
     RDKit          3D

 20 21  0  0  0  0  0  0  0  0999 V2000
   44.2330   35.5830   43.7180 C   0  0  0  0  0  0  0  0  0  0  0  0
   44.3090   34.4020   42.9090 C   0  0  0  0  0  0  0  0  0  0  0  0
   44.9490   33.2630   43.4250 C   0  0  0  0  0  0  0  0  0  0  0  0
   45.4670   33.3570   44.6900 N   0  0  0  0  0  0  0  0  0  0  0  0
   45.3710   34.5010   45.4250 C   0  0  0  0  0  0  0  0  0  0  0  0
   44.7530   35.6140   44.9380 N   0  0  0  0  0  0  0  0  0  0  0  0
   43.7200   34.4940   41.6410 N   0  0  0  0  0  0  0  0  0  0  0  0
   44.2050   34.1370   40.4540 C   0  0  0  0  0  0  0  0  0  0  0  0
   43.2250   34.4280   39.4920 C   0  0  0  0  0  0  0  0  0  0  0  0
   42.1700   34.9550   40.1230 N   0  0  0  0  0  0  0  0  0  0  0  0
   42.4640   35.0020   41.4500 C   0  0  0  0  0  0  0  0  0  0  0  0
   45.5080   33.5490   40.1080 C   0  0  0  0  0  0  0  0  0  0  0  0
   43.7347   36.4793   43.3201 H   0  0  0  0  0  0  0  0  0  0  0  0
   45.0308   32.3358   42.8389 H   0  0  0  0  0  0  0  0  0  0  0  0
   45.8030   34.5266   46.4363 H   0  0  0  0  0  0  0  0  0  0  0  0
   43.3098   34.2533   38.4093 H   0  0  0  0  0  0  0  0  0  0  0  0
   41.8012   35.3853   42.2397 H   0  0  0  0  0  0  0  0  0  0  0  0
   46.0552   33.3021   41.0297 H   0  0  0  0  0  0  0  0  0  0  0  0
   45.3522   32.6339   39.5177 H   0  0  0  0  0  0  0  0  0  0  0  0
   46.0911   34.2712   39.5177 H   0  0  0  0  0  0  0  0  0  0  0  0
  1  6  2  0
  2  3  2  0
  2  1  1  0
  3  4  1  0
  4  5  2  0
  6  5  1  0
  7  2  1  0
  8  7  1  0
  9 10  1  0
  9  8  2  0
 10 11  2  0
 11  7  1  0
 12  8  1  0
  1 13  1  0
  3 14  1  0
  5 15  1  0
  9 16  1  0
 11 17  1  0
 12 18  1  0
 12 19  1  0
 12 20  1  0
M  ISO  8  13  14  14  14  15  14  16  14  17  14  18   8  19   8  20   8
M  END
>  <minimizedAffinity>  (1) 
-3.21989894

>  <minimizedRMSD>  (1) 
0.493116438

$$$$
