
     RDKit          3D

 32 35  0  0  1  0  0  0  0  0999 V2000
   45.7970   34.0580   42.2970 N   0  0  0  0  0  0  0  0  0  0  0  0
   46.7950   34.5670   41.6250 C   0  0  0  0  0  0  0  0  0  0  0  0
   46.7240   34.1410   40.2980 C   0  0  0  0  0  0  0  0  0  0  0  0
   45.6540   33.3630   40.2070 N   0  0  0  0  0  0  0  0  0  0  0  0
   45.0710   33.3010   41.4290 C   0  0  0  0  0  0  0  0  0  0  0  0
   44.7600   35.4350   43.9470 C   0  0  0  0  0  0  0  0  0  0  0  0
   45.4740   34.2210   43.6380 C   0  0  0  0  0  0  0  0  0  0  0  0
   45.7400   33.3990   44.6970 C   0  0  0  0  0  0  0  0  0  0  0  0
   45.3420   33.7390   45.9410 N   0  0  0  0  0  0  0  0  0  0  0  0
   44.6730   34.8910   46.1870 C   0  0  0  0  0  0  0  0  0  0  0  0
   44.3810   35.7400   45.1920 N   0  0  0  0  0  0  0  0  0  0  0  0
   47.9250   35.4660   41.9690 C   0  0  2  0  0  0  0  0  0  0  0  0
   49.0590   35.6220   40.9900 C   0  0  0  0  0  0  0  0  0  0  0  0
   49.2950   34.8860   42.2360 C   0  0  2  0  0  0  0  0  0  0  0  0
   49.5510   33.4710   42.3910 C   0  0  0  0  0  0  0  0  0  0  0  0
   50.7690   32.9490   41.9250 C   0  0  0  0  0  0  0  0  0  0  0  0
   51.1380   31.6190   42.0120 C   0  0  0  0  0  0  0  0  0  0  0  0
   50.2890   30.7250   42.5800 N   0  0  0  0  0  0  0  0  0  0  0  0
   49.1170   31.2570   43.0220 C   0  0  0  0  0  0  0  0  0  0  0  0
   48.7550   32.5460   42.9410 N   0  0  0  0  0  0  0  0  0  0  0  0
   47.4196   34.4000   39.4862 H   0  0  0  0  0  0  0  0  0  0  0  0
   44.1623   32.7334   41.6781 H   0  0  0  0  0  0  0  0  0  0  0  0
   44.5193   36.1329   43.1315 H   0  0  0  0  0  0  0  0  0  0  0  0
   46.2813   32.4553   44.5346 H   0  0  0  0  0  0  0  0  0  0  0  0
   44.3659   35.1324   47.2153 H   0  0  0  0  0  0  0  0  0  0  0  0
   47.2414   36.1403   42.5057 H   0  0  0  0  0  0  0  0  0  0  0  0
   49.0329   35.0817   40.0322 H   0  0  0  0  0  0  0  0  0  0  0  0
   49.5406   36.4799   40.4980 H   0  0  0  0  0  0  0  0  0  0  0  0
   50.0583   34.9654   43.0241 H   0  0  0  0  0  0  0  0  0  0  0  0
   51.4793   33.6472   41.4580 H   0  0  0  0  0  0  0  0  0  0  0  0
   52.1125   31.2880   41.6237 H   0  0  0  0  0  0  0  0  0  0  0  0
   48.4000   30.5658   43.4890 H   0  0  0  0  0  0  0  0  0  0  0  0
  1  7  1  0
  2 12  1  0
  2  1  1  0
  3  2  2  0
  4  3  1  0
  4  5  2  0
  5  1  1  0
  6 11  2  0
  7  6  1  0
  7  8  2  0
  8  9  1  0
  9 10  2  0
 11 10  1  0
 12 14  1  0
 13 12  1  0
 13 14  1  0
 14 15  1  0
 15 20  2  0
 16 17  2  0
 16 15  1  0
 17 18  1  0
 18 19  2  0
 20 19  1  0
  3 21  1  0
  5 22  1  0
  6 23  1  0
  8 24  1  0
 10 25  1  0
 12 26  1  1
 13 27  1  0
 13 28  1  0
 14 29  1  1
 16 30  1  0
 17 31  1  0
 19 32  1  0
M  ISO  8  21  14  22  14  23  14  24  14  25  14  26  13  27  13  28  13
M  ISO  4  29  13  30  14  31  14  32  14
M  END
>  <minimizedAffinity>  (1) 
-5.14831495

>  <minimizedRMSD>  (1) 
0.726722121

$$$$
