
     RDKit          3D

 37 40  0  0  1  0  0  0  0  0999 V2000
   48.0470   35.4660   42.0530 C   0  0  2  0  0  0  0  0  0  0  0  0
   49.2530   35.5070   41.1380 C   0  0  0  0  0  0  0  0  0  0  0  0
   49.3730   34.8310   42.4510 C   0  0  2  0  0  0  0  0  0  0  0  0
   49.2820   33.4220   42.6530 N   0  0  0  0  0  0  0  0  0  0  0  0
   48.2890   32.6380   43.1110 C   0  0  0  0  0  0  0  0  0  0  0  0
   48.4280   31.2820   43.2210 C   0  0  0  0  0  0  0  0  0  0  0  0
   47.2230   30.5840   43.7460 C   0  0  0  0  0  0  0  0  0  0  0  0
   49.6280   30.6830   42.8530 C   0  0  0  0  0  0  0  0  0  0  0  0
   49.6770   29.4310   42.9840 O   0  0  0  0  0  0  0  0  0  0  0  0
   50.6220   31.4600   42.3960 N   0  0  0  0  0  0  0  0  0  0  0  0
   50.4490   32.8030   42.2990 C   0  0  0  0  0  0  0  0  0  0  0  0
   51.4960   33.3800   41.8460 O   0  0  0  0  0  0  0  0  0  0  0  0
   45.8470   34.1610   42.3120 N   0  0  0  0  0  0  0  0  0  0  0  0
   46.9180   34.5640   41.6880 C   0  0  0  0  0  0  0  0  0  0  0  0
   46.9370   34.0110   40.4040 C   0  0  0  0  0  0  0  0  0  0  0  0
   45.8320   33.2630   40.2940 N   0  0  0  0  0  0  0  0  0  0  0  0
   45.1550   33.3460   41.4560 C   0  0  0  0  0  0  0  0  0  0  0  0
   44.7850   35.7130   43.7750 C   0  0  0  0  0  0  0  0  0  0  0  0
   45.4220   34.4550   43.6010 C   0  0  0  0  0  0  0  0  0  0  0  0
   45.5460   33.6680   44.7380 C   0  0  0  0  0  0  0  0  0  0  0  0
   45.0720   34.1200   45.9140 N   0  0  0  0  0  0  0  0  0  0  0  0
   44.4710   35.3270   46.0330 C   0  0  0  0  0  0  0  0  0  0  0  0
   44.3330   36.1130   44.9670 N   0  0  0  0  0  0  0  0  0  0  0  0
   47.3667   36.2103   42.4927 H   0  0  0  0  0  0  0  0  0  0  0  0
   49.2586   34.9110   40.2135 H   0  0  0  0  0  0  0  0  0  0  0  0
   49.8086   36.3088   40.6297 H   0  0  0  0  0  0  0  0  0  0  0  0
   50.1520   34.9190   43.2227 H   0  0  0  0  0  0  0  0  0  0  0  0
   47.3363   33.1020   43.4060 H   0  0  0  0  0  0  0  0  0  0  0  0
   47.2427   30.5954   44.8458 H   0  0  0  0  0  0  0  0  0  0  0  0
   46.3176   31.0975   43.3901 H   0  0  0  0  0  0  0  0  0  0  0  0
   47.2180   29.5432   43.3901 H   0  0  0  0  0  0  0  0  0  0  0  0
   51.5187   31.0363   42.1180 H   0  0  0  0  0  0  0  0  0  0  0  0
   47.7088   34.1611   39.6347 H   0  0  0  0  0  0  0  0  0  0  0  0
   44.2032   32.8422   41.6802 H   0  0  0  0  0  0  0  0  0  0  0  0
   44.6607   36.3751   42.9054 H   0  0  0  0  0  0  0  0  0  0  0  0
   46.0286   32.6813   44.6782 H   0  0  0  0  0  0  0  0  0  0  0  0
   44.0959   35.6592   47.0122 H   0  0  0  0  0  0  0  0  0  0  0  0
  1  3  1  0
  2  1  1  0
  2  3  1  0
  3  4  1  0
  4  5  1  0
  5  6  2  0
  6  7  1  0
  8  9  2  0
  8  6  1  0
 10  8  1  0
 11 10  1  0
 11  4  1  0
 12 11  2  0
 13 19  1  0
 14  1  1  0
 14 13  1  0
 15 14  2  0
 16 15  1  0
 16 17  2  0
 17 13  1  0
 18 23  2  0
 19 18  1  0
 19 20  2  0
 20 21  1  0
 21 22  2  0
 23 22  1  0
  1 24  1  1
  2 25  1  0
  2 26  1  0
  3 27  1  1
  5 28  1  0
  7 29  1  0
  7 30  1  0
  7 31  1  0
 10 32  1  0
 15 33  1  0
 17 34  1  0
 18 35  1  0
 20 36  1  0
 22 37  1  0
M  ISO  8  24  13  25  13  26  13  27  13  28  14  29   8  30   8  31   8
M  ISO  6  32   9  33  14  34  14  35  14  36  14  37  14
M  END
>  <minimizedAffinity>  (1) 
-4.85803509

>  <minimizedRMSD>  (1) 
1.10602248

$$$$
