
     RDKit          3D

 38 42  0  0  1  0  0  0  0  0999 V2000
   48.0430   35.1520   41.9830 C   0  0  2  0  0  0  0  0  0  0  0  0
   49.2990   34.8860   41.2160 C   0  0  0  0  0  0  0  0  0  0  0  0
   49.1830   34.3400   42.5820 C   0  0  2  0  0  0  0  0  0  0  0  0
   48.9370   32.9050   42.7940 C   0  0  0  0  0  0  0  0  0  0  0  0
   47.9730   32.2500   43.4520 N   0  0  0  0  0  0  0  0  0  0  0  0
   47.9340   30.9110   43.5320 C   0  0  0  0  0  0  0  0  0  0  0  0
   48.8680   30.1390   42.9520 N   0  0  0  0  0  0  0  0  0  0  0  0
   49.8790   30.7330   42.2650 C   0  0  0  0  0  0  0  0  0  0  0  0
   50.7870   29.8700   41.7070 C   0  0  0  0  0  0  0  0  0  0  0  0
   51.8290   30.4210   41.0030 C   0  0  0  0  0  0  0  0  0  0  0  0
   51.9250   31.7830   40.8840 C   0  0  0  0  0  0  0  0  0  0  0  0
   50.9800   32.5920   41.4710 C   0  0  0  0  0  0  0  0  0  0  0  0
   49.9080   32.1100   42.1920 C   0  0  0  0  0  0  0  0  0  0  0  0
   45.6830   34.2110   42.2430 N   0  0  0  0  0  0  0  0  0  0  0  0
   46.7920   34.4730   41.6110 C   0  0  0  0  0  0  0  0  0  0  0  0
   46.7050   33.9900   40.2980 C   0  0  0  0  0  0  0  0  0  0  0  0
   45.5060   33.4300   40.1750 N   0  0  0  0  0  0  0  0  0  0  0  0
   44.8640   33.5570   41.3600 C   0  0  0  0  0  0  0  0  0  0  0  0
   44.7470   35.8010   43.7480 C   0  0  0  0  0  0  0  0  0  0  0  0
   45.3250   34.5030   43.5590 C   0  0  0  0  0  0  0  0  0  0  0  0
   45.4640   33.6920   44.6730 C   0  0  0  0  0  0  0  0  0  0  0  0
   45.0480   34.1660   45.8730 N   0  0  0  0  0  0  0  0  0  0  0  0
   44.5110   35.3840   46.0250 C   0  0  0  0  0  0  0  0  0  0  0  0
   44.3570   36.2080   44.9640 N   0  0  0  0  0  0  0  0  0  0  0  0
   47.4770   36.0510   42.2684 H   0  0  0  0  0  0  0  0  0  0  0  0
   49.2769   34.2047   40.3526 H   0  0  0  0  0  0  0  0  0  0  0  0
   50.0352   35.5225   40.7033 H   0  0  0  0  0  0  0  0  0  0  0  0
   49.8206   34.3948   43.4767 H   0  0  0  0  0  0  0  0  0  0  0  0
   47.1144   30.4322   44.0880 H   0  0  0  0  0  0  0  0  0  0  0  0
   50.6846   28.7805   41.8189 H   0  0  0  0  0  0  0  0  0  0  0  0
   52.5842   29.7716   40.5361 H   0  0  0  0  0  0  0  0  0  0  0  0
   52.7572   32.2289   40.3195 H   0  0  0  0  0  0  0  0  0  0  0  0
   51.0850   33.6813   41.3593 H   0  0  0  0  0  0  0  0  0  0  0  0
   47.4793   34.0608   39.5199 H   0  0  0  0  0  0  0  0  0  0  0  0
   43.8490   33.1939   41.5788 H   0  0  0  0  0  0  0  0  0  0  0  0
   44.6220   36.4711   42.8847 H   0  0  0  0  0  0  0  0  0  0  0  0
   45.9018   32.6866   44.5861 H   0  0  0  0  0  0  0  0  0  0  0  0
   44.1920   35.7173   47.0236 H   0  0  0  0  0  0  0  0  0  0  0  0
  1  3  1  0
  2  1  1  0
  2  3  1  0
  3  4  1  0
  4  5  2  0
  5  6  1  0
  7  6  2  0
  8  7  1  0
  9  8  2  0
 10  9  1  0
 11 10  2  0
 11 12  1  0
 12 13  2  0
 13  8  1  0
 13  4  1  0
 14 20  1  0
 15  1  1  0
 15 14  1  0
 16 15  2  0
 17 16  1  0
 17 18  2  0
 18 14  1  0
 19 24  2  0
 20 19  1  0
 20 21  2  0
 21 22  1  0
 22 23  2  0
 24 23  1  0
  1 25  1  1
  2 26  1  0
  2 27  1  0
  3 28  1  1
  6 29  1  0
  9 30  1  0
 10 31  1  0
 11 32  1  0
 12 33  1  0
 16 34  1  0
 18 35  1  0
 19 36  1  0
 21 37  1  0
 23 38  1  0
M  ISO  8  25  13  26  13  27  13  28  13  29  14  30  14  31  14  32  14
M  ISO  6  33  14  34  14  35  14  36  14  37  14  38  14
M  END
>  <minimizedAffinity>  (1) 
-4.99170351

>  <minimizedRMSD>  (1) 
2.409935

$$$$
