
     RDKit          3D

 25 27  0  0  1  0  0  0  0  0999 V2000
   45.8790   34.0090   42.2650 N   0  0  0  0  0  0  0  0  0  0  0  0
   46.8460   34.5470   41.5770 C   0  0  0  0  0  0  0  0  0  0  0  0
   46.8000   34.0550   40.2570 C   0  0  0  0  0  0  0  0  0  0  0  0
   45.7700   33.2110   40.1990 N   0  0  0  0  0  0  0  0  0  0  0  0
   45.1950   33.1710   41.4220 C   0  0  0  0  0  0  0  0  0  0  0  0
   44.7910   35.3640   43.8900 C   0  0  0  0  0  0  0  0  0  0  0  0
   45.5430   34.1930   43.5990 C   0  0  0  0  0  0  0  0  0  0  0  0
   45.8530   33.3710   44.6750 C   0  0  0  0  0  0  0  0  0  0  0  0
   45.4370   33.7160   45.9110 N   0  0  0  0  0  0  0  0  0  0  0  0
   44.7250   34.8350   46.1460 C   0  0  0  0  0  0  0  0  0  0  0  0
   44.4050   35.6530   45.1430 N   0  0  0  0  0  0  0  0  0  0  0  0
   47.9080   35.5300   41.8910 C   0  0  2  0  0  0  0  0  0  0  0  0
   49.0680   35.6840   40.9610 C   0  0  0  0  0  0  0  0  0  0  0  0
   49.2820   35.0110   42.2810 C   0  0  2  0  0  0  0  0  0  0  0  0
   49.5690   33.2500   42.3940 S   0  0  0  0  0  0  0  0  0  0  0  0
   47.4818   34.3167   39.4344 H   0  0  0  0  0  0  0  0  0  0  0  0
   44.3196   32.5641   41.6966 H   0  0  0  0  0  0  0  0  0  0  0  0
   44.5199   36.0473   43.0717 H   0  0  0  0  0  0  0  0  0  0  0  0
   46.4317   32.4483   44.5208 H   0  0  0  0  0  0  0  0  0  0  0  0
   44.4059   35.0752   47.1709 H   0  0  0  0  0  0  0  0  0  0  0  0
   47.1726   36.2190   42.3320 H   0  0  0  0  0  0  0  0  0  0  0  0
   49.1075   35.0941   40.0334 H   0  0  0  0  0  0  0  0  0  0  0  0
   49.5350   36.5355   40.4444 H   0  0  0  0  0  0  0  0  0  0  0  0
   49.9751   35.1626   43.1216 H   0  0  0  0  0  0  0  0  0  0  0  0
   49.6292   32.8808   43.7119 H   0  0  0  0  0  0  0  0  0  0  0  0
  1  7  1  0
  2 12  1  0
  2  1  1  0
  3  2  2  0
  4  3  1  0
  4  5  2  0
  5  1  1  0
  6 11  2  0
  7  6  1  0
  7  8  2  0
  8  9  1  0
  9 10  2  0
 11 10  1  0
 12 14  1  0
 13 12  1  0
 13 14  1  0
 14 15  1  0
  3 16  1  0
  5 17  1  0
  6 18  1  0
  8 19  1  0
 10 20  1  0
 12 21  1  1
 13 22  1  0
 13 23  1  0
 14 24  1  1
 15 25  1  0
M  ISO  8  16  14  17  14  18  14  19  14  20  14  21  13  22  13  23  13
M  ISO  2  24  13  25  11
M  END
>  <minimizedAffinity>  (1) 
-4.31949902

>  <minimizedRMSD>  (1) 
0.40347746

$$$$
