
     RDKit          3D

 28 30  0  0  0  0  0  0  0  0999 V2000
   48.5810   34.5190   41.4020 C   0  0  0  0  0  0  0  0  0  0  0  0
   48.3700   34.6220   40.0320 C   0  0  0  0  0  0  0  0  0  0  0  0
   47.5220   33.6810   39.4510 C   0  0  0  0  0  0  0  0  0  0  0  0
   46.9500   32.7190   40.2480 N   0  0  0  0  0  0  0  0  0  0  0  0
   47.1990   32.6790   41.5740 C   0  0  0  0  0  0  0  0  0  0  0  0
   48.0060   33.5680   42.1420 N   0  0  0  0  0  0  0  0  0  0  0  0
   49.4760   35.5070   42.0330 C   0  0  0  0  0  0  0  0  0  0  0  0
   49.4710   36.7040   41.6000 O   0  0  0  0  0  0  0  0  0  0  0  0
   50.2860   35.1250   43.0630 O   0  0  0  0  0  0  0  0  0  0  0  0
   46.4770   31.4480   42.6350 S   0  0  0  0  0  0  0  0  0  0  0  0
   46.0070   32.3240   44.1420 C   0  0  0  0  0  0  0  0  0  0  0  0
   46.1340   31.8560   45.4330 C   0  0  0  0  0  0  0  0  0  0  0  0
   45.6760   32.7990   46.2640 N   0  0  0  0  0  0  0  0  0  0  0  0
   45.2740   33.8310   45.5130 C   0  0  0  0  0  0  0  0  0  0  0  0
   44.7220   35.0500   45.8850 C   0  0  0  0  0  0  0  0  0  0  0  0
   44.3890   35.9560   44.8930 C   0  0  0  0  0  0  0  0  0  0  0  0
   44.5660   35.7320   43.5490 C   0  0  0  0  0  0  0  0  0  0  0  0
   45.1200   34.5040   43.1810 C   0  0  0  0  0  0  0  0  0  0  0  0
   45.4580   33.5910   44.1560 C   0  0  0  0  0  0  0  0  0  0  0  0
   48.8504   35.4102   39.4337 H   0  0  0  0  0  0  0  0  0  0  0  0
   47.3138   33.7080   38.3712 H   0  0  0  0  0  0  0  0  0  0  0  0
   50.8885   35.7845   43.4898 H   0  0  0  0  0  0  0  0  0  0  0  0
   46.5410   30.8776   45.7281 H   0  0  0  0  0  0  0  0  0  0  0  0
   45.6395   32.7414   47.2917 H   0  0  0  0  0  0  0  0  0  0  0  0
   44.5531   35.2902   46.9451 H   0  0  0  0  0  0  0  0  0  0  0  0
   43.9542   36.9184   45.2008 H   0  0  0  0  0  0  0  0  0  0  0  0
   44.2845   36.4848   42.7979 H   0  0  0  0  0  0  0  0  0  0  0  0
   45.2855   34.2672   42.1196 H   0  0  0  0  0  0  0  0  0  0  0  0
  1  7  1  0
  1  6  2  0
  2  1  1  0
  3  2  2  0
  3  4  1  0
  4  5  2  0
  5  6  1  0
  5 10  1  0
  7  9  1  0
  8  7  2  0
 10 11  1  0
 11 19  1  0
 11 12  2  0
 12 13  1  0
 14 15  2  0
 14 13  1  0
 16 15  1  0
 17 16  2  0
 18 17  1  0
 18 19  2  0
 19 14  1  0
  2 20  1  0
  3 21  1  0
  9 22  1  0
 12 23  1  0
 13 24  1  0
 15 25  1  0
 16 26  1  0
 17 27  1  0
 18 28  1  0
M  ISO  8  20  14  21  14  22   3  23  14  24   9  25  14  26  14  27  14
M  ISO  1  28  14
M  END
>  <minimizedAffinity>  (1) 
-5.64860201

>  <minimizedRMSD>  (1) 
2.17746329

$$$$
