
     RDKit          3D

 26 26  0  0  0  0  0  0  0  0999 V2000
   47.9290   34.4980   42.6500 C   0  0  0  0  0  0  0  0  0  0  0  0
   46.7720   34.8180   41.9470 C   0  0  0  0  0  0  0  0  0  0  0  0
   45.6190   34.0910   42.2470 C   0  0  0  0  0  0  0  0  0  0  0  0
   45.6840   33.1150   43.2030 N   0  0  0  0  0  0  0  0  0  0  0  0
   46.8440   32.8560   43.8480 C   0  0  0  0  0  0  0  0  0  0  0  0
   47.9620   33.5420   43.5740 N   0  0  0  0  0  0  0  0  0  0  0  0
   49.1540   35.2630   42.3510 C   0  0  0  0  0  0  0  0  0  0  0  0
   49.1550   36.0330   41.3450 O   0  0  0  0  0  0  0  0  0  0  0  0
   50.2590   35.1360   43.1480 O   0  0  0  0  0  0  0  0  0  0  0  0
   47.0020   31.6000   45.1140 S   0  0  0  0  0  0  0  0  0  0  0  0
   46.3730   32.1270   46.7110 C   0  0  0  0  0  0  0  0  0  0  0  0
   45.4410   31.1040   47.3240 C   0  0  0  0  0  0  0  0  0  0  0  0
   47.4450   32.3980   47.7380 C   0  0  0  0  0  0  0  0  0  0  0  0
   45.6010   33.3970   46.5010 C   0  0  0  0  0  0  0  0  0  0  0  0
   46.7661   35.6118   41.1856 H   0  0  0  0  0  0  0  0  0  0  0  0
   44.6742   34.2994   41.7236 H   0  0  0  0  0  0  0  0  0  0  0  0
   51.0789   35.6516   42.9432 H   0  0  0  0  0  0  0  0  0  0  0  0
   45.4981   31.1667   48.4207 H   0  0  0  0  0  0  0  0  0  0  0  0
   44.4099   31.3058   46.9984 H   0  0  0  0  0  0  0  0  0  0  0  0
   45.7377   30.0961   46.9984 H   0  0  0  0  0  0  0  0  0  0  0  0
   47.0212   32.2909   48.7474 H   0  0  0  0  0  0  0  0  0  0  0  0
   48.2677   31.6796   47.6076 H   0  0  0  0  0  0  0  0  0  0  0  0
   47.8275   33.4211   47.6076 H   0  0  0  0  0  0  0  0  0  0  0  0
   45.3370   33.8312   47.4766 H   0  0  0  0  0  0  0  0  0  0  0  0
   46.2176   34.1118   45.9363 H   0  0  0  0  0  0  0  0  0  0  0  0
   44.6826   33.1787   45.9363 H   0  0  0  0  0  0  0  0  0  0  0  0
  1  6  2  0
  2  3  2  0
  2  1  1  0
  3  4  1  0
  4  5  2  0
  5 10  1  0
  6  5  1  0
  7  1  1  0
  7  9  1  0
  8  7  2  0
 10 11  1  0
 11 12  1  0
 11 13  1  0
 14 11  1  0
  2 15  1  0
  3 16  1  0
  9 17  1  0
 12 18  1  0
 12 19  1  0
 12 20  1  0
 13 21  1  0
 13 22  1  0
 13 23  1  0
 14 24  1  0
 14 25  1  0
 14 26  1  0
M  ISO  8  15  14  16  14  17   3  18   8  19   8  20   8  21   8  22   8
M  ISO  4  23   8  24   8  25   8  26   8
M  END
>  <minimizedAffinity>  (1) 
-4.40008116

>  <minimizedRMSD>  (1) 
1.68843126

$$$$
