
     RDKit          3D

 22 23  0  0  0  0  0  0  0  0999 V2000
   46.2750   34.1690   43.3380 C   0  0  0  0  0  0  0  0  0  0  0  0
   47.5640   34.5960   42.9830 C   0  0  0  0  0  0  0  0  0  0  0  0
   47.8360   34.6980   41.6270 C   0  0  0  0  0  0  0  0  0  0  0  0
   46.8630   34.3850   40.7280 N   0  0  0  0  0  0  0  0  0  0  0  0
   45.6360   33.9770   41.1340 C   0  0  0  0  0  0  0  0  0  0  0  0
   45.3550   33.8730   42.4310 N   0  0  0  0  0  0  0  0  0  0  0  0
   45.9880   34.0580   44.7800 C   0  0  0  0  0  0  0  0  0  0  0  0
   44.9640   34.5960   45.2660 O   0  0  0  0  0  0  0  0  0  0  0  0
   46.8620   33.3570   45.5760 O   0  0  0  0  0  0  0  0  0  0  0  0
   44.3330   33.5580   40.0010 S   0  0  0  0  0  0  0  0  0  0  0  0
   42.7300   33.9010   40.6520 C   0  0  0  0  0  0  0  0  0  0  0  0
   42.4670   35.2570   40.8100 C   0  0  0  0  0  0  0  0  0  0  0  0
   41.2470   35.7040   41.3120 C   0  0  0  0  0  0  0  0  0  0  0  0
   40.3060   34.7950   41.6520 N   0  0  0  0  0  0  0  0  0  0  0  0
   40.5850   33.4880   41.4910 C   0  0  0  0  0  0  0  0  0  0  0  0
   41.7560   33.0310   41.0070 N   0  0  0  0  0  0  0  0  0  0  0  0
   48.3214   34.8379   43.7431 H   0  0  0  0  0  0  0  0  0  0  0  0
   48.8269   35.0281   41.2818 H   0  0  0  0  0  0  0  0  0  0  0  0
   46.6873   33.2708   46.5466 H   0  0  0  0  0  0  0  0  0  0  0  0
   43.2376   35.9915   40.5331 H   0  0  0  0  0  0  0  0  0  0  0  0
   41.0523   36.7802   41.4300 H   0  0  0  0  0  0  0  0  0  0  0  0
   39.8151   32.7535   41.7698 H   0  0  0  0  0  0  0  0  0  0  0  0
  1  7  1  0
  2  1  2  0
  3  2  1  0
  4  5  1  0
  4  3  2  0
  5  6  2  0
  6  1  1  0
  7  8  2  0
  7  9  1  0
 10 11  1  0
 10  5  1  0
 11 12  2  0
 11 16  1  0
 12 13  1  0
 13 14  2  0
 15 14  1  0
 16 15  2  0
  2 17  1  0
  3 18  1  0
  9 19  1  0
 12 20  1  0
 13 21  1  0
 15 22  1  0
M  ISO  6  17  14  18  14  19   3  20  14  21  14  22  14
M  END
>  <minimizedAffinity>  (1) 
-4.23517704

>  <minimizedRMSD>  (1) 
4.50488615

$$$$
