
     RDKit          3D

 35 36  0  0  0  0  0  0  0  0999 V2000
   46.6930   32.8610   38.5110 C   0  0  0  0  0  0  0  0  0  0  0  0
   45.8850   34.6880   41.5830 C   0  0  0  0  0  0  0  0  0  0  0  0
   47.1150   35.1750   41.9980 C   0  0  0  0  0  0  0  0  0  0  0  0
   48.2540   34.8780   41.2240 C   0  0  0  0  0  0  0  0  0  0  0  0
   48.0680   34.1280   40.1140 N   0  0  0  0  0  0  0  0  0  0  0  0
   46.8630   33.6630   39.7250 C   0  0  0  0  0  0  0  0  0  0  0  0
   45.7920   33.9480   40.4620 N   0  0  0  0  0  0  0  0  0  0  0  0
   44.7060   34.9900   42.3810 C   0  0  0  0  0  0  0  0  0  0  0  0
   43.8290   35.7840   41.9160 O   0  0  0  0  0  0  0  0  0  0  0  0
   44.5970   34.3790   43.6350 O   0  0  0  0  0  0  0  0  0  0  0  0
   45.0810   35.0440   44.7620 C   0  0  0  0  0  0  0  0  0  0  0  0
   44.2290   34.9820   45.8480 F   0  0  0  0  0  0  0  0  0  0  0  0
   46.3020   34.5310   45.1340 F   0  0  0  0  0  0  0  0  0  0  0  0
   45.1900   36.3900   44.3960 F   0  0  0  0  0  0  0  0  0  0  0  0
   47.3380   31.5060   38.5980 C   0  0  0  0  0  0  0  0  0  0  0  0
   45.2200   32.6710   38.2630 C   0  0  0  0  0  0  0  0  0  0  0  0
   47.2490   33.6270   37.3510 C   0  0  0  0  0  0  0  0  0  0  0  0
   47.4190   32.9000   36.1310 N   0  0  0  0  0  0  0  0  0  0  0  0
   46.6880   32.1930   35.2900 N   0  0  0  0  0  0  0  0  0  0  0  0
   47.3930   31.7190   34.2590 C   0  0  0  0  0  0  0  0  0  0  0  0
   48.6930   32.1310   34.4080 C   0  0  0  0  0  0  0  0  0  0  0  0
   48.6670   32.8540   35.5710 C   0  0  0  0  0  0  0  0  0  0  0  0
   47.1997   35.7806   42.9124 H   0  0  0  0  0  0  0  0  0  0  0  0
   49.2523   35.2407   41.5103 H   0  0  0  0  0  0  0  0  0  0  0  0
   47.4695   31.2297   39.6546 H   0  0  0  0  0  0  0  0  0  0  0  0
   46.6973   30.7624   38.1015 H   0  0  0  0  0  0  0  0  0  0  0  0
   48.3192   31.5344   38.1015 H   0  0  0  0  0  0  0  0  0  0  0  0
   44.6919   32.6029   39.2255 H   0  0  0  0  0  0  0  0  0  0  0  0
   44.8311   33.5264   37.6911 H   0  0  0  0  0  0  0  0  0  0  0  0
   45.0609   31.7449   37.6911 H   0  0  0  0  0  0  0  0  0  0  0  0
   46.5686   34.4671   37.1478 H   0  0  0  0  0  0  0  0  0  0  0  0
   48.2627   33.9251   37.6569 H   0  0  0  0  0  0  0  0  0  0  0  0
   46.9999   31.1057   33.4348 H   0  0  0  0  0  0  0  0  0  0  0  0
   49.5514   31.9289   33.7504 H   0  0  0  0  0  0  0  0  0  0  0  0
   49.5508   33.3432   36.0065 H   0  0  0  0  0  0  0  0  0  0  0  0
  1 15  1  0
  1  6  1  0
  2  3  2  0
  2  8  1  0
  4  3  1  0
  5  4  2  0
  6  5  1  0
  6  7  2  0
  7  2  1  0
  8 10  1  0
  9  8  2  0
 10 11  1  0
 11 13  1  0
 11 12  1  0
 14 11  1  0
 16  1  1  0
 17  1  1  0
 18 17  1  0
 19 18  1  0
 20 21  1  0
 20 19  2  0
 21 22  2  0
 22 18  1  0
  3 23  1  0
  4 24  1  0
 15 25  1  0
 15 26  1  0
 15 27  1  0
 16 28  1  0
 16 29  1  0
 16 30  1  0
 17 31  1  0
 17 32  1  0
 20 33  1  0
 21 34  1  0
 22 35  1  0
M  ISO  8  23  14  24  14  25   8  26   8  27   8  28   8  29   8  30   8
M  ISO  5  31   8  32   8  33  14  34  14  35  14
M  END
>  <minimizedAffinity>  (1) 
-4.43076324

>  <minimizedRMSD>  (1) 
1.67207539

$$$$
