
     RDKit          3D

 25 27  0  0  0  0  0  0  0  0999 V2000
   47.8000   34.7160   42.3420 C   0  0  0  0  0  0  0  0  0  0  0  0
   47.0840   34.3350   41.2110 C   0  0  0  0  0  0  0  0  0  0  0  0
   45.8590   33.7110   41.4200 C   0  0  0  0  0  0  0  0  0  0  0  0
   45.4320   33.5090   42.7010 N   0  0  0  0  0  0  0  0  0  0  0  0
   46.1760   33.9040   43.7620 C   0  0  0  0  0  0  0  0  0  0  0  0
   47.3440   34.5000   43.5760 N   0  0  0  0  0  0  0  0  0  0  0  0
   49.1010   35.3800   42.1360 C   0  0  0  0  0  0  0  0  0  0  0  0
   49.2540   36.1530   41.1610 O   0  0  0  0  0  0  0  0  0  0  0  0
   50.1260   35.1400   43.0180 O   0  0  0  0  0  0  0  0  0  0  0  0
   45.6480   33.6580   45.4390 S   0  0  0  0  0  0  0  0  0  0  0  0
   46.1780   30.3660   49.1220 N   0  0  0  0  0  0  0  0  0  0  0  0
   45.3580   31.4090   49.4450 C   0  0  0  0  0  0  0  0  0  0  0  0
   45.2870   32.2380   48.3730 N   0  0  0  0  0  0  0  0  0  0  0  0
   46.0660   31.6790   47.4250 C   0  0  0  0  0  0  0  0  0  0  0  0
   46.2950   32.1810   46.1600 C   0  0  0  0  0  0  0  0  0  0  0  0
   47.1210   31.4570   45.3490 N   0  0  0  0  0  0  0  0  0  0  0  0
   47.6900   30.3070   45.7630 C   0  0  0  0  0  0  0  0  0  0  0  0
   47.4360   29.8630   46.9990 N   0  0  0  0  0  0  0  0  0  0  0  0
   46.6460   30.5030   47.8520 C   0  0  0  0  0  0  0  0  0  0  0  0
   47.4697   34.5192   40.1974 H   0  0  0  0  0  0  0  0  0  0  0  0
   45.2444   33.3856   40.5677 H   0  0  0  0  0  0  0  0  0  0  0  0
   51.0032   35.5804   42.8891 H   0  0  0  0  0  0  0  0  0  0  0  0
   46.4098   29.5847   49.7519 H   0  0  0  0  0  0  0  0  0  0  0  0
   44.8442   31.5523   50.4070 H   0  0  0  0  0  0  0  0  0  0  0  0
   48.3544   29.7413   45.0932 H   0  0  0  0  0  0  0  0  0  0  0  0
  1  6  2  0
  2  3  2  0
  2  1  1  0
  3  4  1  0
  4  5  2  0
  5 10  1  0
  6  5  1  0
  7  1  1  0
  7  9  1  0
  8  7  2  0
 10 15  1  0
 11 12  1  0
 13 12  2  0
 14 19  2  0
 14 13  1  0
 15 14  1  0
 16 17  1  0
 16 15  2  0
 17 18  2  0
 18 19  1  0
 19 11  1  0
  2 20  1  0
  3 21  1  0
  9 22  1  0
 11 23  1  0
 12 24  1  0
 17 25  1  0
M  ISO  6  20  14  21  14  22   3  23   9  24  14  25  14
M  END
>  <minimizedAffinity>  (1) 
-5.61543465

>  <minimizedRMSD>  (1) 
1.76616371

$$$$
