
     RDKit          3D

 40 43  0  0  0  0  0  0  0  0999 V2000
   46.1590   30.3880   49.1560 N   0  0  0  0  0  0  0  0  0  0  0  0
   45.2910   31.3890   49.4430 C   0  0  0  0  0  0  0  0  0  0  0  0
   45.2260   32.2200   48.3660 N   0  0  0  0  0  0  0  0  0  0  0  0
   46.0660   31.6930   47.4440 C   0  0  0  0  0  0  0  0  0  0  0  0
   46.3130   32.2090   46.1990 C   0  0  0  0  0  0  0  0  0  0  0  0
   47.2040   31.5180   45.4120 N   0  0  0  0  0  0  0  0  0  0  0  0
   47.7960   30.3990   45.8540 C   0  0  0  0  0  0  0  0  0  0  0  0
   47.5270   29.9340   47.0670 N   0  0  0  0  0  0  0  0  0  0  0  0
   46.6770   30.5380   47.8970 C   0  0  0  0  0  0  0  0  0  0  0  0
   48.7140   29.7020   45.0200 N   0  0  0  0  0  0  0  0  0  0  0  0
   49.0530   30.1520   43.6860 C   0  0  0  0  0  0  0  0  0  0  0  0
   50.1770   29.3000   43.1610 C   0  0  0  0  0  0  0  0  0  0  0  0
   51.3050   29.1060   44.1290 C   0  0  0  0  0  0  0  0  0  0  0  0
   50.8680   28.6940   45.4950 C   0  0  0  0  0  0  0  0  0  0  0  0
   49.3660   28.4960   45.4620 C   0  0  0  0  0  0  0  0  0  0  0  0
   45.6350   33.6560   45.4560 S   0  0  0  0  0  0  0  0  0  0  0  0
   47.7770   34.6960   42.3440 C   0  0  0  0  0  0  0  0  0  0  0  0
   47.0670   34.3060   41.2180 C   0  0  0  0  0  0  0  0  0  0  0  0
   45.8470   33.6800   41.4270 C   0  0  0  0  0  0  0  0  0  0  0  0
   45.4170   33.4850   42.7120 N   0  0  0  0  0  0  0  0  0  0  0  0
   46.1600   33.8910   43.7770 C   0  0  0  0  0  0  0  0  0  0  0  0
   47.3210   34.4870   43.5860 N   0  0  0  0  0  0  0  0  0  0  0  0
   49.0800   35.3650   42.1490 C   0  0  0  0  0  0  0  0  0  0  0  0
   49.2410   36.1370   41.1780 O   0  0  0  0  0  0  0  0  0  0  0  0
   50.1030   35.1300   43.0390 O   0  0  0  0  0  0  0  0  0  0  0  0
   46.3968   29.6185   49.7981 H   0  0  0  0  0  0  0  0  0  0  0  0
   44.7347   31.5094   50.3843 H   0  0  0  0  0  0  0  0  0  0  0  0
   48.1765   30.0548   43.0285 H   0  0  0  0  0  0  0  0  0  0  0  0
   49.3635   31.2069   43.7137 H   0  0  0  0  0  0  0  0  0  0  0  0
   49.7693   28.3113   42.9038 H   0  0  0  0  0  0  0  0  0  0  0  0
   50.5944   29.8284   42.2912 H   0  0  0  0  0  0  0  0  0  0  0  0
   51.9732   28.3284   43.7303 H   0  0  0  0  0  0  0  0  0  0  0  0
   51.8048   30.0802   44.2349 H   0  0  0  0  0  0  0  0  0  0  0  0
   51.3631   27.7534   45.7783 H   0  0  0  0  0  0  0  0  0  0  0  0
   51.1374   29.4642   46.2327 H   0  0  0  0  0  0  0  0  0  0  0  0
   49.0111   28.2403   46.4713 H   0  0  0  0  0  0  0  0  0  0  0  0
   49.1270   27.6819   44.7619 H   0  0  0  0  0  0  0  0  0  0  0  0
   47.4543   34.4852   40.2042 H   0  0  0  0  0  0  0  0  0  0  0  0
   45.2359   33.3462   40.5754 H   0  0  0  0  0  0  0  0  0  0  0  0
   50.9789   35.5745   42.9150 H   0  0  0  0  0  0  0  0  0  0  0  0
  1  2  1  0
  3  2  2  0
  4  9  2  0
  4  3  1  0
  5  4  1  0
  6  7  1  0
  6  5  2  0
  7  8  2  0
  8  9  1  0
  9  1  1  0
 10 15  1  0
 10  7  1  0
 11 10  1  0
 12 11  1  0
 12 13  1  0
 13 14  1  0
 15 14  1  0
 16  5  1  0
 17 22  2  0
 18 19  2  0
 18 17  1  0
 19 20  1  0
 20 21  2  0
 21 16  1  0
 22 21  1  0
 23 17  1  0
 23 25  1  0
 24 23  2  0
  1 26  1  0
  2 27  1  0
 11 28  1  0
 11 29  1  0
 12 30  1  0
 12 31  1  0
 13 32  1  0
 13 33  1  0
 14 34  1  0
 14 35  1  0
 15 36  1  0
 15 37  1  0
 18 38  1  0
 19 39  1  0
 25 40  1  0
M  ISO  8  26   9  27  14  28  13  29  13  30  13  31  13  32  13  33  13
M  ISO  7  34  13  35  13  36  13  37  13  38  14  39  14  40   3
M  END
>  <minimizedAffinity>  (1) 
-6.18808556

>  <minimizedRMSD>  (1) 
0.171837389

$$$$
