
     RDKit          3D

 38 41  0  0  0  0  0  0  0  0999 V2000
   46.1630   30.3540   49.1090 N   0  0  0  0  0  0  0  0  0  0  0  0
   45.3670   31.4130   49.4370 C   0  0  0  0  0  0  0  0  0  0  0  0
   45.2990   32.2460   48.3690 N   0  0  0  0  0  0  0  0  0  0  0  0
   46.0630   31.6630   47.4100 C   0  0  0  0  0  0  0  0  0  0  0  0
   46.2740   32.1820   46.1530 C   0  0  0  0  0  0  0  0  0  0  0  0
   47.0830   31.4440   45.3320 N   0  0  0  0  0  0  0  0  0  0  0  0
   47.6420   30.2830   45.7220 C   0  0  0  0  0  0  0  0  0  0  0  0
   47.3830   29.8430   46.9720 N   0  0  0  0  0  0  0  0  0  0  0  0
   46.6180   30.4850   47.8320 C   0  0  0  0  0  0  0  0  0  0  0  0
   48.5160   29.5150   44.7930 C   0  0  0  0  0  0  0  0  0  0  0  0
   49.8490   29.1500   45.3790 C   0  0  0  0  0  0  0  0  0  0  0  0
   50.5900   28.6690   44.1470 C   0  0  0  0  0  0  0  0  0  0  0  0
   49.9500   29.3850   42.9600 C   0  0  0  0  0  0  0  0  0  0  0  0
   48.9490   30.3580   43.5990 C   0  0  0  0  0  0  0  0  0  0  0  0
   45.6510   33.6620   45.4430 S   0  0  0  0  0  0  0  0  0  0  0  0
   47.7940   34.7210   42.3350 C   0  0  0  0  0  0  0  0  0  0  0  0
   47.0750   34.3470   41.2060 C   0  0  0  0  0  0  0  0  0  0  0  0
   45.8400   33.7240   41.4140 C   0  0  0  0  0  0  0  0  0  0  0  0
   45.4290   33.5260   42.6980 N   0  0  0  0  0  0  0  0  0  0  0  0
   46.1720   33.9120   43.7640 C   0  0  0  0  0  0  0  0  0  0  0  0
   47.3430   34.5040   43.5740 N   0  0  0  0  0  0  0  0  0  0  0  0
   49.0960   35.3790   42.1390 C   0  0  0  0  0  0  0  0  0  0  0  0
   49.2560   36.1540   41.1670 O   0  0  0  0  0  0  0  0  0  0  0  0
   50.1170   35.1340   43.0250 O   0  0  0  0  0  0  0  0  0  0  0  0
   46.3873   29.5688   49.7368 H   0  0  0  0  0  0  0  0  0  0  0  0
   44.8654   31.5651   50.4041 H   0  0  0  0  0  0  0  0  0  0  0  0
   47.8960   28.6400   44.5481 H   0  0  0  0  0  0  0  0  0  0  0  0
   50.3430   30.0224   45.8316 H   0  0  0  0  0  0  0  0  0  0  0  0
   49.7978   28.4112   46.1924 H   0  0  0  0  0  0  0  0  0  0  0  0
   51.6569   28.9273   44.2183 H   0  0  0  0  0  0  0  0  0  0  0  0
   50.5237   27.5762   44.0399 H   0  0  0  0  0  0  0  0  0  0  0  0
   49.4329   28.6682   42.3051 H   0  0  0  0  0  0  0  0  0  0  0  0
   50.6909   29.8981   42.3293 H   0  0  0  0  0  0  0  0  0  0  0  0
   49.4298   31.2969   43.9110 H   0  0  0  0  0  0  0  0  0  0  0  0
   48.1347   30.6951   42.9408 H   0  0  0  0  0  0  0  0  0  0  0  0
   47.4604   34.5329   40.1926 H   0  0  0  0  0  0  0  0  0  0  0  0
   45.2183   33.4030   40.5652 H   0  0  0  0  0  0  0  0  0  0  0  0
   50.9960   35.5723   42.9008 H   0  0  0  0  0  0  0  0  0  0  0  0
  1  2  1  0
  3  2  2  0
  4  9  2  0
  4  3  1  0
  5  4  1  0
  6  7  1  0
  6  5  2  0
  7  8  2  0
  8  9  1  0
  9  1  1  0
 10 11  1  0
 10  7  1  0
 12 11  1  0
 13 14  1  0
 13 12  1  0
 14 10  1  0
 15  5  1  0
 16 21  2  0
 17 18  2  0
 17 16  1  0
 18 19  1  0
 19 20  2  0
 20 15  1  0
 21 20  1  0
 22 16  1  0
 22 24  1  0
 23 22  2  0
  1 25  1  0
  2 26  1  0
 10 27  1  0
 11 28  1  0
 11 29  1  0
 12 30  1  0
 12 31  1  0
 13 32  1  0
 13 33  1  0
 14 34  1  0
 14 35  1  0
 17 36  1  0
 18 37  1  0
 24 38  1  0
M  ISO  8  25   9  26  14  27  13  28  13  29  13  30  13  31  13  32  13
M  ISO  6  33  13  34  13  35  13  36  14  37  14  38   3
M  END
>  <minimizedAffinity>  (1) 
-5.86993217

>  <minimizedRMSD>  (1) 
0.297326803

$$$$
