
     RDKit          3D

 32 35  0  0  0  0  0  0  0  0999 V2000
   46.1800   30.3830   49.1400 N   0  0  0  0  0  0  0  0  0  0  0  0
   45.3220   31.3910   49.4350 C   0  0  0  0  0  0  0  0  0  0  0  0
   45.2430   32.2270   48.3700 N   0  0  0  0  0  0  0  0  0  0  0  0
   46.0670   31.6980   47.4440 C   0  0  0  0  0  0  0  0  0  0  0  0
   46.3180   32.2050   46.1840 C   0  0  0  0  0  0  0  0  0  0  0  0
   47.1920   31.5150   45.3950 N   0  0  0  0  0  0  0  0  0  0  0  0
   47.7870   30.3900   45.8140 C   0  0  0  0  0  0  0  0  0  0  0  0
   47.5130   29.9310   47.0520 N   0  0  0  0  0  0  0  0  0  0  0  0
   46.6760   30.5410   47.8820 C   0  0  0  0  0  0  0  0  0  0  0  0
   48.7050   29.6450   45.0170 N   0  0  0  0  0  0  0  0  0  0  0  0
   48.7990   30.0630   43.7230 C   0  0  0  0  0  0  0  0  0  0  0  0
   49.7320   29.2250   43.1080 C   0  0  0  0  0  0  0  0  0  0  0  0
   50.1690   28.3370   44.0300 N   0  0  0  0  0  0  0  0  0  0  0  0
   49.5290   28.6130   45.1900 C   0  0  0  0  0  0  0  0  0  0  0  0
   45.6390   33.6660   45.4460 S   0  0  0  0  0  0  0  0  0  0  0  0
   47.7760   34.7090   42.3390 C   0  0  0  0  0  0  0  0  0  0  0  0
   47.0670   34.3280   41.2100 C   0  0  0  0  0  0  0  0  0  0  0  0
   45.8420   33.7040   41.4280 C   0  0  0  0  0  0  0  0  0  0  0  0
   45.4160   33.5070   42.7100 N   0  0  0  0  0  0  0  0  0  0  0  0
   46.1540   33.9020   43.7740 C   0  0  0  0  0  0  0  0  0  0  0  0
   47.3240   34.4990   43.5810 N   0  0  0  0  0  0  0  0  0  0  0  0
   49.0830   35.3750   42.1380 C   0  0  0  0  0  0  0  0  0  0  0  0
   49.2440   36.1460   41.1650 O   0  0  0  0  0  0  0  0  0  0  0  0
   50.1120   35.1390   43.0260 O   0  0  0  0  0  0  0  0  0  0  0  0
   46.4215   29.6096   49.7759 H   0  0  0  0  0  0  0  0  0  0  0  0
   44.7785   31.5110   50.3838 H   0  0  0  0  0  0  0  0  0  0  0  0
   48.2499   30.8941   43.2564 H   0  0  0  0  0  0  0  0  0  0  0  0
   50.0548   29.2779   42.0578 H   0  0  0  0  0  0  0  0  0  0  0  0
   49.6685   28.0667   46.1345 H   0  0  0  0  0  0  0  0  0  0  0  0
   47.4522   34.5093   40.1957 H   0  0  0  0  0  0  0  0  0  0  0  0
   45.2255   33.3741   40.5788 H   0  0  0  0  0  0  0  0  0  0  0  0
   50.9883   35.5813   42.8971 H   0  0  0  0  0  0  0  0  0  0  0  0
  1  2  1  0
  3  2  2  0
  4  9  2  0
  4  3  1  0
  5  4  1  0
  6  7  1  0
  6  5  2  0
  7  8  2  0
  8  9  1  0
  9  1  1  0
 10 14  1  0
 10  7  1  0
 11 10  1  0
 12 11  2  0
 12 13  1  0
 13 14  2  0
 15  5  1  0
 16 21  2  0
 17 18  2  0
 17 16  1  0
 18 19  1  0
 19 20  2  0
 20 15  1  0
 21 20  1  0
 22 16  1  0
 22 24  1  0
 23 22  2  0
  1 25  1  0
  2 26  1  0
 11 27  1  0
 12 28  1  0
 14 29  1  0
 17 30  1  0
 18 31  1  0
 24 32  1  0
M  ISO  8  25   9  26  14  27  14  28  14  29  14  30  14  31  14  32   3
M  END
>  <minimizedAffinity>  (1) 
-5.9874897

>  <minimizedRMSD>  (1) 
0.120728806

$$$$
