
     RDKit          3D

 35 36  0  0  0  0  0  0  0  0999 V2000
   46.4760   32.3990   38.1350 C   0  0  0  0  0  0  0  0  0  0  0  0
   45.8730   34.4090   41.1340 C   0  0  0  0  0  0  0  0  0  0  0  0
   47.1380   34.8500   41.4910 C   0  0  0  0  0  0  0  0  0  0  0  0
   48.2390   34.4650   40.7030 C   0  0  0  0  0  0  0  0  0  0  0  0
   47.9950   33.6720   39.6260 N   0  0  0  0  0  0  0  0  0  0  0  0
   46.7300   33.2560   39.3030 C   0  0  0  0  0  0  0  0  0  0  0  0
   45.7240   33.6340   40.0590 N   0  0  0  0  0  0  0  0  0  0  0  0
   44.7510   34.8100   41.9450 C   0  0  0  0  0  0  0  0  0  0  0  0
   43.9000   35.6250   41.4630 O   0  0  0  0  0  0  0  0  0  0  0  0
   44.6460   34.2800   43.2380 O   0  0  0  0  0  0  0  0  0  0  0  0
   45.1580   35.0160   44.3110 C   0  0  0  0  0  0  0  0  0  0  0  0
   44.2950   35.1030   45.3890 F   0  0  0  0  0  0  0  0  0  0  0  0
   46.3430   34.4320   44.7410 F   0  0  0  0  0  0  0  0  0  0  0  0
   45.3710   36.3010   43.8460 F   0  0  0  0  0  0  0  0  0  0  0  0
   45.5180   31.2970   38.3850 C   0  0  0  0  0  0  0  0  0  0  0  0
   46.0030   33.2680   37.0050 C   0  0  0  0  0  0  0  0  0  0  0  0
   47.8190   31.8050   37.7220 C   0  0  0  0  0  0  0  0  0  0  0  0
   47.9660   31.8750   36.2470 C   0  0  0  0  0  0  0  0  0  0  0  0
   48.5800   32.7790   35.4680 C   0  0  0  0  0  0  0  0  0  0  0  0
   48.5770   32.6210   34.1120 C   0  0  0  0  0  0  0  0  0  0  0  0
   47.8770   31.4310   33.6100 C   0  0  0  0  0  0  0  0  0  0  0  0
   47.2850   30.6500   35.1760 S   0  0  0  0  0  0  0  0  0  0  0  0
   47.2788   35.4897   42.3747 H   0  0  0  0  0  0  0  0  0  0  0  0
   49.2594   34.7937   40.9496 H   0  0  0  0  0  0  0  0  0  0  0  0
   45.3957   31.1563   39.4691 H   0  0  0  0  0  0  0  0  0  0  0  0
   44.5457   31.5475   37.9358 H   0  0  0  0  0  0  0  0  0  0  0  0
   45.9013   30.3690   37.9358 H   0  0  0  0  0  0  0  0  0  0  0  0
   45.5145   34.1655   37.4123 H   0  0  0  0  0  0  0  0  0  0  0  0
   46.8629   33.5669   36.3875 H   0  0  0  0  0  0  0  0  0  0  0  0
   45.2852   32.7081   36.3875 H   0  0  0  0  0  0  0  0  0  0  0  0
   48.6318   32.3735   38.1976 H   0  0  0  0  0  0  0  0  0  0  0  0
   47.8658   30.7538   38.0427 H   0  0  0  0  0  0  0  0  0  0  0  0
   49.0845   33.6452   35.9210 H   0  0  0  0  0  0  0  0  0  0  0  0
   49.0675   33.3390   33.4382 H   0  0  0  0  0  0  0  0  0  0  0  0
   47.7408   31.0930   32.5721 H   0  0  0  0  0  0  0  0  0  0  0  0
  1 15  1  0
  1  6  1  0
  2  3  2  0
  2  8  1  0
  4  3  1  0
  5  4  2  0
  6  5  1  0
  6  7  2  0
  7  2  1  0
  8 10  1  0
  9  8  2  0
 10 11  1  0
 11 13  1  0
 11 12  1  0
 14 11  1  0
 16  1  1  0
 17  1  1  0
 18 17  1  0
 19 18  2  0
 20 19  1  0
 21 20  2  0
 21 22  1  0
 22 18  1  0
  3 23  1  0
  4 24  1  0
 15 25  1  0
 15 26  1  0
 15 27  1  0
 16 28  1  0
 16 29  1  0
 16 30  1  0
 17 31  1  0
 17 32  1  0
 19 33  1  0
 20 34  1  0
 21 35  1  0
M  ISO  8  23  14  24  14  25   8  26   8  27   8  28   8  29   8  30   8
M  ISO  5  31   8  32   8  33  14  34  14  35  14
M  END
>  <minimizedAffinity>  (1) 
-4.37931013

>  <minimizedRMSD>  (1) 
2.43500042

$$$$
