
     RDKit          3D

 28 30  0  0  0  0  0  0  0  0999 V2000
   46.1740   30.3800   49.1350 N   0  0  0  0  0  0  0  0  0  0  0  0
   45.3190   31.4090   49.4530 C   0  0  0  0  0  0  0  0  0  0  0  0
   45.2660   32.2250   48.3730 N   0  0  0  0  0  0  0  0  0  0  0  0
   46.0680   31.6870   47.4470 C   0  0  0  0  0  0  0  0  0  0  0  0
   46.3030   32.2040   46.1900 C   0  0  0  0  0  0  0  0  0  0  0  0
   47.1670   31.4910   45.3900 N   0  0  0  0  0  0  0  0  0  0  0  0
   47.7500   30.3550   45.8110 C   0  0  0  0  0  0  0  0  0  0  0  0
   47.4800   29.9080   47.0390 N   0  0  0  0  0  0  0  0  0  0  0  0
   46.6660   30.5240   47.8740 C   0  0  0  0  0  0  0  0  0  0  0  0
   48.6770   29.6350   44.8880 C   0  0  0  0  0  0  0  0  0  0  0  0
   48.1410   28.4670   44.4270 F   0  0  0  0  0  0  0  0  0  0  0  0
   49.8950   29.3530   45.4710 F   0  0  0  0  0  0  0  0  0  0  0  0
   48.9420   30.4420   43.7790 F   0  0  0  0  0  0  0  0  0  0  0  0
   45.6380   33.6730   45.4570 S   0  0  0  0  0  0  0  0  0  0  0  0
   47.7900   34.7080   42.3460 C   0  0  0  0  0  0  0  0  0  0  0  0
   47.0720   34.3190   41.2190 C   0  0  0  0  0  0  0  0  0  0  0  0
   45.8470   33.6990   41.4360 C   0  0  0  0  0  0  0  0  0  0  0  0
   45.4140   33.5040   42.7170 N   0  0  0  0  0  0  0  0  0  0  0  0
   46.1620   33.9080   43.7840 C   0  0  0  0  0  0  0  0  0  0  0  0
   47.3330   34.5000   43.5920 N   0  0  0  0  0  0  0  0  0  0  0  0
   49.0930   35.3680   42.1440 C   0  0  0  0  0  0  0  0  0  0  0  0
   49.2380   36.1350   41.1610 O   0  0  0  0  0  0  0  0  0  0  0  0
   50.1080   35.1350   43.0220 O   0  0  0  0  0  0  0  0  0  0  0  0
   46.4110   29.6026   49.7677 H   0  0  0  0  0  0  0  0  0  0  0  0
   44.7809   31.5438   50.4029 H   0  0  0  0  0  0  0  0  0  0  0  0
   47.4562   34.4941   40.2033 H   0  0  0  0  0  0  0  0  0  0  0  0
   45.2327   33.3689   40.5853 H   0  0  0  0  0  0  0  0  0  0  0  0
   50.9854   35.5748   42.8924 H   0  0  0  0  0  0  0  0  0  0  0  0
  1  2  1  0
  3  2  2  0
  4  9  2  0
  4  3  1  0
  5  4  1  0
  6  7  1  0
  6  5  2  0
  7  8  2  0
  8  9  1  0
  9  1  1  0
 10 12  1  0
 10  7  1  0
 11 10  1  0
 13 10  1  0
 14  5  1  0
 15 20  2  0
 16 17  2  0
 16 15  1  0
 17 18  1  0
 18 19  2  0
 19 14  1  0
 20 19  1  0
 21 15  1  0
 21 23  1  0
 22 21  2  0
  1 24  1  0
  2 25  1  0
 16 26  1  0
 17 27  1  0
 23 28  1  0
M  ISO  5  24   9  25  14  26  14  27  14  28   3
M  END
>  <minimizedAffinity>  (1) 
-5.72714806

>  <minimizedRMSD>  (1) 
0.402986795

$$$$
