
     RDKit          3D

 27 29  0  0  0  0  0  0  0  0999 V2000
   46.1890   30.3840   49.1280 N   0  0  0  0  0  0  0  0  0  0  0  0
   45.3500   31.4030   49.4380 C   0  0  0  0  0  0  0  0  0  0  0  0
   45.2740   32.2340   48.3650 N   0  0  0  0  0  0  0  0  0  0  0  0
   46.0710   31.6960   47.4270 C   0  0  0  0  0  0  0  0  0  0  0  0
   46.3050   32.1990   46.1680 C   0  0  0  0  0  0  0  0  0  0  0  0
   47.1610   31.4870   45.3620 N   0  0  0  0  0  0  0  0  0  0  0  0
   47.7430   30.3540   45.7810 C   0  0  0  0  0  0  0  0  0  0  0  0
   47.4850   29.8990   47.0210 N   0  0  0  0  0  0  0  0  0  0  0  0
   46.6660   30.5340   47.8640 C   0  0  0  0  0  0  0  0  0  0  0  0
   48.6470   29.6310   44.8870 C   0  0  0  0  0  0  0  0  0  0  0  0
   49.0000   30.2610   43.8550 O   0  0  0  0  0  0  0  0  0  0  0  0
   45.6390   33.6630   45.4400 S   0  0  0  0  0  0  0  0  0  0  0  0
   47.7890   34.7230   42.3440 C   0  0  0  0  0  0  0  0  0  0  0  0
   47.0850   34.3450   41.2100 C   0  0  0  0  0  0  0  0  0  0  0  0
   45.8560   33.7150   41.4220 C   0  0  0  0  0  0  0  0  0  0  0  0
   45.4320   33.5170   42.7030 N   0  0  0  0  0  0  0  0  0  0  0  0
   46.1770   33.9160   43.7690 C   0  0  0  0  0  0  0  0  0  0  0  0
   47.3360   34.5080   43.5710 N   0  0  0  0  0  0  0  0  0  0  0  0
   49.0880   35.3880   42.1310 C   0  0  0  0  0  0  0  0  0  0  0  0
   49.2620   36.1610   41.1690 O   0  0  0  0  0  0  0  0  0  0  0  0
   50.1200   35.1430   43.0170 O   0  0  0  0  0  0  0  0  0  0  0  0
   46.4304   29.6073   49.7599 H   0  0  0  0  0  0  0  0  0  0  0  0
   44.8216   31.5346   50.3937 H   0  0  0  0  0  0  0  0  0  0  0  0
   48.9941   28.6093   45.1008 H   0  0  0  0  0  0  0  0  0  0  0  0
   47.4736   34.5313   40.1979 H   0  0  0  0  0  0  0  0  0  0  0  0
   45.2417   33.3848   40.5713 H   0  0  0  0  0  0  0  0  0  0  0  0
   50.9980   35.5817   42.8877 H   0  0  0  0  0  0  0  0  0  0  0  0
  1  2  1  0
  3  2  2  0
  4  9  2  0
  4  3  1  0
  5  4  1  0
  6  7  1  0
  6  5  2  0
  7  8  2  0
  8  9  1  0
  9  1  1  0
 10  7  1  0
 11 10  2  0
 12  5  1  0
 13 18  2  0
 14 15  2  0
 14 13  1  0
 15 16  1  0
 16 17  2  0
 17 12  1  0
 18 17  1  0
 19 13  1  0
 19 21  1  0
 20 19  2  0
  1 22  1  0
  2 23  1  0
 10 24  1  0
 14 25  1  0
 15 26  1  0
 21 27  1  0
M  ISO  6  22   9  23  14  24   6  25  14  26  14  27   3
M  END
>  <minimizedAffinity>  (1) 
-5.55196428

>  <minimizedRMSD>  (1) 
0.0347681642

$$$$
