
     RDKit          3D

 30 30  0  0  0  0  0  0  0  0999 V2000
   45.8190   34.4430   41.0870 C   0  0  0  0  0  0  0  0  0  0  0  0
   47.0810   34.7720   41.5440 C   0  0  0  0  0  0  0  0  0  0  0  0
   48.2120   34.3180   40.8420 C   0  0  0  0  0  0  0  0  0  0  0  0
   47.9940   33.5620   39.7270 N   0  0  0  0  0  0  0  0  0  0  0  0
   46.7410   33.2560   39.3020 C   0  0  0  0  0  0  0  0  0  0  0  0
   45.6900   33.6970   39.9850 N   0  0  0  0  0  0  0  0  0  0  0  0
   44.6730   34.9180   41.8210 C   0  0  0  0  0  0  0  0  0  0  0  0
   43.8520   35.7030   41.2560 O   0  0  0  0  0  0  0  0  0  0  0  0
   44.5180   34.4820   43.1540 O   0  0  0  0  0  0  0  0  0  0  0  0
   45.0140   35.2760   44.1880 C   0  0  0  0  0  0  0  0  0  0  0  0
   44.0910   35.4590   45.2160 F   0  0  0  0  0  0  0  0  0  0  0  0
   46.1500   34.7060   44.7220 F   0  0  0  0  0  0  0  0  0  0  0  0
   45.2770   36.5240   43.6390 F   0  0  0  0  0  0  0  0  0  0  0  0
   46.4830   32.4380   38.0960 C   0  0  0  0  0  0  0  0  0  0  0  0
   46.7610   30.9950   38.2860 C   0  0  0  0  0  0  0  0  0  0  0  0
   45.0790   32.6620   37.6380 C   0  0  0  0  0  0  0  0  0  0  0  0
   47.4090   32.9960   37.0150 C   0  0  0  0  0  0  0  0  0  0  0  0
   47.2410   34.4150   37.0160 N   0  0  0  0  0  0  0  0  0  0  0  0
   47.2001   35.3844   42.4500 H   0  0  0  0  0  0  0  0  0  0  0  0
   49.2306   34.5623   41.1780 H   0  0  0  0  0  0  0  0  0  0  0  0
   46.8046   30.7685   39.3615 H   0  0  0  0  0  0  0  0  0  0  0  0
   45.9604   30.4027   37.8188 H   0  0  0  0  0  0  0  0  0  0  0  0
   47.7243   30.7425   37.8188 H   0  0  0  0  0  0  0  0  0  0  0  0
   44.4203   32.7671   38.5127 H   0  0  0  0  0  0  0  0  0  0  0  0
   45.0329   33.5789   37.0320 H   0  0  0  0  0  0  0  0  0  0  0  0
   44.7499   31.8050   37.0320 H   0  0  0  0  0  0  0  0  0  0  0  0
   47.1353   32.5834   36.0327 H   0  0  0  0  0  0  0  0  0  0  0  0
   48.4559   32.7235   37.2145 H   0  0  0  0  0  0  0  0  0  0  0  0
   47.2007   34.7553   37.9873 H   0  0  0  0  0  0  0  0  0  0  0  0
   48.0358   34.8552   36.5307 H   0  0  0  0  0  0  0  0  0  0  0  0
  1  2  2  0
  1  7  1  0
  3  2  1  0
  4  3  2  0
  5  4  1  0
  5  6  2  0
  6  1  1  0
  7  9  1  0
  8  7  2  0
  9 10  1  0
 10 12  1  0
 10 11  1  0
 13 10  1  0
 14 15  1  0
 14  5  1  0
 16 14  1  0
 17 18  1  0
 17 14  1  0
  2 19  1  0
  3 20  1  0
 15 21  1  0
 15 22  1  0
 15 23  1  0
 16 24  1  0
 16 25  1  0
 16 26  1  0
 17 27  1  0
 17 28  1  0
 18 29  1  0
 18 30  1  0
M  ISO  8  19  14  20  14  21   8  22   8  23   8  24   8  25   8  26   8
M  ISO  4  27   8  28   8  29   5  30   5
M  END
>  <minimizedAffinity>  (1) 
-4.30580902

>  <minimizedRMSD>  (1) 
0.338063538

$$$$
