
     RDKit          3D

 31 34  0  0  0  0  0  0  0  0999 V2000
   45.3640   33.7430   45.0850 C   0  0  0  0  0  0  0  0  0  0  0  0
   45.0090   35.0620   44.9030 C   0  0  0  0  0  0  0  0  0  0  0  0
   44.5620   35.4450   43.6820 C   0  0  0  0  0  0  0  0  0  0  0  0
   44.4880   34.4890   42.6800 C   0  0  0  0  0  0  0  0  0  0  0  0
   45.0660   33.0280   43.5140 S   0  0  0  0  0  0  0  0  0  0  0  0
   44.0550   34.3870   41.3280 C   0  0  0  0  0  0  0  0  0  0  0  0
   44.8380   33.7350   40.4190 N   0  0  0  0  0  0  0  0  0  0  0  0
   44.4940   33.4840   39.1550 C   0  0  0  0  0  0  0  0  0  0  0  0
   43.3050   33.8760   38.6780 N   0  0  0  0  0  0  0  0  0  0  0  0
   42.4260   34.5410   39.4810 C   0  0  0  0  0  0  0  0  0  0  0  0
   41.2160   34.9780   39.0040 C   0  0  0  0  0  0  0  0  0  0  0  0
   40.3480   35.6770   39.8000 C   0  0  0  0  0  0  0  0  0  0  0  0
   40.7670   35.9120   41.1050 C   0  0  0  0  0  0  0  0  0  0  0  0
   41.9860   35.4550   41.5380 C   0  0  0  0  0  0  0  0  0  0  0  0
   42.8680   34.7500   40.7590 C   0  0  0  0  0  0  0  0  0  0  0  0
   45.6460   32.4880   48.5170 C   0  0  0  0  0  0  0  0  0  0  0  0
   46.8650   31.7920   48.4550 C   0  0  0  0  0  0  0  0  0  0  0  0
   47.5810   31.7610   47.2280 C   0  0  0  0  0  0  0  0  0  0  0  0
   47.0380   32.4170   46.1640 N   0  0  0  0  0  0  0  0  0  0  0  0
   45.8640   33.0750   46.2610 C   0  0  0  0  0  0  0  0  0  0  0  0
   45.1790   33.1060   47.4280 N   0  0  0  0  0  0  0  0  0  0  0  0
   45.0864   35.7858   45.7277 H   0  0  0  0  0  0  0  0  0  0  0  0
   44.2657   36.4869   43.4909 H   0  0  0  0  0  0  0  0  0  0  0  0
   45.1944   32.9491   38.4968 H   0  0  0  0  0  0  0  0  0  0  0  0
   40.9376   34.7627   37.9618 H   0  0  0  0  0  0  0  0  0  0  0  0
   39.3754   36.0321   39.4285 H   0  0  0  0  0  0  0  0  0  0  0  0
   40.1161   36.4685   41.7954 H   0  0  0  0  0  0  0  0  0  0  0  0
   42.2750   35.6678   42.5778 H   0  0  0  0  0  0  0  0  0  0  0  0
   45.0782   32.5241   49.4584 H   0  0  0  0  0  0  0  0  0  0  0  0
   47.2596   31.2782   49.3440 H   0  0  0  0  0  0  0  0  0  0  0  0
   48.5387   31.2270   47.1402 H   0  0  0  0  0  0  0  0  0  0  0  0
  1 20  1  0
  2  1  2  0
  3  2  1  0
  4  5  1  0
  4  3  2  0
  5  1  1  0
  6  4  1  0
  7  6  2  0
  8  7  1  0
  9  8  2  0
  9 10  1  0
 10 15  2  0
 11 10  1  0
 11 12  2  0
 12 13  1  0
 13 14  2  0
 15  6  1  0
 15 14  1  0
 17 16  2  0
 18 17  1  0
 19 20  1  0
 19 18  2  0
 20 21  2  0
 21 16  1  0
  2 22  1  0
  3 23  1  0
  8 24  1  0
 11 25  1  0
 12 26  1  0
 13 27  1  0
 14 28  1  0
 16 29  1  0
 17 30  1  0
 18 31  1  0
M  ISO  8  22  14  23  14  24  14  25  14  26  14  27  14  28  14  29  14
M  ISO  2  30  14  31  14
M  END
>  <minimizedAffinity>  (1) 
-6.10525656

>  <minimizedRMSD>  (1) 
9.65885258

$$$$
