
     RDKit          3D

 19 20  0  0  0  0  0  0  0  0999 V2000
   45.8220   33.0910   46.6790 C   0  0  0  0  0  0  0  0  0  0  0  0
   45.0740   32.8910   47.8210 C   0  0  0  0  0  0  0  0  0  0  0  0
   45.5000   31.9710   48.7230 C   0  0  0  0  0  0  0  0  0  0  0  0
   46.6790   31.2930   48.4120 C   0  0  0  0  0  0  0  0  0  0  0  0
   47.1740   31.9730   46.8360 S   0  0  0  0  0  0  0  0  0  0  0  0
   44.5080   35.8490   44.6540 C   0  0  0  0  0  0  0  0  0  0  0  0
   45.2140   35.6530   43.4500 C   0  0  0  0  0  0  0  0  0  0  0  0
   46.1300   34.5840   43.3430 C   0  0  0  0  0  0  0  0  0  0  0  0
   46.2730   33.7930   44.4380 N   0  0  0  0  0  0  0  0  0  0  0  0
   45.5850   34.0030   45.5760 C   0  0  0  0  0  0  0  0  0  0  0  0
   44.7080   35.0230   45.6850 N   0  0  0  0  0  0  0  0  0  0  0  0
   47.3320   30.2760   49.2050 N   0  0  0  0  0  0  0  0  0  0  0  0
   44.1522   33.4650   47.9965 H   0  0  0  0  0  0  0  0  0  0  0  0
   44.9447   31.7703   49.6511 H   0  0  0  0  0  0  0  0  0  0  0  0
   43.7936   36.6805   44.7447 H   0  0  0  0  0  0  0  0  0  0  0  0
   45.0521   36.3296   42.5979 H   0  0  0  0  0  0  0  0  0  0  0  0
   46.6991   34.4009   42.4196 H   0  0  0  0  0  0  0  0  0  0  0  0
   48.2048   29.8435   48.8703 H   0  0  0  0  0  0  0  0  0  0  0  0
   46.9245   29.9839   50.1047 H   0  0  0  0  0  0  0  0  0  0  0  0
  1  5  1  0
  1  2  2  0
  2  3  1  0
  4  3  2  0
  4 12  1  0
  5  4  1  0
  6 11  2  0
  7  6  1  0
  8  7  2  0
  8  9  1  0
  9 10  2  0
 10 11  1  0
 10  1  1  0
  2 13  1  0
  3 14  1  0
  6 15  1  0
  7 16  1  0
  8 17  1  0
 12 18  1  0
 12 19  1  0
M  ISO  5  13  14  14  14  15  14  16  14  17  14
M  END
>  <minimizedAffinity>  (1) 
-4.58689499

>  <minimizedRMSD>  (1) 
0.146169022

$$$$
