
     RDKit          3D

 22 24  0  0  0  0  0  0  0  0999 V2000
   46.0580   32.9030   45.9450 C   0  0  0  0  0  0  0  0  0  0  0  0
   45.7250   32.6360   47.2580 C   0  0  0  0  0  0  0  0  0  0  0  0
   46.2040   31.5030   47.8340 C   0  0  0  0  0  0  0  0  0  0  0  0
   47.0100   30.6840   47.0330 C   0  0  0  0  0  0  0  0  0  0  0  0
   47.0790   31.5370   45.4660 S   0  0  0  0  0  0  0  0  0  0  0  0
   44.4770   35.9920   44.7710 C   0  0  0  0  0  0  0  0  0  0  0  0
   45.0350   36.1100   43.4640 C   0  0  0  0  0  0  0  0  0  0  0  0
   45.9450   35.1120   43.0280 C   0  0  0  0  0  0  0  0  0  0  0  0
   46.2310   34.0970   43.8890 N   0  0  0  0  0  0  0  0  0  0  0  0
   45.6750   34.0320   45.1200 C   0  0  0  0  0  0  0  0  0  0  0  0
   44.8070   34.9670   45.5590 N   0  0  0  0  0  0  0  0  0  0  0  0
   47.6460   29.4110   47.4230 C   0  0  0  0  0  0  0  0  0  0  0  0
   47.1390   28.1680   47.3570 N   0  0  0  0  0  0  0  0  0  0  0  0
   48.0130   27.3160   47.7950 O   0  0  0  0  0  0  0  0  0  0  0  0
   49.1150   27.9550   48.1640 C   0  0  0  0  0  0  0  0  0  0  0  0
   48.8980   29.2740   47.9350 N   0  0  0  0  0  0  0  0  0  0  0  0
   45.0847   33.3268   47.8261 H   0  0  0  0  0  0  0  0  0  0  0  0
   45.9708   31.2418   48.8768 H   0  0  0  0  0  0  0  0  0  0  0  0
   43.7688   36.7521   45.1325 H   0  0  0  0  0  0  0  0  0  0  0  0
   44.7669   36.9531   42.8103 H   0  0  0  0  0  0  0  0  0  0  0  0
   46.4033   35.1570   42.0290 H   0  0  0  0  0  0  0  0  0  0  0  0
   50.0289   27.5024   48.5763 H   0  0  0  0  0  0  0  0  0  0  0  0
  1  2  2  0
  2  3  1  0
  4 12  1  0
  4  3  2  0
  5  1  1  0
  5  4  1  0
  6 11  2  0
  7  6  1  0
  8  7  2  0
  8  9  1  0
  9 10  2  0
 10 11  1  0
 10  1  1  0
 12 16  1  0
 13 12  2  0
 13 14  1  0
 14 15  1  0
 16 15  2  0
  2 17  1  0
  3 18  1  0
  6 19  1  0
  7 20  1  0
  8 21  1  0
 15 22  1  0
M  ISO  6  17  14  18  14  19  14  20  14  21  14  22  14
M  END
>  <minimizedAffinity>  (1) 
-4.36761379

>  <minimizedRMSD>  (1) 
1.52339745

$$$$
