
     RDKit          3D

 40 43  0  0  1  0  0  0  0  0999 V2000
   49.1830   28.8050   48.7670 N   0  0  0  0  0  0  0  0  0  0  0  0
   49.2560   27.4940   48.1990 C   0  0  0  0  0  0  0  0  0  0  0  0
   50.6770   27.0180   48.0300 C   0  0  0  0  0  0  0  0  0  0  0  0
   51.5490   27.4500   49.1850 C   0  0  0  0  0  0  0  0  0  0  0  0
   50.7370   27.8950   50.3840 C   0  0  0  0  0  0  0  0  0  0  0  0
   49.9410   29.0880   49.9760 C   0  0  1  0  0  0  0  0  0  0  0  0
   47.2200   31.8850   47.0190 C   0  0  0  0  0  0  0  0  0  0  0  0
   47.1740   31.8930   48.3890 C   0  0  0  0  0  0  0  0  0  0  0  0
   47.7950   30.9120   49.0730 C   0  0  0  0  0  0  0  0  0  0  0  0
   48.4440   29.9520   48.3190 C   0  0  0  0  0  0  0  0  0  0  0  0
   48.1680   30.4520   46.6390 S   0  0  0  0  0  0  0  0  0  0  0  0
   45.0780   34.4650   45.5170 C   0  0  0  0  0  0  0  0  0  0  0  0
   45.6090   34.5240   44.1940 C   0  0  0  0  0  0  0  0  0  0  0  0
   46.6830   33.6780   43.8670 C   0  0  0  0  0  0  0  0  0  0  0  0
   47.1750   32.8320   44.8300 N   0  0  0  0  0  0  0  0  0  0  0  0
   46.6370   32.8130   46.0710 C   0  0  0  0  0  0  0  0  0  0  0  0
   45.6150   33.6120   46.3980 N   0  0  0  0  0  0  0  0  0  0  0  0
   50.6760   30.3520   49.9400 C   0  0  0  0  0  0  0  0  0  0  0  0
   51.6600   30.6600   48.9960 C   0  0  0  0  0  0  0  0  0  0  0  0
   52.3490   31.8390   48.9600 C   0  0  0  0  0  0  0  0  0  0  0  0
   52.0710   32.7610   49.8800 N   0  0  0  0  0  0  0  0  0  0  0  0
   51.1280   32.4870   50.7980 C   0  0  0  0  0  0  0  0  0  0  0  0
   50.4410   31.3410   50.8530 N   0  0  0  0  0  0  0  0  0  0  0  0
   48.7250   26.7929   48.8597 H   0  0  0  0  0  0  0  0  0  0  0  0
   48.7956   27.5353   47.2008 H   0  0  0  0  0  0  0  0  0  0  0  0
   50.6809   25.9196   47.9711 H   0  0  0  0  0  0  0  0  0  0  0  0
   51.0814   27.4623   47.1085 H   0  0  0  0  0  0  0  0  0  0  0  0
   52.1856   26.6040   49.4833 H   0  0  0  0  0  0  0  0  0  0  0  0
   52.1510   28.3074   48.8496 H   0  0  0  0  0  0  0  0  0  0  0  0
   50.0629   27.0856   50.7011 H   0  0  0  0  0  0  0  0  0  0  0  0
   51.3991   28.1438   51.2264 H   0  0  0  0  0  0  0  0  0  0  0  0
   49.2219   29.2700   50.7882 H   0  0  0  0  0  0  0  0  0  0  0  0
   46.6368   32.6904   48.9234 H   0  0  0  0  0  0  0  0  0  0  0  0
   47.7860   30.8769   50.1724 H   0  0  0  0  0  0  0  0  0  0  0  0
   44.2380   35.1122   45.8094 H   0  0  0  0  0  0  0  0  0  0  0  0
   45.1883   35.2145   43.4482 H   0  0  0  0  0  0  0  0  0  0  0  0
   47.1212   33.6935   42.8582 H   0  0  0  0  0  0  0  0  0  0  0  0
   51.8947   29.9037   48.2325 H   0  0  0  0  0  0  0  0  0  0  0  0
   53.1138   32.0222   48.1909 H   0  0  0  0  0  0  0  0  0  0  0  0
   50.9070   33.2556   51.5532 H   0  0  0  0  0  0  0  0  0  0  0  0
  1  6  1  0
  2  1  1  0
  3  2  1  0
  3  4  1  0
  4  5  1  0
  6  5  1  0
  7  8  2  0
  8  9  1  0
 10  1  1  0
 10  9  2  0
 11  7  1  0
 11 10  1  0
 12 17  2  0
 13 12  1  0
 14 13  2  0
 14 15  1  0
 15 16  2  0
 16 17  1  0
 16  7  1  0
 18  6  1  0
 18 23  1  0
 19 18  2  0
 20 19  1  0
 20 21  2  0
 21 22  1  0
 22 23  2  0
  2 24  1  0
  2 25  1  0
  3 26  1  0
  3 27  1  0
  4 28  1  0
  4 29  1  0
  5 30  1  0
  5 31  1  0
  6 32  1  1
  8 33  1  0
  9 34  1  0
 12 35  1  0
 13 36  1  0
 14 37  1  0
 19 38  1  0
 20 39  1  0
 22 40  1  0
M  ISO  8  24  13  25  13  26  13  27  13  28  13  29  13  30  13  31  13
M  ISO  8  32  13  33  14  34  14  35  14  36  14  37  14  38  14  39  14
M  ISO  1  40  14
M  END
>  <minimizedAffinity>  (1) 
-4.79353046

>  <minimizedRMSD>  (1) 
2.54287195

$$$$
