
     RDKit          3D

 41 44  0  0  1  0  0  0  0  0999 V2000
   49.1230   28.9210   48.6850 N   0  0  0  0  0  0  0  0  0  0  0  0
   49.1930   27.6090   48.0800 C   0  0  0  0  0  0  0  0  0  0  0  0
   50.6140   27.1250   47.9700 C   0  0  0  0  0  0  0  0  0  0  0  0
   51.4640   27.5500   49.1290 C   0  0  0  0  0  0  0  0  0  0  0  0
   50.5990   27.9410   50.3110 C   0  0  0  0  0  0  0  0  0  0  0  0
   49.8520   29.1800   49.9130 C   0  0  1  0  0  0  0  0  0  0  0  0
   47.1860   32.0130   46.9240 C   0  0  0  0  0  0  0  0  0  0  0  0
   47.1470   32.0430   48.2920 C   0  0  0  0  0  0  0  0  0  0  0  0
   47.7670   31.0510   48.9870 C   0  0  0  0  0  0  0  0  0  0  0  0
   48.3960   30.0800   48.2300 C   0  0  0  0  0  0  0  0  0  0  0  0
   48.1130   30.5640   46.5480 S   0  0  0  0  0  0  0  0  0  0  0  0
   45.0350   34.5650   45.3870 C   0  0  0  0  0  0  0  0  0  0  0  0
   45.5770   34.6430   44.0880 C   0  0  0  0  0  0  0  0  0  0  0  0
   46.6640   33.8190   43.7750 C   0  0  0  0  0  0  0  0  0  0  0  0
   47.1730   32.9640   44.7300 N   0  0  0  0  0  0  0  0  0  0  0  0
   46.6140   32.9310   45.9610 C   0  0  0  0  0  0  0  0  0  0  0  0
   45.5700   33.7160   46.2760 N   0  0  0  0  0  0  0  0  0  0  0  0
   50.6720   30.3930   49.8870 C   0  0  0  0  0  0  0  0  0  0  0  0
   50.5540   31.3520   50.8980 C   0  0  0  0  0  0  0  0  0  0  0  0
   51.2530   32.5280   51.0000 C   0  0  0  0  0  0  0  0  0  0  0  0
   52.1700   32.7840   49.9950 C   0  0  0  0  0  0  0  0  0  0  0  0
   52.2900   31.8280   48.9850 C   0  0  0  0  0  0  0  0  0  0  0  0
   51.5680   30.6930   48.9470 N   0  0  0  0  0  0  0  0  0  0  0  0
   48.6212   26.9003   48.6971 H   0  0  0  0  0  0  0  0  0  0  0  0
   48.7723   27.6748   47.0658 H   0  0  0  0  0  0  0  0  0  0  0  0
   50.6082   26.0260   47.9228 H   0  0  0  0  0  0  0  0  0  0  0  0
   51.0461   27.5704   47.0617 H   0  0  0  0  0  0  0  0  0  0  0  0
   52.1197   26.7165   49.4211 H   0  0  0  0  0  0  0  0  0  0  0  0
   52.0655   28.4200   48.8270 H   0  0  0  0  0  0  0  0  0  0  0  0
   49.8918   27.1320   50.5463 H   0  0  0  0  0  0  0  0  0  0  0  0
   51.2129   28.1215   51.2057 H   0  0  0  0  0  0  0  0  0  0  0  0
   49.1205   29.4115   50.7012 H   0  0  0  0  0  0  0  0  0  0  0  0
   46.6240   32.8542   48.8198 H   0  0  0  0  0  0  0  0  0  0  0  0
   47.7677   31.0232   50.0866 H   0  0  0  0  0  0  0  0  0  0  0  0
   44.1794   35.1961   45.6691 H   0  0  0  0  0  0  0  0  0  0  0  0
   45.1571   35.3326   43.3409 H   0  0  0  0  0  0  0  0  0  0  0  0
   47.1110   33.8531   42.7705 H   0  0  0  0  0  0  0  0  0  0  0  0
   49.8249   31.1415   51.6943 H   0  0  0  0  0  0  0  0  0  0  0  0
   51.0938   33.2281   51.8334 H   0  0  0  0  0  0  0  0  0  0  0  0
   52.7777   33.7009   49.9925 H   0  0  0  0  0  0  0  0  0  0  0  0
   53.0133   32.0122   48.1770 H   0  0  0  0  0  0  0  0  0  0  0  0
  1  6  1  0
  2  1  1  0
  3  2  1  0
  3  4  1  0
  4  5  1  0
  6  5  1  0
  7  8  2  0
  8  9  1  0
 10  1  1  0
 10  9  2  0
 11  7  1  0
 11 10  1  0
 12 17  2  0
 13 12  1  0
 14 13  2  0
 14 15  1  0
 15 16  2  0
 16 17  1  0
 16  7  1  0
 18  6  1  0
 18 19  2  0
 19 20  1  0
 21 20  2  0
 22 21  1  0
 23 22  2  0
 23 18  1  0
  2 24  1  0
  2 25  1  0
  3 26  1  0
  3 27  1  0
  4 28  1  0
  4 29  1  0
  5 30  1  0
  5 31  1  0
  6 32  1  1
  8 33  1  0
  9 34  1  0
 12 35  1  0
 13 36  1  0
 14 37  1  0
 19 38  1  0
 20 39  1  0
 21 40  1  0
 22 41  1  0
M  ISO  8  24  13  25  13  26  13  27  13  28  13  29  13  30  13  31  13
M  ISO  8  32  13  33  14  34  14  35  14  36  14  37  14  38  14  39  14
M  ISO  2  40  14  41  14
M  END
>  <minimizedAffinity>  (1) 
-4.91086292

>  <minimizedRMSD>  (1) 
2.46284604

$$$$
