
     RDKit          3D

 45 48  0  0  1  0  0  0  0  0999 V2000
   48.3720   29.3920   48.0800 N   0  0  0  0  0  0  0  0  0  0  0  0
   48.1800   28.0390   47.5570 C   0  0  0  0  0  0  0  0  0  0  0  0
   49.4750   27.3830   47.1860 C   0  0  0  0  0  0  0  0  0  0  0  0
   50.5270   27.7250   48.1990 C   0  0  0  0  0  0  0  0  0  0  0  0
   49.9750   28.3260   49.4640 C   0  0  0  0  0  0  0  0  0  0  0  0
   49.3310   29.6370   49.0960 C   0  0  1  0  0  0  0  0  0  0  0  0
   46.4590   32.5840   46.4970 C   0  0  0  0  0  0  0  0  0  0  0  0
   46.2300   32.4000   47.8470 C   0  0  0  0  0  0  0  0  0  0  0  0
   46.8170   31.3520   48.4820 C   0  0  0  0  0  0  0  0  0  0  0  0
   47.6250   30.5390   47.6650 C   0  0  0  0  0  0  0  0  0  0  0  0
   47.5480   31.2510   46.0250 S   0  0  0  0  0  0  0  0  0  0  0  0
   44.5600   35.4290   45.1660 C   0  0  0  0  0  0  0  0  0  0  0  0
   45.0950   35.5360   43.8620 C   0  0  0  0  0  0  0  0  0  0  0  0
   46.0910   34.6270   43.4820 C   0  0  0  0  0  0  0  0  0  0  0  0
   46.5080   33.6700   44.3840 N   0  0  0  0  0  0  0  0  0  0  0  0
   45.9700   33.6090   45.6060 C   0  0  0  0  0  0  0  0  0  0  0  0
   45.0020   34.4760   46.0070 N   0  0  0  0  0  0  0  0  0  0  0  0
   50.3170   30.6920   49.0640 C   0  0  0  0  0  0  0  0  0  0  0  0
   51.7750   30.3240   49.3860 C   0  0  0  0  0  0  0  0  0  0  0  0
   52.4210   31.7000   49.1070 C   0  0  0  0  0  0  0  0  0  0  0  0
   51.5410   32.6090   49.8910 C   0  0  0  0  0  0  0  0  0  0  0  0
   50.1390   31.9890   49.7700 C   0  0  0  0  0  0  0  0  0  0  0  0
   47.6826   27.4298   48.3261 H   0  0  0  0  0  0  0  0  0  0  0  0
   47.5681   28.1144   46.6460 H   0  0  0  0  0  0  0  0  0  0  0  0
   49.3366   26.2921   47.1575 H   0  0  0  0  0  0  0  0  0  0  0  0
   49.7935   27.7425   46.1964 H   0  0  0  0  0  0  0  0  0  0  0  0
   51.0704   26.8048   48.4598 H   0  0  0  0  0  0  0  0  0  0  0  0
   51.1805   28.4823   47.7413 H   0  0  0  0  0  0  0  0  0  0  0  0
   49.2275   27.6509   49.9060 H   0  0  0  0  0  0  0  0  0  0  0  0
   50.7757   28.4803   50.2023 H   0  0  0  0  0  0  0  0  0  0  0  0
   48.6753   30.1093   49.8424 H   0  0  0  0  0  0  0  0  0  0  0  0
   45.5803   33.0935   48.4010 H   0  0  0  0  0  0  0  0  0  0  0  0
   46.6717   31.1537   49.5542 H   0  0  0  0  0  0  0  0  0  0  0  0
   43.7778   36.1288   45.4952 H   0  0  0  0  0  0  0  0  0  0  0  0
   44.7397   36.3102   43.1661 H   0  0  0  0  0  0  0  0  0  0  0  0
   46.5351   34.6757   42.4768 H   0  0  0  0  0  0  0  0  0  0  0  0
   50.0966   30.8397   47.9965 H   0  0  0  0  0  0  0  0  0  0  0  0
   51.9025   30.0101   50.4325 H   0  0  0  0  0  0  0  0  0  0  0  0
   52.1910   29.4761   48.8221 H   0  0  0  0  0  0  0  0  0  0  0  0
   53.4593   31.7365   49.4683 H   0  0  0  0  0  0  0  0  0  0  0  0
   52.4883   31.9541   48.0389 H   0  0  0  0  0  0  0  0  0  0  0  0
   51.8598   32.6464   50.9431 H   0  0  0  0  0  0  0  0  0  0  0  0
   51.5734   33.6441   49.5202 H   0  0  0  0  0  0  0  0  0  0  0  0
   49.4784   32.6507   49.1906 H   0  0  0  0  0  0  0  0  0  0  0  0
   49.6775   31.8468   50.7583 H   0  0  0  0  0  0  0  0  0  0  0  0
  1  6  1  0
  2  1  1  0
  3  2  1  0
  3  4  1  0
  4  5  1  0
  6  5  1  0
  7  8  2  0
  8  9  1  0
 10  1  1  0
 10  9  2  0
 11  7  1  0
 11 10  1  0
 12 17  2  0
 13 12  1  0
 14 13  2  0
 14 15  1  0
 15 16  2  0
 16 17  1  0
 16  7  1  0
 18  6  1  0
 18 19  1  0
 18 22  1  0
 20 19  1  0
 20 21  1  0
 22 21  1  0
  2 23  1  0
  2 24  1  0
  3 25  1  0
  3 26  1  0
  4 27  1  0
  4 28  1  0
  5 29  1  0
  5 30  1  0
  6 31  1  1
  8 32  1  0
  9 33  1  0
 12 34  1  0
 13 35  1  0
 14 36  1  0
 18 37  1  0
 19 38  1  0
 19 39  1  0
 20 40  1  0
 20 41  1  0
 21 42  1  0
 21 43  1  0
 22 44  1  0
 22 45  1  0
M  ISO  8  23  13  24  13  25  13  26  13  27  13  28  13  29  13  30  13
M  ISO  8  31  13  32  14  33  14  34  14  35  14  36  14  37  13  38  13
M  ISO  7  39  13  40  13  41  13  42  13  43  13  44  13  45  13
M  END
>  <minimizedAffinity>  (1) 
-5.20114899

>  <minimizedRMSD>  (1) 
1.60740972

$$$$
