
     RDKit          3D

 34 36  0  0  1  0  0  0  0  0999 V2000
   48.0980   30.1970   48.3100 N   0  0  0  0  0  0  0  0  0  0  0  0
   48.3050   28.8400   47.8800 C   0  0  0  0  0  0  0  0  0  0  0  0
   49.7650   28.4930   47.7360 C   0  0  0  0  0  0  0  0  0  0  0  0
   50.6100   29.1690   48.7770 C   0  0  0  0  0  0  0  0  0  0  0  0
   49.7560   29.6210   49.9570 C   0  0  0  0  0  0  0  0  0  0  0  0
   48.8250   30.6750   49.4520 C   0  0  1  0  0  0  0  0  0  0  0  0
   45.9220   32.9560   46.2840 C   0  0  0  0  0  0  0  0  0  0  0  0
   45.5050   32.7350   47.5710 C   0  0  0  0  0  0  0  0  0  0  0  0
   46.1610   31.8330   48.3440 C   0  0  0  0  0  0  0  0  0  0  0  0
   47.2300   31.1950   47.7380 C   0  0  0  0  0  0  0  0  0  0  0  0
   47.3010   31.8710   46.0900 S   0  0  0  0  0  0  0  0  0  0  0  0
   44.3960   35.8860   44.6870 C   0  0  0  0  0  0  0  0  0  0  0  0
   44.4010   35.5020   43.3320 C   0  0  0  0  0  0  0  0  0  0  0  0
   44.9320   34.2440   43.0100 C   0  0  0  0  0  0  0  0  0  0  0  0
   45.4280   33.4210   44.0000 N   0  0  0  0  0  0  0  0  0  0  0  0
   45.3940   33.8510   45.2880 C   0  0  0  0  0  0  0  0  0  0  0  0
   44.8870   35.0630   45.6330 N   0  0  0  0  0  0  0  0  0  0  0  0
   49.4260   31.9670   49.2930 N   0  0  0  0  0  0  0  0  0  0  0  0
   47.8535   28.1632   48.6204 H   0  0  0  0  0  0  0  0  0  0  0  0
   47.8375   28.7294   46.8905 H   0  0  0  0  0  0  0  0  0  0  0  0
   49.8825   27.4039   47.8358 H   0  0  0  0  0  0  0  0  0  0  0  0
   50.1007   28.8410   46.7480 H   0  0  0  0  0  0  0  0  0  0  0  0
   51.3749   28.4638   49.1344 H   0  0  0  0  0  0  0  0  0  0  0  0
   51.0852   30.0528   48.3263 H   0  0  0  0  0  0  0  0  0  0  0  0
   49.1824   28.7707   50.3544 H   0  0  0  0  0  0  0  0  0  0  0  0
   50.3874   30.0141   50.7674 H   0  0  0  0  0  0  0  0  0  0  0  0
   48.0818   30.8653   50.2403 H   0  0  0  0  0  0  0  0  0  0  0  0
   44.6430   33.2860   47.9751 H   0  0  0  0  0  0  0  0  0  0  0  0
   45.8636   31.6229   49.3820 H   0  0  0  0  0  0  0  0  0  0  0  0
   43.9877   36.8660   44.9749 H   0  0  0  0  0  0  0  0  0  0  0  0
   44.0017   36.1666   42.5518 H   0  0  0  0  0  0  0  0  0  0  0  0
   44.9530   33.9117   41.9616 H   0  0  0  0  0  0  0  0  0  0  0  0
   49.6153   32.3740   50.2200 H   0  0  0  0  0  0  0  0  0  0  0  0
   50.3097   31.8729   48.7724 H   0  0  0  0  0  0  0  0  0  0  0  0
  1  6  1  0
  2  1  1  0
  3  2  1  0
  3  4  1  0
  4  5  1  0
  6  5  1  0
  7  8  2  0
  8  9  1  0
 10  1  1  0
 10  9  2  0
 11  7  1  0
 11 10  1  0
 12 17  2  0
 13 12  1  0
 14 13  2  0
 14 15  1  0
 15 16  2  0
 16 17  1  0
 16  7  1  0
 18  6  1  0
  2 19  1  0
  2 20  1  0
  3 21  1  0
  3 22  1  0
  4 23  1  0
  4 24  1  0
  5 25  1  0
  5 26  1  0
  6 27  1  1
  8 28  1  0
  9 29  1  0
 12 30  1  0
 13 31  1  0
 14 32  1  0
 18 33  1  0
 18 34  1  0
M  ISO  8  19  13  20  13  21  13  22  13  23  13  24  13  25  13  26  13
M  ISO  8  27  13  28  14  29  14  30  14  31  14  32  14  33   5  34   5
M  END
>  <minimizedAffinity>  (1) 
-4.75307131

>  <minimizedRMSD>  (1) 
0.458900839

$$$$
