
     RDKit          3D

 42 45  0  0  0  0  0  0  0  0999 V2000
   47.4050   34.0380   42.3050 C   0  0  0  0  0  0  0  0  0  0  0  0
   48.2150   35.1680   41.7500 C   0  0  0  0  0  0  0  0  0  0  0  0
   49.5940   35.4340   42.3210 C   0  0  0  0  0  0  0  0  0  0  0  0
   50.3730   34.1780   42.3890 C   0  0  0  0  0  0  0  0  0  0  0  0
   49.5890   32.9180   42.4370 C   0  0  0  0  0  0  0  0  0  0  0  0
   48.2710   33.2180   43.0940 C   0  0  0  0  0  0  0  0  0  0  0  0
   46.5090   33.6680   41.2330 C   0  0  0  0  0  0  0  0  0  0  0  0
   45.2190   33.1390   41.4750 C   0  0  0  0  0  0  0  0  0  0  0  0
   44.3310   32.6780   40.5330 C   0  0  0  0  0  0  0  0  0  0  0  0
   44.6870   32.7110   39.2220 C   0  0  0  0  0  0  0  0  0  0  0  0
   45.9180   33.2040   38.8590 C   0  0  0  0  0  0  0  0  0  0  0  0
   46.2490   33.2500   37.5240 C   0  0  0  0  0  0  0  0  0  0  0  0
   47.4620   33.7610   37.1120 C   0  0  0  0  0  0  0  0  0  0  0  0
   48.3110   34.2190   38.1290 C   0  0  0  0  0  0  0  0  0  0  0  0
   47.9210   34.1440   39.4320 C   0  0  0  0  0  0  0  0  0  0  0  0
   46.7330   33.6440   39.8780 C   0  0  0  0  0  0  0  0  0  0  0  0
   45.1770   34.4650   45.2890 C   0  0  0  0  0  0  0  0  0  0  0  0
   44.4960   35.6520   44.9950 C   0  0  0  0  0  0  0  0  0  0  0  0
   44.8320   36.2960   43.7870 C   0  0  0  0  0  0  0  0  0  0  0  0
   45.7870   35.7290   42.9880 N   0  0  0  0  0  0  0  0  0  0  0  0
   46.4260   34.5680   43.3090 C   0  0  0  0  0  0  0  0  0  0  0  0
   46.0940   33.9650   44.4710 N   0  0  0  0  0  0  0  0  0  0  0  0
   48.3432   34.9749   40.6747 H   0  0  0  0  0  0  0  0  0  0  0  0
   47.6390   36.0644   42.0233 H   0  0  0  0  0  0  0  0  0  0  0  0
   50.1209   36.1533   41.6768 H   0  0  0  0  0  0  0  0  0  0  0  0
   49.4878   35.8444   43.3360 H   0  0  0  0  0  0  0  0  0  0  0  0
   51.0196   34.1364   41.5001 H   0  0  0  0  0  0  0  0  0  0  0  0
   50.9158   34.2216   43.3447 H   0  0  0  0  0  0  0  0  0  0  0  0
   49.4211   32.5433   41.4165 H   0  0  0  0  0  0  0  0  0  0  0  0
   50.1338   32.1495   43.0049 H   0  0  0  0  0  0  0  0  0  0  0  0
   48.4674   33.7356   44.0445 H   0  0  0  0  0  0  0  0  0  0  0  0
   47.7581   32.2554   43.2363 H   0  0  0  0  0  0  0  0  0  0  0  0
   44.8937   33.0920   42.5248 H   0  0  0  0  0  0  0  0  0  0  0  0
   43.3477   32.2885   40.8354 H   0  0  0  0  0  0  0  0  0  0  0  0
   43.9916   32.3440   38.4527 H   0  0  0  0  0  0  0  0  0  0  0  0
   45.5363   32.8740   36.7752 H   0  0  0  0  0  0  0  0  0  0  0  0
   47.7458   33.8064   36.0502 H   0  0  0  0  0  0  0  0  0  0  0  0
   49.2948   34.6401   37.8742 H   0  0  0  0  0  0  0  0  0  0  0  0
   48.6248   34.5190   40.1897 H   0  0  0  0  0  0  0  0  0  0  0  0
   44.9457   33.9325   46.2233 H   0  0  0  0  0  0  0  0  0  0  0  0
   43.7347   36.0628   45.6744 H   0  0  0  0  0  0  0  0  0  0  0  0
   44.3374   37.2336   43.4932 H   0  0  0  0  0  0  0  0  0  0  0  0
  1  6  1  0
  1 21  1  0
  2  1  1  0
  2  3  1  0
  3  4  1  0
  4  5  1  0
  5  6  1  0
  7  8  2  0
  7  1  1  0
  9  8  1  0
 10  9  2  0
 11 10  1  0
 11 16  2  0
 12 11  1  0
 13 12  2  0
 13 14  1  0
 14 15  2  0
 15 16  1  0
 16  7  1  0
 18 17  2  0
 19 18  1  0
 20 21  1  0
 20 19  2  0
 21 22  2  0
 22 17  1  0
  2 23  1  0
  2 24  1  0
  3 25  1  0
  3 26  1  0
  4 27  1  0
  4 28  1  0
  5 29  1  0
  5 30  1  0
  6 31  1  0
  6 32  1  0
  8 33  1  0
  9 34  1  0
 10 35  1  0
 12 36  1  0
 13 37  1  0
 14 38  1  0
 15 39  1  0
 17 40  1  0
 18 41  1  0
 19 42  1  0
M  ISO  8  23  13  24  13  25  13  26  13  27  13  28  13  29  13  30  13
M  ISO  8  31  13  32  13  33  14  34  14  35  14  36  14  37  14  38  14
M  ISO  4  39  14  40  14  41  14  42  14
M  END
>  <minimizedAffinity>  (1) 
-6.69185305

>  <minimizedRMSD>  (1) 
0.241235301

$$$$
