
     RDKit          3D

 40 43  0  0  0  0  0  0  0  0999 V2000
   47.4770   34.0460   42.3490 C   0  0  0  0  0  0  0  0  0  0  0  0
   48.3530   35.1860   41.9070 C   0  0  0  0  0  0  0  0  0  0  0  0
   49.7240   35.2220   42.4660 C   0  0  0  0  0  0  0  0  0  0  0  0
   50.4090   33.8950   42.4730 C   0  0  0  0  0  0  0  0  0  0  0  0
   49.5040   32.7280   42.1290 C   0  0  0  0  0  0  0  0  0  0  0  0
   48.2400   32.9170   42.9300 C   0  0  0  0  0  0  0  0  0  0  0  0
   46.6820   33.6870   41.1710 N   0  0  0  0  0  0  0  0  0  0  0  0
   45.4400   33.1870   41.2510 C   0  0  0  0  0  0  0  0  0  0  0  0
   44.9830   32.9620   40.0060 N   0  0  0  0  0  0  0  0  0  0  0  0
   45.9390   33.3200   39.1330 C   0  0  0  0  0  0  0  0  0  0  0  0
   46.0420   33.3180   37.7690 C   0  0  0  0  0  0  0  0  0  0  0  0
   45.0450   32.8950   37.1330 O   0  0  0  0  0  0  0  0  0  0  0  0
   47.1410   33.7410   37.1170 N   0  0  0  0  0  0  0  0  0  0  0  0
   48.1610   34.1770   37.8950 C   0  0  0  0  0  0  0  0  0  0  0  0
   49.3160   34.6210   37.1740 N   0  0  0  0  0  0  0  0  0  0  0  0
   48.0730   34.1860   39.2390 N   0  0  0  0  0  0  0  0  0  0  0  0
   46.9990   33.7730   39.8900 C   0  0  0  0  0  0  0  0  0  0  0  0
   45.3610   34.2360   45.3890 C   0  0  0  0  0  0  0  0  0  0  0  0
   44.5990   35.3950   45.1610 C   0  0  0  0  0  0  0  0  0  0  0  0
   44.8170   36.1030   43.9720 C   0  0  0  0  0  0  0  0  0  0  0  0
   45.7660   35.6240   43.0940 N   0  0  0  0  0  0  0  0  0  0  0  0
   46.4760   34.5060   43.3510 C   0  0  0  0  0  0  0  0  0  0  0  0
   46.2710   33.8230   44.4910 N   0  0  0  0  0  0  0  0  0  0  0  0
   48.4401   35.1351   40.8116 H   0  0  0  0  0  0  0  0  0  0  0  0
   47.8609   36.0943   42.2849 H   0  0  0  0  0  0  0  0  0  0  0  0
   50.3254   35.9192   41.8641 H   0  0  0  0  0  0  0  0  0  0  0  0
   49.6331   35.5403   43.5150 H   0  0  0  0  0  0  0  0  0  0  0  0
   51.2276   33.9252   41.7388 H   0  0  0  0  0  0  0  0  0  0  0  0
   50.7648   33.7277   43.5003 H   0  0  0  0  0  0  0  0  0  0  0  0
   49.2758   32.7282   41.0529 H   0  0  0  0  0  0  0  0  0  0  0  0
   49.9854   31.7676   42.3654 H   0  0  0  0  0  0  0  0  0  0  0  0
   48.4944   33.1411   43.9764 H   0  0  0  0  0  0  0  0  0  0  0  0
   47.6348   31.9990   42.8994 H   0  0  0  0  0  0  0  0  0  0  0  0
   44.8863   32.9929   42.1815 H   0  0  0  0  0  0  0  0  0  0  0  0
   47.2028   33.7337   36.0889 H   0  0  0  0  0  0  0  0  0  0  0  0
   50.1396   34.9694   37.6850 H   0  0  0  0  0  0  0  0  0  0  0  0
   49.3231   34.5919   36.1444 H   0  0  0  0  0  0  0  0  0  0  0  0
   45.2104   33.6601   46.3140 H   0  0  0  0  0  0  0  0  0  0  0  0
   43.8536   35.7360   45.8945 H   0  0  0  0  0  0  0  0  0  0  0  0
   44.2468   37.0159   43.7451 H   0  0  0  0  0  0  0  0  0  0  0  0
  1  6  1  0
  1 22  1  0
  2  1  1  0
  2  3  1  0
  3  4  1  0
  5  4  1  0
  5  6  1  0
  7  8  1  0
  7  1  1  0
  9  8  2  0
 10 17  2  0
 10  9  1  0
 11 10  1  0
 12 11  2  0
 13 11  1  0
 13 14  1  0
 14 16  2  0
 15 14  1  0
 16 17  1  0
 17  7  1  0
 19 18  2  0
 20 19  1  0
 21 22  1  0
 21 20  2  0
 22 23  2  0
 23 18  1  0
  2 24  1  0
  2 25  1  0
  3 26  1  0
  3 27  1  0
  4 28  1  0
  4 29  1  0
  5 30  1  0
  5 31  1  0
  6 32  1  0
  6 33  1  0
  8 34  1  0
 13 35  1  0
 15 36  1  0
 15 37  1  0
 18 38  1  0
 19 39  1  0
 20 40  1  0
M  ISO  8  24  13  25  13  26  13  27  13  28  13  29  13  30  13  31  13
M  ISO  7  32  13  33  13  34  14  35   9  38  14  39  14  40  14
M  END
>  <minimizedAffinity>  (1) 
-7.05900621

>  <minimizedRMSD>  (1) 
0.715030193

$$$$
