
     RDKit          3D

 36 38  0  0  0  0  0  0  0  0999 V2000
   47.4770   34.0790   42.2370 C   0  0  0  0  0  0  0  0  0  0  0  0
   48.4150   35.2120   41.8520 C   0  0  0  0  0  0  0  0  0  0  0  0
   49.7640   35.1950   42.4620 C   0  0  0  0  0  0  0  0  0  0  0  0
   50.4000   33.8430   42.4440 C   0  0  0  0  0  0  0  0  0  0  0  0
   49.4590   32.7120   42.0610 C   0  0  0  0  0  0  0  0  0  0  0  0
   48.1960   32.9460   42.8590 C   0  0  0  0  0  0  0  0  0  0  0  0
   45.3120   34.3480   45.2400 C   0  0  0  0  0  0  0  0  0  0  0  0
   44.5760   35.5310   44.9900 C   0  0  0  0  0  0  0  0  0  0  0  0
   44.8300   36.2300   43.7960 C   0  0  0  0  0  0  0  0  0  0  0  0
   45.7700   35.7160   42.9620 N   0  0  0  0  0  0  0  0  0  0  0  0
   46.4560   34.5960   43.2150 C   0  0  0  0  0  0  0  0  0  0  0  0
   46.2250   33.9180   44.3490 N   0  0  0  0  0  0  0  0  0  0  0  0
   46.7230   33.7450   41.0580 N   0  0  0  0  0  0  0  0  0  0  0  0
   45.5470   33.1150   41.3670 C   0  0  0  0  0  0  0  0  0  0  0  0
   44.6230   32.6770   40.4420 C   0  0  0  0  0  0  0  0  0  0  0  0
   44.8750   32.8730   39.1010 C   0  0  0  0  0  0  0  0  0  0  0  0
   44.0830   32.5010   38.2140 O   0  0  0  0  0  0  0  0  0  0  0  0
   46.0290   33.4900   38.7940 N   0  0  0  0  0  0  0  0  0  0  0  0
   46.8860   33.8940   39.7400 C   0  0  0  0  0  0  0  0  0  0  0  0
   47.9490   34.4670   39.4090 O   0  0  0  0  0  0  0  0  0  0  0  0
   48.5427   35.1824   40.7598 H   0  0  0  0  0  0  0  0  0  0  0  0
   47.9365   36.1258   42.2341 H   0  0  0  0  0  0  0  0  0  0  0  0
   50.4082   35.8920   41.9059 H   0  0  0  0  0  0  0  0  0  0  0  0
   49.6505   35.4894   43.5158 H   0  0  0  0  0  0  0  0  0  0  0  0
   51.2280   33.8618   41.7201 H   0  0  0  0  0  0  0  0  0  0  0  0
   50.7341   33.6392   43.4720 H   0  0  0  0  0  0  0  0  0  0  0  0
   49.2429   32.7408   40.9828 H   0  0  0  0  0  0  0  0  0  0  0  0
   49.8988   31.7266   42.2746 H   0  0  0  0  0  0  0  0  0  0  0  0
   48.4505   33.1900   43.9010 H   0  0  0  0  0  0  0  0  0  0  0  0
   47.5672   32.0435   42.8601 H   0  0  0  0  0  0  0  0  0  0  0  0
   45.1375   33.7785   46.1648 H   0  0  0  0  0  0  0  0  0  0  0  0
   43.8266   35.8935   45.7091 H   0  0  0  0  0  0  0  0  0  0  0  0
   44.2891   37.1552   43.5481 H   0  0  0  0  0  0  0  0  0  0  0  0
   45.3232   32.9461   42.4307 H   0  0  0  0  0  0  0  0  0  0  0  0
   43.6986   32.1786   40.7693 H   0  0  0  0  0  0  0  0  0  0  0  0
   46.2603   33.6565   37.8042 H   0  0  0  0  0  0  0  0  0  0  0  0
  1  6  1  0
  1 11  1  0
  2  1  1  0
  2  3  1  0
  4  3  1  0
  5  4  1  0
  5  6  1  0
  8  7  2  0
  9  8  1  0
 10 11  1  0
 10  9  2  0
 11 12  2  0
 12  7  1  0
 13 14  1  0
 13  1  1  0
 15 14  2  0
 16 15  1  0
 17 16  2  0
 18 16  1  0
 18 19  1  0
 19 13  1  0
 20 19  2  0
  2 21  1  0
  2 22  1  0
  3 23  1  0
  3 24  1  0
  4 25  1  0
  4 26  1  0
  5 27  1  0
  5 28  1  0
  6 29  1  0
  6 30  1  0
  7 31  1  0
  8 32  1  0
  9 33  1  0
 14 34  1  0
 15 35  1  0
 18 36  1  0
M  ISO  8  21  13  22  13  23  13  24  13  25  13  26  13  27  13  28  13
M  ISO  8  29  13  30  13  31  14  32  14  33  14  34  14  35  14  36   9
M  END
>  <minimizedAffinity>  (1) 
-5.93883467

>  <minimizedRMSD>  (1) 
0.533244848

$$$$
