
     RDKit          3D

 35 37  0  0  0  0  0  0  0  0999 V2000
   47.4820   34.0560   42.3370 C   0  0  0  0  0  0  0  0  0  0  0  0
   48.3000   35.1930   41.8490 C   0  0  0  0  0  0  0  0  0  0  0  0
   49.6820   35.2820   42.4160 C   0  0  0  0  0  0  0  0  0  0  0  0
   50.4040   33.9820   42.4380 C   0  0  0  0  0  0  0  0  0  0  0  0
   49.5480   32.7900   42.1360 C   0  0  0  0  0  0  0  0  0  0  0  0
   48.2760   32.9300   42.9520 C   0  0  0  0  0  0  0  0  0  0  0  0
   45.4240   34.2600   45.4180 C   0  0  0  0  0  0  0  0  0  0  0  0
   44.5970   35.3630   45.1880 C   0  0  0  0  0  0  0  0  0  0  0  0
   44.7760   36.0270   43.9820 C   0  0  0  0  0  0  0  0  0  0  0  0
   45.7170   35.5830   43.1100 N   0  0  0  0  0  0  0  0  0  0  0  0
   46.5030   34.5100   43.3600 C   0  0  0  0  0  0  0  0  0  0  0  0
   46.3340   33.8540   44.5410 N   0  0  0  0  0  0  0  0  0  0  0  0
   46.5990   33.4320   41.3130 C   0  0  0  0  0  0  0  0  0  0  0  0
   46.3060   33.7920   40.0320 C   0  0  0  0  0  0  0  0  0  0  0  0
   45.4470   33.0680   39.2580 C   0  0  0  0  0  0  0  0  0  0  0  0
   44.8230   31.9170   39.7380 C   0  0  0  0  0  0  0  0  0  0  0  0
   45.1490   31.5890   41.0390 C   0  0  0  0  0  0  0  0  0  0  0  0
   45.9910   32.3030   41.7950 N   0  0  0  0  0  0  0  0  0  0  0  0
   48.3871   35.1035   40.7561 H   0  0  0  0  0  0  0  0  0  0  0  0
   47.7788   36.1038   42.1789 H   0  0  0  0  0  0  0  0  0  0  0  0
   50.2621   35.9912   41.8073 H   0  0  0  0  0  0  0  0  0  0  0  0
   49.5803   35.6110   43.4607 H   0  0  0  0  0  0  0  0  0  0  0  0
   51.2101   34.0241   41.6907 H   0  0  0  0  0  0  0  0  0  0  0  0
   50.7754   33.8481   43.4647 H   0  0  0  0  0  0  0  0  0  0  0  0
   49.3060   32.7623   41.0633 H   0  0  0  0  0  0  0  0  0  0  0  0
   50.0738   31.8581   42.3909 H   0  0  0  0  0  0  0  0  0  0  0  0
   48.5216   33.1675   43.9976 H   0  0  0  0  0  0  0  0  0  0  0  0
   47.6996   31.9931   42.9463 H   0  0  0  0  0  0  0  0  0  0  0  0
   45.3166   33.7067   46.3627 H   0  0  0  0  0  0  0  0  0  0  0  0
   43.8452   35.6873   45.9226 H   0  0  0  0  0  0  0  0  0  0  0  0
   44.1609   36.9049   43.7352 H   0  0  0  0  0  0  0  0  0  0  0  0
   46.7757   34.6925   39.6096 H   0  0  0  0  0  0  0  0  0  0  0  0
   45.2415   33.4004   38.2298 H   0  0  0  0  0  0  0  0  0  0  0  0
   44.1280   31.3193   39.1300 H   0  0  0  0  0  0  0  0  0  0  0  0
   44.6910   30.6906   41.4785 H   0  0  0  0  0  0  0  0  0  0  0  0
  1  6  1  0
  1 11  1  0
  2  1  1  0
  2  3  1  0
  3  4  1  0
  5  4  1  0
  5  6  1  0
  8  7  2  0
  9  8  1  0
 10 11  1  0
 10  9  2  0
 11 12  2  0
 12  7  1  0
 13 18  1  0
 13  1  1  0
 14 13  2  0
 15 16  2  0
 15 14  1  0
 16 17  1  0
 17 18  2  0
  2 19  1  0
  2 20  1  0
  3 21  1  0
  3 22  1  0
  4 23  1  0
  4 24  1  0
  5 25  1  0
  5 26  1  0
  6 27  1  0
  6 28  1  0
  7 29  1  0
  8 30  1  0
  9 31  1  0
 14 32  1  0
 15 33  1  0
 16 34  1  0
 17 35  1  0
M  ISO  8  19  13  20  13  21  13  22  13  23  13  24  13  25  13  26  13
M  ISO  8  27  13  28  13  29  14  30  14  31  14  32  14  33  14  34  14
M  ISO  1  35  14
M  END
>  <minimizedAffinity>  (1) 
-5.32053757

>  <minimizedRMSD>  (1) 
0.573684573

$$$$
