
     RDKit          3D

 32 34  0  0  0  0  0  0  0  0999 V2000
   47.4780   34.0590   42.3250 C   0  0  0  0  0  0  0  0  0  0  0  0
   48.2880   35.2160   41.7890 C   0  0  0  0  0  0  0  0  0  0  0  0
   49.6590   35.3620   42.3230 C   0  0  0  0  0  0  0  0  0  0  0  0
   50.4080   34.0710   42.4500 C   0  0  0  0  0  0  0  0  0  0  0  0
   49.5660   32.8600   42.1380 C   0  0  0  0  0  0  0  0  0  0  0  0
   48.2840   32.9860   42.9500 C   0  0  0  0  0  0  0  0  0  0  0  0
   45.3400   34.3240   45.3320 C   0  0  0  0  0  0  0  0  0  0  0  0
   44.5630   35.4630   45.0790 C   0  0  0  0  0  0  0  0  0  0  0  0
   44.7910   36.1340   43.8640 C   0  0  0  0  0  0  0  0  0  0  0  0
   45.7310   35.6630   43.0070 N   0  0  0  0  0  0  0  0  0  0  0  0
   46.4580   34.5620   43.2870 C   0  0  0  0  0  0  0  0  0  0  0  0
   46.2620   33.8960   44.4490 N   0  0  0  0  0  0  0  0  0  0  0  0
   46.6750   33.4230   41.2100 C   0  0  0  0  0  0  0  0  0  0  0  0
   46.9250   33.8840   39.9090 C   0  0  0  0  0  0  0  0  0  0  0  0
   45.8190   32.9240   38.9050 S   0  0  0  0  0  0  0  0  0  0  0  0
   45.1460   31.9970   40.4210 C   0  0  0  0  0  0  0  0  0  0  0  0
   45.7590   32.4890   41.2330 N   0  0  0  0  0  0  0  0  0  0  0  0
   47.7398   36.1421   42.0166 H   0  0  0  0  0  0  0  0  0  0  0  0
   48.4128   35.0126   40.7152 H   0  0  0  0  0  0  0  0  0  0  0  0
   50.2232   36.0236   41.6492 H   0  0  0  0  0  0  0  0  0  0  0  0
   49.5611   35.7725   43.3388 H   0  0  0  0  0  0  0  0  0  0  0  0
   51.2604   34.0920   41.7550 H   0  0  0  0  0  0  0  0  0  0  0  0
   50.7299   33.9828   43.4981 H   0  0  0  0  0  0  0  0  0  0  0  0
   49.3311   32.8302   41.0638 H   0  0  0  0  0  0  0  0  0  0  0  0
   50.1019   31.9338   42.3929 H   0  0  0  0  0  0  0  0  0  0  0  0
   48.5210   33.2497   43.9913 H   0  0  0  0  0  0  0  0  0  0  0  0
   47.7309   32.0352   42.9595 H   0  0  0  0  0  0  0  0  0  0  0  0
   45.1936   33.7690   46.2704 H   0  0  0  0  0  0  0  0  0  0  0  0
   43.8091   35.8160   45.7981 H   0  0  0  0  0  0  0  0  0  0  0  0
   44.2114   37.0339   43.6107 H   0  0  0  0  0  0  0  0  0  0  0  0
   47.6378   34.6574   39.5869 H   0  0  0  0  0  0  0  0  0  0  0  0
   44.3811   31.2094   40.4887 H   0  0  0  0  0  0  0  0  0  0  0  0
  1  6  1  0
  1 11  1  0
  2  3  1  0
  2  1  1  0
  3  4  1  0
  5  4  1  0
  5  6  1  0
  8  7  2  0
  9  8  1  0
 10 11  1  0
 10  9  2  0
 11 12  2  0
 12  7  1  0
 13 17  1  0
 13  1  1  0
 14 13  2  0
 15 14  1  0
 15 16  1  0
 16 17  2  0
  2 18  1  0
  2 19  1  0
  3 20  1  0
  3 21  1  0
  4 22  1  0
  4 23  1  0
  5 24  1  0
  5 25  1  0
  6 26  1  0
  6 27  1  0
  7 28  1  0
  8 29  1  0
  9 30  1  0
 14 31  1  0
 16 32  1  0
M  ISO  8  18  13  19  13  20  13  21  13  22  13  23  13  24  13  25  13
M  ISO  7  26  13  27  13  28  14  29  14  30  14  31  14  32  14
M  END
>  <minimizedAffinity>  (1) 
-5.24490404

>  <minimizedRMSD>  (1) 
0.785514414

$$$$
