
     RDKit          3D

 31 33  0  0  0  0  0  0  0  0999 V2000
   47.5390   34.1600   42.1830 C   0  0  0  0  0  0  0  0  0  0  0  0
   48.4290   35.3000   41.7370 C   0  0  0  0  0  0  0  0  0  0  0  0
   49.7810   35.3470   42.3510 C   0  0  0  0  0  0  0  0  0  0  0  0
   50.4520   34.0170   42.4580 C   0  0  0  0  0  0  0  0  0  0  0  0
   49.5640   32.8550   42.0520 C   0  0  0  0  0  0  0  0  0  0  0  0
   48.2550   33.0230   42.8070 C   0  0  0  0  0  0  0  0  0  0  0  0
   45.2650   34.4240   45.0950 C   0  0  0  0  0  0  0  0  0  0  0  0
   44.5480   35.5950   44.8270 C   0  0  0  0  0  0  0  0  0  0  0  0
   44.8530   36.2910   43.6400 C   0  0  0  0  0  0  0  0  0  0  0  0
   45.8200   35.7880   42.8290 N   0  0  0  0  0  0  0  0  0  0  0  0
   46.4880   34.6630   43.1170 C   0  0  0  0  0  0  0  0  0  0  0  0
   46.2110   33.9840   44.2460 N   0  0  0  0  0  0  0  0  0  0  0  0
   46.8300   33.6710   40.9540 C   0  0  0  0  0  0  0  0  0  0  0  0
   47.1780   33.9610   39.6860 N   0  0  0  0  0  0  0  0  0  0  0  0
   46.3590   33.3810   38.8830 O   0  0  0  0  0  0  0  0  0  0  0  0
   45.4470   32.6930   39.5650 C   0  0  0  0  0  0  0  0  0  0  0  0
   45.7620   32.8910   40.8520 N   0  0  0  0  0  0  0  0  0  0  0  0
   48.5564   35.2214   40.6472 H   0  0  0  0  0  0  0  0  0  0  0  0
   47.9215   36.2192   42.0647 H   0  0  0  0  0  0  0  0  0  0  0  0
   50.4152   36.0049   41.7387 H   0  0  0  0  0  0  0  0  0  0  0  0
   49.6487   35.7175   43.3782 H   0  0  0  0  0  0  0  0  0  0  0  0
   51.3387   34.0213   41.8070 H   0  0  0  0  0  0  0  0  0  0  0  0
   50.7116   33.8705   43.5168 H   0  0  0  0  0  0  0  0  0  0  0  0
   49.3820   32.8775   40.9674 H   0  0  0  0  0  0  0  0  0  0  0  0
   50.0383   31.8916   42.2905 H   0  0  0  0  0  0  0  0  0  0  0  0
   48.4550   33.2383   43.8670 H   0  0  0  0  0  0  0  0  0  0  0  0
   47.6522   32.1042   42.7576 H   0  0  0  0  0  0  0  0  0  0  0  0
   45.0523   33.8554   46.0123 H   0  0  0  0  0  0  0  0  0  0  0  0
   43.7737   35.9596   45.5181 H   0  0  0  0  0  0  0  0  0  0  0  0
   44.3218   37.2176   43.3770 H   0  0  0  0  0  0  0  0  0  0  0  0
   44.6175   32.0939   39.1613 H   0  0  0  0  0  0  0  0  0  0  0  0
  1  6  1  0
  1 11  1  0
  2  1  1  0
  2  3  1  0
  3  4  1  0
  5  4  1  0
  5  6  1  0
  8  7  2  0
  9  8  1  0
 10 11  1  0
 10  9  2  0
 11 12  2  0
 12  7  1  0
 13  1  1  0
 14 13  2  0
 15 16  1  0
 15 14  1  0
 16 17  2  0
 17 13  1  0
  2 18  1  0
  2 19  1  0
  3 20  1  0
  3 21  1  0
  4 22  1  0
  4 23  1  0
  5 24  1  0
  5 25  1  0
  6 26  1  0
  6 27  1  0
  7 28  1  0
  8 29  1  0
  9 30  1  0
 16 31  1  0
M  ISO  8  18  13  19  13  20  13  21  13  22  13  23  13  24  13  25  13
M  ISO  6  26  13  27  13  28  14  29  14  30  14  31  14
M  END
>  <minimizedAffinity>  (1) 
-5.30036592

>  <minimizedRMSD>  (1) 
0.603356302

$$$$
