
     RDKit          3D

 29 30  0  0  0  0  0  0  0  0999 V2000
   47.6120   34.1860   42.0880 C   0  0  0  0  0  0  0  0  0  0  0  0
   48.6490   35.3020   41.9210 C   0  0  0  0  0  0  0  0  0  0  0  0
   49.9530   35.0570   42.5600 C   0  0  0  0  0  0  0  0  0  0  0  0
   50.4730   33.6630   42.3530 C   0  0  0  0  0  0  0  0  0  0  0  0
   49.5000   32.7160   41.7340 C   0  0  0  0  0  0  0  0  0  0  0  0
   48.1500   32.8740   42.4040 C   0  0  0  0  0  0  0  0  0  0  0  0
   45.5340   34.2450   45.1640 C   0  0  0  0  0  0  0  0  0  0  0  0
   44.6630   35.3350   44.8980 C   0  0  0  0  0  0  0  0  0  0  0  0
   44.8200   36.0420   43.6820 C   0  0  0  0  0  0  0  0  0  0  0  0
   45.7920   35.6460   42.8240 N   0  0  0  0  0  0  0  0  0  0  0  0
   46.6020   34.6020   43.1160 C   0  0  0  0  0  0  0  0  0  0  0  0
   46.4830   33.8980   44.2760 N   0  0  0  0  0  0  0  0  0  0  0  0
   46.8370   34.1470   40.8010 C   0  0  0  0  0  0  0  0  0  0  0  0
   47.3700   34.2340   39.6590 O   0  0  0  0  0  0  0  0  0  0  0  0
   45.8750   34.0810   39.8050 O   0  0  0  0  0  0  0  0  0  0  0  0
   48.8211   35.4462   40.8442 H   0  0  0  0  0  0  0  0  0  0  0  0
   48.2270   36.1841   42.4248 H   0  0  0  0  0  0  0  0  0  0  0  0
   50.6832   35.7659   42.1426 H   0  0  0  0  0  0  0  0  0  0  0  0
   49.8112   35.1904   43.6426 H   0  0  0  0  0  0  0  0  0  0  0  0
   51.3563   33.7210   41.7000 H   0  0  0  0  0  0  0  0  0  0  0  0
   50.6974   33.2652   43.3537 H   0  0  0  0  0  0  0  0  0  0  0  0
   49.4052   32.9364   40.6605 H   0  0  0  0  0  0  0  0  0  0  0  0
   49.8571   31.6838   41.8647 H   0  0  0  0  0  0  0  0  0  0  0  0
   48.2660   32.7763   43.4935 H   0  0  0  0  0  0  0  0  0  0  0  0
   47.4632   32.0951   42.0411 H   0  0  0  0  0  0  0  0  0  0  0  0
   45.4318   33.6807   46.1027 H   0  0  0  0  0  0  0  0  0  0  0  0
   43.8847   35.6229   45.6201 H   0  0  0  0  0  0  0  0  0  0  0  0
   44.1679   36.8938   43.4386 H   0  0  0  0  0  0  0  0  0  0  0  0
   46.1430   34.1353   38.8535 H   0  0  0  0  0  0  0  0  0  0  0  0
  1  6  1  0
  1 11  1  0
  2  1  1  0
  2  3  1  0
  4  3  1  0
  5  4  1  0
  5  6  1  0
  8  7  2  0
  9  8  1  0
 10 11  1  0
 10  9  2  0
 11 12  2  0
 12  7  1  0
 13  1  1  0
 14 13  2  0
 15 13  1  0
  2 16  1  0
  2 17  1  0
  3 18  1  0
  3 19  1  0
  4 20  1  0
  4 21  1  0
  5 22  1  0
  5 23  1  0
  6 24  1  0
  6 25  1  0
  7 26  1  0
  8 27  1  0
  9 28  1  0
 15 29  1  0
M  ISO  8  16  13  17  13  18  13  19  13  20  13  21  13  22  13  23  13
M  ISO  6  24  13  25  13  26  14  27  14  28  14  29   3
M  END
>  <minimizedAffinity>  (1) 
-5.28479099

>  <minimizedRMSD>  (1) 
0.768808007

$$$$
