
     RDKit          3D

 47 51  0  0  0  0  0  0  0  0999 V2000
   47.4660   34.0430   42.3840 C   0  0  0  0  0  0  0  0  0  0  0  0
   48.2360   35.1810   41.7510 C   0  0  0  0  0  0  0  0  0  0  0  0
   49.5980   35.3790   42.2650 C   0  0  0  0  0  0  0  0  0  0  0  0
   50.3880   34.1270   42.4530 C   0  0  0  0  0  0  0  0  0  0  0  0
   49.5770   32.8660   42.2880 C   0  0  0  0  0  0  0  0  0  0  0  0
   48.2950   33.0430   43.0900 C   0  0  0  0  0  0  0  0  0  0  0  0
   45.2590   34.4050   45.3340 C   0  0  0  0  0  0  0  0  0  0  0  0
   44.5240   35.5660   45.0280 C   0  0  0  0  0  0  0  0  0  0  0  0
   44.7900   36.2160   43.8210 C   0  0  0  0  0  0  0  0  0  0  0  0
   45.7410   35.6990   43.0050 N   0  0  0  0  0  0  0  0  0  0  0  0
   46.4350   34.5760   43.3270 C   0  0  0  0  0  0  0  0  0  0  0  0
   46.1840   33.9290   44.5070 N   0  0  0  0  0  0  0  0  0  0  0  0
   46.7560   33.3060   41.2650 C   0  0  0  0  0  0  0  0  0  0  0  0
   45.7500   32.3740   41.1210 C   0  0  0  0  0  0  0  0  0  0  0  0
   45.4280   31.9940   39.8690 C   0  0  0  0  0  0  0  0  0  0  0  0
   46.0360   32.4760   38.7890 C   0  0  0  0  0  0  0  0  0  0  0  0
   47.2520   33.6380   39.5430 S   0  0  0  0  0  0  0  0  0  0  0  0
   46.0220   32.3680   37.4020 C   0  0  0  0  0  0  0  0  0  0  0  0
   46.9690   32.8860   36.5080 C   0  0  0  0  0  0  0  0  0  0  0  0
   46.6410   32.5940   35.2360 N   0  0  0  0  0  0  0  0  0  0  0  0
   45.4950   31.8890   35.2050 C   0  0  0  0  0  0  0  0  0  0  0  0
   44.7460   31.3570   34.1750 C   0  0  0  0  0  0  0  0  0  0  0  0
   43.5890   30.6690   34.4750 C   0  0  0  0  0  0  0  0  0  0  0  0
   43.2180   30.5360   35.7950 C   0  0  0  0  0  0  0  0  0  0  0  0
   43.9870   31.0790   36.8000 C   0  0  0  0  0  0  0  0  0  0  0  0
   45.1440   31.7690   36.5310 C   0  0  0  0  0  0  0  0  0  0  0  0
   47.6706   36.1094   41.9197 H   0  0  0  0  0  0  0  0  0  0  0  0
   48.3466   34.9198   40.6882 H   0  0  0  0  0  0  0  0  0  0  0  0
   50.1404   36.0218   41.5561 H   0  0  0  0  0  0  0  0  0  0  0  0
   49.4882   35.8268   43.2637 H   0  0  0  0  0  0  0  0  0  0  0  0
   51.2016   34.1156   41.7128 H   0  0  0  0  0  0  0  0  0  0  0  0
   50.7610   34.1354   43.4878 H   0  0  0  0  0  0  0  0  0  0  0  0
   49.3377   32.7088   41.2259 H   0  0  0  0  0  0  0  0  0  0  0  0
   50.1410   31.9913   42.6440 H   0  0  0  0  0  0  0  0  0  0  0  0
   48.5317   33.3990   44.1035 H   0  0  0  0  0  0  0  0  0  0  0  0
   47.7580   32.0872   43.1797 H   0  0  0  0  0  0  0  0  0  0  0  0
   45.0630   33.8793   46.2802 H   0  0  0  0  0  0  0  0  0  0  0  0
   43.7610   35.9507   45.7207 H   0  0  0  0  0  0  0  0  0  0  0  0
   44.2406   37.1263   43.5390 H   0  0  0  0  0  0  0  0  0  0  0  0
   45.2298   31.9563   41.9956 H   0  0  0  0  0  0  0  0  0  0  0  0
   44.6269   31.2524   39.7343 H   0  0  0  0  0  0  0  0  0  0  0  0
   47.8616   33.4554   36.8064 H   0  0  0  0  0  0  0  0  0  0  0  0
   47.1871   32.8697   34.4074 H   0  0  0  0  0  0  0  0  0  0  0  0
   45.0672   31.4800   33.1301 H   0  0  0  0  0  0  0  0  0  0  0  0
   42.9731   30.2340   33.6741 H   0  0  0  0  0  0  0  0  0  0  0  0
   42.2974   29.9901   36.0490 H   0  0  0  0  0  0  0  0  0  0  0  0
   43.6666   30.9571   37.8452 H   0  0  0  0  0  0  0  0  0  0  0  0
  1  6  1  0
  1 11  1  0
  2  3  1  0
  2  1  1  0
  3  4  1  0
  5  4  1  0
  5  6  1  0
  8  7  2  0
  9  8  1  0
 10 11  1  0
 10  9  2  0
 11 12  2  0
 12  7  1  0
 13  1  1  0
 14 13  2  0
 15 14  1  0
 16 17  1  0
 16 15  2  0
 17 13  1  0
 18 16  1  0
 19 18  2  0
 20 19  1  0
 21 20  1  0
 21 26  2  0
 22 23  2  0
 22 21  1  0
 23 24  1  0
 24 25  2  0
 26 25  1  0
 26 18  1  0
  2 27  1  0
  2 28  1  0
  3 29  1  0
  3 30  1  0
  4 31  1  0
  4 32  1  0
  5 33  1  0
  5 34  1  0
  6 35  1  0
  6 36  1  0
  7 37  1  0
  8 38  1  0
  9 39  1  0
 14 40  1  0
 15 41  1  0
 19 42  1  0
 20 43  1  0
 22 44  1  0
 23 45  1  0
 24 46  1  0
 25 47  1  0
M  ISO  8  27  13  28  13  29  13  30  13  31  13  32  13  33  13  34  13
M  ISO  8  35  13  36  13  37  14  38  14  39  14  40  14  41  14  42  14
M  ISO  5  43   9  44  14  45  14  46  14  47  14
M  END
>  <minimizedAffinity>  (1) 
-6.68319178

>  <minimizedRMSD>  (1) 
0.895577908

$$$$
