
     RDKit          3D

 43 46  0  0  0  0  0  0  0  0999 V2000
   47.5730   34.1930   42.1360 C   0  0  0  0  0  0  0  0  0  0  0  0
   48.4730   35.3160   41.7060 C   0  0  0  0  0  0  0  0  0  0  0  0
   49.7970   35.3640   42.3440 C   0  0  0  0  0  0  0  0  0  0  0  0
   50.4800   34.0360   42.4600 C   0  0  0  0  0  0  0  0  0  0  0  0
   49.6030   32.8730   42.0940 C   0  0  0  0  0  0  0  0  0  0  0  0
   48.2730   33.0660   42.8040 C   0  0  0  0  0  0  0  0  0  0  0  0
   45.2300   34.4810   44.9890 C   0  0  0  0  0  0  0  0  0  0  0  0
   44.5300   35.6490   44.7140 C   0  0  0  0  0  0  0  0  0  0  0  0
   44.8640   36.3430   43.5440 C   0  0  0  0  0  0  0  0  0  0  0  0
   45.8430   35.8470   42.7500 N   0  0  0  0  0  0  0  0  0  0  0  0
   46.5060   34.7000   43.0540 C   0  0  0  0  0  0  0  0  0  0  0  0
   46.1840   34.0180   44.1920 N   0  0  0  0  0  0  0  0  0  0  0  0
   46.9170   33.6300   40.8980 C   0  0  0  0  0  0  0  0  0  0  0  0
   45.7210   33.0370   40.5490 C   0  0  0  0  0  0  0  0  0  0  0  0
   45.5550   32.6760   39.2620 C   0  0  0  0  0  0  0  0  0  0  0  0
   46.5040   32.8750   38.3330 C   0  0  0  0  0  0  0  0  0  0  0  0
   47.8560   33.6820   39.3310 S   0  0  0  0  0  0  0  0  0  0  0  0
   46.6450   32.6270   36.9620 C   0  0  0  0  0  0  0  0  0  0  0  0
   45.4730   32.4650   36.2590 C   0  0  0  0  0  0  0  0  0  0  0  0
   45.4590   32.2160   34.9020 C   0  0  0  0  0  0  0  0  0  0  0  0
   46.6960   32.1340   34.2680 C   0  0  0  0  0  0  0  0  0  0  0  0
   47.8660   32.2990   34.9810 C   0  0  0  0  0  0  0  0  0  0  0  0
   47.8740   32.5500   36.3460 C   0  0  0  0  0  0  0  0  0  0  0  0
   48.6260   35.2272   40.6203 H   0  0  0  0  0  0  0  0  0  0  0  0
   47.9620   36.2395   42.0157 H   0  0  0  0  0  0  0  0  0  0  0  0
   50.4402   36.0303   41.7505 H   0  0  0  0  0  0  0  0  0  0  0  0
   49.6361   35.7234   43.3711 H   0  0  0  0  0  0  0  0  0  0  0  0
   51.3543   34.0355   41.7925 H   0  0  0  0  0  0  0  0  0  0  0  0
   50.7590   33.9088   43.5164 H   0  0  0  0  0  0  0  0  0  0  0  0
   49.4478   32.8470   41.0053 H   0  0  0  0  0  0  0  0  0  0  0  0
   50.0703   31.9240   42.3956 H   0  0  0  0  0  0  0  0  0  0  0  0
   48.4438   33.3047   43.8641 H   0  0  0  0  0  0  0  0  0  0  0  0
   47.6686   32.1483   42.7533 H   0  0  0  0  0  0  0  0  0  0  0  0
   44.9839   33.9189   45.9020 H   0  0  0  0  0  0  0  0  0  0  0  0
   43.7430   36.0151   45.3897 H   0  0  0  0  0  0  0  0  0  0  0  0
   44.3414   37.2728   43.2752 H   0  0  0  0  0  0  0  0  0  0  0  0
   44.9313   32.8652   41.2952 H   0  0  0  0  0  0  0  0  0  0  0  0
   44.6091   32.2017   38.9615 H   0  0  0  0  0  0  0  0  0  0  0  0
   44.5160   32.5364   36.7966 H   0  0  0  0  0  0  0  0  0  0  0  0
   44.5171   32.0886   34.3483 H   0  0  0  0  0  0  0  0  0  0  0  0
   46.7411   31.9355   33.1870 H   0  0  0  0  0  0  0  0  0  0  0  0
   48.8261   32.2291   34.4487 H   0  0  0  0  0  0  0  0  0  0  0  0
   48.8119   32.6804   36.9057 H   0  0  0  0  0  0  0  0  0  0  0  0
  1  6  1  0
  1 11  1  0
  2  1  1  0
  2  3  1  0
  3  4  1  0
  5  4  1  0
  5  6  1  0
  8  7  2  0
  9  8  1  0
 10 11  1  0
 10  9  2  0
 11 12  2  0
 12  7  1  0
 13  1  1  0
 14 13  2  0
 15 14  1  0
 16 15  2  0
 16 17  1  0
 17 13  1  0
 18 16  1  0
 19 18  2  0
 20 19  1  0
 21 20  2  0
 21 22  1  0
 22 23  2  0
 23 18  1  0
  2 24  1  0
  2 25  1  0
  3 26  1  0
  3 27  1  0
  4 28  1  0
  4 29  1  0
  5 30  1  0
  5 31  1  0
  6 32  1  0
  6 33  1  0
  7 34  1  0
  8 35  1  0
  9 36  1  0
 14 37  1  0
 15 38  1  0
 19 39  1  0
 20 40  1  0
 21 41  1  0
 22 42  1  0
 23 43  1  0
M  ISO  8  24  13  25  13  26  13  27  13  28  13  29  13  30  13  31  13
M  ISO  8  32  13  33  13  34  14  35  14  36  14  37  14  38  14  39  14
M  ISO  4  40  14  41  14  42  14  43  14
M  END
>  <minimizedAffinity>  (1) 
-6.16259766

>  <minimizedRMSD>  (1) 
0.390264809

$$$$
