
     RDKit          3D

 46 49  0  0  0  0  0  0  0  0999 V2000
   47.6630   34.2760   42.0550 C   0  0  0  0  0  0  0  0  0  0  0  0
   48.6090   35.4030   41.7490 C   0  0  0  0  0  0  0  0  0  0  0  0
   49.8960   35.3700   42.4560 C   0  0  0  0  0  0  0  0  0  0  0  0
   50.5400   34.0260   42.5270 C   0  0  0  0  0  0  0  0  0  0  0  0
   49.6620   32.8970   42.0470 C   0  0  0  0  0  0  0  0  0  0  0  0
   48.2970   33.0830   42.6960 C   0  0  0  0  0  0  0  0  0  0  0  0
   45.1980   34.4690   44.8180 C   0  0  0  0  0  0  0  0  0  0  0  0
   44.5160   35.6720   44.5470 C   0  0  0  0  0  0  0  0  0  0  0  0
   44.9100   36.3930   43.4350 C   0  0  0  0  0  0  0  0  0  0  0  0
   45.9210   35.9090   42.6700 N   0  0  0  0  0  0  0  0  0  0  0  0
   46.5620   34.7450   42.9540 C   0  0  0  0  0  0  0  0  0  0  0  0
   46.1840   34.0230   44.0490 N   0  0  0  0  0  0  0  0  0  0  0  0
   47.0590   33.8000   40.7600 C   0  0  0  0  0  0  0  0  0  0  0  0
   45.8350   33.3910   40.2790 C   0  0  0  0  0  0  0  0  0  0  0  0
   45.7410   33.0360   38.9910 C   0  0  0  0  0  0  0  0  0  0  0  0
   46.8110   33.0720   38.1730 C   0  0  0  0  0  0  0  0  0  0  0  0
   48.1390   33.6710   39.3000 S   0  0  0  0  0  0  0  0  0  0  0  0
   47.6840   32.2500   34.2140 C   0  0  0  0  0  0  0  0  0  0  0  0
   48.6720   32.6970   35.0480 C   0  0  0  0  0  0  0  0  0  0  0  0
   48.2990   32.9540   36.3720 C   0  0  0  0  0  0  0  0  0  0  0  0
   47.0310   32.7740   36.8230 C   0  0  0  0  0  0  0  0  0  0  0  0
   46.0260   32.3230   35.9920 C   0  0  0  0  0  0  0  0  0  0  0  0
   46.3800   32.0620   34.6640 C   0  0  0  0  0  0  0  0  0  0  0  0
   48.0260   31.8930   32.5300 S   0  0  0  0  0  0  0  0  0  0  0  0
   48.7750   33.0210   31.8670 O   0  0  0  0  0  0  0  0  0  0  0  0
   48.8800   30.6460   32.4330 O   0  0  0  0  0  0  0  0  0  0  0  0
   48.8171   35.3845   40.6690 H   0  0  0  0  0  0  0  0  0  0  0  0
   48.1037   36.3175   42.0930 H   0  0  0  0  0  0  0  0  0  0  0  0
   50.5868   36.0530   41.9400 H   0  0  0  0  0  0  0  0  0  0  0  0
   49.6851   35.6660   43.4942 H   0  0  0  0  0  0  0  0  0  0  0  0
   51.4484   34.0449   41.9070 H   0  0  0  0  0  0  0  0  0  0  0  0
   50.7544   33.8323   43.5884 H   0  0  0  0  0  0  0  0  0  0  0  0
   49.5669   32.9327   40.9517 H   0  0  0  0  0  0  0  0  0  0  0  0
   50.0945   31.9227   42.3182 H   0  0  0  0  0  0  0  0  0  0  0  0
   48.4132   33.2527   43.7766 H   0  0  0  0  0  0  0  0  0  0  0  0
   47.6733   32.1874   42.5584 H   0  0  0  0  0  0  0  0  0  0  0  0
   44.9029   33.8785   45.6979 H   0  0  0  0  0  0  0  0  0  0  0  0
   43.7006   36.0243   45.1959 H   0  0  0  0  0  0  0  0  0  0  0  0
   44.4139   37.3399   43.1756 H   0  0  0  0  0  0  0  0  0  0  0  0
   44.9547   33.3567   40.9377 H   0  0  0  0  0  0  0  0  0  0  0  0
   44.7696   32.7081   38.5925 H   0  0  0  0  0  0  0  0  0  0  0  0
   49.7037   32.8463   34.6969 H   0  0  0  0  0  0  0  0  0  0  0  0
   49.0633   33.3162   37.0753 H   0  0  0  0  0  0  0  0  0  0  0  0
   44.9982   32.1761   36.3555 H   0  0  0  0  0  0  0  0  0  0  0  0
   45.6136   31.7014   33.9621 H   0  0  0  0  0  0  0  0  0  0  0  0
   46.8239   31.7150   31.8973 H   0  0  0  0  0  0  0  0  0  0  0  0
  1  6  1  0
  1 11  1  0
  2  1  1  0
  2  3  1  0
  3  4  1  0
  5  4  1  0
  5  6  1  0
  8  7  2  0
  9  8  1  0
 10 11  1  0
 10  9  2  0
 11 12  2  0
 12  7  1  0
 13  1  1  0
 14 13  2  0
 15 14  1  0
 16 15  2  0
 16 17  1  0
 17 13  1  0
 18 23  2  0
 18 19  1  0
 19 20  2  0
 20 21  1  0
 21 16  1  0
 22 21  2  0
 23 22  1  0
 24 18  1  0
 25 24  2  0
 26 24  2  0
  2 27  1  0
  2 28  1  0
  3 29  1  0
  3 30  1  0
  4 31  1  0
  4 32  1  0
  5 33  1  0
  5 34  1  0
  6 35  1  0
  6 36  1  0
  7 37  1  0
  8 38  1  0
  9 39  1  0
 14 40  1  0
 15 41  1  0
 19 42  1  0
 20 43  1  0
 22 44  1  0
 23 45  1  0
 24 46  1  0
M  ISO  8  27  13  28  13  29  13  30  13  31  13  32  13  33  13  34  13
M  ISO  8  35  13  36  13  37  14  38  14  39  14  40  14  41  14  42  14
M  ISO  4  43  14  44  14  45  14  46  11
M  END
>  <minimizedAffinity>  (1) 
-6.54586172

>  <minimizedRMSD>  (1) 
0.784243762

$$$$
