
     RDKit          3D

 39 42  0  0  0  0  0  0  0  0999 V2000
   47.5440   34.1530   42.1950 C   0  0  0  0  0  0  0  0  0  0  0  0
   48.4150   35.2740   41.7060 C   0  0  0  0  0  0  0  0  0  0  0  0
   49.7530   35.3560   42.3290 C   0  0  0  0  0  0  0  0  0  0  0  0
   50.4680   34.0530   42.4670 C   0  0  0  0  0  0  0  0  0  0  0  0
   49.6110   32.8550   42.1610 C   0  0  0  0  0  0  0  0  0  0  0  0
   48.2930   33.0530   42.8940 C   0  0  0  0  0  0  0  0  0  0  0  0
   45.2450   34.4630   45.0840 C   0  0  0  0  0  0  0  0  0  0  0  0
   44.5390   35.6260   44.7970 C   0  0  0  0  0  0  0  0  0  0  0  0
   44.8560   36.3030   43.6120 C   0  0  0  0  0  0  0  0  0  0  0  0
   45.8270   35.7890   42.8160 N   0  0  0  0  0  0  0  0  0  0  0  0
   46.4960   34.6500   43.1290 C   0  0  0  0  0  0  0  0  0  0  0  0
   46.1850   33.9970   44.2770 N   0  0  0  0  0  0  0  0  0  0  0  0
   46.8830   33.5240   40.9960 C   0  0  0  0  0  0  0  0  0  0  0  0
   45.7700   32.7340   40.7410 C   0  0  0  0  0  0  0  0  0  0  0  0
   45.5500   32.3850   39.4550 C   0  0  0  0  0  0  0  0  0  0  0  0
   46.3530   32.7720   38.4520 C   0  0  0  0  0  0  0  0  0  0  0  0
   47.6420   33.7840   39.3600 S   0  0  0  0  0  0  0  0  0  0  0  0
   46.3510   32.5610   37.0980 N   0  0  0  0  0  0  0  0  0  0  0  0
   47.3970   32.3640   36.2730 C   0  0  0  0  0  0  0  0  0  0  0  0
   46.9520   32.1970   35.0160 N   0  0  0  0  0  0  0  0  0  0  0  0
   45.6100   32.2960   35.0850 C   0  0  0  0  0  0  0  0  0  0  0  0
   45.2320   32.5220   36.3750 N   0  0  0  0  0  0  0  0  0  0  0  0
   48.5527   35.1486   40.6219 H   0  0  0  0  0  0  0  0  0  0  0  0
   47.8953   36.2036   41.9813 H   0  0  0  0  0  0  0  0  0  0  0  0
   50.3751   36.0226   41.7137 H   0  0  0  0  0  0  0  0  0  0  0  0
   49.5924   35.7272   43.3519 H   0  0  0  0  0  0  0  0  0  0  0  0
   51.3243   34.0524   41.7765 H   0  0  0  0  0  0  0  0  0  0  0  0
   50.7759   33.9663   43.5195 H   0  0  0  0  0  0  0  0  0  0  0  0
   49.4339   32.7838   41.0777 H   0  0  0  0  0  0  0  0  0  0  0  0
   50.1043   31.9263   42.4838 H   0  0  0  0  0  0  0  0  0  0  0  0
   48.4843   33.3354   43.9398 H   0  0  0  0  0  0  0  0  0  0  0  0
   47.7056   32.1230   42.8899 H   0  0  0  0  0  0  0  0  0  0  0  0
   45.0155   33.9139   46.0091 H   0  0  0  0  0  0  0  0  0  0  0  0
   43.7593   36.0012   45.4762 H   0  0  0  0  0  0  0  0  0  0  0  0
   44.3305   37.2285   43.3339 H   0  0  0  0  0  0  0  0  0  0  0  0
   45.0986   32.4076   41.5489 H   0  0  0  0  0  0  0  0  0  0  0  0
   44.6771   31.7581   39.2203 H   0  0  0  0  0  0  0  0  0  0  0  0
   48.4529   32.3430   36.5806 H   0  0  0  0  0  0  0  0  0  0  0  0
   44.9236   32.2078   34.2300 H   0  0  0  0  0  0  0  0  0  0  0  0
  1  6  1  0
  1 11  1  0
  2  1  1  0
  2  3  1  0
  3  4  1  0
  5  4  1  0
  5  6  1  0
  8  7  2  0
  9  8  1  0
 10 11  1  0
 10  9  2  0
 11 12  2  0
 12  7  1  0
 13  1  1  0
 14 13  2  0
 15 14  1  0
 16 17  1  0
 16 15  2  0
 17 13  1  0
 18 16  1  0
 19 18  1  0
 20 21  1  0
 20 19  2  0
 21 22  2  0
 22 18  1  0
  2 23  1  0
  2 24  1  0
  3 25  1  0
  3 26  1  0
  4 27  1  0
  4 28  1  0
  5 29  1  0
  5 30  1  0
  6 31  1  0
  6 32  1  0
  7 33  1  0
  8 34  1  0
  9 35  1  0
 14 36  1  0
 15 37  1  0
 19 38  1  0
 21 39  1  0
M  ISO  8  23  13  24  13  25  13  26  13  27  13  28  13  29  13  30  13
M  ISO  8  31  13  32  13  33  14  34  14  35  14  36  14  37  14  38  14
M  ISO  1  39  14
M  END
>  <minimizedAffinity>  (1) 
-5.89488745

>  <minimizedRMSD>  (1) 
0.254980862

$$$$
