
     RDKit          3D

 39 42  0  0  0  0  0  0  0  0999 V2000
   47.5650   34.1460   42.2010 C   0  0  0  0  0  0  0  0  0  0  0  0
   48.4240   35.2740   41.6980 C   0  0  0  0  0  0  0  0  0  0  0  0
   49.7630   35.3720   42.3140 C   0  0  0  0  0  0  0  0  0  0  0  0
   50.4790   34.0700   42.4670 C   0  0  0  0  0  0  0  0  0  0  0  0
   49.6250   32.8670   42.1840 C   0  0  0  0  0  0  0  0  0  0  0  0
   48.3050   33.0590   42.9040 C   0  0  0  0  0  0  0  0  0  0  0  0
   45.2410   34.4690   45.0620 C   0  0  0  0  0  0  0  0  0  0  0  0
   44.5290   35.6250   44.7710 C   0  0  0  0  0  0  0  0  0  0  0  0
   44.8520   36.2990   43.5860 C   0  0  0  0  0  0  0  0  0  0  0  0
   45.8300   35.7960   42.7900 N   0  0  0  0  0  0  0  0  0  0  0  0
   46.5040   34.6600   43.1120 C   0  0  0  0  0  0  0  0  0  0  0  0
   46.1880   34.0100   44.2600 N   0  0  0  0  0  0  0  0  0  0  0  0
   46.9000   33.5090   40.9930 C   0  0  0  0  0  0  0  0  0  0  0  0
   45.7820   32.7500   40.7170 C   0  0  0  0  0  0  0  0  0  0  0  0
   45.5670   32.3870   39.4470 C   0  0  0  0  0  0  0  0  0  0  0  0
   46.3980   32.7400   38.4560 C   0  0  0  0  0  0  0  0  0  0  0  0
   47.6890   33.7210   39.3700 S   0  0  0  0  0  0  0  0  0  0  0  0
   46.4550   32.5260   37.0400 C   0  0  0  0  0  0  0  0  0  0  0  0
   45.2320   32.3410   36.3910 C   0  0  0  0  0  0  0  0  0  0  0  0
   45.7610   32.1070   34.6370 S   0  0  0  0  0  0  0  0  0  0  0  0
   47.5840   32.3070   35.1190 C   0  0  0  0  0  0  0  0  0  0  0  0
   47.5340   32.4830   36.2800 N   0  0  0  0  0  0  0  0  0  0  0  0
   48.5576   35.1420   40.6141 H   0  0  0  0  0  0  0  0  0  0  0  0
   47.8969   36.2010   41.9679 H   0  0  0  0  0  0  0  0  0  0  0  0
   50.3811   36.0307   41.6862 H   0  0  0  0  0  0  0  0  0  0  0  0
   49.6082   35.7616   43.3310 H   0  0  0  0  0  0  0  0  0  0  0  0
   51.3317   34.0603   41.7721 H   0  0  0  0  0  0  0  0  0  0  0  0
   50.7901   33.9993   43.5197 H   0  0  0  0  0  0  0  0  0  0  0  0
   49.4516   32.7770   41.1015 H   0  0  0  0  0  0  0  0  0  0  0  0
   50.1236   31.9502   42.5317 H   0  0  0  0  0  0  0  0  0  0  0  0
   48.4862   33.3442   43.9508 H   0  0  0  0  0  0  0  0  0  0  0  0
   47.7214   32.1266   42.8984 H   0  0  0  0  0  0  0  0  0  0  0  0
   45.0110   33.9187   45.9863 H   0  0  0  0  0  0  0  0  0  0  0  0
   43.7425   35.9969   45.4442 H   0  0  0  0  0  0  0  0  0  0  0  0
   44.3217   37.2209   43.3051 H   0  0  0  0  0  0  0  0  0  0  0  0
   45.0880   32.4520   41.5167 H   0  0  0  0  0  0  0  0  0  0  0  0
   44.6810   31.7802   39.2088 H   0  0  0  0  0  0  0  0  0  0  0  0
   44.2169   32.3360   36.8148 H   0  0  0  0  0  0  0  0  0  0  0  0
   48.4716   32.2679   34.4704 H   0  0  0  0  0  0  0  0  0  0  0  0
  1  6  1  0
  1 11  1  0
  2  1  1  0
  2  3  1  0
  3  4  1  0
  5  4  1  0
  5  6  1  0
  8  7  2  0
  9  8  1  0
 10 11  1  0
 10  9  2  0
 11 12  2  0
 12  7  1  0
 13  1  1  0
 14 13  2  0
 15 14  1  0
 16 17  1  0
 16 15  2  0
 17 13  1  0
 18 16  1  0
 19 18  2  0
 20 21  1  0
 20 19  1  0
 21 22  2  0
 22 18  1  0
  2 23  1  0
  2 24  1  0
  3 25  1  0
  3 26  1  0
  4 27  1  0
  4 28  1  0
  5 29  1  0
  5 30  1  0
  6 31  1  0
  6 32  1  0
  7 33  1  0
  8 34  1  0
  9 35  1  0
 14 36  1  0
 15 37  1  0
 19 38  1  0
 21 39  1  0
M  ISO  8  23  13  24  13  25  13  26  13  27  13  28  13  29  13  30  13
M  ISO  8  31  13  32  13  33  14  34  14  35  14  36  14  37  14  38  14
M  ISO  1  39  14
M  END
>  <minimizedAffinity>  (1) 
-5.90047407

>  <minimizedRMSD>  (1) 
0.517471015

$$$$
