
     RDKit          3D

 45 48  0  0  0  0  0  0  0  0999 V2000
   47.6370   34.1350   42.1690 C   0  0  0  0  0  0  0  0  0  0  0  0
   48.5240   35.2830   41.7260 C   0  0  0  0  0  0  0  0  0  0  0  0
   49.8400   35.3610   42.3750 C   0  0  0  0  0  0  0  0  0  0  0  0
   50.5440   34.0580   42.5260 C   0  0  0  0  0  0  0  0  0  0  0  0
   49.7000   32.8580   42.1780 C   0  0  0  0  0  0  0  0  0  0  0  0
   48.3560   33.0380   42.8680 C   0  0  0  0  0  0  0  0  0  0  0  0
   45.2590   34.4390   44.9920 C   0  0  0  0  0  0  0  0  0  0  0  0
   44.5350   35.5920   44.6880 C   0  0  0  0  0  0  0  0  0  0  0  0
   44.8690   36.2670   43.5150 C   0  0  0  0  0  0  0  0  0  0  0  0
   45.8710   35.7620   42.7500 N   0  0  0  0  0  0  0  0  0  0  0  0
   46.5590   34.6380   43.0750 C   0  0  0  0  0  0  0  0  0  0  0  0
   46.2270   33.9950   44.2120 N   0  0  0  0  0  0  0  0  0  0  0  0
   47.0100   33.5360   40.9310 C   0  0  0  0  0  0  0  0  0  0  0  0
   45.9040   32.7920   40.6000 C   0  0  0  0  0  0  0  0  0  0  0  0
   45.7150   32.4710   39.3170 C   0  0  0  0  0  0  0  0  0  0  0  0
   46.5750   32.8550   38.3540 C   0  0  0  0  0  0  0  0  0  0  0  0
   47.8360   33.7950   39.3330 S   0  0  0  0  0  0  0  0  0  0  0  0
   46.5910   32.6800   36.9380 N   0  0  0  0  0  0  0  0  0  0  0  0
   45.2410   32.5000   36.4280 C   0  0  0  0  0  0  0  0  0  0  0  0
   45.4380   32.2570   34.9540 C   0  0  0  0  0  0  0  0  0  0  0  0
   46.8650   31.7730   34.8370 C   0  0  0  0  0  0  0  0  0  0  0  0
   47.5580   32.6210   35.9100 C   0  0  0  0  0  0  0  0  0  0  0  0
   48.6872   35.1849   40.6426 H   0  0  0  0  0  0  0  0  0  0  0  0
   47.9924   36.2010   42.0168 H   0  0  0  0  0  0  0  0  0  0  0  0
   50.4779   36.0262   41.7746 H   0  0  0  0  0  0  0  0  0  0  0  0
   49.6591   35.7332   43.3942 H   0  0  0  0  0  0  0  0  0  0  0  0
   51.4252   34.0632   41.8676 H   0  0  0  0  0  0  0  0  0  0  0  0
   50.8086   33.9619   43.5894 H   0  0  0  0  0  0  0  0  0  0  0  0
   49.5595   32.7992   41.0886 H   0  0  0  0  0  0  0  0  0  0  0  0
   50.1873   31.9288   42.5084 H   0  0  0  0  0  0  0  0  0  0  0  0
   48.5090   33.3030   43.9246 H   0  0  0  0  0  0  0  0  0  0  0  0
   47.7728   32.1062   42.8283 H   0  0  0  0  0  0  0  0  0  0  0  0
   45.0159   33.8830   45.9095 H   0  0  0  0  0  0  0  0  0  0  0  0
   43.7326   35.9541   45.3476 H   0  0  0  0  0  0  0  0  0  0  0  0
   44.3363   37.1823   43.2176 H   0  0  0  0  0  0  0  0  0  0  0  0
   45.1911   32.4683   41.3726 H   0  0  0  0  0  0  0  0  0  0  0  0
   44.8322   31.8764   39.0392 H   0  0  0  0  0  0  0  0  0  0  0  0
   44.7546   31.6364   36.9051 H   0  0  0  0  0  0  0  0  0  0  0  0
   44.5925   33.3648   36.6317 H   0  0  0  0  0  0  0  0  0  0  0  0
   44.7369   31.4920   34.5891 H   0  0  0  0  0  0  0  0  0  0  0  0
   45.2521   33.1594   34.3531 H   0  0  0  0  0  0  0  0  0  0  0  0
   46.9454   30.6986   35.0587 H   0  0  0  0  0  0  0  0  0  0  0  0
   47.2960   31.8794   33.8305 H   0  0  0  0  0  0  0  0  0  0  0  0
   48.4810   32.1370   36.2620 H   0  0  0  0  0  0  0  0  0  0  0  0
   47.8680   33.6122   35.5475 H   0  0  0  0  0  0  0  0  0  0  0  0
  1  6  1  0
  1 11  1  0
  2  1  1  0
  2  3  1  0
  3  4  1  0
  5  4  1  0
  5  6  1  0
  8  7  2  0
  9  8  1  0
 10 11  1  0
 10  9  2  0
 11 12  2  0
 12  7  1  0
 13  1  1  0
 14 13  2  0
 15 14  1  0
 16 15  2  0
 16 17  1  0
 17 13  1  0
 18 16  1  0
 19 18  1  0
 20 19  1  0
 21 20  1  0
 21 22  1  0
 22 18  1  0
  2 23  1  0
  2 24  1  0
  3 25  1  0
  3 26  1  0
  4 27  1  0
  4 28  1  0
  5 29  1  0
  5 30  1  0
  6 31  1  0
  6 32  1  0
  7 33  1  0
  8 34  1  0
  9 35  1  0
 14 36  1  0
 15 37  1  0
 19 38  1  0
 19 39  1  0
 20 40  1  0
 20 41  1  0
 21 42  1  0
 21 43  1  0
 22 44  1  0
 22 45  1  0
M  ISO  8  23  13  24  13  25  13  26  13  27  13  28  13  29  13  30  13
M  ISO  8  31  13  32  13  33  14  34  14  35  14  36  14  37  14  38  13
M  ISO  7  39  13  40  13  41  13  42  13  43  13  44  13  45  13
M  END
>  <minimizedAffinity>  (1) 
-5.86534309

>  <minimizedRMSD>  (1) 
0.271189123

$$$$
