
     RDKit          3D

 38 39  0  0  0  0  0  0  0  0999 V2000
   46.4120   32.3510   37.8710 C   0  0  0  0  0  0  0  0  0  0  0  0
   45.8780   34.2870   40.9290 C   0  0  0  0  0  0  0  0  0  0  0  0
   47.1500   34.7040   41.2770 C   0  0  0  0  0  0  0  0  0  0  0  0
   48.2380   34.3300   40.4610 C   0  0  0  0  0  0  0  0  0  0  0  0
   47.9680   33.5680   39.3670 N   0  0  0  0  0  0  0  0  0  0  0  0
   46.7000   33.1800   39.0650 C   0  0  0  0  0  0  0  0  0  0  0  0
   45.6910   33.5420   39.8400 N   0  0  0  0  0  0  0  0  0  0  0  0
   44.7680   34.6770   41.7730 C   0  0  0  0  0  0  0  0  0  0  0  0
   43.7680   35.2640   41.2620 O   0  0  0  0  0  0  0  0  0  0  0  0
   44.8640   34.3730   43.1570 O   0  0  0  0  0  0  0  0  0  0  0  0
   44.7590   35.4370   44.0750 C   0  0  0  0  0  0  0  0  0  0  0  0
   43.4430   35.8560   44.2520 F   0  0  0  0  0  0  0  0  0  0  0  0
   45.2560   35.0320   45.2900 F   0  0  0  0  0  0  0  0  0  0  0  0
   45.4580   36.4950   43.5370 F   0  0  0  0  0  0  0  0  0  0  0  0
   45.4960   31.2140   38.1390 C   0  0  0  0  0  0  0  0  0  0  0  0
   45.8350   33.2320   36.8100 C   0  0  0  0  0  0  0  0  0  0  0  0
   47.7490   31.8220   37.3740 C   0  0  0  0  0  0  0  0  0  0  0  0
   47.9050   31.9590   35.9180 C   0  0  0  0  0  0  0  0  0  0  0  0
   47.3650   30.9900   35.0780 C   0  0  0  0  0  0  0  0  0  0  0  0
   47.6730   31.3920   33.7740 C   0  0  0  0  0  0  0  0  0  0  0  0
   48.3570   32.5360   33.8500 N   0  0  0  0  0  0  0  0  0  0  0  0
   48.4870   32.8590   35.1050 N   0  0  0  0  0  0  0  0  0  0  0  0
   48.8750   33.3040   32.7240 C   0  0  0  0  0  0  0  0  0  0  0  0
   47.3106   35.3175   42.1758 H   0  0  0  0  0  0  0  0  0  0  0  0
   49.2652   34.6425   40.7001 H   0  0  0  0  0  0  0  0  0  0  0  0
   45.3872   31.0790   39.2252 H   0  0  0  0  0  0  0  0  0  0  0  0
   44.5116   31.4237   37.6952 H   0  0  0  0  0  0  0  0  0  0  0  0
   45.9104   30.2968   37.6952 H   0  0  0  0  0  0  0  0  0  0  0  0
   45.2902   34.0638   37.2804 H   0  0  0  0  0  0  0  0  0  0  0  0
   46.6465   33.6323   36.1845 H   0  0  0  0  0  0  0  0  0  0  0  0
   45.1438   32.6481   36.1845 H   0  0  0  0  0  0  0  0  0  0  0  0
   48.5557   32.3824   37.8691 H   0  0  0  0  0  0  0  0  0  0  0  0
   47.7934   30.7496   37.6146 H   0  0  0  0  0  0  0  0  0  0  0  0
   46.8085   30.0900   35.3785 H   0  0  0  0  0  0  0  0  0  0  0  0
   47.4002   30.8603   32.8505 H   0  0  0  0  0  0  0  0  0  0  0  0
   49.4531   34.1611   33.0997 H   0  0  0  0  0  0  0  0  0  0  0  0
   49.5260   32.6629   32.1114 H   0  0  0  0  0  0  0  0  0  0  0  0
   48.0367   33.6674   32.1114 H   0  0  0  0  0  0  0  0  0  0  0  0
  1 15  1  0
  1  6  1  0
  2  3  2  0
  2  8  1  0
  4  3  1  0
  5  4  2  0
  6  5  1  0
  6  7  2  0
  7  2  1  0
  8 10  1  0
  9  8  2  0
 10 11  1  0
 11 12  1  0
 11 13  1  0
 14 11  1  0
 16  1  1  0
 17  1  1  0
 18 17  1  0
 19 18  1  0
 20 21  1  0
 20 19  2  0
 21 22  1  0
 22 18  2  0
 23 21  1  0
  3 24  1  0
  4 25  1  0
 15 26  1  0
 15 27  1  0
 15 28  1  0
 16 29  1  0
 16 30  1  0
 16 31  1  0
 17 32  1  0
 17 33  1  0
 19 34  1  0
 20 35  1  0
 23 36  1  0
 23 37  1  0
 23 38  1  0
M  ISO  8  24  14  25  14  26   8  27   8  28   8  29   8  30   8  31   8
M  ISO  7  32   8  33   8  34  14  35  14  36   8  37   8  38   8
M  END
>  <minimizedAffinity>  (1) 
-4.68603325

>  <minimizedRMSD>  (1) 
1.76980257

$$$$
