
     RDKit          3D

 36 38  0  0  0  0  0  0  0  0999 V2000
   47.5670   34.1890   42.1570 C   0  0  0  0  0  0  0  0  0  0  0  0
   48.4840   35.3130   41.7690 C   0  0  0  0  0  0  0  0  0  0  0  0
   49.8190   35.3000   42.4100 C   0  0  0  0  0  0  0  0  0  0  0  0
   50.4730   33.9740   42.4940 C   0  0  0  0  0  0  0  0  0  0  0  0
   49.5870   32.8240   42.0650 C   0  0  0  0  0  0  0  0  0  0  0  0
   48.2630   33.0160   42.7840 C   0  0  0  0  0  0  0  0  0  0  0  0
   45.2800   34.4160   45.0640 C   0  0  0  0  0  0  0  0  0  0  0  0
   44.5650   35.5780   44.8050 C   0  0  0  0  0  0  0  0  0  0  0  0
   44.8670   36.2860   43.6370 C   0  0  0  0  0  0  0  0  0  0  0  0
   45.8380   35.8030   42.8170 N   0  0  0  0  0  0  0  0  0  0  0  0
   46.5150   34.6610   43.1050 C   0  0  0  0  0  0  0  0  0  0  0  0
   46.2220   33.9710   44.2430 N   0  0  0  0  0  0  0  0  0  0  0  0
   46.9080   33.6780   40.9030 C   0  0  0  0  0  0  0  0  0  0  0  0
   45.7690   32.9810   40.5530 C   0  0  0  0  0  0  0  0  0  0  0  0
   45.5520   32.7230   39.2580 C   0  0  0  0  0  0  0  0  0  0  0  0
   46.4110   33.1230   38.3030 C   0  0  0  0  0  0  0  0  0  0  0  0
   47.7280   33.9910   39.3090 S   0  0  0  0  0  0  0  0  0  0  0  0
   46.4280   32.9870   36.8800 C   0  0  0  0  0  0  0  0  0  0  0  0
   48.6311   35.2691   40.6798 H   0  0  0  0  0  0  0  0  0  0  0  0
   47.9932   36.2347   42.1147 H   0  0  0  0  0  0  0  0  0  0  0  0
   50.4778   35.9669   41.8345 H   0  0  0  0  0  0  0  0  0  0  0  0
   49.6583   35.6238   43.4489 H   0  0  0  0  0  0  0  0  0  0  0  0
   51.3629   33.9853   41.8475 H   0  0  0  0  0  0  0  0  0  0  0  0
   50.7216   33.8075   43.5525 H   0  0  0  0  0  0  0  0  0  0  0  0
   49.4357   32.8454   40.9757 H   0  0  0  0  0  0  0  0  0  0  0  0
   50.0413   31.8539   42.3152 H   0  0  0  0  0  0  0  0  0  0  0  0
   48.4418   33.2135   43.8512 H   0  0  0  0  0  0  0  0  0  0  0  0
   47.6440   32.1107   42.6981 H   0  0  0  0  0  0  0  0  0  0  0  0
   45.0582   33.8467   45.9787 H   0  0  0  0  0  0  0  0  0  0  0  0
   43.7857   35.9306   45.4966 H   0  0  0  0  0  0  0  0  0  0  0  0
   44.3306   37.2133   43.3874 H   0  0  0  0  0  0  0  0  0  0  0  0
   45.0563   32.6455   41.3208 H   0  0  0  0  0  0  0  0  0  0  0  0
   44.6473   32.1692   38.9666 H   0  0  0  0  0  0  0  0  0  0  0  0
   46.5604   31.9278   36.6145 H   0  0  0  0  0  0  0  0  0  0  0  0
   45.4771   33.3529   36.4653 H   0  0  0  0  0  0  0  0  0  0  0  0
   47.2595   33.5757   36.4653 H   0  0  0  0  0  0  0  0  0  0  0  0
  1  6  1  0
  1 11  1  0
  2  1  1  0
  2  3  1  0
  3  4  1  0
  5  4  1  0
  5  6  1  0
  8  7  2  0
  9  8  1  0
 10 11  1  0
 10  9  2  0
 11 12  2  0
 12  7  1  0
 13  1  1  0
 14 13  2  0
 15 14  1  0
 16 15  2  0
 16 17  1  0
 17 13  1  0
 18 16  1  0
  2 19  1  0
  2 20  1  0
  3 21  1  0
  3 22  1  0
  4 23  1  0
  4 24  1  0
  5 25  1  0
  5 26  1  0
  6 27  1  0
  6 28  1  0
  7 29  1  0
  8 30  1  0
  9 31  1  0
 14 32  1  0
 15 33  1  0
 18 34  1  0
 18 35  1  0
 18 36  1  0
M  ISO  8  19  13  20  13  21  13  22  13  23  13  24  13  25  13  26  13
M  ISO  8  27  13  28  13  29  14  30  14  31  14  32  14  33  14  34   8
M  ISO  2  35   8  36   8
M  END
>  <minimizedAffinity>  (1) 
-5.54821682

>  <minimizedRMSD>  (1) 
0.0577538721

$$$$
