
     RDKit          3D

 31 34  0  0  0  0  0  0  0  0999 V2000
   46.7550   33.9550   40.3240 C   0  0  0  0  0  0  0  0  0  0  0  0
   46.7200   33.4900   39.0090 C   0  0  0  0  0  0  0  0  0  0  0  0
   45.4410   33.4290   38.5940 N   0  0  0  0  0  0  0  0  0  0  0  0
   44.6680   33.8410   39.6030 C   0  0  0  0  0  0  0  0  0  0  0  0
   43.2870   33.9640   39.6840 C   0  0  0  0  0  0  0  0  0  0  0  0
   42.7400   34.4230   40.8650 C   0  0  0  0  0  0  0  0  0  0  0  0
   43.4730   34.7740   41.9930 C   0  0  0  0  0  0  0  0  0  0  0  0
   44.8390   34.6290   41.8480 C   0  0  0  0  0  0  0  0  0  0  0  0
   45.4570   34.1800   40.7060 C   0  0  0  0  0  0  0  0  0  0  0  0
   49.5890   35.6640   42.0500 C   0  0  0  0  0  0  0  0  0  0  0  0
   48.4380   35.4660   41.2610 C   0  0  0  0  0  0  0  0  0  0  0  0
   47.9450   34.1650   41.1410 C   0  0  0  0  0  0  0  0  0  0  0  0
   48.5910   33.1580   41.7830 N   0  0  0  0  0  0  0  0  0  0  0  0
   49.6900   33.3850   42.5310 C   0  0  0  0  0  0  0  0  0  0  0  0
   50.1940   34.6220   42.6710 N   0  0  0  0  0  0  0  0  0  0  0  0
   47.9380   33.1410   38.2640 C   0  0  0  0  0  0  0  0  0  0  0  0
   48.6340   31.9540   38.0790 C   0  0  0  0  0  0  0  0  0  0  0  0
   49.7150   32.2820   37.2620 C   0  0  0  0  0  0  0  0  0  0  0  0
   49.6430   33.6030   36.9890 N   0  0  0  0  0  0  0  0  0  0  0  0
   48.5710   34.1260   37.5930 N   0  0  0  0  0  0  0  0  0  0  0  0
   45.1168   33.1205   37.6663 H   0  0  0  0  0  0  0  0  0  0  0  0
   42.6460   33.7024   38.8292 H   0  0  0  0  0  0  0  0  0  0  0  0
   41.6454   34.5180   40.9176 H   0  0  0  0  0  0  0  0  0  0  0  0
   43.0056   35.1359   42.9207 H   0  0  0  0  0  0  0  0  0  0  0  0
   45.4758   34.8910   42.7058 H   0  0  0  0  0  0  0  0  0  0  0  0
   50.0017   36.6773   42.1633 H   0  0  0  0  0  0  0  0  0  0  0  0
   47.9439   36.3091   40.7560 H   0  0  0  0  0  0  0  0  0  0  0  0
   50.1829   32.5411   43.0359 H   0  0  0  0  0  0  0  0  0  0  0  0
   48.3852   30.9644   38.4900 H   0  0  0  0  0  0  0  0  0  0  0  0
   50.4894   31.5880   36.9032 H   0  0  0  0  0  0  0  0  0  0  0  0
   50.3110   34.1266   36.4055 H   0  0  0  0  0  0  0  0  0  0  0  0
  1  9  1  0
  1 12  1  0
  2  1  2  0
  3  2  1  0
  3  4  1  0
  4  5  2  0
  4  9  1  0
  5  6  1  0
  6  7  2  0
  8  7  1  0
  9  8  2  0
 10 15  2  0
 11 10  1  0
 12 11  2  0
 12 13  1  0
 13 14  2  0
 14 15  1  0
 16  2  1  0
 17 16  1  0
 18 17  2  0
 19 18  1  0
 19 20  1  0
 20 16  2  0
  3 21  1  0
  5 22  1  0
  6 23  1  0
  7 24  1  0
  8 25  1  0
 10 26  1  0
 11 27  1  0
 14 28  1  0
 17 29  1  0
 18 30  1  0
 19 31  1  0
M  ISO  8  21   9  22  14  23  14  24  14  25  14  26  14  27  14  28  14
M  ISO  3  29  14  30  14  31   9
M  END
>  <minimizedAffinity>  (1) 
-5.39401293

>  <minimizedRMSD>  (1) 
5.10597038

$$$$
