
     RDKit          3D

 31 34  0  0  0  0  0  0  0  0999 V2000
   44.9250   34.1320   41.5360 C   0  0  0  0  0  0  0  0  0  0  0  0
   46.0200   33.9670   40.7170 C   0  0  0  0  0  0  0  0  0  0  0  0
   45.6180   33.7150   39.4670 N   0  0  0  0  0  0  0  0  0  0  0  0
   44.2780   33.7130   39.4690 C   0  0  0  0  0  0  0  0  0  0  0  0
   43.3710   33.5030   38.4330 C   0  0  0  0  0  0  0  0  0  0  0  0
   42.0320   33.5570   38.7100 C   0  0  0  0  0  0  0  0  0  0  0  0
   41.4920   33.8130   39.9720 C   0  0  0  0  0  0  0  0  0  0  0  0
   42.4390   34.0130   40.9580 C   0  0  0  0  0  0  0  0  0  0  0  0
   43.7870   33.9740   40.7620 C   0  0  0  0  0  0  0  0  0  0  0  0
   44.4890   35.9530   44.7700 C   0  0  0  0  0  0  0  0  0  0  0  0
   44.4930   35.6670   43.4020 C   0  0  0  0  0  0  0  0  0  0  0  0
   44.9250   34.4210   42.9650 C   0  0  0  0  0  0  0  0  0  0  0  0
   45.3340   33.5110   43.9030 N   0  0  0  0  0  0  0  0  0  0  0  0
   45.3180   33.8170   45.2250 C   0  0  0  0  0  0  0  0  0  0  0  0
   44.9040   35.0220   45.6670 N   0  0  0  0  0  0  0  0  0  0  0  0
   47.4530   34.0500   41.1180 C   0  0  0  0  0  0  0  0  0  0  0  0
   48.3720   34.8270   40.2230 C   0  0  0  0  0  0  0  0  0  0  0  0
   48.0100   35.3250   41.6290 C   0  0  0  0  0  0  0  0  0  0  0  0
   46.2266   33.5523   38.6521 H   0  0  0  0  0  0  0  0  0  0  0  0
   43.7243   33.2977   37.4117 H   0  0  0  0  0  0  0  0  0  0  0  0
   41.3312   33.3866   37.8794 H   0  0  0  0  0  0  0  0  0  0  0  0
   40.4096   33.8520   40.1640 H   0  0  0  0  0  0  0  0  0  0  0  0
   42.0782   34.2189   41.9765 H   0  0  0  0  0  0  0  0  0  0  0  0
   44.1478   36.9377   45.1219 H   0  0  0  0  0  0  0  0  0  0  0  0
   44.1567   36.4227   42.6768 H   0  0  0  0  0  0  0  0  0  0  0  0
   45.6509   33.0636   45.9541 H   0  0  0  0  0  0  0  0  0  0  0  0
   47.4321   33.0267   41.5211 H   0  0  0  0  0  0  0  0  0  0  0  0
   49.3849   34.4543   40.0108 H   0  0  0  0  0  0  0  0  0  0  0  0
   48.3162   35.2380   39.2042 H   0  0  0  0  0  0  0  0  0  0  0  0
   47.3571   36.2017   41.7521 H   0  0  0  0  0  0  0  0  0  0  0  0
   48.5794   35.6259   42.5208 H   0  0  0  0  0  0  0  0  0  0  0  0
  1 12  1  0
  2 16  1  0
  2  1  2  0
  3  4  1  0
  3  2  1  0
  4  9  2  0
  5  6  2  0
  5  4  1  0
  6  7  1  0
  7  8  2  0
  9  8  1  0
  9  1  1  0
 10 15  2  0
 11 10  1  0
 12 11  2  0
 12 13  1  0
 13 14  2  0
 14 15  1  0
 16 18  1  0
 17 16  1  0
 17 18  1  0
  3 19  1  0
  5 20  1  0
  6 21  1  0
  7 22  1  0
  8 23  1  0
 10 24  1  0
 11 25  1  0
 14 26  1  0
 16 27  1  0
 17 28  1  0
 17 29  1  0
 18 30  1  0
 18 31  1  0
M  ISO  8  19   9  20  14  21  14  22  14  23  14  24  14  25  14  26  14
M  ISO  5  27  13  28  13  29  13  30  13  31  13
M  END
>  <minimizedAffinity>  (1) 
-5.33643246

>  <minimizedRMSD>  (1) 
3.14016151

$$$$
