
     RDKit          3D

 44 48  0  0  0  0  0  0  0  0999 V2000
   46.7090   34.5000   41.3430 C   0  0  0  0  0  0  0  0  0  0  0  0
   48.0150   34.7960   40.9950 C   0  0  0  0  0  0  0  0  0  0  0  0
   48.2620   34.3760   39.7530 N   0  0  0  0  0  0  0  0  0  0  0  0
   47.1390   33.8090   39.2820 C   0  0  0  0  0  0  0  0  0  0  0  0
   46.8710   33.2230   38.0550 C   0  0  0  0  0  0  0  0  0  0  0  0
   45.6150   32.7140   37.8360 C   0  0  0  0  0  0  0  0  0  0  0  0
   44.5700   32.7380   38.7610 C   0  0  0  0  0  0  0  0  0  0  0  0
   44.9000   33.3350   39.9600 C   0  0  0  0  0  0  0  0  0  0  0  0
   46.1260   33.8650   40.2540 C   0  0  0  0  0  0  0  0  0  0  0  0
   44.7750   36.2860   43.9870 C   0  0  0  0  0  0  0  0  0  0  0  0
   45.4180   36.0250   42.7640 C   0  0  0  0  0  0  0  0  0  0  0  0
   46.0380   34.7890   42.6080 C   0  0  0  0  0  0  0  0  0  0  0  0
   45.9970   33.8940   43.6380 N   0  0  0  0  0  0  0  0  0  0  0  0
   45.3630   34.1970   44.8010 C   0  0  0  0  0  0  0  0  0  0  0  0
   44.7540   35.3860   44.9800 N   0  0  0  0  0  0  0  0  0  0  0  0
   48.9700   35.4780   41.8960 C   0  0  0  0  0  0  0  0  0  0  0  0
   49.4110   34.5700   43.0120 C   0  0  0  0  0  0  0  0  0  0  0  0
   50.1530   33.3780   42.5260 C   0  0  0  0  0  0  0  0  0  0  0  0
   51.4000   33.1820   41.9650 C   0  0  0  0  0  0  0  0  0  0  0  0
   51.5650   31.8630   41.7080 N   0  0  0  0  0  0  0  0  0  0  0  0
   50.4590   31.1770   42.0840 C   0  0  0  0  0  0  0  0  0  0  0  0
   50.1650   29.8230   42.0190 C   0  0  0  0  0  0  0  0  0  0  0  0
   48.9320   29.4410   42.4930 C   0  0  0  0  0  0  0  0  0  0  0  0
   47.9920   30.3020   43.0150 C   0  0  0  0  0  0  0  0  0  0  0  0
   48.3770   31.6340   43.0390 C   0  0  0  0  0  0  0  0  0  0  0  0
   49.5950   32.1020   42.5840 C   0  0  0  0  0  0  0  0  0  0  0  0
   49.1538   34.4697   39.2462 H   0  0  0  0  0  0  0  0  0  0  0  0
   47.6455   33.1671   37.2759 H   0  0  0  0  0  0  0  0  0  0  0  0
   45.4171   32.2523   36.8574 H   0  0  0  0  0  0  0  0  0  0  0  0
   43.5744   32.3192   38.5529 H   0  0  0  0  0  0  0  0  0  0  0  0
   44.1213   33.3886   40.7351 H   0  0  0  0  0  0  0  0  0  0  0  0
   44.2756   37.2552   44.1327 H   0  0  0  0  0  0  0  0  0  0  0  0
   45.4305   36.7729   41.9575 H   0  0  0  0  0  0  0  0  0  0  0  0
   45.3464   33.4560   45.6138 H   0  0  0  0  0  0  0  0  0  0  0  0
   49.8519   35.7874   41.3158 H   0  0  0  0  0  0  0  0  0  0  0  0
   48.4685   36.3522   42.3367 H   0  0  0  0  0  0  0  0  0  0  0  0
   50.0647   35.1384   43.6899 H   0  0  0  0  0  0  0  0  0  0  0  0
   48.5059   34.2106   43.5235 H   0  0  0  0  0  0  0  0  0  0  0  0
   52.1395   33.9702   41.7602 H   0  0  0  0  0  0  0  0  0  0  0  0
   52.4069   31.4432   41.2886 H   0  0  0  0  0  0  0  0  0  0  0  0
   50.8799   29.0938   41.6102 H   0  0  0  0  0  0  0  0  0  0  0  0
   48.6782   28.3715   42.4524 H   0  0  0  0  0  0  0  0  0  0  0  0
   47.0136   29.9601   43.3836 H   0  0  0  0  0  0  0  0  0  0  0  0
   47.6655   32.3668   43.4474 H   0  0  0  0  0  0  0  0  0  0  0  0
  1 12  1  0
  2  1  2  0
  2 16  1  0
  3  2  1  0
  4  3  1  0
  4  9  2  0
  5  4  1  0
  6  5  2  0
  6  7  1  0
  7  8  2  0
  8  9  1  0
  9  1  1  0
 10 15  2  0
 11 10  1  0
 12 11  2  0
 12 13  1  0
 13 14  2  0
 14 15  1  0
 16 17  1  0
 18 26  1  0
 18 17  1  0
 19 18  2  0
 20 19  1  0
 20 21  1  0
 21 26  2  0
 22 21  1  0
 22 23  2  0
 23 24  1  0
 24 25  2  0
 26 25  1  0
  3 27  1  0
  5 28  1  0
  6 29  1  0
  7 30  1  0
  8 31  1  0
 10 32  1  0
 11 33  1  0
 14 34  1  0
 16 35  1  0
 16 36  1  0
 17 37  1  0
 17 38  1  0
 19 39  1  0
 20 40  1  0
 22 41  1  0
 23 42  1  0
 24 43  1  0
 25 44  1  0
M  ISO  8  27   9  28  14  29  14  30  14  31  14  32  14  33  14  34  14
M  ISO  8  35   8  36   8  37   8  38   8  39  14  40   9  41  14  42  14
M  ISO  2  43  14  44  14
M  END
>  <minimizedAffinity>  (1) 
-5.81569004

>  <minimizedRMSD>  (1) 
2.0965631

$$$$
