
     RDKit          3D

 37 40  0  0  0  0  0  0  0  0999 V2000
   46.8610   34.4920   41.2560 C   0  0  0  0  0  0  0  0  0  0  0  0
   48.1470   34.8450   40.9260 C   0  0  0  0  0  0  0  0  0  0  0  0
   48.4170   34.4660   39.6770 N   0  0  0  0  0  0  0  0  0  0  0  0
   47.3100   33.8690   39.1930 C   0  0  0  0  0  0  0  0  0  0  0  0
   47.0720   33.3030   37.9500 C   0  0  0  0  0  0  0  0  0  0  0  0
   45.8390   32.7520   37.7110 C   0  0  0  0  0  0  0  0  0  0  0  0
   44.8000   32.7150   38.6240 C   0  0  0  0  0  0  0  0  0  0  0  0
   45.1010   33.2970   39.8500 C   0  0  0  0  0  0  0  0  0  0  0  0
   46.3020   33.8650   40.1650 C   0  0  0  0  0  0  0  0  0  0  0  0
   44.8150   36.1220   43.9310 C   0  0  0  0  0  0  0  0  0  0  0  0
   45.4740   35.9040   42.7050 C   0  0  0  0  0  0  0  0  0  0  0  0
   46.1730   34.7230   42.5270 C   0  0  0  0  0  0  0  0  0  0  0  0
   46.1930   33.8140   43.5540 N   0  0  0  0  0  0  0  0  0  0  0  0
   45.5450   34.0620   44.7180 C   0  0  0  0  0  0  0  0  0  0  0  0
   44.8600   35.2010   44.9150 N   0  0  0  0  0  0  0  0  0  0  0  0
   49.0790   35.5380   41.8300 C   0  0  0  0  0  0  0  0  0  0  0  0
   49.5740   34.6330   42.9420 C   0  0  0  0  0  0  0  0  0  0  0  0
   49.9770   33.3470   42.4780 N   0  0  0  0  0  0  0  0  0  0  0  0
   51.1280   33.0610   41.8490 N   0  0  0  0  0  0  0  0  0  0  0  0
   51.1670   31.7500   41.5600 C   0  0  0  0  0  0  0  0  0  0  0  0
   50.0010   31.1470   42.0150 C   0  0  0  0  0  0  0  0  0  0  0  0
   49.2800   32.1980   42.5870 C   0  0  0  0  0  0  0  0  0  0  0  0
   49.3059   34.6037   39.1753 H   0  0  0  0  0  0  0  0  0  0  0  0
   47.8525   33.2960   37.1749 H   0  0  0  0  0  0  0  0  0  0  0  0
   45.6632   32.3067   36.7206 H   0  0  0  0  0  0  0  0  0  0  0  0
   43.8219   32.2647   38.3995 H   0  0  0  0  0  0  0  0  0  0  0  0
   44.3162   33.3002   40.6208 H   0  0  0  0  0  0  0  0  0  0  0  0
   44.2561   37.0564   44.0877 H   0  0  0  0  0  0  0  0  0  0  0  0
   45.4337   36.6578   41.9049 H   0  0  0  0  0  0  0  0  0  0  0  0
   45.5807   33.3120   45.5218 H   0  0  0  0  0  0  0  0  0  0  0  0
   49.9433   35.8892   41.2472 H   0  0  0  0  0  0  0  0  0  0  0  0
   48.5409   36.3789   42.2918 H   0  0  0  0  0  0  0  0  0  0  0  0
   50.4345   35.1151   43.4289 H   0  0  0  0  0  0  0  0  0  0  0  0
   48.7371   34.4827   43.6399 H   0  0  0  0  0  0  0  0  0  0  0  0
   51.9914   31.2353   41.0448 H   0  0  0  0  0  0  0  0  0  0  0  0
   49.7125   30.0880   41.9419 H   0  0  0  0  0  0  0  0  0  0  0  0
   48.2900   32.1023   43.0569 H   0  0  0  0  0  0  0  0  0  0  0  0
  1 12  1  0
  2  1  2  0
  2 16  1  0
  3  2  1  0
  4  3  1  0
  4  9  2  0
  5  4  1  0
  6  5  2  0
  6  7  1  0
  7  8  2  0
  8  9  1  0
  9  1  1  0
 10 15  2  0
 11 10  1  0
 12 11  2  0
 12 13  1  0
 13 14  2  0
 14 15  1  0
 16 17  1  0
 18 22  1  0
 18 17  1  0
 19 18  1  0
 20 19  2  0
 20 21  1  0
 21 22  2  0
  3 23  1  0
  5 24  1  0
  6 25  1  0
  7 26  1  0
  8 27  1  0
 10 28  1  0
 11 29  1  0
 14 30  1  0
 16 31  1  0
 16 32  1  0
 17 33  1  0
 17 34  1  0
 20 35  1  0
 21 36  1  0
 22 37  1  0
M  ISO  8  23   9  24  14  25  14  26  14  27  14  28  14  29  14  30  14
M  ISO  7  31   8  32   8  33   8  34   8  35  14  36  14  37  14
M  END
>  <minimizedAffinity>  (1) 
-5.56702662

>  <minimizedRMSD>  (1) 
1.09677196

$$$$
