
     RDKit          3D

 47 51  0  0  1  0  0  0  0  0999 V2000
   46.9980   34.5320   41.3150 C   0  0  0  0  0  0  0  0  0  0  0  0
   48.2710   34.9810   41.0020 C   0  0  0  0  0  0  0  0  0  0  0  0
   48.5540   34.7000   39.7370 N   0  0  0  0  0  0  0  0  0  0  0  0
   47.4830   34.0730   39.2150 C   0  0  0  0  0  0  0  0  0  0  0  0
   47.2470   33.5660   37.9400 C   0  0  0  0  0  0  0  0  0  0  0  0
   46.0480   32.9640   37.6750 C   0  0  0  0  0  0  0  0  0  0  0  0
   45.0280   32.8180   38.5950 C   0  0  0  0  0  0  0  0  0  0  0  0
   45.2980   33.3300   39.8400 C   0  0  0  0  0  0  0  0  0  0  0  0
   46.4810   33.9480   40.1800 C   0  0  0  0  0  0  0  0  0  0  0  0
   44.8000   35.8460   44.0310 C   0  0  0  0  0  0  0  0  0  0  0  0
   45.4580   35.7360   42.7960 C   0  0  0  0  0  0  0  0  0  0  0  0
   46.3110   34.6470   42.6070 C   0  0  0  0  0  0  0  0  0  0  0  0
   46.4800   33.7320   43.6120 N   0  0  0  0  0  0  0  0  0  0  0  0
   45.8190   33.8900   44.7830 C   0  0  0  0  0  0  0  0  0  0  0  0
   44.9890   34.9230   45.0080 N   0  0  0  0  0  0  0  0  0  0  0  0
   49.1590   35.6670   41.9550 C   0  0  0  0  0  0  0  0  0  0  0  0
   50.0700   34.7040   42.6760 C   0  0  0  0  0  0  0  0  0  0  0  0
   50.3250   33.4190   41.9230 C   0  0  1  0  0  0  0  0  0  0  0  0
   50.9380   32.2640   42.5510 C   0  0  0  0  0  0  0  0  0  0  0  0
   49.4610   32.2400   42.3780 C   0  0  2  0  0  0  0  0  0  0  0  0
   48.8060   31.3960   41.4320 N   0  0  0  0  0  0  0  0  0  0  0  0
   47.6840   30.6880   41.7430 C   0  0  0  0  0  0  0  0  0  0  0  0
   47.0190   29.8670   40.8760 C   0  0  0  0  0  0  0  0  0  0  0  0
   47.5000   29.7340   39.6000 C   0  0  0  0  0  0  0  0  0  0  0  0
   46.9280   28.9990   38.7780 O   0  0  0  0  0  0  0  0  0  0  0  0
   48.6100   30.4240   39.2650 N   0  0  0  0  0  0  0  0  0  0  0  0
   49.2320   31.2300   40.1760 C   0  0  0  0  0  0  0  0  0  0  0  0
   50.2380   31.8130   39.7600 O   0  0  0  0  0  0  0  0  0  0  0  0
   49.4314   34.9208   39.2447 H   0  0  0  0  0  0  0  0  0  0  0  0
   48.0146   33.6485   37.1564 H   0  0  0  0  0  0  0  0  0  0  0  0
   45.8849   32.5696   36.6612 H   0  0  0  0  0  0  0  0  0  0  0  0
   44.0736   32.3295   38.3492 H   0  0  0  0  0  0  0  0  0  0  0  0
   44.5214   33.2411   40.6139 H   0  0  0  0  0  0  0  0  0  0  0  0
   44.1211   36.6928   44.2097 H   0  0  0  0  0  0  0  0  0  0  0  0
   45.3066   36.4833   42.0031 H   0  0  0  0  0  0  0  0  0  0  0  0
   45.9666   33.1457   45.5794 H   0  0  0  0  0  0  0  0  0  0  0  0
   49.7749   36.3942   41.4056 H   0  0  0  0  0  0  0  0  0  0  0  0
   48.5291   36.1649   42.7069 H   0  0  0  0  0  0  0  0  0  0  0  0
   51.0356   35.2027   42.8462 H   0  0  0  0  0  0  0  0  0  0  0  0
   49.5646   34.4288   43.6135 H   0  0  0  0  0  0  0  0  0  0  0  0
   50.5597   33.9601   40.9945 H   0  0  0  0  0  0  0  0  0  0  0  0
   51.5652   31.5893   41.9499 H   0  0  0  0  0  0  0  0  0  0  0  0
   51.6052   32.1325   43.4156 H   0  0  0  0  0  0  0  0  0  0  0  0
   48.5972   32.0868   43.0416 H   0  0  0  0  0  0  0  0  0  0  0  0
   47.2854   30.7840   42.7637 H   0  0  0  0  0  0  0  0  0  0  0  0
   46.1170   29.3247   41.1958 H   0  0  0  0  0  0  0  0  0  0  0  0
   48.9925   30.3422   38.3122 H   0  0  0  0  0  0  0  0  0  0  0  0
  1 12  1  0
  2  1  2  0
  2 16  1  0
  3  2  1  0
  4  3  1  0
  4  9  2  0
  5  4  1  0
  6  5  2  0
  6  7  1  0
  7  8  2  0
  8  9  1  0
  9  1  1  0
 10 15  2  0
 11 10  1  0
 12 11  2  0
 12 13  1  0
 13 14  2  0
 14 15  1  0
 16 17  1  0
 18 20  1  0
 18 19  1  0
 18 17  1  0
 20 19  1  0
 21 22  1  0
 21 20  1  0
 23 22  2  0
 24 23  1  0
 25 24  2  0
 26 24  1  0
 26 27  1  0
 27 21  1  0
 28 27  2  0
  3 29  1  0
  5 30  1  0
  6 31  1  0
  7 32  1  0
  8 33  1  0
 10 34  1  0
 11 35  1  0
 14 36  1  0
 16 37  1  0
 16 38  1  0
 17 39  1  0
 17 40  1  0
 18 41  1  6
 19 42  1  0
 19 43  1  0
 20 44  1  1
 22 45  1  0
 23 46  1  0
 26 47  1  0
M  ISO  8  29   9  30  14  31  14  32  14  33  14  34  14  35  14  36  14
M  ISO  8  37   8  38   8  39   8  40   8  41  13  42  13  43  13  44  13
M  ISO  3  45  14  46  14  47   9
M  END
>  <minimizedAffinity>  (1) 
-5.96495152

>  <minimizedRMSD>  (1) 
0.450161308

$$$$
