
     RDKit          3D

 48 52  0  0  1  0  0  0  0  0999 V2000
   46.8050   34.5370   41.3660 C   0  0  0  0  0  0  0  0  0  0  0  0
   48.0840   34.9260   40.9820 C   0  0  0  0  0  0  0  0  0  0  0  0
   48.3290   34.5650   39.7360 N   0  0  0  0  0  0  0  0  0  0  0  0
   47.2220   33.9390   39.2890 C   0  0  0  0  0  0  0  0  0  0  0  0
   46.9460   33.3620   38.0490 C   0  0  0  0  0  0  0  0  0  0  0  0
   45.7320   32.7800   37.8430 C   0  0  0  0  0  0  0  0  0  0  0  0
   44.7300   32.7130   38.7830 C   0  0  0  0  0  0  0  0  0  0  0  0
   45.0500   33.2970   39.9980 C   0  0  0  0  0  0  0  0  0  0  0  0
   46.2440   33.8970   40.2740 C   0  0  0  0  0  0  0  0  0  0  0  0
   44.7320   36.0680   44.0610 C   0  0  0  0  0  0  0  0  0  0  0  0
   45.3580   35.8790   42.8190 C   0  0  0  0  0  0  0  0  0  0  0  0
   46.1480   34.7430   42.6590 C   0  0  0  0  0  0  0  0  0  0  0  0
   46.2890   33.8630   43.6980 N   0  0  0  0  0  0  0  0  0  0  0  0
   45.6560   34.1050   44.8740 C   0  0  0  0  0  0  0  0  0  0  0  0
   44.8830   35.1970   45.0620 N   0  0  0  0  0  0  0  0  0  0  0  0
   49.0180   35.6480   41.8780 C   0  0  0  0  0  0  0  0  0  0  0  0
   49.9490   34.7150   42.5860 C   0  0  0  0  0  0  0  0  0  0  0  0
   50.1620   33.4010   41.8990 C   0  0  1  0  0  0  0  0  0  0  0  0
   51.0930   32.3800   42.3590 C   0  0  0  0  0  0  0  0  0  0  0  0
   49.6550   32.1740   42.7070 C   0  0  2  0  0  0  0  0  0  0  0  0
   49.0080   31.1850   42.0380 O   0  0  0  0  0  0  0  0  0  0  0  0
   47.7240   30.8060   42.3840 C   0  0  0  0  0  0  0  0  0  0  0  0
   46.5970   30.5400   41.6360 C   0  0  0  0  0  0  0  0  0  0  0  0
   45.4250   30.1760   42.2620 C   0  0  0  0  0  0  0  0  0  0  0  0
   45.3210   30.0620   43.6280 C   0  0  0  0  0  0  0  0  0  0  0  0
   46.4370   30.3240   44.3940 C   0  0  0  0  0  0  0  0  0  0  0  0
   47.6370   30.6960   43.7770 C   0  0  0  0  0  0  0  0  0  0  0  0
   49.1977   34.7298   39.2077 H   0  0  0  0  0  0  0  0  0  0  0  0
   47.6995   33.3770   37.2478 H   0  0  0  0  0  0  0  0  0  0  0  0
   45.5395   32.3326   36.8567 H   0  0  0  0  0  0  0  0  0  0  0  0
   43.7581   32.2367   38.5869 H   0  0  0  0  0  0  0  0  0  0  0  0
   44.2906   33.2755   40.7935 H   0  0  0  0  0  0  0  0  0  0  0  0
   44.1011   36.9560   44.2137 H   0  0  0  0  0  0  0  0  0  0  0  0
   45.2292   36.6027   42.0006 H   0  0  0  0  0  0  0  0  0  0  0  0
   45.7762   33.3891   45.7005 H   0  0  0  0  0  0  0  0  0  0  0  0
   49.6110   36.3542   41.2783 H   0  0  0  0  0  0  0  0  0  0  0  0
   48.4216   36.1744   42.6377 H   0  0  0  0  0  0  0  0  0  0  0  0
   50.9250   35.2131   42.6827 H   0  0  0  0  0  0  0  0  0  0  0  0
   49.4814   34.4863   43.5551 H   0  0  0  0  0  0  0  0  0  0  0  0
   50.0317   33.8687   40.9120 H   0  0  0  0  0  0  0  0  0  0  0  0
   51.5713   31.7152   41.6246 H   0  0  0  0  0  0  0  0  0  0  0  0
   52.0178   32.4126   42.9537 H   0  0  0  0  0  0  0  0  0  0  0  0
   49.0593   32.0280   43.6202 H   0  0  0  0  0  0  0  0  0  0  0  0
   46.6335   30.6184   40.5394 H   0  0  0  0  0  0  0  0  0  0  0  0
   44.5383   29.9686   41.6450 H   0  0  0  0  0  0  0  0  0  0  0  0
   44.3708   29.7690   44.0983 H   0  0  0  0  0  0  0  0  0  0  0  0
   46.3843   30.2407   45.4896 H   0  0  0  0  0  0  0  0  0  0  0  0
   48.5231   30.9046   44.3945 H   0  0  0  0  0  0  0  0  0  0  0  0
  1 12  1  0
  2  1  2  0
  2 16  1  0
  3  2  1  0
  4  3  1  0
  4  9  2  0
  5  4  1  0
  6  5  2  0
  6  7  1  0
  7  8  2  0
  8  9  1  0
  9  1  1  0
 10 15  2  0
 11 10  1  0
 12 11  2  0
 12 13  1  0
 13 14  2  0
 14 15  1  0
 16 17  1  0
 18 19  1  0
 18 17  1  0
 18 20  1  0
 19 20  1  0
 21 22  1  0
 21 20  1  0
 22 27  2  0
 23 24  2  0
 23 22  1  0
 24 25  1  0
 25 26  2  0
 27 26  1  0
  3 28  1  0
  5 29  1  0
  6 30  1  0
  7 31  1  0
  8 32  1  0
 10 33  1  0
 11 34  1  0
 14 35  1  0
 16 36  1  0
 16 37  1  0
 17 38  1  0
 17 39  1  0
 18 40  1  6
 19 41  1  0
 19 42  1  0
 20 43  1  1
 23 44  1  0
 24 45  1  0
 25 46  1  0
 26 47  1  0
 27 48  1  0
M  ISO  8  28   9  29  14  30  14  31  14  32  14  33  14  34  14  35  14
M  ISO  8  36   8  37   8  38   8  39   8  40  13  41  13  42  13  43  13
M  ISO  5  44  14  45  14  46  14  47  14  48  14
M  END
>  <minimizedAffinity>  (1) 
-5.587924

>  <minimizedRMSD>  (1) 
0.590731323

$$$$
