
     RDKit          3D

 45 49  0  0  1  0  0  0  0  0999 V2000
   46.9220   34.5070   41.3230 C   0  0  0  0  0  0  0  0  0  0  0  0
   48.1970   34.9250   40.9630 C   0  0  0  0  0  0  0  0  0  0  0  0
   48.4570   34.6190   39.7060 N   0  0  0  0  0  0  0  0  0  0  0  0
   47.3530   33.9960   39.2290 C   0  0  0  0  0  0  0  0  0  0  0  0
   47.1010   33.4680   37.9610 C   0  0  0  0  0  0  0  0  0  0  0  0
   45.8910   32.8810   37.7270 C   0  0  0  0  0  0  0  0  0  0  0  0
   44.8850   32.7670   38.6640 C   0  0  0  0  0  0  0  0  0  0  0  0
   45.1900   33.3020   39.8900 C   0  0  0  0  0  0  0  0  0  0  0  0
   46.3740   33.9060   40.2060 C   0  0  0  0  0  0  0  0  0  0  0  0
   44.7830   35.8780   44.0530 C   0  0  0  0  0  0  0  0  0  0  0  0
   45.4160   35.7560   42.7940 C   0  0  0  0  0  0  0  0  0  0  0  0
   46.2560   34.6550   42.6170 C   0  0  0  0  0  0  0  0  0  0  0  0
   46.4340   33.7620   43.6300 N   0  0  0  0  0  0  0  0  0  0  0  0
   45.7950   33.9360   44.8200 C   0  0  0  0  0  0  0  0  0  0  0  0
   44.9730   34.9900   45.0280 N   0  0  0  0  0  0  0  0  0  0  0  0
   49.1240   35.6270   41.9010 C   0  0  0  0  0  0  0  0  0  0  0  0
   49.9580   34.6630   42.6790 C   0  0  0  0  0  0  0  0  0  0  0  0
   50.3110   33.3980   41.9310 C   0  0  1  0  0  0  0  0  0  0  0  0
   51.0530   32.2870   42.5280 C   0  0  0  0  0  0  0  0  0  0  0  0
   49.5770   32.1450   42.4520 C   0  0  2  0  0  0  0  0  0  0  0  0
   49.0930   31.2580   41.5360 O   0  0  0  0  0  0  0  0  0  0  0  0
   47.8030   30.7800   41.4040 C   0  0  0  0  0  0  0  0  0  0  0  0
   47.0940   30.1200   40.4140 C   0  0  0  0  0  0  0  0  0  0  0  0
   45.8540   29.9130   40.8740 N   0  0  0  0  0  0  0  0  0  0  0  0
   45.7760   30.4190   42.1080 C   0  0  0  0  0  0  0  0  0  0  0  0
   46.9580   30.9580   42.4630 N   0  0  0  0  0  0  0  0  0  0  0  0
   49.3267   34.8150   39.1901 H   0  0  0  0  0  0  0  0  0  0  0  0
   47.8611   33.5239   37.1679 H   0  0  0  0  0  0  0  0  0  0  0  0
   45.7056   32.4711   36.7232 H   0  0  0  0  0  0  0  0  0  0  0  0
   43.9193   32.2874   38.4464 H   0  0  0  0  0  0  0  0  0  0  0  0
   44.4242   33.2400   40.6772 H   0  0  0  0  0  0  0  0  0  0  0  0
   44.1134   36.7321   44.2327 H   0  0  0  0  0  0  0  0  0  0  0  0
   45.2543   36.4927   41.9933 H   0  0  0  0  0  0  0  0  0  0  0  0
   45.9503   33.2054   45.6276 H   0  0  0  0  0  0  0  0  0  0  0  0
   49.7877   36.2847   41.3205 H   0  0  0  0  0  0  0  0  0  0  0  0
   48.5174   36.2069   42.6122 H   0  0  0  0  0  0  0  0  0  0  0  0
   50.8935   35.1677   42.9621 H   0  0  0  0  0  0  0  0  0  0  0  0
   49.3563   34.3568   43.5475 H   0  0  0  0  0  0  0  0  0  0  0  0
   50.4638   33.9529   40.9936 H   0  0  0  0  0  0  0  0  0  0  0  0
   51.6908   31.6574   41.8902 H   0  0  0  0  0  0  0  0  0  0  0  0
   51.7812   32.2149   43.3493 H   0  0  0  0  0  0  0  0  0  0  0  0
   48.7552   31.9553   43.1582 H   0  0  0  0  0  0  0  0  0  0  0  0
   47.4799   29.8203   39.4285 H   0  0  0  0  0  0  0  0  0  0  0  0
   44.8772   30.3984   42.7418 H   0  0  0  0  0  0  0  0  0  0  0  0
   47.1815   31.4154   43.3584 H   0  0  0  0  0  0  0  0  0  0  0  0
  1 12  1  0
  2  1  2  0
  2 16  1  0
  3  2  1  0
  4  3  1  0
  4  9  2  0
  5  4  1  0
  6  5  2  0
  6  7  1  0
  7  8  2  0
  8  9  1  0
  9  1  1  0
 10 15  2  0
 11 10  1  0
 12 11  2  0
 12 13  1  0
 13 14  2  0
 14 15  1  0
 16 17  1  0
 18 20  1  0
 18 19  1  0
 18 17  1  0
 20 19  1  0
 21 20  1  0
 22 21  1  0
 22 26  1  0
 23 24  1  0
 23 22  2  0
 24 25  2  0
 25 26  1  0
  3 27  1  0
  5 28  1  0
  6 29  1  0
  7 30  1  0
  8 31  1  0
 10 32  1  0
 11 33  1  0
 14 34  1  0
 16 35  1  0
 16 36  1  0
 17 37  1  0
 17 38  1  0
 18 39  1  6
 19 40  1  0
 19 41  1  0
 20 42  1  1
 23 43  1  0
 25 44  1  0
 26 45  1  0
M  ISO  8  27   9  28  14  29  14  30  14  31  14  32  14  33  14  34  14
M  ISO  8  35   8  36   8  37   8  38   8  39  13  40  13  41  13  42  13
M  ISO  3  43  14  44  14  45   9
M  END
>  <minimizedAffinity>  (1) 
-5.45083523

>  <minimizedRMSD>  (1) 
0.560525596

$$$$
