
     RDKit          3D

 47 51  0  0  1  0  0  0  0  0999 V2000
   46.8100   34.5150   41.3810 C   0  0  0  0  0  0  0  0  0  0  0  0
   48.0900   34.9040   40.9770 C   0  0  0  0  0  0  0  0  0  0  0  0
   48.3220   34.5510   39.7360 N   0  0  0  0  0  0  0  0  0  0  0  0
   47.2120   33.9270   39.2930 C   0  0  0  0  0  0  0  0  0  0  0  0
   46.9420   33.3670   38.0420 C   0  0  0  0  0  0  0  0  0  0  0  0
   45.7180   32.7940   37.8500 C   0  0  0  0  0  0  0  0  0  0  0  0
   44.7140   32.7200   38.8060 C   0  0  0  0  0  0  0  0  0  0  0  0
   45.0390   33.2860   40.0130 C   0  0  0  0  0  0  0  0  0  0  0  0
   46.2410   33.8820   40.2910 C   0  0  0  0  0  0  0  0  0  0  0  0
   44.7320   36.0130   44.0910 C   0  0  0  0  0  0  0  0  0  0  0  0
   45.3470   35.8410   42.8270 C   0  0  0  0  0  0  0  0  0  0  0  0
   46.1670   34.7150   42.6780 C   0  0  0  0  0  0  0  0  0  0  0  0
   46.3410   33.8470   43.7230 N   0  0  0  0  0  0  0  0  0  0  0  0
   45.7230   34.0680   44.9100 C   0  0  0  0  0  0  0  0  0  0  0  0
   44.9220   35.1430   45.0970 N   0  0  0  0  0  0  0  0  0  0  0  0
   49.0370   35.6290   41.8690 C   0  0  0  0  0  0  0  0  0  0  0  0
   49.9470   34.6830   42.5810 C   0  0  0  0  0  0  0  0  0  0  0  0
   50.1320   33.3500   41.9070 C   0  0  1  0  0  0  0  0  0  0  0  0
   50.9720   32.2740   42.4440 C   0  0  0  0  0  0  0  0  0  0  0  0
   49.5090   32.1950   42.6950 C   0  0  2  0  0  0  0  0  0  0  0  0
   48.8350   31.2000   42.0070 O   0  0  0  0  0  0  0  0  0  0  0  0
   47.5530   30.7780   42.2140 C   0  0  0  0  0  0  0  0  0  0  0  0
   46.7560   30.5120   41.2860 O   0  0  0  0  0  0  0  0  0  0  0  0
   46.8570   30.5490   43.5240 C   0  0  0  0  0  0  0  0  0  0  0  0
   45.6030   30.0360   43.7670 C   0  0  0  0  0  0  0  0  0  0  0  0
   45.3760   30.0050   45.0890 N   0  0  0  0  0  0  0  0  0  0  0  0
   46.4430   30.4830   45.7460 C   0  0  0  0  0  0  0  0  0  0  0  0
   47.3000   30.7940   44.7720 N   0  0  0  0  0  0  0  0  0  0  0  0
   49.1866   34.7183   39.2018 H   0  0  0  0  0  0  0  0  0  0  0  0
   47.6918   33.3871   37.2374 H   0  0  0  0  0  0  0  0  0  0  0  0
   45.5113   32.3573   36.8618 H   0  0  0  0  0  0  0  0  0  0  0  0
   43.7398   32.2473   38.6122 H   0  0  0  0  0  0  0  0  0  0  0  0
   44.2831   33.2594   40.8117 H   0  0  0  0  0  0  0  0  0  0  0  0
   44.0800   36.8839   44.2538 H   0  0  0  0  0  0  0  0  0  0  0  0
   45.1890   36.5545   42.0049 H   0  0  0  0  0  0  0  0  0  0  0  0
   45.8758   33.3594   45.7373 H   0  0  0  0  0  0  0  0  0  0  0  0
   49.6418   36.3198   41.2631 H   0  0  0  0  0  0  0  0  0  0  0  0
   48.4522   36.1791   42.6209 H   0  0  0  0  0  0  0  0  0  0  0  0
   50.9340   35.1605   42.6697 H   0  0  0  0  0  0  0  0  0  0  0  0
   49.4744   34.4737   43.5520 H   0  0  0  0  0  0  0  0  0  0  0  0
   50.0998   33.8040   40.9056 H   0  0  0  0  0  0  0  0  0  0  0  0
   51.4443   31.5584   41.7549 H   0  0  0  0  0  0  0  0  0  0  0  0
   51.8600   32.2505   43.0927 H   0  0  0  0  0  0  0  0  0  0  0  0
   48.8412   32.1292   43.5666 H   0  0  0  0  0  0  0  0  0  0  0  0
   44.8945   29.7021   42.9946 H   0  0  0  0  0  0  0  0  0  0  0  0
   46.5794   30.5928   46.8320 H   0  0  0  0  0  0  0  0  0  0  0  0
   48.2312   31.1919   44.9605 H   0  0  0  0  0  0  0  0  0  0  0  0
  1 12  1  0
  2  1  2  0
  2 16  1  0
  3  2  1  0
  4  3  1  0
  4  9  2  0
  5  4  1  0
  6  5  2  0
  6  7  1  0
  7  8  2  0
  8  9  1  0
  9  1  1  0
 10 15  2  0
 11 10  1  0
 12 11  2  0
 12 13  1  0
 13 14  2  0
 14 15  1  0
 16 17  1  0
 18 19  1  0
 18 17  1  0
 18 20  1  0
 19 20  1  0
 21 22  1  0
 21 20  1  0
 22 24  1  0
 23 22  2  0
 24 25  2  0
 24 28  1  0
 25 26  1  0
 26 27  2  0
 28 27  1  0
  3 29  1  0
  5 30  1  0
  6 31  1  0
  7 32  1  0
  8 33  1  0
 10 34  1  0
 11 35  1  0
 14 36  1  0
 16 37  1  0
 16 38  1  0
 17 39  1  0
 17 40  1  0
 18 41  1  6
 19 42  1  0
 19 43  1  0
 20 44  1  1
 25 45  1  0
 27 46  1  0
 28 47  1  0
M  ISO  8  29   9  30  14  31  14  32  14  33  14  34  14  35  14  36  14
M  ISO  8  37   8  38   8  39   8  40   8  41  13  42  13  43  13  44  13
M  ISO  3  45  14  46  14  47   9
M  END
>  <minimizedAffinity>  (1) 
-5.55511665

>  <minimizedRMSD>  (1) 
1.65656388

$$$$
