
     RDKit          3D

 46 50  0  0  1  0  0  0  0  0999 V2000
   46.8670   34.5410   41.3610 C   0  0  0  0  0  0  0  0  0  0  0  0
   48.1480   34.9440   40.9740 C   0  0  0  0  0  0  0  0  0  0  0  0
   48.3920   34.6080   39.7330 N   0  0  0  0  0  0  0  0  0  0  0  0
   47.2930   33.9830   39.2710 C   0  0  0  0  0  0  0  0  0  0  0  0
   47.0470   33.4360   38.0040 C   0  0  0  0  0  0  0  0  0  0  0  0
   45.8270   32.8560   37.8010 C   0  0  0  0  0  0  0  0  0  0  0  0
   44.8100   32.7610   38.7420 C   0  0  0  0  0  0  0  0  0  0  0  0
   45.1210   33.3160   39.9580 C   0  0  0  0  0  0  0  0  0  0  0  0
   46.3060   33.9160   40.2580 C   0  0  0  0  0  0  0  0  0  0  0  0
   44.7410   35.9810   44.0650 C   0  0  0  0  0  0  0  0  0  0  0  0
   45.3680   35.8290   42.8000 C   0  0  0  0  0  0  0  0  0  0  0  0
   46.2110   34.7210   42.6490 C   0  0  0  0  0  0  0  0  0  0  0  0
   46.3950   33.8470   43.6950 N   0  0  0  0  0  0  0  0  0  0  0  0
   45.7650   34.0510   44.8780 C   0  0  0  0  0  0  0  0  0  0  0  0
   44.9420   35.1090   45.0650 N   0  0  0  0  0  0  0  0  0  0  0  0
   49.0840   35.6640   41.8830 C   0  0  0  0  0  0  0  0  0  0  0  0
   50.0060   34.7190   42.5780 C   0  0  0  0  0  0  0  0  0  0  0  0
   50.1530   33.3720   41.9300 C   0  0  1  0  0  0  0  0  0  0  0  0
   50.9980   32.2920   42.4390 C   0  0  0  0  0  0  0  0  0  0  0  0
   49.5380   32.2360   42.7480 C   0  0  2  0  0  0  0  0  0  0  0  0
   48.8350   31.2390   42.1060 O   0  0  0  0  0  0  0  0  0  0  0  0
   47.5940   30.7630   42.4320 C   0  0  0  0  0  0  0  0  0  0  0  0
   46.6910   30.5670   41.5900 O   0  0  0  0  0  0  0  0  0  0  0  0
   47.0870   30.3880   43.8080 C   0  0  0  0  0  0  0  0  0  0  0  0
   45.7500   30.2580   44.0280 C   0  0  0  0  0  0  0  0  0  0  0  0
   45.5980   29.8010   45.7530 S   0  0  0  0  0  0  0  0  0  0  0  0
   47.4870   29.8510   45.9620 C   0  0  0  0  0  0  0  0  0  0  0  0
   47.7340   30.1350   44.9190 N   0  0  0  0  0  0  0  0  0  0  0  0
   49.2604   34.7877   39.2091 H   0  0  0  0  0  0  0  0  0  0  0  0
   47.8043   33.4723   37.2070 H   0  0  0  0  0  0  0  0  0  0  0  0
   45.6334   32.4273   36.8066 H   0  0  0  0  0  0  0  0  0  0  0  0
   43.8417   32.2835   38.5314 H   0  0  0  0  0  0  0  0  0  0  0  0
   44.3570   33.2730   40.7482 H   0  0  0  0  0  0  0  0  0  0  0  0
   44.0714   36.8380   44.2299 H   0  0  0  0  0  0  0  0  0  0  0  0
   45.2003   36.5443   41.9813 H   0  0  0  0  0  0  0  0  0  0  0  0
   45.9261   33.3417   45.7032 H   0  0  0  0  0  0  0  0  0  0  0  0
   49.6798   36.3753   41.2922 H   0  0  0  0  0  0  0  0  0  0  0  0
   48.4896   36.1895   42.6449 H   0  0  0  0  0  0  0  0  0  0  0  0
   51.0012   35.1855   42.6215 H   0  0  0  0  0  0  0  0  0  0  0  0
   49.5623   34.5337   43.5673 H   0  0  0  0  0  0  0  0  0  0  0  0
   50.0937   33.8183   40.9264 H   0  0  0  0  0  0  0  0  0  0  0  0
   51.4333   31.5655   41.7370 H   0  0  0  0  0  0  0  0  0  0  0  0
   51.9106   32.2602   43.0523 H   0  0  0  0  0  0  0  0  0  0  0  0
   48.8955   32.1937   43.6399 H   0  0  0  0  0  0  0  0  0  0  0  0
   44.9368   30.4027   43.3016 H   0  0  0  0  0  0  0  0  0  0  0  0
   48.1278   29.6599   46.8354 H   0  0  0  0  0  0  0  0  0  0  0  0
  1 12  1  0
  2  1  2  0
  2 16  1  0
  3  2  1  0
  4  3  1  0
  4  9  2  0
  5  4  1  0
  6  5  2  0
  6  7  1  0
  7  8  2  0
  8  9  1  0
  9  1  1  0
 10 15  2  0
 11 10  1  0
 12 11  2  0
 12 13  1  0
 13 14  2  0
 14 15  1  0
 16 17  1  0
 18 19  1  0
 18 17  1  0
 18 20  1  0
 19 20  1  0
 21 22  1  0
 21 20  1  0
 22 24  1  0
 23 22  2  0
 24 25  2  0
 24 28  1  0
 25 26  1  0
 26 27  1  0
 28 27  2  0
  3 29  1  0
  5 30  1  0
  6 31  1  0
  7 32  1  0
  8 33  1  0
 10 34  1  0
 11 35  1  0
 14 36  1  0
 16 37  1  0
 16 38  1  0
 17 39  1  0
 17 40  1  0
 18 41  1  6
 19 42  1  0
 19 43  1  0
 20 44  1  1
 25 45  1  0
 27 46  1  0
M  ISO  8  29   9  30  14  31  14  32  14  33  14  34  14  35  14  36  14
M  ISO  8  37   8  38   8  39   8  40   8  41  13  42  13  43  13  44  13
M  ISO  2  45  14  46  14
M  END
>  <minimizedAffinity>  (1) 
-5.58464956

>  <minimizedRMSD>  (1) 
1.62325966

$$$$
