
     RDKit          3D

 25 27  0  0  0  0  0  0  0  0999 V2000
   44.9400   32.4530   43.3290 C   0  0  0  0  0  0  0  0  0  0  0  0
   45.2350   33.6300   44.0810 C   0  0  0  0  0  0  0  0  0  0  0  0
   44.9090   34.8750   43.5500 C   0  0  0  0  0  0  0  0  0  0  0  0
   44.3140   34.9200   42.3190 N   0  0  0  0  0  0  0  0  0  0  0  0
   44.0460   33.7820   41.6280 C   0  0  0  0  0  0  0  0  0  0  0  0
   44.3560   32.5760   42.1300 N   0  0  0  0  0  0  0  0  0  0  0  0
   43.4100   33.8790   40.3190 C   0  0  0  0  0  0  0  0  0  0  0  0
   43.9640   33.6290   39.0910 C   0  0  0  0  0  0  0  0  0  0  0  0
   43.0090   33.8460   38.1460 N   0  0  0  0  0  0  0  0  0  0  0  0
   41.8510   34.2280   38.6980 C   0  0  0  0  0  0  0  0  0  0  0  0
   40.5990   34.5680   38.2510 C   0  0  0  0  0  0  0  0  0  0  0  0
   39.5730   34.9310   39.0850 C   0  0  0  0  0  0  0  0  0  0  0  0
   39.8310   34.9490   40.4290 C   0  0  0  0  0  0  0  0  0  0  0  0
   41.0850   34.6090   40.9070 C   0  0  0  0  0  0  0  0  0  0  0  0
   42.1130   34.2450   40.0660 C   0  0  0  0  0  0  0  0  0  0  0  0
   46.0190   33.4960   45.6950 S   0  0  0  0  0  0  0  0  0  0  0  0
   45.1889   31.4589   43.7287 H   0  0  0  0  0  0  0  0  0  0  0  0
   45.1244   35.7992   44.1063 H   0  0  0  0  0  0  0  0  0  0  0  0
   44.9993   33.3090   38.9021 H   0  0  0  0  0  0  0  0  0  0  0  0
   43.1585   33.7308   37.1334 H   0  0  0  0  0  0  0  0  0  0  0  0
   40.4087   34.5483   37.1678 H   0  0  0  0  0  0  0  0  0  0  0  0
   38.5817   35.1972   38.6895 H   0  0  0  0  0  0  0  0  0  0  0  0
   39.0367   35.2355   41.1340 H   0  0  0  0  0  0  0  0  0  0  0  0
   41.2658   34.6302   41.9918 H   0  0  0  0  0  0  0  0  0  0  0  0
   45.0759   33.6572   46.6756 H   0  0  0  0  0  0  0  0  0  0  0  0
  1  2  2  0
  2 16  1  0
  3  2  1  0
  4  3  2  0
  5  6  2  0
  5  4  1  0
  6  1  1  0
  7  5  1  0
  8  7  2  0
  9 10  1  0
  9  8  1  0
 10 15  2  0
 11 10  1  0
 11 12  2  0
 12 13  1  0
 13 14  2  0
 15  7  1  0
 15 14  1  0
  1 17  1  0
  3 18  1  0
  8 19  1  0
  9 20  1  0
 11 21  1  0
 12 22  1  0
 13 23  1  0
 14 24  1  0
 16 25  1  0
M  ISO  8  17  14  18  14  19  14  20   9  21  14  22  14  23  14  24  14
M  ISO  1  25  11
M  END
>  <minimizedAffinity>  (1) 
-4.70084238

>  <minimizedRMSD>  (1) 
8.5487299

$$$$
