
     RDKit          3D

 25 26  0  0  0  0  0  0  0  0999 V2000
   44.9260   34.8690   45.0630 C   0  0  0  0  0  0  0  0  0  0  0  0
   45.0620   34.2770   43.7900 C   0  0  0  0  0  0  0  0  0  0  0  0
   45.5960   32.9980   43.7080 C   0  0  0  0  0  0  0  0  0  0  0  0
   45.9750   32.3560   44.8630 N   0  0  0  0  0  0  0  0  0  0  0  0
   45.8250   32.9650   46.0670 C   0  0  0  0  0  0  0  0  0  0  0  0
   45.3170   34.1890   46.1710 N   0  0  0  0  0  0  0  0  0  0  0  0
   46.2440   32.2270   47.2100 N   0  0  0  0  0  0  0  0  0  0  0  0
   45.5870   32.4330   48.4870 C   0  0  0  0  0  0  0  0  0  0  0  0
   45.6450   31.0440   49.1380 C   0  0  0  0  0  0  0  0  0  0  0  0
   47.0350   30.8450   49.4850 N   0  0  0  0  0  0  0  0  0  0  0  0
   47.8830   30.7650   48.3270 C   0  0  0  0  0  0  0  0  0  0  0  0
   47.3310   31.2720   47.0580 C   0  0  0  0  0  0  0  0  0  0  0  0
   44.5460   35.1730   42.3120 S   0  0  0  0  0  0  0  0  0  0  0  0
   44.5037   35.8803   45.1578 H   0  0  0  0  0  0  0  0  0  0  0  0
   45.7142   32.5050   42.7318 H   0  0  0  0  0  0  0  0  0  0  0  0
   46.1264   33.1757   49.0931 H   0  0  0  0  0  0  0  0  0  0  0  0
   44.5625   32.8211   48.3879 H   0  0  0  0  0  0  0  0  0  0  0  0
   45.0145   31.0137   50.0388 H   0  0  0  0  0  0  0  0  0  0  0  0
   45.2732   30.2584   48.4638 H   0  0  0  0  0  0  0  0  0  0  0  0
   47.3464   31.6342   50.0691 H   0  0  0  0  0  0  0  0  0  0  0  0
   48.7964   31.3381   48.5442 H   0  0  0  0  0  0  0  0  0  0  0  0
   48.0397   29.6889   48.1611 H   0  0  0  0  0  0  0  0  0  0  0  0
   46.9563   30.4146   46.4798 H   0  0  0  0  0  0  0  0  0  0  0  0
   48.1488   31.8076   46.5537 H   0  0  0  0  0  0  0  0  0  0  0  0
   43.8872   36.3170   42.6782 H   0  0  0  0  0  0  0  0  0  0  0  0
  1  6  2  0
  2  1  1  0
  3  2  2  0
  3  4  1  0
  4  5  2  0
  5  6  1  0
  5  7  1  0
  7  8  1  0
  8  9  1  0
  9 10  1  0
 11 10  1  0
 12  7  1  0
 12 11  1  0
 13  2  1  0
  1 14  1  0
  3 15  1  0
  8 16  1  0
  8 17  1  0
  9 18  1  0
  9 19  1  0
 10 20  1  0
 11 21  1  0
 11 22  1  0
 12 23  1  0
 12 24  1  0
 13 25  1  0
M  ISO  8  14  14  15  14  16  13  17  13  18  13  19  13  20   5  21  13
M  ISO  4  22  13  23  13  24  13  25  11
M  END
>  <minimizedAffinity>  (1) 
-4.51114464

>  <minimizedRMSD>  (1) 
1.55467868

$$$$
