
     RDKit          3D

 48 50  0  0  0  0  0  0  0  0999 V2000
   46.3580   32.6240   38.4210 C   0  0  0  0  0  0  0  0  0  0  0  0
   46.1350   34.6350   41.4720 C   0  0  0  0  0  0  0  0  0  0  0  0
   47.4330   35.0670   41.6730 C   0  0  0  0  0  0  0  0  0  0  0  0
   48.4300   34.6730   40.7550 C   0  0  0  0  0  0  0  0  0  0  0  0
   48.0480   33.8830   39.7150 N   0  0  0  0  0  0  0  0  0  0  0  0
   46.7660   33.4840   39.5580 C   0  0  0  0  0  0  0  0  0  0  0  0
   45.8440   33.8640   40.4280 N   0  0  0  0  0  0  0  0  0  0  0  0
   45.1210   35.0420   42.4140 C   0  0  0  0  0  0  0  0  0  0  0  0
   43.9240   35.1980   42.0210 O   0  0  0  0  0  0  0  0  0  0  0  0
   45.5250   35.2500   43.7610 O   0  0  0  0  0  0  0  0  0  0  0  0
   45.5450   34.1380   44.6290 C   0  0  0  0  0  0  0  0  0  0  0  0
   44.8550   33.0490   44.0910 F   0  0  0  0  0  0  0  0  0  0  0  0
   46.8400   33.7620   44.8460 F   0  0  0  0  0  0  0  0  0  0  0  0
   44.8800   34.5110   45.7680 F   0  0  0  0  0  0  0  0  0  0  0  0
   47.0440   31.3090   38.3930 C   0  0  0  0  0  0  0  0  0  0  0  0
   44.8720   32.4290   38.4840 C   0  0  0  0  0  0  0  0  0  0  0  0
   46.6690   33.3970   37.1600 C   0  0  0  0  0  0  0  0  0  0  0  0
   46.7190   32.5520   35.9620 C   0  0  0  0  0  0  0  0  0  0  0  0
   45.5780   32.3100   35.2140 C   0  0  0  0  0  0  0  0  0  0  0  0
   45.9590   31.4840   34.1620 C   0  0  0  0  0  0  0  0  0  0  0  0
   47.2740   31.2470   34.2830 N   0  0  0  0  0  0  0  0  0  0  0  0
   47.7020   31.8760   35.3360 N   0  0  0  0  0  0  0  0  0  0  0  0
   48.1160   30.4310   33.4070 C   0  0  0  0  0  0  0  0  0  0  0  0
   48.5050   31.1950   32.1910 C   0  0  0  0  0  0  0  0  0  0  0  0
   48.1750   30.5160   31.0140 C   0  0  0  0  0  0  0  0  0  0  0  0
   48.4880   31.1280   29.8030 C   0  0  0  0  0  0  0  0  0  0  0  0
   49.1010   32.3570   29.7110 C   0  0  0  0  0  0  0  0  0  0  0  0
   49.4080   32.9930   30.9000 C   0  0  0  0  0  0  0  0  0  0  0  0
   49.1180   32.4270   32.1430 C   0  0  0  0  0  0  0  0  0  0  0  0
   47.6839   35.7060   42.5325 H   0  0  0  0  0  0  0  0  0  0  0  0
   49.4757   34.9923   40.8756 H   0  0  0  0  0  0  0  0  0  0  0  0
   47.2226   30.9666   39.4230 H   0  0  0  0  0  0  0  0  0  0  0  0
   46.4127   30.5772   37.8676 H   0  0  0  0  0  0  0  0  0  0  0  0
   48.0053   31.4081   37.8676 H   0  0  0  0  0  0  0  0  0  0  0  0
   44.5520   32.3870   39.5356 H   0  0  0  0  0  0  0  0  0  0  0  0
   44.3703   33.2690   37.9813 H   0  0  0  0  0  0  0  0  0  0  0  0
   44.6040   31.4880   37.9813 H   0  0  0  0  0  0  0  0  0  0  0  0
   45.8903   34.1607   37.0170 H   0  0  0  0  0  0  0  0  0  0  0  0
   47.6664   33.8430   37.2875 H   0  0  0  0  0  0  0  0  0  0  0  0
   44.5675   32.6961   35.4135 H   0  0  0  0  0  0  0  0  0  0  0  0
   45.3000   31.0946   33.3720 H   0  0  0  0  0  0  0  0  0  0  0  0
   49.0238   30.1341   33.9527 H   0  0  0  0  0  0  0  0  0  0  0  0
   47.5478   29.5409   33.0989 H   0  0  0  0  0  0  0  0  0  0  0  0
   47.6847   29.5317   31.0437 H   0  0  0  0  0  0  0  0  0  0  0  0
   48.2321   30.6019   28.8715 H   0  0  0  0  0  0  0  0  0  0  0  0
   49.3357   32.8119   28.7374 H   0  0  0  0  0  0  0  0  0  0  0  0
   49.8970   33.9777   30.8653 H   0  0  0  0  0  0  0  0  0  0  0  0
   49.3757   32.9580   33.0712 H   0  0  0  0  0  0  0  0  0  0  0  0
  1 16  1  0
  1  6  1  0
  2  3  2  0
  2  8  1  0
  4  3  1  0
  5  4  2  0
  6  5  1  0
  6  7  2  0
  7  2  1  0
  8 10  1  0
  9  8  2  0
 10 11  1  0
 11 13  1  0
 11 14  1  0
 12 11  1  0
 15  1  1  0
 17  1  1  0
 18 17  1  0
 19 18  1  0
 20 21  1  0
 20 19  2  0
 21 22  1  0
 22 18  2  0
 23 21  1  0
 24 23  1  0
 25 24  2  0
 26 25  1  0
 27 26  2  0
 27 28  1  0
 28 29  2  0
 29 24  1  0
  3 30  1  0
  4 31  1  0
 15 32  1  0
 15 33  1  0
 15 34  1  0
 16 35  1  0
 16 36  1  0
 16 37  1  0
 17 38  1  0
 17 39  1  0
 19 40  1  0
 20 41  1  0
 23 42  1  0
 23 43  1  0
 25 44  1  0
 26 45  1  0
 27 46  1  0
 28 47  1  0
 29 48  1  0
M  ISO  8  30  14  31  14  32   8  33   8  34   8  35   8  36   8  37   8
M  ISO  8  38   8  39   8  40  14  41  14  42   8  43   8  44  14  45  14
M  ISO  3  46  14  47  14  48  14
M  END
>  <minimizedAffinity>  (1) 
-5.73558283

>  <minimizedRMSD>  (1) 
2.15628457

$$$$
