
     RDKit          3D

 18 19  0  0  0  0  0  0  0  0999 V2000
   44.6360   35.2910   45.1370 C   0  0  0  0  0  0  0  0  0  0  0  0
   44.9920   34.8260   43.8570 C   0  0  0  0  0  0  0  0  0  0  0  0
   45.6180   33.5970   43.7390 C   0  0  0  0  0  0  0  0  0  0  0  0
   45.8630   32.8850   44.9000 N   0  0  0  0  0  0  0  0  0  0  0  0
   45.5060   33.3710   46.0980 C   0  0  0  0  0  0  0  0  0  0  0  0
   44.8990   34.5590   46.2250 N   0  0  0  0  0  0  0  0  0  0  0  0
   45.7860   32.5870   47.2610 C   0  0  0  0  0  0  0  0  0  0  0  0
   44.9960   32.1470   48.2590 C   0  0  0  0  0  0  0  0  0  0  0  0
   45.5350   31.3960   49.2760 C   0  0  0  0  0  0  0  0  0  0  0  0
   46.8850   31.1290   49.2140 C   0  0  0  0  0  0  0  0  0  0  0  0
   47.3920   31.9690   47.6740 S   0  0  0  0  0  0  0  0  0  0  0  0
   44.6360   35.8180   42.3810 S   0  0  0  0  0  0  0  0  0  0  0  0
   44.1369   36.2654   45.2434 H   0  0  0  0  0  0  0  0  0  0  0  0
   45.9107   33.1999   42.7558 H   0  0  0  0  0  0  0  0  0  0  0  0
   43.9227   32.3879   48.2602 H   0  0  0  0  0  0  0  0  0  0  0  0
   44.9146   31.0238   50.1046 H   0  0  0  0  0  0  0  0  0  0  0  0
   47.5039   30.5528   49.9175 H   0  0  0  0  0  0  0  0  0  0  0  0
   44.1913   37.0572   42.7600 H   0  0  0  0  0  0  0  0  0  0  0  0
  1  6  2  0
  2  1  1  0
  3  2  2  0
  3  4  1  0
  4  5  2  0
  5  6  1  0
  5  7  1  0
  7 11  1  0
  7  8  2  0
  8  9  1  0
 10  9  2  0
 11 10  1  0
 12  2  1  0
  1 13  1  0
  3 14  1  0
  8 15  1  0
  9 16  1  0
 10 17  1  0
 12 18  1  0
M  ISO  6  13  14  14  14  15  14  16  14  17  14  18  11
M  END
>  <minimizedAffinity>  (1) 
-3.98525071

>  <minimizedRMSD>  (1) 
1.26699138

$$$$
