
     RDKit          3D

 51 53  0  0  0  0  0  0  0  0999 V2000
   46.8200   32.7970   37.8190 C   0  0  0  0  0  0  0  0  0  0  0  0
   46.0000   34.3600   41.0290 C   0  0  0  0  0  0  0  0  0  0  0  0
   47.2310   34.7510   41.5190 C   0  0  0  0  0  0  0  0  0  0  0  0
   48.3910   34.4890   40.7580 C   0  0  0  0  0  0  0  0  0  0  0  0
   48.2180   33.8540   39.5650 N   0  0  0  0  0  0  0  0  0  0  0  0
   46.9920   33.4860   39.1170 C   0  0  0  0  0  0  0  0  0  0  0  0
   45.9320   33.7450   39.8500 N   0  0  0  0  0  0  0  0  0  0  0  0
   44.8280   34.6360   41.8170 C   0  0  0  0  0  0  0  0  0  0  0  0
   43.7800   35.0790   41.2460 O   0  0  0  0  0  0  0  0  0  0  0  0
   44.9130   34.3930   43.2190 O   0  0  0  0  0  0  0  0  0  0  0  0
   44.6890   35.4810   44.0860 C   0  0  0  0  0  0  0  0  0  0  0  0
   43.3590   35.8490   44.1570 F   0  0  0  0  0  0  0  0  0  0  0  0
   45.1190   35.1440   45.3420 F   0  0  0  0  0  0  0  0  0  0  0  0
   45.3770   36.5550   43.5600 F   0  0  0  0  0  0  0  0  0  0  0  0
   46.9940   31.3200   37.9010 C   0  0  0  0  0  0  0  0  0  0  0  0
   45.4610   33.1100   37.2920 C   0  0  0  0  0  0  0  0  0  0  0  0
   47.8500   33.3900   36.8690 C   0  0  0  0  0  0  0  0  0  0  0  0
   48.3870   32.3950   35.9310 C   0  0  0  0  0  0  0  0  0  0  0  0
   49.6120   31.7940   36.2010 C   0  0  0  0  0  0  0  0  0  0  0  0
   49.8320   30.9120   35.1320 C   0  0  0  0  0  0  0  0  0  0  0  0
   48.7930   30.9910   34.2840 N   0  0  0  0  0  0  0  0  0  0  0  0
   47.9650   31.8650   34.7760 N   0  0  0  0  0  0  0  0  0  0  0  0
   48.6630   30.2290   33.0630 C   0  0  0  0  0  0  0  0  0  0  0  0
   48.5270   31.0060   31.8760 N   0  0  0  0  0  0  0  0  0  0  0  0
   49.7090   31.7780   31.5640 C   0  0  0  0  0  0  0  0  0  0  0  0
   49.4380   32.7820   30.4970 C   0  0  0  0  0  0  0  0  0  0  0  0
   48.5020   32.3090   29.5810 O   0  0  0  0  0  0  0  0  0  0  0  0
   48.6360   30.9340   29.5040 C   0  0  0  0  0  0  0  0  0  0  0  0
   48.0010   30.3000   30.7390 C   0  0  0  0  0  0  0  0  0  0  0  0
   47.3066   35.2606   42.4909 H   0  0  0  0  0  0  0  0  0  0  0  0
   49.3896   34.7843   41.1124 H   0  0  0  0  0  0  0  0  0  0  0  0
   47.0302   31.0131   38.9567 H   0  0  0  0  0  0  0  0  0  0  0  0
   46.1482   30.8230   37.4034 H   0  0  0  0  0  0  0  0  0  0  0  0
   47.9322   31.0331   37.4034 H   0  0  0  0  0  0  0  0  0  0  0  0
   44.7695   33.2693   38.1325 H   0  0  0  0  0  0  0  0  0  0  0  0
   45.5070   34.0211   36.6773 H   0  0  0  0  0  0  0  0  0  0  0  0
   45.1038   32.2706   36.6773 H   0  0  0  0  0  0  0  0  0  0  0  0
   47.3751   34.1979   36.2930 H   0  0  0  0  0  0  0  0  0  0  0  0
   48.6878   33.7649   37.4752 H   0  0  0  0  0  0  0  0  0  0  0  0
   50.2674   31.9719   37.0664 H   0  0  0  0  0  0  0  0  0  0  0  0
   50.7111   30.2624   35.0086 H   0  0  0  0  0  0  0  0  0  0  0  0
   49.5589   29.5996   32.9573 H   0  0  0  0  0  0  0  0  0  0  0  0
   47.7311   29.6527   33.1598 H   0  0  0  0  0  0  0  0  0  0  0  0
   50.0438   32.3019   32.4714 H   0  0  0  0  0  0  0  0  0  0  0  0
   50.4860   31.0891   31.2011 H   0  0  0  0  0  0  0  0  0  0  0  0
   49.0520   33.7018   30.9606 H   0  0  0  0  0  0  0  0  0  0  0  0
   50.3779   32.9801   29.9609 H   0  0  0  0  0  0  0  0  0  0  0  0
   48.1307   30.5648   28.5994 H   0  0  0  0  0  0  0  0  0  0  0  0
   49.7023   30.6677   29.4576 H   0  0  0  0  0  0  0  0  0  0  0  0
   46.9067   30.4044   30.6997 H   0  0  0  0  0  0  0  0  0  0  0  0
   48.2297   29.2256   30.7970 H   0  0  0  0  0  0  0  0  0  0  0  0
  1 15  1  0
  1  6  1  0
  2  3  2  0
  2  8  1  0
  4  3  1  0
  5  4  2  0
  6  5  1  0
  6  7  2  0
  7  2  1  0
  8 10  1  0
  9  8  2  0
 10 11  1  0
 11 12  1  0
 11 13  1  0
 14 11  1  0
 16  1  1  0
 17  1  1  0
 18 19  1  0
 18 17  1  0
 20 19  2  0
 21 22  1  0
 21 20  1  0
 22 18  2  0
 23 21  1  0
 24 23  1  0
 25 24  1  0
 26 25  1  0
 27 26  1  0
 28 27  1  0
 28 29  1  0
 29 24  1  0
  3 30  1  0
  4 31  1  0
 15 32  1  0
 15 33  1  0
 15 34  1  0
 16 35  1  0
 16 36  1  0
 16 37  1  0
 17 38  1  0
 17 39  1  0
 19 40  1  0
 20 41  1  0
 23 42  1  0
 23 43  1  0
 25 44  1  0
 25 45  1  0
 26 46  1  0
 26 47  1  0
 28 48  1  0
 28 49  1  0
 29 50  1  0
 29 51  1  0
M  ISO  8  30  14  31  14  32   8  33   8  34   8  35   8  36   8  37   8
M  ISO  8  38   8  39   8  40  14  41  14  42   8  43   8  44  13  45  13
M  ISO  6  46  13  47  13  48  13  49  13  50  13  51  13
M  END
>  <minimizedAffinity>  (1) 
-5.61817694

>  <minimizedRMSD>  (1) 
1.90453279

$$$$
