
     RDKit          3D

 23 23  0  0  0  0  0  0  0  0999 V2000
   44.8300   34.8900   45.5320 C   0  0  0  0  0  0  0  0  0  0  0  0
   45.4840   34.8790   44.2680 C   0  0  0  0  0  0  0  0  0  0  0  0
   46.4480   33.9070   44.0130 C   0  0  0  0  0  0  0  0  0  0  0  0
   46.7340   32.9920   44.9880 N   0  0  0  0  0  0  0  0  0  0  0  0
   46.0930   33.0320   46.1770 C   0  0  0  0  0  0  0  0  0  0  0  0
   45.1680   33.9510   46.4460 N   0  0  0  0  0  0  0  0  0  0  0  0
   46.3580   32.0660   47.2810 C   0  0  0  0  0  0  0  0  0  0  0  0
   47.5950   32.4010   48.0490 C   0  0  0  0  0  0  0  0  0  0  0  0
   46.3330   30.6750   46.7020 C   0  0  0  0  0  0  0  0  0  0  0  0
   45.1450   32.1790   48.2070 C   0  0  0  0  0  0  0  0  0  0  0  0
   45.0640   36.1120   43.0190 S   0  0  0  0  0  0  0  0  0  0  0  0
   44.0652   35.6466   45.7614 H   0  0  0  0  0  0  0  0  0  0  0  0
   46.9698   33.8759   43.0451 H   0  0  0  0  0  0  0  0  0  0  0  0
   47.3840   32.3439   49.1271 H   0  0  0  0  0  0  0  0  0  0  0  0
   48.3906   31.6860   47.7927 H   0  0  0  0  0  0  0  0  0  0  0  0
   47.9211   33.4198   47.7927 H   0  0  0  0  0  0  0  0  0  0  0  0
   46.3198   29.9381   47.5186 H   0  0  0  0  0  0  0  0  0  0  0  0
   45.4325   30.5519   46.0824 H   0  0  0  0  0  0  0  0  0  0  0  0
   47.2285   30.5196   46.0824 H   0  0  0  0  0  0  0  0  0  0  0  0
   45.4792   32.1479   49.2545 H   0  0  0  0  0  0  0  0  0  0  0  0
   44.6252   33.1295   48.0161 H   0  0  0  0  0  0  0  0  0  0  0  0
   44.4586   31.3409   48.0161 H   0  0  0  0  0  0  0  0  0  0  0  0
   44.6695   37.2702   43.6352 H   0  0  0  0  0  0  0  0  0  0  0  0
  1  6  2  0
  2  1  1  0
  3  2  2  0
  3  4  1  0
  4  5  2  0
  5  6  1  0
  5  7  1  0
  7  8  1  0
  7 10  1  0
  9  7  1  0
 11  2  1  0
  1 12  1  0
  3 13  1  0
  8 14  1  0
  8 15  1  0
  8 16  1  0
  9 17  1  0
  9 18  1  0
  9 19  1  0
 10 20  1  0
 10 21  1  0
 10 22  1  0
 11 23  1  0
M  ISO  8  12  14  13  14  14   8  15   8  16   8  17   8  18   8  19   8
M  ISO  4  20   8  21   8  22   8  23  11
M  END
>  <minimizedAffinity>  (1) 
-3.65690804

>  <minimizedRMSD>  (1) 
1.86253333

$$$$
