
     RDKit          3D

 12 12  0  0  0  0  0  0  0  0999 V2000
   44.5500   35.4630   44.1360 C   0  0  0  0  0  0  0  0  0  0  0  0
   44.4040   34.7570   42.9030 C   0  0  0  0  0  0  0  0  0  0  0  0
   44.8700   33.4520   42.8390 C   0  0  0  0  0  0  0  0  0  0  0  0
   45.4490   32.8810   43.9390 N   0  0  0  0  0  0  0  0  0  0  0  0
   45.5600   33.6020   45.0850 C   0  0  0  0  0  0  0  0  0  0  0  0
   45.1230   34.8560   45.1820 N   0  0  0  0  0  0  0  0  0  0  0  0
   43.6320   35.5470   41.4650 S   0  0  0  0  0  0  0  0  0  0  0  0
   46.3130   32.8770   46.5370 S   0  0  0  0  0  0  0  0  0  0  0  0
   44.1935   36.4998   44.2253 H   0  0  0  0  0  0  0  0  0  0  0  0
   44.7742   32.8776   41.9058 H   0  0  0  0  0  0  0  0  0  0  0  0
   42.7217   36.4786   41.8897 H   0  0  0  0  0  0  0  0  0  0  0  0
   45.7501   33.4190   47.6623 H   0  0  0  0  0  0  0  0  0  0  0  0
  1  6  2  0
  2  1  1  0
  3  2  2  0
  3  4  1  0
  4  5  2  0
  5  6  1  0
  5  8  1  0
  7  2  1  0
  1  9  1  0
  3 10  1  0
  7 11  1  0
  8 12  1  0
M  ISO  4   9  14  10  14  11  11  12  11
M  END
>  <minimizedAffinity>  (1) 
-2.65039349

>  <minimizedRMSD>  (1) 
0.72936666

$$$$
