
     RDKit          3D

 34 37  0  0  0  0  0  0  0  0999 V2000
   44.1190   35.7890   42.6810 C   0  0  0  0  0  0  0  0  0  0  0  0
   43.3410   35.1890   41.6660 C   0  0  0  0  0  0  0  0  0  0  0  0
   43.9640   34.3220   40.7730 C   0  0  0  0  0  0  0  0  0  0  0  0
   45.3030   34.0660   40.8930 N   0  0  0  0  0  0  0  0  0  0  0  0
   46.0030   34.6700   41.8890 C   0  0  0  0  0  0  0  0  0  0  0  0
   45.4210   35.5060   42.7540 N   0  0  0  0  0  0  0  0  0  0  0  0
   47.4480   34.4370   42.0730 C   0  0  0  0  0  0  0  0  0  0  0  0
   48.3280   35.4800   41.9850 C   0  0  0  0  0  0  0  0  0  0  0  0
   49.6940   35.2900   42.1540 C   0  0  0  0  0  0  0  0  0  0  0  0
   50.1930   34.0230   42.4170 C   0  0  0  0  0  0  0  0  0  0  0  0
   49.2700   32.9970   42.4970 C   0  0  0  0  0  0  0  0  0  0  0  0
   47.9480   33.2040   42.3310 N   0  0  0  0  0  0  0  0  0  0  0  0
   41.5720   35.5350   41.5180 S   0  0  0  0  0  0  0  0  0  0  0  0
   41.0850   35.2520   39.8330 C   0  0  0  0  0  0  0  0  0  0  0  0
   41.7230   35.7250   38.6970 C   0  0  0  0  0  0  0  0  0  0  0  0
   41.0770   35.3170   37.5930 N   0  0  0  0  0  0  0  0  0  0  0  0
   40.0120   34.5750   37.9940 C   0  0  0  0  0  0  0  0  0  0  0  0
   39.0070   33.9070   37.2920 C   0  0  0  0  0  0  0  0  0  0  0  0
   38.0420   33.2230   38.0300 C   0  0  0  0  0  0  0  0  0  0  0  0
   38.0290   33.1710   39.4100 C   0  0  0  0  0  0  0  0  0  0  0  0
   39.0350   33.8390   40.1150 C   0  0  0  0  0  0  0  0  0  0  0  0
   39.9880   34.5150   39.3730 C   0  0  0  0  0  0  0  0  0  0  0  0
   43.6577   36.4803   43.4016 H   0  0  0  0  0  0  0  0  0  0  0  0
   43.3811   33.8434   39.9722 H   0  0  0  0  0  0  0  0  0  0  0  0
   47.9465   36.4904   41.7761 H   0  0  0  0  0  0  0  0  0  0  0  0
   50.3808   36.1460   42.0791 H   0  0  0  0  0  0  0  0  0  0  0  0
   51.2694   33.8435   42.5550 H   0  0  0  0  0  0  0  0  0  0  0  0
   49.6262   31.9769   42.7031 H   0  0  0  0  0  0  0  0  0  0  0  0
   42.6304   36.3468   38.6996 H   0  0  0  0  0  0  0  0  0  0  0  0
   41.3407   35.5280   36.6199 H   0  0  0  0  0  0  0  0  0  0  0  0
   38.9775   33.9199   36.1925 H   0  0  0  0  0  0  0  0  0  0  0  0
   37.2469   32.6955   37.4828 H   0  0  0  0  0  0  0  0  0  0  0  0
   37.2436   32.6156   39.9435 H   0  0  0  0  0  0  0  0  0  0  0  0
   39.0677   33.8277   41.2145 H   0  0  0  0  0  0  0  0  0  0  0  0
  1  6  2  0
  2  1  1  0
  3  4  1  0
  3  2  2  0
  4  5  2  0
  5  7  1  0
  5  6  1  0
  7 12  1  0
  8  7  2  0
  8  9  1  0
  9 10  2  0
 10 11  1  0
 12 11  2  0
 13  2  1  0
 14 13  1  0
 15 14  2  0
 16 17  1  0
 16 15  1  0
 17 22  2  0
 18 17  1  0
 18 19  2  0
 19 20  1  0
 20 21  2  0
 22 14  1  0
 22 21  1  0
  1 23  1  0
  3 24  1  0
  8 25  1  0
  9 26  1  0
 10 27  1  0
 11 28  1  0
 15 29  1  0
 16 30  1  0
 18 31  1  0
 19 32  1  0
 20 33  1  0
 21 34  1  0
M  ISO  8  23  14  24  14  25  14  26  14  27  14  28  14  29  14  30   9
M  ISO  4  31  14  32  14  33  14  34  14
M  END
>  <minimizedAffinity>  (1) 
-6.81206942

>  <minimizedRMSD>  (1) 
0.836808324

$$$$
