
     RDKit          3D

 43 46  0  0  1  0  0  0  0  0999 V2000
   38.5870   33.2710   38.7080 N   0  0  0  0  0  0  0  0  0  0  0  0
   38.3940   34.0490   39.9010 C   0  0  0  0  0  0  0  0  0  0  0  0
   39.4310   33.7070   40.9600 C   0  0  0  0  0  0  0  0  0  0  0  0
   40.7860   34.0090   40.3840 C   0  0  1  0  0  0  0  0  0  0  0  0
   40.7640   34.3970   38.9330 C   0  0  0  0  0  0  0  0  0  0  0  0
   39.9040   33.4420   38.1260 C   0  0  1  0  0  0  0  0  0  0  0  0
   40.5950   32.1460   37.9040 C   0  0  0  0  0  0  0  0  0  0  0  0
   39.8210   31.0040   37.9400 C   0  0  0  0  0  0  0  0  0  0  0  0
   40.5390   29.8280   37.7220 C   0  0  0  0  0  0  0  0  0  0  0  0
   41.8650   29.7520   37.4930 N   0  0  0  0  0  0  0  0  0  0  0  0
   42.5630   30.9250   37.4720 C   0  0  0  0  0  0  0  0  0  0  0  0
   41.9280   32.0980   37.6760 N   0  0  0  0  0  0  0  0  0  0  0  0
   41.5580   35.2820   41.3750 S   0  0  0  0  0  0  0  0  0  0  0  0
   44.0220   35.4980   42.6360 C   0  0  0  0  0  0  0  0  0  0  0  0
   43.3280   35.0140   41.5280 C   0  0  0  0  0  0  0  0  0  0  0  0
   44.0320   34.3350   40.5770 C   0  0  0  0  0  0  0  0  0  0  0  0
   45.3730   34.1330   40.7070 N   0  0  0  0  0  0  0  0  0  0  0  0
   46.0200   34.6190   41.8030 C   0  0  0  0  0  0  0  0  0  0  0  0
   45.3450   35.3040   42.7730 N   0  0  0  0  0  0  0  0  0  0  0  0
   47.4510   34.4490   42.0260 C   0  0  0  0  0  0  0  0  0  0  0  0
   48.3040   35.4990   41.9390 C   0  0  0  0  0  0  0  0  0  0  0  0
   49.6680   35.3580   42.1500 C   0  0  0  0  0  0  0  0  0  0  0  0
   50.1930   34.1170   42.4590 C   0  0  0  0  0  0  0  0  0  0  0  0
   49.3050   33.0690   42.5410 C   0  0  0  0  0  0  0  0  0  0  0  0
   47.9790   33.2350   42.3300 N   0  0  0  0  0  0  0  0  0  0  0  0
   38.4578   32.2760   38.9407 H   0  0  0  0  0  0  0  0  0  0  0  0
   38.4778   35.1166   39.6496 H   0  0  0  0  0  0  0  0  0  0  0  0
   37.3971   33.8206   40.3060 H   0  0  0  0  0  0  0  0  0  0  0  0
   39.2622   34.3157   41.8606 H   0  0  0  0  0  0  0  0  0  0  0  0
   39.3592   32.6463   41.2425 H   0  0  0  0  0  0  0  0  0  0  0  0
   41.3720   33.0787   40.4186 H   0  0  0  0  0  0  0  0  0  0  0  0
   40.3565   35.4144   38.8391 H   0  0  0  0  0  0  0  0  0  0  0  0
   41.7922   34.3554   38.5442 H   0  0  0  0  0  0  0  0  0  0  0  0
   39.7480   33.8977   37.1371 H   0  0  0  0  0  0  0  0  0  0  0  0
   38.7366   31.0196   38.1239 H   0  0  0  0  0  0  0  0  0  0  0  0
   39.9756   28.8834   37.7384 H   0  0  0  0  0  0  0  0  0  0  0  0
   43.6475   30.9139   37.2880 H   0  0  0  0  0  0  0  0  0  0  0  0
   43.4754   36.0503   43.4146 H   0  0  0  0  0  0  0  0  0  0  0  0
   43.5089   33.9446   39.6916 H   0  0  0  0  0  0  0  0  0  0  0  0
   47.9024   36.4932   41.6936 H   0  0  0  0  0  0  0  0  0  0  0  0
   50.3308   36.2324   42.0715 H   0  0  0  0  0  0  0  0  0  0  0  0
   51.2700   33.9740   42.6312 H   0  0  0  0  0  0  0  0  0  0  0  0
   49.6847   32.0660   42.7855 H   0  0  0  0  0  0  0  0  0  0  0  0
  1  2  1  0
  2  3  1  0
  4  3  1  0
  4 13  1  0
  5  4  1  0
  6  1  1  0
  6  5  1  0
  7  8  2  0
  7  6  1  0
  9  8  1  0
 10  9  2  0
 11 10  1  0
 11 12  2  0
 12  7  1  0
 13 15  1  0
 14 19  2  0
 15 14  1  0
 16 17  1  0
 16 15  2  0
 17 18  2  0
 18 20  1  0
 18 19  1  0
 20 25  1  0
 21 20  2  0
 21 22  1  0
 22 23  2  0
 23 24  1  0
 25 24  2  0
  1 26  1  0
  2 27  1  0
  2 28  1  0
  3 29  1  0
  3 30  1  0
  4 31  1  6
  5 32  1  0
  5 33  1  0
  6 34  1  6
  8 35  1  0
  9 36  1  0
 11 37  1  0
 14 38  1  0
 16 39  1  0
 21 40  1  0
 22 41  1  0
 23 42  1  0
 24 43  1  0
M  ISO  8  26   5  27  13  28  13  29  13  30  13  31  13  32  13  33  13
M  ISO  8  34  13  35  14  36  14  37  14  38  14  39  14  40  14  41  14
M  ISO  2  42  14  43  14
M  END
>  <minimizedAffinity>  (1) 
-5.89681387

>  <minimizedRMSD>  (1) 
1.21889377

$$$$
