
     RDKit          3D

 39 40  0  0  0  0  0  0  0  0999 V2000
   46.3370   32.3530   37.8990 C   0  0  0  0  0  0  0  0  0  0  0  0
   45.8510   34.3030   40.9570 C   0  0  0  0  0  0  0  0  0  0  0  0
   47.1230   34.7150   41.2760 C   0  0  0  0  0  0  0  0  0  0  0  0
   48.2110   34.3400   40.4520 C   0  0  0  0  0  0  0  0  0  0  0  0
   47.9190   33.5770   39.3700 N   0  0  0  0  0  0  0  0  0  0  0  0
   46.6410   33.1840   39.0810 C   0  0  0  0  0  0  0  0  0  0  0  0
   45.6630   33.5560   39.8740 N   0  0  0  0  0  0  0  0  0  0  0  0
   44.7660   34.7000   41.8130 C   0  0  0  0  0  0  0  0  0  0  0  0
   43.7690   35.3170   41.3090 O   0  0  0  0  0  0  0  0  0  0  0  0
   44.8610   34.3800   43.1880 O   0  0  0  0  0  0  0  0  0  0  0  0
   44.7620   35.4270   44.1150 C   0  0  0  0  0  0  0  0  0  0  0  0
   43.4630   35.8610   44.3070 F   0  0  0  0  0  0  0  0  0  0  0  0
   45.2620   35.0090   45.3270 F   0  0  0  0  0  0  0  0  0  0  0  0
   45.4680   36.4970   43.5900 F   0  0  0  0  0  0  0  0  0  0  0  0
   45.4180   31.2160   38.1890 C   0  0  0  0  0  0  0  0  0  0  0  0
   45.7650   33.2170   36.8340 C   0  0  0  0  0  0  0  0  0  0  0  0
   47.6620   31.7990   37.4030 C   0  0  0  0  0  0  0  0  0  0  0  0
   47.8230   31.9270   35.9460 C   0  0  0  0  0  0  0  0  0  0  0  0
   47.2800   30.9490   35.1200 C   0  0  0  0  0  0  0  0  0  0  0  0
   47.5830   31.3280   33.8180 C   0  0  0  0  0  0  0  0  0  0  0  0
   48.2720   32.4750   33.8760 N   0  0  0  0  0  0  0  0  0  0  0  0
   48.4030   32.8100   35.1180 N   0  0  0  0  0  0  0  0  0  0  0  0
   48.7880   33.2230   32.7380 C   0  0  0  0  0  0  0  0  0  0  0  0
   50.1880   33.2270   32.8970 O   0  0  0  0  0  0  0  0  0  0  0  0
   47.2948   35.3342   42.1688 H   0  0  0  0  0  0  0  0  0  0  0  0
   49.2414   34.6518   40.6780 H   0  0  0  0  0  0  0  0  0  0  0  0
   45.3188   31.0932   39.2776 H   0  0  0  0  0  0  0  0  0  0  0  0
   44.4300   31.4224   37.7517 H   0  0  0  0  0  0  0  0  0  0  0  0
   45.8270   30.2932   37.7517 H   0  0  0  0  0  0  0  0  0  0  0  0
   45.2135   34.0500   37.2944 H   0  0  0  0  0  0  0  0  0  0  0  0
   46.5779   33.6161   36.2096 H   0  0  0  0  0  0  0  0  0  0  0  0
   45.0801   32.6245   36.2096 H   0  0  0  0  0  0  0  0  0  0  0  0
   48.4787   32.3463   37.8964 H   0  0  0  0  0  0  0  0  0  0  0  0
   47.6848   30.7265   37.6461 H   0  0  0  0  0  0  0  0  0  0  0  0
   46.7223   30.0545   35.4344 H   0  0  0  0  0  0  0  0  0  0  0  0
   47.3064   30.7834   32.9032 H   0  0  0  0  0  0  0  0  0  0  0  0
   48.3970   34.2511   32.7439 H   0  0  0  0  0  0  0  0  0  0  0  0
   48.4861   32.7722   31.7811 H   0  0  0  0  0  0  0  0  0  0  0  0
   50.4106   33.2276   33.8617 H   0  0  0  0  0  0  0  0  0  0  0  0
  1 15  1  0
  1  6  1  0
  2  3  2  0
  2  8  1  0
  4  3  1  0
  5  4  2  0
  6  5  1  0
  6  7  2  0
  7  2  1  0
  8 10  1  0
  9  8  2  0
 10 11  1  0
 11 12  1  0
 11 13  1  0
 14 11  1  0
 16  1  1  0
 17  1  1  0
 18 17  1  0
 19 18  1  0
 20 21  1  0
 20 19  2  0
 21 22  1  0
 22 18  2  0
 23 24  1  0
 23 21  1  0
  3 25  1  0
  4 26  1  0
 15 27  1  0
 15 28  1  0
 15 29  1  0
 16 30  1  0
 16 31  1  0
 16 32  1  0
 17 33  1  0
 17 34  1  0
 19 35  1  0
 20 36  1  0
 23 37  1  0
 23 38  1  0
 24 39  1  0
M  ISO  8  25  14  26  14  27   8  28   8  29   8  30   8  31   8  32   8
M  ISO  7  33   8  34   8  35  14  36  14  37   8  38   8  39   3
M  END
>  <minimizedAffinity>  (1) 
-4.88175201

>  <minimizedRMSD>  (1) 
0.135997728

$$$$
