
     RDKit          3D

 40 41  0  0  0  0  0  0  0  0999 V2000
   46.3180   32.3360   37.9350 C   0  0  0  0  0  0  0  0  0  0  0  0
   45.8560   34.3170   40.9780 C   0  0  0  0  0  0  0  0  0  0  0  0
   47.1230   34.7430   41.2930 C   0  0  0  0  0  0  0  0  0  0  0  0
   48.1940   34.3580   40.4590 C   0  0  0  0  0  0  0  0  0  0  0  0
   47.9050   33.5800   39.3810 N   0  0  0  0  0  0  0  0  0  0  0  0
   46.6270   33.1840   39.1120 C   0  0  0  0  0  0  0  0  0  0  0  0
   45.6370   33.5550   39.9060 N   0  0  0  0  0  0  0  0  0  0  0  0
   44.7660   34.7180   41.8410 C   0  0  0  0  0  0  0  0  0  0  0  0
   43.7680   35.3450   41.3480 O   0  0  0  0  0  0  0  0  0  0  0  0
   44.8540   34.3930   43.2110 O   0  0  0  0  0  0  0  0  0  0  0  0
   44.7690   35.4440   44.1560 C   0  0  0  0  0  0  0  0  0  0  0  0
   43.4480   35.8770   44.3370 F   0  0  0  0  0  0  0  0  0  0  0  0
   45.2520   34.9990   45.3630 F   0  0  0  0  0  0  0  0  0  0  0  0
   45.4630   36.5040   43.6350 F   0  0  0  0  0  0  0  0  0  0  0  0
   45.3860   31.2170   38.2370 C   0  0  0  0  0  0  0  0  0  0  0  0
   45.7360   33.1920   36.8660 C   0  0  0  0  0  0  0  0  0  0  0  0
   47.6380   31.7860   37.4360 C   0  0  0  0  0  0  0  0  0  0  0  0
   47.7550   31.8290   35.9670 C   0  0  0  0  0  0  0  0  0  0  0  0
   47.2420   30.7860   35.2080 C   0  0  0  0  0  0  0  0  0  0  0  0
   47.5010   31.1110   33.8820 C   0  0  0  0  0  0  0  0  0  0  0  0
   48.1380   32.2960   33.8660 N   0  0  0  0  0  0  0  0  0  0  0  0
   48.2800   32.7060   35.0960 N   0  0  0  0  0  0  0  0  0  0  0  0
   48.6000   33.0170   32.6800 C   0  0  0  0  0  0  0  0  0  0  0  0
   50.0290   33.2580   32.7670 N   0  0  0  0  0  0  0  0  0  0  0  0
   47.2994   35.3720   42.1780 H   0  0  0  0  0  0  0  0  0  0  0  0
   49.2253   34.6754   40.6727 H   0  0  0  0  0  0  0  0  0  0  0  0
   45.2910   31.1029   39.3269 H   0  0  0  0  0  0  0  0  0  0  0  0
   44.3987   31.4350   37.8037 H   0  0  0  0  0  0  0  0  0  0  0  0
   45.7790   30.2854   37.8037 H   0  0  0  0  0  0  0  0  0  0  0  0
   45.1737   34.0191   37.3240 H   0  0  0  0  0  0  0  0  0  0  0  0
   46.5448   33.5999   36.2419 H   0  0  0  0  0  0  0  0  0  0  0  0
   45.0593   32.5899   36.2419 H   0  0  0  0  0  0  0  0  0  0  0  0
   48.4541   32.3814   37.8713 H   0  0  0  0  0  0  0  0  0  0  0  0
   47.6948   30.7311   37.7425 H   0  0  0  0  0  0  0  0  0  0  0  0
   46.7334   29.8847   35.5808 H   0  0  0  0  0  0  0  0  0  0  0  0
   47.2331   30.5072   33.0024 H   0  0  0  0  0  0  0  0  0  0  0  0
   48.0723   33.9797   32.6111 H   0  0  0  0  0  0  0  0  0  0  0  0
   48.3912   32.4106   31.7863 H   0  0  0  0  0  0  0  0  0  0  0  0
   50.3096   33.3053   33.7569 H   0  0  0  0  0  0  0  0  0  0  0  0
   50.5355   32.4906   32.3029 H   0  0  0  0  0  0  0  0  0  0  0  0
  1 15  1  0
  1  6  1  0
  2  3  2  0
  2  8  1  0
  4  3  1  0
  5  4  2  0
  6  5  1  0
  6  7  2  0
  7  2  1  0
  8 10  1  0
  9  8  2  0
 10 11  1  0
 11 12  1  0
 11 13  1  0
 14 11  1  0
 16  1  1  0
 17  1  1  0
 18 17  1  0
 19 18  1  0
 20 19  2  0
 21 20  1  0
 21 22  1  0
 22 18  2  0
 23 24  1  0
 23 21  1  0
  3 25  1  0
  4 26  1  0
 15 27  1  0
 15 28  1  0
 15 29  1  0
 16 30  1  0
 16 31  1  0
 16 32  1  0
 17 33  1  0
 17 34  1  0
 19 35  1  0
 20 36  1  0
 23 37  1  0
 23 38  1  0
 24 39  1  0
 24 40  1  0
M  ISO  8  25  14  26  14  27   8  28   8  29   8  30   8  31   8  32   8
M  ISO  8  33   8  34   8  35  14  36  14  37   8  38   8  39   5  40   5
M  END
>  <minimizedAffinity>  (1) 
-4.80019712

>  <minimizedRMSD>  (1) 
0.211610958

$$$$
