
     RDKit          3D

 49 52  0  0  0  0  0  0  0  0999 V2000
   46.4840   34.6090   42.2130 C   0  0  0  0  0  0  0  0  0  0  0  0
   47.7920   34.9840   42.0750 C   0  0  0  0  0  0  0  0  0  0  0  0
   48.4750   34.8520   40.8660 C   0  0  0  0  0  0  0  0  0  0  0  0
   47.8130   34.3180   39.7500 C   0  0  0  0  0  0  0  0  0  0  0  0
   46.5080   33.9450   39.8910 C   0  0  0  0  0  0  0  0  0  0  0  0
   45.8570   34.0910   41.1120 C   0  0  0  0  0  0  0  0  0  0  0  0
   44.4980   33.6900   41.2170 N   0  0  0  0  0  0  0  0  0  0  0  0
   43.6770   34.6510   40.6870 C   0  0  0  0  0  0  0  0  0  0  0  0
   42.2880   34.4640   40.6840 C   0  0  0  0  0  0  0  0  0  0  0  0
   41.7950   33.2830   41.2310 C   0  0  0  0  0  0  0  0  0  0  0  0
   40.5580   33.0580   41.2580 O   0  0  0  0  0  0  0  0  0  0  0  0
   42.6460   32.3780   41.7350 N   0  0  0  0  0  0  0  0  0  0  0  0
   43.9730   32.5680   41.7320 C   0  0  0  0  0  0  0  0  0  0  0  0
   44.8400   31.7870   42.1750 O   0  0  0  0  0  0  0  0  0  0  0  0
   41.3490   35.4740   40.1240 C   0  0  0  0  0  0  0  0  0  0  0  0
   44.4350   35.8760   45.1000 C   0  0  0  0  0  0  0  0  0  0  0  0
   44.9760   35.8130   43.8180 C   0  0  0  0  0  0  0  0  0  0  0  0
   45.8550   34.7840   43.5070 C   0  0  0  0  0  0  0  0  0  0  0  0
   46.1440   33.8920   44.4630 N   0  0  0  0  0  0  0  0  0  0  0  0
   45.6000   33.9760   45.7090 C   0  0  0  0  0  0  0  0  0  0  0  0
   44.7520   34.9630   46.0200 N   0  0  0  0  0  0  0  0  0  0  0  0
   45.9920   32.9290   46.6930 C   0  0  0  0  0  0  0  0  0  0  0  0
   45.0570   32.8220   47.8660 C   0  0  0  0  0  0  0  0  0  0  0  0
   45.7450   31.9190   48.8710 C   0  0  0  0  0  0  0  0  0  0  0  0
   46.6140   30.8890   48.1780 C   0  0  0  0  0  0  0  0  0  0  0  0
   45.9530   30.4930   46.8770 C   0  0  0  0  0  0  0  0  0  0  0  0
   46.0850   31.6370   45.9130 C   0  0  0  0  0  0  0  0  0  0  0  0
   48.3214   35.4024   42.9437 H   0  0  0  0  0  0  0  0  0  0  0  0
   49.5267   35.1648   40.7879 H   0  0  0  0  0  0  0  0  0  0  0  0
   48.3322   34.2031   38.7871 H   0  0  0  0  0  0  0  0  0  0  0  0
   45.9655   33.5249   39.0312 H   0  0  0  0  0  0  0  0  0  0  0  0
   44.1086   35.5699   40.2636 H   0  0  0  0  0  0  0  0  0  0  0  0
   42.2680   31.5085   42.1376 H   0  0  0  0  0  0  0  0  0  0  0  0
   40.8520   36.0086   40.9469 H   0  0  0  0  0  0  0  0  0  0  0  0
   41.9083   36.1915   39.5056 H   0  0  0  0  0  0  0  0  0  0  0  0
   40.5927   34.9684   39.5056 H   0  0  0  0  0  0  0  0  0  0  0  0
   43.7385   36.6877   45.3569 H   0  0  0  0  0  0  0  0  0  0  0  0
   44.7107   36.5675   43.0628 H   0  0  0  0  0  0  0  0  0  0  0  0
   46.9549   33.1893   47.1567 H   0  0  0  0  0  0  0  0  0  0  0  0
   44.8790   33.8151   48.3042 H   0  0  0  0  0  0  0  0  0  0  0  0
   44.0795   32.4172   47.5651 H   0  0  0  0  0  0  0  0  0  0  0  0
   46.3742   32.5325   49.5326 H   0  0  0  0  0  0  0  0  0  0  0  0
   44.9731   31.3906   49.4498 H   0  0  0  0  0  0  0  0  0  0  0  0
   47.6057   31.3188   47.9735 H   0  0  0  0  0  0  0  0  0  0  0  0
   46.7332   30.0052   48.8219 H   0  0  0  0  0  0  0  0  0  0  0  0
   46.4474   29.6008   46.4652 H   0  0  0  0  0  0  0  0  0  0  0  0
   44.8911   30.2614   47.0468 H   0  0  0  0  0  0  0  0  0  0  0  0
   45.2753   31.5923   45.1697 H   0  0  0  0  0  0  0  0  0  0  0  0
   47.0498   31.5803   45.3877 H   0  0  0  0  0  0  0  0  0  0  0  0
  1 18  1  0
  2  1  2  0
  3  2  1  0
  4  5  1  0
  4  3  2  0
  5  6  2  0
  6  7  1  0
  6  1  1  0
  7 13  1  0
  8  7  1  0
  9  8  2  0
  9 10  1  0
 10 11  2  0
 10 12  1  0
 13 12  1  0
 13 14  2  0
 15  9  1  0
 16 21  2  0
 17 16  1  0
 18 17  2  0
 18 19  1  0
 19 20  2  0
 20 21  1  0
 20 22  1  0
 22 23  1  0
 23 24  1  0
 25 24  1  0
 26 25  1  0
 27 22  1  0
 27 26  1  0
  2 28  1  0
  3 29  1  0
  4 30  1  0
  5 31  1  0
  8 32  1  0
 12 33  1  0
 15 34  1  0
 15 35  1  0
 15 36  1  0
 16 37  1  0
 17 38  1  0
 22 39  1  0
 23 40  1  0
 23 41  1  0
 24 42  1  0
 24 43  1  0
 25 44  1  0
 25 45  1  0
 26 46  1  0
 26 47  1  0
 27 48  1  0
 27 49  1  0
M  ISO  8  28  14  29  14  30  14  31  14  32  14  33   9  34   8  35   8
M  ISO  8  36   8  37  14  38  14  39  13  40  13  41  13  42  13  43  13
M  ISO  6  44  13  45  13  46  13  47  13  48  13  49  13
M  END
>  <minimizedAffinity>  (1) 
-7.71935654

>  <minimizedRMSD>  (1) 
0.321992606

$$$$
