
     RDKit          3D

 40 43  0  0  0  0  0  0  0  0999 V2000
   46.4020   34.6580   42.1920 C   0  0  0  0  0  0  0  0  0  0  0  0
   47.7130   35.0100   42.0500 C   0  0  0  0  0  0  0  0  0  0  0  0
   48.4130   34.8050   40.8610 C   0  0  0  0  0  0  0  0  0  0  0  0
   47.7520   34.2150   39.7630 C   0  0  0  0  0  0  0  0  0  0  0  0
   46.4370   33.8660   39.9160 C   0  0  0  0  0  0  0  0  0  0  0  0
   45.7850   34.0890   41.1170 C   0  0  0  0  0  0  0  0  0  0  0  0
   44.3870   36.1370   45.0120 C   0  0  0  0  0  0  0  0  0  0  0  0
   44.9510   36.0030   43.7450 C   0  0  0  0  0  0  0  0  0  0  0  0
   45.7560   34.9120   43.4750 C   0  0  0  0  0  0  0  0  0  0  0  0
   45.9600   34.0220   44.4540 N   0  0  0  0  0  0  0  0  0  0  0  0
   45.3970   34.1740   45.6910 C   0  0  0  0  0  0  0  0  0  0  0  0
   44.6180   35.2320   45.9490 N   0  0  0  0  0  0  0  0  0  0  0  0
   45.7180   33.1270   46.6310 N   0  0  0  0  0  0  0  0  0  0  0  0
   45.2050   32.5720   47.7300 C   0  0  0  0  0  0  0  0  0  0  0  0
   46.0780   31.5710   48.1310 C   0  0  0  0  0  0  0  0  0  0  0  0
   47.1110   31.5470   47.2480 N   0  0  0  0  0  0  0  0  0  0  0  0
   46.8890   32.5150   46.3160 C   0  0  0  0  0  0  0  0  0  0  0  0
   44.4200   33.7090   41.2240 N   0  0  0  0  0  0  0  0  0  0  0  0
   43.5970   34.6650   40.6780 C   0  0  0  0  0  0  0  0  0  0  0  0
   42.2180   34.5000   40.6740 C   0  0  0  0  0  0  0  0  0  0  0  0
   41.7120   33.3470   41.2350 C   0  0  0  0  0  0  0  0  0  0  0  0
   40.4710   33.1260   41.2690 O   0  0  0  0  0  0  0  0  0  0  0  0
   42.5440   32.4320   41.7600 N   0  0  0  0  0  0  0  0  0  0  0  0
   43.8760   32.6080   41.7550 C   0  0  0  0  0  0  0  0  0  0  0  0
   44.7270   31.8140   42.2190 O   0  0  0  0  0  0  0  0  0  0  0  0
   41.3010   35.5180   40.0900 C   0  0  0  0  0  0  0  0  0  0  0  0
   48.2350   35.4707   42.9016 H   0  0  0  0  0  0  0  0  0  0  0  0
   49.4695   35.1003   40.7802 H   0  0  0  0  0  0  0  0  0  0  0  0
   48.2775   34.0406   38.8125 H   0  0  0  0  0  0  0  0  0  0  0  0
   45.8940   33.4047   39.0780 H   0  0  0  0  0  0  0  0  0  0  0  0
   43.7448   37.0018   45.2349 H   0  0  0  0  0  0  0  0  0  0  0  0
   44.7578   36.7572   42.9679 H   0  0  0  0  0  0  0  0  0  0  0  0
   44.2649   32.8552   48.2260 H   0  0  0  0  0  0  0  0  0  0  0  0
   45.9561   30.9152   49.0057 H   0  0  0  0  0  0  0  0  0  0  0  0
   47.5399   32.7572   45.4630 H   0  0  0  0  0  0  0  0  0  0  0  0
   44.0363   35.5726   40.2385 H   0  0  0  0  0  0  0  0  0  0  0  0
   42.1515   31.5754   42.1761 H   0  0  0  0  0  0  0  0  0  0  0  0
   40.8031   36.0708   40.9003 H   0  0  0  0  0  0  0  0  0  0  0  0
   41.8787   36.2187   39.4692 H   0  0  0  0  0  0  0  0  0  0  0  0
   40.5440   35.0164   39.4692 H   0  0  0  0  0  0  0  0  0  0  0  0
  1  9  1  0
  2  1  2  0
  3  2  1  0
  4  5  1  0
  4  3  2  0
  5  6  2  0
  6 18  1  0
  6  1  1  0
  7 12  2  0
  8  7  1  0
  9  8  2  0
  9 10  1  0
 10 11  2  0
 11 12  1  0
 11 13  1  0
 13 14  1  0
 14 15  2  0
 16 15  1  0
 17 13  1  0
 17 16  2  0
 18 24  1  0
 19 18  1  0
 20 19  2  0
 20 21  1  0
 21 22  2  0
 21 23  1  0
 24 23  1  0
 24 25  2  0
 26 20  1  0
  2 27  1  0
  3 28  1  0
  4 29  1  0
  5 30  1  0
  7 31  1  0
  8 32  1  0
 14 33  1  0
 15 34  1  0
 17 35  1  0
 19 36  1  0
 23 37  1  0
 26 38  1  0
 26 39  1  0
 26 40  1  0
M  ISO  8  27  14  28  14  29  14  30  14  31  14  32  14  33  14  34  14
M  ISO  6  35  14  36  14  37   9  38   8  39   8  40   8
M  END
>  <minimizedAffinity>  (1) 
-7.7053628

>  <minimizedRMSD>  (1) 
0.0726956427

$$$$
