
     RDKit          3D

 34 36  0  0  0  0  0  0  0  0999 V2000
   46.4330   34.6560   42.1780 C   0  0  0  0  0  0  0  0  0  0  0  0
   47.7380   35.0260   42.0520 C   0  0  0  0  0  0  0  0  0  0  0  0
   48.4360   34.8460   40.8440 C   0  0  0  0  0  0  0  0  0  0  0  0
   47.7810   34.2730   39.7390 C   0  0  0  0  0  0  0  0  0  0  0  0
   46.4740   33.9130   39.8980 C   0  0  0  0  0  0  0  0  0  0  0  0
   45.8100   34.1020   41.0990 C   0  0  0  0  0  0  0  0  0  0  0  0
   44.4500   33.7090   41.2020 N   0  0  0  0  0  0  0  0  0  0  0  0
   43.6310   34.6720   40.6720 C   0  0  0  0  0  0  0  0  0  0  0  0
   42.2430   34.4950   40.6670 C   0  0  0  0  0  0  0  0  0  0  0  0
   41.7440   33.3200   41.2150 C   0  0  0  0  0  0  0  0  0  0  0  0
   40.5070   33.1040   41.2390 O   0  0  0  0  0  0  0  0  0  0  0  0
   42.5960   32.4060   41.7230 N   0  0  0  0  0  0  0  0  0  0  0  0
   43.9190   32.5940   41.7180 C   0  0  0  0  0  0  0  0  0  0  0  0
   44.7800   31.8050   42.1670 O   0  0  0  0  0  0  0  0  0  0  0  0
   41.3180   35.5100   40.1030 C   0  0  0  0  0  0  0  0  0  0  0  0
   44.4250   36.0690   45.0360 C   0  0  0  0  0  0  0  0  0  0  0  0
   44.9850   35.9700   43.7620 C   0  0  0  0  0  0  0  0  0  0  0  0
   45.7900   34.8800   43.4650 C   0  0  0  0  0  0  0  0  0  0  0  0
   45.9920   33.9660   44.4330 N   0  0  0  0  0  0  0  0  0  0  0  0
   45.4350   34.0860   45.6670 C   0  0  0  0  0  0  0  0  0  0  0  0
   44.6510   35.1460   45.9580 N   0  0  0  0  0  0  0  0  0  0  0  0
   45.8080   32.7780   46.8380 S   0  0  0  0  0  0  0  0  0  0  0  0
   48.2564   35.4746   42.9122 H   0  0  0  0  0  0  0  0  0  0  0  0
   49.4895   35.1521   40.7639 H   0  0  0  0  0  0  0  0  0  0  0  0
   48.3025   34.1207   38.7825 H   0  0  0  0  0  0  0  0  0  0  0  0
   45.9349   33.4619   39.0519 H   0  0  0  0  0  0  0  0  0  0  0  0
   44.0672   35.5887   40.2484 H   0  0  0  0  0  0  0  0  0  0  0  0
   42.2158   31.5379   42.1265 H   0  0  0  0  0  0  0  0  0  0  0  0
   40.8242   36.0519   40.9230 H   0  0  0  0  0  0  0  0  0  0  0  0
   41.8861   36.2201   39.4840 H   0  0  0  0  0  0  0  0  0  0  0  0
   40.5584   35.0101   39.4840 H   0  0  0  0  0  0  0  0  0  0  0  0
   43.7841   36.9294   45.2789 H   0  0  0  0  0  0  0  0  0  0  0  0
   44.7912   36.7441   43.0049 H   0  0  0  0  0  0  0  0  0  0  0  0
   45.6718   33.2556   48.1148 H   0  0  0  0  0  0  0  0  0  0  0  0
  1 18  1  0
  2  1  2  0
  3  2  1  0
  4  5  1  0
  4  3  2  0
  5  6  2  0
  6  7  1  0
  6  1  1  0
  7 13  1  0
  8  7  1  0
  9  8  2  0
  9 10  1  0
 10 11  2  0
 10 12  1  0
 13 12  1  0
 13 14  2  0
 15  9  1  0
 16 21  2  0
 17 16  1  0
 18 17  2  0
 18 19  1  0
 19 20  2  0
 20 21  1  0
 20 22  1  0
  2 23  1  0
  3 24  1  0
  4 25  1  0
  5 26  1  0
  8 27  1  0
 12 28  1  0
 15 29  1  0
 15 30  1  0
 15 31  1  0
 16 32  1  0
 17 33  1  0
 22 34  1  0
M  ISO  8  23  14  24  14  25  14  26  14  27  14  28   9  29   8  30   8
M  ISO  4  31   8  32  14  33  14  34  11
M  END
>  <minimizedAffinity>  (1) 
-6.60658264

>  <minimizedRMSD>  (1) 
0.0472655967

$$$$
