
     RDKit          3D

 30 32  0  0  1  0  0  0  0  0999 V2000
   46.0890   33.6620   45.4820 C   0  0  2  0  0  0  0  0  0  0  0  0
   44.9790   34.6730   45.6080 C   0  0  0  0  0  0  0  0  0  0  0  0
   44.7400   35.5440   44.4820 C   0  0  0  0  0  0  0  0  0  0  0  0
   45.5530   35.4370   43.2710 C   0  0  1  0  0  0  0  0  0  0  0  0
   46.6890   34.4950   43.3140 C   0  0  0  0  0  0  0  0  0  0  0  0
   46.3070   33.2460   44.0620 C   0  0  0  0  0  0  0  0  0  0  0  0
   45.3010   32.8200   47.6620 C   0  0  0  0  0  0  0  0  0  0  0  0
   45.8430   32.5480   46.4060 C   0  0  0  0  0  0  0  0  0  0  0  0
   46.1440   31.1940   46.1000 C   0  0  0  0  0  0  0  0  0  0  0  0
   45.8910   30.2420   47.0400 N   0  0  0  0  0  0  0  0  0  0  0  0
   45.3630   30.5500   48.2510 C   0  0  0  0  0  0  0  0  0  0  0  0
   45.0710   31.8350   48.5580 N   0  0  0  0  0  0  0  0  0  0  0  0
   44.6190   35.1120   42.1800 N   0  0  0  0  0  0  0  0  0  0  0  0
   44.8620   34.5130   40.9950 C   0  0  0  0  0  0  0  0  0  0  0  0
   43.7260   34.4150   40.3060 N   0  0  0  0  0  0  0  0  0  0  0  0
   42.7350   34.9550   41.0490 C   0  0  0  0  0  0  0  0  0  0  0  0
   43.3170   35.3670   42.1790 N   0  0  0  0  0  0  0  0  0  0  0  0
   47.0429   34.1222   45.7793 H   0  0  0  0  0  0  0  0  0  0  0  0
   44.3735   34.7447   46.5236 H   0  0  0  0  0  0  0  0  0  0  0  0
   43.9386   36.2956   44.5353 H   0  0  0  0  0  0  0  0  0  0  0  0
   46.0680   36.3985   43.1287 H   0  0  0  0  0  0  0  0  0  0  0  0
   46.9777   34.2282   42.2866 H   0  0  0  0  0  0  0  0  0  0  0  0
   47.5323   34.9764   43.8307 H   0  0  0  0  0  0  0  0  0  0  0  0
   45.3840   32.8180   43.6438 H   0  0  0  0  0  0  0  0  0  0  0  0
   47.0894   32.4766   43.9847 H   0  0  0  0  0  0  0  0  0  0  0  0
   45.0555   33.8585   47.9289 H   0  0  0  0  0  0  0  0  0  0  0  0
   46.5723   30.9204   45.1245 H   0  0  0  0  0  0  0  0  0  0  0  0
   45.1718   29.7533   48.9850 H   0  0  0  0  0  0  0  0  0  0  0  0
   45.8457   34.1604   40.6514 H   0  0  0  0  0  0  0  0  0  0  0  0
   41.6717   35.0381   40.7799 H   0  0  0  0  0  0  0  0  0  0  0  0
  1  2  1  0
  1  8  1  0
  3  2  2  0
  4  5  1  0
  4  3  1  0
  5  6  1  0
  6  1  1  0
  7 12  2  0
  8  7  1  0
  9  8  2  0
  9 10  1  0
 10 11  2  0
 11 12  1  0
 13  4  1  0
 14 13  1  0
 15 14  2  0
 15 16  1  0
 16 17  2  0
 17 13  1  0
  1 18  1  1
  2 19  1  0
  3 20  1  0
  4 21  1  6
  5 22  1  0
  5 23  1  0
  6 24  1  0
  6 25  1  0
  7 26  1  0
  9 27  1  0
 11 28  1  0
 14 29  1  0
 16 30  1  0
M  ISO  8  18  13  19  13  20  13  21  13  22  13  23  13  24  13  25  13
M  ISO  5  26  14  27  14  28  14  29  14  30  14
M  END
>  <minimizedAffinity>  (1) 
-5.07447815

>  <minimizedRMSD>  (1) 
0.432522684

$$$$
