
     RDKit          3D

 31 32  0  0  1  0  0  0  0  0999 V2000
   46.2440   33.2200   46.0090 C   0  0  2  0  0  0  0  0  0  0  0  0
   45.1090   34.2220   45.9460 C   0  0  0  0  0  0  0  0  0  0  0  0
   44.9720   34.9800   44.7170 C   0  0  0  0  0  0  0  0  0  0  0  0
   45.9000   34.7740   43.6030 C   0  0  1  0  0  0  0  0  0  0  0  0
   47.0400   33.8430   43.8470 C   0  0  0  0  0  0  0  0  0  0  0  0
   46.5530   32.6700   44.6540 C   0  0  0  0  0  0  0  0  0  0  0  0
   45.7080   32.6000   48.3500 C   0  0  0  0  0  0  0  0  0  0  0  0
   45.9190   32.1900   47.0300 C   0  0  0  0  0  0  0  0  0  0  0  0
   45.8260   30.8020   46.7260 C   0  0  0  0  0  0  0  0  0  0  0  0
   45.5380   29.9490   47.7350 N   0  0  0  0  0  0  0  0  0  0  0  0
   45.3380   30.3780   49.0070 C   0  0  0  0  0  0  0  0  0  0  0  0
   45.4260   31.6980   49.2980 N   0  0  0  0  0  0  0  0  0  0  0  0
   45.2100   34.3690   42.3930 N   0  0  0  0  0  0  0  0  0  0  0  0
   43.8550   34.7700   42.2330 C   0  0  0  0  0  0  0  0  0  0  0  0
   43.3250   35.7650   42.8640 N   0  0  0  0  0  0  0  0  0  0  0  0
   42.9450   34.1100   41.3570 N   0  0  0  0  0  0  0  0  0  0  0  0
   43.8350   36.3670   43.5470 H   0  0  0  0  0  0  0  0  0  0  0  0
   47.1757   33.7095   46.3288 H   0  0  0  0  0  0  0  0  0  0  0  0
   44.4215   34.3676   46.7923 H   0  0  0  0  0  0  0  0  0  0  0  0
   44.1619   35.7179   44.6206 H   0  0  0  0  0  0  0  0  0  0  0  0
   46.3511   35.7703   43.4853 H   0  0  0  0  0  0  0  0  0  0  0  0
   47.4385   33.4884   42.8850 H   0  0  0  0  0  0  0  0  0  0  0  0
   47.8354   34.3670   44.3972 H   0  0  0  0  0  0  0  0  0  0  0  0
   45.6494   32.2385   44.1988 H   0  0  0  0  0  0  0  0  0  0  0  0
   47.3027   31.8664   44.7004 H   0  0  0  0  0  0  0  0  0  0  0  0
   45.7739   33.6668   48.6102 H   0  0  0  0  0  0  0  0  0  0  0  0
   45.9837   30.4347   45.7012 H   0  0  0  0  0  0  0  0  0  0  0  0
   45.1045   29.6539   49.8015 H   0  0  0  0  0  0  0  0  0  0  0  0
   45.6866   33.8085   41.6722 H   0  0  0  0  0  0  0  0  0  0  0  0
   41.9731   34.4418   41.2788 H   0  0  0  0  0  0  0  0  0  0  0  0
   43.2593   33.3012   40.8021 H   0  0  0  0  0  0  0  0  0  0  0  0
  1  8  1  0
  2  1  1  0
  3  2  2  0
  4  5  1  0
  4  3  1  0
  5  6  1  0
  6  1  1  0
  7 12  2  0
  8  7  1  0
  9  8  2  0
  9 10  1  0
 10 11  2  0
 11 12  1  0
 13  4  1  0
 14 13  1  0
 14 15  2  0
 15 17  1  0
 16 14  1  0
  1 18  1  1
  2 19  1  0
  3 20  1  0
  4 21  1  6
  5 22  1  0
  5 23  1  0
  6 24  1  0
  6 25  1  0
  7 26  1  0
  9 27  1  0
 11 28  1  0
 13 29  1  0
 16 30  1  0
 16 31  1  0
M  ISO  8  18  13  19  13  20  13  21  13  22  13  23  13  24  13  25  13
M  ISO  3  26  14  27  14  28  14
M  END
>  <minimizedAffinity>  (1) 
-5.11455631

>  <minimizedRMSD>  (1) 
1.1374433

$$$$
