
     RDKit          3D

 27 28  0  0  1  0  0  0  0  0999 V2000
   45.9470   33.7340   45.5210 C   0  0  2  0  0  0  0  0  0  0  0  0
   44.8710   34.7620   45.7920 C   0  0  0  0  0  0  0  0  0  0  0  0
   44.5690   35.6900   44.7220 C   0  0  0  0  0  0  0  0  0  0  0  0
   45.2820   35.6250   43.4470 C   0  0  1  0  0  0  0  0  0  0  0  0
   46.3740   34.6160   43.3340 C   0  0  0  0  0  0  0  0  0  0  0  0
   45.9570   33.3700   44.0660 C   0  0  0  0  0  0  0  0  0  0  0  0
   45.2390   32.8180   47.7010 C   0  0  0  0  0  0  0  0  0  0  0  0
   45.7670   32.5950   46.4280 C   0  0  0  0  0  0  0  0  0  0  0  0
   46.1190   31.2710   46.0930 C   0  0  0  0  0  0  0  0  0  0  0  0
   45.9320   30.2830   47.0100 N   0  0  0  0  0  0  0  0  0  0  0  0
   45.4160   30.5430   48.2370 C   0  0  0  0  0  0  0  0  0  0  0  0
   45.0790   31.7890   48.5690 N   0  0  0  0  0  0  0  0  0  0  0  0
   44.2670   35.5680   42.3240 C   0  0  0  0  0  0  0  0  0  0  0  0
   46.9462   34.1439   45.7296 H   0  0  0  0  0  0  0  0  0  0  0  0
   44.3429   34.8028   46.7561 H   0  0  0  0  0  0  0  0  0  0  0  0
   43.7923   36.4546   44.8705 H   0  0  0  0  0  0  0  0  0  0  0  0
   45.8702   36.5514   43.3712 H   0  0  0  0  0  0  0  0  0  0  0  0
   46.5523   34.3806   42.2744 H   0  0  0  0  0  0  0  0  0  0  0  0
   47.3004   35.0157   43.7721 H   0  0  0  0  0  0  0  0  0  0  0  0
   44.9540   33.0540   43.7434 H   0  0  0  0  0  0  0  0  0  0  0  0
   46.6416   32.5333   43.8630 H   0  0  0  0  0  0  0  0  0  0  0  0
   44.9507   33.8360   48.0019 H   0  0  0  0  0  0  0  0  0  0  0  0
   46.5393   31.0399   45.1031 H   0  0  0  0  0  0  0  0  0  0  0  0
   45.2755   29.7249   48.9587 H   0  0  0  0  0  0  0  0  0  0  0  0
   43.2537   35.5111   42.7482 H   0  0  0  0  0  0  0  0  0  0  0  0
   44.3548   36.4725   41.7042 H   0  0  0  0  0  0  0  0  0  0  0  0
   44.4555   34.6790   41.7042 H   0  0  0  0  0  0  0  0  0  0  0  0
  1  2  1  0
  1  8  1  0
  3  2  2  0
  4  3  1  0
  5  4  1  0
  5  6  1  0
  6  1  1  0
  7 12  2  0
  8  7  1  0
  9  8  2  0
  9 10  1  0
 10 11  2  0
 11 12  1  0
 13  4  1  0
  1 14  1  1
  2 15  1  0
  3 16  1  0
  4 17  1  6
  5 18  1  0
  5 19  1  0
  6 20  1  0
  6 21  1  0
  7 22  1  0
  9 23  1  0
 11 24  1  0
 13 25  1  0
 13 26  1  0
 13 27  1  0
M  ISO  8  14  13  15  13  16  13  17  13  18  13  19  13  20  13  21  13
M  ISO  6  22  14  23  14  24  14  25   8  26   8  27   8
M  END
>  <minimizedAffinity>  (1) 
-4.55802774

>  <minimizedRMSD>  (1) 
0.315951407

$$$$
