
     RDKit          3D

 37 39  0  0  1  0  0  0  0  0999 V2000
   47.4630   33.5190   43.7060 C   0  0  2  0  0  0  0  0  0  0  0  0
   47.4570   32.0140   43.6000 C   0  0  0  0  0  0  0  0  0  0  0  0
   46.6380   31.2620   44.5250 C   0  0  0  0  0  0  0  0  0  0  0  0
   45.8450   31.9580   45.5180 C   0  0  2  0  0  0  0  0  0  0  0  0
   46.0250   33.4110   45.6290 C   0  0  0  0  0  0  0  0  0  0  0  0
   46.1790   34.0330   44.2680 C   0  0  0  0  0  0  0  0  0  0  0  0
   47.3000   33.5270   41.2460 C   0  0  0  0  0  0  0  0  0  0  0  0
   47.8250   34.1070   42.4010 C   0  0  0  0  0  0  0  0  0  0  0  0
   48.6900   35.2180   42.2630 C   0  0  0  0  0  0  0  0  0  0  0  0
   48.9660   35.6640   41.0130 N   0  0  0  0  0  0  0  0  0  0  0  0
   48.4410   35.0820   39.9060 C   0  0  0  0  0  0  0  0  0  0  0  0
   47.6120   34.0170   40.0210 N   0  0  0  0  0  0  0  0  0  0  0  0
   45.9970   31.3250   46.8270 N   0  0  0  0  0  0  0  0  0  0  0  0
   47.4010   31.3030   47.2110 C   0  0  0  0  0  0  0  0  0  0  0  0
   47.5170   30.5210   48.5030 C   0  0  0  0  0  0  0  0  0  0  0  0
   46.9630   31.3360   49.4880 O   0  0  0  0  0  0  0  0  0  0  0  0
   45.6430   31.5710   49.2070 C   0  0  0  0  0  0  0  0  0  0  0  0
   45.3470   32.1420   47.8640 C   0  0  0  0  0  0  0  0  0  0  0  0
   48.2329   33.8362   44.4247 H   0  0  0  0  0  0  0  0  0  0  0  0
   48.0612   31.5008   42.8373 H   0  0  0  0  0  0  0  0  0  0  0  0
   46.6172   30.1633   44.4747 H   0  0  0  0  0  0  0  0  0  0  0  0
   44.8174   31.8568   45.1387 H   0  0  0  0  0  0  0  0  0  0  0  0
   45.1467   33.8466   46.1279 H   0  0  0  0  0  0  0  0  0  0  0  0
   46.9346   33.6111   46.2143 H   0  0  0  0  0  0  0  0  0  0  0  0
   46.2141   35.1291   44.3536 H   0  0  0  0  0  0  0  0  0  0  0  0
   45.3305   33.7765   43.6167 H   0  0  0  0  0  0  0  0  0  0  0  0
   46.6253   32.6623   41.3301 H   0  0  0  0  0  0  0  0  0  0  0  0
   49.1269   35.7068   43.1463 H   0  0  0  0  0  0  0  0  0  0  0  0
   48.6897   35.4769   38.9099 H   0  0  0  0  0  0  0  0  0  0  0  0
   47.9962   30.8161   46.4245 H   0  0  0  0  0  0  0  0  0  0  0  0
   47.7774   32.3275   47.3476 H   0  0  0  0  0  0  0  0  0  0  0  0
   46.9603   29.5751   48.4301 H   0  0  0  0  0  0  0  0  0  0  0  0
   48.5623   30.2637   48.7294 H   0  0  0  0  0  0  0  0  0  0  0  0
   45.1069   30.6141   49.2901 H   0  0  0  0  0  0  0  0  0  0  0  0
   45.3206   32.3357   49.9290 H   0  0  0  0  0  0  0  0  0  0  0  0
   45.7292   33.1721   47.8117 H   0  0  0  0  0  0  0  0  0  0  0  0
   44.2594   32.1444   47.6993 H   0  0  0  0  0  0  0  0  0  0  0  0
  1  6  1  0
  2  1  1  0
  2  3  2  0
  3  4  1  0
  4  5  1  0
  4 13  1  0
  6  5  1  0
  7  8  2  0
  8  1  1  0
  9  8  1  0
 10  9  2  0
 11 12  2  0
 11 10  1  0
 12  7  1  0
 13 14  1  0
 13 18  1  0
 14 15  1  0
 15 16  1  0
 17 16  1  0
 18 17  1  0
  1 19  1  1
  2 20  1  0
  3 21  1  0
  4 22  1  6
  5 23  1  0
  5 24  1  0
  6 25  1  0
  6 26  1  0
  7 27  1  0
  9 28  1  0
 11 29  1  0
 14 30  1  0
 14 31  1  0
 15 32  1  0
 15 33  1  0
 17 34  1  0
 17 35  1  0
 18 36  1  0
 18 37  1  0
M  ISO  8  19  13  20  13  21  13  22  13  23  13  24  13  25  13  26  13
M  ISO  8  27  14  28  14  29  14  30  13  31  13  32  13  33  13  34  13
M  ISO  3  35  13  36  13  37  13
M  END
>  <minimizedAffinity>  (1) 
-4.63111401

>  <minimizedRMSD>  (1) 
7.1195097

$$$$
