
     RDKit          3D

 26 27  0  0  1  0  0  0  0  0999 V2000
   45.9600   33.8880   45.3210 C   0  0  2  0  0  0  0  0  0  0  0  0
   44.8590   34.8910   45.5820 C   0  0  0  0  0  0  0  0  0  0  0  0
   44.5440   35.8250   44.5280 C   0  0  0  0  0  0  0  0  0  0  0  0
   45.2730   35.7920   43.2590 C   0  0  1  0  0  0  0  0  0  0  0  0
   46.3850   34.8240   43.1420 C   0  0  0  0  0  0  0  0  0  0  0  0
   46.0520   33.5490   43.8640 C   0  0  0  0  0  0  0  0  0  0  0  0
   45.2750   32.9340   47.4800 C   0  0  0  0  0  0  0  0  0  0  0  0
   45.7940   32.7270   46.2020 C   0  0  0  0  0  0  0  0  0  0  0  0
   46.1510   31.4140   45.8300 C   0  0  0  0  0  0  0  0  0  0  0  0
   45.9700   30.4160   46.7360 N   0  0  0  0  0  0  0  0  0  0  0  0
   45.4640   30.6450   47.9740 C   0  0  0  0  0  0  0  0  0  0  0  0
   45.1170   31.9000   48.3420 N   0  0  0  0  0  0  0  0  0  0  0  0
   44.2900   35.5400   42.2140 N   0  0  0  0  0  0  0  0  0  0  0  0
   46.9355   34.3312   45.5698 H   0  0  0  0  0  0  0  0  0  0  0  0
   44.3182   34.9081   46.5397 H   0  0  0  0  0  0  0  0  0  0  0  0
   43.7482   36.5691   44.6797 H   0  0  0  0  0  0  0  0  0  0  0  0
   45.7812   36.7639   43.1740 H   0  0  0  0  0  0  0  0  0  0  0  0
   46.5616   34.6024   42.0791 H   0  0  0  0  0  0  0  0  0  0  0  0
   47.2871   35.2628   43.5932 H   0  0  0  0  0  0  0  0  0  0  0  0
   45.0909   33.1512   43.5063 H   0  0  0  0  0  0  0  0  0  0  0  0
   46.8197   32.7818   43.6849 H   0  0  0  0  0  0  0  0  0  0  0  0
   44.9902   33.9495   47.7924 H   0  0  0  0  0  0  0  0  0  0  0  0
   46.5650   31.2028   44.8330 H   0  0  0  0  0  0  0  0  0  0  0  0
   45.3358   29.8101   48.6787 H   0  0  0  0  0  0  0  0  0  0  0  0
   43.3835   35.3076   42.6442 H   0  0  0  0  0  0  0  0  0  0  0  0
   44.1869   36.3818   41.6294 H   0  0  0  0  0  0  0  0  0  0  0  0
  1  2  1  0
  1  8  1  0
  3  2  2  0
  4  3  1  0
  5  4  1  0
  5  6  1  0
  6  1  1  0
  7 12  2  0
  8  7  1  0
  9  8  2  0
  9 10  1  0
 10 11  2  0
 11 12  1  0
 13  4  1  0
  1 14  1  1
  2 15  1  0
  3 16  1  0
  4 17  1  6
  5 18  1  0
  5 19  1  0
  6 20  1  0
  6 21  1  0
  7 22  1  0
  9 23  1  0
 11 24  1  0
 13 25  1  0
 13 26  1  0
M  ISO  8  14  13  15  13  16  13  17  13  18  13  19  13  20  13  21  13
M  ISO  5  22  14  23  14  24  14  25   5  26   5
M  END
>  <minimizedAffinity>  (1) 
-4.34722376

>  <minimizedRMSD>  (1) 
0.0781829283

$$$$
