
     RDKit          3D

 25 26  0  0  1  0  0  0  0  0999 V2000
   45.9290   33.9120   45.2700 C   0  0  2  0  0  0  0  0  0  0  0  0
   44.8670   34.9330   45.5510 C   0  0  0  0  0  0  0  0  0  0  0  0
   44.5130   35.8560   44.5000 C   0  0  0  0  0  0  0  0  0  0  0  0
   45.1830   35.7800   43.2020 C   0  0  1  0  0  0  0  0  0  0  0  0
   46.3560   34.8680   43.1170 C   0  0  0  0  0  0  0  0  0  0  0  0
   46.0200   33.5740   43.8150 C   0  0  0  0  0  0  0  0  0  0  0  0
   45.2650   32.9480   47.4530 C   0  0  0  0  0  0  0  0  0  0  0  0
   45.7680   32.7630   46.1660 C   0  0  0  0  0  0  0  0  0  0  0  0
   46.1160   31.4390   45.7900 C   0  0  0  0  0  0  0  0  0  0  0  0
   45.9430   30.4350   46.6900 N   0  0  0  0  0  0  0  0  0  0  0  0
   45.4490   30.6660   47.9320 C   0  0  0  0  0  0  0  0  0  0  0  0
   45.1130   31.9230   48.3040 N   0  0  0  0  0  0  0  0  0  0  0  0
   43.9620   35.1660   41.9860 S   0  0  0  0  0  0  0  0  0  0  0  0
   46.9163   34.3409   45.4965 H   0  0  0  0  0  0  0  0  0  0  0  0
   44.3713   34.9770   46.5320 H   0  0  0  0  0  0  0  0  0  0  0  0
   43.7387   36.6174   44.6750 H   0  0  0  0  0  0  0  0  0  0  0  0
   45.5647   36.7945   43.0146 H   0  0  0  0  0  0  0  0  0  0  0  0
   46.5923   34.6677   42.0615 H   0  0  0  0  0  0  0  0  0  0  0  0
   47.2275   35.3358   43.5982 H   0  0  0  0  0  0  0  0  0  0  0  0
   45.0593   33.1802   43.4517 H   0  0  0  0  0  0  0  0  0  0  0  0
   46.7782   32.8003   43.6240 H   0  0  0  0  0  0  0  0  0  0  0  0
   44.9856   33.9609   47.7787 H   0  0  0  0  0  0  0  0  0  0  0  0
   46.5185   31.2292   44.7880 H   0  0  0  0  0  0  0  0  0  0  0  0
   45.3215   29.8313   48.6370 H   0  0  0  0  0  0  0  0  0  0  0  0
   42.8901   34.6270   42.6474 H   0  0  0  0  0  0  0  0  0  0  0  0
  1  2  1  0
  1  8  1  0
  3  2  2  0
  4  3  1  0
  5  4  1  0
  5  6  1  0
  6  1  1  0
  7 12  2  0
  8  7  1  0
  9  8  2  0
  9 10  1  0
 10 11  2  0
 11 12  1  0
 13  4  1  0
  1 14  1  1
  2 15  1  0
  3 16  1  0
  4 17  1  6
  5 18  1  0
  5 19  1  0
  6 20  1  0
  6 21  1  0
  7 22  1  0
  9 23  1  0
 11 24  1  0
 13 25  1  0
M  ISO  8  14  13  15  13  16  13  17  13  18  13  19  13  20  13  21  13
M  ISO  4  22  14  23  14  24  14  25  11
M  END
>  <minimizedAffinity>  (1) 
-4.34908104

>  <minimizedRMSD>  (1) 
0.0836044997

$$$$
