
     RDKit          3D

 36 37  0  0  1  0  0  0  0  0999 V2000
   46.4560   32.7690   45.6160 C   0  0  2  0  0  0  0  0  0  0  0  0
   45.6090   33.9860   45.9020 C   0  0  0  0  0  0  0  0  0  0  0  0
   44.9070   34.5890   44.7870 C   0  0  0  0  0  0  0  0  0  0  0  0
   45.0360   34.0130   43.4480 C   0  0  2  0  0  0  0  0  0  0  0  0
   45.9430   32.8670   43.2850 C   0  0  0  0  0  0  0  0  0  0  0  0
   45.8210   31.9670   44.5200 C   0  0  0  0  0  0  0  0  0  0  0  0
   45.9920   32.3680   48.0170 C   0  0  0  0  0  0  0  0  0  0  0  0
   46.7120   32.0480   46.8660 C   0  0  0  0  0  0  0  0  0  0  0  0
   47.6740   31.0360   46.9650 C   0  0  0  0  0  0  0  0  0  0  0  0
   47.8690   30.4150   48.1560 N   0  0  0  0  0  0  0  0  0  0  0  0
   47.1540   30.7520   49.2500 C   0  0  0  0  0  0  0  0  0  0  0  0
   46.2270   31.7170   49.1790 N   0  0  0  0  0  0  0  0  0  0  0  0
   45.4170   35.0980   42.4530 C   0  0  0  0  0  0  0  0  0  0  0  0
   45.1800   36.4820   43.0420 C   0  0  0  0  0  0  0  0  0  0  0  0
   46.8730   35.0070   42.0690 C   0  0  0  0  0  0  0  0  0  0  0  0
   44.5900   35.0040   41.1920 C   0  0  0  0  0  0  0  0  0  0  0  0
   47.4510   33.0405   45.2335 H   0  0  0  0  0  0  0  0  0  0  0  0
   45.5280   34.3991   46.9183 H   0  0  0  0  0  0  0  0  0  0  0  0
   44.2786   35.4776   44.9467 H   0  0  0  0  0  0  0  0  0  0  0  0
   44.0377   33.5930   43.2560 H   0  0  0  0  0  0  0  0  0  0  0  0
   45.6653   32.2999   42.3843 H   0  0  0  0  0  0  0  0  0  0  0  0
   46.9793   33.2202   43.1784 H   0  0  0  0  0  0  0  0  0  0  0  0
   44.7656   31.7582   44.7492 H   0  0  0  0  0  0  0  0  0  0  0  0
   46.3007   30.9871   44.3794 H   0  0  0  0  0  0  0  0  0  0  0  0
   45.2263   33.1568   47.9793 H   0  0  0  0  0  0  0  0  0  0  0  0
   48.2670   30.7465   46.0849 H   0  0  0  0  0  0  0  0  0  0  0  0
   47.3328   30.2328   50.2031 H   0  0  0  0  0  0  0  0  0  0  0  0
   45.1906   36.4199   44.1402 H   0  0  0  0  0  0  0  0  0  0  0  0
   45.9743   37.1646   42.7057 H   0  0  0  0  0  0  0  0  0  0  0  0
   44.2038   36.8614   42.7057 H   0  0  0  0  0  0  0  0  0  0  0  0
   47.4904   34.9684   42.9786 H   0  0  0  0  0  0  0  0  0  0  0  0
   47.0391   34.0967   41.4742 H   0  0  0  0  0  0  0  0  0  0  0  0
   47.1512   35.8895   41.4742 H   0  0  0  0  0  0  0  0  0  0  0  0
   43.5293   34.8834   41.4573 H   0  0  0  0  0  0  0  0  0  0  0  0
   44.7179   35.9225   40.6003 H   0  0  0  0  0  0  0  0  0  0  0  0
   44.9207   34.1377   40.6003 H   0  0  0  0  0  0  0  0  0  0  0  0
  1  2  1  0
  1  8  1  0
  3  2  2  0
  4  3  1  0
  5  4  1  0
  5  6  1  0
  6  1  1  0
  7 12  2  0
  8  9  2  0
  8  7  1  0
  9 10  1  0
 10 11  2  0
 12 11  1  0
 13 14  1  0
 13  4  1  0
 15 13  1  0
 16 13  1  0
  1 17  1  6
  2 18  1  0
  3 19  1  0
  4 20  1  6
  5 21  1  0
  5 22  1  0
  6 23  1  0
  6 24  1  0
  7 25  1  0
  9 26  1  0
 11 27  1  0
 14 28  1  0
 14 29  1  0
 14 30  1  0
 15 31  1  0
 15 32  1  0
 15 33  1  0
 16 34  1  0
 16 35  1  0
 16 36  1  0
M  ISO  8  17  13  18  13  19  13  20  13  21  13  22  13  23  13  24  13
M  ISO  8  25  14  26  14  27  14  28   8  29   8  30   8  31   8  32   8
M  ISO  4  33   8  34   8  35   8  36   8
M  END
>  <minimizedAffinity>  (1) 
-4.48882389

>  <minimizedRMSD>  (1) 
1.9034934

$$$$
