
     RDKit          3D

 34 36  0  0  1  0  0  0  0  0999 V2000
   44.4920   33.6290   42.1350 C   0  0  2  0  0  0  0  0  0  0  0  0
   44.3340   35.1370   42.2460 C   0  0  0  0  0  0  0  0  0  0  0  0
   43.3810   35.7650   41.3710 C   0  0  0  0  0  0  0  0  0  0  0  0
   42.6050   34.9840   40.4260 C   0  0  1  0  0  0  0  0  0  0  0  0
   42.8890   33.5330   40.3510 C   0  0  0  0  0  0  0  0  0  0  0  0
   43.2140   32.9990   41.7150 C   0  0  0  0  0  0  0  0  0  0  0  0
   45.4590   33.9870   44.3610 C   0  0  0  0  0  0  0  0  0  0  0  0
   45.0970   33.1160   43.3510 C   0  0  0  0  0  0  0  0  0  0  0  0
   45.3570   31.7640   43.5740 C   0  0  0  0  0  0  0  0  0  0  0  0
   45.9320   31.3540   44.7240 N   0  0  0  0  0  0  0  0  0  0  0  0
   46.2760   32.2270   45.6930 C   0  0  0  0  0  0  0  0  0  0  0  0
   46.0350   33.5500   45.5040 N   0  0  0  0  0  0  0  0  0  0  0  0
   46.8820   31.7630   46.8940 N   0  0  0  0  0  0  0  0  0  0  0  0
   47.4880   32.5270   47.7880 N   0  0  0  0  0  0  0  0  0  0  0  0
   47.9510   31.7590   48.8120 C   0  0  0  0  0  0  0  0  0  0  0  0
   47.5870   30.4520   48.4900 C   0  0  0  0  0  0  0  0  0  0  0  0
   46.9170   30.4710   47.2840 C   0  0  0  0  0  0  0  0  0  0  0  0
   41.1170   35.1980   40.7580 C   0  0  0  0  0  0  0  0  0  0  0  0
   40.9050   35.5270   42.0720 F   0  0  0  0  0  0  0  0  0  0  0  0
   40.6780   36.2930   40.0040 F   0  0  0  0  0  0  0  0  0  0  0  0
   40.3820   34.0990   40.3530 F   0  0  0  0  0  0  0  0  0  0  0  0
   45.1922   33.3548   41.3322 H   0  0  0  0  0  0  0  0  0  0  0  0
   44.9241   35.7234   42.9657 H   0  0  0  0  0  0  0  0  0  0  0  0
   43.2381   36.8546   41.4189 H   0  0  0  0  0  0  0  0  0  0  0  0
   42.8972   35.3529   39.4317 H   0  0  0  0  0  0  0  0  0  0  0  0
   42.0056   33.0095   39.9565 H   0  0  0  0  0  0  0  0  0  0  0  0
   43.7498   33.3690   39.6861 H   0  0  0  0  0  0  0  0  0  0  0  0
   42.4137   33.2596   42.4232 H   0  0  0  0  0  0  0  0  0  0  0  0
   43.3043   31.9029   41.6961 H   0  0  0  0  0  0  0  0  0  0  0  0
   45.2739   35.0636   44.2320 H   0  0  0  0  0  0  0  0  0  0  0  0
   45.0907   31.0243   42.8046 H   0  0  0  0  0  0  0  0  0  0  0  0
   48.4969   32.0978   49.7048 H   0  0  0  0  0  0  0  0  0  0  0  0
   47.7981   29.5577   49.0947 H   0  0  0  0  0  0  0  0  0  0  0  0
   46.4961   29.6074   46.7482 H   0  0  0  0  0  0  0  0  0  0  0  0
  1  2  1  0
  1  8  1  0
  3  2  2  0
  4 18  1  0
  4  3  1  0
  5  4  1  0
  5  6  1  0
  6  1  1  0
  7 12  2  0
  8  9  2  0
  8  7  1  0
  9 10  1  0
 10 11  2  0
 11 13  1  0
 12 11  1  0
 13 17  1  0
 13 14  1  0
 14 15  2  0
 16 15  1  0
 17 16  2  0
 18 19  1  0
 20 18  1  0
 21 18  1  0
  1 22  1  6
  2 23  1  0
  3 24  1  0
  4 25  1  6
  5 26  1  0
  5 27  1  0
  6 28  1  0
  6 29  1  0
  7 30  1  0
  9 31  1  0
 15 32  1  0
 16 33  1  0
 17 34  1  0
M  ISO  8  22  13  23  13  24  13  25  13  26  13  27  13  28  13  29  13
M  ISO  5  30  14  31  14  32  14  33  14  34  14
M  END
>  <minimizedAffinity>  (1) 
-5.55343533

>  <minimizedRMSD>  (1) 
3.74667382

$$$$
