
     RDKit          3D

 34 36  0  0  1  0  0  0  0  0999 V2000
   44.9020   33.8430   42.1010 C   0  0  2  0  0  0  0  0  0  0  0  0
   44.4490   35.2520   42.4360 C   0  0  0  0  0  0  0  0  0  0  0  0
   43.4790   35.8570   41.5610 C   0  0  0  0  0  0  0  0  0  0  0  0
   42.9590   35.1390   40.4090 C   0  0  1  0  0  0  0  0  0  0  0  0
   43.5270   33.8030   40.1290 C   0  0  0  0  0  0  0  0  0  0  0  0
   43.8150   33.0910   41.4160 C   0  0  0  0  0  0  0  0  0  0  0  0
   45.7330   33.9880   44.4030 C   0  0  0  0  0  0  0  0  0  0  0  0
   45.4610   33.2180   43.2890 C   0  0  0  0  0  0  0  0  0  0  0  0
   45.7580   31.8580   43.3730 C   0  0  0  0  0  0  0  0  0  0  0  0
   46.2910   31.3220   44.5070 N   0  0  0  0  0  0  0  0  0  0  0  0
   46.5430   32.1180   45.5860 C   0  0  0  0  0  0  0  0  0  0  0  0
   46.2650   33.4470   45.5330 N   0  0  0  0  0  0  0  0  0  0  0  0
   47.0990   31.5790   46.7780 N   0  0  0  0  0  0  0  0  0  0  0  0
   47.4730   30.3330   47.1400 C   0  0  0  0  0  0  0  0  0  0  0  0
   47.9480   30.4550   48.4490 C   0  0  0  0  0  0  0  0  0  0  0  0
   47.8610   31.7340   48.8600 N   0  0  0  0  0  0  0  0  0  0  0  0
   47.3350   32.4100   47.8120 C   0  0  0  0  0  0  0  0  0  0  0  0
   41.4340   35.0240   40.5670 C   0  0  0  0  0  0  0  0  0  0  0  0
   41.0330   35.0750   41.8850 F   0  0  0  0  0  0  0  0  0  0  0  0
   40.8780   36.1480   39.9450 F   0  0  0  0  0  0  0  0  0  0  0  0
   40.9710   33.9210   39.8880 F   0  0  0  0  0  0  0  0  0  0  0  0
   45.7210   33.8512   41.3667 H   0  0  0  0  0  0  0  0  0  0  0  0
   44.8452   35.7886   43.3107 H   0  0  0  0  0  0  0  0  0  0  0  0
   43.1260   36.8782   41.7673 H   0  0  0  0  0  0  0  0  0  0  0  0
   43.2673   35.7365   39.5384 H   0  0  0  0  0  0  0  0  0  0  0  0
   42.8060   33.2161   39.5410 H   0  0  0  0  0  0  0  0  0  0  0  0
   44.4625   33.9189   39.5621 H   0  0  0  0  0  0  0  0  0  0  0  0
   42.9139   33.0729   42.0466 H   0  0  0  0  0  0  0  0  0  0  0  0
   44.1186   32.0507   41.2274 H   0  0  0  0  0  0  0  0  0  0  0  0
   45.5141   35.0657   44.3763 H   0  0  0  0  0  0  0  0  0  0  0  0
   45.5587   31.2068   42.5092 H   0  0  0  0  0  0  0  0  0  0  0  0
   47.4160   29.4169   46.5338 H   0  0  0  0  0  0  0  0  0  0  0  0
   48.3372   29.6246   49.0564 H   0  0  0  0  0  0  0  0  0  0  0  0
   47.1284   33.4904   47.8053 H   0  0  0  0  0  0  0  0  0  0  0  0
  1  2  1  0
  1  8  1  0
  3  2  2  0
  4 18  1  0
  4  3  1  0
  5  4  1  0
  5  6  1  0
  6  1  1  0
  7 12  2  0
  8  9  2  0
  8  7  1  0
  9 10  1  0
 10 11  2  0
 11 13  1  0
 12 11  1  0
 13 14  1  0
 13 17  1  0
 14 15  2  0
 15 16  1  0
 17 16  2  0
 18 19  1  0
 20 18  1  0
 21 18  1  0
  1 22  1  6
  2 23  1  0
  3 24  1  0
  4 25  1  6
  5 26  1  0
  5 27  1  0
  6 28  1  0
  6 29  1  0
  7 30  1  0
  9 31  1  0
 14 32  1  0
 15 33  1  0
 17 34  1  0
M  ISO  8  22  13  23  13  24  13  25  13  26  13  27  13  28  13  29  13
M  ISO  5  30  14  31  14  32  14  33  14  34  14
M  END
>  <minimizedAffinity>  (1) 
-5.31481552

>  <minimizedRMSD>  (1) 
3.65618896

$$$$
