
     RDKit          3D

 33 35  0  0  0  0  0  0  0  0999 V2000
   45.8780   33.7400   42.8960 C   0  0  0  0  0  0  0  0  0  0  0  0
   46.1070   34.1160   44.3010 C   0  0  0  0  0  0  0  0  0  0  0  0
   46.7600   32.9280   45.0000 C   0  0  0  0  0  0  0  0  0  0  0  0
   46.9690   31.8770   43.9530 C   0  0  0  0  0  0  0  0  0  0  0  0
   46.0110   32.2150   42.8640 C   0  0  0  0  0  0  0  0  0  0  0  0
   46.8760   34.2160   41.9190 C   0  0  0  0  0  0  0  0  0  0  0  0
   47.8680   35.1210   42.3120 C   0  0  0  0  0  0  0  0  0  0  0  0
   48.7960   35.5870   41.3630 C   0  0  0  0  0  0  0  0  0  0  0  0
   48.6760   35.1210   40.0920 N   0  0  0  0  0  0  0  0  0  0  0  0
   47.7020   34.2400   39.7430 C   0  0  0  0  0  0  0  0  0  0  0  0
   46.8180   33.7970   40.6420 N   0  0  0  0  0  0  0  0  0  0  0  0
   44.6120   34.2120   42.3660 N   0  0  0  0  0  0  0  0  0  0  0  0
   43.7140   33.4360   41.7230 C   0  0  0  0  0  0  0  0  0  0  0  0
   42.5090   33.8520   41.2090 C   0  0  0  0  0  0  0  0  0  0  0  0
   42.1720   35.1800   41.3530 C   0  0  0  0  0  0  0  0  0  0  0  0
   41.0690   35.5600   40.8830 O   0  0  0  0  0  0  0  0  0  0  0  0
   43.0540   35.9930   41.9960 N   0  0  0  0  0  0  0  0  0  0  0  0
   44.2000   35.4990   42.4610 C   0  0  0  0  0  0  0  0  0  0  0  0
   44.9080   36.3560   43.0250 O   0  0  0  0  0  0  0  0  0  0  0  0
   46.7715   34.9912   44.3508 H   0  0  0  0  0  0  0  0  0  0  0  0
   45.1562   34.3748   44.7898 H   0  0  0  0  0  0  0  0  0  0  0  0
   47.7249   33.2272   45.4353 H   0  0  0  0  0  0  0  0  0  0  0  0
   46.1277   32.5526   45.8181 H   0  0  0  0  0  0  0  0  0  0  0  0
   48.0032   31.9049   43.5794 H   0  0  0  0  0  0  0  0  0  0  0  0
   46.8018   30.8641   44.3480 H   0  0  0  0  0  0  0  0  0  0  0  0
   45.0361   31.7400   43.0483 H   0  0  0  0  0  0  0  0  0  0  0  0
   46.3621   31.8561   41.8853 H   0  0  0  0  0  0  0  0  0  0  0  0
   47.9219   35.4656   43.3553 H   0  0  0  0  0  0  0  0  0  0  0  0
   49.5870   36.3000   41.6386 H   0  0  0  0  0  0  0  0  0  0  0  0
   47.6402   33.8857   38.7035 H   0  0  0  0  0  0  0  0  0  0  0  0
   43.9700   32.3734   41.5990 H   0  0  0  0  0  0  0  0  0  0  0  0
   41.8355   33.1474   40.6992 H   0  0  0  0  0  0  0  0  0  0  0  0
   42.8349   36.9914   42.1231 H   0  0  0  0  0  0  0  0  0  0  0  0
  1  2  1  0
  2  3  1  0
  4  3  1  0
  5  1  1  0
  5  4  1  0
  6  7  2  0
  6  1  1  0
  8  7  1  0
  9  8  2  0
 10  9  1  0
 10 11  2  0
 11  6  1  0
 12 18  1  0
 12  1  1  0
 13 12  1  0
 14 15  1  0
 14 13  2  0
 15 17  1  0
 16 15  2  0
 17 18  1  0
 18 19  2  0
  2 20  1  0
  2 21  1  0
  3 22  1  0
  3 23  1  0
  4 24  1  0
  4 25  1  0
  5 26  1  0
  5 27  1  0
  7 28  1  0
  8 29  1  0
 10 30  1  0
 13 31  1  0
 14 32  1  0
 17 33  1  0
M  ISO  8  20  13  21  13  22  13  23  13  24  13  25  13  26  13  27  13
M  ISO  6  28  14  29  14  30  14  31  14  32  14  33   9
M  END
>  <minimizedAffinity>  (1) 
-5.09372139

>  <minimizedRMSD>  (1) 
3.52125168

$$$$
