
     RDKit          3D

 43 46  0  0  1  0  0  0  0  0999 V2000
   45.6310   32.8180   47.6190 C   0  0  0  0  0  0  0  0  0  0  0  0
   45.9010   32.5250   46.3170 C   0  0  0  0  0  0  0  0  0  0  0  0
   45.9050   31.1630   45.9700 C   0  0  0  0  0  0  0  0  0  0  0  0
   45.6590   30.2130   46.8740 N   0  0  0  0  0  0  0  0  0  0  0  0
   45.3910   30.5340   48.1860 C   0  0  0  0  0  0  0  0  0  0  0  0
   45.3780   31.8190   48.5400 N   0  0  0  0  0  0  0  0  0  0  0  0
   45.1440   29.5030   49.1390 N   0  0  0  0  0  0  0  0  0  0  0  0
   46.1270   33.5470   45.3420 C   0  0  2  0  0  0  0  0  0  0  0  0
   44.9730   34.6030   45.5060 C   0  0  0  0  0  0  0  0  0  0  0  0
   44.7650   35.5200   44.4180 C   0  0  0  0  0  0  0  0  0  0  0  0
   45.5830   35.4560   43.2180 C   0  0  1  0  0  0  0  0  0  0  0  0
   46.6830   34.4900   43.2210 C   0  0  0  0  0  0  0  0  0  0  0  0
   46.2840   33.2360   43.9520 C   0  0  0  0  0  0  0  0  0  0  0  0
   44.6420   35.1620   42.0300 C   0  0  0  0  0  0  0  0  0  0  0  0
   43.6390   34.2660   42.3500 F   0  0  0  0  0  0  0  0  0  0  0  0
   43.9970   36.3620   41.7200 F   0  0  0  0  0  0  0  0  0  0  0  0
   45.3790   34.7870   40.9190 F   0  0  0  0  0  0  0  0  0  0  0  0
   46.1200   30.4690   44.7460 N   0  0  0  0  0  0  0  0  0  0  0  0
   45.0600   30.1070   43.9490 C   0  0  0  0  0  0  0  0  0  0  0  0
   45.5530   29.4280   42.8700 N   0  0  0  0  0  0  0  0  0  0  0  0
   46.8880   29.3750   43.0000 C   0  0  0  0  0  0  0  0  0  0  0  0
   47.9260   28.8320   42.2450 C   0  0  0  0  0  0  0  0  0  0  0  0
   47.6340   28.2330   41.1690 O   0  0  0  0  0  0  0  0  0  0  0  0
   49.2090   28.9510   42.6600 N   0  0  0  0  0  0  0  0  0  0  0  0
   49.5010   29.5920   43.8080 C   0  0  0  0  0  0  0  0  0  0  0  0
   50.8770   29.6600   44.1540 N   0  0  0  0  0  0  0  0  0  0  0  0
   48.5490   30.1480   44.6020 N   0  0  0  0  0  0  0  0  0  0  0  0
   47.2820   30.0170   44.1670 C   0  0  0  0  0  0  0  0  0  0  0  0
   45.6139   33.8688   47.9437 H   0  0  0  0  0  0  0  0  0  0  0  0
   44.9438   29.7455   50.1198 H   0  0  0  0  0  0  0  0  0  0  0  0
   45.1658   28.5156   48.8468 H   0  0  0  0  0  0  0  0  0  0  0  0
   47.1457   33.8857   45.5818 H   0  0  0  0  0  0  0  0  0  0  0  0
   44.3521   34.6385   46.4133 H   0  0  0  0  0  0  0  0  0  0  0  0
   43.9749   36.2815   44.4949 H   0  0  0  0  0  0  0  0  0  0  0  0
   46.0910   36.4292   43.1480 H   0  0  0  0  0  0  0  0  0  0  0  0
   46.9441   34.2360   42.1831 H   0  0  0  0  0  0  0  0  0  0  0  0
   47.5479   34.9386   43.7317 H   0  0  0  0  0  0  0  0  0  0  0  0
   45.3337   32.8577   43.5473 H   0  0  0  0  0  0  0  0  0  0  0  0
   47.0578   32.4647   43.8247 H   0  0  0  0  0  0  0  0  0  0  0  0
   44.0000   30.3256   44.1454 H   0  0  0  0  0  0  0  0  0  0  0  0
   49.9685   28.5479   42.0929 H   0  0  0  0  0  0  0  0  0  0  0  0
   51.1674   30.1366   45.0197 H   0  0  0  0  0  0  0  0  0  0  0  0
   51.5844   29.2328   43.5392 H   0  0  0  0  0  0  0  0  0  0  0  0
  1  6  2  0
  2  1  1  0
  3  2  2  0
  3  4  1  0
  4  5  2  0
  5  6  1  0
  5  7  1  0
  8  9  1  0
  8  2  1  0
 10  9  2  0
 11 12  1  0
 11 10  1  0
 12 13  1  0
 13  8  1  0
 14 15  1  0
 14 11  1  0
 16 14  1  0
 17 14  1  0
 18  3  1  0
 19 18  1  0
 20 21  1  0
 20 19  2  0
 21 28  2  0
 22 24  1  0
 22 21  1  0
 23 22  2  0
 24 25  1  0
 25 26  1  0
 25 27  2  0
 28 27  1  0
 28 18  1  0
  1 29  1  0
  7 30  1  0
  7 31  1  0
  8 32  1  1
  9 33  1  0
 10 34  1  0
 11 35  1  6
 12 36  1  0
 12 37  1  0
 13 38  1  0
 13 39  1  0
 19 40  1  0
 24 41  1  0
 26 42  1  0
 26 43  1  0
M  ISO  8  29  14  32  13  33  13  34  13  35  13  36  13  37  13  38  13
M  ISO  3  39  13  40  14  41   9
M  END
>  <minimizedAffinity>  (1) 
-5.86454391

>  <minimizedRMSD>  (1) 
1.14340913

$$$$
