
     RDKit          3D

 42 44  0  0  1  0  0  0  0  0999 V2000
   46.2040   33.6210   45.3320 C   0  0  2  0  0  0  0  0  0  0  0  0
   45.0000   34.6730   45.5250 C   0  0  0  0  0  0  0  0  0  0  0  0
   44.7440   35.5770   44.4270 C   0  0  0  0  0  0  0  0  0  0  0  0
   45.5360   35.5040   43.2110 C   0  0  1  0  0  0  0  0  0  0  0  0
   46.6400   34.5330   43.2050 C   0  0  0  0  0  0  0  0  0  0  0  0
   46.1530   33.2910   43.9470 C   0  0  0  0  0  0  0  0  0  0  0  0
   45.2030   32.8570   47.4970 C   0  0  0  0  0  0  0  0  0  0  0  0
   45.9890   32.6510   46.3660 C   0  0  0  0  0  0  0  0  0  0  0  0
   46.5110   31.3410   46.1900 C   0  0  0  0  0  0  0  0  0  0  0  0
   46.2140   30.4140   47.0980 N   0  0  0  0  0  0  0  0  0  0  0  0
   45.4460   30.6400   48.1890 C   0  0  0  0  0  0  0  0  0  0  0  0
   44.9420   31.8470   48.3960 N   0  0  0  0  0  0  0  0  0  0  0  0
   45.2280   29.5590   49.1170 N   0  0  0  0  0  0  0  0  0  0  0  0
   47.4510   30.8590   45.1600 C   0  0  0  0  0  0  0  0  0  0  0  0
   46.6930   29.8160   44.2360 C   0  0  0  0  0  0  0  0  0  0  0  0
   47.7830   29.2540   43.3850 C   0  0  0  0  0  0  0  0  0  0  0  0
   48.8750   29.0500   44.4100 C   0  0  0  0  0  0  0  0  0  0  0  0
   48.4660   29.8690   45.6190 C   0  0  0  0  0  0  0  0  0  0  0  0
   44.5600   35.1820   42.0510 C   0  0  0  0  0  0  0  0  0  0  0  0
   43.5500   34.3220   42.4210 F   0  0  0  0  0  0  0  0  0  0  0  0
   43.9480   36.3860   41.7070 F   0  0  0  0  0  0  0  0  0  0  0  0
   45.2610   34.7530   40.9420 F   0  0  0  0  0  0  0  0  0  0  0  0
   47.2555   33.9081   45.4798 H   0  0  0  0  0  0  0  0  0  0  0  0
   44.4017   34.7020   46.4476 H   0  0  0  0  0  0  0  0  0  0  0  0
   43.9432   36.3263   44.5125 H   0  0  0  0  0  0  0  0  0  0  0  0
   46.0401   36.4765   43.1108 H   0  0  0  0  0  0  0  0  0  0  0  0
   46.9076   34.2730   42.1702 H   0  0  0  0  0  0  0  0  0  0  0  0
   47.5325   34.9535   43.6915 H   0  0  0  0  0  0  0  0  0  0  0  0
   45.1227   33.0464   43.6493 H   0  0  0  0  0  0  0  0  0  0  0  0
   46.7740   32.4127   43.7171 H   0  0  0  0  0  0  0  0  0  0  0  0
   44.7783   33.8555   47.6775 H   0  0  0  0  0  0  0  0  0  0  0  0
   44.6469   29.7083   49.9542 H   0  0  0  0  0  0  0  0  0  0  0  0
   45.6533   28.6372   48.9430 H   0  0  0  0  0  0  0  0  0  0  0  0
   47.8606   31.7983   44.7601 H   0  0  0  0  0  0  0  0  0  0  0  0
   46.2180   29.0280   44.8389 H   0  0  0  0  0  0  0  0  0  0  0  0
   45.8811   30.2713   43.6498 H   0  0  0  0  0  0  0  0  0  0  0  0
   47.4828   28.3033   42.9202 H   0  0  0  0  0  0  0  0  0  0  0  0
   48.0711   29.8932   42.5374 H   0  0  0  0  0  0  0  0  0  0  0  0
   48.9552   27.9860   44.6775 H   0  0  0  0  0  0  0  0  0  0  0  0
   49.8564   29.3619   44.0232 H   0  0  0  0  0  0  0  0  0  0  0  0
   49.3409   30.3913   46.0335 H   0  0  0  0  0  0  0  0  0  0  0  0
   48.0512   29.2219   46.4059 H   0  0  0  0  0  0  0  0  0  0  0  0
  1  2  1  0
  1  8  1  0
  3  2  2  0
  4  3  1  0
  5  4  1  0
  5  6  1  0
  6  1  1  0
  7 12  2  0
  8  7  1  0
  9  8  2  0
  9 10  1  0
 10 11  2  0
 11 12  1  0
 11 13  1  0
 14 18  1  0
 14  9  1  0
 15 14  1  0
 16 15  1  0
 16 17  1  0
 17 18  1  0
 19 20  1  0
 19  4  1  0
 21 19  1  0
 22 19  1  0
  1 23  1  1
  2 24  1  0
  3 25  1  0
  4 26  1  6
  5 27  1  0
  5 28  1  0
  6 29  1  0
  6 30  1  0
  7 31  1  0
 13 32  1  0
 13 33  1  0
 14 34  1  0
 15 35  1  0
 15 36  1  0
 16 37  1  0
 16 38  1  0
 17 39  1  0
 17 40  1  0
 18 41  1  0
 18 42  1  0
M  ISO  8  23  13  24  13  25  13  26  13  27  13  28  13  29  13  30  13
M  ISO  8  31  14  34  13  35  13  36  13  37  13  38  13  39  13  40  13
M  ISO  2  41  13  42  13
M  END
>  <minimizedAffinity>  (1) 
-5.74928999

>  <minimizedRMSD>  (1) 
0.599740148

$$$$
