
     RDKit          3D

 26 27  0  0  0  0  0  0  0  0999 V2000
   45.3320   34.6970   42.7190 C   0  0  0  0  0  0  0  0  0  0  0  0
   45.4840   33.8690   43.9440 C   0  0  0  0  0  0  0  0  0  0  0  0
   45.0820   34.7320   45.1240 C   0  0  0  0  0  0  0  0  0  0  0  0
   44.5530   36.0190   44.5670 C   0  0  0  0  0  0  0  0  0  0  0  0
   45.2400   36.1220   43.2180 C   0  0  0  0  0  0  0  0  0  0  0  0
   44.1100   34.4570   41.9220 C   0  0  0  0  0  0  0  0  0  0  0  0
   43.5660   33.1720   41.8900 C   0  0  0  0  0  0  0  0  0  0  0  0
   42.4050   32.9810   41.1030 C   0  0  0  0  0  0  0  0  0  0  0  0
   41.8910   34.0430   40.4290 N   0  0  0  0  0  0  0  0  0  0  0  0
   42.4660   35.2750   40.4980 C   0  0  0  0  0  0  0  0  0  0  0  0
   43.5530   35.4590   41.2350 N   0  0  0  0  0  0  0  0  0  0  0  0
   46.5790   34.5970   41.8470 C   0  0  0  0  0  0  0  0  0  0  0  0
   47.3130   33.5170   42.3060 F   0  0  0  0  0  0  0  0  0  0  0  0
   46.2880   34.5160   40.5120 F   0  0  0  0  0  0  0  0  0  0  0  0
   47.3320   35.7280   42.1560 F   0  0  0  0  0  0  0  0  0  0  0  0
   44.8317   32.9853   43.8844 H   0  0  0  0  0  0  0  0  0  0  0  0
   46.5216   33.5202   44.0521 H   0  0  0  0  0  0  0  0  0  0  0  0
   44.3024   34.2268   45.7130 H   0  0  0  0  0  0  0  0  0  0  0  0
   45.9408   34.9151   45.7865 H   0  0  0  0  0  0  0  0  0  0  0  0
   43.4599   35.9787   44.4508 H   0  0  0  0  0  0  0  0  0  0  0  0
   44.7495   36.8836   45.2180 H   0  0  0  0  0  0  0  0  0  0  0  0
   46.2433   36.5596   43.3269 H   0  0  0  0  0  0  0  0  0  0  0  0
   44.6890   36.7704   42.5208 H   0  0  0  0  0  0  0  0  0  0  0  0
   44.0202   32.3429   42.4525 H   0  0  0  0  0  0  0  0  0  0  0  0
   41.9281   31.9919   41.0383 H   0  0  0  0  0  0  0  0  0  0  0  0
   42.0290   36.1178   39.9424 H   0  0  0  0  0  0  0  0  0  0  0  0
  1  5  1  0
  1  2  1  0
  2  3  1  0
  4  3  1  0
  5  4  1  0
  6  1  1  0
  7  6  2  0
  8  7  1  0
  9 10  1  0
  9  8  2  0
 10 11  2  0
 11  6  1  0
 12 15  1  0
 12 13  1  0
 12  1  1  0
 14 12  1  0
  2 16  1  0
  2 17  1  0
  3 18  1  0
  3 19  1  0
  4 20  1  0
  4 21  1  0
  5 22  1  0
  5 23  1  0
  7 24  1  0
  8 25  1  0
 10 26  1  0
M  ISO  8  16  13  17  13  18  13  19  13  20  13  21  13  22  13  23  13
M  ISO  3  24  14  25  14  26  14
M  END
>  <minimizedAffinity>  (1) 
-4.6405077

>  <minimizedRMSD>  (1) 
3.45719481

$$$$
