
     RDKit          3D

 30 31  0  0  0  0  0  0  0  0999 V2000
   47.3140   34.1330   42.9640 C   0  0  0  0  0  0  0  0  0  0  0  0
   46.4600   33.6730   44.0650 C   0  0  0  0  0  0  0  0  0  0  0  0
   45.2470   34.6030   44.1210 C   0  0  0  0  0  0  0  0  0  0  0  0
   45.3490   35.5490   42.9540 C   0  0  0  0  0  0  0  0  0  0  0  0
   46.8030   35.5560   42.6470 C   0  0  0  0  0  0  0  0  0  0  0  0
   47.2310   33.3900   41.6950 C   0  0  0  0  0  0  0  0  0  0  0  0
   47.2740   31.9860   41.7190 C   0  0  0  0  0  0  0  0  0  0  0  0
   47.1780   31.2730   40.5250 C   0  0  0  0  0  0  0  0  0  0  0  0
   47.0460   32.0150   39.3750 N   0  0  0  0  0  0  0  0  0  0  0  0
   47.0090   33.3580   39.3810 C   0  0  0  0  0  0  0  0  0  0  0  0
   47.1010   34.0390   40.5360 N   0  0  0  0  0  0  0  0  0  0  0  0
   48.7130   34.2070   43.3560 N   0  0  0  0  0  0  0  0  0  0  0  0
   49.7880   34.5600   42.4870 C   0  0  0  0  0  0  0  0  0  0  0  0
   49.4650   35.4880   41.6150 N   0  0  0  0  0  0  0  0  0  0  0  0
   51.0640   33.9010   42.6370 N   0  0  0  0  0  0  0  0  0  0  0  0
   50.1910   35.8050   40.9410 H   0  0  0  0  0  0  0  0  0  0  0  0
   46.1330   32.6390   43.8807 H   0  0  0  0  0  0  0  0  0  0  0  0
   47.0095   33.6930   45.0177 H   0  0  0  0  0  0  0  0  0  0  0  0
   44.3197   34.0158   44.0487 H   0  0  0  0  0  0  0  0  0  0  0  0
   45.2278   35.1586   45.0702 H   0  0  0  0  0  0  0  0  0  0  0  0
   44.7667   35.1812   42.0963 H   0  0  0  0  0  0  0  0  0  0  0  0
   44.9504   36.5502   43.1748 H   0  0  0  0  0  0  0  0  0  0  0  0
   46.9681   35.7934   41.5857 H   0  0  0  0  0  0  0  0  0  0  0  0
   47.3352   36.3155   43.2386 H   0  0  0  0  0  0  0  0  0  0  0  0
   47.3828   31.4523   42.6747 H   0  0  0  0  0  0  0  0  0  0  0  0
   47.2064   30.1736   40.5039 H   0  0  0  0  0  0  0  0  0  0  0  0
   46.9025   33.9048   38.4325 H   0  0  0  0  0  0  0  0  0  0  0  0
   48.9450   33.9879   44.3353 H   0  0  0  0  0  0  0  0  0  0  0  0
   51.8473   34.1477   42.0153 H   0  0  0  0  0  0  0  0  0  0  0  0
   51.1909   33.1842   43.3657 H   0  0  0  0  0  0  0  0  0  0  0  0
  1 12  1  0
  1  2  1  0
  2  3  1  0
  4  3  1  0
  5  4  1  0
  5  1  1  0
  6  7  2  0
  6  1  1  0
  8  7  1  0
  9 10  1  0
  9  8  2  0
 10 11  2  0
 11  6  1  0
 13 15  1  0
 13 12  1  0
 14 13  2  0
 16 14  1  0
  2 17  1  0
  2 18  1  0
  3 19  1  0
  3 20  1  0
  4 21  1  0
  4 22  1  0
  5 23  1  0
  5 24  1  0
  7 25  1  0
  8 26  1  0
 10 27  1  0
 12 28  1  0
 15 29  1  0
 15 30  1  0
M  ISO  8  17  13  18  13  19  13  20  13  21  13  22  13  23  13  24  13
M  ISO  3  25  14  26  14  27  14
M  END
>  <minimizedAffinity>  (1) 
-4.55403185

>  <minimizedRMSD>  (1) 
4.29293537

$$$$
