
     RDKit          3D

 38 40  0  0  0  0  0  0  0  0999 V2000
   45.4020   34.6240   43.0120 C   0  0  0  0  0  0  0  0  0  0  0  0
   44.9370   35.8320   43.7050 C   0  0  0  0  0  0  0  0  0  0  0  0
   44.7830   35.4810   45.1840 C   0  0  0  0  0  0  0  0  0  0  0  0
   45.3320   34.0940   45.3850 C   0  0  0  0  0  0  0  0  0  0  0  0
   45.1840   33.4760   44.0440 C   0  0  0  0  0  0  0  0  0  0  0  0
   46.8390   34.5560   42.6850 C   0  0  0  0  0  0  0  0  0  0  0  0
   47.3890   35.4960   41.7970 C   0  0  0  0  0  0  0  0  0  0  0  0
   48.7510   35.4450   41.4970 C   0  0  0  0  0  0  0  0  0  0  0  0
   49.4760   34.4540   42.1080 N   0  0  0  0  0  0  0  0  0  0  0  0
   48.9350   33.5640   42.9550 C   0  0  0  0  0  0  0  0  0  0  0  0
   47.6330   33.6280   43.2280 N   0  0  0  0  0  0  0  0  0  0  0  0
   44.6800   34.2140   41.8510 N   0  0  0  0  0  0  0  0  0  0  0  0
   43.5890   34.9930   41.4280 C   0  0  0  0  0  0  0  0  0  0  0  0
   43.2040   34.7800   39.9760 C   0  0  0  0  0  0  0  0  0  0  0  0
   43.2560   33.3150   39.5970 C   0  0  0  0  0  0  0  0  0  0  0  0
   43.3810   32.4860   40.8750 C   0  0  0  0  0  0  0  0  0  0  0  0
   44.7260   32.8670   41.4650 C   0  0  0  0  0  0  0  0  0  0  0  0
   45.6730   36.6407   43.5854 H   0  0  0  0  0  0  0  0  0  0  0  0
   43.9796   36.1753   43.2861 H   0  0  0  0  0  0  0  0  0  0  0  0
   45.3445   36.1990   45.7998 H   0  0  0  0  0  0  0  0  0  0  0  0
   43.7249   35.5233   45.4818 H   0  0  0  0  0  0  0  0  0  0  0  0
   46.3884   34.1278   45.6899 H   0  0  0  0  0  0  0  0  0  0  0  0
   44.8144   33.5348   46.1784 H   0  0  0  0  0  0  0  0  0  0  0  0
   44.1776   33.0468   43.9305 H   0  0  0  0  0  0  0  0  0  0  0  0
   45.9066   32.6600   43.8958 H   0  0  0  0  0  0  0  0  0  0  0  0
   46.7502   36.2669   41.3413 H   0  0  0  0  0  0  0  0  0  0  0  0
   49.2187   36.1622   40.8065 H   0  0  0  0  0  0  0  0  0  0  0  0
   49.5617   32.7885   43.4196 H   0  0  0  0  0  0  0  0  0  0  0  0
   42.7213   34.7428   42.0561 H   0  0  0  0  0  0  0  0  0  0  0  0
   43.8932   36.0456   41.5252 H   0  0  0  0  0  0  0  0  0  0  0  0
   42.1814   35.1537   39.8189 H   0  0  0  0  0  0  0  0  0  0  0  0
   43.9216   35.3252   39.3453 H   0  0  0  0  0  0  0  0  0  0  0  0
   42.3351   33.0371   39.0634 H   0  0  0  0  0  0  0  0  0  0  0  0
   44.1182   33.1266   38.9404 H   0  0  0  0  0  0  0  0  0  0  0  0
   42.5689   32.7315   41.5752 H   0  0  0  0  0  0  0  0  0  0  0  0
   43.3105   31.4068   40.6741 H   0  0  0  0  0  0  0  0  0  0  0  0
   44.9378   32.2373   42.3417 H   0  0  0  0  0  0  0  0  0  0  0  0
   45.5198   32.7171   40.7184 H   0  0  0  0  0  0  0  0  0  0  0  0
  1  2  1  0
  1  5  1  0
  2  3  1  0
  3  4  1  0
  5  4  1  0
  6  1  1  0
  6 11  1  0
  7  6  2  0
  8  7  1  0
  8  9  2  0
  9 10  1  0
 10 11  2  0
 12  1  1  0
 13 12  1  0
 14 13  1  0
 15 14  1  0
 15 16  1  0
 16 17  1  0
 17 12  1  0
  2 18  1  0
  2 19  1  0
  3 20  1  0
  3 21  1  0
  4 22  1  0
  4 23  1  0
  5 24  1  0
  5 25  1  0
  7 26  1  0
  8 27  1  0
 10 28  1  0
 13 29  1  0
 13 30  1  0
 14 31  1  0
 14 32  1  0
 15 33  1  0
 15 34  1  0
 16 35  1  0
 16 36  1  0
 17 37  1  0
 17 38  1  0
M  ISO  8  18  13  19  13  20  13  21  13  22  13  23  13  24  13  25  13
M  ISO  8  26  14  27  14  28  14  29  13  30  13  31  13  32  13  33  13
M  ISO  5  34  13  35  13  36  13  37  13  38  13
M  END
>  <minimizedAffinity>  (1) 
-4.54295969

>  <minimizedRMSD>  (1) 
3.82958889

$$$$
