
     RDKit          3D

 29 31  0  0  0  0  0  0  0  0999 V2000
   45.4220   34.6680   42.7770 C   0  0  0  0  0  0  0  0  0  0  0  0
   44.9490   35.9720   43.2560 C   0  0  0  0  0  0  0  0  0  0  0  0
   44.7390   35.8770   44.7690 C   0  0  0  0  0  0  0  0  0  0  0  0
   45.1620   34.4980   45.1690 C   0  0  0  0  0  0  0  0  0  0  0  0
   45.0740   33.6960   43.8980 C   0  0  0  0  0  0  0  0  0  0  0  0
   46.8810   34.5250   42.5670 C   0  0  0  0  0  0  0  0  0  0  0  0
   47.5840   35.5290   41.8800 C   0  0  0  0  0  0  0  0  0  0  0  0
   48.9560   35.3660   41.6970 C   0  0  0  0  0  0  0  0  0  0  0  0
   49.5440   34.2480   42.1910 N   0  0  0  0  0  0  0  0  0  0  0  0
   48.8460   33.2980   42.8480 C   0  0  0  0  0  0  0  0  0  0  0  0
   47.5220   33.4430   43.0310 N   0  0  0  0  0  0  0  0  0  0  0  0
   44.6950   34.3000   41.5010 C   0  0  0  0  0  0  0  0  0  0  0  0
   43.6740   35.2510   41.2500 C   0  0  0  0  0  0  0  0  0  0  0  0
   43.0180   34.5120   39.6650 S   0  0  0  0  0  0  0  0  0  0  0  0
   44.1780   33.1380   39.6410 C   0  0  0  0  0  0  0  0  0  0  0  0
   45.0560   33.2290   40.8150 N   0  0  0  0  0  0  0  0  0  0  0  0
   45.6983   36.7455   43.0317 H   0  0  0  0  0  0  0  0  0  0  0  0
   44.0063   36.2413   42.7573 H   0  0  0  0  0  0  0  0  0  0  0  0
   45.3536   36.6284   45.2862 H   0  0  0  0  0  0  0  0  0  0  0  0
   43.6893   36.0658   45.0384 H   0  0  0  0  0  0  0  0  0  0  0  0
   46.1919   34.5035   45.5553 H   0  0  0  0  0  0  0  0  0  0  0  0
   44.5340   34.0829   45.9711 H   0  0  0  0  0  0  0  0  0  0  0  0
   44.0562   33.3015   43.7623 H   0  0  0  0  0  0  0  0  0  0  0  0
   45.7539   32.8314   43.9136 H   0  0  0  0  0  0  0  0  0  0  0  0
   47.0652   36.4201   41.4967 H   0  0  0  0  0  0  0  0  0  0  0  0
   49.5476   36.1255   41.1649 H   0  0  0  0  0  0  0  0  0  0  0  0
   49.3602   32.4053   43.2337 H   0  0  0  0  0  0  0  0  0  0  0  0
   43.3649   36.1443   41.8125 H   0  0  0  0  0  0  0  0  0  0  0  0
   44.2228   32.3545   38.8702 H   0  0  0  0  0  0  0  0  0  0  0  0
  1  2  1  0
  1  5  1  0
  2  3  1  0
  3  4  1  0
  5  4  1  0
  6  1  1  0
  6 11  1  0
  7  6  2  0
  8  7  1  0
  8  9  2  0
  9 10  1  0
 10 11  2  0
 12  1  1  0
 13 12  2  0
 14 13  1  0
 15 14  1  0
 15 16  2  0
 16 12  1  0
  2 17  1  0
  2 18  1  0
  3 19  1  0
  3 20  1  0
  4 21  1  0
  4 22  1  0
  5 23  1  0
  5 24  1  0
  7 25  1  0
  8 26  1  0
 10 27  1  0
 13 28  1  0
 15 29  1  0
M  ISO  8  17  13  18  13  19  13  20  13  21  13  22  13  23  13  24  13
M  ISO  5  25  14  26  14  27  14  28  14  29  14
M  END
>  <minimizedAffinity>  (1) 
-4.52427435

>  <minimizedRMSD>  (1) 
3.74163651

$$$$
