
     RDKit          3D

 32 33  0  0  0  0  0  0  0  0999 V2000
   45.7270   34.1320   42.5890 C   0  0  0  0  0  0  0  0  0  0  0  0
   44.4810   33.7330   41.9070 C   0  0  0  0  0  0  0  0  0  0  0  0
   43.5300   34.9110   41.9430 C   0  0  0  0  0  0  0  0  0  0  0  0
   44.2580   36.0280   42.6290 C   0  0  0  0  0  0  0  0  0  0  0  0
   45.3340   35.3260   43.4310 C   0  0  0  0  0  0  0  0  0  0  0  0
   46.8480   34.5640   41.7480 C   0  0  0  0  0  0  0  0  0  0  0  0
   46.9170   34.0970   40.4390 C   0  0  0  0  0  0  0  0  0  0  0  0
   48.0170   34.5000   39.6420 C   0  0  0  0  0  0  0  0  0  0  0  0
   48.9440   35.3290   40.2180 N   0  0  0  0  0  0  0  0  0  0  0  0
   48.8360   35.7550   41.4840 C   0  0  0  0  0  0  0  0  0  0  0  0
   47.8040   35.3710   42.2170 N   0  0  0  0  0  0  0  0  0  0  0  0
   46.2730   33.0770   43.5210 C   0  0  0  0  0  0  0  0  0  0  0  0
   46.3490   33.6000   44.9360 C   0  0  0  0  0  0  0  0  0  0  0  0
   47.5060   32.3880   43.0510 C   0  0  0  0  0  0  0  0  0  0  0  0
   44.0305   32.8736   42.4252 H   0  0  0  0  0  0  0  0  0  0  0  0
   44.6907   33.4428   40.8669 H   0  0  0  0  0  0  0  0  0  0  0  0
   43.2554   35.2085   40.9202 H   0  0  0  0  0  0  0  0  0  0  0  0
   42.6021   34.6558   42.4758 H   0  0  0  0  0  0  0  0  0  0  0  0
   44.7034   36.7142   41.8936 H   0  0  0  0  0  0  0  0  0  0  0  0
   43.5957   36.6428   43.2562 H   0  0  0  0  0  0  0  0  0  0  0  0
   44.9407   35.0004   44.4053 H   0  0  0  0  0  0  0  0  0  0  0  0
   46.1896   35.9841   43.6430 H   0  0  0  0  0  0  0  0  0  0  0  0
   46.1389   33.4332   40.0341 H   0  0  0  0  0  0  0  0  0  0  0  0
   48.1229   34.1606   38.6010 H   0  0  0  0  0  0  0  0  0  0  0  0
   49.6010   36.4201   41.9111 H   0  0  0  0  0  0  0  0  0  0  0  0
   45.5426   32.2545   43.5156 H   0  0  0  0  0  0  0  0  0  0  0  0
   46.2277   32.7655   45.6424 H   0  0  0  0  0  0  0  0  0  0  0  0
   47.3261   34.0785   45.0981 H   0  0  0  0  0  0  0  0  0  0  0  0
   45.5485   34.3368   45.0981 H   0  0  0  0  0  0  0  0  0  0  0  0
   48.0956   32.0586   43.9193 H   0  0  0  0  0  0  0  0  0  0  0  0
   47.2287   31.5141   42.4432 H   0  0  0  0  0  0  0  0  0  0  0  0
   48.1049   33.0822   42.4432 H   0  0  0  0  0  0  0  0  0  0  0  0
  1  5  1  0
  1 12  1  0
  2  3  1  0
  2  1  1  0
  3  4  1  0
  4  5  1  0
  6 11  1  0
  6  1  1  0
  7  6  2  0
  8  9  2  0
  8  7  1  0
  9 10  1  0
 10 11  2  0
 12 13  1  0
 14 12  1  0
  2 15  1  0
  2 16  1  0
  3 17  1  0
  3 18  1  0
  4 19  1  0
  4 20  1  0
  5 21  1  0
  5 22  1  0
  7 23  1  0
  8 24  1  0
 10 25  1  0
 12 26  1  0
 13 27  1  0
 13 28  1  0
 13 29  1  0
 14 30  1  0
 14 31  1  0
 14 32  1  0
M  ISO  8  15  13  16  13  17  13  18  13  19  13  20  13  21  13  22  13
M  ISO  8  23  14  24  14  25  14  26   8  27   8  28   8  29   8  30   8
M  ISO  2  31   8  32   8
M  END
>  <minimizedAffinity>  (1) 
-3.78656745

>  <minimizedRMSD>  (1) 
4.25973701

$$$$
