
     RDKit          3D

 25 26  0  0  0  0  0  0  0  0999 V2000
   46.3900   34.1530   41.1900 C   0  0  0  0  0  0  0  0  0  0  0  0
   47.3610   34.1650   40.0910 C   0  0  0  0  0  0  0  0  0  0  0  0
   48.5320   35.0440   40.5240 C   0  0  0  0  0  0  0  0  0  0  0  0
   48.3080   35.4190   41.9700 C   0  0  0  0  0  0  0  0  0  0  0  0
   46.8330   35.3270   42.1100 C   0  0  0  0  0  0  0  0  0  0  0  0
   46.3680   32.9690   42.0620 C   0  0  0  0  0  0  0  0  0  0  0  0
   47.0640   31.8110   41.6530 C   0  0  0  0  0  0  0  0  0  0  0  0
   47.0720   30.6850   42.4740 C   0  0  0  0  0  0  0  0  0  0  0  0
   46.3790   30.7880   43.6590 N   0  0  0  0  0  0  0  0  0  0  0  0
   45.7230   31.9070   44.0240 C   0  0  0  0  0  0  0  0  0  0  0  0
   45.7180   32.9940   43.2270 N   0  0  0  0  0  0  0  0  0  0  0  0
   45.0820   34.5280   40.7020 N   0  0  0  0  0  0  0  0  0  0  0  0
   46.8964   34.5783   39.1836 H   0  0  0  0  0  0  0  0  0  0  0  0
   47.7046   33.1446   39.8659 H   0  0  0  0  0  0  0  0  0  0  0  0
   49.4761   34.4889   40.4219 H   0  0  0  0  0  0  0  0  0  0  0  0
   48.5936   35.9445   39.8953 H   0  0  0  0  0  0  0  0  0  0  0  0
   48.8147   34.7137   42.6451 H   0  0  0  0  0  0  0  0  0  0  0  0
   48.7087   36.4100   42.2296 H   0  0  0  0  0  0  0  0  0  0  0  0
   46.3587   36.2657   41.7877 H   0  0  0  0  0  0  0  0  0  0  0  0
   46.5364   35.1552   43.1552 H   0  0  0  0  0  0  0  0  0  0  0  0
   47.5974   31.7975   40.6911 H   0  0  0  0  0  0  0  0  0  0  0  0
   47.6030   29.7643   42.1907 H   0  0  0  0  0  0  0  0  0  0  0  0
   45.1854   31.9337   44.9833 H   0  0  0  0  0  0  0  0  0  0  0  0
   44.4562   34.7074   41.5002 H   0  0  0  0  0  0  0  0  0  0  0  0
   45.1607   35.3803   40.1291 H   0  0  0  0  0  0  0  0  0  0  0  0
  1  6  1  0
  1  5  1  0
  2  3  1  0
  2  1  1  0
  3  4  1  0
  4  5  1  0
  6 11  1  0
  7  6  2  0
  7  8  1  0
  8  9  2  0
  9 10  1  0
 11 10  2  0
 12  1  1  0
  2 13  1  0
  2 14  1  0
  3 15  1  0
  3 16  1  0
  4 17  1  0
  4 18  1  0
  5 19  1  0
  5 20  1  0
  7 21  1  0
  8 22  1  0
 10 23  1  0
 12 24  1  0
 12 25  1  0
M  ISO  8  13  13  14  13  15  13  16  13  17  13  18  13  19  13  20  13
M  ISO  5  21  14  22  14  23  14  24   5  25   5
M  END
>  <minimizedAffinity>  (1) 
-3.25463319

>  <minimizedRMSD>  (1) 
1.4093523

$$$$
