
     RDKit          3D

 44 48  0  0  0  0  0  0  0  0999 V2000
   45.5130   34.4350   43.2130 C   0  0  0  0  0  0  0  0  0  0  0  0
   45.0770   35.4320   44.1950 C   0  0  0  0  0  0  0  0  0  0  0  0
   45.0780   34.7920   45.5720 C   0  0  0  0  0  0  0  0  0  0  0  0
   45.5460   33.3650   45.3840 C   0  0  0  0  0  0  0  0  0  0  0  0
   45.3090   33.0760   43.9470 C   0  0  0  0  0  0  0  0  0  0  0  0
   46.9170   34.4410   42.7960 C   0  0  0  0  0  0  0  0  0  0  0  0
   47.4060   35.5140   42.0530 C   0  0  0  0  0  0  0  0  0  0  0  0
   48.7460   35.5120   41.6520 C   0  0  0  0  0  0  0  0  0  0  0  0
   49.5110   34.4540   42.0090 N   0  0  0  0  0  0  0  0  0  0  0  0
   49.0030   33.4200   42.7360 C   0  0  0  0  0  0  0  0  0  0  0  0
   47.7240   33.4180   43.1220 N   0  0  0  0  0  0  0  0  0  0  0  0
   44.6080   34.3980   42.0330 C   0  0  0  0  0  0  0  0  0  0  0  0
   43.9480   35.2430   41.2140 C   0  0  0  0  0  0  0  0  0  0  0  0
   43.1810   34.8030   40.1910 C   0  0  0  0  0  0  0  0  0  0  0  0
   43.1030   33.4140   40.0200 C   0  0  0  0  0  0  0  0  0  0  0  0
   44.1580   32.7490   41.3620 S   0  0  0  0  0  0  0  0  0  0  0  0
   42.4110   32.6750   39.0800 N   0  0  0  0  0  0  0  0  0  0  0  0
   42.8560   32.1340   37.9570 C   0  0  0  0  0  0  0  0  0  0  0  0
   41.8170   31.4960   37.3450 N   0  0  0  0  0  0  0  0  0  0  0  0
   40.7200   31.6520   38.1100 C   0  0  0  0  0  0  0  0  0  0  0  0
   39.3980   31.2160   37.9720 C   0  0  0  0  0  0  0  0  0  0  0  0
   39.0480   30.5350   36.9740 O   0  0  0  0  0  0  0  0  0  0  0  0
   38.5110   31.5440   38.9330 N   0  0  0  0  0  0  0  0  0  0  0  0
   38.9090   32.2690   39.9830 C   0  0  0  0  0  0  0  0  0  0  0  0
   37.9100   32.5690   40.9490 N   0  0  0  0  0  0  0  0  0  0  0  0
   40.1610   32.7230   40.1850 N   0  0  0  0  0  0  0  0  0  0  0  0
   41.0850   32.4080   39.2290 C   0  0  0  0  0  0  0  0  0  0  0  0
   45.7672   36.2884   44.1844 H   0  0  0  0  0  0  0  0  0  0  0  0
   44.0653   35.7852   43.9466 H   0  0  0  0  0  0  0  0  0  0  0  0
   45.7643   35.3317   46.2411 H   0  0  0  0  0  0  0  0  0  0  0  0
   44.0766   34.8250   46.0260 H   0  0  0  0  0  0  0  0  0  0  0  0
   46.6148   33.2722   45.6271 H   0  0  0  0  0  0  0  0  0  0  0  0
   45.0141   32.6627   46.0427 H   0  0  0  0  0  0  0  0  0  0  0  0
   44.2850   32.7051   43.7927 H   0  0  0  0  0  0  0  0  0  0  0  0
   45.9901   32.2999   43.5679 H   0  0  0  0  0  0  0  0  0  0  0  0
   46.7461   36.3523   41.7852 H   0  0  0  0  0  0  0  0  0  0  0  0
   49.1645   36.3432   41.0656 H   0  0  0  0  0  0  0  0  0  0  0  0
   49.6540   32.5762   43.0086 H   0  0  0  0  0  0  0  0  0  0  0  0
   44.0368   36.3261   41.3842 H   0  0  0  0  0  0  0  0  0  0  0  0
   42.6462   35.4987   39.5277 H   0  0  0  0  0  0  0  0  0  0  0  0
   43.8883   32.1894   37.5810 H   0  0  0  0  0  0  0  0  0  0  0  0
   37.5306   31.2371   38.8583 H   0  0  0  0  0  0  0  0  0  0  0  0
   38.1500   33.1242   41.7827 H   0  0  0  0  0  0  0  0  0  0  0  0
   36.9462   32.2311   40.8152 H   0  0  0  0  0  0  0  0  0  0  0  0
  1  5  1  0
  1  2  1  0
  2  3  1  0
  4  3  1  0
  5  4  1  0
  6 11  1  0
  6  1  1  0
  7  6  2  0
  8  9  2  0
  8  7  1  0
  9 10  1  0
 10 11  2  0
 12  1  1  0
 13 12  2  0
 14 13  1  0
 15 14  2  0
 15 16  1  0
 16 12  1  0
 17 27  1  0
 17 15  1  0
 18 17  1  0
 19 18  2  0
 19 20  1  0
 20 27  2  0
 21 20  1  0
 21 23  1  0
 22 21  2  0
 23 24  1  0
 24 26  2  0
 24 25  1  0
 27 26  1  0
  2 28  1  0
  2 29  1  0
  3 30  1  0
  3 31  1  0
  4 32  1  0
  4 33  1  0
  5 34  1  0
  5 35  1  0
  7 36  1  0
  8 37  1  0
 10 38  1  0
 13 39  1  0
 14 40  1  0
 18 41  1  0
 23 42  1  0
 25 43  1  0
 25 44  1  0
M  ISO  8  28  13  29  13  30  13  31  13  32  13  33  13  34  13  35  13
M  ISO  7  36  14  37  14  38  14  39  14  40  14  41  14  42   9
M  END
>  <minimizedAffinity>  (1) 
-6.48505783

>  <minimizedRMSD>  (1) 
2.11122942

$$$$
