
     RDKit          3D

 39 42  0  0  0  0  0  0  0  0999 V2000
   44.9430   34.3110   42.4810 C   0  0  0  0  0  0  0  0  0  0  0  0
   44.9820   35.0140   43.7730 C   0  0  0  0  0  0  0  0  0  0  0  0
   45.3390   33.9970   44.8570 C   0  0  0  0  0  0  0  0  0  0  0  0
   45.5540   32.6860   44.1610 C   0  0  0  0  0  0  0  0  0  0  0  0
   44.8250   32.8230   42.8620 C   0  0  0  0  0  0  0  0  0  0  0  0
   46.1430   34.4120   41.6330 C   0  0  0  0  0  0  0  0  0  0  0  0
   47.2450   35.1590   42.0830 C   0  0  0  0  0  0  0  0  0  0  0  0
   48.3740   35.2400   41.2550 C   0  0  0  0  0  0  0  0  0  0  0  0
   48.3320   34.5850   40.0570 N   0  0  0  0  0  0  0  0  0  0  0  0
   47.2390   33.8700   39.6600 C   0  0  0  0  0  0  0  0  0  0  0  0
   46.1530   33.7850   40.4450 N   0  0  0  0  0  0  0  0  0  0  0  0
   43.7200   34.6540   41.7180 C   0  0  0  0  0  0  0  0  0  0  0  0
   43.0200   35.7310   41.3000 C   0  0  0  0  0  0  0  0  0  0  0  0
   41.8830   35.6130   40.5810 C   0  0  0  0  0  0  0  0  0  0  0  0
   41.4570   34.3110   40.2870 C   0  0  0  0  0  0  0  0  0  0  0  0
   42.7280   33.2560   41.0660 S   0  0  0  0  0  0  0  0  0  0  0  0
   40.3020   33.8480   39.5510 C   0  0  0  0  0  0  0  0  0  0  0  0
   39.9640   34.5690   38.4300 C   0  0  0  0  0  0  0  0  0  0  0  0
   38.8440   34.1060   37.7310 C   0  0  0  0  0  0  0  0  0  0  0  0
   38.1590   32.9800   38.1990 C   0  0  0  0  0  0  0  0  0  0  0  0
   38.5490   32.2880   39.3460 C   0  0  0  0  0  0  0  0  0  0  0  0
   39.6400   32.7670   39.9980 N   0  0  0  0  0  0  0  0  0  0  0  0
   45.7422   35.8084   43.7423 H   0  0  0  0  0  0  0  0  0  0  0  0
   44.0050   35.4718   43.9872 H   0  0  0  0  0  0  0  0  0  0  0  0
   46.2573   34.3048   45.3785 H   0  0  0  0  0  0  0  0  0  0  0  0
   44.5390   33.9207   45.6081 H   0  0  0  0  0  0  0  0  0  0  0  0
   46.6259   32.5097   43.9878 H   0  0  0  0  0  0  0  0  0  0  0  0
   45.1906   31.8344   44.7549 H   0  0  0  0  0  0  0  0  0  0  0  0
   43.7690   32.5390   42.9816 H   0  0  0  0  0  0  0  0  0  0  0  0
   45.2463   32.1675   42.0856 H   0  0  0  0  0  0  0  0  0  0  0  0
   47.2226   35.6666   43.0586 H   0  0  0  0  0  0  0  0  0  0  0  0
   49.2631   35.8115   41.5599 H   0  0  0  0  0  0  0  0  0  0  0  0
   47.2481   33.3580   38.6865 H   0  0  0  0  0  0  0  0  0  0  0  0
   43.3879   36.7362   41.5534 H   0  0  0  0  0  0  0  0  0  0  0  0
   41.3194   36.4951   40.2430 H   0  0  0  0  0  0  0  0  0  0  0  0
   40.5358   35.4506   38.1047 H   0  0  0  0  0  0  0  0  0  0  0  0
   38.5051   34.6231   36.8212 H   0  0  0  0  0  0  0  0  0  0  0  0
   37.2791   32.6265   37.6414 H   0  0  0  0  0  0  0  0  0  0  0  0
   38.0026   31.4025   39.7029 H   0  0  0  0  0  0  0  0  0  0  0  0
  1  5  1  0
  1  2  1  0
  2  3  1  0
  4  3  1  0
  5  4  1  0
  6  7  2  0
  6  1  1  0
  8  7  1  0
  9  8  2  0
 10  9  1  0
 10 11  2  0
 11  6  1  0
 12  1  1  0
 13 12  2  0
 14 13  1  0
 15 14  2  0
 15 16  1  0
 16 12  1  0
 17 22  1  0
 17 15  1  0
 18 17  2  0
 19 20  2  0
 19 18  1  0
 20 21  1  0
 21 22  2  0
  2 23  1  0
  2 24  1  0
  3 25  1  0
  3 26  1  0
  4 27  1  0
  4 28  1  0
  5 29  1  0
  5 30  1  0
  7 31  1  0
  8 32  1  0
 10 33  1  0
 13 34  1  0
 14 35  1  0
 18 36  1  0
 19 37  1  0
 20 38  1  0
 21 39  1  0
M  ISO  8  23  13  24  13  25  13  26  13  27  13  28  13  29  13  30  13
M  ISO  8  31  14  32  14  33  14  34  14  35  14  36  14  37  14  38  14
M  ISO  1  39  14
M  END
>  <minimizedAffinity>  (1) 
-6.13014412

>  <minimizedRMSD>  (1) 
0.768994749

$$$$
