
     RDKit          3D

 43 47  0  0  0  0  0  0  0  0999 V2000
   44.8630   34.6400   42.4860 C   0  0  0  0  0  0  0  0  0  0  0  0
   44.6470   35.7070   43.4640 C   0  0  0  0  0  0  0  0  0  0  0  0
   44.9900   35.1720   44.8550 C   0  0  0  0  0  0  0  0  0  0  0  0
   45.4700   33.7620   44.6650 C   0  0  0  0  0  0  0  0  0  0  0  0
   44.9050   33.3450   43.3450 C   0  0  0  0  0  0  0  0  0  0  0  0
   46.1390   34.6560   41.7490 C   0  0  0  0  0  0  0  0  0  0  0  0
   47.2200   35.3920   42.2480 C   0  0  0  0  0  0  0  0  0  0  0  0
   48.4250   35.3970   41.5290 C   0  0  0  0  0  0  0  0  0  0  0  0
   48.4690   34.6730   40.3790 N   0  0  0  0  0  0  0  0  0  0  0  0
   47.3930   33.9640   39.9190 C   0  0  0  0  0  0  0  0  0  0  0  0
   46.2390   33.9560   40.6000 N   0  0  0  0  0  0  0  0  0  0  0  0
   43.7150   34.4890   41.5650 C   0  0  0  0  0  0  0  0  0  0  0  0
   42.9870   35.2160   40.6910 C   0  0  0  0  0  0  0  0  0  0  0  0
   41.9550   34.6870   39.9990 C   0  0  0  0  0  0  0  0  0  0  0  0
   41.6710   33.3330   40.2330 C   0  0  0  0  0  0  0  0  0  0  0  0
   42.9190   32.8330   41.4690 S   0  0  0  0  0  0  0  0  0  0  0  0
   40.6800   32.5090   39.6810 N   0  0  0  0  0  0  0  0  0  0  0  0
   40.2980   32.5810   38.3900 C   0  0  0  0  0  0  0  0  0  0  0  0
   39.3280   31.6450   38.2010 N   0  0  0  0  0  0  0  0  0  0  0  0
   39.1220   31.0120   39.3580 C   0  0  0  0  0  0  0  0  0  0  0  0
   38.2930   29.9960   39.7910 C   0  0  0  0  0  0  0  0  0  0  0  0
   38.2880   29.5260   41.0710 N   0  0  0  0  0  0  0  0  0  0  0  0
   39.1440   30.0830   41.9780 C   0  0  0  0  0  0  0  0  0  0  0  0
   39.9510   31.0730   41.5530 N   0  0  0  0  0  0  0  0  0  0  0  0
   39.9740   31.5530   40.3000 C   0  0  0  0  0  0  0  0  0  0  0  0
   37.4010   29.4150   38.8460 N   0  0  0  0  0  0  0  0  0  0  0  0
   45.2947   36.5638   43.2266 H   0  0  0  0  0  0  0  0  0  0  0  0
   43.5974   36.0348   43.4362 H   0  0  0  0  0  0  0  0  0  0  0  0
   45.7812   35.7840   45.3127 H   0  0  0  0  0  0  0  0  0  0  0  0
   44.1151   35.2073   45.5208 H   0  0  0  0  0  0  0  0  0  0  0  0
   46.5692   33.7254   44.6457 H   0  0  0  0  0  0  0  0  0  0  0  0
   45.1510   33.0993   45.4830 H   0  0  0  0  0  0  0  0  0  0  0  0
   43.8924   32.9346   43.4722 H   0  0  0  0  0  0  0  0  0  0  0  0
   45.5110   32.5590   42.8706 H   0  0  0  0  0  0  0  0  0  0  0  0
   47.1265   35.9566   43.1874 H   0  0  0  0  0  0  0  0  0  0  0  0
   49.2991   35.9640   41.8817 H   0  0  0  0  0  0  0  0  0  0  0  0
   47.4761   33.3951   38.9812 H   0  0  0  0  0  0  0  0  0  0  0  0
   43.2430   36.2747   40.5373 H   0  0  0  0  0  0  0  0  0  0  0  0
   41.3673   35.2867   39.2884 H   0  0  0  0  0  0  0  0  0  0  0  0
   40.6966   33.2690   37.6299 H   0  0  0  0  0  0  0  0  0  0  0  0
   39.1729   29.7342   43.0208 H   0  0  0  0  0  0  0  0  0  0  0  0
   36.7685   28.6550   39.1345 H   0  0  0  0  0  0  0  0  0  0  0  0
   37.3881   29.7546   37.8737 H   0  0  0  0  0  0  0  0  0  0  0  0
  1  5  1  0
  1  2  1  0
  2  3  1  0
  4  3  1  0
  5  4  1  0
  6  7  2  0
  6  1  1  0
  8  7  1  0
  9  8  2  0
 10  9  1  0
 10 11  2  0
 11  6  1  0
 12  1  1  0
 13 12  2  0
 14 15  2  0
 14 13  1  0
 15 16  1  0
 16 12  1  0
 17 15  1  0
 17 25  1  0
 18 17  1  0
 19 18  2  0
 19 20  1  0
 20 21  2  0
 20 25  1  0
 21 22  1  0
 22 23  2  0
 24 23  1  0
 25 24  2  0
 26 21  1  0
  2 27  1  0
  2 28  1  0
  3 29  1  0
  3 30  1  0
  4 31  1  0
  4 32  1  0
  5 33  1  0
  5 34  1  0
  7 35  1  0
  8 36  1  0
 10 37  1  0
 13 38  1  0
 14 39  1  0
 18 40  1  0
 23 41  1  0
 26 42  1  0
 26 43  1  0
M  ISO  8  27  13  28  13  29  13  30  13  31  13  32  13  33  13  34  13
M  ISO  7  35  14  36  14  37  14  38  14  39  14  40  14  41  14
M  END
>  <minimizedAffinity>  (1) 
-6.02291346

>  <minimizedRMSD>  (1) 
0.461288422

$$$$
