
     RDKit          3D

 42 45  0  0  0  0  0  0  0  0999 V2000
   44.9020   34.5340   42.3820 C   0  0  0  0  0  0  0  0  0  0  0  0
   44.8660   35.4050   43.5570 C   0  0  0  0  0  0  0  0  0  0  0  0
   45.2010   34.5780   44.7900 C   0  0  0  0  0  0  0  0  0  0  0  0
   45.4570   33.1670   44.3060 C   0  0  0  0  0  0  0  0  0  0  0  0
   44.7700   33.1020   42.9810 C   0  0  0  0  0  0  0  0  0  0  0  0
   46.1200   34.5110   41.5710 C   0  0  0  0  0  0  0  0  0  0  0  0
   47.2410   35.2330   41.9940 C   0  0  0  0  0  0  0  0  0  0  0  0
   48.4010   35.2090   41.2100 C   0  0  0  0  0  0  0  0  0  0  0  0
   48.3700   34.4710   40.0610 N   0  0  0  0  0  0  0  0  0  0  0  0
   47.2630   33.7840   39.6860 C   0  0  0  0  0  0  0  0  0  0  0  0
   46.1490   33.7990   40.4260 N   0  0  0  0  0  0  0  0  0  0  0  0
   43.6940   34.7210   41.5260 C   0  0  0  0  0  0  0  0  0  0  0  0
   43.0900   35.6710   40.7860 C   0  0  0  0  0  0  0  0  0  0  0  0
   41.9380   35.4550   40.1130 C   0  0  0  0  0  0  0  0  0  0  0  0
   41.3950   34.1740   40.2240 C   0  0  0  0  0  0  0  0  0  0  0  0
   42.5670   33.2930   41.3090 S   0  0  0  0  0  0  0  0  0  0  0  0
   40.2500   33.5830   39.6900 N   0  0  0  0  0  0  0  0  0  0  0  0
   39.1290   34.3400   39.2240 C   0  0  0  0  0  0  0  0  0  0  0  0
   38.2950   33.4290   38.3500 C   0  0  0  0  0  0  0  0  0  0  0  0
   38.6230   32.0650   38.8920 C   0  0  0  0  0  0  0  0  0  0  0  0
   39.9960   32.1710   39.5170 C   0  0  0  0  0  0  0  0  0  0  0  0
   45.6040   36.2125   43.4416 H   0  0  0  0  0  0  0  0  0  0  0  0
   43.8646   35.8475   43.6641 H   0  0  0  0  0  0  0  0  0  0  0  0
   46.0985   34.9788   45.2838 H   0  0  0  0  0  0  0  0  0  0  0  0
   44.3796   34.6043   45.5212 H   0  0  0  0  0  0  0  0  0  0  0  0
   46.5358   32.9825   44.1953 H   0  0  0  0  0  0  0  0  0  0  0  0
   45.0864   32.4071   45.0097 H   0  0  0  0  0  0  0  0  0  0  0  0
   43.7110   32.8332   43.1083 H   0  0  0  0  0  0  0  0  0  0  0  0
   45.2140   32.3392   42.3246 H   0  0  0  0  0  0  0  0  0  0  0  0
   47.2117   35.8114   42.9292 H   0  0  0  0  0  0  0  0  0  0  0  0
   49.3030   35.7635   41.5081 H   0  0  0  0  0  0  0  0  0  0  0  0
   47.2814   33.2017   38.7530 H   0  0  0  0  0  0  0  0  0  0  0  0
   43.5548   36.6662   40.7269 H   0  0  0  0  0  0  0  0  0  0  0  0
   41.4570   36.2419   39.5135 H   0  0  0  0  0  0  0  0  0  0  0  0
   38.5315   34.6906   40.0785 H   0  0  0  0  0  0  0  0  0  0  0  0
   39.4655   35.2197   38.6557 H   0  0  0  0  0  0  0  0  0  0  0  0
   38.5862   33.5169   37.2929 H   0  0  0  0  0  0  0  0  0  0  0  0
   37.2204   33.6628   38.3739 H   0  0  0  0  0  0  0  0  0  0  0  0
   37.8824   31.7687   39.6494 H   0  0  0  0  0  0  0  0  0  0  0  0
   38.6053   31.3056   38.0964 H   0  0  0  0  0  0  0  0  0  0  0  0
   40.0131   31.6581   40.4899 H   0  0  0  0  0  0  0  0  0  0  0  0
   40.7627   31.6994   38.8847 H   0  0  0  0  0  0  0  0  0  0  0  0
  1  5  1  0
  1  2  1  0
  2  3  1  0
  4  3  1  0
  5  4  1  0
  6  7  2  0
  6  1  1  0
  8  7  1  0
  9  8  2  0
 10  9  1  0
 10 11  2  0
 11  6  1  0
 12  1  1  0
 13 12  2  0
 14 15  2  0
 14 13  1  0
 15 16  1  0
 16 12  1  0
 17 15  1  0
 18 17  1  0
 19 20  1  0
 19 18  1  0
 20 21  1  0
 21 17  1  0
  2 22  1  0
  2 23  1  0
  3 24  1  0
  3 25  1  0
  4 26  1  0
  4 27  1  0
  5 28  1  0
  5 29  1  0
  7 30  1  0
  8 31  1  0
 10 32  1  0
 13 33  1  0
 14 34  1  0
 18 35  1  0
 18 36  1  0
 19 37  1  0
 19 38  1  0
 20 39  1  0
 20 40  1  0
 21 41  1  0
 21 42  1  0
M  ISO  8  22  13  23  13  24  13  25  13  26  13  27  13  28  13  29  13
M  ISO  8  30  14  31  14  32  14  33  14  34  14  35  13  36  13  37  13
M  ISO  5  38  13  39  13  40  13  41  13  42  13
M  END
>  <minimizedAffinity>  (1) 
-5.70623875

>  <minimizedRMSD>  (1) 
0.509710014

$$$$
