
     RDKit          3D

 37 40  0  0  0  0  0  0  0  0999 V2000
   44.8810   34.5190   42.4090 C   0  0  0  0  0  0  0  0  0  0  0  0
   44.8660   35.3950   43.5820 C   0  0  0  0  0  0  0  0  0  0  0  0
   45.2150   34.5640   44.8160 C   0  0  0  0  0  0  0  0  0  0  0  0
   45.4670   33.1660   44.3330 C   0  0  0  0  0  0  0  0  0  0  0  0
   44.7820   33.0860   43.0070 C   0  0  0  0  0  0  0  0  0  0  0  0
   46.1060   34.5130   41.5910 C   0  0  0  0  0  0  0  0  0  0  0  0
   47.2250   35.2420   42.0220 C   0  0  0  0  0  0  0  0  0  0  0  0
   48.3810   35.2180   41.2170 C   0  0  0  0  0  0  0  0  0  0  0  0
   48.3500   34.4920   40.0730 N   0  0  0  0  0  0  0  0  0  0  0  0
   47.2320   33.7960   39.6930 C   0  0  0  0  0  0  0  0  0  0  0  0
   46.1250   33.8050   40.4420 N   0  0  0  0  0  0  0  0  0  0  0  0
   43.6760   34.6990   41.5680 C   0  0  0  0  0  0  0  0  0  0  0  0
   43.0340   35.6620   40.8760 C   0  0  0  0  0  0  0  0  0  0  0  0
   41.8920   35.4310   40.1950 C   0  0  0  0  0  0  0  0  0  0  0  0
   41.4010   34.1210   40.2430 C   0  0  0  0  0  0  0  0  0  0  0  0
   42.6150   33.2340   41.2880 S   0  0  0  0  0  0  0  0  0  0  0  0
   40.2570   33.5470   39.6560 N   0  0  0  0  0  0  0  0  0  0  0  0
   39.5980   32.3990   39.7770 N   0  0  0  0  0  0  0  0  0  0  0  0
   38.5330   32.4070   38.9260 C   0  0  0  0  0  0  0  0  0  0  0  0
   38.5310   33.6190   38.2430 C   0  0  0  0  0  0  0  0  0  0  0  0
   39.6280   34.3100   38.7260 C   0  0  0  0  0  0  0  0  0  0  0  0
   45.6070   36.1979   43.4543 H   0  0  0  0  0  0  0  0  0  0  0  0
   43.8696   35.8453   43.7019 H   0  0  0  0  0  0  0  0  0  0  0  0
   46.1162   34.9660   45.3021 H   0  0  0  0  0  0  0  0  0  0  0  0
   44.4001   34.5881   45.5544 H   0  0  0  0  0  0  0  0  0  0  0  0
   46.5461   32.9837   44.2224 H   0  0  0  0  0  0  0  0  0  0  0  0
   45.0909   32.4107   45.0388 H   0  0  0  0  0  0  0  0  0  0  0  0
   43.7294   32.7929   43.1338 H   0  0  0  0  0  0  0  0  0  0  0  0
   45.2440   32.3340   42.3505 H   0  0  0  0  0  0  0  0  0  0  0  0
   47.2003   35.8152   42.9605 H   0  0  0  0  0  0  0  0  0  0  0  0
   49.2844   35.7735   41.5091 H   0  0  0  0  0  0  0  0  0  0  0  0
   47.2460   33.2203   38.7558 H   0  0  0  0  0  0  0  0  0  0  0  0
   43.4583   36.6768   40.8662 H   0  0  0  0  0  0  0  0  0  0  0  0
   41.3772   36.2256   39.6350 H   0  0  0  0  0  0  0  0  0  0  0  0
   37.8014   31.5951   38.8009 H   0  0  0  0  0  0  0  0  0  0  0  0
   37.8115   33.9557   37.4821 H   0  0  0  0  0  0  0  0  0  0  0  0
   39.9402   35.3156   38.4077 H   0  0  0  0  0  0  0  0  0  0  0  0
  1  5  1  0
  1  2  1  0
  2  3  1  0
  4  3  1  0
  5  4  1  0
  6  7  2  0
  6  1  1  0
  8  7  1  0
  9  8  2  0
 10  9  1  0
 10 11  2  0
 11  6  1  0
 12  1  1  0
 13 12  2  0
 14 15  2  0
 14 13  1  0
 15 16  1  0
 16 12  1  0
 17 18  1  0
 17 15  1  0
 19 18  2  0
 20 21  2  0
 20 19  1  0
 21 17  1  0
  2 22  1  0
  2 23  1  0
  3 24  1  0
  3 25  1  0
  4 26  1  0
  4 27  1  0
  5 28  1  0
  5 29  1  0
  7 30  1  0
  8 31  1  0
 10 32  1  0
 13 33  1  0
 14 34  1  0
 19 35  1  0
 20 36  1  0
 21 37  1  0
M  ISO  8  22  13  23  13  24  13  25  13  26  13  27  13  28  13  29  13
M  ISO  8  30  14  31  14  32  14  33  14  34  14  35  14  36  14  37  14
M  END
>  <minimizedAffinity>  (1) 
-5.61807728

>  <minimizedRMSD>  (1) 
0.4472287

$$$$
