
     RDKit          3D

 39 41  0  0  0  0  0  0  0  0999 V2000
   44.8640   34.5280   42.3910 C   0  0  0  0  0  0  0  0  0  0  0  0
   44.8510   35.4050   43.5570 C   0  0  0  0  0  0  0  0  0  0  0  0
   45.2060   34.5770   44.7890 C   0  0  0  0  0  0  0  0  0  0  0  0
   45.4430   33.1650   44.3080 C   0  0  0  0  0  0  0  0  0  0  0  0
   44.7480   33.0960   42.9900 C   0  0  0  0  0  0  0  0  0  0  0  0
   46.0840   34.4990   41.5620 C   0  0  0  0  0  0  0  0  0  0  0  0
   47.2100   35.2190   41.9690 C   0  0  0  0  0  0  0  0  0  0  0  0
   48.3650   35.1890   41.1770 C   0  0  0  0  0  0  0  0  0  0  0  0
   48.3190   34.4400   40.0280 N   0  0  0  0  0  0  0  0  0  0  0  0
   47.2100   33.7530   39.6640 C   0  0  0  0  0  0  0  0  0  0  0  0
   46.1030   33.7810   40.4210 N   0  0  0  0  0  0  0  0  0  0  0  0
   43.6550   34.7120   41.5440 C   0  0  0  0  0  0  0  0  0  0  0  0
   43.0600   35.6650   40.7960 C   0  0  0  0  0  0  0  0  0  0  0  0
   41.9020   35.4410   40.1360 C   0  0  0  0  0  0  0  0  0  0  0  0
   41.3460   34.1620   40.2670 C   0  0  0  0  0  0  0  0  0  0  0  0
   42.5200   33.2840   41.3580 S   0  0  0  0  0  0  0  0  0  0  0  0
   40.1220   33.5950   39.6950 C   0  0  0  0  0  0  0  0  0  0  0  0
   39.5530   34.4310   38.5730 C   0  0  0  0  0  0  0  0  0  0  0  0
   39.1070   33.3570   40.7570 C   0  0  0  0  0  0  0  0  0  0  0  0
   45.5898   36.2092   43.4248 H   0  0  0  0  0  0  0  0  0  0  0  0
   43.8548   35.8550   43.6793 H   0  0  0  0  0  0  0  0  0  0  0  0
   46.1156   34.9738   45.2635 H   0  0  0  0  0  0  0  0  0  0  0  0
   44.3986   34.6110   45.5353 H   0  0  0  0  0  0  0  0  0  0  0  0
   46.5192   32.9701   44.1904 H   0  0  0  0  0  0  0  0  0  0  0  0
   45.0674   32.4134   45.0180 H   0  0  0  0  0  0  0  0  0  0  0  0
   43.6921   32.8188   43.1249 H   0  0  0  0  0  0  0  0  0  0  0  0
   45.1936   32.3373   42.3299 H   0  0  0  0  0  0  0  0  0  0  0  0
   47.1898   35.8029   42.9010 H   0  0  0  0  0  0  0  0  0  0  0  0
   49.2711   35.7427   41.4641 H   0  0  0  0  0  0  0  0  0  0  0  0
   47.2172   33.1641   38.7350 H   0  0  0  0  0  0  0  0  0  0  0  0
   43.5326   36.6555   40.7212 H   0  0  0  0  0  0  0  0  0  0  0  0
   41.4216   36.2218   39.5281 H   0  0  0  0  0  0  0  0  0  0  0  0
   40.3985   32.6288   39.2479 H   0  0  0  0  0  0  0  0  0  0  0  0
   38.9814   35.2708   38.9950 H   0  0  0  0  0  0  0  0  0  0  0  0
   40.3741   34.8209   37.9535 H   0  0  0  0  0  0  0  0  0  0  0  0
   38.8891   33.8102   37.9535 H   0  0  0  0  0  0  0  0  0  0  0  0
   39.5775   33.4673   41.7452 H   0  0  0  0  0  0  0  0  0  0  0  0
   38.2916   34.0883   40.6554 H   0  0  0  0  0  0  0  0  0  0  0  0
   38.7017   32.3395   40.6554 H   0  0  0  0  0  0  0  0  0  0  0  0
  1  5  1  0
  1  2  1  0
  2  3  1  0
  4  3  1  0
  5  4  1  0
  6  7  2  0
  6  1  1  0
  8  7  1  0
  9  8  2  0
 10  9  1  0
 10 11  2  0
 11  6  1  0
 12  1  1  0
 13 12  2  0
 14 15  2  0
 14 13  1  0
 15 16  1  0
 16 12  1  0
 17 15  1  0
 17 19  1  0
 18 17  1  0
  2 20  1  0
  2 21  1  0
  3 22  1  0
  3 23  1  0
  4 24  1  0
  4 25  1  0
  5 26  1  0
  5 27  1  0
  7 28  1  0
  8 29  1  0
 10 30  1  0
 13 31  1  0
 14 32  1  0
 17 33  1  0
 18 34  1  0
 18 35  1  0
 18 36  1  0
 19 37  1  0
 19 38  1  0
 19 39  1  0
M  ISO  8  20  13  21  13  22  13  23  13  24  13  25  13  26  13  27  13
M  ISO  8  28  14  29  14  30  14  31  14  32  14  33   8  34   8  35   8
M  ISO  4  36   8  37   8  38   8  39   8
M  END
>  <minimizedAffinity>  (1) 
-5.309793

>  <minimizedRMSD>  (1) 
0.446822882

$$$$
