
     RDKit          3D

 32 34  0  0  0  0  0  0  0  0999 V2000
   44.9490   34.5410   42.5270 C   0  0  0  0  0  0  0  0  0  0  0  0
   44.8180   35.4300   43.6930 C   0  0  0  0  0  0  0  0  0  0  0  0
   45.1580   34.6520   44.9530 C   0  0  0  0  0  0  0  0  0  0  0  0
   45.5280   33.2570   44.5050 C   0  0  0  0  0  0  0  0  0  0  0  0
   44.9100   33.1170   43.1580 C   0  0  0  0  0  0  0  0  0  0  0  0
   46.1980   34.6020   41.7710 C   0  0  0  0  0  0  0  0  0  0  0  0
   47.2730   35.3520   42.2600 C   0  0  0  0  0  0  0  0  0  0  0  0
   48.4620   35.4000   41.5250 C   0  0  0  0  0  0  0  0  0  0  0  0
   48.5020   34.6970   40.3480 N   0  0  0  0  0  0  0  0  0  0  0  0
   47.4450   33.9830   39.9050 C   0  0  0  0  0  0  0  0  0  0  0  0
   46.3020   33.9360   40.6110 N   0  0  0  0  0  0  0  0  0  0  0  0
   43.7740   34.6210   41.6260 C   0  0  0  0  0  0  0  0  0  0  0  0
   43.1100   35.5240   40.8780 C   0  0  0  0  0  0  0  0  0  0  0  0
   42.0140   35.2120   40.1460 C   0  0  0  0  0  0  0  0  0  0  0  0
   41.6030   33.8770   40.2110 C   0  0  0  0  0  0  0  0  0  0  0  0
   42.8130   33.0910   41.3360 S   0  0  0  0  0  0  0  0  0  0  0  0
   40.5350   33.2260   39.5960 N   0  0  0  0  0  0  0  0  0  0  0  0
   45.5084   36.2799   43.5875 H   0  0  0  0  0  0  0  0  0  0  0  0
   43.7865   35.8066   43.7574 H   0  0  0  0  0  0  0  0  0  0  0  0
   46.0055   35.1220   45.4735 H   0  0  0  0  0  0  0  0  0  0  0  0
   44.3094   34.6347   45.6527 H   0  0  0  0  0  0  0  0  0  0  0  0
   46.6207   33.1461   44.4440 H   0  0  0  0  0  0  0  0  0  0  0  0
   45.1755   32.4870   45.2070 H   0  0  0  0  0  0  0  0  0  0  0  0
   43.8716   32.7651   43.2470 H   0  0  0  0  0  0  0  0  0  0  0  0
   45.4471   32.3834   42.5388 H   0  0  0  0  0  0  0  0  0  0  0  0
   47.1842   35.8974   43.2111 H   0  0  0  0  0  0  0  0  0  0  0  0
   49.3295   35.9779   41.8765 H   0  0  0  0  0  0  0  0  0  0  0  0
   47.5201   33.4333   38.9552 H   0  0  0  0  0  0  0  0  0  0  0  0
   43.4747   36.5617   40.8611 H   0  0  0  0  0  0  0  0  0  0  0  0
   41.4819   35.9600   39.5399 H   0  0  0  0  0  0  0  0  0  0  0  0
   40.3807   32.2210   39.7606 H   0  0  0  0  0  0  0  0  0  0  0  0
   39.9000   33.7499   38.9769 H   0  0  0  0  0  0  0  0  0  0  0  0
  1  5  1  0
  1  2  1  0
  2  3  1  0
  4  3  1  0
  5  4  1  0
  6  7  2  0
  6  1  1  0
  8  7  1  0
  9  8  2  0
 10  9  1  0
 10 11  2  0
 11  6  1  0
 12  1  1  0
 13 12  2  0
 14 15  2  0
 14 13  1  0
 15 16  1  0
 16 12  1  0
 17 15  1  0
  2 18  1  0
  2 19  1  0
  3 20  1  0
  3 21  1  0
  4 22  1  0
  4 23  1  0
  5 24  1  0
  5 25  1  0
  7 26  1  0
  8 27  1  0
 10 28  1  0
 13 29  1  0
 14 30  1  0
 17 31  1  0
 17 32  1  0
M  ISO  8  18  13  19  13  20  13  21  13  22  13  23  13  24  13  25  13
M  ISO  5  26  14  27  14  28  14  29  14  30  14
M  END
>  <minimizedAffinity>  (1) 
-4.80319643

>  <minimizedRMSD>  (1) 
0.138392314

$$$$
