
     RDKit          3D

 34 37  0  0  0  0  0  0  0  0999 V2000
   44.7180   35.6640   44.4090 C   0  0  0  0  0  0  0  0  0  0  0  0
   45.5000   35.7580   43.2530 C   0  0  0  0  0  0  0  0  0  0  0  0
   46.5010   34.7870   43.0570 C   0  0  0  0  0  0  0  0  0  0  0  0
   46.6580   33.8150   43.9900 N   0  0  0  0  0  0  0  0  0  0  0  0
   45.8860   33.7470   45.1010 C   0  0  0  0  0  0  0  0  0  0  0  0
   44.9180   34.6680   45.3150 N   0  0  0  0  0  0  0  0  0  0  0  0
   46.1880   32.6620   45.9740 N   0  0  0  0  0  0  0  0  0  0  0  0
   45.6660   32.7040   47.2330 C   0  0  0  0  0  0  0  0  0  0  0  0
   45.9550   31.6610   48.0750 C   0  0  0  0  0  0  0  0  0  0  0  0
   45.3860   31.6960   49.4650 C   0  0  0  0  0  0  0  0  0  0  0  0
   46.7350   30.6320   47.6490 C   0  0  0  0  0  0  0  0  0  0  0  0
   47.0070   29.6720   48.4100 O   0  0  0  0  0  0  0  0  0  0  0  0
   47.2440   30.6050   46.4010 N   0  0  0  0  0  0  0  0  0  0  0  0
   46.9640   31.6330   45.5560 C   0  0  0  0  0  0  0  0  0  0  0  0
   47.3870   31.7120   44.3670 O   0  0  0  0  0  0  0  0  0  0  0  0
   47.2910   34.8910   41.8790 N   0  0  0  0  0  0  0  0  0  0  0  0
   48.4260   35.6410   41.7780 C   0  0  0  0  0  0  0  0  0  0  0  0
   48.9330   35.5230   40.5100 N   0  0  0  0  0  0  0  0  0  0  0  0
   48.0890   34.6920   39.8500 C   0  0  0  0  0  0  0  0  0  0  0  0
   48.1280   34.2390   38.5470 C   0  0  0  0  0  0  0  0  0  0  0  0
   47.1350   33.4060   38.1500 N   0  0  0  0  0  0  0  0  0  0  0  0
   46.1420   33.0310   39.0000 C   0  0  0  0  0  0  0  0  0  0  0  0
   46.0760   33.4580   40.2850 N   0  0  0  0  0  0  0  0  0  0  0  0
   47.0640   34.2950   40.6970 C   0  0  0  0  0  0  0  0  0  0  0  0
   43.9278   36.4078   44.5890 H   0  0  0  0  0  0  0  0  0  0  0  0
   45.3385   36.5635   42.5215 H   0  0  0  0  0  0  0  0  0  0  0  0
   45.0361   33.5439   47.5612 H   0  0  0  0  0  0  0  0  0  0  0  0
   46.2048   31.6456   50.1978 H   0  0  0  0  0  0  0  0  0  0  0  0
   44.8234   32.6304   49.6075 H   0  0  0  0  0  0  0  0  0  0  0  0
   44.7131   30.8375   49.6075 H   0  0  0  0  0  0  0  0  0  0  0  0
   47.8347   29.8195   46.0929 H   0  0  0  0  0  0  0  0  0  0  0  0
   48.8648   36.2448   42.5861 H   0  0  0  0  0  0  0  0  0  0  0  0
   48.9314   34.5413   37.8592 H   0  0  0  0  0  0  0  0  0  0  0  0
   45.3594   32.3527   38.6294 H   0  0  0  0  0  0  0  0  0  0  0  0
  1  6  2  0
  2  1  1  0
  3  2  2  0
  3  4  1  0
  4  5  2  0
  5  6  1  0
  5  7  1  0
  7  8  1  0
  8  9  2  0
  9 10  1  0
 11  9  1  0
 11 12  2  0
 13 11  1  0
 14  7  1  0
 14 13  1  0
 15 14  2  0
 16  3  1  0
 17 16  1  0
 18 17  2  0
 19 18  1  0
 19 24  2  0
 20 19  1  0
 21 20  2  0
 21 22  1  0
 22 23  2  0
 23 24  1  0
 24 16  1  0
  1 25  1  0
  2 26  1  0
  8 27  1  0
 10 28  1  0
 10 29  1  0
 10 30  1  0
 13 31  1  0
 17 32  1  0
 20 33  1  0
 22 34  1  0
M  ISO  8  25  14  26  14  27  14  28   8  29   8  30   8  31   9  32  14
M  ISO  2  33  14  34  14
M  END
>  <minimizedAffinity>  (1) 
-6.94292688

>  <minimizedRMSD>  (1) 
0.416588277

$$$$
