
     RDKit          3D

 35 39  0  0  0  0  0  0  0  0999 V2000
   44.6350   35.8720   44.7770 C   0  0  0  0  0  0  0  0  0  0  0  0
   44.1660   35.7400   43.4540 C   0  0  0  0  0  0  0  0  0  0  0  0
   44.3760   34.5330   42.8100 C   0  0  0  0  0  0  0  0  0  0  0  0
   45.0250   33.5190   43.4750 N   0  0  0  0  0  0  0  0  0  0  0  0
   45.4540   33.6910   44.7350 C   0  0  0  0  0  0  0  0  0  0  0  0
   45.2710   34.8430   45.3950 N   0  0  0  0  0  0  0  0  0  0  0  0
   43.8990   34.4060   41.4720 N   0  0  0  0  0  0  0  0  0  0  0  0
   44.5730   33.8130   40.4550 C   0  0  0  0  0  0  0  0  0  0  0  0
   43.8330   33.8630   39.3090 N   0  0  0  0  0  0  0  0  0  0  0  0
   42.6930   34.4970   39.6380 C   0  0  0  0  0  0  0  0  0  0  0  0
   41.5790   34.8310   38.8800 C   0  0  0  0  0  0  0  0  0  0  0  0
   40.5600   35.4810   39.4840 N   0  0  0  0  0  0  0  0  0  0  0  0
   40.6210   35.8010   40.7960 C   0  0  0  0  0  0  0  0  0  0  0  0
   41.6940   35.4930   41.5750 N   0  0  0  0  0  0  0  0  0  0  0  0
   42.7180   34.8450   40.9910 C   0  0  0  0  0  0  0  0  0  0  0  0
   46.1320   32.5620   45.3630 C   0  0  0  0  0  0  0  0  0  0  0  0
   47.0030   31.7070   44.7280 C   0  0  0  0  0  0  0  0  0  0  0  0
   47.4480   30.7830   45.5900 N   0  0  0  0  0  0  0  0  0  0  0  0
   46.8860   31.0080   46.7950 C   0  0  0  0  0  0  0  0  0  0  0  0
   46.9480   30.4180   48.0380 C   0  0  0  0  0  0  0  0  0  0  0  0
   46.2350   30.8840   49.1300 C   0  0  0  0  0  0  0  0  0  0  0  0
   45.4250   31.9880   48.9680 C   0  0  0  0  0  0  0  0  0  0  0  0
   45.3430   32.6010   47.7320 C   0  0  0  0  0  0  0  0  0  0  0  0
   46.0750   32.1010   46.6640 C   0  0  0  0  0  0  0  0  0  0  0  0
   44.4841   36.8194   45.3151 H   0  0  0  0  0  0  0  0  0  0  0  0
   43.6496   36.5700   42.9496 H   0  0  0  0  0  0  0  0  0  0  0  0
   45.5708   33.3580   40.5413 H   0  0  0  0  0  0  0  0  0  0  0  0
   41.5270   34.5724   37.8121 H   0  0  0  0  0  0  0  0  0  0  0  0
   39.7712   36.3305   41.2515 H   0  0  0  0  0  0  0  0  0  0  0  0
   47.2915   31.7724   43.6685 H   0  0  0  0  0  0  0  0  0  0  0  0
   48.1102   30.0257   45.3688 H   0  0  0  0  0  0  0  0  0  0  0  0
   47.5931   29.5367   48.1693 H   0  0  0  0  0  0  0  0  0  0  0  0
   46.3133   30.3837   50.1065 H   0  0  0  0  0  0  0  0  0  0  0  0
   44.8469   32.3789   49.8183 H   0  0  0  0  0  0  0  0  0  0  0  0
   44.6995   33.4826   47.5951 H   0  0  0  0  0  0  0  0  0  0  0  0
  1  6  2  0
  2  1  1  0
  3  2  2  0
  3  4  1  0
  4  5  2  0
  5 16  1  0
  5  6  1  0
  7  3  1  0
  8  7  1  0
  9 10  1  0
  9  8  2  0
 10 15  2  0
 11 12  2  0
 11 10  1  0
 12 13  1  0
 13 14  2  0
 15  7  1  0
 15 14  1  0
 16 24  1  0
 17 16  2  0
 17 18  1  0
 18 19  1  0
 19 20  2  0
 20 21  1  0
 22 21  2  0
 23 22  1  0
 24 19  1  0
 24 23  2  0
  1 25  1  0
  2 26  1  0
  8 27  1  0
 11 28  1  0
 13 29  1  0
 17 30  1  0
 18 31  1  0
 20 32  1  0
 21 33  1  0
 22 34  1  0
 23 35  1  0
M  ISO  8  25  14  26  14  27  14  28  14  29  14  30  14  31   9  32  14
M  ISO  3  33  14  34  14  35  14
M  END
>  <minimizedAffinity>  (1) 
-6.70016336

>  <minimizedRMSD>  (1) 
3.57689595

$$$$
