
     RDKit          3D

 32 36  0  0  0  0  0  0  0  0999 V2000
   44.5840   35.9240   44.3630 C   0  0  0  0  0  0  0  0  0  0  0  0
   45.4000   35.9240   43.2020 C   0  0  0  0  0  0  0  0  0  0  0  0
   46.3540   34.9230   43.1060 C   0  0  0  0  0  0  0  0  0  0  0  0
   46.4600   33.9980   44.1210 N   0  0  0  0  0  0  0  0  0  0  0  0
   45.6670   34.0380   45.1960 C   0  0  0  0  0  0  0  0  0  0  0  0
   44.7210   34.9980   45.3320 N   0  0  0  0  0  0  0  0  0  0  0  0
   45.9790   32.9740   46.0890 N   0  0  0  0  0  0  0  0  0  0  0  0
   45.6460   32.6910   47.3780 C   0  0  0  0  0  0  0  0  0  0  0  0
   46.2330   31.5290   47.7350 N   0  0  0  0  0  0  0  0  0  0  0  0
   46.9330   31.0610   46.7090 C   0  0  0  0  0  0  0  0  0  0  0  0
   47.7100   29.9220   46.5450 C   0  0  0  0  0  0  0  0  0  0  0  0
   48.3350   29.6590   45.3850 N   0  0  0  0  0  0  0  0  0  0  0  0
   48.1730   30.5570   44.3730 C   0  0  0  0  0  0  0  0  0  0  0  0
   47.4220   31.6670   44.5130 N   0  0  0  0  0  0  0  0  0  0  0  0
   46.7790   31.9680   45.6600 C   0  0  0  0  0  0  0  0  0  0  0  0
   47.1780   34.9190   41.9420 N   0  0  0  0  0  0  0  0  0  0  0  0
   48.3630   35.5500   41.8270 C   0  0  0  0  0  0  0  0  0  0  0  0
   48.8850   35.3390   40.5810 N   0  0  0  0  0  0  0  0  0  0  0  0
   47.9870   34.5580   39.9280 C   0  0  0  0  0  0  0  0  0  0  0  0
   48.0000   34.0400   38.6480 C   0  0  0  0  0  0  0  0  0  0  0  0
   46.9380   33.2730   38.2640 N   0  0  0  0  0  0  0  0  0  0  0  0
   45.9140   33.0300   39.1060 C   0  0  0  0  0  0  0  0  0  0  0  0
   45.8660   33.5190   40.3650 N   0  0  0  0  0  0  0  0  0  0  0  0
   46.9110   34.2900   40.7800 C   0  0  0  0  0  0  0  0  0  0  0  0
   43.8163   36.7037   44.4752 H   0  0  0  0  0  0  0  0  0  0  0  0
   45.2810   36.6831   42.4148 H   0  0  0  0  0  0  0  0  0  0  0  0
   45.0036   33.3082   48.0233 H   0  0  0  0  0  0  0  0  0  0  0  0
   47.8163   29.2187   47.3841 H   0  0  0  0  0  0  0  0  0  0  0  0
   48.6715   30.3697   43.4105 H   0  0  0  0  0  0  0  0  0  0  0  0
   48.8399   36.1467   42.6185 H   0  0  0  0  0  0  0  0  0  0  0  0
   48.8366   34.2384   37.9620 H   0  0  0  0  0  0  0  0  0  0  0  0
   45.0800   32.4058   38.7527 H   0  0  0  0  0  0  0  0  0  0  0  0
  1  6  2  0
  2  1  1  0
  3  2  2  0
  3  4  1  0
  4  5  2  0
  5  6  1  0
  5  7  1  0
  7  8  1  0
  8  9  2  0
 10  9  1  0
 11 10  2  0
 12 11  1  0
 13 14  1  0
 13 12  2  0
 14 15  2  0
 15  7  1  0
 15 10  1  0
 16  3  1  0
 17 16  1  0
 18 17  2  0
 19 18  1  0
 19 24  2  0
 20 19  1  0
 21 20  2  0
 21 22  1  0
 22 23  2  0
 23 24  1  0
 24 16  1  0
  1 25  1  0
  2 26  1  0
  8 27  1  0
 11 28  1  0
 13 29  1  0
 17 30  1  0
 20 31  1  0
 22 32  1  0
M  ISO  8  25  14  26  14  27  14  28  14  29  14  30  14  31  14  32  14
M  END
>  <minimizedAffinity>  (1) 
-6.69579887

>  <minimizedRMSD>  (1) 
0.0246329159

$$$$
