
     RDKit          3D

 33 36  0  0  0  0  0  0  0  0999 V2000
   44.5240   35.8690   44.3410 C   0  0  0  0  0  0  0  0  0  0  0  0
   45.3310   35.8670   43.1830 C   0  0  0  0  0  0  0  0  0  0  0  0
   46.3580   34.9120   43.1230 C   0  0  0  0  0  0  0  0  0  0  0  0
   46.5150   34.0520   44.1760 N   0  0  0  0  0  0  0  0  0  0  0  0
   45.7190   34.0930   45.2610 C   0  0  0  0  0  0  0  0  0  0  0  0
   44.7280   34.9910   45.3550 N   0  0  0  0  0  0  0  0  0  0  0  0
   45.9580   33.1610   46.3060 N   0  0  0  0  0  0  0  0  0  0  0  0
   45.1910   33.0730   47.5410 C   0  0  0  0  0  0  0  0  0  0  0  0
   46.0120   32.2020   48.4680 C   0  0  0  0  0  0  0  0  0  0  0  0
   46.8160   31.3420   47.5460 C   0  0  0  0  0  0  0  0  0  0  0  0
   46.9980   32.1530   46.3100 C   0  0  0  0  0  0  0  0  0  0  0  0
   47.1760   34.9030   41.9570 N   0  0  0  0  0  0  0  0  0  0  0  0
   48.3620   35.5330   41.8500 C   0  0  0  0  0  0  0  0  0  0  0  0
   48.8800   35.3210   40.6040 N   0  0  0  0  0  0  0  0  0  0  0  0
   47.9750   34.5430   39.9540 C   0  0  0  0  0  0  0  0  0  0  0  0
   47.9980   34.0340   38.6700 C   0  0  0  0  0  0  0  0  0  0  0  0
   46.9340   33.2720   38.2790 N   0  0  0  0  0  0  0  0  0  0  0  0
   45.9130   33.0360   39.1260 C   0  0  0  0  0  0  0  0  0  0  0  0
   45.8580   33.5150   40.3840 N   0  0  0  0  0  0  0  0  0  0  0  0
   46.9030   34.2810   40.8050 C   0  0  0  0  0  0  0  0  0  0  0  0
   43.7079   36.6020   44.4235 H   0  0  0  0  0  0  0  0  0  0  0  0
   45.1626   36.5819   42.3641 H   0  0  0  0  0  0  0  0  0  0  0  0
   45.0501   34.0727   47.9777 H   0  0  0  0  0  0  0  0  0  0  0  0
   44.1888   32.6534   47.3691 H   0  0  0  0  0  0  0  0  0  0  0  0
   46.6692   32.8166   49.1007 H   0  0  0  0  0  0  0  0  0  0  0  0
   45.3877   31.6134   49.1564 H   0  0  0  0  0  0  0  0  0  0  0  0
   47.7906   31.1012   47.9957 H   0  0  0  0  0  0  0  0  0  0  0  0
   46.3159   30.3846   47.3381 H   0  0  0  0  0  0  0  0  0  0  0  0
   46.9057   31.5119   45.4209 H   0  0  0  0  0  0  0  0  0  0  0  0
   47.9946   32.6181   46.2897 H   0  0  0  0  0  0  0  0  0  0  0  0
   48.8395   36.1265   42.6436 H   0  0  0  0  0  0  0  0  0  0  0  0
   48.8391   34.2342   37.9900 H   0  0  0  0  0  0  0  0  0  0  0  0
   45.0765   32.4168   38.7699 H   0  0  0  0  0  0  0  0  0  0  0  0
  1  6  2  0
  2  1  1  0
  3  2  2  0
  3  4  1  0
  4  5  2  0
  5  6  1  0
  5  7  1  0
  7 11  1  0
  7  8  1  0
  8  9  1  0
 10  9  1  0
 11 10  1  0
 12  3  1  0
 13 12  1  0
 14 13  2  0
 15 14  1  0
 15 20  2  0
 16 15  1  0
 17 16  2  0
 17 18  1  0
 18 19  2  0
 19 20  1  0
 20 12  1  0
  1 21  1  0
  2 22  1  0
  8 23  1  0
  8 24  1  0
  9 25  1  0
  9 26  1  0
 10 27  1  0
 10 28  1  0
 11 29  1  0
 11 30  1  0
 13 31  1  0
 16 32  1  0
 18 33  1  0
M  ISO  8  21  14  22  14  23  13  24  13  25  13  26  13  27  13  28  13
M  ISO  5  29  13  30  13  31  14  32  14  33  14
M  END
>  <minimizedAffinity>  (1) 
-6.30276442

>  <minimizedRMSD>  (1) 
0.142773136

$$$$
