
     RDKit          3D

 27 30  0  0  0  0  0  0  0  0999 V2000
   44.5060   35.9560   44.3810 C   0  0  0  0  0  0  0  0  0  0  0  0
   45.3120   35.8980   43.2370 C   0  0  0  0  0  0  0  0  0  0  0  0
   46.2980   34.9130   43.1710 C   0  0  0  0  0  0  0  0  0  0  0  0
   46.4410   34.0480   44.2150 N   0  0  0  0  0  0  0  0  0  0  0  0
   45.6450   34.1330   45.3030 C   0  0  0  0  0  0  0  0  0  0  0  0
   44.6810   35.0710   45.4020 N   0  0  0  0  0  0  0  0  0  0  0  0
   45.8040   33.2240   46.3850 N   0  0  0  0  0  0  0  0  0  0  0  0
   46.8400   32.3420   46.3200 C   0  0  0  0  0  0  0  0  0  0  0  0
   46.8450   31.5610   47.4150 N   0  0  0  0  0  0  0  0  0  0  0  0
   45.7920   31.9680   48.1740 C   0  0  0  0  0  0  0  0  0  0  0  0
   45.1690   32.9860   47.5270 N   0  0  0  0  0  0  0  0  0  0  0  0
   47.1010   34.8760   42.0040 N   0  0  0  0  0  0  0  0  0  0  0  0
   48.3100   35.4810   41.8690 C   0  0  0  0  0  0  0  0  0  0  0  0
   48.8260   35.2600   40.6340 N   0  0  0  0  0  0  0  0  0  0  0  0
   47.9070   34.4940   39.9870 C   0  0  0  0  0  0  0  0  0  0  0  0
   47.9010   33.9690   38.7060 C   0  0  0  0  0  0  0  0  0  0  0  0
   46.8330   33.2330   38.3330 N   0  0  0  0  0  0  0  0  0  0  0  0
   45.8000   33.0140   39.1810 C   0  0  0  0  0  0  0  0  0  0  0  0
   45.7620   33.5090   40.4460 N   0  0  0  0  0  0  0  0  0  0  0  0
   46.8280   34.2540   40.8440 C   0  0  0  0  0  0  0  0  0  0  0  0
   43.7228   36.7248   44.4560 H   0  0  0  0  0  0  0  0  0  0  0  0
   45.1712   36.6111   42.4113 H   0  0  0  0  0  0  0  0  0  0  0  0
   47.5646   32.2780   45.4949 H   0  0  0  0  0  0  0  0  0  0  0  0
   45.4961   31.5449   49.1453 H   0  0  0  0  0  0  0  0  0  0  0  0
   48.8040   36.0707   42.6553 H   0  0  0  0  0  0  0  0  0  0  0  0
   48.7387   34.1458   38.0153 H   0  0  0  0  0  0  0  0  0  0  0  0
   44.9524   32.4073   38.8295 H   0  0  0  0  0  0  0  0  0  0  0  0
  1  6  2  0
  2  1  1  0
  3  2  2  0
  3  4  1  0
  4  5  2  0
  5  6  1  0
  5  7  1  0
  7 11  1  0
  8  7  1  0
  8  9  2  0
  9 10  1  0
 11 10  2  0
 12  3  1  0
 13 12  1  0
 14 13  2  0
 15 14  1  0
 15 20  2  0
 16 15  1  0
 17 16  2  0
 17 18  1  0
 18 19  2  0
 19 20  1  0
 20 12  1  0
  1 21  1  0
  2 22  1  0
  8 23  1  0
 10 24  1  0
 13 25  1  0
 16 26  1  0
 18 27  1  0
M  ISO  7  21  14  22  14  23  14  24  14  25  14  26  14  27  14
M  END
>  <minimizedAffinity>  (1) 
-6.29572678

>  <minimizedRMSD>  (1) 
0.160471782

$$$$
