
     RDKit          3D

 46 49  0  0  1  0  0  0  0  0999 V2000
   47.1050   30.5150   43.5700 C   0  0  0  0  0  0  0  0  0  0  0  0
   46.3450   31.4150   42.8180 C   0  0  0  0  0  0  0  0  0  0  0  0
   45.6390   32.4360   43.4350 C   0  0  0  0  0  0  0  0  0  0  0  0
   45.7630   32.4640   44.7760 N   0  0  0  0  0  0  0  0  0  0  0  0
   46.4750   31.6260   45.5170 C   0  0  0  0  0  0  0  0  0  0  0  0
   47.1330   30.6690   44.9030 N   0  0  0  0  0  0  0  0  0  0  0  0
   46.5010   31.7890   46.9090 N   0  0  0  0  0  0  0  0  0  0  0  0
   45.5560   32.6090   47.6490 C   0  0  0  0  0  0  0  0  0  0  0  0
   44.7440   31.6910   48.5360 C   0  0  0  0  0  0  0  0  0  0  0  0
   45.5290   30.6450   49.0110 O   0  0  0  0  0  0  0  0  0  0  0  0
   46.8560   31.0370   49.1510 C   0  0  0  0  0  0  0  0  0  0  0  0
   47.4730   31.1630   47.7550 C   0  0  1  0  0  0  0  0  0  0  0  0
   44.8070   33.4350   42.6990 C   0  0  0  0  0  0  0  0  0  0  0  0
   45.0650   34.7470   42.7710 C   0  0  0  0  0  0  0  0  0  0  0  0
   43.7810   35.4830   41.7140 S   0  0  0  0  0  0  0  0  0  0  0  0
   43.0700   33.7620   41.3370 C   0  0  0  0  0  0  0  0  0  0  0  0
   43.8010   33.1140   41.9610 N   0  0  0  0  0  0  0  0  0  0  0  0
   41.9260   33.7230   40.4650 N   0  0  0  0  0  0  0  0  0  0  0  0
   41.6860   34.6670   39.4580 C   0  0  0  0  0  0  0  0  0  0  0  0
   42.7340   35.3070   38.9970 N   0  0  0  0  0  0  0  0  0  0  0  0
   40.3100   34.8050   39.0660 N   0  0  0  0  0  0  0  0  0  0  0  0
   42.5320   36.0070   38.2420 H   0  0  0  0  0  0  0  0  0  0  0  0
   47.9430   29.8360   47.2840 C   0  0  0  0  0  0  0  0  0  0  0  0
   47.0510   28.7550   47.3120 C   0  0  0  0  0  0  0  0  0  0  0  0
   47.3060   27.4770   46.9070 C   0  0  0  0  0  0  0  0  0  0  0  0
   48.5680   27.2150   46.4200 C   0  0  0  0  0  0  0  0  0  0  0  0
   49.4940   28.2460   46.3680 C   0  0  0  0  0  0  0  0  0  0  0  0
   49.1710   29.5170   46.7940 C   0  0  0  0  0  0  0  0  0  0  0  0
   47.6647   29.7029   43.0829 H   0  0  0  0  0  0  0  0  0  0  0  0
   46.3066   31.3120   41.7235 H   0  0  0  0  0  0  0  0  0  0  0  0
   46.0982   33.3416   48.2650 H   0  0  0  0  0  0  0  0  0  0  0  0
   44.8984   33.1567   46.9579 H   0  0  0  0  0  0  0  0  0  0  0  0
   44.3534   32.2655   49.3889 H   0  0  0  0  0  0  0  0  0  0  0  0
   43.9152   31.2718   47.9466 H   0  0  0  0  0  0  0  0  0  0  0  0
   46.9043   32.0071   49.6674 H   0  0  0  0  0  0  0  0  0  0  0  0
   47.4093   30.2930   49.7429 H   0  0  0  0  0  0  0  0  0  0  0  0
   48.3720   31.7969   47.7506 H   0  0  0  0  0  0  0  0  0  0  0  0
   45.8612   35.2565   43.3336 H   0  0  0  0  0  0  0  0  0  0  0  0
   41.2462   32.9590   40.5879 H   0  0  0  0  0  0  0  0  0  0  0  0
   40.0488   35.4782   38.3315 H   0  0  0  0  0  0  0  0  0  0  0  0
   39.5852   34.2307   39.5196 H   0  0  0  0  0  0  0  0  0  0  0  0
   46.0420   28.9577   47.7003 H   0  0  0  0  0  0  0  0  0  0  0  0
   46.5385   26.6913   46.9667 H   0  0  0  0  0  0  0  0  0  0  0  0
   48.8366   26.2046   46.0781 H   0  0  0  0  0  0  0  0  0  0  0  0
   50.5038   28.0464   45.9801 H   0  0  0  0  0  0  0  0  0  0  0  0
   49.9370   30.3043   46.7352 H   0  0  0  0  0  0  0  0  0  0  0  0
  1  6  2  0
  2  3  2  0
  2  1  1  0
  3  4  1  0
  4  5  2  0
  5  7  1  0
  6  5  1  0
  7  8  1  0
  7 12  1  0
  8  9  1  0
  9 10  1  0
 10 11  1  0
 12 11  1  0
 13 14  2  0
 13  3  1  0
 15 14  1  0
 16 15  1  0
 16 17  2  0
 17 13  1  0
 18 16  1  0
 19 18  1  0
 20 19  2  0
 21 19  1  0
 22 20  1  0
 23 24  2  0
 23 12  1  0
 25 24  1  0
 26 25  2  0
 27 26  1  0
 27 28  2  0
 28 23  1  0
  1 29  1  0
  2 30  1  0
  8 31  1  0
  8 32  1  0
  9 33  1  0
  9 34  1  0
 11 35  1  0
 11 36  1  0
 12 37  1  1
 14 38  1  0
 18 39  1  0
 21 40  1  0
 21 41  1  0
 24 42  1  0
 25 43  1  0
 26 44  1  0
 27 45  1  0
 28 46  1  0
M  ISO  8  29  14  30  14  31  13  32  13  33  13  34  13  35  13  36  13
M  ISO  7  37  13  38  14  42  14  43  14  44  14  45  14  46  14
M  END
>  <minimizedAffinity>  (1) 
-5.62824249

>  <minimizedRMSD>  (1) 
0.605360985

$$$$
