
     RDKit          3D

 30 32  0  0  0  0  0  0  0  0999 V2000
   47.1800   34.7920   42.0790 N   0  0  0  0  0  0  0  0  0  0  0  0
   48.3220   35.5170   41.9170 C   0  0  0  0  0  0  0  0  0  0  0  0
   48.7850   35.3690   40.6420 N   0  0  0  0  0  0  0  0  0  0  0  0
   47.9030   34.5370   40.0250 C   0  0  0  0  0  0  0  0  0  0  0  0
   47.8960   34.0580   38.7290 C   0  0  0  0  0  0  0  0  0  0  0  0
   46.8780   33.2310   38.3820 N   0  0  0  0  0  0  0  0  0  0  0  0
   45.9050   32.8900   39.2740 C   0  0  0  0  0  0  0  0  0  0  0  0
   45.8880   33.3460   40.5520 N   0  0  0  0  0  0  0  0  0  0  0  0
   46.8950   34.1740   40.9270 C   0  0  0  0  0  0  0  0  0  0  0  0
   44.6290   35.5580   44.6330 C   0  0  0  0  0  0  0  0  0  0  0  0
   45.3760   35.6300   43.4320 C   0  0  0  0  0  0  0  0  0  0  0  0
   46.4310   34.7190   43.2860 C   0  0  0  0  0  0  0  0  0  0  0  0
   46.6910   33.8190   44.2920 N   0  0  0  0  0  0  0  0  0  0  0  0
   45.9490   33.7990   45.4070 C   0  0  0  0  0  0  0  0  0  0  0  0
   44.9270   34.6460   45.6000 N   0  0  0  0  0  0  0  0  0  0  0  0
   46.2410   32.8150   46.4930 C   0  0  0  0  0  0  0  0  0  0  0  0
   46.3170   31.3910   45.9820 C   0  0  0  0  0  0  0  0  0  0  0  0
   45.2150   32.9010   47.6130 C   0  0  0  0  0  0  0  0  0  0  0  0
   48.7989   36.1293   42.6965 H   0  0  0  0  0  0  0  0  0  0  0  0
   48.6812   34.3350   38.0102 H   0  0  0  0  0  0  0  0  0  0  0  0
   45.0999   32.2170   38.9439 H   0  0  0  0  0  0  0  0  0  0  0  0
   43.7906   36.2530   44.7882 H   0  0  0  0  0  0  0  0  0  0  0  0
   45.1392   36.3666   42.6501 H   0  0  0  0  0  0  0  0  0  0  0  0
   47.2307   33.0867   46.8889 H   0  0  0  0  0  0  0  0  0  0  0  0
   46.3540   30.6970   46.8346 H   0  0  0  0  0  0  0  0  0  0  0  0
   45.4292   31.1731   45.3702 H   0  0  0  0  0  0  0  0  0  0  0  0
   47.2229   31.2689   45.3702 H   0  0  0  0  0  0  0  0  0  0  0  0
   45.7286   32.8580   48.5848 H   0  0  0  0  0  0  0  0  0  0  0  0
   44.6623   33.8486   47.5320 H   0  0  0  0  0  0  0  0  0  0  0  0
   44.5123   32.0586   47.5320 H   0  0  0  0  0  0  0  0  0  0  0  0
  1 12  1  0
  2  1  1  0
  3  2  2  0
  4  3  1  0
  4  9  2  0
  5  4  1  0
  6  5  2  0
  6  7  1  0
  7  8  2  0
  8  9  1  0
  9  1  1  0
 10 15  2  0
 11 10  1  0
 12 11  2  0
 12 13  1  0
 13 14  2  0
 14 15  1  0
 14 16  1  0
 16 18  1  0
 17 16  1  0
  2 19  1  0
  5 20  1  0
  7 21  1  0
 10 22  1  0
 11 23  1  0
 16 24  1  0
 17 25  1  0
 17 26  1  0
 17 27  1  0
 18 28  1  0
 18 29  1  0
 18 30  1  0
M  ISO  8  19  14  20  14  21  14  22  14  23  14  24   8  25   8  26   8
M  ISO  4  27   8  28   8  29   8  30   8
M  END
>  <minimizedAffinity>  (1) 
-5.37395716

>  <minimizedRMSD>  (1) 
0.36218977

$$$$
