
     RDKit          3D

 23 25  0  0  0  0  0  0  0  0999 V2000
   47.1670   34.8940   41.9560 N   0  0  0  0  0  0  0  0  0  0  0  0
   48.3630   35.5350   41.8360 C   0  0  0  0  0  0  0  0  0  0  0  0
   48.8840   35.3370   40.5950 N   0  0  0  0  0  0  0  0  0  0  0  0
   47.9840   34.5580   39.9470 C   0  0  0  0  0  0  0  0  0  0  0  0
   48.0040   34.0520   38.6590 C   0  0  0  0  0  0  0  0  0  0  0  0
   46.9590   33.2950   38.2710 N   0  0  0  0  0  0  0  0  0  0  0  0
   45.9300   33.0410   39.1140 C   0  0  0  0  0  0  0  0  0  0  0  0
   45.8710   33.5150   40.3790 N   0  0  0  0  0  0  0  0  0  0  0  0
   46.9090   34.2770   40.7900 C   0  0  0  0  0  0  0  0  0  0  0  0
   44.5630   35.8700   44.3710 C   0  0  0  0  0  0  0  0  0  0  0  0
   45.3640   35.8730   43.2110 C   0  0  0  0  0  0  0  0  0  0  0  0
   46.3600   34.8950   43.1160 C   0  0  0  0  0  0  0  0  0  0  0  0
   46.4920   34.0110   44.1380 N   0  0  0  0  0  0  0  0  0  0  0  0
   45.7110   34.0330   45.2370 C   0  0  0  0  0  0  0  0  0  0  0  0
   44.7480   34.9590   45.3540 N   0  0  0  0  0  0  0  0  0  0  0  0
   45.8860   33.0640   46.3150 C   0  0  0  0  0  0  0  0  0  0  0  0
   45.1720   33.1020   47.3510 O   0  0  0  0  0  0  0  0  0  0  0  0
   48.8399   36.1285   42.6299 H   0  0  0  0  0  0  0  0  0  0  0  0
   48.8419   34.2601   37.9773 H   0  0  0  0  0  0  0  0  0  0  0  0
   45.0998   32.4172   38.7511 H   0  0  0  0  0  0  0  0  0  0  0  0
   43.7702   36.6248   44.4793 H   0  0  0  0  0  0  0  0  0  0  0  0
   45.2121   36.6144   42.4127 H   0  0  0  0  0  0  0  0  0  0  0  0
   46.6571   32.2853   46.2200 H   0  0  0  0  0  0  0  0  0  0  0  0
  1 12  1  0
  2  1  1  0
  3  2  2  0
  4  3  1  0
  4  9  2  0
  5  4  1  0
  6  5  2  0
  6  7  1  0
  7  8  2  0
  8  9  1  0
  9  1  1  0
 10 15  2  0
 11 10  1  0
 12 11  2  0
 12 13  1  0
 13 14  2  0
 14 15  1  0
 14 16  1  0
 16 17  2  0
  2 18  1  0
  5 19  1  0
  7 20  1  0
 10 21  1  0
 11 22  1  0
 16 23  1  0
M  ISO  6  18  14  19  14  20  14  21  14  22  14  23   6
M  END
>  <minimizedAffinity>  (1) 
-5.21310902

>  <minimizedRMSD>  (1) 
0.117944658

$$$$
