
     RDKit          3D

 33 36  0  0  0  0  0  0  0  0999 V2000
   44.4790   36.0760   44.4870 C   0  0  0  0  0  0  0  0  0  0  0  0
   45.2770   35.9690   43.3180 C   0  0  0  0  0  0  0  0  0  0  0  0
   46.1990   34.9060   43.2610 C   0  0  0  0  0  0  0  0  0  0  0  0
   46.2600   34.0690   44.3120 N   0  0  0  0  0  0  0  0  0  0  0  0
   45.5010   34.1810   45.4090 C   0  0  0  0  0  0  0  0  0  0  0  0
   44.6080   35.1880   45.4970 N   0  0  0  0  0  0  0  0  0  0  0  0
   46.9900   34.8050   42.0990 N   0  0  0  0  0  0  0  0  0  0  0  0
   48.2330   35.3170   41.9560 C   0  0  0  0  0  0  0  0  0  0  0  0
   48.7180   35.0470   40.7130 N   0  0  0  0  0  0  0  0  0  0  0  0
   47.7480   34.3520   40.0840 C   0  0  0  0  0  0  0  0  0  0  0  0
   47.7000   33.8260   38.8140 C   0  0  0  0  0  0  0  0  0  0  0  0
   46.5860   33.1670   38.4430 N   0  0  0  0  0  0  0  0  0  0  0  0
   45.5410   33.0310   39.3070 C   0  0  0  0  0  0  0  0  0  0  0  0
   45.5390   33.5300   40.5660 N   0  0  0  0  0  0  0  0  0  0  0  0
   46.6590   34.1940   40.9450 C   0  0  0  0  0  0  0  0  0  0  0  0
   45.5880   33.2630   46.5270 C   0  0  0  0  0  0  0  0  0  0  0  0
   44.8770   33.3690   47.5450 O   0  0  0  0  0  0  0  0  0  0  0  0
   46.4780   32.1240   46.6270 C   0  0  0  0  0  0  0  0  0  0  0  0
   47.3530   31.9620   47.6670 C   0  0  0  0  0  0  0  0  0  0  0  0
   48.2210   30.8740   47.7960 C   0  0  0  0  0  0  0  0  0  0  0  0
   48.2120   29.8800   46.8170 C   0  0  0  0  0  0  0  0  0  0  0  0
   47.3460   30.0090   45.7560 C   0  0  0  0  0  0  0  0  0  0  0  0
   46.5070   31.1170   45.6850 C   0  0  0  0  0  0  0  0  0  0  0  0
   43.7464   36.8921   44.5716 H   0  0  0  0  0  0  0  0  0  0  0  0
   45.1792   36.6870   42.4904 H   0  0  0  0  0  0  0  0  0  0  0  0
   48.7759   35.8733   42.7343 H   0  0  0  0  0  0  0  0  0  0  0  0
   48.5470   33.9404   38.1216 H   0  0  0  0  0  0  0  0  0  0  0  0
   44.6498   32.4858   38.9628 H   0  0  0  0  0  0  0  0  0  0  0  0
   47.3744   32.7353   48.4491 H   0  0  0  0  0  0  0  0  0  0  0  0
   48.9016   30.8025   48.6572 H   0  0  0  0  0  0  0  0  0  0  0  0
   48.8831   29.0117   46.8920 H   0  0  0  0  0  0  0  0  0  0  0  0
   47.3169   29.2413   44.9688 H   0  0  0  0  0  0  0  0  0  0  0  0
   45.8254   31.1944   44.8251 H   0  0  0  0  0  0  0  0  0  0  0  0
  1  6  2  0
  2  1  1  0
  3  2  2  0
  3  4  1  0
  4  5  2  0
  5  6  1  0
  5 16  1  0
  7  3  1  0
  8  7  1  0
  9  8  2  0
 10  9  1  0
 10 15  2  0
 11 10  1  0
 12 11  2  0
 12 13  1  0
 13 14  2  0
 14 15  1  0
 15  7  1  0
 16 18  1  0
 16 17  2  0
 18 19  2  0
 19 20  1  0
 21 20  2  0
 22 21  1  0
 23 22  2  0
 23 18  1  0
  1 24  1  0
  2 25  1  0
  8 26  1  0
 11 27  1  0
 13 28  1  0
 19 29  1  0
 20 30  1  0
 21 31  1  0
 22 32  1  0
 23 33  1  0
M  ISO  8  24  14  25  14  26  14  27  14  28  14  29  14  30  14  31  14
M  ISO  2  32  14  33  14
M  END
>  <minimizedAffinity>  (1) 
-6.21187305

>  <minimizedRMSD>  (1) 
0.719944417

$$$$
