
     RDKit          3D

 31 34  0  0  0  0  0  0  0  0999 V2000
   44.5130   36.0700   44.5130 C   0  0  0  0  0  0  0  0  0  0  0  0
   45.3000   35.9770   43.3420 C   0  0  0  0  0  0  0  0  0  0  0  0
   46.1840   34.9010   43.2450 C   0  0  0  0  0  0  0  0  0  0  0  0
   46.2390   34.0060   44.2740 N   0  0  0  0  0  0  0  0  0  0  0  0
   45.4780   34.1180   45.3790 C   0  0  0  0  0  0  0  0  0  0  0  0
   44.6170   35.1480   45.4960 N   0  0  0  0  0  0  0  0  0  0  0  0
   46.9670   34.8110   42.0790 N   0  0  0  0  0  0  0  0  0  0  0  0
   48.2170   35.3570   41.9330 C   0  0  0  0  0  0  0  0  0  0  0  0
   48.7030   35.0930   40.6900 N   0  0  0  0  0  0  0  0  0  0  0  0
   47.7360   34.3760   40.0680 C   0  0  0  0  0  0  0  0  0  0  0  0
   47.7060   33.8470   38.7880 C   0  0  0  0  0  0  0  0  0  0  0  0
   46.6110   33.1710   38.4250 N   0  0  0  0  0  0  0  0  0  0  0  0
   45.5700   33.0140   39.2880 C   0  0  0  0  0  0  0  0  0  0  0  0
   45.5640   33.5130   40.5410 N   0  0  0  0  0  0  0  0  0  0  0  0
   46.6560   34.1960   40.9230 C   0  0  0  0  0  0  0  0  0  0  0  0
   45.5570   33.1530   46.4580 C   0  0  0  0  0  0  0  0  0  0  0  0
   45.0030   33.3780   47.5750 O   0  0  0  0  0  0  0  0  0  0  0  0
   46.2710   31.8930   46.3050 C   0  0  0  0  0  0  0  0  0  0  0  0
   47.0990   31.7520   45.1870 C   0  0  0  0  0  0  0  0  0  0  0  0
   47.7450   30.5190   45.1130 C   0  0  0  0  0  0  0  0  0  0  0  0
   47.6510   29.5030   45.9770 N   0  0  0  0  0  0  0  0  0  0  0  0
   46.8240   29.7190   47.0390 C   0  0  0  0  0  0  0  0  0  0  0  0
   46.1470   30.8940   47.1980 N   0  0  0  0  0  0  0  0  0  0  0  0
   43.8057   36.9049   44.6257 H   0  0  0  0  0  0  0  0  0  0  0  0
   45.2188   36.7238   42.5384 H   0  0  0  0  0  0  0  0  0  0  0  0
   48.7496   35.9262   42.7091 H   0  0  0  0  0  0  0  0  0  0  0  0
   48.5512   33.9782   38.0963 H   0  0  0  0  0  0  0  0  0  0  0  0
   44.6888   32.4515   38.9460 H   0  0  0  0  0  0  0  0  0  0  0  0
   47.2289   32.5430   44.4337 H   0  0  0  0  0  0  0  0  0  0  0  0
   48.4058   30.3647   44.2472 H   0  0  0  0  0  0  0  0  0  0  0  0
   46.6986   28.9242   47.7890 H   0  0  0  0  0  0  0  0  0  0  0  0
  1  6  2  0
  2  1  1  0
  3  2  2  0
  3  4  1  0
  4  5  2  0
  5  6  1  0
  5 16  1  0
  7  3  1  0
  8  7  1  0
  9  8  2  0
 10  9  1  0
 10 15  2  0
 11 10  1  0
 12 11  2  0
 12 13  1  0
 13 14  2  0
 14 15  1  0
 15  7  1  0
 16 17  2  0
 18 16  1  0
 18 23  1  0
 19 18  2  0
 20 19  1  0
 20 21  2  0
 21 22  1  0
 22 23  2  0
  1 24  1  0
  2 25  1  0
  8 26  1  0
 11 27  1  0
 13 28  1  0
 19 29  1  0
 20 30  1  0
 22 31  1  0
M  ISO  8  24  14  25  14  26  14  27  14  28  14  29  14  30  14  31  14
M  END
>  <minimizedAffinity>  (1) 
-5.89719486

>  <minimizedRMSD>  (1) 
0.598029494

$$$$
