
     RDKit          3D

 31 34  0  0  0  0  0  0  0  0999 V2000
   44.5200   36.1270   44.5090 C   0  0  0  0  0  0  0  0  0  0  0  0
   45.3170   36.0120   43.3570 C   0  0  0  0  0  0  0  0  0  0  0  0
   46.1750   34.9230   43.2430 C   0  0  0  0  0  0  0  0  0  0  0  0
   46.1970   34.0170   44.2660 N   0  0  0  0  0  0  0  0  0  0  0  0
   45.4210   34.1610   45.3540 C   0  0  0  0  0  0  0  0  0  0  0  0
   44.5890   35.1900   45.4940 N   0  0  0  0  0  0  0  0  0  0  0  0
   46.9750   34.8150   42.0810 N   0  0  0  0  0  0  0  0  0  0  0  0
   48.2350   35.3400   41.9570 C   0  0  0  0  0  0  0  0  0  0  0  0
   48.7270   35.0620   40.7150 N   0  0  0  0  0  0  0  0  0  0  0  0
   47.7510   34.3600   40.0830 C   0  0  0  0  0  0  0  0  0  0  0  0
   47.7070   33.8220   38.8120 C   0  0  0  0  0  0  0  0  0  0  0  0
   46.5950   33.1610   38.4430 N   0  0  0  0  0  0  0  0  0  0  0  0
   45.5440   33.0300   39.3040 C   0  0  0  0  0  0  0  0  0  0  0  0
   45.5580   33.5430   40.5480 N   0  0  0  0  0  0  0  0  0  0  0  0
   46.6590   34.2070   40.9370 C   0  0  0  0  0  0  0  0  0  0  0  0
   45.5150   33.1920   46.4600 C   0  0  0  0  0  0  0  0  0  0  0  0
   44.9880   33.4020   47.5740 O   0  0  0  0  0  0  0  0  0  0  0  0
   46.2350   31.9340   46.2890 C   0  0  0  0  0  0  0  0  0  0  0  0
   47.2600   31.6560   47.1640 C   0  0  0  0  0  0  0  0  0  0  0  0
   47.9930   30.4670   47.0560 C   0  0  0  0  0  0  0  0  0  0  0  0
   47.6770   29.5850   46.0660 N   0  0  0  0  0  0  0  0  0  0  0  0
   46.6710   29.8970   45.2350 C   0  0  0  0  0  0  0  0  0  0  0  0
   45.9570   31.0360   45.3280 N   0  0  0  0  0  0  0  0  0  0  0  0
   43.8350   36.9811   44.6155 H   0  0  0  0  0  0  0  0  0  0  0  0
   45.2633   36.7689   42.5606 H   0  0  0  0  0  0  0  0  0  0  0  0
   48.7682   35.9000   42.7393 H   0  0  0  0  0  0  0  0  0  0  0  0
   48.5563   33.9307   38.1215 H   0  0  0  0  0  0  0  0  0  0  0  0
   44.6504   32.4836   38.9678 H   0  0  0  0  0  0  0  0  0  0  0  0
   47.5069   32.3762   47.9580 H   0  0  0  0  0  0  0  0  0  0  0  0
   48.8105   30.2487   47.7589 H   0  0  0  0  0  0  0  0  0  0  0  0
   46.4156   29.1857   44.4358 H   0  0  0  0  0  0  0  0  0  0  0  0
  1  6  2  0
  2  1  1  0
  3  2  2  0
  3  4  1  0
  4  5  2  0
  5  6  1  0
  5 16  1  0
  7  3  1  0
  8  7  1  0
  9  8  2  0
 10  9  1  0
 10 15  2  0
 11 10  1  0
 12 11  2  0
 12 13  1  0
 13 14  2  0
 14 15  1  0
 15  7  1  0
 16 17  2  0
 18 16  1  0
 18 19  2  0
 20 19  1  0
 21 20  2  0
 22 23  2  0
 22 21  1  0
 23 18  1  0
  1 24  1  0
  2 25  1  0
  8 26  1  0
 11 27  1  0
 13 28  1  0
 19 29  1  0
 20 30  1  0
 22 31  1  0
M  ISO  8  24  14  25  14  26  14  27  14  28  14  29  14  30  14  31  14
M  END
>  <minimizedAffinity>  (1) 
-5.85482073

>  <minimizedRMSD>  (1) 
0.799240768

$$$$
