
     RDKit          3D

 28 31  0  0  0  0  0  0  0  0999 V2000
   44.5180   36.0770   44.5140 C   0  0  0  0  0  0  0  0  0  0  0  0
   45.2970   36.0180   43.3350 C   0  0  0  0  0  0  0  0  0  0  0  0
   46.1770   34.9540   43.2300 C   0  0  0  0  0  0  0  0  0  0  0  0
   46.2340   34.0510   44.2550 N   0  0  0  0  0  0  0  0  0  0  0  0
   45.4840   34.1280   45.3650 C   0  0  0  0  0  0  0  0  0  0  0  0
   44.6190   35.1550   45.4890 N   0  0  0  0  0  0  0  0  0  0  0  0
   46.9810   34.8540   42.0610 N   0  0  0  0  0  0  0  0  0  0  0  0
   48.2180   35.3840   41.9140 C   0  0  0  0  0  0  0  0  0  0  0  0
   48.6950   35.0860   40.6670 N   0  0  0  0  0  0  0  0  0  0  0  0
   47.7330   34.3700   40.0580 C   0  0  0  0  0  0  0  0  0  0  0  0
   47.6940   33.8210   38.7960 C   0  0  0  0  0  0  0  0  0  0  0  0
   46.5870   33.1440   38.4390 N   0  0  0  0  0  0  0  0  0  0  0  0
   45.5530   33.0110   39.2910 C   0  0  0  0  0  0  0  0  0  0  0  0
   45.5450   33.5320   40.5410 N   0  0  0  0  0  0  0  0  0  0  0  0
   46.6450   34.2130   40.9180 C   0  0  0  0  0  0  0  0  0  0  0  0
   45.5640   33.1570   46.4370 C   0  0  0  0  0  0  0  0  0  0  0  0
   44.9890   33.3350   47.5400 O   0  0  0  0  0  0  0  0  0  0  0  0
   46.3220   31.9190   46.2810 C   0  0  0  0  0  0  0  0  0  0  0  0
   47.4510   31.6340   46.9770 N   0  0  0  0  0  0  0  0  0  0  0  0
   47.8530   30.4500   46.5800 O   0  0  0  0  0  0  0  0  0  0  0  0
   47.0430   29.9690   45.6740 C   0  0  0  0  0  0  0  0  0  0  0  0
   46.0480   30.8740   45.4500 N   0  0  0  0  0  0  0  0  0  0  0  0
   43.8049   36.9052   44.6383 H   0  0  0  0  0  0  0  0  0  0  0  0
   45.2085   36.7769   42.5436 H   0  0  0  0  0  0  0  0  0  0  0  0
   48.7559   35.9640   42.6784 H   0  0  0  0  0  0  0  0  0  0  0  0
   48.5402   33.9321   38.1020 H   0  0  0  0  0  0  0  0  0  0  0  0
   44.6688   32.4500   38.9543 H   0  0  0  0  0  0  0  0  0  0  0  0
   47.1469   28.9945   45.1744 H   0  0  0  0  0  0  0  0  0  0  0  0
  1  6  2  0
  2  1  1  0
  3  2  2  0
  3  4  1  0
  4  5  2  0
  5  6  1  0
  5 16  1  0
  7  3  1  0
  8  7  1  0
  9  8  2  0
 10  9  1  0
 10 15  2  0
 11 10  1  0
 12 11  2  0
 12 13  1  0
 13 14  2  0
 14 15  1  0
 15  7  1  0
 16 17  2  0
 18 16  1  0
 18 19  2  0
 20 19  1  0
 21 20  1  0
 22 21  2  0
 22 18  1  0
  1 23  1  0
  2 24  1  0
  8 25  1  0
 11 26  1  0
 13 27  1  0
 21 28  1  0
M  ISO  6  23  14  24  14  25  14  26  14  27  14  28  14
M  END
>  <minimizedAffinity>  (1) 
-5.76117229

>  <minimizedRMSD>  (1) 
0.509081721

$$$$
