
     RDKit          3D

 30 33  0  0  0  0  0  0  0  0999 V2000
   44.4830   35.9440   44.5060 C   0  0  0  0  0  0  0  0  0  0  0  0
   45.2440   35.8850   43.3220 C   0  0  0  0  0  0  0  0  0  0  0  0
   46.2160   34.8920   43.2330 C   0  0  0  0  0  0  0  0  0  0  0  0
   46.3660   34.0470   44.2920 N   0  0  0  0  0  0  0  0  0  0  0  0
   45.6340   34.1170   45.4120 C   0  0  0  0  0  0  0  0  0  0  0  0
   44.6900   35.0650   45.5250 N   0  0  0  0  0  0  0  0  0  0  0  0
   46.9910   34.8150   42.0530 N   0  0  0  0  0  0  0  0  0  0  0  0
   48.2280   35.3860   41.8950 C   0  0  0  0  0  0  0  0  0  0  0  0
   48.7060   35.1310   40.6490 N   0  0  0  0  0  0  0  0  0  0  0  0
   47.7390   34.3880   40.0350 C   0  0  0  0  0  0  0  0  0  0  0  0
   47.7020   33.8590   38.7670 C   0  0  0  0  0  0  0  0  0  0  0  0
   46.5970   33.1530   38.4220 N   0  0  0  0  0  0  0  0  0  0  0  0
   45.5810   32.9830   39.2940 C   0  0  0  0  0  0  0  0  0  0  0  0
   45.5860   33.4890   40.5480 N   0  0  0  0  0  0  0  0  0  0  0  0
   46.6810   34.1970   40.9100 C   0  0  0  0  0  0  0  0  0  0  0  0
   45.8080   33.2110   46.5330 C   0  0  0  0  0  0  0  0  0  0  0  0
   44.9950   33.1550   47.4850 O   0  0  0  0  0  0  0  0  0  0  0  0
   46.9790   32.2790   46.6240 C   0  0  0  0  0  0  0  0  0  0  0  0
   46.9890   31.1890   47.6100 C   0  0  0  0  0  0  0  0  0  0  0  0
   46.6330   30.8650   46.1620 C   0  0  0  0  0  0  0  0  0  0  0  0
   43.7059   36.7157   44.6094 H   0  0  0  0  0  0  0  0  0  0  0  0
   45.0768   36.5960   42.4995 H   0  0  0  0  0  0  0  0  0  0  0  0
   48.7566   35.9664   42.6655 H   0  0  0  0  0  0  0  0  0  0  0  0
   48.5339   34.0023   38.0617 H   0  0  0  0  0  0  0  0  0  0  0  0
   44.7046   32.4036   38.9682 H   0  0  0  0  0  0  0  0  0  0  0  0
   47.7229   33.0564   46.3953 H   0  0  0  0  0  0  0  0  0  0  0  0
   47.9443   30.8400   48.0291 H   0  0  0  0  0  0  0  0  0  0  0  0
   46.4971   31.0231   48.5798 H   0  0  0  0  0  0  0  0  0  0  0  0
   45.5997   30.6063   45.8873 H   0  0  0  0  0  0  0  0  0  0  0  0
   47.0015   30.1710   45.3922 H   0  0  0  0  0  0  0  0  0  0  0  0
  1  6  2  0
  2  1  1  0
  3  2  2  0
  3  4  1  0
  4  5  2  0
  5  6  1  0
  5 16  1  0
  7  3  1  0
  8  7  1  0
  9  8  2  0
 10  9  1  0
 10 15  2  0
 11 10  1  0
 12 11  2  0
 12 13  1  0
 13 14  2  0
 14 15  1  0
 15  7  1  0
 16 18  1  0
 16 17  2  0
 18 19  1  0
 20 18  1  0
 20 19  1  0
  1 21  1  0
  2 22  1  0
  8 23  1  0
 11 24  1  0
 13 25  1  0
 18 26  1  0
 19 27  1  0
 19 28  1  0
 20 29  1  0
 20 30  1  0
M  ISO  8  21  14  22  14  23  14  24  14  25  14  26  13  27  13  28  13
M  ISO  2  29  13  30  13
M  END
>  <minimizedAffinity>  (1) 
-5.66651201

>  <minimizedRMSD>  (1) 
0.357268035

$$$$
