
     RDKit          3D

 47 52  0  0  0  0  0  0  0  0999 V2000
   45.6150   32.8750   47.1150 C   0  0  0  0  0  0  0  0  0  0  0  0
   44.6570   32.8400   47.9310 O   0  0  0  0  0  0  0  0  0  0  0  0
   46.7020   31.9780   47.4550 C   0  0  0  0  0  0  0  0  0  0  0  0
   47.7010   32.3840   48.3320 C   0  0  0  0  0  0  0  0  0  0  0  0
   48.7390   31.4980   48.6360 C   0  0  0  0  0  0  0  0  0  0  0  0
   48.8130   30.2200   48.0940 C   0  0  0  0  0  0  0  0  0  0  0  0
   47.7980   29.8410   47.2180 C   0  0  0  0  0  0  0  0  0  0  0  0
   46.7710   30.7210   46.9190 C   0  0  0  0  0  0  0  0  0  0  0  0
   45.8680   30.0330   46.0080 C   0  0  0  0  0  0  0  0  0  0  0  0
   45.4030   30.0730   44.7130 C   0  0  0  0  0  0  0  0  0  0  0  0
   44.5500   29.0710   44.4620 N   0  0  0  0  0  0  0  0  0  0  0  0
   44.4230   28.3400   45.5700 C   0  0  0  0  0  0  0  0  0  0  0  0
   43.6370   27.2250   45.7170 C   0  0  0  0  0  0  0  0  0  0  0  0
   43.6300   26.5940   46.9430 C   0  0  0  0  0  0  0  0  0  0  0  0
   44.4060   27.1050   47.9620 C   0  0  0  0  0  0  0  0  0  0  0  0
   45.1740   28.2250   47.7590 C   0  0  0  0  0  0  0  0  0  0  0  0
   45.2280   28.9110   46.5470 C   0  0  0  0  0  0  0  0  0  0  0  0
   44.6050   35.5820   44.8750 C   0  0  0  0  0  0  0  0  0  0  0  0
   45.4570   35.4360   43.7420 C   0  0  0  0  0  0  0  0  0  0  0  0
   46.3810   34.3770   43.8010 C   0  0  0  0  0  0  0  0  0  0  0  0
   46.3650   33.6180   44.9090 N   0  0  0  0  0  0  0  0  0  0  0  0
   45.5630   33.7640   45.9620 C   0  0  0  0  0  0  0  0  0  0  0  0
   44.6750   34.7550   45.9450 N   0  0  0  0  0  0  0  0  0  0  0  0
   47.2310   34.2000   42.6820 N   0  0  0  0  0  0  0  0  0  0  0  0
   48.5640   34.3490   42.6940 C   0  0  0  0  0  0  0  0  0  0  0  0
   49.0830   34.1050   41.4520 N   0  0  0  0  0  0  0  0  0  0  0  0
   48.0050   33.7990   40.6690 C   0  0  0  0  0  0  0  0  0  0  0  0
   47.9560   33.4690   39.3280 C   0  0  0  0  0  0  0  0  0  0  0  0
   46.7330   33.2110   38.8170 N   0  0  0  0  0  0  0  0  0  0  0  0
   45.6280   33.2720   39.5730 C   0  0  0  0  0  0  0  0  0  0  0  0
   45.6470   33.5920   40.8860 N   0  0  0  0  0  0  0  0  0  0  0  0
   46.8490   33.8580   41.4370 C   0  0  0  0  0  0  0  0  0  0  0  0
   47.6753   33.3881   48.7805 H   0  0  0  0  0  0  0  0  0  0  0  0
   49.5271   31.8246   49.3305 H   0  0  0  0  0  0  0  0  0  0  0  0
   49.6377   29.5371   48.3460 H   0  0  0  0  0  0  0  0  0  0  0  0
   47.8123   28.8399   46.7625 H   0  0  0  0  0  0  0  0  0  0  0  0
   45.6959   30.8342   43.9749 H   0  0  0  0  0  0  0  0  0  0  0  0
   44.0735   28.8952   43.5659 H   0  0  0  0  0  0  0  0  0  0  0  0
   43.0304   26.8457   44.8815 H   0  0  0  0  0  0  0  0  0  0  0  0
   43.0148   25.6967   47.1057 H   0  0  0  0  0  0  0  0  0  0  0  0
   44.4098   26.6115   48.9451 H   0  0  0  0  0  0  0  0  0  0  0  0
   45.7788   28.6008   48.5975 H   0  0  0  0  0  0  0  0  0  0  0  0
   43.8643   36.3952   44.8806 H   0  0  0  0  0  0  0  0  0  0  0  0
   45.3959   36.1099   42.8748 H   0  0  0  0  0  0  0  0  0  0  0  0
   49.1563   34.6280   43.5779 H   0  0  0  0  0  0  0  0  0  0  0  0
   48.8646   33.4192   38.7099 H   0  0  0  0  0  0  0  0  0  0  0  0
   44.6588   33.0509   39.1021 H   0  0  0  0  0  0  0  0  0  0  0  0
  1  3  1  0
  1  2  2  0
  3  4  2  0
  4  5  1  0
  6  5  2  0
  7  6  1  0
  8  7  2  0
  8  3  1  0
  9 17  1  0
  9  8  1  0
 10  9  2  0
 11 10  1  0
 11 12  1  0
 12 13  2  0
 12 17  1  0
 13 14  1  0
 14 15  2  0
 16 15  1  0
 17 16  2  0
 18 23  2  0
 19 20  2  0
 19 18  1  0
 20 21  1  0
 21 22  2  0
 22  1  1  0
 23 22  1  0
 24 25  1  0
 24 20  1  0
 26 25  2  0
 27 32  2  0
 27 26  1  0
 28 27  1  0
 29 28  2  0
 29 30  1  0
 30 31  2  0
 31 32  1  0
 32 24  1  0
  4 33  1  0
  5 34  1  0
  6 35  1  0
  7 36  1  0
 10 37  1  0
 11 38  1  0
 13 39  1  0
 14 40  1  0
 15 41  1  0
 16 42  1  0
 18 43  1  0
 19 44  1  0
 25 45  1  0
 28 46  1  0
 30 47  1  0
M  ISO  8  33  14  34  14  35  14  36  14  37  14  38   9  39  14  40  14
M  ISO  7  41  14  42  14  43  14  44  14  45  14  46  14  47  14
M  END
>  <minimizedAffinity>  (1) 
-6.95044947

>  <minimizedRMSD>  (1) 
1.85623872

$$$$
