
     RDKit          3D

 43 47  0  0  0  0  0  0  0  0999 V2000
   44.6630   35.5210   44.8820 C   0  0  0  0  0  0  0  0  0  0  0  0
   45.5360   35.3800   43.7790 C   0  0  0  0  0  0  0  0  0  0  0  0
   46.4530   34.3260   43.8460 C   0  0  0  0  0  0  0  0  0  0  0  0
   46.4270   33.5430   44.9420 N   0  0  0  0  0  0  0  0  0  0  0  0
   45.5930   33.6880   45.9790 C   0  0  0  0  0  0  0  0  0  0  0  0
   44.7100   34.6800   45.9480 N   0  0  0  0  0  0  0  0  0  0  0  0
   47.3370   34.1630   42.7560 N   0  0  0  0  0  0  0  0  0  0  0  0
   48.6930   34.2860   42.8230 C   0  0  0  0  0  0  0  0  0  0  0  0
   49.2590   34.0670   41.5960 N   0  0  0  0  0  0  0  0  0  0  0  0
   48.2040   33.8040   40.7640 C   0  0  0  0  0  0  0  0  0  0  0  0
   48.1950   33.5110   39.4170 C   0  0  0  0  0  0  0  0  0  0  0  0
   46.9780   33.2910   38.8500 N   0  0  0  0  0  0  0  0  0  0  0  0
   45.8510   33.3570   39.5800 C   0  0  0  0  0  0  0  0  0  0  0  0
   45.8370   33.6390   40.8850 N   0  0  0  0  0  0  0  0  0  0  0  0
   47.0150   33.8650   41.4950 C   0  0  0  0  0  0  0  0  0  0  0  0
   45.6200   32.8090   47.1340 C   0  0  0  0  0  0  0  0  0  0  0  0
   44.6440   32.7460   47.9260 O   0  0  0  0  0  0  0  0  0  0  0  0
   46.7110   31.9370   47.5040 C   0  0  0  0  0  0  0  0  0  0  0  0
   47.7290   32.3870   48.3380 C   0  0  0  0  0  0  0  0  0  0  0  0
   48.7820   31.5290   48.6830 C   0  0  0  0  0  0  0  0  0  0  0  0
   48.8440   30.2240   48.2120 C   0  0  0  0  0  0  0  0  0  0  0  0
   47.8210   29.7900   47.3820 C   0  0  0  0  0  0  0  0  0  0  0  0
   46.7930   30.6470   47.0520 C   0  0  0  0  0  0  0  0  0  0  0  0
   45.8040   30.0130   46.1900 C   0  0  0  0  0  0  0  0  0  0  0  0
   45.9040   30.1130   44.8190 C   0  0  0  0  0  0  0  0  0  0  0  0
   44.9060   29.4510   44.1340 C   0  0  0  0  0  0  0  0  0  0  0  0
   43.8710   28.7350   44.6960 C   0  0  0  0  0  0  0  0  0  0  0  0
   43.8190   28.6680   46.0730 C   0  0  0  0  0  0  0  0  0  0  0  0
   44.7920   29.3110   46.8110 C   0  0  0  0  0  0  0  0  0  0  0  0
   43.9239   36.3357   44.8770 H   0  0  0  0  0  0  0  0  0  0  0  0
   45.4963   36.0612   42.9162 H   0  0  0  0  0  0  0  0  0  0  0  0
   49.2550   34.5279   43.7372 H   0  0  0  0  0  0  0  0  0  0  0  0
   49.1242   33.4578   38.8306 H   0  0  0  0  0  0  0  0  0  0  0  0
   44.8913   33.1691   39.0764 H   0  0  0  0  0  0  0  0  0  0  0  0
   47.7076   33.4158   48.7266 H   0  0  0  0  0  0  0  0  0  0  0  0
   49.5799   31.8987   49.3438 H   0  0  0  0  0  0  0  0  0  0  0  0
   49.6751   29.5581   48.4875 H   0  0  0  0  0  0  0  0  0  0  0  0
   47.8300   28.7632   46.9876 H   0  0  0  0  0  0  0  0  0  0  0  0
   46.7076   30.6707   44.3159 H   0  0  0  0  0  0  0  0  0  0  0  0
   44.9395   29.4992   43.0356 H   0  0  0  0  0  0  0  0  0  0  0  0
   43.1157   28.2363   44.0708 H   0  0  0  0  0  0  0  0  0  0  0  0
   43.0144   28.1107   46.5750 H   0  0  0  0  0  0  0  0  0  0  0  0
   44.7600   29.2630   47.9095 H   0  0  0  0  0  0  0  0  0  0  0  0
  1  6  2  0
  2  3  2  0
  2  1  1  0
  3  4  1  0
  4  5  2  0
  5 16  1  0
  6  5  1  0
  7  8  1  0
  7  3  1  0
  9  8  2  0
 10 15  2  0
 10  9  1  0
 11 10  1  0
 12 11  2  0
 12 13  1  0
 13 14  2  0
 14 15  1  0
 15  7  1  0
 16 18  1  0
 16 17  2  0
 18 19  2  0
 19 20  1  0
 21 20  2  0
 22 21  1  0
 23 22  2  0
 23 18  1  0
 24 29  1  0
 24 23  1  0
 25 24  2  0
 26 27  2  0
 26 25  1  0
 27 28  1  0
 28 29  2  0
  1 30  1  0
  2 31  1  0
  8 32  1  0
 11 33  1  0
 13 34  1  0
 19 35  1  0
 20 36  1  0
 21 37  1  0
 22 38  1  0
 25 39  1  0
 26 40  1  0
 27 41  1  0
 28 42  1  0
 29 43  1  0
M  ISO  8  30  14  31  14  32  14  33  14  34  14  35  14  36  14  37  14
M  ISO  6  38  14  39  14  40  14  41  14  42  14  43  14
M  END
>  <minimizedAffinity>  (1) 
-6.43340683

>  <minimizedRMSD>  (1) 
1.67230272

$$$$
