
     RDKit          3D

 43 47  0  0  0  0  0  0  0  0999 V2000
   45.6280   32.8040   47.1340 C   0  0  0  0  0  0  0  0  0  0  0  0
   44.6470   32.7420   47.9180 O   0  0  0  0  0  0  0  0  0  0  0  0
   46.7260   31.9350   47.5130 C   0  0  0  0  0  0  0  0  0  0  0  0
   47.7410   32.3970   48.3420 C   0  0  0  0  0  0  0  0  0  0  0  0
   48.7870   31.5290   48.6840 C   0  0  0  0  0  0  0  0  0  0  0  0
   48.8500   30.2210   48.2240 C   0  0  0  0  0  0  0  0  0  0  0  0
   47.8240   29.7830   47.3980 C   0  0  0  0  0  0  0  0  0  0  0  0
   46.7940   30.6430   47.0640 C   0  0  0  0  0  0  0  0  0  0  0  0
   45.8020   30.0090   46.2040 C   0  0  0  0  0  0  0  0  0  0  0  0
   44.7750   29.3060   46.8130 C   0  0  0  0  0  0  0  0  0  0  0  0
   43.8110   28.6670   46.0620 C   0  0  0  0  0  0  0  0  0  0  0  0
   43.8690   28.7290   44.6930 C   0  0  0  0  0  0  0  0  0  0  0  0
   44.9120   29.4420   44.1420 C   0  0  0  0  0  0  0  0  0  0  0  0
   45.9050   30.1010   44.8340 C   0  0  0  0  0  0  0  0  0  0  0  0
   44.6650   35.5140   44.8810 C   0  0  0  0  0  0  0  0  0  0  0  0
   45.5410   35.3740   43.7760 C   0  0  0  0  0  0  0  0  0  0  0  0
   46.4580   34.3210   43.8440 C   0  0  0  0  0  0  0  0  0  0  0  0
   46.4390   33.5350   44.9390 N   0  0  0  0  0  0  0  0  0  0  0  0
   45.5990   33.6850   45.9800 C   0  0  0  0  0  0  0  0  0  0  0  0
   44.7130   34.6780   45.9460 N   0  0  0  0  0  0  0  0  0  0  0  0
   47.3440   34.1600   42.7520 N   0  0  0  0  0  0  0  0  0  0  0  0
   48.7010   34.2870   42.8280 C   0  0  0  0  0  0  0  0  0  0  0  0
   49.2660   34.0700   41.5960 N   0  0  0  0  0  0  0  0  0  0  0  0
   48.2090   33.8070   40.7710 C   0  0  0  0  0  0  0  0  0  0  0  0
   48.1900   33.5140   39.4130 C   0  0  0  0  0  0  0  0  0  0  0  0
   46.9830   33.2940   38.8470 N   0  0  0  0  0  0  0  0  0  0  0  0
   45.8450   33.3570   39.5760 C   0  0  0  0  0  0  0  0  0  0  0  0
   45.8460   33.6390   40.8890 N   0  0  0  0  0  0  0  0  0  0  0  0
   47.0240   33.8660   41.4940 C   0  0  0  0  0  0  0  0  0  0  0  0
   47.7238   33.4284   48.7241 H   0  0  0  0  0  0  0  0  0  0  0  0
   49.5879   31.8982   49.3415 H   0  0  0  0  0  0  0  0  0  0  0  0
   49.6812   29.5569   48.5033 H   0  0  0  0  0  0  0  0  0  0  0  0
   47.8303   28.7538   47.0099 H   0  0  0  0  0  0  0  0  0  0  0  0
   44.7280   29.2569   47.9109 H   0  0  0  0  0  0  0  0  0  0  0  0
   43.0011   28.1114   46.5574 H   0  0  0  0  0  0  0  0  0  0  0  0
   43.1167   28.2319   44.0630 H   0  0  0  0  0  0  0  0  0  0  0  0
   44.9560   29.4896   43.0439 H   0  0  0  0  0  0  0  0  0  0  0  0
   46.7130   30.6547   44.3334 H   0  0  0  0  0  0  0  0  0  0  0  0
   43.9233   36.3263   44.8738 H   0  0  0  0  0  0  0  0  0  0  0  0
   45.5017   36.0554   42.9134 H   0  0  0  0  0  0  0  0  0  0  0  0
   49.2606   34.5283   43.7438 H   0  0  0  0  0  0  0  0  0  0  0  0
   49.1176   33.4633   38.8240 H   0  0  0  0  0  0  0  0  0  0  0  0
   44.8837   33.1704   39.0749 H   0  0  0  0  0  0  0  0  0  0  0  0
  1  3  1  0
  1  2  2  0
  3  4  2  0
  4  5  1  0
  6  5  2  0
  7  6  1  0
  8  7  2  0
  8  3  1  0
  9 10  2  0
  9  8  1  0
 11 10  1  0
 12 11  2  0
 13 12  1  0
 13 14  2  0
 14  9  1  0
 15 20  2  0
 16 17  2  0
 16 15  1  0
 17 18  1  0
 18 19  2  0
 19  1  1  0
 20 19  1  0
 21 22  1  0
 21 17  1  0
 23 22  2  0
 24 29  2  0
 24 23  1  0
 25 24  1  0
 26 25  2  0
 26 27  1  0
 27 28  2  0
 28 29  1  0
 29 21  1  0
  4 30  1  0
  5 31  1  0
  6 32  1  0
  7 33  1  0
 10 34  1  0
 11 35  1  0
 12 36  1  0
 13 37  1  0
 14 38  1  0
 15 39  1  0
 16 40  1  0
 22 41  1  0
 25 42  1  0
 27 43  1  0
M  ISO  8  30  14  31  14  32  14  33  14  34  14  35  14  36  14  37  14
M  ISO  6  38  14  39  14  40  14  41  14  42  14  43  14
M  END
>  <minimizedAffinity>  (1) 
-6.42977238

>  <minimizedRMSD>  (1) 
1.64311838

$$$$
