
     RDKit          3D

 35 38  0  0  0  0  0  0  0  0999 V2000
   44.5100   36.1240   44.4900 C   0  0  0  0  0  0  0  0  0  0  0  0
   45.2950   36.0260   43.3120 C   0  0  0  0  0  0  0  0  0  0  0  0
   46.1850   34.9260   43.2480 C   0  0  0  0  0  0  0  0  0  0  0  0
   46.2000   34.0860   44.3050 N   0  0  0  0  0  0  0  0  0  0  0  0
   45.4510   34.2010   45.4030 C   0  0  0  0  0  0  0  0  0  0  0  0
   44.6030   35.2220   45.4980 N   0  0  0  0  0  0  0  0  0  0  0  0
   46.9740   34.8070   42.0890 N   0  0  0  0  0  0  0  0  0  0  0  0
   48.2360   35.3120   41.9640 C   0  0  0  0  0  0  0  0  0  0  0  0
   48.7230   35.0210   40.7100 N   0  0  0  0  0  0  0  0  0  0  0  0
   47.7370   34.3360   40.0920 C   0  0  0  0  0  0  0  0  0  0  0  0
   47.6890   33.8000   38.8170 C   0  0  0  0  0  0  0  0  0  0  0  0
   46.5540   33.1530   38.4540 N   0  0  0  0  0  0  0  0  0  0  0  0
   45.5150   33.0390   39.3080 C   0  0  0  0  0  0  0  0  0  0  0  0
   45.5290   33.5470   40.5490 N   0  0  0  0  0  0  0  0  0  0  0  0
   46.6440   34.1970   40.9420 C   0  0  0  0  0  0  0  0  0  0  0  0
   45.5220   33.2570   46.5000 C   0  0  0  0  0  0  0  0  0  0  0  0
   44.8450   33.4000   47.5470 O   0  0  0  0  0  0  0  0  0  0  0  0
   46.3590   32.0600   46.5350 C   0  0  0  0  0  0  0  0  0  0  0  0
   47.3570   31.9100   47.4840 C   0  0  0  0  0  0  0  0  0  0  0  0
   48.1270   30.7570   47.4790 C   0  0  0  0  0  0  0  0  0  0  0  0
   47.9510   29.7320   46.5650 C   0  0  0  0  0  0  0  0  0  0  0  0
   46.9520   29.8960   45.6260 C   0  0  0  0  0  0  0  0  0  0  0  0
   46.1970   31.0340   45.6360 C   0  0  0  0  0  0  0  0  0  0  0  0
   45.1970   31.0970   44.6240 N   0  0  0  0  0  0  0  0  0  0  0  0
   43.8020   36.9601   44.5887 H   0  0  0  0  0  0  0  0  0  0  0  0
   45.2170   36.7606   42.4970 H   0  0  0  0  0  0  0  0  0  0  0  0
   48.7793   35.8654   42.7441 H   0  0  0  0  0  0  0  0  0  0  0  0
   48.5387   33.8951   38.1249 H   0  0  0  0  0  0  0  0  0  0  0  0
   44.6148   32.5045   38.9703 H   0  0  0  0  0  0  0  0  0  0  0  0
   47.5364   32.6960   48.2323 H   0  0  0  0  0  0  0  0  0  0  0  0
   48.9161   30.6514   48.2381 H   0  0  0  0  0  0  0  0  0  0  0  0
   48.5782   28.8286   46.5859 H   0  0  0  0  0  0  0  0  0  0  0  0
   46.7654   29.1148   44.8744 H   0  0  0  0  0  0  0  0  0  0  0  0
   44.5818   31.9205   44.5585 H   0  0  0  0  0  0  0  0  0  0  0  0
   45.0890   30.3191   43.9576 H   0  0  0  0  0  0  0  0  0  0  0  0
  1  6  2  0
  2  1  1  0
  3  2  2  0
  3  4  1  0
  4  5  2  0
  5  6  1  0
  5 16  1  0
  7  3  1  0
  8  7  1  0
  9  8  2  0
 10  9  1  0
 10 15  2  0
 11 10  1  0
 12 11  2  0
 12 13  1  0
 13 14  2  0
 14 15  1  0
 15  7  1  0
 16 18  1  0
 16 17  2  0
 18 19  2  0
 20 19  1  0
 21 20  2  0
 22 23  2  0
 22 21  1  0
 23 18  1  0
 24 23  1  0
  1 25  1  0
  2 26  1  0
  8 27  1  0
 11 28  1  0
 13 29  1  0
 19 30  1  0
 20 31  1  0
 21 32  1  0
 22 33  1  0
 24 34  1  0
 24 35  1  0
M  ISO  8  25  14  26  14  27  14  28  14  29  14  30  14  31  14  32  14
M  ISO  1  33  14
M  END
>  <minimizedAffinity>  (1) 
-6.38903904

>  <minimizedRMSD>  (1) 
0.147519037

$$$$
