
     RDKit          3D

 34 37  0  0  0  0  0  0  0  0999 V2000
   44.5050   36.1330   44.4840 C   0  0  0  0  0  0  0  0  0  0  0  0
   45.2950   36.0320   43.3030 C   0  0  0  0  0  0  0  0  0  0  0  0
   46.1770   34.9340   43.2560 C   0  0  0  0  0  0  0  0  0  0  0  0
   46.1980   34.0990   44.2970 N   0  0  0  0  0  0  0  0  0  0  0  0
   45.4500   34.2070   45.3990 C   0  0  0  0  0  0  0  0  0  0  0  0
   44.5980   35.2340   45.4870 N   0  0  0  0  0  0  0  0  0  0  0  0
   46.9740   34.8110   42.0920 N   0  0  0  0  0  0  0  0  0  0  0  0
   48.2230   35.2990   41.9520 C   0  0  0  0  0  0  0  0  0  0  0  0
   48.7250   35.0140   40.7080 N   0  0  0  0  0  0  0  0  0  0  0  0
   47.7280   34.3300   40.0870 C   0  0  0  0  0  0  0  0  0  0  0  0
   47.6880   33.7960   38.8110 C   0  0  0  0  0  0  0  0  0  0  0  0
   46.5420   33.1520   38.4500 N   0  0  0  0  0  0  0  0  0  0  0  0
   45.5040   33.0450   39.3060 C   0  0  0  0  0  0  0  0  0  0  0  0
   45.5170   33.5530   40.5500 N   0  0  0  0  0  0  0  0  0  0  0  0
   46.6440   34.2000   40.9340 C   0  0  0  0  0  0  0  0  0  0  0  0
   45.5160   33.2640   46.5050 C   0  0  0  0  0  0  0  0  0  0  0  0
   44.8580   33.4270   47.5450 O   0  0  0  0  0  0  0  0  0  0  0  0
   46.3310   32.0600   46.5230 C   0  0  0  0  0  0  0  0  0  0  0  0
   47.3340   31.8870   47.4660 C   0  0  0  0  0  0  0  0  0  0  0  0
   48.1010   30.7200   47.4590 C   0  0  0  0  0  0  0  0  0  0  0  0
   47.8980   29.7130   46.5330 C   0  0  0  0  0  0  0  0  0  0  0  0
   46.9060   29.8950   45.6060 C   0  0  0  0  0  0  0  0  0  0  0  0
   46.1590   31.0410   45.6190 C   0  0  0  0  0  0  0  0  0  0  0  0
   45.1790   31.1230   44.6360 O   0  0  0  0  0  0  0  0  0  0  0  0
   43.7972   36.9694   44.5819 H   0  0  0  0  0  0  0  0  0  0  0  0
   45.2215   36.7617   42.4832 H   0  0  0  0  0  0  0  0  0  0  0  0
   48.7670   35.8521   42.7318 H   0  0  0  0  0  0  0  0  0  0  0  0
   48.5400   33.8868   38.1212 H   0  0  0  0  0  0  0  0  0  0  0  0
   44.6013   32.5149   38.9681 H   0  0  0  0  0  0  0  0  0  0  0  0
   47.5246   32.6674   48.2175 H   0  0  0  0  0  0  0  0  0  0  0  0
   48.8917   30.5978   48.2139 H   0  0  0  0  0  0  0  0  0  0  0  0
   48.5106   28.7994   46.5406 H   0  0  0  0  0  0  0  0  0  0  0  0
   46.7100   29.1194   44.8509 H   0  0  0  0  0  0  0  0  0  0  0  0
   44.5980   31.9228   44.5817 H   0  0  0  0  0  0  0  0  0  0  0  0
  1  6  2  0
  2  1  1  0
  3  2  2  0
  3  4  1  0
  4  5  2  0
  5  6  1  0
  5 16  1  0
  7  3  1  0
  8  7  1  0
  9  8  2  0
 10  9  1  0
 10 15  2  0
 11 10  1  0
 12 11  2  0
 12 13  1  0
 13 14  2  0
 14 15  1  0
 15  7  1  0
 16 18  1  0
 16 17  2  0
 18 19  2  0
 20 19  1  0
 21 20  2  0
 22 23  2  0
 22 21  1  0
 23 18  1  0
 24 23  1  0
  1 25  1  0
  2 26  1  0
  8 27  1  0
 11 28  1  0
 13 29  1  0
 19 30  1  0
 20 31  1  0
 21 32  1  0
 22 33  1  0
 24 34  1  0
M  ISO  8  25  14  26  14  27  14  28  14  29  14  30  14  31  14  32  14
M  ISO  2  33  14  34   3
M  END
>  <minimizedAffinity>  (1) 
-6.38571548

>  <minimizedRMSD>  (1) 
0.165064573

$$$$
