
     RDKit          3D

 40 44  0  0  0  0  0  0  0  0999 V2000
   44.7000   35.5010   44.7750 C   0  0  0  0  0  0  0  0  0  0  0  0
   45.5900   35.3230   43.6810 C   0  0  0  0  0  0  0  0  0  0  0  0
   46.5200   34.2710   43.7950 C   0  0  0  0  0  0  0  0  0  0  0  0
   46.4840   33.5380   44.9190 N   0  0  0  0  0  0  0  0  0  0  0  0
   45.6320   33.7190   45.9500 C   0  0  0  0  0  0  0  0  0  0  0  0
   44.7410   34.7030   45.8740 N   0  0  0  0  0  0  0  0  0  0  0  0
   47.4030   34.0560   42.7100 N   0  0  0  0  0  0  0  0  0  0  0  0
   48.7400   34.1240   42.7890 C   0  0  0  0  0  0  0  0  0  0  0  0
   49.2940   33.8690   41.5590 N   0  0  0  0  0  0  0  0  0  0  0  0
   48.2490   33.6420   40.7260 C   0  0  0  0  0  0  0  0  0  0  0  0
   48.2340   33.3370   39.3780 C   0  0  0  0  0  0  0  0  0  0  0  0
   47.0250   33.1620   38.8040 N   0  0  0  0  0  0  0  0  0  0  0  0
   45.8760   33.2800   39.5240 C   0  0  0  0  0  0  0  0  0  0  0  0
   45.8620   33.5750   40.8310 N   0  0  0  0  0  0  0  0  0  0  0  0
   47.0600   33.7580   41.4390 C   0  0  0  0  0  0  0  0  0  0  0  0
   45.6330   32.8620   47.1340 C   0  0  0  0  0  0  0  0  0  0  0  0
   44.6790   32.8850   47.9380 O   0  0  0  0  0  0  0  0  0  0  0  0
   46.6840   31.9340   47.4990 C   0  0  0  0  0  0  0  0  0  0  0  0
   47.7300   32.3680   48.3180 C   0  0  0  0  0  0  0  0  0  0  0  0
   48.7650   31.4910   48.6510 C   0  0  0  0  0  0  0  0  0  0  0  0
   48.7940   30.1930   48.1910 C   0  0  0  0  0  0  0  0  0  0  0  0
   47.7460   29.7880   47.3820 C   0  0  0  0  0  0  0  0  0  0  0  0
   46.7100   30.6450   47.0460 C   0  0  0  0  0  0  0  0  0  0  0  0
   45.6500   30.0290   46.2580 C   0  0  0  0  0  0  0  0  0  0  0  0
   44.6790   29.1640   46.7190 C   0  0  0  0  0  0  0  0  0  0  0  0
   43.8150   28.7430   45.7340 C   0  0  0  0  0  0  0  0  0  0  0  0
   44.2800   29.3740   44.6460 N   0  0  0  0  0  0  0  0  0  0  0  0
   45.3200   30.1010   44.9590 N   0  0  0  0  0  0  0  0  0  0  0  0
   43.9554   36.3094   44.7305 H   0  0  0  0  0  0  0  0  0  0  0  0
   45.5545   35.9717   42.7933 H   0  0  0  0  0  0  0  0  0  0  0  0
   49.3082   34.3504   43.7033 H   0  0  0  0  0  0  0  0  0  0  0  0
   49.1647   33.2413   38.7995 H   0  0  0  0  0  0  0  0  0  0  0  0
   44.9158   33.1263   39.0099 H   0  0  0  0  0  0  0  0  0  0  0  0
   47.7382   33.3995   48.7001 H   0  0  0  0  0  0  0  0  0  0  0  0
   49.5797   31.8469   49.2987 H   0  0  0  0  0  0  0  0  0  0  0  0
   49.6136   29.5084   48.4548 H   0  0  0  0  0  0  0  0  0  0  0  0
   47.7354   28.7582   46.9955 H   0  0  0  0  0  0  0  0  0  0  0  0
   44.6031   28.8431   47.7684 H   0  0  0  0  0  0  0  0  0  0  0  0
   42.9572   28.0596   45.8182 H   0  0  0  0  0  0  0  0  0  0  0  0
   43.8765   29.2970   43.7015 H   0  0  0  0  0  0  0  0  0  0  0  0
  1  6  2  0
  2  3  2  0
  2  1  1  0
  3  4  1  0
  4  5  2  0
  5 16  1  0
  6  5  1  0
  7  8  1  0
  7  3  1  0
  9  8  2  0
 10 15  2  0
 10  9  1  0
 11 10  1  0
 12 11  2  0
 12 13  1  0
 13 14  2  0
 14 15  1  0
 15  7  1  0
 16 18  1  0
 16 17  2  0
 18 19  2  0
 19 20  1  0
 21 20  2  0
 22 21  1  0
 23 22  2  0
 23 18  1  0
 24 25  1  0
 24 23  1  0
 26 25  2  0
 27 28  1  0
 27 26  1  0
 28 24  2  0
  1 29  1  0
  2 30  1  0
  8 31  1  0
 11 32  1  0
 13 33  1  0
 19 34  1  0
 20 35  1  0
 21 36  1  0
 22 37  1  0
 25 38  1  0
 26 39  1  0
 27 40  1  0
M  ISO  8  29  14  30  14  31  14  32  14  33  14  34  14  35  14  36  14
M  ISO  4  37  14  38  14  39  14  40   9
M  END
>  <minimizedAffinity>  (1) 
-6.35776901

>  <minimizedRMSD>  (1) 
1.45962274

$$$$
