
     RDKit          3D

 43 46  0  0  1  0  0  0  0  0999 V2000
   49.1960   30.5000   43.5220 C   0  0  0  0  0  0  0  0  0  0  0  0
   48.5230   31.6260   43.0450 C   0  0  0  0  0  0  0  0  0  0  0  0
   47.3330   32.0430   43.6330 C   0  0  0  0  0  0  0  0  0  0  0  0
   46.9200   31.2810   44.6620 N   0  0  0  0  0  0  0  0  0  0  0  0
   47.5350   30.2100   45.1350 C   0  0  0  0  0  0  0  0  0  0  0  0
   48.6670   29.8290   44.5620 N   0  0  0  0  0  0  0  0  0  0  0  0
   46.9520   29.5290   46.2270 N   0  0  0  0  0  0  0  0  0  0  0  0
   45.6070   29.7050   46.6910 C   0  0  0  0  0  0  0  0  0  0  0  0
   44.8570   28.3990   46.4490 C   0  0  0  0  0  0  0  0  0  0  0  0
   45.6890   27.3150   46.6730 O   0  0  0  0  0  0  0  0  0  0  0  0
   46.6870   27.5740   47.5750 C   0  0  0  0  0  0  0  0  0  0  0  0
   47.6780   28.5580   47.0070 C   0  0  2  0  0  0  0  0  0  0  0  0
   46.5520   33.2460   43.1750 C   0  0  0  0  0  0  0  0  0  0  0  0
   47.1600   34.4150   42.9220 C   0  0  0  0  0  0  0  0  0  0  0  0
   45.7620   35.4760   42.4170 S   0  0  0  0  0  0  0  0  0  0  0  0
   44.5380   34.0490   42.6600 C   0  0  0  0  0  0  0  0  0  0  0  0
   45.2710   33.2190   43.0030 N   0  0  0  0  0  0  0  0  0  0  0  0
   43.1540   34.3390   42.3800 N   0  0  0  0  0  0  0  0  0  0  0  0
   42.7360   35.2990   41.4560 C   0  0  0  0  0  0  0  0  0  0  0  0
   43.5760   35.5900   40.5080 N   0  0  0  0  0  0  0  0  0  0  0  0
   41.4230   35.8370   41.6810 N   0  0  0  0  0  0  0  0  0  0  0  0
   43.2420   36.2780   39.7890 H   0  0  0  0  0  0  0  0  0  0  0  0
   48.4750   29.1630   48.0660 C   0  0  0  0  0  0  0  0  0  0  0  0
   48.3250   30.3550   48.6720 C   0  0  0  0  0  0  0  0  0  0  0  0
   49.1750   30.7630   49.6570 C   0  0  0  0  0  0  0  0  0  0  0  0
   50.2310   29.8160   49.9820 C   0  0  0  0  0  0  0  0  0  0  0  0
   49.8440   28.4050   48.7770 S   0  0  0  0  0  0  0  0  0  0  0  0
   50.1370   30.1686   43.0586 H   0  0  0  0  0  0  0  0  0  0  0  0
   48.9375   32.1892   42.1959 H   0  0  0  0  0  0  0  0  0  0  0  0
   45.6095   29.9418   47.7652 H   0  0  0  0  0  0  0  0  0  0  0  0
   45.1203   30.5332   46.1550 H   0  0  0  0  0  0  0  0  0  0  0  0
   44.5006   28.3733   45.4086 H   0  0  0  0  0  0  0  0  0  0  0  0
   44.0049   28.3436   47.1424 H   0  0  0  0  0  0  0  0  0  0  0  0
   46.2456   27.9942   48.4908 H   0  0  0  0  0  0  0  0  0  0  0  0
   47.2121   26.6341   47.8003 H   0  0  0  0  0  0  0  0  0  0  0  0
   48.3964   28.0476   46.3487 H   0  0  0  0  0  0  0  0  0  0  0  0
   48.2274   34.6693   42.9990 H   0  0  0  0  0  0  0  0  0  0  0  0
   42.4332   33.8086   42.8899 H   0  0  0  0  0  0  0  0  0  0  0  0
   41.0424   36.5502   41.0428 H   0  0  0  0  0  0  0  0  0  0  0  0
   40.8623   35.5095   42.4805 H   0  0  0  0  0  0  0  0  0  0  0  0
   47.4992   31.0142   48.3663 H   0  0  0  0  0  0  0  0  0  0  0  0
   49.0706   31.7324   50.1663 H   0  0  0  0  0  0  0  0  0  0  0  0
   51.0368   29.8971   50.7264 H   0  0  0  0  0  0  0  0  0  0  0  0
  1  6  2  0
  2  1  1  0
  2  3  2  0
  3  4  1  0
  4  5  2  0
  5  7  1  0
  6  5  1  0
  7  8  1  0
  7 12  1  0
  9 10  1  0
  9  8  1  0
 10 11  1  0
 12 11  1  0
 12 23  1  0
 13  3  1  0
 14 13  2  0
 15 16  1  0
 15 14  1  0
 16 17  2  0
 17 13  1  0
 18 16  1  0
 19 21  1  0
 19 18  1  0
 20 19  2  0
 22 20  1  0
 23 24  2  0
 23 27  1  0
 24 25  1  0
 25 26  2  0
 27 26  1  0
  1 28  1  0
  2 29  1  0
  8 30  1  0
  8 31  1  0
  9 32  1  0
  9 33  1  0
 11 34  1  0
 11 35  1  0
 12 36  1  6
 14 37  1  0
 18 38  1  0
 21 39  1  0
 21 40  1  0
 24 41  1  0
 25 42  1  0
 26 43  1  0
M  ISO  8  28  14  29  14  30  13  31  13  32  13  33  13  34  13  35  13
M  ISO  5  36  13  37  14  41  14  42  14  43  14
M  END
>  <minimizedAffinity>  (1) 
-5.44303703

>  <minimizedRMSD>  (1) 
2.74608278

$$$$
