
     RDKit          3D

 41 45  0  0  0  0  0  0  0  0999 V2000
   44.7150   35.4830   44.7890 C   0  0  0  0  0  0  0  0  0  0  0  0
   45.6010   35.3130   43.6930 C   0  0  0  0  0  0  0  0  0  0  0  0
   46.5330   34.2590   43.8020 C   0  0  0  0  0  0  0  0  0  0  0  0
   46.5010   33.5200   44.9210 N   0  0  0  0  0  0  0  0  0  0  0  0
   45.6470   33.6980   45.9520 C   0  0  0  0  0  0  0  0  0  0  0  0
   44.7550   34.6800   45.8850 N   0  0  0  0  0  0  0  0  0  0  0  0
   47.4060   34.0560   42.7220 N   0  0  0  0  0  0  0  0  0  0  0  0
   48.7470   34.1320   42.7830 C   0  0  0  0  0  0  0  0  0  0  0  0
   49.3070   33.8840   41.5630 N   0  0  0  0  0  0  0  0  0  0  0  0
   48.2500   33.6510   40.7380 C   0  0  0  0  0  0  0  0  0  0  0  0
   48.2440   33.3480   39.3870 C   0  0  0  0  0  0  0  0  0  0  0  0
   47.0300   33.1660   38.8150 N   0  0  0  0  0  0  0  0  0  0  0  0
   45.9000   33.2740   39.5270 C   0  0  0  0  0  0  0  0  0  0  0  0
   45.8760   33.5660   40.8400 N   0  0  0  0  0  0  0  0  0  0  0  0
   47.0680   33.7560   41.4480 C   0  0  0  0  0  0  0  0  0  0  0  0
   45.6470   32.8400   47.1330 C   0  0  0  0  0  0  0  0  0  0  0  0
   44.6780   32.8300   47.9200 O   0  0  0  0  0  0  0  0  0  0  0  0
   46.7170   31.9380   47.5180 C   0  0  0  0  0  0  0  0  0  0  0  0
   47.7240   32.3780   48.3760 C   0  0  0  0  0  0  0  0  0  0  0  0
   48.7780   31.5440   48.7280 C   0  0  0  0  0  0  0  0  0  0  0  0
   48.8600   30.2460   48.2360 C   0  0  0  0  0  0  0  0  0  0  0  0
   47.8410   29.8230   47.3790 C   0  0  0  0  0  0  0  0  0  0  0  0
   46.8010   30.6620   47.0420 C   0  0  0  0  0  0  0  0  0  0  0  0
   45.7890   30.0320   46.2070 C   0  0  0  0  0  0  0  0  0  0  0  0
   44.7890   29.2300   46.6940 C   0  0  0  0  0  0  0  0  0  0  0  0
   43.8170   28.6060   45.9410 C   0  0  0  0  0  0  0  0  0  0  0  0
   43.8300   28.7820   44.6280 N   0  0  0  0  0  0  0  0  0  0  0  0
   44.7790   29.5530   44.0970 C   0  0  0  0  0  0  0  0  0  0  0  0
   45.6730   30.1160   44.8730 N   0  0  0  0  0  0  0  0  0  0  0  0
   43.9708   36.2921   44.7500 H   0  0  0  0  0  0  0  0  0  0  0  0
   45.5632   35.9660   42.8086 H   0  0  0  0  0  0  0  0  0  0  0  0
   49.3171   34.3633   43.6948 H   0  0  0  0  0  0  0  0  0  0  0  0
   49.1757   33.2598   38.8090 H   0  0  0  0  0  0  0  0  0  0  0  0
   44.9417   33.1156   39.0108 H   0  0  0  0  0  0  0  0  0  0  0  0
   47.6834   33.4003   48.7801 H   0  0  0  0  0  0  0  0  0  0  0  0
   49.5598   31.9163   49.4064 H   0  0  0  0  0  0  0  0  0  0  0  0
   49.6919   29.5805   48.5100 H   0  0  0  0  0  0  0  0  0  0  0  0
   47.8693   28.8037   46.9665 H   0  0  0  0  0  0  0  0  0  0  0  0
   44.7597   29.0703   47.7819 H   0  0  0  0  0  0  0  0  0  0  0  0
   43.0503   27.9780   46.4183 H   0  0  0  0  0  0  0  0  0  0  0  0
   44.8118   29.7165   43.0097 H   0  0  0  0  0  0  0  0  0  0  0  0
  1  6  2  0
  2  3  2  0
  2  1  1  0
  3  4  1  0
  4  5  2  0
  5 16  1  0
  6  5  1  0
  7  8  1  0
  7  3  1  0
  9  8  2  0
 10 15  2  0
 10  9  1  0
 11 10  1  0
 12 11  2  0
 12 13  1  0
 13 14  2  0
 14 15  1  0
 15  7  1  0
 16 18  1  0
 16 17  2  0
 18 19  2  0
 19 20  1  0
 21 20  2  0
 22 21  1  0
 23 22  2  0
 23 18  1  0
 24 25  2  0
 24 23  1  0
 26 25  1  0
 27 26  2  0
 28 27  1  0
 28 29  2  0
 29 24  1  0
  1 30  1  0
  2 31  1  0
  8 32  1  0
 11 33  1  0
 13 34  1  0
 19 35  1  0
 20 36  1  0
 21 37  1  0
 22 38  1  0
 25 39  1  0
 26 40  1  0
 28 41  1  0
M  ISO  8  30  14  31  14  32  14  33  14  34  14  35  14  36  14  37  14
M  ISO  4  38  14  39  14  40  14  41  14
M  END
>  <minimizedAffinity>  (1) 
-6.35423946

>  <minimizedRMSD>  (1) 
1.54591727

$$$$
