
     RDKit          3D

 40 44  0  0  0  0  0  0  0  0999 V2000
   44.7380   35.4490   44.8100 C   0  0  0  0  0  0  0  0  0  0  0  0
   45.6230   35.2730   43.7170 C   0  0  0  0  0  0  0  0  0  0  0  0
   46.5450   34.2130   43.8220 C   0  0  0  0  0  0  0  0  0  0  0  0
   46.5060   33.4680   44.9370 N   0  0  0  0  0  0  0  0  0  0  0  0
   45.6550   33.6480   45.9690 C   0  0  0  0  0  0  0  0  0  0  0  0
   44.7710   34.6420   45.9000 N   0  0  0  0  0  0  0  0  0  0  0  0
   47.4260   34.0050   42.7380 N   0  0  0  0  0  0  0  0  0  0  0  0
   48.7650   34.0640   42.8110 C   0  0  0  0  0  0  0  0  0  0  0  0
   49.3210   33.8210   41.5820 N   0  0  0  0  0  0  0  0  0  0  0  0
   48.2590   33.6120   40.7550 C   0  0  0  0  0  0  0  0  0  0  0  0
   48.2590   33.3270   39.3980 C   0  0  0  0  0  0  0  0  0  0  0  0
   47.0450   33.1670   38.8180 N   0  0  0  0  0  0  0  0  0  0  0  0
   45.9040   33.2810   39.5350 C   0  0  0  0  0  0  0  0  0  0  0  0
   45.8850   33.5580   40.8520 N   0  0  0  0  0  0  0  0  0  0  0  0
   47.0760   33.7240   41.4610 C   0  0  0  0  0  0  0  0  0  0  0  0
   45.6500   32.7880   47.1510 C   0  0  0  0  0  0  0  0  0  0  0  0
   44.6720   32.7650   47.9210 O   0  0  0  0  0  0  0  0  0  0  0  0
   46.7290   31.9040   47.5470 C   0  0  0  0  0  0  0  0  0  0  0  0
   47.7410   32.3820   48.3800 C   0  0  0  0  0  0  0  0  0  0  0  0
   48.8050   31.5520   48.7360 C   0  0  0  0  0  0  0  0  0  0  0  0
   48.8960   30.2430   48.2840 C   0  0  0  0  0  0  0  0  0  0  0  0
   47.8720   29.8000   47.4590 C   0  0  0  0  0  0  0  0  0  0  0  0
   46.8180   30.6130   47.1060 C   0  0  0  0  0  0  0  0  0  0  0  0
   45.7680   29.9580   46.3240 C   0  0  0  0  0  0  0  0  0  0  0  0
   44.7370   29.1850   46.8180 C   0  0  0  0  0  0  0  0  0  0  0  0
   43.9090   28.7030   45.8290 C   0  0  0  0  0  0  0  0  0  0  0  0
   44.4980   29.2310   44.7020 C   0  0  0  0  0  0  0  0  0  0  0  0
   45.5310   29.9210   45.0420 O   0  0  0  0  0  0  0  0  0  0  0  0
   44.0015   36.2653   44.7733 H   0  0  0  0  0  0  0  0  0  0  0  0
   45.5916   35.9287   42.8343 H   0  0  0  0  0  0  0  0  0  0  0  0
   49.3352   34.2771   43.7272 H   0  0  0  0  0  0  0  0  0  0  0  0
   49.1930   33.2358   38.8241 H   0  0  0  0  0  0  0  0  0  0  0  0
   44.9442   33.1404   39.0163 H   0  0  0  0  0  0  0  0  0  0  0  0
   47.7002   33.4147   48.7568 H   0  0  0  0  0  0  0  0  0  0  0  0
   49.5938   31.9465   49.3934 H   0  0  0  0  0  0  0  0  0  0  0  0
   49.7360   29.5907   48.5651 H   0  0  0  0  0  0  0  0  0  0  0  0
   47.9030   28.7694   47.0758 H   0  0  0  0  0  0  0  0  0  0  0  0
   44.5921   28.9761   47.8882 H   0  0  0  0  0  0  0  0  0  0  0  0
   43.0161   28.0665   45.9160 H   0  0  0  0  0  0  0  0  0  0  0  0
   44.1417   29.0860   43.6715 H   0  0  0  0  0  0  0  0  0  0  0  0
  1  6  2  0
  2  3  2  0
  2  1  1  0
  3  4  1  0
  4  5  2  0
  5 16  1  0
  6  5  1  0
  7  8  1  0
  7  3  1  0
  9  8  2  0
 10 15  2  0
 10  9  1  0
 11 10  1  0
 12 11  2  0
 12 13  1  0
 13 14  2  0
 14 15  1  0
 15  7  1  0
 16 18  1  0
 16 17  2  0
 18 19  2  0
 19 20  1  0
 21 20  2  0
 22 21  1  0
 23 22  2  0
 23 18  1  0
 24 25  2  0
 24 23  1  0
 26 25  1  0
 27 28  1  0
 27 26  2  0
 28 24  1  0
  1 29  1  0
  2 30  1  0
  8 31  1  0
 11 32  1  0
 13 33  1  0
 19 34  1  0
 20 35  1  0
 21 36  1  0
 22 37  1  0
 25 38  1  0
 26 39  1  0
 27 40  1  0
M  ISO  8  29  14  30  14  31  14  32  14  33  14  34  14  35  14  36  14
M  ISO  4  37  14  38  14  39  14  40  14
M  END
>  <minimizedAffinity>  (1) 
-6.28471565

>  <minimizedRMSD>  (1) 
1.52234364

$$$$
