
     RDKit          3D

 18 19  0  0  0  0  0  0  0  0999 V2000
   45.4850   33.5570   44.6390 C   0  0  0  0  0  0  0  0  0  0  0  0
   45.3060   33.8560   43.2840 C   0  0  0  0  0  0  0  0  0  0  0  0
   44.7360   35.1030   42.9690 C   0  0  0  0  0  0  0  0  0  0  0  0
   44.4000   35.9300   43.9990 N   0  0  0  0  0  0  0  0  0  0  0  0
   44.5910   35.6040   45.2980 C   0  0  0  0  0  0  0  0  0  0  0  0
   45.1330   34.4180   45.6140 N   0  0  0  0  0  0  0  0  0  0  0  0
   46.2090   31.9800   45.1320 S   0  0  0  0  0  0  0  0  0  0  0  0
   46.2320   31.8340   46.9200 C   0  0  0  0  0  0  0  0  0  0  0  0
   47.4120   31.7590   47.6330 C   0  0  0  0  0  0  0  0  0  0  0  0
   47.0290   31.6560   48.9690 C   0  0  0  0  0  0  0  0  0  0  0  0
   45.6380   31.6740   48.9980 C   0  0  0  0  0  0  0  0  0  0  0  0
   45.2260   31.7810   47.7610 O   0  0  0  0  0  0  0  0  0  0  0  0
   45.5989   33.1452   42.4973 H   0  0  0  0  0  0  0  0  0  0  0  0
   44.5667   35.4014   41.9239 H   0  0  0  0  0  0  0  0  0  0  0  0
   44.3030   36.3086   46.0921 H   0  0  0  0  0  0  0  0  0  0  0  0
   48.4361   31.7768   47.2320 H   0  0  0  0  0  0  0  0  0  0  0  0
   47.6999   31.5756   49.8370 H   0  0  0  0  0  0  0  0  0  0  0  0
   45.0031   31.6102   49.8940 H   0  0  0  0  0  0  0  0  0  0  0  0
  1  7  1  0
  1  6  1  0
  2  1  2  0
  3  2  1  0
  3  4  2  0
  4  5  1  0
  5  6  2  0
  7  8  1  0
  8  9  2  0
  8 12  1  0
  9 10  1  0
 10 11  2  0
 12 11  1  0
  2 13  1  0
  3 14  1  0
  5 15  1  0
  9 16  1  0
 10 17  1  0
 11 18  1  0
M  ISO  6  13  14  14  14  15  14  16  14  17  14  18  14
M  END
>  <minimizedAffinity>  (1) 
-3.74407387

>  <minimizedRMSD>  (1) 
5.88064337

$$$$
