
     RDKit          3D

 14 14  0  0  0  0  0  0  0  0999 V2000
   45.3280   33.9840   44.8260 C   0  0  0  0  0  0  0  0  0  0  0  0
   45.1570   33.0440   43.8020 C   0  0  0  0  0  0  0  0  0  0  0  0
   45.7460   31.7870   43.9850 C   0  0  0  0  0  0  0  0  0  0  0  0
   46.4380   31.5590   45.1270 N   0  0  0  0  0  0  0  0  0  0  0  0
   46.5940   32.4850   46.1070 C   0  0  0  0  0  0  0  0  0  0  0  0
   46.0320   33.7100   45.9490 N   0  0  0  0  0  0  0  0  0  0  0  0
   44.6100   35.6320   44.6810 S   0  0  0  0  0  0  0  0  0  0  0  0
   45.1710   36.3230   43.0790 C   0  0  0  0  0  0  0  0  0  0  0  0
   44.2520   36.0060   42.0730 F   0  0  0  0  0  0  0  0  0  0  0  0
   46.3870   35.7420   42.7610 F   0  0  0  0  0  0  0  0  0  0  0  0
   45.2910   37.7110   43.1940 F   0  0  0  0  0  0  0  0  0  0  0  0
   44.5848   33.2829   42.8934 H   0  0  0  0  0  0  0  0  0  0  0  0
   45.6491   31.0031   43.2195 H   0  0  0  0  0  0  0  0  0  0  0  0
   47.1670   32.2462   47.0151 H   0  0  0  0  0  0  0  0  0  0  0  0
  1  6  2  0
  2  3  2  0
  2  1  1  0
  3  4  1  0
  4  5  2  0
  6  5  1  0
  7  1  1  0
  8 11  1  0
  8  7  1  0
  9  8  1  0
 10  8  1  0
  2 12  1  0
  3 13  1  0
  5 14  1  0
M  ISO  3  12  14  13  14  14  14
M  END
>  <minimizedAffinity>  (1) 
-3.61305618

>  <minimizedRMSD>  (1) 
1.99020326

$$$$
