
     RDKit          3D

 44 47  0  0  1  0  0  0  0  0999 V2000
   49.2110   30.5760   43.3950 C   0  0  0  0  0  0  0  0  0  0  0  0
   48.4860   31.6880   42.9300 C   0  0  0  0  0  0  0  0  0  0  0  0
   47.3550   32.1260   43.5980 C   0  0  0  0  0  0  0  0  0  0  0  0
   47.0190   31.4140   44.7010 N   0  0  0  0  0  0  0  0  0  0  0  0
   47.6820   30.3690   45.1570 C   0  0  0  0  0  0  0  0  0  0  0  0
   48.7630   29.9610   44.5060 N   0  0  0  0  0  0  0  0  0  0  0  0
   47.2100   29.7290   46.3190 N   0  0  0  0  0  0  0  0  0  0  0  0
   45.9030   29.9200   46.8880 C   0  0  0  0  0  0  0  0  0  0  0  0
   45.1500   28.5960   46.7530 C   0  0  0  0  0  0  0  0  0  0  0  0
   46.0150   27.5150   46.9390 O   0  0  0  0  0  0  0  0  0  0  0  0
   47.0590   27.8310   47.7720 C   0  0  0  0  0  0  0  0  0  0  0  0
   48.0070   28.8010   47.0690 C   0  0  2  0  0  0  0  0  0  0  0  0
   46.5420   33.3070   43.1460 C   0  0  0  0  0  0  0  0  0  0  0  0
   47.1460   34.4930   42.8840 C   0  0  0  0  0  0  0  0  0  0  0  0
   45.7240   35.5350   42.3900 S   0  0  0  0  0  0  0  0  0  0  0  0
   44.5260   34.0910   42.6450 C   0  0  0  0  0  0  0  0  0  0  0  0
   45.2570   33.2540   42.9870 N   0  0  0  0  0  0  0  0  0  0  0  0
   43.1340   34.3620   42.3790 N   0  0  0  0  0  0  0  0  0  0  0  0
   42.6940   35.3080   41.4480 C   0  0  0  0  0  0  0  0  0  0  0  0
   43.5280   35.6070   40.4840 N   0  0  0  0  0  0  0  0  0  0  0  0
   41.3790   35.8290   41.6740 N   0  0  0  0  0  0  0  0  0  0  0  0
   43.1740   36.2860   39.7780 H   0  0  0  0  0  0  0  0  0  0  0  0
   48.9390   29.4310   48.0230 C   0  0  0  0  0  0  0  0  0  0  0  0
   48.4470   30.3660   48.9170 C   0  0  0  0  0  0  0  0  0  0  0  0
   49.3940   30.9020   49.7700 C   0  0  0  0  0  0  0  0  0  0  0  0
   50.6940   30.5520   49.7490 N   0  0  0  0  0  0  0  0  0  0  0  0
   51.1050   29.6340   48.8500 C   0  0  0  0  0  0  0  0  0  0  0  0
   50.2310   29.0640   47.9790 N   0  0  0  0  0  0  0  0  0  0  0  0
   50.1107   30.2218   42.8705 H   0  0  0  0  0  0  0  0  0  0  0  0
   48.8214   32.2159   42.0251 H   0  0  0  0  0  0  0  0  0  0  0  0
   45.9912   30.1963   47.9491 H   0  0  0  0  0  0  0  0  0  0  0  0
   45.3665   30.7277   46.3686 H   0  0  0  0  0  0  0  0  0  0  0  0
   44.3529   28.5551   47.5100 H   0  0  0  0  0  0  0  0  0  0  0  0
   44.7200   28.5351   45.7424 H   0  0  0  0  0  0  0  0  0  0  0  0
   46.6674   28.3012   48.6861 H   0  0  0  0  0  0  0  0  0  0  0  0
   47.6063   26.9131   48.0325 H   0  0  0  0  0  0  0  0  0  0  0  0
   48.6640   28.2711   46.3636 H   0  0  0  0  0  0  0  0  0  0  0  0
   48.2113   34.7590   42.9508 H   0  0  0  0  0  0  0  0  0  0  0  0
   42.4255   33.8294   42.9037 H   0  0  0  0  0  0  0  0  0  0  0  0
   40.9852   36.5302   41.0305 H   0  0  0  0  0  0  0  0  0  0  0  0
   40.8272   35.5024   42.4801 H   0  0  0  0  0  0  0  0  0  0  0  0
   47.3872   30.6593   48.9465 H   0  0  0  0  0  0  0  0  0  0  0  0
   49.0683   31.6536   50.5041 H   0  0  0  0  0  0  0  0  0  0  0  0
   52.1651   29.3419   48.8214 H   0  0  0  0  0  0  0  0  0  0  0  0
  1  6  2  0
  2  1  1  0
  2  3  2  0
  3  4  1  0
  4  5  2  0
  5  7  1  0
  6  5  1  0
  7  8  1  0
  7 12  1  0
  9  8  1  0
  9 10  1  0
 10 11  1  0
 12 11  1  0
 12 23  1  0
 13  3  1  0
 14 13  2  0
 15 16  1  0
 15 14  1  0
 16 17  2  0
 17 13  1  0
 18 16  1  0
 19 21  1  0
 19 18  1  0
 20 19  2  0
 22 20  1  0
 23 24  2  0
 24 25  1  0
 26 25  2  0
 27 26  1  0
 28 23  1  0
 28 27  2  0
  1 29  1  0
  2 30  1  0
  8 31  1  0
  8 32  1  0
  9 33  1  0
  9 34  1  0
 11 35  1  0
 11 36  1  0
 12 37  1  6
 14 38  1  0
 18 39  1  0
 21 40  1  0
 21 41  1  0
 24 42  1  0
 25 43  1  0
 27 44  1  0
M  ISO  8  29  14  30  14  31  13  32  13  33  13  34  13  35  13  36  13
M  ISO  5  37  13  38  14  42  14  43  14  44  14
M  END
>  <minimizedAffinity>  (1) 
-5.37066317

>  <minimizedRMSD>  (1) 
2.60423112

$$$$
