
     RDKit          3D

 16 17  0  0  0  0  0  0  0  0999 V2000
   45.5960   34.6760   44.1840 C   0  0  0  0  0  0  0  0  0  0  0  0
   46.6370   33.8510   43.7500 C   0  0  0  0  0  0  0  0  0  0  0  0
   47.1320   32.8840   44.6170 C   0  0  0  0  0  0  0  0  0  0  0  0
   46.5730   32.7940   45.8500 N   0  0  0  0  0  0  0  0  0  0  0  0
   45.5670   33.5980   46.2570 C   0  0  0  0  0  0  0  0  0  0  0  0
   45.0720   34.5390   45.4360 N   0  0  0  0  0  0  0  0  0  0  0  0
   44.9000   35.9520   43.1200 S   0  0  0  0  0  0  0  0  0  0  0  0
   44.2020   35.2290   41.6460 C   0  0  0  0  0  0  0  0  0  0  0  0
   44.5970   34.3530   40.7000 N   0  0  0  0  0  0  0  0  0  0  0  0
   43.6260   34.2050   39.8380 O   0  0  0  0  0  0  0  0  0  0  0  0
   42.6080   34.9540   40.1850 C   0  0  0  0  0  0  0  0  0  0  0  0
   42.9520   35.6070   41.3240 N   0  0  0  0  0  0  0  0  0  0  0  0
   47.0573   33.9649   42.7399 H   0  0  0  0  0  0  0  0  0  0  0  0
   47.9498   32.2139   44.3136 H   0  0  0  0  0  0  0  0  0  0  0  0
   45.1499   33.4814   47.2682 H   0  0  0  0  0  0  0  0  0  0  0  0
   41.6501   35.0380   39.6508 H   0  0  0  0  0  0  0  0  0  0  0  0
  1  6  1  0
  2  1  2  0
  2  3  1  0
  3  4  2  0
  4  5  1  0
  6  5  2  0
  7  1  1  0
  8  7  1  0
  9  8  2  0
 10 11  1  0
 10  9  1  0
 11 12  2  0
 12  8  1  0
  2 13  1  0
  3 14  1  0
  5 15  1  0
 11 16  1  0
M  ISO  4  13  14  14  14  15  14  16  14
M  END
>  <minimizedAffinity>  (1) 
-3.49314022

>  <minimizedRMSD>  (1) 
3.56013083

$$$$
