
     RDKit          3D

 33 37  0  0  0  0  0  0  0  0999 V2000
   44.5060   33.0190   39.3370 C   0  0  0  0  0  0  0  0  0  0  0  0
   45.6890   32.9580   38.5840 C   0  0  0  0  0  0  0  0  0  0  0  0
   46.8940   32.8770   39.2950 C   0  0  0  0  0  0  0  0  0  0  0  0
   46.8310   32.8630   40.6550 N   0  0  0  0  0  0  0  0  0  0  0  0
   45.6740   32.9240   41.3340 C   0  0  0  0  0  0  0  0  0  0  0  0
   44.5190   33.0010   40.6810 N   0  0  0  0  0  0  0  0  0  0  0  0
   45.8070   32.8980   42.7510 N   0  0  0  0  0  0  0  0  0  0  0  0
   46.4280   31.9650   43.5040 C   0  0  0  0  0  0  0  0  0  0  0  0
   46.3380   32.2960   44.8080 N   0  0  0  0  0  0  0  0  0  0  0  0
   45.6580   33.4500   44.9330 C   0  0  0  0  0  0  0  0  0  0  0  0
   45.2900   34.2170   46.0210 C   0  0  0  0  0  0  0  0  0  0  0  0
   44.5850   35.3620   45.7820 N   0  0  0  0  0  0  0  0  0  0  0  0
   44.2890   35.6790   44.5030 C   0  0  0  0  0  0  0  0  0  0  0  0
   44.6430   34.9380   43.4220 N   0  0  0  0  0  0  0  0  0  0  0  0
   45.3430   33.7990   43.6360 C   0  0  0  0  0  0  0  0  0  0  0  0
   42.9040   33.1250   38.4940 S   0  0  0  0  0  0  0  0  0  0  0  0
   39.7290   33.2220   42.2740 N   0  0  0  0  0  0  0  0  0  0  0  0
   40.1970   31.9810   42.0530 C   0  0  0  0  0  0  0  0  0  0  0  0
   41.0530   32.0780   40.9990 N   0  0  0  0  0  0  0  0  0  0  0  0
   41.0700   33.3520   40.6290 C   0  0  0  0  0  0  0  0  0  0  0  0
   41.7820   33.9550   39.6110 C   0  0  0  0  0  0  0  0  0  0  0  0
   41.6680   35.2900   39.3830 N   0  0  0  0  0  0  0  0  0  0  0  0
   40.8360   35.9970   40.1850 C   0  0  0  0  0  0  0  0  0  0  0  0
   40.1330   35.4170   41.1870 N   0  0  0  0  0  0  0  0  0  0  0  0
   40.2480   34.1230   41.4050 C   0  0  0  0  0  0  0  0  0  0  0  0
   45.6711   32.9731   37.4842 H   0  0  0  0  0  0  0  0  0  0  0  0
   47.8599   32.8264   38.7710 H   0  0  0  0  0  0  0  0  0  0  0  0
   46.9319   31.0691   43.1123 H   0  0  0  0  0  0  0  0  0  0  0  0
   45.5557   33.9159   47.0451 H   0  0  0  0  0  0  0  0  0  0  0  0
   43.7205   36.6036   44.3244 H   0  0  0  0  0  0  0  0  0  0  0  0
   39.0555   33.4597   43.0162 H   0  0  0  0  0  0  0  0  0  0  0  0
   39.9396   31.0694   42.6122 H   0  0  0  0  0  0  0  0  0  0  0  0
   40.7277   37.0787   40.0168 H   0  0  0  0  0  0  0  0  0  0  0  0
  1  6  2  0
  2  3  2  0
  2  1  1  0
  3  4  1  0
  4  5  2  0
  5  7  1  0
  6  5  1  0
  7  8  1  0
  7 15  1  0
  8  9  2  0
  9 10  1  0
 10 11  2  0
 12 11  1  0
 13 12  2  0
 14 15  2  0
 14 13  1  0
 15 10  1  0
 16  1  1  0
 16 21  1  0
 18 17  1  0
 19 18  2  0
 20 19  1  0
 20 25  2  0
 21 20  1  0
 22 21  2  0
 22 23  1  0
 23 24  2  0
 24 25  1  0
 25 17  1  0
  2 26  1  0
  3 27  1  0
  8 28  1  0
 11 29  1  0
 13 30  1  0
 17 31  1  0
 18 32  1  0
 23 33  1  0
M  ISO  8  26  14  27  14  28  14  29  14  30  14  31   9  32  14  33  14
M  END
>  <minimizedAffinity>  (1) 
-6.082757

>  <minimizedRMSD>  (1) 
4.10090208

$$$$
