
     RDKit          3D

 52 55  0  0  1  0  0  0  0  0999 V2000
   49.5650   30.3300   42.9890 C   0  0  0  0  0  0  0  0  0  0  0  0
   48.7990   31.4420   42.6240 C   0  0  0  0  0  0  0  0  0  0  0  0
   47.7870   31.9010   43.4490 C   0  0  0  0  0  0  0  0  0  0  0  0
   47.6170   31.2050   44.5890 N   0  0  0  0  0  0  0  0  0  0  0  0
   48.3320   30.1460   44.9570 C   0  0  0  0  0  0  0  0  0  0  0  0
   49.3000   29.7170   44.1550 N   0  0  0  0  0  0  0  0  0  0  0  0
   48.0230   29.5270   46.1930 N   0  0  0  0  0  0  0  0  0  0  0  0
   46.8280   29.7350   46.9470 C   0  0  0  0  0  0  0  0  0  0  0  0
   46.0390   28.4400   46.9560 C   0  0  0  0  0  0  0  0  0  0  0  0
   46.8850   27.3420   47.0060 O   0  0  0  0  0  0  0  0  0  0  0  0
   48.0830   27.6250   47.6500 C   0  0  0  0  0  0  0  0  0  0  0  0
   48.8960   28.6040   46.8340 C   0  0  2  0  0  0  0  0  0  0  0  0
   46.9290   33.0840   43.1220 C   0  0  0  0  0  0  0  0  0  0  0  0
   47.4510   34.3030   42.9490 C   0  0  0  0  0  0  0  0  0  0  0  0
   45.9960   35.3320   42.5820 S   0  0  0  0  0  0  0  0  0  0  0  0
   44.8570   33.8280   42.7390 C   0  0  0  0  0  0  0  0  0  0  0  0
   45.6470   33.0200   42.9850 N   0  0  0  0  0  0  0  0  0  0  0  0
   43.4510   34.0640   42.5310 N   0  0  0  0  0  0  0  0  0  0  0  0
   42.9570   35.0730   41.6930 C   0  0  0  0  0  0  0  0  0  0  0  0
   43.7510   35.4880   40.7400 N   0  0  0  0  0  0  0  0  0  0  0  0
   41.6240   35.5240   41.9960 N   0  0  0  0  0  0  0  0  0  0  0  0
   43.3580   36.2210   40.1060 H   0  0  0  0  0  0  0  0  0  0  0  0
   49.9490   29.2560   47.6900 C   0  0  0  0  0  0  0  0  0  0  0  0
   51.3350   29.0750   47.1730 C   0  0  0  0  0  0  0  0  0  0  0  0
   52.2540   29.9220   48.0620 C   0  0  0  0  0  0  0  0  0  0  0  0
   52.2280   29.4420   49.4960 C   0  0  0  0  0  0  0  0  0  0  0  0
   50.8370   29.3260   50.0330 C   0  0  0  0  0  0  0  0  0  0  0  0
   49.8800   28.6800   49.0860 C   0  0  0  0  0  0  0  0  0  0  0  0
   50.3693   29.9642   42.3338 H   0  0  0  0  0  0  0  0  0  0  0  0
   49.0027   31.9561   41.6731 H   0  0  0  0  0  0  0  0  0  0  0  0
   47.0837   30.0219   47.9777 H   0  0  0  0  0  0  0  0  0  0  0  0
   46.2300   30.5399   46.4949 H   0  0  0  0  0  0  0  0  0  0  0  0
   45.3800   28.4266   47.8366 H   0  0  0  0  0  0  0  0  0  0  0  0
   45.4472   28.3841   46.0304 H   0  0  0  0  0  0  0  0  0  0  0  0
   47.8706   28.0627   48.6366 H   0  0  0  0  0  0  0  0  0  0  0  0
   48.6559   26.6934   47.7678 H   0  0  0  0  0  0  0  0  0  0  0  0
   49.4431   28.0784   46.0375 H   0  0  0  0  0  0  0  0  0  0  0  0
   48.5055   34.6096   43.0131 H   0  0  0  0  0  0  0  0  0  0  0  0
   42.7755   33.4614   43.0224 H   0  0  0  0  0  0  0  0  0  0  0  0
   41.1886   36.2636   41.4264 H   0  0  0  0  0  0  0  0  0  0  0  0
   41.1056   35.1072   42.7824 H   0  0  0  0  0  0  0  0  0  0  0  0
   49.7357   30.3351   47.6808 H   0  0  0  0  0  0  0  0  0  0  0  0
   51.6249   28.0154   47.2296 H   0  0  0  0  0  0  0  0  0  0  0  0
   51.4074   29.3866   46.1205 H   0  0  0  0  0  0  0  0  0  0  0  0
   53.2834   29.8542   47.6803 H   0  0  0  0  0  0  0  0  0  0  0  0
   51.8972   30.9622   48.0380 H   0  0  0  0  0  0  0  0  0  0  0  0
   52.7098   28.4544   49.5468 H   0  0  0  0  0  0  0  0  0  0  0  0
   52.7630   30.1833   50.1077 H   0  0  0  0  0  0  0  0  0  0  0  0
   50.8697   28.7279   50.9556 H   0  0  0  0  0  0  0  0  0  0  0  0
   50.4739   30.3493   50.2089 H   0  0  0  0  0  0  0  0  0  0  0  0
   48.8590   28.8175   49.4716 H   0  0  0  0  0  0  0  0  0  0  0  0
   50.1537   27.6169   49.0166 H   0  0  0  0  0  0  0  0  0  0  0  0
  1  6  2  0
  2  1  1  0
  2  3  2  0
  3  4  1  0
  4  5  2  0
  5  7  1  0
  6  5  1  0
  7 12  1  0
  7  8  1  0
  8  9  1  0
  9 10  1  0
 10 11  1  0
 12 11  1  0
 12 23  1  0
 13  3  1  0
 14 13  2  0
 15 16  1  0
 15 14  1  0
 16 17  2  0
 17 13  1  0
 18 16  1  0
 19 21  1  0
 19 18  1  0
 20 19  2  0
 22 20  1  0
 23 28  1  0
 24 23  1  0
 24 25  1  0
 25 26  1  0
 26 27  1  0
 28 27  1  0
  1 29  1  0
  2 30  1  0
  8 31  1  0
  8 32  1  0
  9 33  1  0
  9 34  1  0
 11 35  1  0
 11 36  1  0
 12 37  1  6
 14 38  1  0
 18 39  1  0
 21 40  1  0
 21 41  1  0
 23 42  1  0
 24 43  1  0
 24 44  1  0
 25 45  1  0
 25 46  1  0
 26 47  1  0
 26 48  1  0
 27 49  1  0
 27 50  1  0
 28 51  1  0
 28 52  1  0
M  ISO  8  29  14  30  14  31  13  32  13  33  13  34  13  35  13  36  13
M  ISO  8  37  13  38  14  42  13  43  13  44  13  45  13  46  13  47  13
M  ISO  5  48  13  49  13  50  13  51  13  52  13
M  END
>  <minimizedAffinity>  (1) 
-5.31151247

>  <minimizedRMSD>  (1) 
3.35032654

$$$$
