
     RDKit          3D

 23 25  0  0  0  0  0  0  0  0999 V2000
   39.0340   33.0330   41.4770 N   0  0  0  0  0  0  0  0  0  0  0  0
   39.7990   32.0590   41.9720 C   0  0  0  0  0  0  0  0  0  0  0  0
   41.0940   32.3610   41.6480 N   0  0  0  0  0  0  0  0  0  0  0  0
   41.0620   33.5050   40.9690 C   0  0  0  0  0  0  0  0  0  0  0  0
   42.0940   34.2270   40.4240 C   0  0  0  0  0  0  0  0  0  0  0  0
   41.8670   35.3710   39.7670 N   0  0  0  0  0  0  0  0  0  0  0  0
   40.5780   35.7920   39.6600 C   0  0  0  0  0  0  0  0  0  0  0  0
   39.5540   35.0940   40.1910 N   0  0  0  0  0  0  0  0  0  0  0  0
   39.7730   33.9670   40.8370 C   0  0  0  0  0  0  0  0  0  0  0  0
   43.8330   33.7490   40.5150 S   0  0  0  0  0  0  0  0  0  0  0  0
   44.4100   34.2060   42.1600 C   0  0  0  0  0  0  0  0  0  0  0  0
   44.8520   33.2000   43.0360 C   0  0  0  0  0  0  0  0  0  0  0  0
   45.2910   33.6070   44.3040 C   0  0  0  0  0  0  0  0  0  0  0  0
   45.2570   34.9370   44.5900 N   0  0  0  0  0  0  0  0  0  0  0  0
   44.8300   35.8620   43.7300 C   0  0  0  0  0  0  0  0  0  0  0  0
   44.4050   35.4990   42.5130 N   0  0  0  0  0  0  0  0  0  0  0  0
   44.7980   37.2210   44.0310 O   0  0  0  0  0  0  0  0  0  0  0  0
   38.0089   33.0691   41.5705 H   0  0  0  0  0  0  0  0  0  0  0  0
   39.4541   31.1789   42.5346 H   0  0  0  0  0  0  0  0  0  0  0  0
   40.3649   36.7291   39.1247 H   0  0  0  0  0  0  0  0  0  0  0  0
   44.8535   32.1405   42.7402 H   0  0  0  0  0  0  0  0  0  0  0  0
   45.6508   32.8757   45.0428 H   0  0  0  0  0  0  0  0  0  0  0  0
   44.4719   37.8695   43.3578 H   0  0  0  0  0  0  0  0  0  0  0  0
  1  2  1  0
  3  2  2  0
  4  3  1  0
  5 10  1  0
  5  4  2  0
  6  5  1  0
  7  6  2  0
  7  8  1  0
  8  9  2  0
  9  4  1  0
  9  1  1  0
 10 11  1  0
 11 16  1  0
 11 12  2  0
 12 13  1  0
 13 14  2  0
 15 17  1  0
 15 14  1  0
 16 15  2  0
  1 18  1  0
  2 19  1  0
  7 20  1  0
 12 21  1  0
 13 22  1  0
 17 23  1  0
M  ISO  6  18   9  19  14  20  14  21  14  22  14  23   3
M  END
>  <minimizedAffinity>  (1) 
-5.28761148

>  <minimizedRMSD>  (1) 
0.397902846

$$$$
