
     RDKit          3D

 24 26  0  0  0  0  0  0  0  0999 V2000
   43.9310   33.8990   40.6290 S   0  0  0  0  0  0  0  0  0  0  0  0
   39.1890   32.9000   41.5960 N   0  0  0  0  0  0  0  0  0  0  0  0
   40.0190   31.9320   42.0450 C   0  0  0  0  0  0  0  0  0  0  0  0
   41.2820   32.3170   41.7240 N   0  0  0  0  0  0  0  0  0  0  0  0
   41.1830   33.4870   41.0990 C   0  0  0  0  0  0  0  0  0  0  0  0
   42.1830   34.2800   40.5810 C   0  0  0  0  0  0  0  0  0  0  0  0
   41.8970   35.4590   39.9690 N   0  0  0  0  0  0  0  0  0  0  0  0
   40.5890   35.8020   39.9010 C   0  0  0  0  0  0  0  0  0  0  0  0
   39.5890   35.0410   40.4020 N   0  0  0  0  0  0  0  0  0  0  0  0
   39.8810   33.8890   40.9980 C   0  0  0  0  0  0  0  0  0  0  0  0
   44.4780   34.1820   42.3230 C   0  0  0  0  0  0  0  0  0  0  0  0
   44.9360   33.0940   43.1010 C   0  0  0  0  0  0  0  0  0  0  0  0
   45.3460   33.3990   44.4170 C   0  0  0  0  0  0  0  0  0  0  0  0
   45.2740   34.6760   44.8310 N   0  0  0  0  0  0  0  0  0  0  0  0
   44.8340   35.6880   44.0660 C   0  0  0  0  0  0  0  0  0  0  0  0
   44.4360   35.4410   42.8150 N   0  0  0  0  0  0  0  0  0  0  0  0
   44.7540   37.0410   44.4970 N   0  0  0  0  0  0  0  0  0  0  0  0
   38.1642   32.8835   41.6976 H   0  0  0  0  0  0  0  0  0  0  0  0
   39.7279   31.0099   42.5694 H   0  0  0  0  0  0  0  0  0  0  0  0
   40.3251   36.7512   39.4117 H   0  0  0  0  0  0  0  0  0  0  0  0
   44.9709   32.0688   42.7038 H   0  0  0  0  0  0  0  0  0  0  0  0
   45.7159   32.6099   45.0882 H   0  0  0  0  0  0  0  0  0  0  0  0
   44.4056   37.7665   43.8542 H   0  0  0  0  0  0  0  0  0  0  0  0
   45.0445   37.2953   45.4519 H   0  0  0  0  0  0  0  0  0  0  0  0
  1 11  1  0
  2  3  1  0
  4  3  2  0
  5  4  1  0
  6  1  1  0
  6  5  2  0
  7  6  1  0
  8  7  2  0
  8  9  1  0
  9 10  2  0
 10  5  1  0
 10  2  1  0
 11 16  1  0
 11 12  2  0
 12 13  1  0
 13 14  2  0
 15 17  1  0
 15 14  1  0
 16 15  2  0
  2 18  1  0
  3 19  1  0
  8 20  1  0
 12 21  1  0
 13 22  1  0
 17 23  1  0
 17 24  1  0
M  ISO  5  18   9  19  14  20  14  21  14  22  14
M  END
>  <minimizedAffinity>  (1) 
-5.19259357

>  <minimizedRMSD>  (1) 
0.261382282

$$$$
