
     RDKit          3D

 29 32  0  0  0  0  0  0  0  0999 V2000
   43.9520   33.7670   40.7560 S   0  0  0  0  0  0  0  0  0  0  0  0
   39.1300   32.9670   41.5090 N   0  0  0  0  0  0  0  0  0  0  0  0
   39.8940   31.9930   42.0270 C   0  0  0  0  0  0  0  0  0  0  0  0
   41.1950   32.3150   41.7620 N   0  0  0  0  0  0  0  0  0  0  0  0
   41.1660   33.4730   41.0950 C   0  0  0  0  0  0  0  0  0  0  0  0
   42.2150   34.2050   40.6090 C   0  0  0  0  0  0  0  0  0  0  0  0
   42.0120   35.3730   39.9450 N   0  0  0  0  0  0  0  0  0  0  0  0
   40.7150   35.7720   39.7920 C   0  0  0  0  0  0  0  0  0  0  0  0
   39.6850   35.0560   40.2680 N   0  0  0  0  0  0  0  0  0  0  0  0
   39.8940   33.9140   40.9160 C   0  0  0  0  0  0  0  0  0  0  0  0
   44.4700   34.2620   42.4170 C   0  0  0  0  0  0  0  0  0  0  0  0
   43.9870   35.4730   42.9680 C   0  0  0  0  0  0  0  0  0  0  0  0
   44.4280   35.7960   44.2570 C   0  0  0  0  0  0  0  0  0  0  0  0
   45.2730   34.9470   44.8830 N   0  0  0  0  0  0  0  0  0  0  0  0
   45.7150   33.8060   44.3360 C   0  0  0  0  0  0  0  0  0  0  0  0
   45.3120   33.4670   43.1060 N   0  0  0  0  0  0  0  0  0  0  0  0
   46.6450   32.8670   45.0230 C   0  0  0  0  0  0  0  0  0  0  0  0
   46.7360   32.8020   46.4830 C   0  0  0  0  0  0  0  0  0  0  0  0
   45.9780   31.6980   45.7470 C   0  0  0  0  0  0  0  0  0  0  0  0
   38.1014   32.9908   41.5563 H   0  0  0  0  0  0  0  0  0  0  0  0
   39.5390   31.1015   42.5647 H   0  0  0  0  0  0  0  0  0  0  0  0
   40.5076   36.7124   39.2604 H   0  0  0  0  0  0  0  0  0  0  0  0
   43.2998   36.1274   42.4116 H   0  0  0  0  0  0  0  0  0  0  0  0
   44.0939   36.7210   44.7497 H   0  0  0  0  0  0  0  0  0  0  0  0
   47.4125   33.0045   44.2471 H   0  0  0  0  0  0  0  0  0  0  0  0
   47.7010   32.5770   46.9606 H   0  0  0  0  0  0  0  0  0  0  0  0
   46.4860   33.4934   47.3012 H   0  0  0  0  0  0  0  0  0  0  0  0
   44.8817   31.6353   45.8126 H   0  0  0  0  0  0  0  0  0  0  0  0
   46.0272   30.6003   45.6952 H   0  0  0  0  0  0  0  0  0  0  0  0
  1 11  1  0
  2  3  1  0
  4  3  2  0
  5  4  1  0
  6  1  1  0
  6  5  2  0
  7  6  1  0
  8  7  2  0
  8  9  1  0
  9 10  2  0
 10  5  1  0
 10  2  1  0
 11 12  2  0
 11 16  1  0
 12 13  1  0
 13 14  2  0
 15 14  1  0
 15 17  1  0
 16 15  2  0
 17 19  1  0
 17 18  1  0
 19 18  1  0
  2 20  1  0
  3 21  1  0
  8 22  1  0
 12 23  1  0
 13 24  1  0
 17 25  1  0
 18 26  1  0
 18 27  1  0
 19 28  1  0
 19 29  1  0
M  ISO  8  20   9  21  14  22  14  23  14  24  14  25  13  26  13  27  13
M  ISO  2  28  13  29  13
M  END
>  <minimizedAffinity>  (1) 
-5.18975687

>  <minimizedRMSD>  (1) 
2.67207718

$$$$
