
     RDKit          3D

 29 32  0  0  0  0  0  0  0  0999 V2000
   46.0170   34.4170   41.5880 C   0  0  0  0  0  0  0  0  0  0  0  0
   46.0710   35.2030   42.7600 C   0  0  0  0  0  0  0  0  0  0  0  0
   44.8840   35.9120   43.0510 C   0  0  0  0  0  0  0  0  0  0  0  0
   43.8130   35.7950   42.2160 N   0  0  0  0  0  0  0  0  0  0  0  0
   43.8320   35.0290   41.1190 C   0  0  0  0  0  0  0  0  0  0  0  0
   44.9220   34.3410   40.7970 N   0  0  0  0  0  0  0  0  0  0  0  0
   42.6240   35.0290   40.3670 N   0  0  0  0  0  0  0  0  0  0  0  0
   42.6800   34.1730   39.3370 N   0  0  0  0  0  0  0  0  0  0  0  0
   41.5040   34.2150   38.6590 C   0  0  0  0  0  0  0  0  0  0  0  0
   40.7110   35.1410   39.3180 C   0  0  0  0  0  0  0  0  0  0  0  0
   41.4240   35.6450   40.3870 C   0  0  0  0  0  0  0  0  0  0  0  0
   47.4810   33.4620   41.1110 S   0  0  0  0  0  0  0  0  0  0  0  0
   46.3220   31.6050   36.6730 N   0  0  0  0  0  0  0  0  0  0  0  0
   45.7720   30.8920   37.6800 C   0  0  0  0  0  0  0  0  0  0  0  0
   46.1610   31.4970   38.8310 N   0  0  0  0  0  0  0  0  0  0  0  0
   46.9190   32.5380   38.5090 C   0  0  0  0  0  0  0  0  0  0  0  0
   47.5470   33.4570   39.3230 C   0  0  0  0  0  0  0  0  0  0  0  0
   48.2840   34.4580   38.8000 N   0  0  0  0  0  0  0  0  0  0  0  0
   48.3780   34.5170   37.4450 C   0  0  0  0  0  0  0  0  0  0  0  0
   47.7700   33.6240   36.6330 N   0  0  0  0  0  0  0  0  0  0  0  0
   47.0420   32.6350   37.1420 C   0  0  0  0  0  0  0  0  0  0  0  0
   46.9666   35.2589   43.3962 H   0  0  0  0  0  0  0  0  0  0  0  0
   44.8247   36.5526   43.9433 H   0  0  0  0  0  0  0  0  0  0  0  0
   41.2350   33.6314   37.7663 H   0  0  0  0  0  0  0  0  0  0  0  0
   39.6865   35.4261   39.0367 H   0  0  0  0  0  0  0  0  0  0  0  0
   41.0818   36.3990   41.1112 H   0  0  0  0  0  0  0  0  0  0  0  0
   46.2037   31.3859   35.6736 H   0  0  0  0  0  0  0  0  0  0  0  0
   45.1360   29.9995   37.5859 H   0  0  0  0  0  0  0  0  0  0  0  0
   48.9726   35.3237   36.9915 H   0  0  0  0  0  0  0  0  0  0  0  0
  1  2  2  0
  2  3  1  0
  4  3  2  0
  5  4  1  0
  6  5  2  0
  6  1  1  0
  7 11  1  0
  7  5  1  0
  8  7  1  0
  9 10  1  0
  9  8  2  0
 10 11  2  0
 12  1  1  0
 13 21  1  0
 13 14  1  0
 14 15  2  0
 16 15  1  0
 16 17  2  0
 17 12  1  0
 18 17  1  0
 19 18  2  0
 20 21  2  0
 20 19  1  0
 21 16  1  0
  2 22  1  0
  3 23  1  0
  9 24  1  0
 10 25  1  0
 11 26  1  0
 13 27  1  0
 14 28  1  0
 19 29  1  0
M  ISO  8  22  14  23  14  24  14  25  14  26  14  27   9  28  14  29  14
M  END
>  <minimizedAffinity>  (1) 
-5.08971882

>  <minimizedRMSD>  (1) 
6.17474318

$$$$
