
     RDKit          3D

 25 27  0  0  0  0  0  0  0  0999 V2000
   39.0820   33.0950   41.5510 N   0  0  0  0  0  0  0  0  0  0  0  0
   39.8320   32.0880   41.9980 C   0  0  0  0  0  0  0  0  0  0  0  0
   41.1100   32.3270   41.5850 N   0  0  0  0  0  0  0  0  0  0  0  0
   41.0880   33.4750   40.9000 C   0  0  0  0  0  0  0  0  0  0  0  0
   42.1260   34.1340   40.2860 C   0  0  0  0  0  0  0  0  0  0  0  0
   41.9090   35.3000   39.6320 N   0  0  0  0  0  0  0  0  0  0  0  0
   40.6280   35.7790   39.6130 C   0  0  0  0  0  0  0  0  0  0  0  0
   39.6170   35.1260   40.2180 N   0  0  0  0  0  0  0  0  0  0  0  0
   39.8280   33.9880   40.8580 C   0  0  0  0  0  0  0  0  0  0  0  0
   43.8290   33.5830   40.2570 S   0  0  0  0  0  0  0  0  0  0  0  0
   44.4400   33.6830   41.9630 C   0  0  0  0  0  0  0  0  0  0  0  0
   44.9960   32.5390   42.5500 C   0  0  0  0  0  0  0  0  0  0  0  0
   45.4510   32.6750   43.8690 C   0  0  0  0  0  0  0  0  0  0  0  0
   45.3250   33.8710   44.4700 N   0  0  0  0  0  0  0  0  0  0  0  0
   44.7820   34.9540   43.8700 C   0  0  0  0  0  0  0  0  0  0  0  0
   44.3420   34.8530   42.6190 N   0  0  0  0  0  0  0  0  0  0  0  0
   44.6630   36.2510   44.5730 C   0  0  0  0  0  0  0  0  0  0  0  0
   38.0684   33.1826   41.7115 H   0  0  0  0  0  0  0  0  0  0  0  0
   39.4859   31.2268   42.5884 H   0  0  0  0  0  0  0  0  0  0  0  0
   40.4176   36.7232   39.0894 H   0  0  0  0  0  0  0  0  0  0  0  0
   45.0714   31.5861   42.0057 H   0  0  0  0  0  0  0  0  0  0  0  0
   45.9007   31.8230   44.3999 H   0  0  0  0  0  0  0  0  0  0  0  0
   44.6785   36.0818   45.6598 H   0  0  0  0  0  0  0  0  0  0  0  0
   45.5054   36.8996   44.2908 H   0  0  0  0  0  0  0  0  0  0  0  0
   43.7166   36.7355   44.2908 H   0  0  0  0  0  0  0  0  0  0  0  0
  1  2  1  0
  3  2  2  0
  4  3  1  0
  5  4  2  0
  6  5  1  0
  7  6  2  0
  7  8  1  0
  8  9  2  0
  9  4  1  0
  9  1  1  0
 10  5  1  0
 10 11  1  0
 11 12  2  0
 11 16  1  0
 12 13  1  0
 13 14  2  0
 15 14  1  0
 15 17  1  0
 16 15  2  0
  1 18  1  0
  2 19  1  0
  7 20  1  0
 12 21  1  0
 13 22  1  0
 17 23  1  0
 17 24  1  0
 17 25  1  0
M  ISO  8  18   9  19  14  20  14  21  14  22  14  23   8  24   8  25   8
M  END
>  <minimizedAffinity>  (1) 
-4.80164528

>  <minimizedRMSD>  (1) 
0.701047659

$$$$
