
     RDKit          3D

 29 32  0  0  0  0  0  0  0  0999 V2000
   44.4270   34.5300   42.0790 C   0  0  0  0  0  0  0  0  0  0  0  0
   44.7350   33.5450   43.0460 C   0  0  0  0  0  0  0  0  0  0  0  0
   45.1720   34.0080   44.2910 C   0  0  0  0  0  0  0  0  0  0  0  0
   45.2710   35.3530   44.4880 N   0  0  0  0  0  0  0  0  0  0  0  0
   44.9690   36.2480   43.5440 C   0  0  0  0  0  0  0  0  0  0  0  0
   44.5470   35.8470   42.3410 N   0  0  0  0  0  0  0  0  0  0  0  0
   45.1210   37.6580   43.8960 C   0  0  0  0  0  0  0  0  0  0  0  0
   45.4030   38.8540   43.2260 C   0  0  0  0  0  0  0  0  0  0  0  0
   45.3910   39.8240   44.2260 C   0  0  0  0  0  0  0  0  0  0  0  0
   45.1210   39.2390   45.4030 N   0  0  0  0  0  0  0  0  0  0  0  0
   44.9610   37.9410   45.2070 N   0  0  0  0  0  0  0  0  0  0  0  0
   43.8550   34.0210   40.4450 S   0  0  0  0  0  0  0  0  0  0  0  0
   39.1220   33.0470   41.5010 N   0  0  0  0  0  0  0  0  0  0  0  0
   39.9670   32.1250   42.0110 C   0  0  0  0  0  0  0  0  0  0  0  0
   41.2230   32.4970   41.6590 N   0  0  0  0  0  0  0  0  0  0  0  0
   41.1120   33.6250   40.9500 C   0  0  0  0  0  0  0  0  0  0  0  0
   42.0970   34.3880   40.3720 C   0  0  0  0  0  0  0  0  0  0  0  0
   41.7950   35.5100   39.6840 N   0  0  0  0  0  0  0  0  0  0  0  0
   40.4730   35.8430   39.5930 C   0  0  0  0  0  0  0  0  0  0  0  0
   39.5060   35.1020   40.1540 N   0  0  0  0  0  0  0  0  0  0  0  0
   39.8030   33.9930   40.8350 C   0  0  0  0  0  0  0  0  0  0  0  0
   44.6360   32.4710   42.8301 H   0  0  0  0  0  0  0  0  0  0  0  0
   45.4303   33.3020   45.0940 H   0  0  0  0  0  0  0  0  0  0  0  0
   45.5917   38.9961   42.1517 H   0  0  0  0  0  0  0  0  0  0  0  0
   45.5737   40.8981   44.0748 H   0  0  0  0  0  0  0  0  0  0  0  0
   45.0500   39.7216   46.3101 H   0  0  0  0  0  0  0  0  0  0  0  0
   38.0978   33.0271   41.6081 H   0  0  0  0  0  0  0  0  0  0  0  0
   39.6889   31.2391   42.6008 H   0  0  0  0  0  0  0  0  0  0  0  0
   40.1917   36.7513   39.0399 H   0  0  0  0  0  0  0  0  0  0  0  0
  1  6  1  0
  1  2  2  0
  2  3  1  0
  3  4  2  0
  5  7  1  0
  5  4  1  0
  6  5  2  0
  7 11  2  0
  8  7  1  0
  8  9  2  0
  9 10  1  0
 11 10  1  0
 12  1  1  0
 13 14  1  0
 15 14  2  0
 16 15  1  0
 17 12  1  0
 17 16  2  0
 18 17  1  0
 19 18  2  0
 19 20  1  0
 20 21  2  0
 21 16  1  0
 21 13  1  0
  2 22  1  0
  3 23  1  0
  8 24  1  0
  9 25  1  0
 10 26  1  0
 13 27  1  0
 14 28  1  0
 19 29  1  0
M  ISO  8  22  14  23  14  24  14  25  14  26   9  27   9  28  14  29  14
M  END
>  <minimizedAffinity>  (1) 
-4.74580002

>  <minimizedRMSD>  (1) 
1.00388849

$$$$
