
     RDKit          3D

 35 38  0  0  0  0  0  0  0  0999 V2000
   46.7510   34.5760   41.6970 C   0  0  0  0  0  0  0  0  0  0  0  0
   46.7460   34.5830   43.1020 C   0  0  0  0  0  0  0  0  0  0  0  0
   45.5120   34.3400   43.7170 C   0  0  0  0  0  0  0  0  0  0  0  0
   44.4330   34.1190   42.9290 N   0  0  0  0  0  0  0  0  0  0  0  0
   44.4830   34.1200   41.5870 C   0  0  0  0  0  0  0  0  0  0  0  0
   45.6420   34.3490   40.9810 N   0  0  0  0  0  0  0  0  0  0  0  0
   43.3440   33.8870   40.8050 N   0  0  0  0  0  0  0  0  0  0  0  0
   42.2550   33.0510   41.2500 C   0  0  0  0  0  0  0  0  0  0  0  0
   41.0750   33.0780   40.3480 C   0  0  0  0  0  0  0  0  0  0  0  0
   40.7650   34.2720   39.7640 O   0  0  0  0  0  0  0  0  0  0  0  0
   41.7760   35.1790   39.6180 C   0  0  0  0  0  0  0  0  0  0  0  0
   43.0980   34.4290   39.4820 C   0  0  0  0  0  0  0  0  0  0  0  0
   48.3030   34.8820   40.8120 S   0  0  0  0  0  0  0  0  0  0  0  0
   48.2740   30.5080   38.4950 N   0  0  0  0  0  0  0  0  0  0  0  0
   48.3050   30.3770   39.8280 C   0  0  0  0  0  0  0  0  0  0  0  0
   48.3110   31.6390   40.3580 N   0  0  0  0  0  0  0  0  0  0  0  0
   48.2830   32.4770   39.3290 C   0  0  0  0  0  0  0  0  0  0  0  0
   48.2760   33.8570   39.3380 C   0  0  0  0  0  0  0  0  0  0  0  0
   48.2460   34.5580   38.1850 N   0  0  0  0  0  0  0  0  0  0  0  0
   48.2240   33.8490   37.0310 C   0  0  0  0  0  0  0  0  0  0  0  0
   48.2310   32.5050   37.0150 N   0  0  0  0  0  0  0  0  0  0  0  0
   48.2600   31.8130   38.1440 C   0  0  0  0  0  0  0  0  0  0  0  0
   47.6597   34.7688   43.6856 H   0  0  0  0  0  0  0  0  0  0  0  0
   45.4211   34.3289   44.8132 H   0  0  0  0  0  0  0  0  0  0  0  0
   42.6175   32.0146   41.3168 H   0  0  0  0  0  0  0  0  0  0  0  0
   41.9251   33.4435   42.2232 H   0  0  0  0  0  0  0  0  0  0  0  0
   41.2579   32.3525   39.5416 H   0  0  0  0  0  0  0  0  0  0  0  0
   40.2166   32.8473   40.9961 H   0  0  0  0  0  0  0  0  0  0  0  0
   41.6010   35.7850   38.7168 H   0  0  0  0  0  0  0  0  0  0  0  0
   41.8120   35.8410   40.4957 H   0  0  0  0  0  0  0  0  0  0  0  0
   43.0126   33.6212   38.7403 H   0  0  0  0  0  0  0  0  0  0  0  0
   43.9152   35.0796   39.1372 H   0  0  0  0  0  0  0  0  0  0  0  0
   48.2624   29.7222   37.8293 H   0  0  0  0  0  0  0  0  0  0  0  0
   48.3224   29.4322   40.3911 H   0  0  0  0  0  0  0  0  0  0  0  0
   48.1996   34.3916   36.0745 H   0  0  0  0  0  0  0  0  0  0  0  0
  1  2  2  0
  2  3  1  0
  4  3  2  0
  5  4  1  0
  6  5  2  0
  6  1  1  0
  7  8  1  0
  7  5  1  0
  9  8  1  0
 10  9  1  0
 11 10  1  0
 12 11  1  0
 12  7  1  0
 13  1  1  0
 14 15  1  0
 15 16  2  0
 17 18  2  0
 17 16  1  0
 18 13  1  0
 19 18  1  0
 20 19  2  0
 21 20  1  0
 21 22  2  0
 22 14  1  0
 22 17  1  0
  2 23  1  0
  3 24  1  0
  8 25  1  0
  8 26  1  0
  9 27  1  0
  9 28  1  0
 11 29  1  0
 11 30  1  0
 12 31  1  0
 12 32  1  0
 14 33  1  0
 15 34  1  0
 20 35  1  0
M  ISO  8  23  14  24  14  25  13  26  13  27  13  28  13  29  13  30  13
M  ISO  5  31  13  32  13  33   9  34  14  35  14
M  END
>  <minimizedAffinity>  (1) 
-4.71130085

>  <minimizedRMSD>  (1) 
6.69445372

$$$$
