
     RDKit          3D

 30 33  0  0  0  0  0  0  0  0999 V2000
   46.9750   34.5790   41.9640 C   0  0  0  0  0  0  0  0  0  0  0  0
   47.0870   34.2930   43.3260 C   0  0  0  0  0  0  0  0  0  0  0  0
   45.8930   33.9650   43.9950 C   0  0  0  0  0  0  0  0  0  0  0  0
   44.7490   33.9500   43.2880 N   0  0  0  0  0  0  0  0  0  0  0  0
   44.6800   34.2320   41.9780 C   0  0  0  0  0  0  0  0  0  0  0  0
   45.7930   34.5470   41.3110 N   0  0  0  0  0  0  0  0  0  0  0  0
   43.3920   34.1900   41.2920 C   0  0  0  0  0  0  0  0  0  0  0  0
   43.0450   35.1960   40.4100 C   0  0  0  0  0  0  0  0  0  0  0  0
   41.8320   35.1930   39.7400 C   0  0  0  0  0  0  0  0  0  0  0  0
   40.9420   34.1960   39.9300 N   0  0  0  0  0  0  0  0  0  0  0  0
   41.3120   33.2400   40.7910 C   0  0  0  0  0  0  0  0  0  0  0  0
   42.4920   33.1950   41.4760 N   0  0  0  0  0  0  0  0  0  0  0  0
   48.4580   35.0100   41.0210 S   0  0  0  0  0  0  0  0  0  0  0  0
   48.9060   30.6270   38.7930 N   0  0  0  0  0  0  0  0  0  0  0  0
   49.0410   30.5350   40.1200 C   0  0  0  0  0  0  0  0  0  0  0  0
   48.9000   31.7900   40.6180 N   0  0  0  0  0  0  0  0  0  0  0  0
   48.6870   32.5900   39.5830 C   0  0  0  0  0  0  0  0  0  0  0  0
   48.4830   33.9530   39.5670 C   0  0  0  0  0  0  0  0  0  0  0  0
   48.2790   34.6230   38.4110 N   0  0  0  0  0  0  0  0  0  0  0  0
   48.2860   33.8700   37.2650 C   0  0  0  0  0  0  0  0  0  0  0  0
   48.4840   32.5400   37.2690 N   0  0  0  0  0  0  0  0  0  0  0  0
   48.6830   31.9000   38.4060 C   0  0  0  0  0  0  0  0  0  0  0  0
   48.0551   34.3224   43.8474 H   0  0  0  0  0  0  0  0  0  0  0  0
   45.8954   33.7269   45.0689 H   0  0  0  0  0  0  0  0  0  0  0  0
   43.7508   36.0214   40.2352 H   0  0  0  0  0  0  0  0  0  0  0  0
   41.5918   36.0118   39.0459 H   0  0  0  0  0  0  0  0  0  0  0  0
   40.6019   32.4174   40.9617 H   0  0  0  0  0  0  0  0  0  0  0  0
   48.9649   29.8266   38.1474 H   0  0  0  0  0  0  0  0  0  0  0  0
   49.2301   29.6181   40.6975 H   0  0  0  0  0  0  0  0  0  0  0  0
   48.1227   34.3753   36.3017 H   0  0  0  0  0  0  0  0  0  0  0  0
  1  2  2  0
  2  3  1  0
  4  3  2  0
  5  4  1  0
  6  1  1  0
  6  5  2  0
  7 12  1  0
  7  5  1  0
  8  7  2  0
  9 10  2  0
  9  8  1  0
 10 11  1  0
 11 12  2  0
 13  1  1  0
 14 15  1  0
 15 16  2  0
 17 16  1  0
 18 17  2  0
 18 13  1  0
 19 18  1  0
 20 21  1  0
 20 19  2  0
 21 22  2  0
 22 14  1  0
 22 17  1  0
  2 23  1  0
  3 24  1  0
  8 25  1  0
  9 26  1  0
 11 27  1  0
 14 28  1  0
 15 29  1  0
 20 30  1  0
M  ISO  8  23  14  24  14  25  14  26  14  27  14  28   9  29  14  30  14
M  END
>  <minimizedAffinity>  (1) 
-4.6652379

>  <minimizedRMSD>  (1) 
6.67961311

$$$$
