
     RDKit          3D

 31 34  0  0  0  0  0  0  0  0999 V2000
   46.0330   34.7980   41.6710 C   0  0  0  0  0  0  0  0  0  0  0  0
   46.0620   35.1640   43.0350 C   0  0  0  0  0  0  0  0  0  0  0  0
   44.8370   35.5070   43.6180 C   0  0  0  0  0  0  0  0  0  0  0  0
   43.7250   35.4630   42.8460 N   0  0  0  0  0  0  0  0  0  0  0  0
   43.7370   35.1090   41.5550 C   0  0  0  0  0  0  0  0  0  0  0  0
   44.8820   34.7780   40.9660 N   0  0  0  0  0  0  0  0  0  0  0  0
   42.4940   35.0860   40.7860 C   0  0  0  0  0  0  0  0  0  0  0  0
   41.3470   35.6970   41.2470 C   0  0  0  0  0  0  0  0  0  0  0  0
   40.1370   35.7190   40.5790 C   0  0  0  0  0  0  0  0  0  0  0  0
   40.0740   35.0740   39.3500 C   0  0  0  0  0  0  0  0  0  0  0  0
   41.2250   34.4710   38.9070 C   0  0  0  0  0  0  0  0  0  0  0  0
   42.4140   34.4580   39.5770 N   0  0  0  0  0  0  0  0  0  0  0  0
   47.5700   34.3430   40.8420 S   0  0  0  0  0  0  0  0  0  0  0  0
   47.5510   29.5080   41.8870 N   0  0  0  0  0  0  0  0  0  0  0  0
   47.7600   30.2620   42.9750 C   0  0  0  0  0  0  0  0  0  0  0  0
   47.7470   31.5700   42.5770 N   0  0  0  0  0  0  0  0  0  0  0  0
   47.5280   31.5570   41.2590 C   0  0  0  0  0  0  0  0  0  0  0  0
   47.4270   32.6150   40.3900 C   0  0  0  0  0  0  0  0  0  0  0  0
   47.2020   32.4200   39.0770 N   0  0  0  0  0  0  0  0  0  0  0  0
   47.0820   31.1260   38.6570 C   0  0  0  0  0  0  0  0  0  0  0  0
   47.1790   30.0820   39.4980 N   0  0  0  0  0  0  0  0  0  0  0  0
   47.4000   30.2820   40.7870 C   0  0  0  0  0  0  0  0  0  0  0  0
   46.9998   35.1786   43.6097 H   0  0  0  0  0  0  0  0  0  0  0  0
   44.7787   35.8045   44.6754 H   0  0  0  0  0  0  0  0  0  0  0  0
   41.3989   36.2058   42.2209 H   0  0  0  0  0  0  0  0  0  0  0  0
   39.2587   36.2271   41.0037 H   0  0  0  0  0  0  0  0  0  0  0  0
   39.1460   35.0478   38.7600 H   0  0  0  0  0  0  0  0  0  0  0  0
   41.1859   33.9576   37.9349 H   0  0  0  0  0  0  0  0  0  0  0  0
   47.5107   28.4788   41.8878 H   0  0  0  0  0  0  0  0  0  0  0  0
   47.9139   29.8956   44.0007 H   0  0  0  0  0  0  0  0  0  0  0  0
   46.8990   30.9308   37.5900 H   0  0  0  0  0  0  0  0  0  0  0  0
  1  2  2  0
  2  3  1  0
  4  3  2  0
  5  4  1  0
  6  5  2  0
  6  1  1  0
  7  8  2  0
  7  5  1  0
  9  8  1  0
 10  9  2  0
 11 10  1  0
 11 12  2  0
 12  7  1  0
 13  1  1  0
 14 15  1  0
 16 15  2  0
 17 16  1  0
 18 13  1  0
 18 17  2  0
 19 18  1  0
 20 19  2  0
 20 21  1  0
 21 22  2  0
 22 17  1  0
 22 14  1  0
  2 23  1  0
  3 24  1  0
  8 25  1  0
  9 26  1  0
 10 27  1  0
 11 28  1  0
 14 29  1  0
 15 30  1  0
 20 31  1  0
M  ISO  8  23  14  24  14  25  14  26  14  27  14  28  14  29   9  30  14
M  ISO  1  31  14
M  END
>  <minimizedAffinity>  (1) 
-4.64295626

>  <minimizedRMSD>  (1) 
6.27329206

$$$$
