
     RDKit          3D

 39 43  0  0  0  0  0  0  0  0999 V2000
   45.4090   33.8820   41.2070 C   0  0  0  0  0  0  0  0  0  0  0  0
   45.1270   33.6950   42.5620 C   0  0  0  0  0  0  0  0  0  0  0  0
   46.1220   34.1100   43.4820 C   0  0  0  0  0  0  0  0  0  0  0  0
   47.2480   34.6460   42.9510 N   0  0  0  0  0  0  0  0  0  0  0  0
   47.4830   34.8100   41.6540 C   0  0  0  0  0  0  0  0  0  0  0  0
   46.5540   34.4230   40.7930 N   0  0  0  0  0  0  0  0  0  0  0  0
   45.7410   33.8790   44.8580 C   0  0  0  0  0  0  0  0  0  0  0  0
   44.9320   34.7170   45.5250 N   0  0  0  0  0  0  0  0  0  0  0  0
   44.5470   34.5540   46.7940 C   0  0  0  0  0  0  0  0  0  0  0  0
   44.9500   33.5060   47.5340 N   0  0  0  0  0  0  0  0  0  0  0  0
   45.7720   32.5940   46.9600 C   0  0  0  0  0  0  0  0  0  0  0  0
   46.2080   31.5080   47.6820 C   0  0  0  0  0  0  0  0  0  0  0  0
   47.0460   30.5690   47.1160 C   0  0  0  0  0  0  0  0  0  0  0  0
   47.4160   30.7780   45.8040 C   0  0  0  0  0  0  0  0  0  0  0  0
   46.9580   31.8780   45.1130 C   0  0  0  0  0  0  0  0  0  0  0  0
   46.1280   32.8250   45.6490 C   0  0  0  0  0  0  0  0  0  0  0  0
   48.7490   35.4140   41.1920 C   0  0  0  0  0  0  0  0  0  0  0  0
   48.7030   35.5200   39.7920 F   0  0  0  0  0  0  0  0  0  0  0  0
   49.8100   34.5570   41.4580 F   0  0  0  0  0  0  0  0  0  0  0  0
   49.0520   36.6230   41.7660 F   0  0  0  0  0  0  0  0  0  0  0  0
   44.1620   33.3640   39.9920 S   0  0  0  0  0  0  0  0  0  0  0  0
   39.7750   32.9110   42.2070 N   0  0  0  0  0  0  0  0  0  0  0  0
   40.4630   31.7620   42.2180 C   0  0  0  0  0  0  0  0  0  0  0  0
   41.6490   32.0000   41.5850 N   0  0  0  0  0  0  0  0  0  0  0  0
   41.6360   33.2780   41.2160 C   0  0  0  0  0  0  0  0  0  0  0  0
   42.5880   34.0000   40.5510 C   0  0  0  0  0  0  0  0  0  0  0  0
   42.3990   35.3090   40.2540 N   0  0  0  0  0  0  0  0  0  0  0  0
   41.2280   35.8590   40.6490 C   0  0  0  0  0  0  0  0  0  0  0  0
   40.2750   35.1670   41.3050 N   0  0  0  0  0  0  0  0  0  0  0  0
   40.4650   33.8830   41.5930 C   0  0  0  0  0  0  0  0  0  0  0  0
   44.1799   33.2479   42.8984 H   0  0  0  0  0  0  0  0  0  0  0  0
   43.8791   35.3009   47.2479 H   0  0  0  0  0  0  0  0  0  0  0  0
   45.8840   31.3859   48.7261 H   0  0  0  0  0  0  0  0  0  0  0  0
   47.4015   29.6964   47.6836 H   0  0  0  0  0  0  0  0  0  0  0  0
   48.0830   30.0597   45.3048 H   0  0  0  0  0  0  0  0  0  0  0  0
   47.2784   32.0027   44.0681 H   0  0  0  0  0  0  0  0  0  0  0  0
   38.8379   33.0322   42.6168 H   0  0  0  0  0  0  0  0  0  0  0  0
   40.1346   30.8072   42.6545 H   0  0  0  0  0  0  0  0  0  0  0  0
   41.0449   36.9202   40.4245 H   0  0  0  0  0  0  0  0  0  0  0  0
  1  2  2  0
  2  3  1  0
  3  7  1  0
  4  3  2  0
  5  4  1  0
  6  1  1  0
  6  5  2  0
  7  8  2  0
  7 16  1  0
  8  9  1  0
  9 10  2  0
 11 10  1  0
 11 12  2  0
 13 12  1  0
 14 13  2  0
 15 16  2  0
 15 14  1  0
 16 11  1  0
 17 19  1  0
 17  5  1  0
 17 20  1  0
 18 17  1  0
 21 26  1  0
 21  1  1  0
 22 23  1  0
 24 23  2  0
 25 24  1  0
 25 30  2  0
 26 25  1  0
 27 26  2  0
 27 28  1  0
 28 29  2  0
 29 30  1  0
 30 22  1  0
  2 31  1  0
  9 32  1  0
 12 33  1  0
 13 34  1  0
 14 35  1  0
 15 36  1  0
 22 37  1  0
 23 38  1  0
 28 39  1  0
M  ISO  8  31  14  32  14  33  14  34  14  35  14  36  14  37   9  38  14
M  ISO  1  39  14
M  END
>  <minimizedAffinity>  (1) 
-7.60427141

>  <minimizedRMSD>  (1) 
0.890801907

$$$$
