
     RDKit          3D

 35 38  0  0  0  0  0  0  0  0999 V2000
   45.2070   33.7800   41.0720 C   0  0  0  0  0  0  0  0  0  0  0  0
   44.9110   33.4340   42.3990 C   0  0  0  0  0  0  0  0  0  0  0  0
   45.8920   33.7190   43.3470 C   0  0  0  0  0  0  0  0  0  0  0  0
   47.0410   34.2970   42.9360 N   0  0  0  0  0  0  0  0  0  0  0  0
   47.2910   34.6180   41.6450 C   0  0  0  0  0  0  0  0  0  0  0  0
   46.3730   34.3560   40.7240 N   0  0  0  0  0  0  0  0  0  0  0  0
   45.7390   33.4220   44.7620 C   0  0  0  0  0  0  0  0  0  0  0  0
   46.2100   32.2110   45.2150 C   0  0  0  0  0  0  0  0  0  0  0  0
   46.1090   31.8360   46.5570 C   0  0  0  0  0  0  0  0  0  0  0  0
   45.5130   32.7180   47.4630 C   0  0  0  0  0  0  0  0  0  0  0  0
   45.0410   33.9360   46.9980 C   0  0  0  0  0  0  0  0  0  0  0  0
   45.1550   34.2820   45.6640 C   0  0  0  0  0  0  0  0  0  0  0  0
   48.5780   35.2520   41.2760 C   0  0  0  0  0  0  0  0  0  0  0  0
   48.5990   35.4170   39.8890 F   0  0  0  0  0  0  0  0  0  0  0  0
   49.6290   34.4040   41.5750 F   0  0  0  0  0  0  0  0  0  0  0  0
   48.8350   36.4350   41.9220 F   0  0  0  0  0  0  0  0  0  0  0  0
   43.9790   33.4390   39.7880 S   0  0  0  0  0  0  0  0  0  0  0  0
   39.6910   32.9640   42.1740 N   0  0  0  0  0  0  0  0  0  0  0  0
   40.4060   31.8250   42.1980 C   0  0  0  0  0  0  0  0  0  0  0  0
   41.5500   32.0830   41.5160 N   0  0  0  0  0  0  0  0  0  0  0  0
   41.4940   33.3430   41.1080 C   0  0  0  0  0  0  0  0  0  0  0  0
   42.4140   34.0520   40.3850 C   0  0  0  0  0  0  0  0  0  0  0  0
   42.1870   35.3550   40.0510 N   0  0  0  0  0  0  0  0  0  0  0  0
   41.0100   35.8970   40.4720 C   0  0  0  0  0  0  0  0  0  0  0  0
   40.1120   35.1960   41.1810 N   0  0  0  0  0  0  0  0  0  0  0  0
   40.3390   33.9290   41.5030 C   0  0  0  0  0  0  0  0  0  0  0  0
   43.9563   32.9632   42.6762 H   0  0  0  0  0  0  0  0  0  0  0  0
   46.6792   31.5188   44.5004 H   0  0  0  0  0  0  0  0  0  0  0  0
   46.4924   30.8621   46.8953 H   0  0  0  0  0  0  0  0  0  0  0  0
   45.4201   32.4505   48.5259 H   0  0  0  0  0  0  0  0  0  0  0  0
   44.5686   34.6378   47.7010 H   0  0  0  0  0  0  0  0  0  0  0  0
   44.7748   35.2552   45.3200 H   0  0  0  0  0  0  0  0  0  0  0  0
   38.7667   33.0805   42.6133 H   0  0  0  0  0  0  0  0  0  0  0  0
   40.1206   30.8756   42.6746 H   0  0  0  0  0  0  0  0  0  0  0  0
   40.7883   36.9451   40.2221 H   0  0  0  0  0  0  0  0  0  0  0  0
  1  2  2  0
  2  3  1  0
  3  7  1  0
  4  3  2  0
  5  4  1  0
  6  1  1  0
  6  5  2  0
  7  8  2  0
  7 12  1  0
  8  9  1  0
  9 10  2  0
 11 10  1  0
 12 11  2  0
 13 15  1  0
 13  5  1  0
 13 16  1  0
 14 13  1  0
 17 22  1  0
 17  1  1  0
 18 19  1  0
 20 19  2  0
 21 26  2  0
 21 20  1  0
 22 21  1  0
 23 22  2  0
 23 24  1  0
 24 25  2  0
 25 26  1  0
 26 18  1  0
  2 27  1  0
  8 28  1  0
  9 29  1  0
 10 30  1  0
 11 31  1  0
 12 32  1  0
 18 33  1  0
 19 34  1  0
 24 35  1  0
M  ISO  8  27  14  28  14  29  14  30  14  31  14  32  14  33   9  34  14
M  ISO  1  35  14
M  END
>  <minimizedAffinity>  (1) 
-6.78702641

>  <minimizedRMSD>  (1) 
0.843052208

$$$$
