
     RDKit          3D

 35 38  0  0  0  0  0  0  0  0999 V2000
   45.4550   33.8300   41.1880 C   0  0  0  0  0  0  0  0  0  0  0  0
   45.2200   33.4230   42.5060 C   0  0  0  0  0  0  0  0  0  0  0  0
   46.2150   33.7270   43.4300 C   0  0  0  0  0  0  0  0  0  0  0  0
   47.3170   34.3810   43.0060 N   0  0  0  0  0  0  0  0  0  0  0  0
   47.5090   34.7600   41.7200 C   0  0  0  0  0  0  0  0  0  0  0  0
   46.5720   34.4840   40.8030 N   0  0  0  0  0  0  0  0  0  0  0  0
   46.1290   33.3760   44.8390 C   0  0  0  0  0  0  0  0  0  0  0  0
   46.9310   32.3550   45.2970 C   0  0  0  0  0  0  0  0  0  0  0  0
   46.9230   31.9440   46.6270 C   0  0  0  0  0  0  0  0  0  0  0  0
   46.0630   32.6180   47.4690 C   0  0  0  0  0  0  0  0  0  0  0  0
   45.2310   33.6490   47.0800 C   0  0  0  0  0  0  0  0  0  0  0  0
   45.2950   34.0050   45.7330 C   0  0  0  0  0  0  0  0  0  0  0  0
   48.7450   35.4750   41.3280 C   0  0  0  0  0  0  0  0  0  0  0  0
   48.7590   35.5930   39.9350 F   0  0  0  0  0  0  0  0  0  0  0  0
   49.8560   34.7180   41.6620 F   0  0  0  0  0  0  0  0  0  0  0  0
   48.8970   36.7070   41.9370 F   0  0  0  0  0  0  0  0  0  0  0  0
   44.1980   33.4670   39.9270 S   0  0  0  0  0  0  0  0  0  0  0  0
   39.8790   32.8610   42.2240 N   0  0  0  0  0  0  0  0  0  0  0  0
   40.5700   31.7160   42.1590 C   0  0  0  0  0  0  0  0  0  0  0  0
   41.7290   32.0110   41.5110 N   0  0  0  0  0  0  0  0  0  0  0  0
   41.7030   33.2990   41.2100 C   0  0  0  0  0  0  0  0  0  0  0  0
   42.6370   34.0660   40.5590 C   0  0  0  0  0  0  0  0  0  0  0  0
   42.4420   35.3810   40.3350 N   0  0  0  0  0  0  0  0  0  0  0  0
   41.2680   35.9110   40.7910 C   0  0  0  0  0  0  0  0  0  0  0  0
   40.3440   35.1690   41.4310 N   0  0  0  0  0  0  0  0  0  0  0  0
   40.5480   33.8720   41.6450 C   0  0  0  0  0  0  0  0  0  0  0  0
   44.3007   32.8927   42.7953 H   0  0  0  0  0  0  0  0  0  0  0  0
   47.6009   31.8467   44.5879 H   0  0  0  0  0  0  0  0  0  0  0  0
   47.5665   31.1274   46.9864 H   0  0  0  0  0  0  0  0  0  0  0  0
   46.0383   32.3124   48.5254 H   0  0  0  0  0  0  0  0  0  0  0  0
   44.5600   34.1576   47.7879 H   0  0  0  0  0  0  0  0  0  0  0  0
   44.6527   34.8215   45.3715 H   0  0  0  0  0  0  0  0  0  0  0  0
   38.9517   32.9549   42.6625 H   0  0  0  0  0  0  0  0  0  0  0  0
   40.2626   30.7351   42.5505 H   0  0  0  0  0  0  0  0  0  0  0  0
   41.0707   36.9811   40.6297 H   0  0  0  0  0  0  0  0  0  0  0  0
  1  2  2  0
  2  3  1  0
  3  7  1  0
  4  3  2  0
  5  4  1  0
  6  1  1  0
  6  5  2  0
  7  8  2  0
  7 12  1  0
  8  9  1  0
  9 10  2  0
 11 10  1  0
 12 11  2  0
 13 15  1  0
 13  5  1  0
 13 16  1  0
 14 13  1  0
 17 22  1  0
 17  1  1  0
 19 18  1  0
 20 19  2  0
 21 20  1  0
 21 26  2  0
 22 21  1  0
 23 22  2  0
 23 24  1  0
 24 25  2  0
 25 26  1  0
 26 18  1  0
  2 27  1  0
  8 28  1  0
  9 29  1  0
 10 30  1  0
 11 31  1  0
 12 32  1  0
 18 33  1  0
 19 34  1  0
 24 35  1  0
M  ISO  8  27  14  28  14  29  14  30  14  31  14  32  14  33   9  34  14
M  ISO  1  35  14
M  END
>  <minimizedAffinity>  (1) 
-6.78045797

>  <minimizedRMSD>  (1) 
0.96620059

$$$$
