
     RDKit          3D

 32 35  0  0  0  0  0  0  0  0999 V2000
   45.2430   33.8750   41.1620 C   0  0  0  0  0  0  0  0  0  0  0  0
   44.9100   33.6610   42.5210 C   0  0  0  0  0  0  0  0  0  0  0  0
   45.8930   34.0370   43.4350 C   0  0  0  0  0  0  0  0  0  0  0  0
   47.0570   34.5590   42.9930 N   0  0  0  0  0  0  0  0  0  0  0  0
   47.3420   34.7490   41.6920 C   0  0  0  0  0  0  0  0  0  0  0  0
   46.4220   34.4010   40.7810 N   0  0  0  0  0  0  0  0  0  0  0  0
   45.6470   33.8580   44.8610 C   0  0  0  0  0  0  0  0  0  0  0  0
   46.1790   32.8500   45.6350 C   0  0  0  0  0  0  0  0  0  0  0  0
   45.6900   33.0560   46.9150 C   0  0  0  0  0  0  0  0  0  0  0  0
   44.8790   34.1870   46.8530 C   0  0  0  0  0  0  0  0  0  0  0  0
   44.9060   34.5970   45.6200 O   0  0  0  0  0  0  0  0  0  0  0  0
   48.6320   35.3250   41.2630 C   0  0  0  0  0  0  0  0  0  0  0  0
   48.6270   35.4530   39.8730 F   0  0  0  0  0  0  0  0  0  0  0  0
   49.6540   34.4300   41.5500 F   0  0  0  0  0  0  0  0  0  0  0  0
   48.9420   36.5070   41.8940 F   0  0  0  0  0  0  0  0  0  0  0  0
   44.0340   33.4220   39.8840 S   0  0  0  0  0  0  0  0  0  0  0  0
   39.6880   32.9680   42.1680 N   0  0  0  0  0  0  0  0  0  0  0  0
   40.4080   31.8290   42.2210 C   0  0  0  0  0  0  0  0  0  0  0  0
   41.5640   32.0830   41.5670 N   0  0  0  0  0  0  0  0  0  0  0  0
   41.5170   33.3420   41.1410 C   0  0  0  0  0  0  0  0  0  0  0  0
   42.4540   34.0440   40.4340 C   0  0  0  0  0  0  0  0  0  0  0  0
   42.2280   35.3370   40.0840 N   0  0  0  0  0  0  0  0  0  0  0  0
   41.0480   35.8870   40.4640 C   0  0  0  0  0  0  0  0  0  0  0  0
   40.1210   35.1960   41.1620 N   0  0  0  0  0  0  0  0  0  0  0  0
   40.3420   33.9260   41.5070 C   0  0  0  0  0  0  0  0  0  0  0  0
   43.9471   33.2300   42.8327 H   0  0  0  0  0  0  0  0  0  0  0  0
   46.8536   32.0464   45.3046 H   0  0  0  0  0  0  0  0  0  0  0  0
   45.9009   32.4459   47.8057 H   0  0  0  0  0  0  0  0  0  0  0  0
   44.3239   34.6440   47.6855 H   0  0  0  0  0  0  0  0  0  0  0  0
   38.7530   33.0840   42.5843 H   0  0  0  0  0  0  0  0  0  0  0  0
   40.1140   30.8834   42.7000 H   0  0  0  0  0  0  0  0  0  0  0  0
   40.8386   36.9326   40.1942 H   0  0  0  0  0  0  0  0  0  0  0  0
  1  2  2  0
  2  3  1  0
  3  7  1  0
  4  3  2  0
  5  4  1  0
  6  1  1  0
  6  5  2  0
  7 11  1  0
  7  8  2  0
  8  9  1  0
 10  9  2  0
 11 10  1  0
 12 14  1  0
 12  5  1  0
 12 15  1  0
 13 12  1  0
 16 21  1  0
 16  1  1  0
 17 18  1  0
 19 18  2  0
 20 25  2  0
 20 19  1  0
 21 20  1  0
 22 21  2  0
 22 23  1  0
 23 24  2  0
 24 25  1  0
 25 17  1  0
  2 26  1  0
  8 27  1  0
  9 28  1  0
 10 29  1  0
 17 30  1  0
 18 31  1  0
 23 32  1  0
M  ISO  7  26  14  27  14  28  14  29  14  30   9  31  14  32  14
M  END
>  <minimizedAffinity>  (1) 
-6.70142794

>  <minimizedRMSD>  (1) 
0.538838983

$$$$
