
     RDKit          3D

 32 35  0  0  0  0  0  0  0  0999 V2000
   45.2250   33.8190   41.0710 C   0  0  0  0  0  0  0  0  0  0  0  0
   44.9180   33.5140   42.4040 C   0  0  0  0  0  0  0  0  0  0  0  0
   45.8960   33.8240   43.3490 C   0  0  0  0  0  0  0  0  0  0  0  0
   47.0590   34.3900   42.9290 N   0  0  0  0  0  0  0  0  0  0  0  0
   47.3190   34.6690   41.6460 C   0  0  0  0  0  0  0  0  0  0  0  0
   46.3910   34.3760   40.7300 N   0  0  0  0  0  0  0  0  0  0  0  0
   45.7230   33.5660   44.7810 C   0  0  0  0  0  0  0  0  0  0  0  0
   45.0990   34.3590   45.7190 C   0  0  0  0  0  0  0  0  0  0  0  0
   45.0740   33.8870   46.9910 C   0  0  0  0  0  0  0  0  0  0  0  0
   45.6310   32.6900   47.3490 C   0  0  0  0  0  0  0  0  0  0  0  0
   46.2890   32.1550   45.6230 S   0  0  0  0  0  0  0  0  0  0  0  0
   48.5970   35.2840   41.2430 C   0  0  0  0  0  0  0  0  0  0  0  0
   48.6100   35.4330   39.8540 F   0  0  0  0  0  0  0  0  0  0  0  0
   49.6470   34.4420   41.5570 F   0  0  0  0  0  0  0  0  0  0  0  0
   48.8480   36.4920   41.8790 F   0  0  0  0  0  0  0  0  0  0  0  0
   43.9950   33.4380   39.7960 S   0  0  0  0  0  0  0  0  0  0  0  0
   39.7060   32.9650   42.1720 N   0  0  0  0  0  0  0  0  0  0  0  0
   40.4350   31.8270   42.2010 C   0  0  0  0  0  0  0  0  0  0  0  0
   41.5780   32.0870   41.5200 N   0  0  0  0  0  0  0  0  0  0  0  0
   41.5230   33.3450   41.1010 C   0  0  0  0  0  0  0  0  0  0  0  0
   42.4350   34.0630   40.3770 C   0  0  0  0  0  0  0  0  0  0  0  0
   42.1960   35.3560   40.0420 N   0  0  0  0  0  0  0  0  0  0  0  0
   41.0180   35.8890   40.4590 C   0  0  0  0  0  0  0  0  0  0  0  0
   40.1170   35.1940   41.1690 N   0  0  0  0  0  0  0  0  0  0  0  0
   40.3520   33.9270   41.4980 C   0  0  0  0  0  0  0  0  0  0  0  0
   43.9595   33.0558   42.6890 H   0  0  0  0  0  0  0  0  0  0  0  0
   44.6448   35.3243   45.4508 H   0  0  0  0  0  0  0  0  0  0  0  0
   44.5847   34.4931   47.7677 H   0  0  0  0  0  0  0  0  0  0  0  0
   45.6858   32.1871   48.3258 H   0  0  0  0  0  0  0  0  0  0  0  0
   38.7799   33.0777   42.6085 H   0  0  0  0  0  0  0  0  0  0  0  0
   40.1560   30.8779   42.6820 H   0  0  0  0  0  0  0  0  0  0  0  0
   40.7936   36.9351   40.2035 H   0  0  0  0  0  0  0  0  0  0  0  0
  1  2  2  0
  2  3  1  0
  3  7  1  0
  4  3  2  0
  5  4  1  0
  6  1  1  0
  6  5  2  0
  7 11  1  0
  7  8  2  0
  8  9  1  0
  9 10  2  0
 11 10  1  0
 12 14  1  0
 12  5  1  0
 12 15  1  0
 13 12  1  0
 16 21  1  0
 16  1  1  0
 17 18  1  0
 19 18  2  0
 20 25  2  0
 20 19  1  0
 21 20  1  0
 22 21  2  0
 22 23  1  0
 23 24  2  0
 24 25  1  0
 25 17  1  0
  2 26  1  0
  8 27  1  0
  9 28  1  0
 10 29  1  0
 17 30  1  0
 18 31  1  0
 23 32  1  0
M  ISO  7  26  14  27  14  28  14  29  14  30   9  31  14  32  14
M  END
>  <minimizedAffinity>  (1) 
-6.53741169

>  <minimizedRMSD>  (1) 
0.783254325

$$$$
