
     RDKit          3D

 31 33  0  0  0  0  0  0  0  0999 V2000
   44.8590   34.2280   41.0370 C   0  0  0  0  0  0  0  0  0  0  0  0
   44.2880   34.7570   42.2020 C   0  0  0  0  0  0  0  0  0  0  0  0
   45.1650   35.4490   43.0500 C   0  0  0  0  0  0  0  0  0  0  0  0
   46.4680   35.5560   42.6940 N   0  0  0  0  0  0  0  0  0  0  0  0
   46.9720   35.0310   41.5630 C   0  0  0  0  0  0  0  0  0  0  0  0
   46.1560   34.3740   40.7520 N   0  0  0  0  0  0  0  0  0  0  0  0
   48.4010   35.1780   41.2250 C   0  0  0  0  0  0  0  0  0  0  0  0
   48.5430   35.2380   39.8410 F   0  0  0  0  0  0  0  0  0  0  0  0
   49.1010   34.0580   41.6550 F   0  0  0  0  0  0  0  0  0  0  0  0
   49.0090   36.2600   41.8490 F   0  0  0  0  0  0  0  0  0  0  0  0
   43.7900   33.3200   39.8900 S   0  0  0  0  0  0  0  0  0  0  0  0
   39.1850   33.1760   41.6450 N   0  0  0  0  0  0  0  0  0  0  0  0
   39.9160   32.1160   42.0480 C   0  0  0  0  0  0  0  0  0  0  0  0
   41.1430   32.2710   41.5080 N   0  0  0  0  0  0  0  0  0  0  0  0
   41.1260   33.3950   40.8050 C   0  0  0  0  0  0  0  0  0  0  0  0
   42.1440   33.9640   40.0790 C   0  0  0  0  0  0  0  0  0  0  0  0
   41.9550   35.1340   39.4110 N   0  0  0  0  0  0  0  0  0  0  0  0
   40.7160   35.7000   39.5020 C   0  0  0  0  0  0  0  0  0  0  0  0
   39.7150   35.1370   40.2190 N   0  0  0  0  0  0  0  0  0  0  0  0
   39.9170   33.9930   40.8650 C   0  0  0  0  0  0  0  0  0  0  0  0
   44.7050   36.0550   44.3020 C   0  0  0  0  0  0  0  0  0  0  0  0
   44.7840   35.0480   45.4380 C   0  0  0  0  0  0  0  0  0  0  0  0
   43.2200   34.6372   42.4366 H   0  0  0  0  0  0  0  0  0  0  0  0
   38.2002   33.3381   41.8997 H   0  0  0  0  0  0  0  0  0  0  0  0
   39.5785   31.2889   42.6899 H   0  0  0  0  0  0  0  0  0  0  0  0
   40.5243   36.6461   38.9746 H   0  0  0  0  0  0  0  0  0  0  0  0
   45.3400   36.9210   44.5404 H   0  0  0  0  0  0  0  0  0  0  0  0
   43.6596   36.3751   44.1807 H   0  0  0  0  0  0  0  0  0  0  0  0
   44.7424   35.5778   46.4011 H   0  0  0  0  0  0  0  0  0  0  0  0
   43.9380   34.3485   45.3675 H   0  0  0  0  0  0  0  0  0  0  0  0
   45.7288   34.4890   45.3675 H   0  0  0  0  0  0  0  0  0  0  0  0
  1  2  2  0
  2  3  1  0
  3 21  1  0
  4  3  2  0
  5  4  1  0
  6  1  1  0
  6  5  2  0
  7  5  1  0
  7  9  1  0
  7 10  1  0
  8  7  1  0
 11 16  1  0
 11  1  1  0
 12 13  1  0
 14 13  2  0
 15 20  2  0
 15 14  1  0
 16 15  1  0
 17 18  1  0
 17 16  2  0
 18 19  2  0
 19 20  1  0
 20 12  1  0
 21 22  1  0
  2 23  1  0
 12 24  1  0
 13 25  1  0
 18 26  1  0
 21 27  1  0
 21 28  1  0
 22 29  1  0
 22 30  1  0
 22 31  1  0
M  ISO  8  23  14  24   9  25  14  26  14  27   8  28   8  29   8  30   8
M  ISO  1  31   8
M  END
>  <minimizedAffinity>  (1) 
-6.52667189

>  <minimizedRMSD>  (1) 
0.835901678

$$$$
