
     RDKit          3D

 44 47  0  0  0  0  0  0  0  0999 V2000
   45.2290   33.9230   41.2120 C   0  0  0  0  0  0  0  0  0  0  0  0
   44.8720   33.8090   42.5490 C   0  0  0  0  0  0  0  0  0  0  0  0
   45.8470   34.2290   43.4840 C   0  0  0  0  0  0  0  0  0  0  0  0
   47.0270   34.6990   43.0220 N   0  0  0  0  0  0  0  0  0  0  0  0
   47.3180   34.7880   41.7160 C   0  0  0  0  0  0  0  0  0  0  0  0
   46.4130   34.3970   40.8280 N   0  0  0  0  0  0  0  0  0  0  0  0
   48.6310   35.3060   41.2680 C   0  0  0  0  0  0  0  0  0  0  0  0
   48.6160   35.4420   39.8740 F   0  0  0  0  0  0  0  0  0  0  0  0
   49.6230   34.3970   41.5690 F   0  0  0  0  0  0  0  0  0  0  0  0
   48.9930   36.5010   41.8950 F   0  0  0  0  0  0  0  0  0  0  0  0
   45.5890   34.1540   44.9300 C   0  0  0  0  0  0  0  0  0  0  0  0
   46.0840   32.8450   45.4840 C   0  0  0  0  0  0  0  0  0  0  0  0
   46.4210   32.8040   46.8510 N   0  0  0  0  0  0  0  0  0  0  0  0
   47.3190   31.8230   47.3180 C   0  0  0  0  0  0  0  0  0  0  0  0
   46.6940   30.4640   47.3480 C   0  0  0  0  0  0  0  0  0  0  0  0
   45.6050   30.4430   48.1880 O   0  0  0  0  0  0  0  0  0  0  0  0
   45.1930   31.6580   48.6680 C   0  0  0  0  0  0  0  0  0  0  0  0
   45.2060   32.7660   47.6500 C   0  0  0  0  0  0  0  0  0  0  0  0
   44.0260   33.4050   39.9530 S   0  0  0  0  0  0  0  0  0  0  0  0
   39.6360   32.9780   42.1700 N   0  0  0  0  0  0  0  0  0  0  0  0
   40.3660   31.8510   42.2620 C   0  0  0  0  0  0  0  0  0  0  0  0
   41.5350   32.0880   41.6240 N   0  0  0  0  0  0  0  0  0  0  0  0
   41.4860   33.3230   41.1720 C   0  0  0  0  0  0  0  0  0  0  0  0
   42.4360   34.0290   40.4630 C   0  0  0  0  0  0  0  0  0  0  0  0
   42.2240   35.3080   40.0750 N   0  0  0  0  0  0  0  0  0  0  0  0
   41.0290   35.8690   40.4190 C   0  0  0  0  0  0  0  0  0  0  0  0
   40.0840   35.1880   41.1170 N   0  0  0  0  0  0  0  0  0  0  0  0
   40.3090   33.9230   41.4940 C   0  0  0  0  0  0  0  0  0  0  0  0
   43.8929   33.4169   42.8614 H   0  0  0  0  0  0  0  0  0  0  0  0
   46.1098   34.9812   45.4345 H   0  0  0  0  0  0  0  0  0  0  0  0
   44.5053   34.2279   45.1034 H   0  0  0  0  0  0  0  0  0  0  0  0
   45.2953   32.0968   45.3164 H   0  0  0  0  0  0  0  0  0  0  0  0
   47.0304   32.6568   44.9560 H   0  0  0  0  0  0  0  0  0  0  0  0
   48.1948   31.7971   46.6530 H   0  0  0  0  0  0  0  0  0  0  0  0
   47.6091   32.0877   48.3455 H   0  0  0  0  0  0  0  0  0  0  0  0
   46.3704   30.1939   46.3320 H   0  0  0  0  0  0  0  0  0  0  0  0
   47.4377   29.7432   47.7187 H   0  0  0  0  0  0  0  0  0  0  0  0
   44.1651   31.5486   49.0442 H   0  0  0  0  0  0  0  0  0  0  0  0
   45.9089   31.9444   49.4525 H   0  0  0  0  0  0  0  0  0  0  0  0
   45.1062   33.7257   48.1783 H   0  0  0  0  0  0  0  0  0  0  0  0
   44.3697   32.5817   46.9596 H   0  0  0  0  0  0  0  0  0  0  0  0
   38.6919   33.0988   42.5636 H   0  0  0  0  0  0  0  0  0  0  0  0
   40.0690   30.9165   42.7604 H   0  0  0  0  0  0  0  0  0  0  0  0
   40.8241   36.9078   40.1210 H   0  0  0  0  0  0  0  0  0  0  0  0
  1  2  2  0
  2  3  1  0
  3 11  1  0
  4  3  2  0
  5  4  1  0
  6  1  1  0
  6  5  2  0
  7  9  1  0
  7  5  1  0
  7 10  1  0
  8  7  1  0
 11 12  1  0
 12 13  1  0
 13 14  1  0
 13 18  1  0
 14 15  1  0
 15 16  1  0
 16 17  1  0
 18 17  1  0
 19 24  1  0
 19  1  1  0
 20 21  1  0
 22 21  2  0
 23 28  2  0
 23 22  1  0
 24 23  1  0
 25 26  1  0
 25 24  2  0
 26 27  2  0
 27 28  1  0
 28 20  1  0
  2 29  1  0
 11 30  1  0
 11 31  1  0
 12 32  1  0
 12 33  1  0
 14 34  1  0
 14 35  1  0
 15 36  1  0
 15 37  1  0
 17 38  1  0
 17 39  1  0
 18 40  1  0
 18 41  1  0
 20 42  1  0
 21 43  1  0
 26 44  1  0
M  ISO  8  29  14  30   8  31   8  32   8  33   8  34  13  35  13  36  13
M  ISO  8  37  13  38  13  39  13  40  13  41  13  42   9  43  14  44  14
M  END
>  <minimizedAffinity>  (1) 
-6.97819662

>  <minimizedRMSD>  (1) 
2.01651144

$$$$
