
     RDKit          3D

 32 34  0  0  0  0  0  0  0  0999 V2000
   44.7850   34.1880   41.0320 C   0  0  0  0  0  0  0  0  0  0  0  0
   44.2040   34.6160   42.2370 C   0  0  0  0  0  0  0  0  0  0  0  0
   45.0710   35.2420   43.1460 C   0  0  0  0  0  0  0  0  0  0  0  0
   46.3730   35.3850   42.8060 N   0  0  0  0  0  0  0  0  0  0  0  0
   46.8890   34.9620   41.6430 C   0  0  0  0  0  0  0  0  0  0  0  0
   46.0870   34.3660   40.7640 N   0  0  0  0  0  0  0  0  0  0  0  0
   48.3190   35.1400   41.3160 C   0  0  0  0  0  0  0  0  0  0  0  0
   48.4870   35.1510   39.9430 F   0  0  0  0  0  0  0  0  0  0  0  0
   49.0480   34.0580   41.8160 F   0  0  0  0  0  0  0  0  0  0  0  0
   48.8760   36.2550   41.9200 F   0  0  0  0  0  0  0  0  0  0  0  0
   44.5920   35.7290   44.4300 C   0  0  0  0  0  0  0  0  0  0  0  0
   44.9970   34.7630   45.5450 C   0  0  0  0  0  0  0  0  0  0  0  0
   45.2470   33.5000   45.0130 O   0  0  0  0  0  0  0  0  0  0  0  0
   43.7300   33.3700   39.8020 S   0  0  0  0  0  0  0  0  0  0  0  0
   39.1610   33.1530   41.6270 N   0  0  0  0  0  0  0  0  0  0  0  0
   39.9120   32.0870   42.0050 C   0  0  0  0  0  0  0  0  0  0  0  0
   41.1350   32.2630   41.4440 N   0  0  0  0  0  0  0  0  0  0  0  0
   41.0880   33.4070   40.7570 C   0  0  0  0  0  0  0  0  0  0  0  0
   42.0870   33.9980   40.0240 C   0  0  0  0  0  0  0  0  0  0  0  0
   41.8610   35.1790   39.3790 N   0  0  0  0  0  0  0  0  0  0  0  0
   40.6240   35.7210   39.5040 C   0  0  0  0  0  0  0  0  0  0  0  0
   39.6390   35.1360   40.2290 N   0  0  0  0  0  0  0  0  0  0  0  0
   39.8720   33.9900   40.8490 C   0  0  0  0  0  0  0  0  0  0  0  0
   43.1358   34.4696   42.4548 H   0  0  0  0  0  0  0  0  0  0  0  0
   45.0293   36.7184   44.6296 H   0  0  0  0  0  0  0  0  0  0  0  0
   43.4949   35.8029   44.3996 H   0  0  0  0  0  0  0  0  0  0  0  0
   45.9061   35.1369   46.0387 H   0  0  0  0  0  0  0  0  0  0  0  0
   44.1783   34.6915   46.2762 H   0  0  0  0  0  0  0  0  0  0  0  0
   45.3754   32.8512   45.7496 H   0  0  0  0  0  0  0  0  0  0  0  0
   38.1787   33.3013   41.8992 H   0  0  0  0  0  0  0  0  0  0  0  0
   39.5926   31.2474   42.6399 H   0  0  0  0  0  0  0  0  0  0  0  0
   40.4114   36.6736   38.9967 H   0  0  0  0  0  0  0  0  0  0  0  0
  1  2  2  0
  2  3  1  0
  3 11  1  0
  4  3  2  0
  5  4  1  0
  6  1  1  0
  6  5  2  0
  7  5  1  0
  7  9  1  0
  7 10  1  0
  8  7  1  0
 11 12  1  0
 13 12  1  0
 14 19  1  0
 14  1  1  0
 15 16  1  0
 17 16  2  0
 18 23  2  0
 18 17  1  0
 19 18  1  0
 20 21  1  0
 20 19  2  0
 21 22  2  0
 22 23  1  0
 23 15  1  0
  2 24  1  0
 11 25  1  0
 11 26  1  0
 12 27  1  0
 12 28  1  0
 13 29  1  0
 15 30  1  0
 16 31  1  0
 21 32  1  0
M  ISO  8  24  14  25   8  26   8  27   8  28   8  29   3  30   9  31  14
M  ISO  1  32  14
M  END
>  <minimizedAffinity>  (1) 
-6.45767117

>  <minimizedRMSD>  (1) 
0.317543268

$$$$
