
     RDKit          3D

 26 27  0  0  0  0  0  0  0  0999 V2000
   45.9110   34.5090   43.9360 C   0  0  0  0  0  0  0  0  0  0  0  0
   45.8160   33.7600   45.1650 N   0  0  0  0  0  0  0  0  0  0  0  0
   46.4300   32.5870   45.4130 C   0  0  0  0  0  0  0  0  0  0  0  0
   46.2050   32.0380   46.6540 C   0  0  0  0  0  0  0  0  0  0  0  0
   46.8640   30.7470   46.9630 C   0  0  0  0  0  0  0  0  0  0  0  0
   45.4030   32.6330   47.6050 C   0  0  0  0  0  0  0  0  0  0  0  0
   45.2450   32.0790   48.7070 O   0  0  0  0  0  0  0  0  0  0  0  0
   44.8180   33.7990   47.3040 N   0  0  0  0  0  0  0  0  0  0  0  0
   45.0210   34.3620   46.0940 C   0  0  0  0  0  0  0  0  0  0  0  0
   44.4220   35.4530   45.9220 O   0  0  0  0  0  0  0  0  0  0  0  0
   43.0020   34.9050   41.6730 C   0  0  0  0  0  0  0  0  0  0  0  0
   42.7060   33.5790   41.3430 C   0  0  0  0  0  0  0  0  0  0  0  0
   43.5060   32.5720   41.8980 C   0  0  0  0  0  0  0  0  0  0  0  0
   44.5210   32.9090   42.7230 N   0  0  0  0  0  0  0  0  0  0  0  0
   44.7750   34.2260   43.0200 C   0  0  0  0  0  0  0  0  0  0  0  0
   44.0150   35.2010   42.4940 N   0  0  0  0  0  0  0  0  0  0  0  0
   45.9155   35.5828   44.1744 H   0  0  0  0  0  0  0  0  0  0  0  0
   46.8392   34.2095   43.4274 H   0  0  0  0  0  0  0  0  0  0  0  0
   47.0733   32.0971   44.6672 H   0  0  0  0  0  0  0  0  0  0  0  0
   46.9287   30.6202   48.0537 H   0  0  0  0  0  0  0  0  0  0  0  0
   46.2762   29.9230   46.5323 H   0  0  0  0  0  0  0  0  0  0  0  0
   47.8761   30.7396   46.5323 H   0  0  0  0  0  0  0  0  0  0  0  0
   44.2136   34.2660   47.9950 H   0  0  0  0  0  0  0  0  0  0  0  0
   42.3921   35.7172   41.2507 H   0  0  0  0  0  0  0  0  0  0  0  0
   41.8717   33.3344   40.6692 H   0  0  0  0  0  0  0  0  0  0  0  0
   43.3092   31.5154   41.6639 H   0  0  0  0  0  0  0  0  0  0  0  0
  1  2  1  0
  2  3  1  0
  2  9  1  0
  3  4  2  0
  4  5  1  0
  4  6  1  0
  6  7  2  0
  8  6  1  0
  9  8  1  0
 10  9  2  0
 11 16  2  0
 12 11  1  0
 12 13  2  0
 13 14  1  0
 14 15  2  0
 15  1  1  0
 16 15  1  0
  1 17  1  0
  1 18  1  0
  3 19  1  0
  5 20  1  0
  5 21  1  0
  5 22  1  0
  8 23  1  0
 11 24  1  0
 12 25  1  0
 13 26  1  0
M  ISO  8  17   8  18   8  19  14  20   8  21   8  22   8  23   9  24  14
M  ISO  2  25  14  26  14
M  END
>  <minimizedAffinity>  (1) 
-4.90099716

>  <minimizedRMSD>  (1) 
3.64948416

$$$$
