
     RDKit          3D

 24 26  0  0  0  0  0  0  0  0999 V2000
   45.6020   33.1100   46.8980 C   0  0  0  0  0  0  0  0  0  0  0  0
   46.1920   31.8070   46.8430 N   0  0  0  0  0  0  0  0  0  0  0  0
   45.8740   30.7430   46.1010 C   0  0  0  0  0  0  0  0  0  0  0  0
   46.6670   29.6830   46.3290 N   0  0  0  0  0  0  0  0  0  0  0  0
   47.5640   30.0480   47.2720 C   0  0  0  0  0  0  0  0  0  0  0  0
   48.6240   29.4910   47.9530 C   0  0  0  0  0  0  0  0  0  0  0  0
   49.3180   30.1830   48.8620 N   0  0  0  0  0  0  0  0  0  0  0  0
   49.0040   31.4610   49.1460 C   0  0  0  0  0  0  0  0  0  0  0  0
   47.9740   32.0410   48.5010 N   0  0  0  0  0  0  0  0  0  0  0  0
   47.2470   31.3710   47.5730 C   0  0  0  0  0  0  0  0  0  0  0  0
   44.9730   35.4470   44.0820 C   0  0  0  0  0  0  0  0  0  0  0  0
   45.9900   35.0900   43.1950 C   0  0  0  0  0  0  0  0  0  0  0  0
   46.8610   34.0750   43.5590 C   0  0  0  0  0  0  0  0  0  0  0  0
   46.7100   33.4630   44.7510 N   0  0  0  0  0  0  0  0  0  0  0  0
   45.7000   33.8360   45.6040 C   0  0  0  0  0  0  0  0  0  0  0  0
   44.8520   34.8100   45.2680 N   0  0  0  0  0  0  0  0  0  0  0  0
   44.5398   33.0050   47.1637 H   0  0  0  0  0  0  0  0  0  0  0  0
   46.1521   33.6939   47.6506 H   0  0  0  0  0  0  0  0  0  0  0  0
   45.0464   30.7355   45.3764 H   0  0  0  0  0  0  0  0  0  0  0  0
   48.9069   28.4489   47.7432 H   0  0  0  0  0  0  0  0  0  0  0  0
   49.5809   32.0237   49.8947 H   0  0  0  0  0  0  0  0  0  0  0  0
   44.2685   36.2485   43.8152 H   0  0  0  0  0  0  0  0  0  0  0  0
   46.0979   35.6031   42.2280 H   0  0  0  0  0  0  0  0  0  0  0  0
   47.6706   33.7706   42.8794 H   0  0  0  0  0  0  0  0  0  0  0  0
  2  1  1  0
  2 10  1  0
  3  4  2  0
  3  2  1  0
  4  5  1  0
  5 10  2  0
  5  6  1  0
  6  7  2  0
  7  8  1  0
  9  8  2  0
 10  9  1  0
 11 16  2  0
 12 13  2  0
 12 11  1  0
 13 14  1  0
 14 15  2  0
 15  1  1  0
 16 15  1  0
  1 17  1  0
  1 18  1  0
  3 19  1  0
  6 20  1  0
  8 21  1  0
 11 22  1  0
 12 23  1  0
 13 24  1  0
M  ISO  8  17   8  18   8  19  14  20  14  21  14  22  14  23  14  24  14
M  END
>  <minimizedAffinity>  (1) 
-4.3808341

>  <minimizedRMSD>  (1) 
2.544101

$$$$
