
     RDKit          3D

 25 26  0  0  0  0  0  0  0  0999 V2000
   44.5860   35.4110   45.0090 C   0  0  0  0  0  0  0  0  0  0  0  0
   45.1470   35.4720   43.7240 C   0  0  0  0  0  0  0  0  0  0  0  0
   46.1860   34.6080   43.4020 C   0  0  0  0  0  0  0  0  0  0  0  0
   46.6160   33.7410   44.3500 N   0  0  0  0  0  0  0  0  0  0  0  0
   46.0520   33.7060   45.5910 C   0  0  0  0  0  0  0  0  0  0  0  0
   45.0470   34.5350   45.9140 N   0  0  0  0  0  0  0  0  0  0  0  0
   46.6110   32.7100   46.5430 C   0  0  0  0  0  0  0  0  0  0  0  0
   45.5750   32.1740   47.3930 N   0  0  0  0  0  0  0  0  0  0  0  0
   45.3610   30.7620   47.2020 C   0  0  0  0  0  0  0  0  0  0  0  0
   45.3950   30.1060   48.5670 C   0  0  0  0  0  0  0  0  0  0  0  0
   45.0960   31.2990   49.4520 C   0  0  0  0  0  0  0  0  0  0  0  0
   45.9690   32.3480   48.7830 C   0  0  0  0  0  0  0  0  0  0  0  0
   43.7609   36.0876   45.2763 H   0  0  0  0  0  0  0  0  0  0  0  0
   44.7699   36.1927   42.9834 H   0  0  0  0  0  0  0  0  0  0  0  0
   46.6474   34.6273   42.4036 H   0  0  0  0  0  0  0  0  0  0  0  0
   47.0724   31.8885   45.9754 H   0  0  0  0  0  0  0  0  0  0  0  0
   47.3612   33.2088   47.1742 H   0  0  0  0  0  0  0  0  0  0  0  0
   44.3832   30.5914   46.7279 H   0  0  0  0  0  0  0  0  0  0  0  0
   46.1384   30.3378   46.5495 H   0  0  0  0  0  0  0  0  0  0  0  0
   44.6252   29.3261   48.6624 H   0  0  0  0  0  0  0  0  0  0  0  0
   46.3341   29.5838   48.8022 H   0  0  0  0  0  0  0  0  0  0  0  0
   44.0313   31.5737   49.4212 H   0  0  0  0  0  0  0  0  0  0  0  0
   45.2956   31.1438   50.5225 H   0  0  0  0  0  0  0  0  0  0  0  0
   47.0390   32.1401   48.9308 H   0  0  0  0  0  0  0  0  0  0  0  0
   45.8386   33.3686   49.1720 H   0  0  0  0  0  0  0  0  0  0  0  0
  1  6  2  0
  2  1  1  0
  3  2  2  0
  3  4  1  0
  4  5  2  0
  5  6  1  0
  5  7  1  0
  7  8  1  0
  8 12  1  0
  9  8  1  0
  9 10  1  0
 10 11  1  0
 12 11  1  0
  1 13  1  0
  2 14  1  0
  3 15  1  0
  7 16  1  0
  7 17  1  0
  9 18  1  0
  9 19  1  0
 10 20  1  0
 10 21  1  0
 11 22  1  0
 11 23  1  0
 12 24  1  0
 12 25  1  0
M  ISO  8  13  14  14  14  15  14  16   8  17   8  18  13  19  13  20  13
M  ISO  5  21  13  22  13  23  13  24  13  25  13
M  END
>  <minimizedAffinity>  (1) 
-4.30731392

>  <minimizedRMSD>  (1) 
2.0537672

$$$$
