
     RDKit          3D

 20 21  0  0  0  0  0  0  0  0999 V2000
   44.5370   35.5700   45.0240 C   0  0  0  0  0  0  0  0  0  0  0  0
   45.1220   35.6400   43.7580 C   0  0  0  0  0  0  0  0  0  0  0  0
   46.1070   34.6980   43.4140 C   0  0  0  0  0  0  0  0  0  0  0  0
   46.4450   33.7620   44.3280 N   0  0  0  0  0  0  0  0  0  0  0  0
   45.8510   33.7220   45.5610 C   0  0  0  0  0  0  0  0  0  0  0  0
   44.9070   34.6180   45.9000 N   0  0  0  0  0  0  0  0  0  0  0  0
   46.3000   32.6500   46.4890 C   0  0  0  0  0  0  0  0  0  0  0  0
   45.3720   32.7040   47.6900 C   0  0  0  0  0  0  0  0  0  0  0  0
   45.8640   32.2420   49.0190 C   0  0  0  0  0  0  0  0  0  0  0  0
   44.8880   31.4030   48.2860 C   0  0  0  0  0  0  0  0  0  0  0  0
   43.7655   36.3008   45.3082 H   0  0  0  0  0  0  0  0  0  0  0  0
   44.8175   36.4183   43.0428 H   0  0  0  0  0  0  0  0  0  0  0  0
   46.5902   34.7222   42.4261 H   0  0  0  0  0  0  0  0  0  0  0  0
   46.2297   31.6681   45.9981 H   0  0  0  0  0  0  0  0  0  0  0  0
   47.3482   32.7962   46.7889 H   0  0  0  0  0  0  0  0  0  0  0  0
   44.8993   33.6229   47.3128 H   0  0  0  0  0  0  0  0  0  0  0  0
   46.9042   31.9014   49.1289 H   0  0  0  0  0  0  0  0  0  0  0  0
   45.8980   32.6848   50.0254 H   0  0  0  0  0  0  0  0  0  0  0  0
   43.8539   31.3153   48.6506 H   0  0  0  0  0  0  0  0  0  0  0  0
   44.8575   30.3558   47.9506 H   0  0  0  0  0  0  0  0  0  0  0  0
  1  6  2  0
  2  1  1  0
  3  2  2  0
  3  4  1  0
  4  5  2  0
  5  6  1  0
  5  7  1  0
  7  8  1  0
  8 10  1  0
  8  9  1  0
 10  9  1  0
  1 11  1  0
  2 12  1  0
  3 13  1  0
  7 14  1  0
  7 15  1  0
  8 16  1  0
  9 17  1  0
  9 18  1  0
 10 19  1  0
 10 20  1  0
M  ISO  8  11  14  12  14  13  14  14   8  15   8  16  13  17  13  18  13
M  ISO  2  19  13  20  13
M  END
>  <minimizedAffinity>  (1) 
-3.86709285

>  <minimizedRMSD>  (1) 
1.7735244

$$$$
