
     RDKit          3D

 24 25  0  0  0  0  0  0  0  0999 V2000
   46.7190   32.9560   46.3570 C   0  0  0  0  0  0  0  0  0  0  0  0
   46.0750   31.6780   46.4160 N   0  0  0  0  0  0  0  0  0  0  0  0
   46.0140   30.8020   45.3710 C   0  0  0  0  0  0  0  0  0  0  0  0
   45.3640   29.5880   45.5360 C   0  0  0  0  0  0  0  0  0  0  0  0
   44.7670   29.2300   46.7430 C   0  0  0  0  0  0  0  0  0  0  0  0
   44.1450   27.9450   46.7320 N   0  0  0  0  0  0  0  0  0  0  0  0
   44.8270   30.1030   47.7910 N   0  0  0  0  0  0  0  0  0  0  0  0
   45.4790   31.2690   47.5520 C   0  0  0  0  0  0  0  0  0  0  0  0
   45.5170   32.0520   48.5360 O   0  0  0  0  0  0  0  0  0  0  0  0
   44.5060   35.4920   44.8140 C   0  0  0  0  0  0  0  0  0  0  0  0
   45.0410   35.5790   43.5270 C   0  0  0  0  0  0  0  0  0  0  0  0
   46.1430   34.7780   43.2020 C   0  0  0  0  0  0  0  0  0  0  0  0
   46.6500   33.9470   44.1490 N   0  0  0  0  0  0  0  0  0  0  0  0
   46.0960   33.8930   45.3900 C   0  0  0  0  0  0  0  0  0  0  0  0
   45.0370   34.6570   45.7190 N   0  0  0  0  0  0  0  0  0  0  0  0
   46.6790   33.4117   47.3574 H   0  0  0  0  0  0  0  0  0  0  0  0
   47.7504   32.7812   46.0168 H   0  0  0  0  0  0  0  0  0  0  0  0
   46.4765   31.0568   44.4060 H   0  0  0  0  0  0  0  0  0  0  0  0
   45.3184   28.8873   44.6893 H   0  0  0  0  0  0  0  0  0  0  0  0
   43.6767   27.5923   47.5788 H   0  0  0  0  0  0  0  0  0  0  0  0
   44.1646   27.3707   45.8772 H   0  0  0  0  0  0  0  0  0  0  0  0
   43.6411   36.1141   45.0879 H   0  0  0  0  0  0  0  0  0  0  0  0
   44.6057   36.2629   42.7835 H   0  0  0  0  0  0  0  0  0  0  0  0
   46.5898   34.8212   42.1978 H   0  0  0  0  0  0  0  0  0  0  0  0
  1  2  1  0
  2  8  1  0
  3  4  2  0
  3  2  1  0
  4  5  1  0
  5  7  2  0
  6  5  1  0
  8  7  1  0
  8  9  2  0
 10 15  2  0
 11 10  1  0
 12 11  2  0
 12 13  1  0
 13 14  2  0
 14 15  1  0
 14  1  1  0
  1 16  1  0
  1 17  1  0
  3 18  1  0
  4 19  1  0
  6 20  1  0
  6 21  1  0
 10 22  1  0
 11 23  1  0
 12 24  1  0
M  ISO  7  16   8  17   8  18  14  19  14  22  14  23  14  24  14
M  END
>  <minimizedAffinity>  (1) 
-4.2069726

>  <minimizedRMSD>  (1) 
1.03197587

$$$$
