
     RDKit          3D

 40 43  0  0  0  0  0  0  0  0999 V2000
   44.5140   35.4590   44.9740 C   0  0  0  0  0  0  0  0  0  0  0  0
   45.0690   35.5680   43.7090 C   0  0  0  0  0  0  0  0  0  0  0  0
   46.1500   34.7790   43.3490 C   0  0  0  0  0  0  0  0  0  0  0  0
   46.5950   33.9360   44.2990 N   0  0  0  0  0  0  0  0  0  0  0  0
   46.0620   33.8270   45.5290 C   0  0  0  0  0  0  0  0  0  0  0  0
   45.0220   34.5950   45.8480 N   0  0  0  0  0  0  0  0  0  0  0  0
   46.9110   34.7880   42.1230 C   0  0  0  0  0  0  0  0  0  0  0  0
   48.0940   35.5340   42.1310 C   0  0  0  0  0  0  0  0  0  0  0  0
   48.9530   35.6500   41.0620 C   0  0  0  0  0  0  0  0  0  0  0  0
   48.6650   35.0020   39.8840 C   0  0  0  0  0  0  0  0  0  0  0  0
   47.5150   34.2480   39.8130 C   0  0  0  0  0  0  0  0  0  0  0  0
   47.2240   33.5670   38.6680 C   0  0  0  0  0  0  0  0  0  0  0  0
   46.0970   32.7550   38.5440 C   0  0  0  0  0  0  0  0  0  0  0  0
   45.2810   32.6840   39.6760 C   0  0  0  0  0  0  0  0  0  0  0  0
   45.6060   33.3850   40.8110 C   0  0  0  0  0  0  0  0  0  0  0  0
   46.7110   34.1800   40.9170 C   0  0  0  0  0  0  0  0  0  0  0  0
   46.6770   32.8490   46.4670 C   0  0  0  0  0  0  0  0  0  0  0  0
   46.0350   31.5750   46.4660 N   0  0  0  0  0  0  0  0  0  0  0  0
   45.9630   30.7640   45.3870 C   0  0  0  0  0  0  0  0  0  0  0  0
   45.3210   29.5450   45.4760 C   0  0  0  0  0  0  0  0  0  0  0  0
   44.7300   29.1150   46.6740 C   0  0  0  0  0  0  0  0  0  0  0  0
   44.1020   27.8300   46.6160 N   0  0  0  0  0  0  0  0  0  0  0  0
   44.7990   29.9270   47.7670 N   0  0  0  0  0  0  0  0  0  0  0  0
   45.4520   31.1110   47.5880 C   0  0  0  0  0  0  0  0  0  0  0  0
   45.5020   31.8440   48.6120 O   0  0  0  0  0  0  0  0  0  0  0  0
   43.6549   36.0860   45.2547 H   0  0  0  0  0  0  0  0  0  0  0  0
   44.6496   36.2842   42.9871 H   0  0  0  0  0  0  0  0  0  0  0  0
   48.3565   36.0658   43.0575 H   0  0  0  0  0  0  0  0  0  0  0  0
   49.8654   36.2581   41.1496 H   0  0  0  0  0  0  0  0  0  0  0  0
   49.3381   35.0841   39.0178 H   0  0  0  0  0  0  0  0  0  0  0  0
   47.9045   33.6618   37.8090 H   0  0  0  0  0  0  0  0  0  0  0  0
   45.8662   32.2077   37.6181 H   0  0  0  0  0  0  0  0  0  0  0  0
   44.3732   32.0631   39.6578 H   0  0  0  0  0  0  0  0  0  0  0  0
   44.9399   33.3016   41.6824 H   0  0  0  0  0  0  0  0  0  0  0  0
   47.7299   32.7080   46.1814 H   0  0  0  0  0  0  0  0  0  0  0  0
   46.5702   33.2631   47.4804 H   0  0  0  0  0  0  0  0  0  0  0  0
   46.4173   31.0762   44.4351 H   0  0  0  0  0  0  0  0  0  0  0  0
   45.2717   28.8968   44.5887 H   0  0  0  0  0  0  0  0  0  0  0  0
   43.6449   27.4419   47.4535 H   0  0  0  0  0  0  0  0  0  0  0  0
   44.1072   27.2934   45.7368 H   0  0  0  0  0  0  0  0  0  0  0  0
  1  6  2  0
  2  1  1  0
  3  2  2  0
  3  4  1  0
  4  5  2  0
  5  6  1  0
  5 17  1  0
  7  8  2  0
  7  3  1  0
  9  8  1  0
 10  9  2  0
 11 10  1  0
 11 16  2  0
 12 11  1  0
 13 12  2  0
 13 14  1  0
 14 15  2  0
 15 16  1  0
 16  7  1  0
 18 17  1  0
 18 24  1  0
 19 20  2  0
 19 18  1  0
 20 21  1  0
 21 23  2  0
 22 21  1  0
 24 23  1  0
 24 25  2  0
  1 26  1  0
  2 27  1  0
  8 28  1  0
  9 29  1  0
 10 30  1  0
 12 31  1  0
 13 32  1  0
 14 33  1  0
 15 34  1  0
 17 35  1  0
 17 36  1  0
 19 37  1  0
 20 38  1  0
 22 39  1  0
 22 40  1  0
M  ISO  8  26  14  27  14  28  14  29  14  30  14  31  14  32  14  33  14
M  ISO  5  34  14  35   8  36   8  37  14  38  14
M  END
>  <minimizedAffinity>  (1) 
-6.86004114

>  <minimizedRMSD>  (1) 
1.17499542

$$$$
