
     RDKit          3D

 38 41  0  0  0  0  0  0  0  0999 V2000
   44.6160   35.3930   44.5610 C   0  0  0  0  0  0  0  0  0  0  0  0
   45.2980   35.4970   43.3420 C   0  0  0  0  0  0  0  0  0  0  0  0
   46.4430   34.7300   43.1690 C   0  0  0  0  0  0  0  0  0  0  0  0
   46.8640   33.9180   44.1600 N   0  0  0  0  0  0  0  0  0  0  0  0
   46.1680   33.8470   45.3350 C   0  0  0  0  0  0  0  0  0  0  0  0
   45.0610   34.5780   45.5210 N   0  0  0  0  0  0  0  0  0  0  0  0
   47.1800   34.7920   41.9540 N   0  0  0  0  0  0  0  0  0  0  0  0
   48.3520   35.4260   41.7800 C   0  0  0  0  0  0  0  0  0  0  0  0
   48.7980   35.3020   40.5140 N   0  0  0  0  0  0  0  0  0  0  0  0
   47.8990   34.5650   39.8310 C   0  0  0  0  0  0  0  0  0  0  0  0
   47.8210   34.1180   38.5110 C   0  0  0  0  0  0  0  0  0  0  0  0
   48.7250   34.3970   37.6890 O   0  0  0  0  0  0  0  0  0  0  0  0
   46.7550   33.3740   38.1270 N   0  0  0  0  0  0  0  0  0  0  0  0
   45.8070   33.0970   39.0410 C   0  0  0  0  0  0  0  0  0  0  0  0
   44.6940   32.3070   38.5950 N   0  0  0  0  0  0  0  0  0  0  0  0
   45.8670   33.5230   40.3220 N   0  0  0  0  0  0  0  0  0  0  0  0
   46.9030   34.2640   40.7590 C   0  0  0  0  0  0  0  0  0  0  0  0
   46.7130   32.9220   46.3660 C   0  0  0  0  0  0  0  0  0  0  0  0
   46.0600   31.6490   46.3970 N   0  0  0  0  0  0  0  0  0  0  0  0
   45.9860   30.8140   45.3290 C   0  0  0  0  0  0  0  0  0  0  0  0
   45.3320   29.5880   45.4350 C   0  0  0  0  0  0  0  0  0  0  0  0
   44.7410   29.1890   46.6350 C   0  0  0  0  0  0  0  0  0  0  0  0
   44.1120   27.9120   46.5880 N   0  0  0  0  0  0  0  0  0  0  0  0
   44.8100   30.0230   47.7180 N   0  0  0  0  0  0  0  0  0  0  0  0
   45.4660   31.1940   47.5180 C   0  0  0  0  0  0  0  0  0  0  0  0
   45.5160   31.9470   48.5310 O   0  0  0  0  0  0  0  0  0  0  0  0
   43.7060   35.9877   44.7291 H   0  0  0  0  0  0  0  0  0  0  0  0
   44.9379   36.1655   42.5462 H   0  0  0  0  0  0  0  0  0  0  0  0
   48.8811   35.9771   42.5714 H   0  0  0  0  0  0  0  0  0  0  0  0
   46.6727   33.0293   37.1599 H   0  0  0  0  0  0  0  0  0  0  0  0
   43.9386   32.0644   39.2518 H   0  0  0  0  0  0  0  0  0  0  0  0
   44.6510   31.9829   37.6183 H   0  0  0  0  0  0  0  0  0  0  0  0
   47.7809   32.7599   46.1580 H   0  0  0  0  0  0  0  0  0  0  0  0
   46.5441   33.3948   47.3448 H   0  0  0  0  0  0  0  0  0  0  0  0
   46.4454   31.1072   44.3735 H   0  0  0  0  0  0  0  0  0  0  0  0
   45.2807   28.9243   44.5593 H   0  0  0  0  0  0  0  0  0  0  0  0
   43.6491   27.5347   47.4272 H   0  0  0  0  0  0  0  0  0  0  0  0
   44.1200   27.3658   45.7148 H   0  0  0  0  0  0  0  0  0  0  0  0
  1  6  2  0
  2  1  1  0
  3  2  2  0
  3  4  1  0
  4  5  2  0
  5  6  1  0
  5 18  1  0
  7  3  1  0
  8  7  1  0
  9  8  2  0
 10  9  1  0
 10 17  2  0
 11 10  1  0
 12 11  2  0
 13 11  1  0
 13 14  1  0
 14 16  2  0
 15 14  1  0
 16 17  1  0
 17  7  1  0
 18 19  1  0
 19 25  1  0
 20 21  2  0
 20 19  1  0
 21 22  1  0
 22 24  2  0
 23 22  1  0
 25 24  1  0
 25 26  2  0
  1 27  1  0
  2 28  1  0
  8 29  1  0
 13 30  1  0
 15 31  1  0
 15 32  1  0
 18 33  1  0
 18 34  1  0
 20 35  1  0
 21 36  1  0
 23 37  1  0
 23 38  1  0
M  ISO  8  27  14  28  14  29  14  30   9  33   8  34   8  35  14  36  14
M  END
>  <minimizedAffinity>  (1) 
-6.50549841

>  <minimizedRMSD>  (1) 
1.46059453

$$$$
