
     RDKit          3D

 34 36  0  0  0  0  0  0  0  0999 V2000
   44.5170   35.5040   44.9520 C   0  0  0  0  0  0  0  0  0  0  0  0
   44.9910   35.5660   43.6510 C   0  0  0  0  0  0  0  0  0  0  0  0
   46.0320   34.7160   43.2930 C   0  0  0  0  0  0  0  0  0  0  0  0
   46.5400   33.8660   44.2250 N   0  0  0  0  0  0  0  0  0  0  0  0
   46.0490   33.8380   45.4820 C   0  0  0  0  0  0  0  0  0  0  0  0
   45.0400   34.6550   45.8460 N   0  0  0  0  0  0  0  0  0  0  0  0
   46.6540   34.6340   41.9970 N   0  0  0  0  0  0  0  0  0  0  0  0
   47.8730   35.2010   41.9340 C   0  0  0  0  0  0  0  0  0  0  0  0
   48.5950   35.1960   40.7410 C   0  0  0  0  0  0  0  0  0  0  0  0
   47.9540   34.5720   39.6680 C   0  0  0  0  0  0  0  0  0  0  0  0
   48.5500   34.5290   38.5490 O   0  0  0  0  0  0  0  0  0  0  0  0
   46.7340   34.0240   39.7880 N   0  0  0  0  0  0  0  0  0  0  0  0
   46.0710   34.0490   40.9570 C   0  0  0  0  0  0  0  0  0  0  0  0
   44.9420   33.5390   41.0610 O   0  0  0  0  0  0  0  0  0  0  0  0
   46.6680   32.8760   46.4290 C   0  0  0  0  0  0  0  0  0  0  0  0
   46.0310   31.6010   46.4580 N   0  0  0  0  0  0  0  0  0  0  0  0
   45.9680   30.7690   45.3930 C   0  0  0  0  0  0  0  0  0  0  0  0
   45.3330   29.5440   45.4940 C   0  0  0  0  0  0  0  0  0  0  0  0
   44.7430   29.1380   46.6900 C   0  0  0  0  0  0  0  0  0  0  0  0
   44.1200   27.8490   46.6560 N   0  0  0  0  0  0  0  0  0  0  0  0
   44.7980   29.9670   47.7730 N   0  0  0  0  0  0  0  0  0  0  0  0
   45.4420   31.1490   47.5850 C   0  0  0  0  0  0  0  0  0  0  0  0
   45.4840   31.9010   48.5890 O   0  0  0  0  0  0  0  0  0  0  0  0
   43.6934   36.1665   45.2568 H   0  0  0  0  0  0  0  0  0  0  0  0
   44.5566   36.2669   42.9230 H   0  0  0  0  0  0  0  0  0  0  0  0
   48.3030   35.6719   42.8303 H   0  0  0  0  0  0  0  0  0  0  0  0
   49.5934   35.6490   40.6516 H   0  0  0  0  0  0  0  0  0  0  0  0
   46.2982   33.5762   38.9692 H   0  0  0  0  0  0  0  0  0  0  0  0
   47.7189   32.7313   46.1379 H   0  0  0  0  0  0  0  0  0  0  0  0
   46.5634   33.3075   47.4354 H   0  0  0  0  0  0  0  0  0  0  0  0
   46.4255   31.0691   44.4387 H   0  0  0  0  0  0  0  0  0  0  0  0
   45.2931   28.8805   44.6175 H   0  0  0  0  0  0  0  0  0  0  0  0
   43.6614   27.4763   47.4996 H   0  0  0  0  0  0  0  0  0  0  0  0
   44.1305   27.2946   45.7880 H   0  0  0  0  0  0  0  0  0  0  0  0
  1  6  2  0
  2  1  1  0
  3  2  2  0
  3  4  1  0
  4  5  2  0
  5  6  1  0
  5 15  1  0
  7  3  1  0
  8  7  1  0
  9  8  2  0
 10 12  1  0
 10  9  1  0
 11 10  2  0
 12 13  1  0
 13 14  2  0
 13  7  1  0
 15 16  1  0
 16 22  1  0
 17 18  2  0
 17 16  1  0
 18 19  1  0
 19 21  2  0
 20 19  1  0
 22 21  1  0
 22 23  2  0
  1 24  1  0
  2 25  1  0
  8 26  1  0
  9 27  1  0
 12 28  1  0
 15 29  1  0
 15 30  1  0
 17 31  1  0
 18 32  1  0
 20 33  1  0
 20 34  1  0
M  ISO  8  24  14  25  14  26  14  27  14  28   9  29   8  30   8  31  14
M  ISO  1  32  14
M  END
>  <minimizedAffinity>  (1) 
-6.29172993

>  <minimizedRMSD>  (1) 
0.738171458

$$$$
