
     RDKit          3D

 39 41  0  0  0  0  0  0  0  0999 V2000
   46.6800   32.8400   46.5330 C   0  0  0  0  0  0  0  0  0  0  0  0
   46.0440   31.5540   46.5520 N   0  0  0  0  0  0  0  0  0  0  0  0
   45.9820   30.7280   45.4830 C   0  0  0  0  0  0  0  0  0  0  0  0
   45.3460   29.5050   45.5970 C   0  0  0  0  0  0  0  0  0  0  0  0
   44.7560   29.0830   46.7860 C   0  0  0  0  0  0  0  0  0  0  0  0
   44.1450   27.7940   46.7230 N   0  0  0  0  0  0  0  0  0  0  0  0
   44.8150   29.9080   47.8610 N   0  0  0  0  0  0  0  0  0  0  0  0
   45.4550   31.0890   47.6710 C   0  0  0  0  0  0  0  0  0  0  0  0
   45.4980   31.8440   48.6860 O   0  0  0  0  0  0  0  0  0  0  0  0
   44.5340   35.4330   44.9840 C   0  0  0  0  0  0  0  0  0  0  0  0
   45.0770   35.4800   43.6930 C   0  0  0  0  0  0  0  0  0  0  0  0
   46.1510   34.6430   43.3610 C   0  0  0  0  0  0  0  0  0  0  0  0
   46.6080   33.8270   44.3260 N   0  0  0  0  0  0  0  0  0  0  0  0
   46.0700   33.7980   45.5640 C   0  0  0  0  0  0  0  0  0  0  0  0
   45.0420   34.5950   45.8850 N   0  0  0  0  0  0  0  0  0  0  0  0
   46.7410   34.6520   42.0620 N   0  0  0  0  0  0  0  0  0  0  0  0
   46.0620   33.9020   40.9930 C   0  0  0  0  0  0  0  0  0  0  0  0
   46.8620   33.8420   39.7450 C   0  0  0  0  0  0  0  0  0  0  0  0
   48.3440   33.8150   40.0420 C   0  0  0  0  0  0  0  0  0  0  0  0
   48.6670   35.1870   40.6080 C   0  0  0  0  0  0  0  0  0  0  0  0
   47.9870   35.4170   41.9050 C   0  0  0  0  0  0  0  0  0  0  0  0
   46.6125   33.2755   47.5408 H   0  0  0  0  0  0  0  0  0  0  0  0
   47.7202   32.6790   46.2136 H   0  0  0  0  0  0  0  0  0  0  0  0
   46.4355   31.0275   44.5267 H   0  0  0  0  0  0  0  0  0  0  0  0
   45.3048   28.8435   44.7191 H   0  0  0  0  0  0  0  0  0  0  0  0
   43.6841   27.4013   47.5562 H   0  0  0  0  0  0  0  0  0  0  0  0
   44.1652   27.2569   45.8444 H   0  0  0  0  0  0  0  0  0  0  0  0
   43.6907   36.0865   45.2520 H   0  0  0  0  0  0  0  0  0  0  0  0
   44.6623   36.1705   42.9438 H   0  0  0  0  0  0  0  0  0  0  0  0
   45.8782   32.8758   41.3439 H   0  0  0  0  0  0  0  0  0  0  0  0
   45.1221   34.4250   40.7628 H   0  0  0  0  0  0  0  0  0  0  0  0
   46.6357   34.7267   39.1317 H   0  0  0  0  0  0  0  0  0  0  0  0
   46.5990   32.9183   39.2087 H   0  0  0  0  0  0  0  0  0  0  0  0
   48.5748   33.0309   40.7782 H   0  0  0  0  0  0  0  0  0  0  0  0
   48.9375   33.5934   39.1427 H   0  0  0  0  0  0  0  0  0  0  0  0
   49.7542   35.2649   40.7563 H   0  0  0  0  0  0  0  0  0  0  0  0
   48.3121   35.9454   39.8946 H   0  0  0  0  0  0  0  0  0  0  0  0
   48.6751   35.1301   42.7138 H   0  0  0  0  0  0  0  0  0  0  0  0
   47.7173   36.4828   41.9425 H   0  0  0  0  0  0  0  0  0  0  0  0
  1  2  1  0
  2  8  1  0
  3  4  2  0
  3  2  1  0
  4  5  1  0
  5  7  2  0
  6  5  1  0
  8  7  1  0
  8  9  2  0
 10 15  2  0
 11 10  1  0
 12 11  2  0
 12 13  1  0
 13 14  2  0
 14 15  1  0
 14  1  1  0
 16 12  1  0
 17 16  1  0
 18 19  1  0
 18 17  1  0
 19 20  1  0
 20 21  1  0
 21 16  1  0
  1 22  1  0
  1 23  1  0
  3 24  1  0
  4 25  1  0
  6 26  1  0
  6 27  1  0
 10 28  1  0
 11 29  1  0
 17 30  1  0
 17 31  1  0
 18 32  1  0
 18 33  1  0
 19 34  1  0
 19 35  1  0
 20 36  1  0
 20 37  1  0
 21 38  1  0
 21 39  1  0
M  ISO  8  22   8  23   8  24  14  25  14  28  14  29  14  30  13  31  13
M  ISO  8  32  13  33  13  34  13  35  13  36  13  37  13  38  13  39  13
M  END
>  <minimizedAffinity>  (1) 
-5.72184992

>  <minimizedRMSD>  (1) 
0.354271531

$$$$
