
     RDKit          3D

 38 40  0  0  0  0  0  0  0  0999 V2000
   46.5680   32.5990   47.1600 C   0  0  0  0  0  0  0  0  0  0  0  0
   46.0150   31.2890   47.1350 N   0  0  0  0  0  0  0  0  0  0  0  0
   45.9430   30.5190   46.0150 C   0  0  0  0  0  0  0  0  0  0  0  0
   45.3890   29.2500   46.0750 C   0  0  0  0  0  0  0  0  0  0  0  0
   44.8980   28.7290   47.2660 C   0  0  0  0  0  0  0  0  0  0  0  0
   44.3630   27.4120   47.1570 N   0  0  0  0  0  0  0  0  0  0  0  0
   44.9660   29.4970   48.4050 N   0  0  0  0  0  0  0  0  0  0  0  0
   45.5230   30.7190   48.2450 C   0  0  0  0  0  0  0  0  0  0  0  0
   45.5750   31.4090   49.3070 O   0  0  0  0  0  0  0  0  0  0  0  0
   44.7670   34.9700   44.9730 C   0  0  0  0  0  0  0  0  0  0  0  0
   45.5610   34.9510   43.8370 C   0  0  0  0  0  0  0  0  0  0  0  0
   46.6930   34.1440   43.8150 C   0  0  0  0  0  0  0  0  0  0  0  0
   46.9720   33.4080   44.9080 N   0  0  0  0  0  0  0  0  0  0  0  0
   46.1800   33.4460   46.0000 C   0  0  0  0  0  0  0  0  0  0  0  0
   45.0860   34.2230   46.0290 N   0  0  0  0  0  0  0  0  0  0  0  0
   47.6090   34.0110   42.7330 N   0  0  0  0  0  0  0  0  0  0  0  0
   48.6420   32.9820   42.6630 C   0  0  0  0  0  0  0  0  0  0  0  0
   49.8720   33.4210   41.9410 C   0  0  0  0  0  0  0  0  0  0  0  0
   50.0410   34.8400   42.0850 N   0  0  0  0  0  0  0  0  0  0  0  0
   48.9630   35.5980   41.4850 C   0  0  0  0  0  0  0  0  0  0  0  0
   47.6450   34.8670   41.5630 C   0  0  0  0  0  0  0  0  0  0  0  0
   46.2308   33.0985   48.0802 H   0  0  0  0  0  0  0  0  0  0  0  0
   47.6609   32.4821   47.1151 H   0  0  0  0  0  0  0  0  0  0  0  0
   46.3259   30.9052   45.0588 H   0  0  0  0  0  0  0  0  0  0  0  0
   45.3368   28.6419   45.1598 H   0  0  0  0  0  0  0  0  0  0  0  0
   43.9756   26.9431   47.9882 H   0  0  0  0  0  0  0  0  0  0  0  0
   44.3639   26.9294   46.2470 H   0  0  0  0  0  0  0  0  0  0  0  0
   43.8692   35.6049   45.0028 H   0  0  0  0  0  0  0  0  0  0  0  0
   45.2988   35.5666   42.9639 H   0  0  0  0  0  0  0  0  0  0  0  0
   48.9224   32.6999   43.6886 H   0  0  0  0  0  0  0  0  0  0  0  0
   48.2196   32.1376   42.0985 H   0  0  0  0  0  0  0  0  0  0  0  0
   49.7778   33.1710   40.8739 H   0  0  0  0  0  0  0  0  0  0  0  0
   50.7460   32.9063   42.3668 H   0  0  0  0  0  0  0  0  0  0  0  0
   50.0830   35.0661   43.0890 H   0  0  0  0  0  0  0  0  0  0  0  0
   49.2045   35.7827   40.4278 H   0  0  0  0  0  0  0  0  0  0  0  0
   48.8612   36.5416   42.0411 H   0  0  0  0  0  0  0  0  0  0  0  0
   46.8273   35.6001   41.6252 H   0  0  0  0  0  0  0  0  0  0  0  0
   47.5284   34.2454   40.6630 H   0  0  0  0  0  0  0  0  0  0  0  0
  2  1  1  0
  2  8  1  0
  3  4  2  0
  3  2  1  0
  4  5  1  0
  5  7  2  0
  6  5  1  0
  8  7  1  0
  8  9  2  0
 10 15  2  0
 11 10  1  0
 12 11  2  0
 12 13  1  0
 13 14  2  0
 14 15  1  0
 14  1  1  0
 16 12  1  0
 17 16  1  0
 18 19  1  0
 18 17  1  0
 20 21  1  0
 20 19  1  0
 21 16  1  0
  1 22  1  0
  1 23  1  0
  3 24  1  0
  4 25  1  0
  6 26  1  0
  6 27  1  0
 10 28  1  0
 11 29  1  0
 17 30  1  0
 17 31  1  0
 18 32  1  0
 18 33  1  0
 19 34  1  0
 20 35  1  0
 20 36  1  0
 21 37  1  0
 21 38  1  0
M  ISO  8  22   8  23   8  24  14  25  14  28  14  29  14  30  13  31  13
M  ISO  7  32  13  33  13  34   5  35  13  36  13  37  13  38  13
M  END
>  <minimizedAffinity>  (1) 
-5.5695138

>  <minimizedRMSD>  (1) 
1.16662693

$$$$
