
     RDKit          3D

 29 31  0  0  0  0  0  0  0  0999 V2000
   46.6680   32.9140   46.4400 C   0  0  0  0  0  0  0  0  0  0  0  0
   46.0330   31.6380   46.4550 N   0  0  0  0  0  0  0  0  0  0  0  0
   45.9660   30.8210   45.3760 C   0  0  0  0  0  0  0  0  0  0  0  0
   45.3260   29.5870   45.4700 C   0  0  0  0  0  0  0  0  0  0  0  0
   44.7450   29.1690   46.6630 C   0  0  0  0  0  0  0  0  0  0  0  0
   44.1260   27.8870   46.6160 N   0  0  0  0  0  0  0  0  0  0  0  0
   44.8100   29.9880   47.7530 N   0  0  0  0  0  0  0  0  0  0  0  0
   45.4510   31.1680   47.5660 C   0  0  0  0  0  0  0  0  0  0  0  0
   45.5000   31.9120   48.5900 O   0  0  0  0  0  0  0  0  0  0  0  0
   44.5870   35.4320   44.6830 C   0  0  0  0  0  0  0  0  0  0  0  0
   45.2560   35.5180   43.4500 C   0  0  0  0  0  0  0  0  0  0  0  0
   46.3830   34.7280   43.2470 C   0  0  0  0  0  0  0  0  0  0  0  0
   46.7940   33.9120   44.2380 N   0  0  0  0  0  0  0  0  0  0  0  0
   46.1340   33.8470   45.4140 C   0  0  0  0  0  0  0  0  0  0  0  0
   45.0360   34.6040   45.6330 N   0  0  0  0  0  0  0  0  0  0  0  0
   47.1250   34.7640   42.0010 C   0  0  0  0  0  0  0  0  0  0  0  0
   48.2200   35.5120   41.7560 N   0  0  0  0  0  0  0  0  0  0  0  0
   48.6110   35.2860   40.5400 O   0  0  0  0  0  0  0  0  0  0  0  0
   47.8160   34.4170   39.9660 C   0  0  0  0  0  0  0  0  0  0  0  0
   46.8730   34.0840   40.8910 N   0  0  0  0  0  0  0  0  0  0  0  0
   46.5363   33.3767   47.4292 H   0  0  0  0  0  0  0  0  0  0  0  0
   47.7246   32.7388   46.1893 H   0  0  0  0  0  0  0  0  0  0  0  0
   46.4183   31.1330   44.4230 H   0  0  0  0  0  0  0  0  0  0  0  0
   45.2793   28.9328   44.5869 H   0  0  0  0  0  0  0  0  0  0  0  0
   43.6722   27.5031   47.4572 H   0  0  0  0  0  0  0  0  0  0  0  0
   44.1322   27.3439   45.7408 H   0  0  0  0  0  0  0  0  0  0  0  0
   43.6932   36.0462   44.8671 H   0  0  0  0  0  0  0  0  0  0  0  0
   44.8960   36.1958   42.6619 H   0  0  0  0  0  0  0  0  0  0  0  0
   47.8946   34.0318   38.9386 H   0  0  0  0  0  0  0  0  0  0  0  0
  1  2  1  0
  2  8  1  0
  3  4  2  0
  3  2  1  0
  4  5  1  0
  5  7  2  0
  6  5  1  0
  8  7  1  0
  8  9  2  0
 10 15  2  0
 11 10  1  0
 12 11  2  0
 12 13  1  0
 13 14  2  0
 14 15  1  0
 14  1  1  0
 16 12  1  0
 17 16  2  0
 18 17  1  0
 19 18  1  0
 19 20  2  0
 20 16  1  0
  1 21  1  0
  1 22  1  0
  3 23  1  0
  4 24  1  0
  6 25  1  0
  6 26  1  0
 10 27  1  0
 11 28  1  0
 19 29  1  0
M  ISO  7  21   8  22   8  23  14  24  14  27  14  28  14  29  14
M  END
>  <minimizedAffinity>  (1) 
-5.47210026

>  <minimizedRMSD>  (1) 
0.425707102

$$$$
