
     RDKit          3D

 30 32  0  0  0  0  0  0  0  0999 V2000
   46.6100   32.8970   46.5390 C   0  0  0  0  0  0  0  0  0  0  0  0
   45.9880   31.6180   46.5480 N   0  0  0  0  0  0  0  0  0  0  0  0
   45.9240   30.8140   45.4560 C   0  0  0  0  0  0  0  0  0  0  0  0
   45.3060   29.5790   45.5290 C   0  0  0  0  0  0  0  0  0  0  0  0
   44.7400   29.1310   46.7090 C   0  0  0  0  0  0  0  0  0  0  0  0
   44.1330   27.8280   46.6420 N   0  0  0  0  0  0  0  0  0  0  0  0
   44.7970   29.9340   47.8230 N   0  0  0  0  0  0  0  0  0  0  0  0
   45.4170   31.1180   47.6580 C   0  0  0  0  0  0  0  0  0  0  0  0
   45.4580   31.8380   48.6910 O   0  0  0  0  0  0  0  0  0  0  0  0
   44.5690   35.4220   44.7780 C   0  0  0  0  0  0  0  0  0  0  0  0
   45.2280   35.4900   43.5460 C   0  0  0  0  0  0  0  0  0  0  0  0
   46.3480   34.6820   43.3320 C   0  0  0  0  0  0  0  0  0  0  0  0
   46.7170   33.8830   44.3480 N   0  0  0  0  0  0  0  0  0  0  0  0
   46.0740   33.8290   45.5300 C   0  0  0  0  0  0  0  0  0  0  0  0
   45.0030   34.6020   45.7310 N   0  0  0  0  0  0  0  0  0  0  0  0
   47.1010   34.6920   42.0590 C   0  0  0  0  0  0  0  0  0  0  0  0
   46.7300   33.9110   40.9750 C   0  0  0  0  0  0  0  0  0  0  0  0
   47.9970   34.3260   39.7110 S   0  0  0  0  0  0  0  0  0  0  0  0
   48.8410   35.5300   40.9170 C   0  0  0  0  0  0  0  0  0  0  0  0
   48.1640   35.4100   41.8140 N   0  0  0  0  0  0  0  0  0  0  0  0
   46.4765   33.3512   47.5319 H   0  0  0  0  0  0  0  0  0  0  0  0
   47.6664   32.7300   46.2817 H   0  0  0  0  0  0  0  0  0  0  0  0
   46.3670   31.1474   44.5060 H   0  0  0  0  0  0  0  0  0  0  0  0
   45.2638   28.9419   44.6333 H   0  0  0  0  0  0  0  0  0  0  0  0
   43.6896   27.4228   47.4787 H   0  0  0  0  0  0  0  0  0  0  0  0
   44.1420   27.3006   45.7573 H   0  0  0  0  0  0  0  0  0  0  0  0
   43.6854   36.0513   44.9600 H   0  0  0  0  0  0  0  0  0  0  0  0
   44.8702   36.1689   42.7579 H   0  0  0  0  0  0  0  0  0  0  0  0
   45.8837   33.2133   40.8921 H   0  0  0  0  0  0  0  0  0  0  0  0
   49.7315   36.1613   40.7808 H   0  0  0  0  0  0  0  0  0  0  0  0
  1  2  1  0
  2  8  1  0
  3  4  2  0
  3  2  1  0
  4  5  1  0
  5  7  2  0
  6  5  1  0
  8  7  1  0
  8  9  2  0
 10 15  2  0
 11 10  1  0
 12 11  2  0
 12 13  1  0
 13 14  2  0
 14 15  1  0
 14  1  1  0
 16 12  1  0
 17 16  2  0
 18 19  1  0
 18 17  1  0
 19 20  2  0
 20 16  1  0
  1 21  1  0
  1 22  1  0
  3 23  1  0
  4 24  1  0
  6 25  1  0
  6 26  1  0
 10 27  1  0
 11 28  1  0
 17 29  1  0
 19 30  1  0
M  ISO  8  21   8  22   8  23  14  24  14  27  14  28  14  29  14  30  14
M  END
>  <minimizedAffinity>  (1) 
-5.46221638

>  <minimizedRMSD>  (1) 
0.771668136

$$$$
