
     RDKit          3D

 36 37  0  0  0  0  0  0  0  0999 V2000
   46.7140   33.0830   46.1310 C   0  0  0  0  0  0  0  0  0  0  0  0
   46.0920   31.8080   46.2550 N   0  0  0  0  0  0  0  0  0  0  0  0
   46.0360   30.9100   45.2300 C   0  0  0  0  0  0  0  0  0  0  0  0
   45.4120   29.6820   45.4250 C   0  0  0  0  0  0  0  0  0  0  0  0
   44.8330   29.3410   46.6540 C   0  0  0  0  0  0  0  0  0  0  0  0
   44.2370   28.0540   46.6870 N   0  0  0  0  0  0  0  0  0  0  0  0
   44.8930   30.2500   47.6800 N   0  0  0  0  0  0  0  0  0  0  0  0
   45.5180   31.4120   47.4000 C   0  0  0  0  0  0  0  0  0  0  0  0
   45.5560   32.2300   48.3680 O   0  0  0  0  0  0  0  0  0  0  0  0
   44.9260   35.0740   43.5600 C   0  0  0  0  0  0  0  0  0  0  0  0
   45.8820   35.1070   42.5370 C   0  0  0  0  0  0  0  0  0  0  0  0
   47.1010   34.4630   42.7320 C   0  0  0  0  0  0  0  0  0  0  0  0
   47.3200   33.8240   43.9090 N   0  0  0  0  0  0  0  0  0  0  0  0
   46.3720   33.8110   44.8800 C   0  0  0  0  0  0  0  0  0  0  0  0
   45.1930   34.4280   44.7050 N   0  0  0  0  0  0  0  0  0  0  0  0
   48.1800   34.4500   41.6850 C   0  0  0  0  0  0  0  0  0  0  0  0
   49.1970   33.4000   42.0140 C   0  0  0  0  0  0  0  0  0  0  0  0
   48.9050   35.8010   41.7270 C   0  0  0  0  0  0  0  0  0  0  0  0
   47.5800   34.3320   40.3130 C   0  0  0  0  0  0  0  0  0  0  0  0
   46.4042   33.7022   46.9858 H   0  0  0  0  0  0  0  0  0  0  0  0
   47.7989   32.9033   46.1047 H   0  0  0  0  0  0  0  0  0  0  0  0
   46.4817   31.1553   44.2547 H   0  0  0  0  0  0  0  0  0  0  0  0
   45.3724   28.9618   44.5945 H   0  0  0  0  0  0  0  0  0  0  0  0
   43.7863   27.7172   47.5497 H   0  0  0  0  0  0  0  0  0  0  0  0
   44.2550   27.4565   45.8482 H   0  0  0  0  0  0  0  0  0  0  0  0
   43.9573   35.5772   43.4247 H   0  0  0  0  0  0  0  0  0  0  0  0
   45.6731   35.6335   41.5941 H   0  0  0  0  0  0  0  0  0  0  0  0
   49.2874   33.3066   43.1063 H   0  0  0  0  0  0  0  0  0  0  0  0
   48.8800   32.4364   41.5886 H   0  0  0  0  0  0  0  0  0  0  0  0
   50.1702   33.6861   41.5886 H   0  0  0  0  0  0  0  0  0  0  0  0
   49.0649   36.0989   42.7737 H   0  0  0  0  0  0  0  0  0  0  0  0
   49.8764   35.7118   41.2187 H   0  0  0  0  0  0  0  0  0  0  0  0
   48.2936   36.5612   41.2187 H   0  0  0  0  0  0  0  0  0  0  0  0
   46.5041   34.1204   40.4003 H   0  0  0  0  0  0  0  0  0  0  0  0
   47.7250   35.2759   39.7670 H   0  0  0  0  0  0  0  0  0  0  0  0
   48.0716   33.5133   39.7670 H   0  0  0  0  0  0  0  0  0  0  0  0
  1  2  1  0
  2  8  1  0
  3  4  2  0
  3  2  1  0
  4  5  1  0
  5  6  1  0
  5  7  2  0
  8  7  1  0
  8  9  2  0
 10 15  2  0
 11 12  2  0
 11 10  1  0
 12 13  1  0
 13 14  2  0
 14  1  1  0
 15 14  1  0
 16 18  1  0
 16 17  1  0
 16 12  1  0
 19 16  1  0
  1 20  1  0
  1 21  1  0
  3 22  1  0
  4 23  1  0
  6 24  1  0
  6 25  1  0
 10 26  1  0
 11 27  1  0
 17 28  1  0
 17 29  1  0
 17 30  1  0
 18 31  1  0
 18 32  1  0
 18 33  1  0
 19 34  1  0
 19 35  1  0
 19 36  1  0
M  ISO  8  20   8  21   8  22  14  23  14  26  14  27  14  28   8  29   8
M  ISO  7  30   8  31   8  32   8  33   8  34   8  35   8  36   8
M  END
>  <minimizedAffinity>  (1) 
-5.24853134

>  <minimizedRMSD>  (1) 
0.960061848

$$$$
