
     RDKit          3D

 27 28  0  0  0  0  0  0  0  0999 V2000
   46.6720   32.8750   46.4630 C   0  0  0  0  0  0  0  0  0  0  0  0
   46.0350   31.6010   46.4790 N   0  0  0  0  0  0  0  0  0  0  0  0
   45.9600   30.7820   45.4040 C   0  0  0  0  0  0  0  0  0  0  0  0
   45.3170   29.5550   45.5130 C   0  0  0  0  0  0  0  0  0  0  0  0
   44.7360   29.1290   46.7130 C   0  0  0  0  0  0  0  0  0  0  0  0
   44.1230   27.8520   46.6460 N   0  0  0  0  0  0  0  0  0  0  0  0
   44.8130   29.9500   47.7880 N   0  0  0  0  0  0  0  0  0  0  0  0
   45.4560   31.1270   47.5970 C   0  0  0  0  0  0  0  0  0  0  0  0
   45.5060   31.8640   48.6220 O   0  0  0  0  0  0  0  0  0  0  0  0
   44.5910   35.4250   44.7640 C   0  0  0  0  0  0  0  0  0  0  0  0
   45.1980   35.4910   43.5070 C   0  0  0  0  0  0  0  0  0  0  0  0
   46.2960   34.6700   43.2690 C   0  0  0  0  0  0  0  0  0  0  0  0
   46.7340   33.8470   44.2460 N   0  0  0  0  0  0  0  0  0  0  0  0
   46.1140   33.8130   45.4560 C   0  0  0  0  0  0  0  0  0  0  0  0
   45.0560   34.5900   45.7160 N   0  0  0  0  0  0  0  0  0  0  0  0
   46.9940   34.6850   41.9560 C   0  0  0  0  0  0  0  0  0  0  0  0
   46.0210   34.7880   40.9850 F   0  0  0  0  0  0  0  0  0  0  0  0
   47.7810   33.5780   41.7640 F   0  0  0  0  0  0  0  0  0  0  0  0
   47.8130   35.8120   41.9120 F   0  0  0  0  0  0  0  0  0  0  0  0
   46.5623   33.3298   47.4585 H   0  0  0  0  0  0  0  0  0  0  0  0
   47.7240   32.7031   46.1915 H   0  0  0  0  0  0  0  0  0  0  0  0
   46.4070   31.0870   44.4463 H   0  0  0  0  0  0  0  0  0  0  0  0
   45.2631   28.8998   44.6311 H   0  0  0  0  0  0  0  0  0  0  0  0
   43.6687   27.4544   47.4805 H   0  0  0  0  0  0  0  0  0  0  0  0
   44.1321   27.3221   45.7628 H   0  0  0  0  0  0  0  0  0  0  0  0
   43.7215   36.0631   44.9803 H   0  0  0  0  0  0  0  0  0  0  0  0
   44.8195   36.1710   42.7296 H   0  0  0  0  0  0  0  0  0  0  0  0
  1  2  1  0
  2  8  1  0
  3  4  2  0
  3  2  1  0
  4  5  1  0
  5  7  2  0
  6  5  1  0
  8  7  1  0
  8  9  2  0
 10 15  2  0
 11 10  1  0
 12 11  2  0
 12 13  1  0
 13 14  2  0
 14 15  1  0
 14  1  1  0
 16 12  1  0
 17 16  1  0
 18 16  1  0
 19 16  1  0
  1 20  1  0
  1 21  1  0
  3 22  1  0
  4 23  1  0
  6 24  1  0
  6 25  1  0
 10 26  1  0
 11 27  1  0
M  ISO  6  20   8  21   8  22  14  23  14  26  14  27  14
M  END
>  <minimizedAffinity>  (1) 
-5.23120451

>  <minimizedRMSD>  (1) 
0.48937425

$$$$
