
     RDKit          3D

 27 28  0  0  0  0  0  0  0  0999 V2000
   46.7220   32.9600   46.3400 C   0  0  0  0  0  0  0  0  0  0  0  0
   46.0790   31.6830   46.4100 N   0  0  0  0  0  0  0  0  0  0  0  0
   46.0140   30.8050   45.3770 C   0  0  0  0  0  0  0  0  0  0  0  0
   45.3670   29.5880   45.5350 C   0  0  0  0  0  0  0  0  0  0  0  0
   44.7740   29.2310   46.7400 C   0  0  0  0  0  0  0  0  0  0  0  0
   44.1480   27.9450   46.7440 N   0  0  0  0  0  0  0  0  0  0  0  0
   44.8310   30.1080   47.7920 N   0  0  0  0  0  0  0  0  0  0  0  0
   45.4800   31.2640   47.5400 C   0  0  0  0  0  0  0  0  0  0  0  0
   45.5210   32.0570   48.5270 O   0  0  0  0  0  0  0  0  0  0  0  0
   44.4960   35.4910   44.8220 C   0  0  0  0  0  0  0  0  0  0  0  0
   45.0130   35.5780   43.5180 C   0  0  0  0  0  0  0  0  0  0  0  0
   46.1020   34.7720   43.2000 C   0  0  0  0  0  0  0  0  0  0  0  0
   46.6250   33.9450   44.1260 N   0  0  0  0  0  0  0  0  0  0  0  0
   46.0960   33.8900   45.3780 C   0  0  0  0  0  0  0  0  0  0  0  0
   45.0370   34.6620   45.7190 N   0  0  0  0  0  0  0  0  0  0  0  0
   46.6640   34.8370   41.8540 C   0  0  0  0  0  0  0  0  0  0  0  0
   47.8640   35.1820   41.7120 O   0  0  0  0  0  0  0  0  0  0  0  0
   45.8660   34.5180   40.7630 O   0  0  0  0  0  0  0  0  0  0  0  0
   46.6895   33.4200   47.3387 H   0  0  0  0  0  0  0  0  0  0  0  0
   47.7503   32.7826   45.9919 H   0  0  0  0  0  0  0  0  0  0  0  0
   46.4758   31.0592   44.4115 H   0  0  0  0  0  0  0  0  0  0  0  0
   45.3224   28.8893   44.6866 H   0  0  0  0  0  0  0  0  0  0  0  0
   43.6839   27.6008   47.5967 H   0  0  0  0  0  0  0  0  0  0  0  0
   44.1613   27.3631   45.8942 H   0  0  0  0  0  0  0  0  0  0  0  0
   43.6351   36.1133   45.1076 H   0  0  0  0  0  0  0  0  0  0  0  0
   44.5724   36.2591   42.7750 H   0  0  0  0  0  0  0  0  0  0  0  0
   46.2398   34.5597   39.8472 H   0  0  0  0  0  0  0  0  0  0  0  0
  1  2  1  0
  2  8  1  0
  3  4  2  0
  3  2  1  0
  4  5  1  0
  5  6  1  0
  5  7  2  0
  8  7  1  0
  8  9  2  0
 10 15  2  0
 11 10  1  0
 12 11  2  0
 12 13  1  0
 13 14  2  0
 14 15  1  0
 14  1  1  0
 16 12  1  0
 17 16  2  0
 18 16  1  0
  1 19  1  0
  1 20  1  0
  3 21  1  0
  4 22  1  0
  6 23  1  0
  6 24  1  0
 10 25  1  0
 11 26  1  0
 18 27  1  0
M  ISO  7  19   8  20   8  21  14  22  14  25  14  26  14  27   3
M  END
>  <minimizedAffinity>  (1) 
-4.89719582

>  <minimizedRMSD>  (1) 
0.0329007432

$$$$
