
     RDKit          3D

 26 27  0  0  0  0  0  0  0  0999 V2000
   46.6980   32.8770   46.4200 C   0  0  0  0  0  0  0  0  0  0  0  0
   46.0470   31.6050   46.4510 N   0  0  0  0  0  0  0  0  0  0  0  0
   45.9730   30.7750   45.3780 C   0  0  0  0  0  0  0  0  0  0  0  0
   45.3210   29.5540   45.4900 C   0  0  0  0  0  0  0  0  0  0  0  0
   44.7350   29.1510   46.6820 C   0  0  0  0  0  0  0  0  0  0  0  0
   44.1040   27.8650   46.6250 N   0  0  0  0  0  0  0  0  0  0  0  0
   44.8050   29.9810   47.7630 N   0  0  0  0  0  0  0  0  0  0  0  0
   45.4570   31.1490   47.5660 C   0  0  0  0  0  0  0  0  0  0  0  0
   45.5080   31.8950   48.5820 O   0  0  0  0  0  0  0  0  0  0  0  0
   44.5210   35.4640   44.9030 C   0  0  0  0  0  0  0  0  0  0  0  0
   45.0800   35.5730   43.6210 C   0  0  0  0  0  0  0  0  0  0  0  0
   46.1720   34.7690   43.3110 C   0  0  0  0  0  0  0  0  0  0  0  0
   46.6610   33.9170   44.2380 N   0  0  0  0  0  0  0  0  0  0  0  0
   46.0940   33.8400   45.4690 C   0  0  0  0  0  0  0  0  0  0  0  0
   45.0410   34.6010   45.7970 N   0  0  0  0  0  0  0  0  0  0  0  0
   46.7780   34.8560   41.9870 C   0  0  0  0  0  0  0  0  0  0  0  0
   47.9050   35.3970   41.8450 O   0  0  0  0  0  0  0  0  0  0  0  0
   46.6536   33.3130   47.4289 H   0  0  0  0  0  0  0  0  0  0  0  0
   47.7291   32.6987   46.0808 H   0  0  0  0  0  0  0  0  0  0  0  0
   46.4291   31.0698   44.4214 H   0  0  0  0  0  0  0  0  0  0  0  0
   45.2677   28.8909   44.6139 H   0  0  0  0  0  0  0  0  0  0  0  0
   43.6416   27.4807   47.4613 H   0  0  0  0  0  0  0  0  0  0  0  0
   44.1130   27.3253   45.7477 H   0  0  0  0  0  0  0  0  0  0  0  0
   43.6559   36.0848   45.1789 H   0  0  0  0  0  0  0  0  0  0  0  0
   44.6664   36.2746   42.8816 H   0  0  0  0  0  0  0  0  0  0  0  0
   46.2495   34.4485   41.1125 H   0  0  0  0  0  0  0  0  0  0  0  0
  1  2  1  0
  2  8  1  0
  3  4  2  0
  3  2  1  0
  4  5  1  0
  5  7  2  0
  6  5  1  0
  8  7  1  0
  8  9  2  0
 10 15  2  0
 11 10  1  0
 12 11  2  0
 12 13  1  0
 13 14  2  0
 14 15  1  0
 14  1  1  0
 16 12  1  0
 17 16  2  0
  1 18  1  0
  1 19  1  0
  3 20  1  0
  4 21  1  0
  6 22  1  0
  6 23  1  0
 10 24  1  0
 11 25  1  0
 16 26  1  0
M  ISO  7  18   8  19   8  20  14  21  14  24  14  25  14  26   6
M  END
>  <minimizedAffinity>  (1) 
-4.60775995

>  <minimizedRMSD>  (1) 
0.115018405

$$$$
