
     RDKit          3D

 27 28  0  0  0  0  0  0  0  0999 V2000
   46.7120   32.9520   46.3760 C   0  0  0  0  0  0  0  0  0  0  0  0
   46.0680   31.6740   46.4380 N   0  0  0  0  0  0  0  0  0  0  0  0
   46.0140   30.8150   45.3950 C   0  0  0  0  0  0  0  0  0  0  0  0
   45.3740   29.5970   45.5240 C   0  0  0  0  0  0  0  0  0  0  0  0
   44.7710   29.2210   46.7330 C   0  0  0  0  0  0  0  0  0  0  0  0
   44.1450   27.9390   46.7340 N   0  0  0  0  0  0  0  0  0  0  0  0
   44.8230   30.0900   47.7940 N   0  0  0  0  0  0  0  0  0  0  0  0
   45.4690   31.2510   47.5640 C   0  0  0  0  0  0  0  0  0  0  0  0
   45.5080   32.0410   48.5530 O   0  0  0  0  0  0  0  0  0  0  0  0
   44.5070   35.4910   44.8170 C   0  0  0  0  0  0  0  0  0  0  0  0
   45.0550   35.5740   43.5380 C   0  0  0  0  0  0  0  0  0  0  0  0
   46.1580   34.7710   43.2270 C   0  0  0  0  0  0  0  0  0  0  0  0
   46.6580   33.9450   44.1660 N   0  0  0  0  0  0  0  0  0  0  0  0
   46.0890   33.8960   45.4080 C   0  0  0  0  0  0  0  0  0  0  0  0
   45.0320   34.6570   45.7220 N   0  0  0  0  0  0  0  0  0  0  0  0
   46.7890   34.8160   41.8700 C   0  0  0  0  0  0  0  0  0  0  0  0
   46.6746   33.4074   47.3766 H   0  0  0  0  0  0  0  0  0  0  0  0
   47.7411   32.7741   46.0307 H   0  0  0  0  0  0  0  0  0  0  0  0
   46.4825   31.0875   44.4378 H   0  0  0  0  0  0  0  0  0  0  0  0
   45.3370   28.9114   44.6646 H   0  0  0  0  0  0  0  0  0  0  0  0
   43.6807   27.5933   47.5859 H   0  0  0  0  0  0  0  0  0  0  0  0
   44.1574   27.3592   45.8828 H   0  0  0  0  0  0  0  0  0  0  0  0
   43.6399   36.1133   45.0832 H   0  0  0  0  0  0  0  0  0  0  0  0
   44.6290   36.2570   42.7883 H   0  0  0  0  0  0  0  0  0  0  0  0
   47.8811   34.8939   41.9759 H   0  0  0  0  0  0  0  0  0  0  0  0
   46.5386   33.8977   41.3186 H   0  0  0  0  0  0  0  0  0  0  0  0
   46.4108   35.6895   41.3186 H   0  0  0  0  0  0  0  0  0  0  0  0
  1  2  1  0
  2  8  1  0
  3  4  2  0
  3  2  1  0
  4  5  1  0
  5  6  1  0
  5  7  2  0
  8  7  1  0
  8  9  2  0
 10 15  2  0
 11 10  1  0
 12 11  2  0
 12 13  1  0
 13 14  2  0
 14 15  1  0
 14  1  1  0
 16 12  1  0
  1 17  1  0
  1 18  1  0
  3 19  1  0
  4 20  1  0
  6 21  1  0
  6 22  1  0
 10 23  1  0
 11 24  1  0
 16 25  1  0
 16 26  1  0
 16 27  1  0
M  ISO  8  17   8  18   8  19  14  20  14  23  14  24  14  25   8  26   8
M  ISO  1  27   8
M  END
>  <minimizedAffinity>  (1) 
-4.60129499

>  <minimizedRMSD>  (1) 
0.0182780735

$$$$
