
     RDKit          3D

 45 48  0  0  1  0  0  0  0  0999 V2000
   44.7200   33.9920   42.7460 C   0  0  0  0  0  0  0  0  0  0  0  0
   45.7470   34.5190   41.9710 C   0  0  0  0  0  0  0  0  0  0  0  0
   46.9960   34.6280   42.5520 C   0  0  0  0  0  0  0  0  0  0  0  0
   47.2130   34.2360   43.8320 N   0  0  0  0  0  0  0  0  0  0  0  0
   46.1850   33.7270   44.5560 C   0  0  0  0  0  0  0  0  0  0  0  0
   44.9470   33.6080   44.0110 N   0  0  0  0  0  0  0  0  0  0  0  0
   48.1090   35.1750   41.7510 C   0  0  1  0  0  0  0  0  0  0  0  0
   49.5200   35.0660   42.3420 C   0  0  0  0  0  0  0  0  0  0  0  0
   49.1120   34.2670   41.1470 C   0  0  1  0  0  0  0  0  0  0  0  0
   48.9230   32.8510   41.3870 N   0  0  0  0  0  0  0  0  0  0  0  0
   48.6440   32.1030   40.2090 C   0  0  0  0  0  0  0  0  0  0  0  0
   49.8060   31.6820   39.3840 C   0  0  0  0  0  0  0  0  0  0  0  0
   50.8970   31.1550   40.1960 N   0  0  0  0  0  0  0  0  0  0  0  0
   51.2140   32.1380   41.2520 C   0  0  0  0  0  0  0  0  0  0  0  0
   49.9990   32.2250   42.1060 C   0  0  0  0  0  0  0  0  0  0  0  0
   46.4830   33.3120   45.9420 C   0  0  0  0  0  0  0  0  0  0  0  0
   46.0480   31.9950   46.2540 N   0  0  0  0  0  0  0  0  0  0  0  0
   46.1820   30.9300   45.4080 C   0  0  0  0  0  0  0  0  0  0  0  0
   45.7350   29.6620   45.7650 C   0  0  0  0  0  0  0  0  0  0  0  0
   45.1350   29.4450   47.0090 C   0  0  0  0  0  0  0  0  0  0  0  0
   44.7220   28.1010   47.2420 N   0  0  0  0  0  0  0  0  0  0  0  0
   44.9930   30.4970   47.8690 N   0  0  0  0  0  0  0  0  0  0  0  0
   45.4620   31.6820   47.4180 C   0  0  0  0  0  0  0  0  0  0  0  0
   45.3190   32.6470   48.2360 O   0  0  0  0  0  0  0  0  0  0  0  0
   43.7120   33.8890   42.3178 H   0  0  0  0  0  0  0  0  0  0  0  0
   45.5716   34.8377   40.9329 H   0  0  0  0  0  0  0  0  0  0  0  0
   47.4680   35.9767   41.3554 H   0  0  0  0  0  0  0  0  0  0  0  0
   50.2311   35.8985   42.2353 H   0  0  0  0  0  0  0  0  0  0  0  0
   49.9422   34.8396   43.3322 H   0  0  0  0  0  0  0  0  0  0  0  0
   49.5083   34.1409   40.1287 H   0  0  0  0  0  0  0  0  0  0  0  0
   48.1067   31.1928   40.5138 H   0  0  0  0  0  0  0  0  0  0  0  0
   48.0713   32.7875   39.5660 H   0  0  0  0  0  0  0  0  0  0  0  0
   50.1730   32.5517   38.8193 H   0  0  0  0  0  0  0  0  0  0  0  0
   49.4689   30.8802   38.7106 H   0  0  0  0  0  0  0  0  0  0  0  0
   50.6108   30.2638   40.6258 H   0  0  0  0  0  0  0  0  0  0  0  0
   52.0753   31.7976   41.8455 H   0  0  0  0  0  0  0  0  0  0  0  0
   51.4792   33.1169   40.8261 H   0  0  0  0  0  0  0  0  0  0  0  0
   50.2287   32.8186   43.0032 H   0  0  0  0  0  0  0  0  0  0  0  0
   49.6918   31.2085   42.3928 H   0  0  0  0  0  0  0  0  0  0  0  0
   47.5715   33.3622   46.0923 H   0  0  0  0  0  0  0  0  0  0  0  0
   45.9336   33.9959   46.6057 H   0  0  0  0  0  0  0  0  0  0  0  0
   46.6528   31.0785   44.4250 H   0  0  0  0  0  0  0  0  0  0  0  0
   45.8545   28.8235   45.0631 H   0  0  0  0  0  0  0  0  0  0  0  0
   44.2701   27.8481   48.1323 H   0  0  0  0  0  0  0  0  0  0  0  0
   44.8755   27.3826   46.5201 H   0  0  0  0  0  0  0  0  0  0  0  0
  1  6  2  0
  2  3  2  0
  2  1  1  0
  3  4  1  0
  4  5  2  0
  5 16  1  0
  6  5  1  0
  7  8  1  0
  7  3  1  0
  9 10  1  0
  9  7  1  0
  9  8  1  0
 10 15  1  0
 11 10  1  0
 12 13  1  0
 12 11  1  0
 13 14  1  0
 14 15  1  0
 16 17  1  0
 17 23  1  0
 18 19  2  0
 18 17  1  0
 19 20  1  0
 20 21  1  0
 20 22  2  0
 23 22  1  0
 23 24  2  0
  1 25  1  0
  2 26  1  0
  7 27  1  6
  8 28  1  0
  8 29  1  0
  9 30  1  6
 11 31  1  0
 11 32  1  0
 12 33  1  0
 12 34  1  0
 13 35  1  0
 14 36  1  0
 14 37  1  0
 15 38  1  0
 15 39  1  0
 16 40  1  0
 16 41  1  0
 18 42  1  0
 19 43  1  0
 21 44  1  0
 21 45  1  0
M  ISO  8  25  14  26  14  27  13  28  13  29  13  30  13  31  13  32  13
M  ISO  8  33  13  34  13  35   5  36  13  37  13  38  13  39  13  40   8
M  ISO  3  41   8  42  14  43  14
M  END
>  <minimizedAffinity>  (1) 
-5.35791636

>  <minimizedRMSD>  (1) 
2.19541574

$$$$
