
     RDKit          3D

 44 48  0  0  1  0  0  0  0  0999 V2000
   46.7570   32.7530   46.3050 C   0  0  0  0  0  0  0  0  0  0  0  0
   46.0490   31.5050   46.3030 N   0  0  0  0  0  0  0  0  0  0  0  0
   45.8720   30.7200   45.1960 C   0  0  0  0  0  0  0  0  0  0  0  0
   45.1710   29.5260   45.2700 C   0  0  0  0  0  0  0  0  0  0  0  0
   44.6260   29.0880   46.4790 C   0  0  0  0  0  0  0  0  0  0  0  0
   43.9270   27.8440   46.4140 N   0  0  0  0  0  0  0  0  0  0  0  0
   44.7910   29.8560   47.5960 N   0  0  0  0  0  0  0  0  0  0  0  0
   45.4920   31.0040   47.4110 C   0  0  0  0  0  0  0  0  0  0  0  0
   45.6330   31.6990   48.4600 O   0  0  0  0  0  0  0  0  0  0  0  0
   45.0280   28.7630   44.0740 N   0  0  0  0  0  0  0  0  0  0  0  0
   45.7380   27.7620   43.5220 C   0  0  0  0  0  0  0  0  0  0  0  0
   45.1400   27.4030   42.3620 N   0  0  0  0  0  0  0  0  0  0  0  0
   44.0650   28.1800   42.1970 C   0  0  0  0  0  0  0  0  0  0  0  0
   43.1430   28.1880   41.1650 C   0  0  0  0  0  0  0  0  0  0  0  0
   42.1410   29.0600   41.2110 N   0  0  0  0  0  0  0  0  0  0  0  0
   42.0410   29.9220   42.2640 C   0  0  0  0  0  0  0  0  0  0  0  0
   42.9380   29.9110   43.2640 N   0  0  0  0  0  0  0  0  0  0  0  0
   43.9660   29.0550   43.2680 C   0  0  0  0  0  0  0  0  0  0  0  0
   44.6430   35.3820   44.7360 C   0  0  0  0  0  0  0  0  0  0  0  0
   45.2560   35.5110   43.4940 C   0  0  0  0  0  0  0  0  0  0  0  0
   46.3550   34.7220   43.2190 C   0  0  0  0  0  0  0  0  0  0  0  0
   46.8330   33.8350   44.1420 N   0  0  0  0  0  0  0  0  0  0  0  0
   46.2090   33.7350   45.3440 C   0  0  0  0  0  0  0  0  0  0  0  0
   45.1240   34.5010   45.6400 N   0  0  0  0  0  0  0  0  0  0  0  0
   47.0060   34.8180   41.9010 C   0  0  1  0  0  0  0  0  0  0  0  0
   48.3730   35.4820   41.8410 C   0  0  0  0  0  0  0  0  0  0  0  0
   48.1560   34.0040   41.5540 C   0  0  2  0  0  0  0  0  0  0  0  0
   48.3580   33.5350   40.1310 C   0  0  0  0  0  0  0  0  0  0  0  0
   48.0920   34.3500   39.2110 O   0  0  0  0  0  0  0  0  0  0  0  0
   46.7022   33.1845   47.3154 H   0  0  0  0  0  0  0  0  0  0  0  0
   47.7930   32.5417   46.0017 H   0  0  0  0  0  0  0  0  0  0  0  0
   46.2927   31.0415   44.2318 H   0  0  0  0  0  0  0  0  0  0  0  0
   43.4953   27.4509   47.2625 H   0  0  0  0  0  0  0  0  0  0  0  0
   43.8547   27.3401   45.5186 H   0  0  0  0  0  0  0  0  0  0  0  0
   46.6496   27.3119   43.9421 H   0  0  0  0  0  0  0  0  0  0  0  0
   43.2376   27.4864   40.3231 H   0  0  0  0  0  0  0  0  0  0  0  0
   41.2088   30.6407   42.2947 H   0  0  0  0  0  0  0  0  0  0  0  0
   43.7656   35.9981   44.9823 H   0  0  0  0  0  0  0  0  0  0  0  0
   44.8743   36.2245   42.7489 H   0  0  0  0  0  0  0  0  0  0  0  0
   46.0284   34.9663   41.4190 H   0  0  0  0  0  0  0  0  0  0  0  0
   48.6200   36.1785   41.0262 H   0  0  0  0  0  0  0  0  0  0  0  0
   48.9991   36.0760   42.5231 H   0  0  0  0  0  0  0  0  0  0  0  0
   48.5551   33.0589   41.9509 H   0  0  0  0  0  0  0  0  0  0  0  0
   48.7231   32.5213   39.9093 H   0  0  0  0  0  0  0  0  0  0  0  0
  2  1  1  0
  2  8  1  0
  3  4  2  0
  3  2  1  0
  4  5  1  0
  5  7  2  0
  6  5  1  0
  8  7  1  0
  8  9  2  0
 10  4  1  0
 11 10  1  0
 12 11  2  0
 13 12  1  0
 13 18  2  0
 14 15  2  0
 14 13  1  0
 15 16  1  0
 16 17  2  0
 17 18  1  0
 18 10  1  0
 19 24  2  0
 20 19  1  0
 21 20  2  0
 21 22  1  0
 22 23  2  0
 23 24  1  0
 23  1  1  0
 25 21  1  0
 26 25  1  0
 27 26  1  0
 27 25  1  0
 28 27  1  0
 29 28  2  0
  1 30  1  0
  1 31  1  0
  3 32  1  0
  6 33  1  0
  6 34  1  0
 11 35  1  0
 14 36  1  0
 16 37  1  0
 19 38  1  0
 20 39  1  0
 25 40  1  6
 26 41  1  0
 26 42  1  0
 27 43  1  1
 28 44  1  0
M  ISO  8  30   8  31   8  32  14  35  14  36  14  37  14  38  14  39  14
M  ISO  5  40  13  41  13  42  13  43  13  44   6
M  END
>  <minimizedAffinity>  (1) 
-5.43121624

>  <minimizedRMSD>  (1) 
1.95218003

$$$$
