
     RDKit          3D

 49 52  0  0  1  0  0  0  0  0999 V2000
   46.5180   32.6210   47.2380 C   0  0  0  0  0  0  0  0  0  0  0  0
   45.9630   31.2970   47.1980 N   0  0  0  0  0  0  0  0  0  0  0  0
   45.7810   30.5760   46.0380 C   0  0  0  0  0  0  0  0  0  0  0  0
   45.2370   29.3000   46.0960 C   0  0  0  0  0  0  0  0  0  0  0  0
   44.8640   28.7170   47.2910 C   0  0  0  0  0  0  0  0  0  0  0  0
   44.3180   27.3990   47.1820 N   0  0  0  0  0  0  0  0  0  0  0  0
   45.0380   29.4180   48.4490 N   0  0  0  0  0  0  0  0  0  0  0  0
   45.5750   30.6580   48.3110 C   0  0  0  0  0  0  0  0  0  0  0  0
   45.7250   31.2860   49.3940 O   0  0  0  0  0  0  0  0  0  0  0  0
   45.0740   28.5870   44.7900 C   0  0  0  0  0  0  0  0  0  0  0  0
   46.4540   28.5590   44.1800 C   0  0  0  0  0  0  0  0  0  0  0  0
   46.5120   28.0720   42.7750 C   0  0  0  0  0  0  0  0  0  0  0  0
   45.1740   28.0500   42.0820 C   0  0  0  0  0  0  0  0  0  0  0  0
   44.4620   29.3400   42.4790 C   0  0  0  0  0  0  0  0  0  0  0  0
   44.0090   29.1170   43.9180 C   0  0  0  0  0  0  0  0  0  0  0  0
   44.7990   34.9720   44.9130 C   0  0  0  0  0  0  0  0  0  0  0  0
   45.6140   34.8770   43.7870 C   0  0  0  0  0  0  0  0  0  0  0  0
   46.7120   34.0330   43.8500 C   0  0  0  0  0  0  0  0  0  0  0  0
   46.9890   33.3200   44.9690 N   0  0  0  0  0  0  0  0  0  0  0  0
   46.1730   33.4350   46.0500 C   0  0  0  0  0  0  0  0  0  0  0  0
   45.0950   34.2520   46.0130 N   0  0  0  0  0  0  0  0  0  0  0  0
   47.5740   33.8890   42.6600 C   0  0  1  0  0  0  0  0  0  0  0  0
   47.9760   35.1610   41.9300 C   0  0  0  0  0  0  0  0  0  0  0  0
   48.9680   34.2830   42.6770 C   0  0  2  0  0  0  0  0  0  0  0  0
   49.9950   33.5360   41.8610 C   0  0  0  0  0  0  0  0  0  0  0  0
   51.1560   33.4560   42.3380 O   0  0  0  0  0  0  0  0  0  0  0  0
   46.1376   33.1324   48.1345 H   0  0  0  0  0  0  0  0  0  0  0  0
   47.6128   32.5158   47.2551 H   0  0  0  0  0  0  0  0  0  0  0  0
   46.0660   31.0103   45.0684 H   0  0  0  0  0  0  0  0  0  0  0  0
   44.0155   26.8953   48.0280 H   0  0  0  0  0  0  0  0  0  0  0  0
   44.2275   26.9539   46.2576 H   0  0  0  0  0  0  0  0  0  0  0  0
   44.6972   27.5651   44.9437 H   0  0  0  0  0  0  0  0  0  0  0  0
   46.8580   29.5819   44.2033 H   0  0  0  0  0  0  0  0  0  0  0  0
   47.0390   27.8440   44.7771 H   0  0  0  0  0  0  0  0  0  0  0  0
   47.1855   28.7309   42.2073 H   0  0  0  0  0  0  0  0  0  0  0  0
   46.8706   27.0327   42.8112 H   0  0  0  0  0  0  0  0  0  0  0  0
   44.5903   27.1770   42.4094 H   0  0  0  0  0  0  0  0  0  0  0  0
   45.2913   27.9789   40.9906 H   0  0  0  0  0  0  0  0  0  0  0  0
   45.1509   30.1955   42.4192 H   0  0  0  0  0  0  0  0  0  0  0  0
   43.6176   29.5669   41.8115 H   0  0  0  0  0  0  0  0  0  0  0  0
   43.6672   30.0783   44.3293 H   0  0  0  0  0  0  0  0  0  0  0  0
   43.2048   28.3669   43.8936 H   0  0  0  0  0  0  0  0  0  0  0  0
   43.9185   35.6313   44.9042 H   0  0  0  0  0  0  0  0  0  0  0  0
   45.3932   35.4536   42.8766 H   0  0  0  0  0  0  0  0  0  0  0  0
   47.0717   32.9466   42.3961 H   0  0  0  0  0  0  0  0  0  0  0  0
   47.9793   35.1966   40.8306 H   0  0  0  0  0  0  0  0  0  0  0  0
   47.6765   36.2192   41.9516 H   0  0  0  0  0  0  0  0  0  0  0  0
   49.6951   34.4305   43.4892 H   0  0  0  0  0  0  0  0  0  0  0  0
   49.7394   33.0818   40.8923 H   0  0  0  0  0  0  0  0  0  0  0  0
  2  1  1  0
  2  8  1  0
  3  4  2  0
  3  2  1  0
  4  5  1  0
  5  7  2  0
  6  5  1  0
  8  7  1  0
  8  9  2  0
 10  4  1  0
 11 10  1  0
 12 11  1  0
 13 14  1  0
 13 12  1  0
 14 15  1  0
 15 10  1  0
 16 21  2  0
 17 18  2  0
 17 16  1  0
 18 19  1  0
 19 20  2  0
 20  1  1  0
 21 20  1  0
 22 24  1  0
 22 18  1  0
 23 22  1  0
 23 24  1  0
 25 26  2  0
 25 24  1  0
  1 27  1  0
  1 28  1  0
  3 29  1  0
  6 30  1  0
  6 31  1  0
 10 32  1  0
 11 33  1  0
 11 34  1  0
 12 35  1  0
 12 36  1  0
 13 37  1  0
 13 38  1  0
 14 39  1  0
 14 40  1  0
 15 41  1  0
 15 42  1  0
 16 43  1  0
 17 44  1  0
 22 45  1  6
 23 46  1  0
 23 47  1  0
 24 48  1  1
 25 49  1  0
M  ISO  8  27   8  28   8  29  14  32  13  33  13  34  13  35  13  36  13
M  ISO  8  37  13  38  13  39  13  40  13  41  13  42  13  43  14  44  14
M  ISO  5  45  13  46  13  47  13  48  13  49   6
M  END
>  <minimizedAffinity>  (1) 
-5.21956825

>  <minimizedRMSD>  (1) 
1.42519355

$$$$
