
     RDKit          3D

 41 44  0  0  1  0  0  0  0  0999 V2000
   46.4930   32.6110   47.2350 C   0  0  0  0  0  0  0  0  0  0  0  0
   45.9320   31.2930   47.1910 N   0  0  0  0  0  0  0  0  0  0  0  0
   45.6550   30.6190   46.0330 C   0  0  0  0  0  0  0  0  0  0  0  0
   45.1120   29.3370   46.0590 C   0  0  0  0  0  0  0  0  0  0  0  0
   44.8370   28.7040   47.2700 C   0  0  0  0  0  0  0  0  0  0  0  0
   44.2960   27.3930   47.1580 N   0  0  0  0  0  0  0  0  0  0  0  0
   45.1080   29.3640   48.4500 N   0  0  0  0  0  0  0  0  0  0  0  0
   45.6330   30.6050   48.2980 C   0  0  0  0  0  0  0  0  0  0  0  0
   45.8730   31.1900   49.3910 O   0  0  0  0  0  0  0  0  0  0  0  0
   44.8240   28.6580   44.7800 C   0  0  0  0  0  0  0  0  0  0  0  0
   43.8560   29.0600   43.9200 C   0  0  0  0  0  0  0  0  0  0  0  0
   43.6420   28.3640   42.7370 C   0  0  0  0  0  0  0  0  0  0  0  0
   44.4030   27.3050   42.4730 N   0  0  0  0  0  0  0  0  0  0  0  0
   45.3490   26.9290   43.3330 C   0  0  0  0  0  0  0  0  0  0  0  0
   45.5630   27.5860   44.4670 N   0  0  0  0  0  0  0  0  0  0  0  0
   44.8110   34.9800   44.9180 C   0  0  0  0  0  0  0  0  0  0  0  0
   45.6230   34.8880   43.7980 C   0  0  0  0  0  0  0  0  0  0  0  0
   46.7150   34.0340   43.8560 C   0  0  0  0  0  0  0  0  0  0  0  0
   46.9830   33.3100   44.9730 N   0  0  0  0  0  0  0  0  0  0  0  0
   46.1630   33.4270   46.0530 C   0  0  0  0  0  0  0  0  0  0  0  0
   45.0880   34.2630   46.0050 N   0  0  0  0  0  0  0  0  0  0  0  0
   47.5790   33.8870   42.6700 C   0  0  1  0  0  0  0  0  0  0  0  0
   47.9670   35.1590   41.9320 C   0  0  0  0  0  0  0  0  0  0  0  0
   48.9740   34.2910   42.6730 C   0  0  2  0  0  0  0  0  0  0  0  0
   49.9870   33.5390   41.8630 C   0  0  0  0  0  0  0  0  0  0  0  0
   51.1530   33.4420   42.3280 O   0  0  0  0  0  0  0  0  0  0  0  0
   46.1104   33.1231   48.1302 H   0  0  0  0  0  0  0  0  0  0  0  0
   47.5870   32.4979   47.2565 H   0  0  0  0  0  0  0  0  0  0  0  0
   45.8648   31.0979   45.0652 H   0  0  0  0  0  0  0  0  0  0  0  0
   44.0650   26.8569   48.0066 H   0  0  0  0  0  0  0  0  0  0  0  0
   44.1353   26.9799   46.2283 H   0  0  0  0  0  0  0  0  0  0  0  0
   43.2391   29.9387   44.1594 H   0  0  0  0  0  0  0  0  0  0  0  0
   42.8592   28.6820   42.0327 H   0  0  0  0  0  0  0  0  0  0  0  0
   45.9689   26.0514   43.0973 H   0  0  0  0  0  0  0  0  0  0  0  0
   43.9361   35.6467   44.9085 H   0  0  0  0  0  0  0  0  0  0  0  0
   45.4083   35.4736   42.8919 H   0  0  0  0  0  0  0  0  0  0  0  0
   47.0859   32.9364   42.4186 H   0  0  0  0  0  0  0  0  0  0  0  0
   47.9598   35.1906   40.8325 H   0  0  0  0  0  0  0  0  0  0  0  0
   47.6604   36.2152   41.9531 H   0  0  0  0  0  0  0  0  0  0  0  0
   49.7104   34.4540   43.4737 H   0  0  0  0  0  0  0  0  0  0  0  0
   49.7207   33.0876   40.8959 H   0  0  0  0  0  0  0  0  0  0  0  0
  2  1  1  0
  2  8  1  0
  3  4  2  0
  3  2  1  0
  4  5  1  0
  5  7  2  0
  6  5  1  0
  8  7  1  0
  8  9  2  0
 10  4  1  0
 11 10  2  0
 12 11  1  0
 13 12  2  0
 13 14  1  0
 14 15  2  0
 15 10  1  0
 16 21  2  0
 17 18  2  0
 17 16  1  0
 18 19  1  0
 19 20  2  0
 20  1  1  0
 21 20  1  0
 22 24  1  0
 22 18  1  0
 23 22  1  0
 23 24  1  0
 25 26  2  0
 25 24  1  0
  1 27  1  0
  1 28  1  0
  3 29  1  0
  6 30  1  0
  6 31  1  0
 11 32  1  0
 12 33  1  0
 14 34  1  0
 16 35  1  0
 17 36  1  0
 22 37  1  6
 23 38  1  0
 23 39  1  0
 24 40  1  1
 25 41  1  0
M  ISO  8  27   8  28   8  29  14  32  14  33  14  34  14  35  14  36  14
M  ISO  5  37  13  38  13  39  13  40  13  41   6
M  END
>  <minimizedAffinity>  (1) 
-5.2181673

>  <minimizedRMSD>  (1) 
1.17397809

$$$$
