
     RDKit          3D

 40 43  0  0  1  0  0  0  0  0999 V2000
   46.4780   32.6680   47.2230 C   0  0  0  0  0  0  0  0  0  0  0  0
   45.9440   31.3360   47.1860 N   0  0  0  0  0  0  0  0  0  0  0  0
   45.8500   30.5810   46.0390 C   0  0  0  0  0  0  0  0  0  0  0  0
   45.3280   29.3010   46.0980 C   0  0  0  0  0  0  0  0  0  0  0  0
   44.8900   28.7370   47.2750 C   0  0  0  0  0  0  0  0  0  0  0  0
   44.3770   27.4050   47.1650 N   0  0  0  0  0  0  0  0  0  0  0  0
   44.9730   29.4730   48.4310 N   0  0  0  0  0  0  0  0  0  0  0  0
   45.4950   30.7120   48.2770 C   0  0  0  0  0  0  0  0  0  0  0  0
   45.5590   31.3730   49.3610 O   0  0  0  0  0  0  0  0  0  0  0  0
   45.2800   28.6040   44.8330 N   0  0  0  0  0  0  0  0  0  0  0  0
   46.4280   28.0060   44.4440 C   0  0  0  0  0  0  0  0  0  0  0  0
   46.1510   27.4050   43.2160 C   0  0  0  0  0  0  0  0  0  0  0  0
   44.8650   27.6610   42.9200 N   0  0  0  0  0  0  0  0  0  0  0  0
   44.3270   28.3900   43.8970 C   0  0  0  0  0  0  0  0  0  0  0  0
   44.7950   35.0000   44.8830 C   0  0  0  0  0  0  0  0  0  0  0  0
   45.6110   34.8900   43.7630 C   0  0  0  0  0  0  0  0  0  0  0  0
   46.7000   34.0450   43.8240 C   0  0  0  0  0  0  0  0  0  0  0  0
   46.9700   33.3360   44.9540 N   0  0  0  0  0  0  0  0  0  0  0  0
   46.1460   33.4700   46.0310 C   0  0  0  0  0  0  0  0  0  0  0  0
   45.0740   34.2920   45.9950 N   0  0  0  0  0  0  0  0  0  0  0  0
   47.5700   33.8840   42.6460 C   0  0  1  0  0  0  0  0  0  0  0  0
   47.9820   35.1440   41.9030 C   0  0  0  0  0  0  0  0  0  0  0  0
   48.9680   34.2710   42.6670 C   0  0  2  0  0  0  0  0  0  0  0  0
   49.9940   33.5090   41.8650 C   0  0  0  0  0  0  0  0  0  0  0  0
   51.1570   33.4390   42.3400 O   0  0  0  0  0  0  0  0  0  0  0  0
   46.0754   33.1796   48.1096 H   0  0  0  0  0  0  0  0  0  0  0  0
   47.5737   32.5757   47.2550 H   0  0  0  0  0  0  0  0  0  0  0  0
   46.1891   30.9943   45.0776 H   0  0  0  0  0  0  0  0  0  0  0  0
   44.0302   26.9159   48.0025 H   0  0  0  0  0  0  0  0  0  0  0  0
   44.3547   26.9358   46.2484 H   0  0  0  0  0  0  0  0  0  0  0  0
   47.3855   27.9954   44.9854 H   0  0  0  0  0  0  0  0  0  0  0  0
   46.8567   26.8267   42.6015 H   0  0  0  0  0  0  0  0  0  0  0  0
   43.2897   28.7540   43.9357 H   0  0  0  0  0  0  0  0  0  0  0  0
   43.9200   35.6662   44.8615 H   0  0  0  0  0  0  0  0  0  0  0  0
   45.3936   35.4631   42.8496 H   0  0  0  0  0  0  0  0  0  0  0  0
   47.0655   32.9403   42.3914 H   0  0  0  0  0  0  0  0  0  0  0  0
   47.9914   35.1657   40.8033 H   0  0  0  0  0  0  0  0  0  0  0  0
   47.6869   36.2037   41.9099 H   0  0  0  0  0  0  0  0  0  0  0  0
   49.6915   34.4251   43.4811 H   0  0  0  0  0  0  0  0  0  0  0  0
   49.7363   33.0351   40.9063 H   0  0  0  0  0  0  0  0  0  0  0  0
  2  1  1  0
  2  8  1  0
  3  4  2  0
  3  2  1  0
  4  5  1  0
  5  7  2  0
  6  5  1  0
  8  7  1  0
  8  9  2  0
 10  4  1  0
 11 10  1  0
 12 11  2  0
 13 12  1  0
 13 14  2  0
 14 10  1  0
 15 20  2  0
 16 17  2  0
 16 15  1  0
 17 18  1  0
 18 19  2  0
 19  1  1  0
 20 19  1  0
 21 23  1  0
 21 17  1  0
 22 21  1  0
 22 23  1  0
 24 25  2  0
 24 23  1  0
  1 26  1  0
  1 27  1  0
  3 28  1  0
  6 29  1  0
  6 30  1  0
 11 31  1  0
 12 32  1  0
 14 33  1  0
 15 34  1  0
 16 35  1  0
 21 36  1  6
 22 37  1  0
 22 38  1  0
 23 39  1  1
 24 40  1  0
M  ISO  8  26   8  27   8  28  14  31  14  32  14  33  14  34  14  35  14
M  ISO  5  36  13  37  13  38  13  39  13  40   6
M  END
>  <minimizedAffinity>  (1) 
-5.16636753

>  <minimizedRMSD>  (1) 
0.977504194

$$$$
