
     RDKit          3D

 45 48  0  0  1  0  0  0  0  0999 V2000
   46.5030   32.6510   47.2380 C   0  0  0  0  0  0  0  0  0  0  0  0
   45.9590   31.3200   47.1930 N   0  0  0  0  0  0  0  0  0  0  0  0
   45.8430   30.5740   46.0460 C   0  0  0  0  0  0  0  0  0  0  0  0
   45.3090   29.2950   46.0990 C   0  0  0  0  0  0  0  0  0  0  0  0
   44.8820   28.7320   47.2850 C   0  0  0  0  0  0  0  0  0  0  0  0
   44.3590   27.4020   47.1620 N   0  0  0  0  0  0  0  0  0  0  0  0
   44.9900   29.4560   48.4390 N   0  0  0  0  0  0  0  0  0  0  0  0
   45.5220   30.6960   48.2920 C   0  0  0  0  0  0  0  0  0  0  0  0
   45.6100   31.3490   49.3750 O   0  0  0  0  0  0  0  0  0  0  0  0
   45.2460   28.6330   44.8220 N   0  0  0  0  0  0  0  0  0  0  0  0
   44.1430   28.6510   43.8500 C   0  0  0  0  0  0  0  0  0  0  0  0
   44.8880   29.0500   42.5870 C   0  0  0  0  0  0  0  0  0  0  0  0
   46.2590   28.4120   42.7650 C   0  0  0  0  0  0  0  0  0  0  0  0
   46.2160   27.7910   44.1490 C   0  0  0  0  0  0  0  0  0  0  0  0
   44.7960   34.9840   44.8940 C   0  0  0  0  0  0  0  0  0  0  0  0
   45.6140   34.8840   43.7730 C   0  0  0  0  0  0  0  0  0  0  0  0
   46.7080   34.0430   43.8380 C   0  0  0  0  0  0  0  0  0  0  0  0
   46.9860   33.3290   44.9680 N   0  0  0  0  0  0  0  0  0  0  0  0
   46.1620   33.4560   46.0440 C   0  0  0  0  0  0  0  0  0  0  0  0
   45.0780   34.2770   46.0040 N   0  0  0  0  0  0  0  0  0  0  0  0
   47.5810   33.8890   42.6580 C   0  0  1  0  0  0  0  0  0  0  0  0
   47.9760   35.1530   41.9100 C   0  0  0  0  0  0  0  0  0  0  0  0
   48.9750   34.2940   42.6740 C   0  0  2  0  0  0  0  0  0  0  0  0
   49.9960   33.5300   41.8640 C   0  0  0  0  0  0  0  0  0  0  0  0
   51.1580   33.4360   42.3310 O   0  0  0  0  0  0  0  0  0  0  0  0
   46.1081   33.1611   48.1290 H   0  0  0  0  0  0  0  0  0  0  0  0
   47.5986   32.5576   47.2698 H   0  0  0  0  0  0  0  0  0  0  0  0
   46.1741   30.9914   45.0836 H   0  0  0  0  0  0  0  0  0  0  0  0
   44.0170   26.9039   47.9962 H   0  0  0  0  0  0  0  0  0  0  0  0
   44.3255   26.9451   46.2395 H   0  0  0  0  0  0  0  0  0  0  0  0
   43.6753   27.6605   43.7491 H   0  0  0  0  0  0  0  0  0  0  0  0
   43.3089   29.3162   44.1178 H   0  0  0  0  0  0  0  0  0  0  0  0
   44.9709   30.1441   42.5087 H   0  0  0  0  0  0  0  0  0  0  0  0
   44.3794   28.7221   41.6684 H   0  0  0  0  0  0  0  0  0  0  0  0
   46.4311   27.6416   41.9990 H   0  0  0  0  0  0  0  0  0  0  0  0
   47.0753   29.1419   42.6607 H   0  0  0  0  0  0  0  0  0  0  0  0
   45.8784   26.7449   44.1083 H   0  0  0  0  0  0  0  0  0  0  0  0
   47.1946   27.7509   44.6498 H   0  0  0  0  0  0  0  0  0  0  0  0
   43.9157   35.6432   44.8730 H   0  0  0  0  0  0  0  0  0  0  0  0
   45.3957   35.4584   42.8606 H   0  0  0  0  0  0  0  0  0  0  0  0
   47.0886   32.9376   42.4083 H   0  0  0  0  0  0  0  0  0  0  0  0
   47.9823   35.1719   40.8102 H   0  0  0  0  0  0  0  0  0  0  0  0
   47.6680   36.2090   41.9149 H   0  0  0  0  0  0  0  0  0  0  0  0
   49.7004   34.4643   43.4832 H   0  0  0  0  0  0  0  0  0  0  0  0
   49.7311   33.0723   40.8995 H   0  0  0  0  0  0  0  0  0  0  0  0
  2  1  1  0
  2  8  1  0
  3  4  2  0
  3  2  1  0
  4  5  1  0
  5  7  2  0
  6  5  1  0
  8  7  1  0
  8  9  2  0
 10  4  1  0
 11 10  1  0
 12 13  1  0
 12 11  1  0
 13 14  1  0
 14 10  1  0
 15 20  2  0
 16 17  2  0
 16 15  1  0
 17 18  1  0
 18 19  2  0
 19  1  1  0
 20 19  1  0
 21 23  1  0
 21 17  1  0
 22 21  1  0
 22 23  1  0
 24 25  2  0
 24 23  1  0
  1 26  1  0
  1 27  1  0
  3 28  1  0
  6 29  1  0
  6 30  1  0
 11 31  1  0
 11 32  1  0
 12 33  1  0
 12 34  1  0
 13 35  1  0
 13 36  1  0
 14 37  1  0
 14 38  1  0
 15 39  1  0
 16 40  1  0
 21 41  1  6
 22 42  1  0
 22 43  1  0
 23 44  1  1
 24 45  1  0
M  ISO  8  26   8  27   8  28  14  31  13  32  13  33  13  34  13  35  13
M  ISO  8  36  13  37  13  38  13  39  14  40  14  41  13  42  13  43  13
M  ISO  2  44  13  45   6
M  END
>  <minimizedAffinity>  (1) 
-5.15196371

>  <minimizedRMSD>  (1) 
1.10494697

$$$$
