
     RDKit          3D

 42 45  0  0  1  0  0  0  0  0999 V2000
   46.4390   32.8490   47.0220 C   0  0  0  0  0  0  0  0  0  0  0  0
   45.9200   31.5080   47.0200 N   0  0  0  0  0  0  0  0  0  0  0  0
   45.7620   30.7450   45.8920 C   0  0  0  0  0  0  0  0  0  0  0  0
   45.2560   29.4570   45.9800 C   0  0  0  0  0  0  0  0  0  0  0  0
   44.8950   28.8990   47.1980 C   0  0  0  0  0  0  0  0  0  0  0  0
   44.4040   27.5660   47.1240 N   0  0  0  0  0  0  0  0  0  0  0  0
   45.0450   29.6470   48.3450 N   0  0  0  0  0  0  0  0  0  0  0  0
   45.5470   30.8940   48.1530 C   0  0  0  0  0  0  0  0  0  0  0  0
   45.6750   31.5600   49.2160 O   0  0  0  0  0  0  0  0  0  0  0  0
   45.1040   28.6810   44.7540 C   0  0  0  0  0  0  0  0  0  0  0  0
   46.1370   28.2680   43.9510 C   0  0  0  0  0  0  0  0  0  0  0  0
   45.9670   27.5390   42.8040 C   0  0  0  0  0  0  0  0  0  0  0  0
   44.7260   27.1740   42.3880 C   0  0  0  0  0  0  0  0  0  0  0  0
   43.6840   27.5930   43.2020 C   0  0  0  0  0  0  0  0  0  0  0  0
   43.8950   28.3020   44.3110 N   0  0  0  0  0  0  0  0  0  0  0  0
   44.9940   34.9100   44.2780 C   0  0  0  0  0  0  0  0  0  0  0  0
   45.9810   34.7850   43.3070 C   0  0  0  0  0  0  0  0  0  0  0  0
   47.0950   34.0250   43.5990 C   0  0  0  0  0  0  0  0  0  0  0  0
   47.2310   33.4080   44.8040 N   0  0  0  0  0  0  0  0  0  0  0  0
   46.2380   33.5550   45.7300 C   0  0  0  0  0  0  0  0  0  0  0  0
   45.1470   34.2920   45.4630 N   0  0  0  0  0  0  0  0  0  0  0  0
   48.1490   33.8520   42.5800 C   0  0  1  0  0  0  0  0  0  0  0  0
   48.5960   35.0880   41.8200 C   0  0  0  0  0  0  0  0  0  0  0  0
   49.5030   34.3380   42.7820 C   0  0  2  0  0  0  0  0  0  0  0  0
   50.6730   33.5830   42.1890 C   0  0  0  0  0  0  0  0  0  0  0  0
   50.7470   32.3480   42.4130 O   0  0  0  0  0  0  0  0  0  0  0  0
   45.9324   33.4190   47.8147 H   0  0  0  0  0  0  0  0  0  0  0  0
   47.5236   32.7801   47.1923 H   0  0  0  0  0  0  0  0  0  0  0  0
   46.0385   31.1574   44.9104 H   0  0  0  0  0  0  0  0  0  0  0  0
   44.1133   27.0759   47.9820 H   0  0  0  0  0  0  0  0  0  0  0  0
   44.3392   27.0909   46.2124 H   0  0  0  0  0  0  0  0  0  0  0  0
   47.1618   28.5382   44.2457 H   0  0  0  0  0  0  0  0  0  0  0  0
   46.8463   27.2452   42.2120 H   0  0  0  0  0  0  0  0  0  0  0  0
   44.5597   26.5885   41.4718 H   0  0  0  0  0  0  0  0  0  0  0  0
   42.6521   27.3323   42.9240 H   0  0  0  0  0  0  0  0  0  0  0  0
   44.0940   35.5102   44.0787 H   0  0  0  0  0  0  0  0  0  0  0  0
   45.8765   35.2797   42.3301 H   0  0  0  0  0  0  0  0  0  0  0  0
   47.7477   32.8607   42.3225 H   0  0  0  0  0  0  0  0  0  0  0  0
   48.7736   35.0421   40.7354 H   0  0  0  0  0  0  0  0  0  0  0  0
   48.2404   36.1228   41.7069 H   0  0  0  0  0  0  0  0  0  0  0  0
   50.0849   34.5998   43.6780 H   0  0  0  0  0  0  0  0  0  0  0  0
   51.4330   34.0974   41.5825 H   0  0  0  0  0  0  0  0  0  0  0  0
  2  1  1  0
  2  8  1  0
  3  4  2  0
  3  2  1  0
  4  5  1  0
  5  7  2  0
  6  5  1  0
  8  7  1  0
  8  9  2  0
 10  4  1  0
 11 10  2  0
 12 11  1  0
 13 12  2  0
 13 14  1  0
 14 15  2  0
 15 10  1  0
 16 21  2  0
 17 18  2  0
 17 16  1  0
 18 19  1  0
 19 20  2  0
 20  1  1  0
 21 20  1  0
 22 24  1  0
 22 18  1  0
 23 22  1  0
 23 24  1  0
 25 26  2  0
 25 24  1  0
  1 27  1  0
  1 28  1  0
  3 29  1  0
  6 30  1  0
  6 31  1  0
 11 32  1  0
 12 33  1  0
 13 34  1  0
 14 35  1  0
 16 36  1  0
 17 37  1  0
 22 38  1  6
 23 39  1  0
 23 40  1  0
 24 41  1  1
 25 42  1  0
M  ISO  8  27   8  28   8  29  14  32  14  33  14  34  14  35  14  36  14
M  ISO  6  37  14  38  13  39  13  40  13  41  13  42   6
M  END
>  <minimizedAffinity>  (1) 
-5.14307404

>  <minimizedRMSD>  (1) 
0.58519876

$$$$
