
     RDKit          3D

 35 37  0  0  1  0  0  0  0  0999 V2000
   45.0120   34.9320   43.8720 C   0  0  0  0  0  0  0  0  0  0  0  0
   46.0590   34.8350   42.9600 C   0  0  0  0  0  0  0  0  0  0  0  0
   47.1950   34.1370   43.3390 C   0  0  0  0  0  0  0  0  0  0  0  0
   47.2870   33.5650   44.5640 N   0  0  0  0  0  0  0  0  0  0  0  0
   46.2480   33.6770   45.4310 C   0  0  0  0  0  0  0  0  0  0  0  0
   45.1290   34.3540   45.0820 N   0  0  0  0  0  0  0  0  0  0  0  0
   48.3020   33.9960   42.3740 C   0  0  1  0  0  0  0  0  0  0  0  0
   48.9060   35.2750   41.8120 C   0  0  0  0  0  0  0  0  0  0  0  0
   49.6660   34.3310   42.7340 C   0  0  2  0  0  0  0  0  0  0  0  0
   50.8350   33.5740   42.1530 C   0  0  0  0  0  0  0  0  0  0  0  0
   50.9160   32.3510   42.4370 O   0  0  0  0  0  0  0  0  0  0  0  0
   46.4060   33.0180   46.7470 C   0  0  0  0  0  0  0  0  0  0  0  0
   45.9060   31.6740   46.7740 N   0  0  0  0  0  0  0  0  0  0  0  0
   45.8870   30.8380   45.6790 C   0  0  0  0  0  0  0  0  0  0  0  0
   45.3870   29.5510   45.7780 C   0  0  0  0  0  0  0  0  0  0  0  0
   44.8870   29.0660   46.9960 C   0  0  0  0  0  0  0  0  0  0  0  0
   44.4070   27.7160   46.9290 N   0  0  0  0  0  0  0  0  0  0  0  0
   44.8980   29.8810   48.0880 N   0  0  0  0  0  0  0  0  0  0  0  0
   45.4070   31.1200   47.8880 C   0  0  0  0  0  0  0  0  0  0  0  0
   45.4050   31.8500   48.9140 O   0  0  0  0  0  0  0  0  0  0  0  0
   45.4250   28.7900   44.5740 N   0  0  0  0  0  0  0  0  0  0  0  0
   44.0947   35.4776   43.6056 H   0  0  0  0  0  0  0  0  0  0  0  0
   45.9869   35.2996   41.9655 H   0  0  0  0  0  0  0  0  0  0  0  0
   47.8442   33.0862   41.9584 H   0  0  0  0  0  0  0  0  0  0  0  0
   49.1692   35.3470   40.7464 H   0  0  0  0  0  0  0  0  0  0  0  0
   48.6444   36.3434   41.8074 H   0  0  0  0  0  0  0  0  0  0  0  0
   50.1847   34.4189   43.7000 H   0  0  0  0  0  0  0  0  0  0  0  0
   51.5804   34.0676   41.5121 H   0  0  0  0  0  0  0  0  0  0  0  0
   47.4762   32.9972   47.0004 H   0  0  0  0  0  0  0  0  0  0  0  0
   45.8182   33.5981   47.4736 H   0  0  0  0  0  0  0  0  0  0  0  0
   46.2739   31.1977   44.7142 H   0  0  0  0  0  0  0  0  0  0  0  0
   44.0190   27.2650   47.7698 H   0  0  0  0  0  0  0  0  0  0  0  0
   44.4503   27.1975   46.0401 H   0  0  0  0  0  0  0  0  0  0  0  0
   45.0713   27.8227   44.5648 H   0  0  0  0  0  0  0  0  0  0  0  0
   45.8062   29.2072   43.7129 H   0  0  0  0  0  0  0  0  0  0  0  0
  1  6  2  0
  2  3  2  0
  2  1  1  0
  3  4  1  0
  4  5  2  0
  5 12  1  0
  6  5  1  0
  7  9  1  0
  7  3  1  0
  8  7  1  0
  8  9  1  0
 10 11  2  0
 10  9  1  0
 12 13  1  0
 13 19  1  0
 14 15  2  0
 14 13  1  0
 15 16  1  0
 16 18  2  0
 17 16  1  0
 19 18  1  0
 19 20  2  0
 21 15  1  0
  1 22  1  0
  2 23  1  0
  7 24  1  6
  8 25  1  0
  8 26  1  0
  9 27  1  1
 10 28  1  0
 12 29  1  0
 12 30  1  0
 14 31  1  0
 17 32  1  0
 17 33  1  0
 21 34  1  0
 21 35  1  0
M  ISO  8  22  14  23  14  24  13  25  13  26  13  27  13  28   6  29   8
M  ISO  2  30   8  31  14
M  END
>  <minimizedAffinity>  (1) 
-5.13548088

>  <minimizedRMSD>  (1) 
0.379546344

$$$$
