
     RDKit          3D

 41 44  0  0  1  0  0  0  0  0999 V2000
   46.4610   32.8620   47.0350 C   0  0  0  0  0  0  0  0  0  0  0  0
   45.9440   31.5240   47.0510 N   0  0  0  0  0  0  0  0  0  0  0  0
   45.7770   30.7500   45.9240 C   0  0  0  0  0  0  0  0  0  0  0  0
   45.2720   29.4630   46.0170 C   0  0  0  0  0  0  0  0  0  0  0  0
   44.9210   28.9150   47.2430 C   0  0  0  0  0  0  0  0  0  0  0  0
   44.4210   27.5850   47.1990 N   0  0  0  0  0  0  0  0  0  0  0  0
   45.0770   29.6670   48.3860 N   0  0  0  0  0  0  0  0  0  0  0  0
   45.5780   30.9130   48.1840 C   0  0  0  0  0  0  0  0  0  0  0  0
   45.7130   31.5860   49.2430 O   0  0  0  0  0  0  0  0  0  0  0  0
   45.1110   28.6750   44.7970 C   0  0  0  0  0  0  0  0  0  0  0  0
   46.1360   28.2530   44.0020 C   0  0  0  0  0  0  0  0  0  0  0  0
   45.9850   27.5090   42.8500 C   0  0  0  0  0  0  0  0  0  0  0  0
   44.7060   27.1830   42.5010 N   0  0  0  0  0  0  0  0  0  0  0  0
   43.6770   27.5950   43.2810 C   0  0  0  0  0  0  0  0  0  0  0  0
   43.8880   28.3090   44.3760 N   0  0  0  0  0  0  0  0  0  0  0  0
   44.9910   34.8930   44.2790 C   0  0  0  0  0  0  0  0  0  0  0  0
   45.9780   34.7670   43.3090 C   0  0  0  0  0  0  0  0  0  0  0  0
   47.0970   34.0210   43.5950 C   0  0  0  0  0  0  0  0  0  0  0  0
   47.2380   33.4140   44.8110 N   0  0  0  0  0  0  0  0  0  0  0  0
   46.2550   33.5540   45.7420 C   0  0  0  0  0  0  0  0  0  0  0  0
   45.1490   34.2860   45.4710 N   0  0  0  0  0  0  0  0  0  0  0  0
   48.1470   33.8430   42.5800 C   0  0  1  0  0  0  0  0  0  0  0  0
   48.5950   35.0770   41.8130 C   0  0  0  0  0  0  0  0  0  0  0  0
   49.5030   34.3240   42.7790 C   0  0  2  0  0  0  0  0  0  0  0  0
   50.6770   33.5800   42.1900 C   0  0  0  0  0  0  0  0  0  0  0  0
   50.7420   32.3430   42.4080 O   0  0  0  0  0  0  0  0  0  0  0  0
   45.9583   33.4400   47.8244 H   0  0  0  0  0  0  0  0  0  0  0  0
   47.5466   32.7939   47.1988 H   0  0  0  0  0  0  0  0  0  0  0  0
   46.0476   31.1581   44.9390 H   0  0  0  0  0  0  0  0  0  0  0  0
   44.1397   27.1115   48.0694 H   0  0  0  0  0  0  0  0  0  0  0  0
   44.3400   27.0949   46.2967 H   0  0  0  0  0  0  0  0  0  0  0  0
   47.1586   28.5261   44.3016 H   0  0  0  0  0  0  0  0  0  0  0  0
   46.8486   27.1953   42.2452 H   0  0  0  0  0  0  0  0  0  0  0  0
   42.6470   27.3312   42.9990 H   0  0  0  0  0  0  0  0  0  0  0  0
   44.0865   35.4847   44.0747 H   0  0  0  0  0  0  0  0  0  0  0  0
   45.8661   35.2554   42.3297 H   0  0  0  0  0  0  0  0  0  0  0  0
   47.7433   32.8515   42.3270 H   0  0  0  0  0  0  0  0  0  0  0  0
   48.7702   35.0269   40.7282 H   0  0  0  0  0  0  0  0  0  0  0  0
   48.2423   36.1124   41.6966 H   0  0  0  0  0  0  0  0  0  0  0  0
   50.0844   34.5795   43.6772 H   0  0  0  0  0  0  0  0  0  0  0  0
   51.4436   34.0980   41.5950 H   0  0  0  0  0  0  0  0  0  0  0  0
  1  2  1  0
  2  8  1  0
  3  4  2  0
  3  2  1  0
  4  5  1  0
  5  7  2  0
  6  5  1  0
  8  7  1  0
  8  9  2  0
 10  4  1  0
 11 10  2  0
 12 11  1  0
 13 12  2  0
 13 14  1  0
 14 15  2  0
 15 10  1  0
 16 21  2  0
 17 18  2  0
 17 16  1  0
 18 19  1  0
 19 20  2  0
 20  1  1  0
 21 20  1  0
 22 24  1  0
 22 18  1  0
 23 22  1  0
 23 24  1  0
 25 26  2  0
 25 24  1  0
  1 27  1  0
  1 28  1  0
  3 29  1  0
  6 30  1  0
  6 31  1  0
 11 32  1  0
 12 33  1  0
 14 34  1  0
 16 35  1  0
 17 36  1  0
 22 37  1  6
 23 38  1  0
 23 39  1  0
 24 40  1  1
 25 41  1  0
M  ISO  8  27   8  28   8  29  14  32  14  33  14  34  14  35  14  36  14
M  ISO  5  37  13  38  13  39  13  40  13  41   6
M  END
>  <minimizedAffinity>  (1) 
-5.13530493

>  <minimizedRMSD>  (1) 
0.77729243

$$$$
