
     RDKit          3D

 34 36  0  0  1  0  0  0  0  0999 V2000
   45.0140   34.9660   43.9280 C   0  0  0  0  0  0  0  0  0  0  0  0
   46.0540   34.8630   43.0090 C   0  0  0  0  0  0  0  0  0  0  0  0
   47.1790   34.1450   43.3710 C   0  0  0  0  0  0  0  0  0  0  0  0
   47.2720   33.5540   44.5920 N   0  0  0  0  0  0  0  0  0  0  0  0
   46.2330   33.6770   45.4640 C   0  0  0  0  0  0  0  0  0  0  0  0
   45.1280   34.3720   45.1310 N   0  0  0  0  0  0  0  0  0  0  0  0
   48.2810   33.9960   42.4040 C   0  0  1  0  0  0  0  0  0  0  0  0
   48.8610   35.2690   41.8050 C   0  0  0  0  0  0  0  0  0  0  0  0
   49.6480   34.3400   42.7290 C   0  0  2  0  0  0  0  0  0  0  0  0
   50.8140   33.6010   42.1580 C   0  0  0  0  0  0  0  0  0  0  0  0
   50.8730   32.3690   42.4190 O   0  0  0  0  0  0  0  0  0  0  0  0
   46.3780   33.0060   46.7690 C   0  0  0  0  0  0  0  0  0  0  0  0
   45.8860   31.6560   46.7740 N   0  0  0  0  0  0  0  0  0  0  0  0
   45.8960   30.8290   45.6790 C   0  0  0  0  0  0  0  0  0  0  0  0
   45.4050   29.5370   45.7800 C   0  0  0  0  0  0  0  0  0  0  0  0
   44.8950   29.0380   46.9590 C   0  0  0  0  0  0  0  0  0  0  0  0
   44.4280   27.6860   46.8950 N   0  0  0  0  0  0  0  0  0  0  0  0
   44.8740   29.8480   48.0690 N   0  0  0  0  0  0  0  0  0  0  0  0
   45.3750   31.0900   47.8710 C   0  0  0  0  0  0  0  0  0  0  0  0
   45.3410   31.8210   48.9120 O   0  0  0  0  0  0  0  0  0  0  0  0
   45.4670   28.5370   44.2790 S   0  0  0  0  0  0  0  0  0  0  0  0
   44.1042   35.5293   43.6731 H   0  0  0  0  0  0  0  0  0  0  0  0
   45.9830   35.3403   42.0205 H   0  0  0  0  0  0  0  0  0  0  0  0
   47.8259   33.0709   42.0205 H   0  0  0  0  0  0  0  0  0  0  0  0
   49.0994   35.3241   40.7326 H   0  0  0  0  0  0  0  0  0  0  0  0
   48.5929   36.3357   41.7872 H   0  0  0  0  0  0  0  0  0  0  0  0
   50.1839   34.4383   43.6846 H   0  0  0  0  0  0  0  0  0  0  0  0
   51.5772   34.1029   41.5451 H   0  0  0  0  0  0  0  0  0  0  0  0
   47.4450   32.9893   47.0359 H   0  0  0  0  0  0  0  0  0  0  0  0
   45.7769   33.5735   47.4947 H   0  0  0  0  0  0  0  0  0  0  0  0
   46.2942   31.1920   44.7200 H   0  0  0  0  0  0  0  0  0  0  0  0
   44.0318   27.2378   47.7335 H   0  0  0  0  0  0  0  0  0  0  0  0
   44.4882   27.1617   46.0105 H   0  0  0  0  0  0  0  0  0  0  0  0
   45.5492   27.2117   44.6163 H   0  0  0  0  0  0  0  0  0  0  0  0
  1  6  2  0
  2  3  2  0
  2  1  1  0
  3  4  1  0
  4  5  2  0
  5 12  1  0
  6  5  1  0
  7  9  1  0
  7  3  1  0
  8  7  1  0
  8  9  1  0
 10 11  2  0
 10  9  1  0
 12 13  1  0
 13 19  1  0
 14 15  2  0
 14 13  1  0
 15 16  1  0
 16 18  2  0
 17 16  1  0
 19 18  1  0
 19 20  2  0
 21 15  1  0
  1 22  1  0
  2 23  1  0
  7 24  1  6
  8 25  1  0
  8 26  1  0
  9 27  1  1
 10 28  1  0
 12 29  1  0
 12 30  1  0
 14 31  1  0
 17 32  1  0
 17 33  1  0
 21 34  1  0
M  ISO  8  22  14  23  14  24  13  25  13  26  13  27  13  28   6  29   8
M  ISO  3  30   8  31  14  34  11
M  END
>  <minimizedAffinity>  (1) 
-5.1236577

>  <minimizedRMSD>  (1) 
0.389012992

$$$$
