
     RDKit          3D

 34 36  0  0  1  0  0  0  0  0999 V2000
   45.0610   34.8510   43.7190 C   0  0  0  0  0  0  0  0  0  0  0  0
   46.1240   34.7780   42.8250 C   0  0  0  0  0  0  0  0  0  0  0  0
   47.2750   34.1180   43.2270 C   0  0  0  0  0  0  0  0  0  0  0  0
   47.3650   33.5570   44.4590 N   0  0  0  0  0  0  0  0  0  0  0  0
   46.3090   33.6470   45.3100 C   0  0  0  0  0  0  0  0  0  0  0  0
   45.1670   34.2890   44.9410 N   0  0  0  0  0  0  0  0  0  0  0  0
   48.3970   34.0010   42.2790 C   0  0  1  0  0  0  0  0  0  0  0  0
   49.2700   35.2310   42.0740 C   0  0  0  0  0  0  0  0  0  0  0  0
   49.7700   33.9550   42.7330 C   0  0  2  0  0  0  0  0  0  0  0  0
   50.8140   33.1460   42.0040 C   0  0  0  0  0  0  0  0  0  0  0  0
   50.3970   32.3580   41.1160 O   0  0  0  0  0  0  0  0  0  0  0  0
   46.4650   33.0050   46.6320 C   0  0  0  0  0  0  0  0  0  0  0  0
   45.9430   31.6690   46.6800 N   0  0  0  0  0  0  0  0  0  0  0  0
   45.9260   30.8090   45.6040 C   0  0  0  0  0  0  0  0  0  0  0  0
   45.4070   29.5320   45.7300 C   0  0  0  0  0  0  0  0  0  0  0  0
   44.8880   29.0790   46.9480 C   0  0  0  0  0  0  0  0  0  0  0  0
   44.3930   27.7350   46.9100 N   0  0  0  0  0  0  0  0  0  0  0  0
   44.8960   29.9200   48.0240 N   0  0  0  0  0  0  0  0  0  0  0  0
   45.4250   31.1480   47.8020 C   0  0  0  0  0  0  0  0  0  0  0  0
   45.4200   31.9010   48.8110 O   0  0  0  0  0  0  0  0  0  0  0  0
   45.4510   28.7670   44.5670 O   0  0  0  0  0  0  0  0  0  0  0  0
   44.1337   35.3671   43.4297 H   0  0  0  0  0  0  0  0  0  0  0  0
   46.0533   35.2319   41.8255 H   0  0  0  0  0  0  0  0  0  0  0  0
   47.8032   33.3334   41.6373 H   0  0  0  0  0  0  0  0  0  0  0  0
   49.6130   35.5112   41.0671 H   0  0  0  0  0  0  0  0  0  0  0  0
   49.2187   36.2971   42.3399 H   0  0  0  0  0  0  0  0  0  0  0  0
   50.2292   33.6927   43.6975 H   0  0  0  0  0  0  0  0  0  0  0  0
   51.8850   33.2401   42.2368 H   0  0  0  0  0  0  0  0  0  0  0  0
   47.5364   32.9702   46.8789 H   0  0  0  0  0  0  0  0  0  0  0  0
   45.8921   33.6045   47.3547 H   0  0  0  0  0  0  0  0  0  0  0  0
   46.3287   31.1403   44.6354 H   0  0  0  0  0  0  0  0  0  0  0  0
   43.9906   27.3102   47.7577 H   0  0  0  0  0  0  0  0  0  0  0  0
   44.4396   27.1936   46.0350 H   0  0  0  0  0  0  0  0  0  0  0  0
   45.1001   27.8413   44.5699 H   0  0  0  0  0  0  0  0  0  0  0  0
  1  6  2  0
  2  3  2  0
  2  1  1  0
  3  4  1  0
  4  5  2  0
  5 12  1  0
  6  5  1  0
  7  9  1  0
  7  3  1  0
  8  7  1  0
  8  9  1  0
 10  9  1  0
 11 10  2  0
 12 13  1  0
 13 19  1  0
 14 15  2  0
 14 13  1  0
 15 16  1  0
 16 18  2  0
 17 16  1  0
 19 18  1  0
 19 20  2  0
 21 15  1  0
  1 22  1  0
  2 23  1  0
  7 24  1  6
  8 25  1  0
  8 26  1  0
  9 27  1  1
 10 28  1  0
 12 29  1  0
 12 30  1  0
 14 31  1  0
 17 32  1  0
 17 33  1  0
 21 34  1  0
M  ISO  8  22  14  23  14  24  13  25  13  26  13  27  13  28   6  29   8
M  ISO  3  30   8  31  14  34   3
M  END
>  <minimizedAffinity>  (1) 
-5.08493185

>  <minimizedRMSD>  (1) 
0.0238741972

$$$$
