
     RDKit          3D

 39 41  0  0  1  0  0  0  0  0999 V2000
   44.9940   34.9120   44.2830 C   0  0  0  0  0  0  0  0  0  0  0  0
   45.9830   34.8040   43.3070 C   0  0  0  0  0  0  0  0  0  0  0  0
   47.0990   34.0450   43.5920 C   0  0  0  0  0  0  0  0  0  0  0  0
   47.2320   33.4220   44.7850 N   0  0  0  0  0  0  0  0  0  0  0  0
   46.2430   33.5480   45.7210 C   0  0  0  0  0  0  0  0  0  0  0  0
   45.1450   34.2880   45.4560 N   0  0  0  0  0  0  0  0  0  0  0  0
   48.1500   33.8880   42.5730 C   0  0  1  0  0  0  0  0  0  0  0  0
   48.6150   35.1420   41.8470 C   0  0  0  0  0  0  0  0  0  0  0  0
   49.5070   34.3470   42.7920 C   0  0  2  0  0  0  0  0  0  0  0  0
   50.6870   33.6250   42.2020 C   0  0  0  0  0  0  0  0  0  0  0  0
   50.7710   32.3930   42.4380 O   0  0  0  0  0  0  0  0  0  0  0  0
   46.4470   32.8300   47.0070 C   0  0  0  0  0  0  0  0  0  0  0  0
   45.9260   31.4950   47.0000 N   0  0  0  0  0  0  0  0  0  0  0  0
   45.7820   30.7470   45.8770 C   0  0  0  0  0  0  0  0  0  0  0  0
   45.2620   29.4480   45.9330 C   0  0  0  0  0  0  0  0  0  0  0  0
   44.8800   28.8950   47.1530 C   0  0  0  0  0  0  0  0  0  0  0  0
   44.3640   27.5590   47.0690 N   0  0  0  0  0  0  0  0  0  0  0  0
   45.0180   29.6310   48.2940 N   0  0  0  0  0  0  0  0  0  0  0  0
   45.5330   30.8770   48.1190 C   0  0  0  0  0  0  0  0  0  0  0  0
   45.6510   31.5380   49.1860 O   0  0  0  0  0  0  0  0  0  0  0  0
   45.1300   28.6980   44.6510 C   0  0  0  0  0  0  0  0  0  0  0  0
   43.9730   29.1950   43.8110 C   0  0  0  0  0  0  0  0  0  0  0  0
   44.0910   35.5094   44.0888 H   0  0  0  0  0  0  0  0  0  0  0  0
   45.8766   35.3101   42.3361 H   0  0  0  0  0  0  0  0  0  0  0  0
   47.7360   32.9101   42.2860 H   0  0  0  0  0  0  0  0  0  0  0  0
   48.7952   35.1248   40.7620 H   0  0  0  0  0  0  0  0  0  0  0  0
   48.2751   36.1847   41.7620 H   0  0  0  0  0  0  0  0  0  0  0  0
   50.0843   34.5623   43.7032 H   0  0  0  0  0  0  0  0  0  0  0  0
   51.4393   34.1489   41.5941 H   0  0  0  0  0  0  0  0  0  0  0  0
   47.5265   32.7824   47.2128 H   0  0  0  0  0  0  0  0  0  0  0  0
   45.9014   33.3885   47.7819 H   0  0  0  0  0  0  0  0  0  0  0  0
   46.0790   31.1686   44.9054 H   0  0  0  0  0  0  0  0  0  0  0  0
   44.0568   27.0710   47.9224 H   0  0  0  0  0  0  0  0  0  0  0  0
   44.3007   27.0879   46.1553 H   0  0  0  0  0  0  0  0  0  0  0  0
   46.0604   28.8143   44.0758 H   0  0  0  0  0  0  0  0  0  0  0  0
   44.9387   27.6430   44.8966 H   0  0  0  0  0  0  0  0  0  0  0  0
   43.1639   29.5425   44.4703 H   0  0  0  0  0  0  0  0  0  0  0  0
   44.3116   30.0270   43.1761 H   0  0  0  0  0  0  0  0  0  0  0  0
   43.6026   28.3766   43.1761 H   0  0  0  0  0  0  0  0  0  0  0  0
  1  6  2  0
  2  3  2  0
  2  1  1  0
  3  4  1  0
  4  5  2  0
  5 12  1  0
  6  5  1  0
  7  9  1  0
  7  3  1  0
  8  7  1  0
  8  9  1  0
 10 11  2  0
 10  9  1  0
 13 12  1  0
 13 19  1  0
 14 15  2  0
 14 13  1  0
 15 16  1  0
 16 18  2  0
 17 16  1  0
 19 18  1  0
 19 20  2  0
 21 15  1  0
 22 21  1  0
  1 23  1  0
  2 24  1  0
  7 25  1  6
  8 26  1  0
  8 27  1  0
  9 28  1  1
 10 29  1  0
 12 30  1  0
 12 31  1  0
 14 32  1  0
 17 33  1  0
 17 34  1  0
 21 35  1  0
 21 36  1  0
 22 37  1  0
 22 38  1  0
 22 39  1  0
M  ISO  8  23  14  24  14  25  13  26  13  27  13  28  13  29   6  30   8
M  ISO  7  31   8  32  14  35   8  36   8  37   8  38   8  39   8
M  END
>  <minimizedAffinity>  (1) 
-5.05203485

>  <minimizedRMSD>  (1) 
0.558189809

$$$$
