
     RDKit          3D

 30 32  0  0  0  0  0  0  0  0999 V2000
   43.8240   34.0460   40.4750 N   0  0  0  0  0  0  0  0  0  0  0  0
   44.4940   33.4140   39.4940 C   0  0  0  0  0  0  0  0  0  0  0  0
   43.6350   33.4750   38.3740 C   0  0  0  0  0  0  0  0  0  0  0  0
   42.5090   34.1240   38.7180 N   0  0  0  0  0  0  0  0  0  0  0  0
   42.6090   34.4810   40.0110 C   0  0  0  0  0  0  0  0  0  0  0  0
   44.3710   35.6470   42.1470 C   0  0  0  0  0  0  0  0  0  0  0  0
   44.2610   34.2840   41.7960 C   0  0  0  0  0  0  0  0  0  0  0  0
   44.5850   33.2890   42.7420 C   0  0  0  0  0  0  0  0  0  0  0  0
   44.9970   33.7110   43.9760 N   0  0  0  0  0  0  0  0  0  0  0  0
   45.0910   35.0410   44.2860 C   0  0  0  0  0  0  0  0  0  0  0  0
   44.7780   36.0120   43.3690 N   0  0  0  0  0  0  0  0  0  0  0  0
   41.4060   35.1660   40.5330 C   0  0  0  0  0  0  0  0  0  0  0  0
   40.6380   34.2720   41.5070 C   0  0  0  0  0  0  0  0  0  0  0  0
   39.5400   33.6520   40.6650 C   0  0  0  0  0  0  0  0  0  0  0  0
   39.0960   34.8840   39.8640 C   0  0  0  0  0  0  0  0  0  0  0  0
   40.4420   35.3530   39.3610 C   0  0  0  0  0  0  0  0  0  0  0  0
   45.4906   32.9519   39.5514 H   0  0  0  0  0  0  0  0  0  0  0  0
   43.8527   33.0582   37.3796 H   0  0  0  0  0  0  0  0  0  0  0  0
   44.1188   36.4199   41.4060 H   0  0  0  0  0  0  0  0  0  0  0  0
   44.5095   32.2192   42.4976 H   0  0  0  0  0  0  0  0  0  0  0  0
   45.4245   35.3373   45.2915 H   0  0  0  0  0  0  0  0  0  0  0  0
   41.7282   36.0987   41.0191 H   0  0  0  0  0  0  0  0  0  0  0  0
   41.2957   33.4944   41.9227 H   0  0  0  0  0  0  0  0  0  0  0  0
   40.2412   34.8324   42.3664 H   0  0  0  0  0  0  0  0  0  0  0  0
   39.9262   32.8564   40.0109 H   0  0  0  0  0  0  0  0  0  0  0  0
   38.7410   33.1557   41.2354 H   0  0  0  0  0  0  0  0  0  0  0  0
   38.4204   34.6152   39.0386 H   0  0  0  0  0  0  0  0  0  0  0  0
   38.5227   35.6307   40.4330 H   0  0  0  0  0  0  0  0  0  0  0  0
   40.7623   34.7481   38.4999 H   0  0  0  0  0  0  0  0  0  0  0  0
   40.4088   36.3995   39.0239 H   0  0  0  0  0  0  0  0  0  0  0  0
  1  7  1  0
  2  1  1  0
  3  4  1  0
  3  2  2  0
  4  5  2  0
  5  1  1  0
  5 12  1  0
  6 11  2  0
  7  6  1  0
  7  8  2  0
  8  9  1  0
  9 10  2  0
 11 10  1  0
 12 13  1  0
 14 13  1  0
 15 14  1  0
 16 15  1  0
 16 12  1  0
  2 17  1  0
  3 18  1  0
  6 19  1  0
  8 20  1  0
 10 21  1  0
 12 22  1  0
 13 23  1  0
 13 24  1  0
 14 25  1  0
 14 26  1  0
 15 27  1  0
 15 28  1  0
 16 29  1  0
 16 30  1  0
M  ISO  8  17  14  18  14  19  14  20  14  21  14  22  13  23  13  24  13
M  ISO  6  25  13  26  13  27  13  28  13  29  13  30  13
M  END
>  <minimizedAffinity>  (1) 
-4.57288694

>  <minimizedRMSD>  (1) 
1.69316411

$$$$
