
     RDKit          3D

 23 25  0  0  0  0  0  0  0  0999 V2000
   42.7680   32.3500   41.8440 N   0  0  0  0  0  0  0  0  0  0  0  0
   42.6240   31.0940   42.2880 C   0  0  0  0  0  0  0  0  0  0  0  0
   41.2460   30.7970   42.2630 C   0  0  0  0  0  0  0  0  0  0  0  0
   40.6080   31.8840   41.8070 N   0  0  0  0  0  0  0  0  0  0  0  0
   41.5350   32.8320   41.5500 C   0  0  0  0  0  0  0  0  0  0  0  0
   40.9650   34.0370   41.0750 N   0  0  0  0  0  0  0  0  0  0  0  0
   39.7650   34.0520   40.4440 C   0  0  0  0  0  0  0  0  0  0  0  0
   39.4670   35.3010   40.0900 N   0  0  0  0  0  0  0  0  0  0  0  0
   40.4870   36.0930   40.4990 C   0  0  0  0  0  0  0  0  0  0  0  0
   41.3890   35.3110   41.0950 N   0  0  0  0  0  0  0  0  0  0  0  0
   44.5850   32.9980   40.4300 C   0  0  0  0  0  0  0  0  0  0  0  0
   43.9390   33.0950   41.6860 C   0  0  0  0  0  0  0  0  0  0  0  0
   44.5170   33.9270   42.6690 C   0  0  0  0  0  0  0  0  0  0  0  0
   45.6660   34.5980   42.3670 N   0  0  0  0  0  0  0  0  0  0  0  0
   46.2430   34.4660   41.1370 C   0  0  0  0  0  0  0  0  0  0  0  0
   45.7020   33.6660   40.1710 N   0  0  0  0  0  0  0  0  0  0  0  0
   43.4308   30.4200   42.6118 H   0  0  0  0  0  0  0  0  0  0  0  0
   40.7797   29.8469   42.5629 H   0  0  0  0  0  0  0  0  0  0  0  0
   39.1356   33.1701   40.2540 H   0  0  0  0  0  0  0  0  0  0  0  0
   40.5586   37.1824   40.3643 H   0  0  0  0  0  0  0  0  0  0  0  0
   44.1510   32.3541   39.6509 H   0  0  0  0  0  0  0  0  0  0  0  0
   44.0501   34.0324   43.6594 H   0  0  0  0  0  0  0  0  0  0  0  0
   47.1685   35.0187   40.9178 H   0  0  0  0  0  0  0  0  0  0  0  0
  1  2  1  0
  3  2  2  0
  4  3  1  0
  5  4  2  0
  5  1  1  0
  6 10  1  0
  6  5  1  0
  7  6  1  0
  8  7  2  0
  8  9  1  0
  9 10  2  0
 11 12  2  0
 12  1  1  0
 12 13  1  0
 14 13  2  0
 15 14  1  0
 16 11  1  0
 16 15  2  0
  2 17  1  0
  3 18  1  0
  7 19  1  0
  9 20  1  0
 11 21  1  0
 13 22  1  0
 15 23  1  0
M  ISO  7  17  14  18  14  19  14  20  14  21  14  22  14  23  14
M  END
>  <minimizedAffinity>  (1) 
-3.89793229

>  <minimizedRMSD>  (1) 
3.42626333

$$$$
