
     RDKit          3D

 24 26  0  0  0  0  0  0  0  0999 V2000
   43.6150   34.0630   40.5800 N   0  0  0  0  0  0  0  0  0  0  0  0
   44.2570   33.6540   39.4760 C   0  0  0  0  0  0  0  0  0  0  0  0
   43.2860   33.5850   38.4450 C   0  0  0  0  0  0  0  0  0  0  0  0
   42.1080   33.9520   38.9700 N   0  0  0  0  0  0  0  0  0  0  0  0
   42.3010   34.2460   40.2800 C   0  0  0  0  0  0  0  0  0  0  0  0
   44.2830   35.6720   42.2350 C   0  0  0  0  0  0  0  0  0  0  0  0
   44.1440   34.2980   41.8640 C   0  0  0  0  0  0  0  0  0  0  0  0
   44.5280   33.2830   42.7710 C   0  0  0  0  0  0  0  0  0  0  0  0
   45.0220   33.6830   43.9850 N   0  0  0  0  0  0  0  0  0  0  0  0
   45.1380   35.0070   44.3030 C   0  0  0  0  0  0  0  0  0  0  0  0
   44.7660   35.9880   43.4230 N   0  0  0  0  0  0  0  0  0  0  0  0
   41.0580   34.6190   41.0150 C   0  0  0  0  0  0  0  0  0  0  0  0
   39.8620   35.1520   40.3680 C   0  0  0  0  0  0  0  0  0  0  0  0
   40.7540   36.1430   41.0040 C   0  0  0  0  0  0  0  0  0  0  0  0
   45.3278   33.4181   39.3875 H   0  0  0  0  0  0  0  0  0  0  0  0
   43.4666   33.2845   37.4023 H   0  0  0  0  0  0  0  0  0  0  0  0
   43.9880   36.4648   41.5318 H   0  0  0  0  0  0  0  0  0  0  0  0
   44.4341   32.2178   42.5129 H   0  0  0  0  0  0  0  0  0  0  0  0
   45.5389   35.2909   45.2872 H   0  0  0  0  0  0  0  0  0  0  0  0
   41.1947   33.7917   41.7270 H   0  0  0  0  0  0  0  0  0  0  0  0
   38.8752   34.9524   40.8111 H   0  0  0  0  0  0  0  0  0  0  0  0
   39.4448   35.0532   39.3550 H   0  0  0  0  0  0  0  0  0  0  0  0
   41.3563   36.8264   40.3874 H   0  0  0  0  0  0  0  0  0  0  0  0
   40.6469   36.9347   41.7601 H   0  0  0  0  0  0  0  0  0  0  0  0
  1  7  1  0
  2  1  1  0
  3  4  1  0
  3  2  2  0
  4  5  2  0
  5  1  1  0
  5 12  1  0
  6 11  2  0
  7  6  1  0
  7  8  2  0
  8  9  1  0
  9 10  2  0
 11 10  1  0
 13 14  1  0
 13 12  1  0
 14 12  1  0
  2 15  1  0
  3 16  1  0
  6 17  1  0
  8 18  1  0
 10 19  1  0
 12 20  1  0
 13 21  1  0
 13 22  1  0
 14 23  1  0
 14 24  1  0
M  ISO  8  15  14  16  14  17  14  18  14  19  14  20  13  21  13  22  13
M  ISO  2  23  13  24  13
M  END
>  <minimizedAffinity>  (1) 
-3.88770127

>  <minimizedRMSD>  (1) 
1.24153948

$$$$
