
     RDKit          3D

 23 24  0  0  0  0  0  0  0  0999 V2000
   44.5300   34.6300   41.7330 N   0  0  0  0  0  0  0  0  0  0  0  0
   45.5490   34.2270   40.9590 C   0  0  0  0  0  0  0  0  0  0  0  0
   46.7320   34.6360   41.5760 C   0  0  0  0  0  0  0  0  0  0  0  0
   46.4190   35.2650   42.6880 N   0  0  0  0  0  0  0  0  0  0  0  0
   45.0530   35.2790   42.8190 C   0  0  0  0  0  0  0  0  0  0  0  0
   42.6610   33.1880   41.4840 C   0  0  0  0  0  0  0  0  0  0  0  0
   43.1610   34.4920   41.5230 C   0  0  0  0  0  0  0  0  0  0  0  0
   42.2390   35.5540   41.3700 C   0  0  0  0  0  0  0  0  0  0  0  0
   40.9250   35.2370   41.1970 N   0  0  0  0  0  0  0  0  0  0  0  0
   40.5020   33.9610   41.1690 C   0  0  0  0  0  0  0  0  0  0  0  0
   41.3740   32.9190   41.3130 N   0  0  0  0  0  0  0  0  0  0  0  0
   44.5460   35.9110   44.0530 C   0  0  0  0  0  0  0  0  0  0  0  0
   44.8100   35.0590   45.3190 C   0  0  0  0  0  0  0  0  0  0  0  0
   45.4670   33.6750   40.0111 H   0  0  0  0  0  0  0  0  0  0  0  0
   47.7502   34.4624   41.1978 H   0  0  0  0  0  0  0  0  0  0  0  0
   43.3640   32.3500   41.5999 H   0  0  0  0  0  0  0  0  0  0  0  0
   42.5721   36.6022   41.3900 H   0  0  0  0  0  0  0  0  0  0  0  0
   39.4315   33.7516   41.0272 H   0  0  0  0  0  0  0  0  0  0  0  0
   45.0403   36.8858   44.1767 H   0  0  0  0  0  0  0  0  0  0  0  0
   43.4561   36.0151   43.9467 H   0  0  0  0  0  0  0  0  0  0  0  0
   44.6216   35.6671   46.2161 H   0  0  0  0  0  0  0  0  0  0  0  0
   44.1401   34.1865   45.3201 H   0  0  0  0  0  0  0  0  0  0  0  0
   45.8559   34.7182   45.3201 H   0  0  0  0  0  0  0  0  0  0  0  0
  1  5  1  0
  2  3  2  0
  2  1  1  0
  3  4  1  0
  4  5  2  0
  5 12  1  0
  6  7  2  0
  7  1  1  0
  8  7  1  0
  9  8  2  0
 10  9  1  0
 10 11  2  0
 11  6  1  0
 12 13  1  0
  2 14  1  0
  3 15  1  0
  6 16  1  0
  8 17  1  0
 10 18  1  0
 12 19  1  0
 12 20  1  0
 13 21  1  0
 13 22  1  0
 13 23  1  0
M  ISO  8  14  14  15  14  16  14  17  14  18  14  19   8  20   8  21   8
M  ISO  2  22   8  23   8
M  END
>  <minimizedAffinity>  (1) 
-3.8301518

>  <minimizedRMSD>  (1) 
4.15895796

$$$$
