
     RDKit          3D

 29 31  0  0  0  0  0  0  0  0999 V2000
   44.7540   33.7580   40.1120 N   0  0  0  0  0  0  0  0  0  0  0  0
   43.5270   34.2580   40.3030 C   0  0  0  0  0  0  0  0  0  0  0  0
   43.5540   35.1430   41.3510 C   0  0  0  0  0  0  0  0  0  0  0  0
   44.8140   35.1700   41.7910 N   0  0  0  0  0  0  0  0  0  0  0  0
   45.5560   34.3210   41.0320 C   0  0  0  0  0  0  0  0  0  0  0  0
   46.9200   34.2950   41.4250 N   0  0  0  0  0  0  0  0  0  0  0  0
   47.6530   33.9230   42.6290 C   0  0  0  0  0  0  0  0  0  0  0  0
   48.8620   34.8040   42.6980 C   0  0  0  0  0  0  0  0  0  0  0  0
   49.0570   35.3400   41.3060 C   0  0  0  0  0  0  0  0  0  0  0  0
   47.9540   34.7660   40.4790 C   0  0  0  0  0  0  0  0  0  0  0  0
   45.4290   31.5100   39.6730 C   0  0  0  0  0  0  0  0  0  0  0  0
   45.1920   32.8080   39.1830 C   0  0  0  0  0  0  0  0  0  0  0  0
   45.3800   33.0510   37.8080 C   0  0  0  0  0  0  0  0  0  0  0  0
   45.7790   32.0190   37.0240 N   0  0  0  0  0  0  0  0  0  0  0  0
   45.9940   30.7760   37.5490 C   0  0  0  0  0  0  0  0  0  0  0  0
   45.8180   30.5300   38.8730 N   0  0  0  0  0  0  0  0  0  0  0  0
   42.6360   33.9996   39.7119 H   0  0  0  0  0  0  0  0  0  0  0  0
   42.7048   35.7171   41.7500 H   0  0  0  0  0  0  0  0  0  0  0  0
   47.0227   34.0770   43.5172 H   0  0  0  0  0  0  0  0  0  0  0  0
   47.9426   32.8622   42.5991 H   0  0  0  0  0  0  0  0  0  0  0  0
   48.6953   35.6288   43.4064 H   0  0  0  0  0  0  0  0  0  0  0  0
   49.7468   34.2515   43.0473 H   0  0  0  0  0  0  0  0  0  0  0  0
   48.9991   36.4385   41.3090 H   0  0  0  0  0  0  0  0  0  0  0  0
   50.0434   35.0637   40.9051 H   0  0  0  0  0  0  0  0  0  0  0  0
   47.5374   35.5367   39.8138 H   0  0  0  0  0  0  0  0  0  0  0  0
   48.3185   33.9430   39.8466 H   0  0  0  0  0  0  0  0  0  0  0  0
   45.2878   31.3055   40.7446 H   0  0  0  0  0  0  0  0  0  0  0  0
   45.2078   34.0505   37.3821 H   0  0  0  0  0  0  0  0  0  0  0  0
   46.3158   29.9589   36.8866 H   0  0  0  0  0  0  0  0  0  0  0  0
  1  2  1  0
  1  5  1  0
  2  3  2  0
  3  4  1  0
  5  6  1  0
  5  4  2  0
  6  7  1  0
  7  8  1  0
  9  8  1  0
 10  9  1  0
 10  6  1  0
 12 11  2  0
 12  1  1  0
 13 12  1  0
 14 15  1  0
 14 13  2  0
 15 16  2  0
 16 11  1  0
  2 17  1  0
  3 18  1  0
  7 19  1  0
  7 20  1  0
  8 21  1  0
  8 22  1  0
  9 23  1  0
  9 24  1  0
 10 25  1  0
 10 26  1  0
 11 27  1  0
 13 28  1  0
 15 29  1  0
M  ISO  8  17  14  18  14  19  13  20  13  21  13  22  13  23  13  24  13
M  ISO  5  25  13  26  13  27  14  28  14  29  14
M  END
>  <minimizedAffinity>  (1) 
-3.74198866

>  <minimizedRMSD>  (1) 
5.94715357

$$$$
