
     RDKit          3D

 24 26  0  0  0  0  0  0  0  0999 V2000
   42.6220   32.7010   40.5310 N   0  0  0  0  0  0  0  0  0  0  0  0
   42.5570   32.6910   39.1920 C   0  0  0  0  0  0  0  0  0  0  0  0
   43.4960   33.6350   38.7310 C   0  0  0  0  0  0  0  0  0  0  0  0
   44.0880   34.1760   39.8050 N   0  0  0  0  0  0  0  0  0  0  0  0
   43.5620   33.6140   40.9070 C   0  0  0  0  0  0  0  0  0  0  0  0
   42.5530   30.8370   42.0200 C   0  0  0  0  0  0  0  0  0  0  0  0
   41.8870   31.9370   41.4480 C   0  0  0  0  0  0  0  0  0  0  0  0
   40.5530   32.1880   41.8310 C   0  0  0  0  0  0  0  0  0  0  0  0
   39.9700   31.3590   42.7350 N   0  0  0  0  0  0  0  0  0  0  0  0
   40.6540   30.3030   43.2660 C   0  0  0  0  0  0  0  0  0  0  0  0
   41.9470   30.0440   42.9060 N   0  0  0  0  0  0  0  0  0  0  0  0
   44.1000   34.1170   42.1510 C   0  0  0  0  0  0  0  0  0  0  0  0
   43.9770   35.3420   42.6620 C   0  0  0  0  0  0  0  0  0  0  0  0
   44.5380   35.7000   43.8530 C   0  0  0  0  0  0  0  0  0  0  0  0
   45.2850   34.5740   44.4890 C   0  0  0  0  0  0  0  0  0  0  0  0
   45.0940   33.1180   43.2930 S   0  0  0  0  0  0  0  0  0  0  0  0
   41.8973   32.0659   38.5723 H   0  0  0  0  0  0  0  0  0  0  0  0
   43.7053   33.8831   37.6800 H   0  0  0  0  0  0  0  0  0  0  0  0
   43.5934   30.6268   41.7311 H   0  0  0  0  0  0  0  0  0  0  0  0
   39.9968   33.0369   41.4067 H   0  0  0  0  0  0  0  0  0  0  0  0
   40.1555   29.6490   43.9966 H   0  0  0  0  0  0  0  0  0  0  0  0
   43.4010   36.0932   42.1018 H   0  0  0  0  0  0  0  0  0  0  0  0
   44.4501   36.7037   44.2945 H   0  0  0  0  0  0  0  0  0  0  0  0
   45.8285   34.5874   45.4452 H   0  0  0  0  0  0  0  0  0  0  0  0
  1  5  1  0
  1  7  1  0
  2  1  1  0
  3  2  2  0
  3  4  1  0
  4  5  2  0
  5 12  1  0
  6 11  2  0
  7  8  2  0
  7  6  1  0
  8  9  1  0
  9 10  2  0
 11 10  1  0
 12 13  2  0
 12 16  1  0
 13 14  1  0
 14 15  2  0
 16 15  1  0
  2 17  1  0
  3 18  1  0
  6 19  1  0
  8 20  1  0
 10 21  1  0
 13 22  1  0
 14 23  1  0
 15 24  1  0
M  ISO  8  17  14  18  14  19  14  20  14  21  14  22  14  23  14  24  14
M  END
>  <minimizedAffinity>  (1) 
-3.45143676

>  <minimizedRMSD>  (1) 
4.5027647

$$$$
