
     RDKit          3D

 20 21  0  0  0  0  0  0  0  0999 V2000
   44.2820   35.6340   43.1640 C   0  0  0  0  0  0  0  0  0  0  0  0
   44.3650   34.3360   42.5920 C   0  0  0  0  0  0  0  0  0  0  0  0
   44.8890   33.2830   43.3680 C   0  0  0  0  0  0  0  0  0  0  0  0
   45.2930   33.5750   44.6420 N   0  0  0  0  0  0  0  0  0  0  0  0
   45.1940   34.8390   45.1540 C   0  0  0  0  0  0  0  0  0  0  0  0
   44.6860   35.8710   44.4080 N   0  0  0  0  0  0  0  0  0  0  0  0
   43.8970   34.2350   41.2680 N   0  0  0  0  0  0  0  0  0  0  0  0
   44.5630   33.7470   40.2010 C   0  0  0  0  0  0  0  0  0  0  0  0
   43.6690   33.8850   39.1220 C   0  0  0  0  0  0  0  0  0  0  0  0
   42.5410   34.4270   39.5520 N   0  0  0  0  0  0  0  0  0  0  0  0
   42.6520   34.6570   40.8890 C   0  0  0  0  0  0  0  0  0  0  0  0
   41.4760   35.2370   41.5670 C   0  0  0  0  0  0  0  0  0  0  0  0
   43.8744   36.4610   42.5641 H   0  0  0  0  0  0  0  0  0  0  0  0
   44.9703   32.2631   42.9640 H   0  0  0  0  0  0  0  0  0  0  0  0
   45.5283   35.0315   46.1841 H   0  0  0  0  0  0  0  0  0  0  0  0
   45.5815   33.3321   40.1788 H   0  0  0  0  0  0  0  0  0  0  0  0
   43.8760   33.5884   38.0832 H   0  0  0  0  0  0  0  0  0  0  0  0
   41.6111   35.1704   42.6566 H   0  0  0  0  0  0  0  0  0  0  0  0
   41.3676   36.2919   41.2748 H   0  0  0  0  0  0  0  0  0  0  0  0
   40.5730   34.6809   41.2748 H   0  0  0  0  0  0  0  0  0  0  0  0
  1  6  2  0
  2  1  1  0
  2  3  2  0
  3  4  1  0
  4  5  2  0
  6  5  1  0
  7  2  1  0
  8  7  1  0
  9 10  1  0
  9  8  2  0
 10 11  2  0
 11  7  1  0
 11 12  1  0
  1 13  1  0
  3 14  1  0
  5 15  1  0
  8 16  1  0
  9 17  1  0
 12 18  1  0
 12 19  1  0
 12 20  1  0
M  ISO  8  13  14  14  14  15  14  16  14  17  14  18   8  19   8  20   8
M  END
>  <minimizedAffinity>  (1) 
-3.28192472

>  <minimizedRMSD>  (1) 
0.485328108

$$$$
