
     RDKit          3D

 18 19  0  0  0  0  0  0  0  0999 V2000
   44.3140   35.6360   43.1560 C   0  0  0  0  0  0  0  0  0  0  0  0
   44.4670   34.3400   42.6170 C   0  0  0  0  0  0  0  0  0  0  0  0
   44.9700   33.3140   43.4450 C   0  0  0  0  0  0  0  0  0  0  0  0
   45.2840   33.6200   44.7280 N   0  0  0  0  0  0  0  0  0  0  0  0
   45.1160   34.8880   45.2020 C   0  0  0  0  0  0  0  0  0  0  0  0
   44.6320   35.8940   44.4140 N   0  0  0  0  0  0  0  0  0  0  0  0
   44.0970   34.1680   41.2790 N   0  0  0  0  0  0  0  0  0  0  0  0
   44.8050   33.6590   40.2590 C   0  0  0  0  0  0  0  0  0  0  0  0
   43.9800   33.7070   39.1130 C   0  0  0  0  0  0  0  0  0  0  0  0
   42.8050   34.2410   39.4720 N   0  0  0  0  0  0  0  0  0  0  0  0
   42.8690   34.5280   40.8020 C   0  0  0  0  0  0  0  0  0  0  0  0
   41.3780   35.2290   41.4790 S   0  0  0  0  0  0  0  0  0  0  0  0
   43.9241   36.4442   42.5197 H   0  0  0  0  0  0  0  0  0  0  0  0
   45.1039   32.2925   43.0596 H   0  0  0  0  0  0  0  0  0  0  0  0
   45.3775   35.1068   46.2478 H   0  0  0  0  0  0  0  0  0  0  0  0
   45.8351   33.2760   40.3063 H   0  0  0  0  0  0  0  0  0  0  0  0
   44.2542   33.3660   38.1038 H   0  0  0  0  0  0  0  0  0  0  0  0
   41.4400   35.1998   42.8473 H   0  0  0  0  0  0  0  0  0  0  0  0
  1  6  2  0
  2  1  1  0
  2  3  2  0
  3  4  1  0
  4  5  2  0
  6  5  1  0
  7  2  1  0
  8  7  1  0
  9 10  1  0
  9  8  2  0
 10 11  2  0
 11  7  1  0
 11 12  1  0
  1 13  1  0
  3 14  1  0
  5 15  1  0
  8 16  1  0
  9 17  1  0
 12 18  1  0
M  ISO  6  13  14  14  14  15  14  16  14  17  14  18  11
M  END
>  <minimizedAffinity>  (1) 
-3.24758506

>  <minimizedRMSD>  (1) 
0.654073358

$$$$
