
     RDKit          3D

 44 47  0  0  0  0  0  0  0  0999 V2000
   43.1120   33.3330   41.1760 N   0  0  0  0  0  0  0  0  0  0  0  0
   42.2080   33.7500   40.2940 C   0  0  0  0  0  0  0  0  0  0  0  0
   42.1200   35.1470   40.3710 C   0  0  0  0  0  0  0  0  0  0  0  0
   42.9870   35.5410   41.3130 N   0  0  0  0  0  0  0  0  0  0  0  0
   43.5900   34.4280   41.8000 C   0  0  0  0  0  0  0  0  0  0  0  0
   44.5310   34.7670   42.8080 N   0  0  0  0  0  0  0  0  0  0  0  0
   45.0850   36.1040   43.1230 C   0  0  0  0  0  0  0  0  0  0  0  0
   44.7540   36.5360   44.4990 C   0  0  0  0  0  0  0  0  0  0  0  0
   44.3430   35.4320   45.3260 N   0  0  0  0  0  0  0  0  0  0  0  0
   45.2170   34.2990   45.1180 C   0  0  0  0  0  0  0  0  0  0  0  0
   45.0930   33.7690   43.7010 C   0  0  0  0  0  0  0  0  0  0  0  0
   44.7470   31.6220   40.8480 C   0  0  0  0  0  0  0  0  0  0  0  0
   43.5470   32.0380   41.4690 C   0  0  0  0  0  0  0  0  0  0  0  0
   42.8820   31.1340   42.3400 C   0  0  0  0  0  0  0  0  0  0  0  0
   43.4690   29.9230   42.5040 N   0  0  0  0  0  0  0  0  0  0  0  0
   44.6090   29.5660   41.8960 C   0  0  0  0  0  0  0  0  0  0  0  0
   45.2510   30.4230   41.0620 N   0  0  0  0  0  0  0  0  0  0  0  0
   45.1940   28.2910   42.0900 N   0  0  0  0  0  0  0  0  0  0  0  0
   44.5020   27.5050   42.9630 C   0  0  0  0  0  0  0  0  0  0  0  0
   44.9400   26.2170   43.2680 C   0  0  0  0  0  0  0  0  0  0  0  0
   44.2030   25.3460   44.2150 C   0  0  0  0  0  0  0  0  0  0  0  0
   46.1000   25.8210   42.6290 C   0  0  0  0  0  0  0  0  0  0  0  0
   46.5350   24.6530   42.8800 O   0  0  0  0  0  0  0  0  0  0  0  0
   46.7770   26.5880   41.7770 N   0  0  0  0  0  0  0  0  0  0  0  0
   46.3260   27.8260   41.5040 C   0  0  0  0  0  0  0  0  0  0  0  0
   46.8750   28.6350   40.7220 O   0  0  0  0  0  0  0  0  0  0  0  0
   41.6267   33.1064   39.6174 H   0  0  0  0  0  0  0  0  0  0  0  0
   41.4641   35.7959   39.7721 H   0  0  0  0  0  0  0  0  0  0  0  0
   46.1792   36.0681   43.0165 H   0  0  0  0  0  0  0  0  0  0  0  0
   44.6384   36.8276   42.4252 H   0  0  0  0  0  0  0  0  0  0  0  0
   45.6424   37.0045   44.9476 H   0  0  0  0  0  0  0  0  0  0  0  0
   43.9166   37.2468   44.4400 H   0  0  0  0  0  0  0  0  0  0  0  0
   44.3827   35.7150   46.3155 H   0  0  0  0  0  0  0  0  0  0  0  0
   46.2571   34.6096   45.2961 H   0  0  0  0  0  0  0  0  0  0  0  0
   44.9280   33.5006   45.8173 H   0  0  0  0  0  0  0  0  0  0  0  0
   44.4390   32.8846   43.7059 H   0  0  0  0  0  0  0  0  0  0  0  0
   46.0990   33.5093   43.3398 H   0  0  0  0  0  0  0  0  0  0  0  0
   45.2712   32.3135   40.1719 H   0  0  0  0  0  0  0  0  0  0  0  0
   41.9455   31.4010   42.8515 H   0  0  0  0  0  0  0  0  0  0  0  0
   43.5859   27.8922   43.4330 H   0  0  0  0  0  0  0  0  0  0  0  0
   44.4486   25.6363   45.2472 H   0  0  0  0  0  0  0  0  0  0  0  0
   43.1212   25.4579   44.0502 H   0  0  0  0  0  0  0  0  0  0  0  0
   44.4925   24.2976   44.0502 H   0  0  0  0  0  0  0  0  0  0  0  0
   47.6370   26.2374   41.3315 H   0  0  0  0  0  0  0  0  0  0  0  0
  1 13  1  0
  1  5  1  0
  2  3  2  0
  2  1  1  0
  3  4  1  0
  4  5  2  0
  5  6  1  0
  6  7  1  0
  6 11  1  0
  7  8  1  0
  8  9  1  0
 10  9  1  0
 11 10  1  0
 12 17  2  0
 12 13  1  0
 13 14  2  0
 14 15  1  0
 16 18  1  0
 16 15  2  0
 17 16  1  0
 18 19  1  0
 19 20  2  0
 20 21  1  0
 22 23  2  0
 22 20  1  0
 24 22  1  0
 25 24  1  0
 25 18  1  0
 26 25  2  0
  2 27  1  0
  3 28  1  0
  7 29  1  0
  7 30  1  0
  8 31  1  0
  8 32  1  0
  9 33  1  0
 10 34  1  0
 10 35  1  0
 11 36  1  0
 11 37  1  0
 12 38  1  0
 14 39  1  0
 19 40  1  0
 21 41  1  0
 21 42  1  0
 21 43  1  0
 24 44  1  0
M  ISO  8  27  14  28  14  29  13  30  13  31  13  32  13  33   5  34  13
M  ISO  8  35  13  36  13  37  13  38  14  39  14  40  14  41   8  42   8
M  ISO  2  43   8  44   9
M  END
>  <minimizedAffinity>  (1) 
-4.35605431

>  <minimizedRMSD>  (1) 
0.0806733966

$$$$
