
     RDKit          3D

 32 34  0  0  0  0  0  0  0  0999 V2000
   43.1640   33.3350   41.1580 N   0  0  0  0  0  0  0  0  0  0  0  0
   42.2670   33.7530   40.2670 C   0  0  0  0  0  0  0  0  0  0  0  0
   42.1740   35.1510   40.3490 C   0  0  0  0  0  0  0  0  0  0  0  0
   43.0330   35.5350   41.3030 N   0  0  0  0  0  0  0  0  0  0  0  0
   43.6340   34.4230   41.7940 C   0  0  0  0  0  0  0  0  0  0  0  0
   44.5640   34.7600   42.8110 N   0  0  0  0  0  0  0  0  0  0  0  0
   45.0980   36.1030   43.1410 C   0  0  0  0  0  0  0  0  0  0  0  0
   44.7440   36.5300   44.5110 C   0  0  0  0  0  0  0  0  0  0  0  0
   44.3570   35.4070   45.3330 N   0  0  0  0  0  0  0  0  0  0  0  0
   45.2260   34.2730   45.1240 C   0  0  0  0  0  0  0  0  0  0  0  0
   45.1310   33.7580   43.6970 C   0  0  0  0  0  0  0  0  0  0  0  0
   44.7820   31.6140   40.8040 C   0  0  0  0  0  0  0  0  0  0  0  0
   43.5960   32.0410   41.4450 C   0  0  0  0  0  0  0  0  0  0  0  0
   42.9430   31.1410   42.3280 C   0  0  0  0  0  0  0  0  0  0  0  0
   43.5190   29.9270   42.4890 N   0  0  0  0  0  0  0  0  0  0  0  0
   44.6450   29.5560   41.8640 C   0  0  0  0  0  0  0  0  0  0  0  0
   45.2850   30.4110   41.0090 N   0  0  0  0  0  0  0  0  0  0  0  0
   45.3810   27.9480   42.0950 S   0  0  0  0  0  0  0  0  0  0  0  0
   41.6949   33.1104   39.5817 H   0  0  0  0  0  0  0  0  0  0  0  0
   41.5235   35.8035   39.7480 H   0  0  0  0  0  0  0  0  0  0  0  0
   46.1940   36.0791   43.0507 H   0  0  0  0  0  0  0  0  0  0  0  0
   44.6509   36.8229   42.4397 H   0  0  0  0  0  0  0  0  0  0  0  0
   45.6145   37.0237   44.9675 H   0  0  0  0  0  0  0  0  0  0  0  0
   43.8904   37.2208   44.4471 H   0  0  0  0  0  0  0  0  0  0  0  0
   44.4031   35.6858   46.3235 H   0  0  0  0  0  0  0  0  0  0  0  0
   46.2640   34.5751   45.3273 H   0  0  0  0  0  0  0  0  0  0  0  0
   44.9140   33.4672   45.8047 H   0  0  0  0  0  0  0  0  0  0  0  0
   44.4921   32.8627   43.6809 H   0  0  0  0  0  0  0  0  0  0  0  0
   46.1456   33.5183   43.3461 H   0  0  0  0  0  0  0  0  0  0  0  0
   45.2981   32.3014   40.1176 H   0  0  0  0  0  0  0  0  0  0  0  0
   42.0169   31.4163   42.8539 H   0  0  0  0  0  0  0  0  0  0  0  0
   45.4998   27.6884   43.4349 H   0  0  0  0  0  0  0  0  0  0  0  0
  1 13  1  0
  1  5  1  0
  2  3  2  0
  2  1  1  0
  3  4  1  0
  4  5  2  0
  5  6  1  0
  6  7  1  0
  6 11  1  0
  7  8  1  0
  8  9  1  0
 10  9  1  0
 11 10  1  0
 12 17  2  0
 12 13  1  0
 13 14  2  0
 14 15  1  0
 16 18  1  0
 16 15  2  0
 17 16  1  0
  2 19  1  0
  3 20  1  0
  7 21  1  0
  7 22  1  0
  8 23  1  0
  8 24  1  0
  9 25  1  0
 10 26  1  0
 10 27  1  0
 11 28  1  0
 11 29  1  0
 12 30  1  0
 14 31  1  0
 18 32  1  0
M  ISO  8  19  14  20  14  21  13  22  13  23  13  24  13  25   5  26  13
M  ISO  6  27  13  28  13  29  13  30  14  31  14  32  11
M  END
>  <minimizedAffinity>  (1) 
-4.17965364

>  <minimizedRMSD>  (1) 
0.0383501835

$$$$
