
     RDKit          3D

 47 50  0  0  0  0  0  0  0  0999 V2000
   43.1890   33.3120   41.1280 N   0  0  0  0  0  0  0  0  0  0  0  0
   42.3480   33.7330   40.1870 C   0  0  0  0  0  0  0  0  0  0  0  0
   42.3230   35.1280   40.2060 C   0  0  0  0  0  0  0  0  0  0  0  0
   43.1620   35.5170   41.1740 N   0  0  0  0  0  0  0  0  0  0  0  0
   43.6840   34.4070   41.7290 C   0  0  0  0  0  0  0  0  0  0  0  0
   44.5940   34.7410   42.7720 N   0  0  0  0  0  0  0  0  0  0  0  0
   45.1900   36.0680   43.0660 C   0  0  0  0  0  0  0  0  0  0  0  0
   44.8010   36.5710   44.4000 C   0  0  0  0  0  0  0  0  0  0  0  0
   44.3290   35.5080   45.2540 N   0  0  0  0  0  0  0  0  0  0  0  0
   45.1580   34.3300   45.1250 C   0  0  0  0  0  0  0  0  0  0  0  0
   45.0730   33.7530   43.7240 C   0  0  0  0  0  0  0  0  0  0  0  0
   44.7520   31.5180   40.9420 C   0  0  0  0  0  0  0  0  0  0  0  0
   43.5450   32.0120   41.4900 C   0  0  0  0  0  0  0  0  0  0  0  0
   42.7950   31.1720   42.3570 C   0  0  0  0  0  0  0  0  0  0  0  0
   43.3070   29.9430   42.5950 N   0  0  0  0  0  0  0  0  0  0  0  0
   44.4550   29.4990   42.0620 C   0  0  0  0  0  0  0  0  0  0  0  0
   45.1760   30.2990   41.2300 N   0  0  0  0  0  0  0  0  0  0  0  0
   44.9220   28.1270   42.3940 C   0  0  0  0  0  0  0  0  0  0  0  0
   46.1680   28.1680   43.2700 C   0  0  0  0  0  0  0  0  0  0  0  0
   46.7240   26.7530   43.2410 C   0  0  0  0  0  0  0  0  0  0  0  0
   45.7320   25.7620   43.8070 C   0  0  0  0  0  0  0  0  0  0  0  0
   44.3730   25.8920   43.2020 C   0  0  0  0  0  0  0  0  0  0  0  0
   43.8920   27.3190   43.1210 C   0  0  0  0  0  0  0  0  0  0  0  0
   41.7695   33.0894   39.5080 H   0  0  0  0  0  0  0  0  0  0  0  0
   41.7283   35.7822   39.5515 H   0  0  0  0  0  0  0  0  0  0  0  0
   46.2858   35.9810   43.0258 H   0  0  0  0  0  0  0  0  0  0  0  0
   44.8173   36.7797   42.3146 H   0  0  0  0  0  0  0  0  0  0  0  0
   45.6746   37.0454   44.8709 H   0  0  0  0  0  0  0  0  0  0  0  0
   43.9829   37.2945   44.2687 H   0  0  0  0  0  0  0  0  0  0  0  0
   44.3496   35.8284   46.2327 H   0  0  0  0  0  0  0  0  0  0  0  0
   46.2025   34.6005   45.3394 H   0  0  0  0  0  0  0  0  0  0  0  0
   44.8010   33.5717   45.8374 H   0  0  0  0  0  0  0  0  0  0  0  0
   44.3815   32.8976   43.7306 H   0  0  0  0  0  0  0  0  0  0  0  0
   46.0813   33.4374   43.4177 H   0  0  0  0  0  0  0  0  0  0  0  0
   45.3445   32.1550   40.2688 H   0  0  0  0  0  0  0  0  0  0  0  0
   41.8491   31.5035   42.8101 H   0  0  0  0  0  0  0  0  0  0  0  0
   45.1352   27.6523   41.4249 H   0  0  0  0  0  0  0  0  0  0  0  0
   46.9021   28.8791   42.8632 H   0  0  0  0  0  0  0  0  0  0  0  0
   45.9394   28.4984   44.2940 H   0  0  0  0  0  0  0  0  0  0  0  0
   46.9510   26.4783   42.2003 H   0  0  0  0  0  0  0  0  0  0  0  0
   47.6342   26.7246   43.8580 H   0  0  0  0  0  0  0  0  0  0  0  0
   46.1049   24.7446   43.6176 H   0  0  0  0  0  0  0  0  0  0  0  0
   45.6359   25.9683   44.8832 H   0  0  0  0  0  0  0  0  0  0  0  0
   44.4020   25.4747   42.1846 H   0  0  0  0  0  0  0  0  0  0  0  0
   43.6725   25.3477   43.8525 H   0  0  0  0  0  0  0  0  0  0  0  0
   43.7525   27.7217   44.1351 H   0  0  0  0  0  0  0  0  0  0  0  0
   42.9318   27.3633   42.5862 H   0  0  0  0  0  0  0  0  0  0  0  0
  1 13  1  0
  1  5  1  0
  2  3  2  0
  2  1  1  0
  3  4  1  0
  4  5  2  0
  5  6  1  0
  6  7  1  0
  6 11  1  0
  7  8  1  0
  8  9  1  0
 10  9  1  0
 11 10  1  0
 12 17  2  0
 12 13  1  0
 13 14  2  0
 14 15  1  0
 16 18  1  0
 16 15  2  0
 17 16  1  0
 18 23  1  0
 18 19  1  0
 20 19  1  0
 20 21  1  0
 22 21  1  0
 23 22  1  0
  2 24  1  0
  3 25  1  0
  7 26  1  0
  7 27  1  0
  8 28  1  0
  8 29  1  0
  9 30  1  0
 10 31  1  0
 10 32  1  0
 11 33  1  0
 11 34  1  0
 12 35  1  0
 14 36  1  0
 18 37  1  0
 19 38  1  0
 19 39  1  0
 20 40  1  0
 20 41  1  0
 21 42  1  0
 21 43  1  0
 22 44  1  0
 22 45  1  0
 23 46  1  0
 23 47  1  0
M  ISO  8  24  14  25  14  26  13  27  13  28  13  29  13  30   5  31  13
M  ISO  8  32  13  33  13  34  13  35  14  36  14  37  13  38  13  39  13
M  ISO  8  40  13  41  13  42  13  43  13  44  13  45  13  46  13  47  13
M  END
>  <minimizedAffinity>  (1) 
-4.109653

>  <minimizedRMSD>  (1) 
1.24002779

$$$$
