
     RDKit          3D

 39 42  0  0  0  0  0  0  0  0999 V2000
   43.1310   33.3430   41.1730 N   0  0  0  0  0  0  0  0  0  0  0  0
   42.2310   33.7580   40.2840 C   0  0  0  0  0  0  0  0  0  0  0  0
   42.1500   35.1500   40.3590 C   0  0  0  0  0  0  0  0  0  0  0  0
   43.0140   35.5480   41.3020 N   0  0  0  0  0  0  0  0  0  0  0  0
   43.6080   34.4430   41.7950 C   0  0  0  0  0  0  0  0  0  0  0  0
   44.5490   34.7760   42.8050 N   0  0  0  0  0  0  0  0  0  0  0  0
   45.1010   36.1160   43.1270 C   0  0  0  0  0  0  0  0  0  0  0  0
   44.7520   36.5590   44.4930 C   0  0  0  0  0  0  0  0  0  0  0  0
   44.3550   35.4560   45.3190 N   0  0  0  0  0  0  0  0  0  0  0  0
   45.1880   34.2970   45.1290 C   0  0  0  0  0  0  0  0  0  0  0  0
   45.1190   33.7920   43.6950 C   0  0  0  0  0  0  0  0  0  0  0  0
   44.7370   31.6100   40.8650 C   0  0  0  0  0  0  0  0  0  0  0  0
   43.5580   32.0520   41.4740 C   0  0  0  0  0  0  0  0  0  0  0  0
   42.8920   31.1570   42.3570 C   0  0  0  0  0  0  0  0  0  0  0  0
   43.4570   29.9440   42.5370 N   0  0  0  0  0  0  0  0  0  0  0  0
   44.5890   29.5600   41.9320 C   0  0  0  0  0  0  0  0  0  0  0  0
   45.2250   30.4090   41.0920 N   0  0  0  0  0  0  0  0  0  0  0  0
   45.1490   28.2310   42.1710 C   0  0  0  0  0  0  0  0  0  0  0  0
   44.7530   27.5230   43.2880 C   0  0  0  0  0  0  0  0  0  0  0  0
   45.3200   26.2580   43.4650 C   0  0  0  0  0  0  0  0  0  0  0  0
   46.2000   25.7660   42.5930 N   0  0  0  0  0  0  0  0  0  0  0  0
   46.5690   26.4680   41.5180 C   0  0  0  0  0  0  0  0  0  0  0  0
   46.0400   27.7080   41.3060 N   0  0  0  0  0  0  0  0  0  0  0  0
   41.6506   33.1145   39.6064 H   0  0  0  0  0  0  0  0  0  0  0  0
   41.4980   35.7989   39.7559 H   0  0  0  0  0  0  0  0  0  0  0  0
   46.1967   36.0767   43.0381 H   0  0  0  0  0  0  0  0  0  0  0  0
   44.6632   36.8363   42.4202 H   0  0  0  0  0  0  0  0  0  0  0  0
   45.6282   37.0467   44.9452 H   0  0  0  0  0  0  0  0  0  0  0  0
   43.9063   37.2589   44.4228 H   0  0  0  0  0  0  0  0  0  0  0  0
   44.4116   35.7453   46.3059 H   0  0  0  0  0  0  0  0  0  0  0  0
   46.2291   34.5620   45.3653 H   0  0  0  0  0  0  0  0  0  0  0  0
   44.8274   33.4989   45.7946 H   0  0  0  0  0  0  0  0  0  0  0  0
   44.4977   32.8847   43.6669 H   0  0  0  0  0  0  0  0  0  0  0  0
   46.1446   33.5806   43.3580 H   0  0  0  0  0  0  0  0  0  0  0  0
   45.2703   32.2838   40.1783 H   0  0  0  0  0  0  0  0  0  0  0  0
   41.9605   31.4400   42.8690 H   0  0  0  0  0  0  0  0  0  0  0  0
   44.0264   27.9346   44.0040 H   0  0  0  0  0  0  0  0  0  0  0  0
   45.0346   25.6567   44.3408 H   0  0  0  0  0  0  0  0  0  0  0  0
   47.2959   26.0485   40.8070 H   0  0  0  0  0  0  0  0  0  0  0  0
  1 13  1  0
  1  5  1  0
  2  3  2  0
  2  1  1  0
  3  4  1  0
  4  5  2  0
  5  6  1  0
  6  7  1  0
  6 11  1  0
  7  8  1  0
  8  9  1  0
 10  9  1  0
 11 10  1  0
 12 17  2  0
 12 13  1  0
 13 14  2  0
 14 15  1  0
 16 18  1  0
 16 15  2  0
 17 16  1  0
 18 19  2  0
 19 20  1  0
 21 20  2  0
 22 21  1  0
 23 22  2  0
 23 18  1  0
  2 24  1  0
  3 25  1  0
  7 26  1  0
  7 27  1  0
  8 28  1  0
  8 29  1  0
  9 30  1  0
 10 31  1  0
 10 32  1  0
 11 33  1  0
 11 34  1  0
 12 35  1  0
 14 36  1  0
 19 37  1  0
 20 38  1  0
 22 39  1  0
M  ISO  8  24  14  25  14  26  13  27  13  28  13  29  13  30   5  31  13
M  ISO  8  32  13  33  13  34  13  35  14  36  14  37  14  38  14  39  14
M  END
>  <minimizedAffinity>  (1) 
-4.04794884

>  <minimizedRMSD>  (1) 
0.246768907

$$$$
