
     RDKit          3D

 33 35  0  0  1  0  0  0  0  0999 V2000
   44.5270   35.4010   45.3850 C   0  0  0  0  0  0  0  0  0  0  0  0
   44.5670   36.3790   44.3770 C   0  0  0  0  0  0  0  0  0  0  0  0
   45.3520   36.0880   43.2550 C   0  0  0  0  0  0  0  0  0  0  0  0
   46.0190   34.9050   43.1990 N   0  0  0  0  0  0  0  0  0  0  0  0
   45.9490   33.9990   44.1930 C   0  0  0  0  0  0  0  0  0  0  0  0
   45.2000   34.2460   45.2890 N   0  0  0  0  0  0  0  0  0  0  0  0
   46.6640   32.8170   44.0480 N   0  0  0  0  0  0  0  0  0  0  0  0
   46.2860   31.5070   44.5580 C   0  0  0  0  0  0  0  0  0  0  0  0
   47.6580   30.9200   44.8430 C   0  0  0  0  0  0  0  0  0  0  0  0
   48.3270   31.2260   43.5080 C   0  0  0  0  0  0  0  0  0  0  0  0
   47.9350   32.6780   43.3510 C   0  0  1  0  0  0  0  0  0  0  0  0
   47.8990   33.1080   41.9890 N   0  0  0  0  0  0  0  0  0  0  0  0
   47.1060   32.4600   41.1280 C   0  0  0  0  0  0  0  0  0  0  0  0
   47.0620   32.8710   39.7930 C   0  0  0  0  0  0  0  0  0  0  0  0
   47.8580   33.9390   39.4590 C   0  0  0  0  0  0  0  0  0  0  0  0
   47.9200   34.4680   38.1510 N   0  0  0  0  0  0  0  0  0  0  0  0
   48.6510   34.5860   40.3330 N   0  0  0  0  0  0  0  0  0  0  0  0
   48.6750   34.1630   41.6300 C   0  0  0  0  0  0  0  0  0  0  0  0
   49.4010   34.7360   42.4810 O   0  0  0  0  0  0  0  0  0  0  0  0
   43.9223   35.5899   46.2842 H   0  0  0  0  0  0  0  0  0  0  0  0
   44.0106   37.3238   44.4649 H   0  0  0  0  0  0  0  0  0  0  0  0
   45.4282   36.8089   42.4277 H   0  0  0  0  0  0  0  0  0  0  0  0
   45.6792   31.5858   45.4721 H   0  0  0  0  0  0  0  0  0  0  0  0
   45.6625   30.9100   43.8762 H   0  0  0  0  0  0  0  0  0  0  0  0
   48.1581   31.4271   45.6813 H   0  0  0  0  0  0  0  0  0  0  0  0
   47.6676   29.8629   45.1469 H   0  0  0  0  0  0  0  0  0  0  0  0
   49.4186   31.1001   43.5590 H   0  0  0  0  0  0  0  0  0  0  0  0
   48.0281   30.5707   42.6766 H   0  0  0  0  0  0  0  0  0  0  0  0
   48.6912   33.3454   43.7900 H   0  0  0  0  0  0  0  0  0  0  0  0
   46.4942   31.6114   41.4678 H   0  0  0  0  0  0  0  0  0  0  0  0
   46.4252   32.3670   39.0510 H   0  0  0  0  0  0  0  0  0  0  0  0
   48.5326   35.2709   37.9487 H   0  0  0  0  0  0  0  0  0  0  0  0
   47.3526   34.0509   37.3994 H   0  0  0  0  0  0  0  0  0  0  0  0
  2  1  2  0
  3  2  1  0
  4  3  2  0
  4  5  1  0
  5  6  2  0
  6  1  1  0
  7  5  1  0
  7  8  1  0
  8  9  1  0
 10  9  1  0
 11 10  1  0
 11  7  1  0
 12 11  1  0
 13 12  1  0
 14 13  2  0
 15 14  1  0
 15 17  2  0
 16 15  1  0
 17 18  1  0
 18 12  1  0
 18 19  2  0
  1 20  1  0
  2 21  1  0
  3 22  1  0
  8 23  1  0
  8 24  1  0
  9 25  1  0
  9 26  1  0
 10 27  1  0
 10 28  1  0
 11 29  1  1
 13 30  1  0
 14 31  1  0
 16 32  1  0
 16 33  1  0
M  ISO  8  20  14  21  14  22  14  23  13  24  13  25  13  26  13  27  13
M  ISO  4  28  13  29  13  30  14  31  14
M  END
>  <minimizedAffinity>  (1) 
-4.94904613

>  <minimizedRMSD>  (1) 
4.13261414

$$$$
