
     RDKit          3D

 32 34  0  0  1  0  0  0  0  0999 V2000
   44.4720   35.8770   44.8140 C   0  0  0  0  0  0  0  0  0  0  0  0
   44.8070   35.6520   43.4460 C   0  0  0  0  0  0  0  0  0  0  0  0
   45.5230   34.4660   43.1350 C   0  0  0  0  0  0  0  0  0  0  0  0
   45.8300   33.6430   44.1550 N   0  0  0  0  0  0  0  0  0  0  0  0
   45.5020   33.8820   45.4260 C   0  0  0  0  0  0  0  0  0  0  0  0
   44.8210   35.0020   45.7520 N   0  0  0  0  0  0  0  0  0  0  0  0
   45.8680   32.9660   46.4040 N   0  0  0  0  0  0  0  0  0  0  0  0
   45.1960   32.7230   47.6740 C   0  0  0  0  0  0  0  0  0  0  0  0
   46.3890   32.3000   48.5180 C   0  0  0  0  0  0  0  0  0  0  0  0
   46.9910   31.2490   47.5870 C   0  0  0  0  0  0  0  0  0  0  0  0
   47.0320   32.0650   46.3140 C   0  0  1  0  0  0  0  0  0  0  0  0
   46.9840   31.2430   45.1310 N   0  0  0  0  0  0  0  0  0  0  0  0
   47.8970   31.4950   44.1830 C   0  0  0  0  0  0  0  0  0  0  0  0
   47.9520   30.7790   43.0120 C   0  0  0  0  0  0  0  0  0  0  0  0
   47.0060   29.7690   42.8510 C   0  0  0  0  0  0  0  0  0  0  0  0
   46.8820   29.0020   41.8630 O   0  0  0  0  0  0  0  0  0  0  0  0
   46.1260   29.5600   43.8180 N   0  0  0  0  0  0  0  0  0  0  0  0
   46.0600   30.2600   44.9810 C   0  0  0  0  0  0  0  0  0  0  0  0
   45.2200   30.0510   45.8900 O   0  0  0  0  0  0  0  0  0  0  0  0
   43.9186   36.7848   45.0961 H   0  0  0  0  0  0  0  0  0  0  0  0
   44.5218   36.3694   42.6624 H   0  0  0  0  0  0  0  0  0  0  0  0
   45.8153   34.2291   42.1014 H   0  0  0  0  0  0  0  0  0  0  0  0
   44.7193   33.6336   48.0659 H   0  0  0  0  0  0  0  0  0  0  0  0
   44.3718   31.9957   47.6338 H   0  0  0  0  0  0  0  0  0  0  0  0
   47.0820   33.1351   48.6979 H   0  0  0  0  0  0  0  0  0  0  0  0
   46.1461   31.9465   49.5309 H   0  0  0  0  0  0  0  0  0  0  0  0
   47.9949   30.9366   47.9104 H   0  0  0  0  0  0  0  0  0  0  0  0
   46.4411   30.2983   47.5247 H   0  0  0  0  0  0  0  0  0  0  0  0
   47.9774   32.6200   46.2229 H   0  0  0  0  0  0  0  0  0  0  0  0
   48.6264   32.3017   44.3480 H   0  0  0  0  0  0  0  0  0  0  0  0
   48.7056   30.9925   42.2397 H   0  0  0  0  0  0  0  0  0  0  0  0
   45.4370   28.8074   43.6777 H   0  0  0  0  0  0  0  0  0  0  0  0
  1  6  2  0
  2  1  1  0
  3  2  2  0
  3  4  1  0
  4  5  2  0
  5  6  1  0
  5  7  1  0
  7  8  1  0
  8  9  1  0
 10  9  1  0
 11  7  1  0
 11 10  1  0
 12 11  1  0
 13 12  1  0
 14 13  2  0
 15 14  1  0
 15 17  1  0
 16 15  2  0
 17 18  1  0
 18 12  1  0
 18 19  2  0
  1 20  1  0
  2 21  1  0
  3 22  1  0
  8 23  1  0
  8 24  1  0
  9 25  1  0
  9 26  1  0
 10 27  1  0
 10 28  1  0
 11 29  1  6
 13 30  1  0
 14 31  1  0
 17 32  1  0
M  ISO  8  20  14  21  14  22  14  23  13  24  13  25  13  26  13  27  13
M  ISO  5  28  13  29  13  30  14  31  14  32   9
M  END
>  <minimizedAffinity>  (1) 
-4.62446642

>  <minimizedRMSD>  (1) 
1.04943895

$$$$
