
     RDKit          3D

 31 33  0  0  1  0  0  0  0  0999 V2000
   44.5510   35.7750   44.8600 C   0  0  0  0  0  0  0  0  0  0  0  0
   44.9950   35.4860   43.5580 C   0  0  0  0  0  0  0  0  0  0  0  0
   45.7010   34.2970   43.3620 C   0  0  0  0  0  0  0  0  0  0  0  0
   45.8810   33.5490   44.4620 N   0  0  0  0  0  0  0  0  0  0  0  0
   45.4640   33.8190   45.6870 C   0  0  0  0  0  0  0  0  0  0  0  0
   44.7920   34.9470   45.8830 N   0  0  0  0  0  0  0  0  0  0  0  0
   45.7600   32.9080   46.7030 N   0  0  0  0  0  0  0  0  0  0  0  0
   44.9150   32.6470   47.8690 C   0  0  0  0  0  0  0  0  0  0  0  0
   45.9960   32.3700   48.9080 C   0  0  0  0  0  0  0  0  0  0  0  0
   46.8100   31.3580   48.1160 C   0  0  0  0  0  0  0  0  0  0  0  0
   46.9300   32.0820   46.8010 C   0  0  1  0  0  0  0  0  0  0  0  0
   47.2020   31.1630   45.6850 C   0  0  0  0  0  0  0  0  0  0  0  0
   48.1650   30.1800   45.9630 C   0  0  0  0  0  0  0  0  0  0  0  0
   48.6070   29.2020   45.1030 C   0  0  0  0  0  0  0  0  0  0  0  0
   48.0720   29.1520   43.8350 C   0  0  0  0  0  0  0  0  0  0  0  0
   47.1280   30.1150   43.5570 C   0  0  0  0  0  0  0  0  0  0  0  0
   46.7420   31.0390   44.4380 N   0  0  0  0  0  0  0  0  0  0  0  0
   43.9918   36.7045   45.0423 H   0  0  0  0  0  0  0  0  0  0  0  0
   44.7934   36.1725   42.7225 H   0  0  0  0  0  0  0  0  0  0  0  0
   46.0827   33.9947   42.3756 H   0  0  0  0  0  0  0  0  0  0  0  0
   44.3036   33.5215   48.1364 H   0  0  0  0  0  0  0  0  0  0  0  0
   44.1742   31.8442   47.7394 H   0  0  0  0  0  0  0  0  0  0  0  0
   46.5779   33.2710   49.1520 H   0  0  0  0  0  0  0  0  0  0  0  0
   45.6393   32.0330   49.8925 H   0  0  0  0  0  0  0  0  0  0  0  0
   47.7941   31.1791   48.5737 H   0  0  0  0  0  0  0  0  0  0  0  0
   46.3622   30.3554   48.0512 H   0  0  0  0  0  0  0  0  0  0  0  0
   47.8101   32.7393   46.7436 H   0  0  0  0  0  0  0  0  0  0  0  0
   48.6103   30.1933   46.9687 H   0  0  0  0  0  0  0  0  0  0  0  0
   49.3703   28.4764   45.4207 H   0  0  0  0  0  0  0  0  0  0  0  0
   48.3773   28.3961   43.0965 H   0  0  0  0  0  0  0  0  0  0  0  0
   46.6688   30.1227   42.5575 H   0  0  0  0  0  0  0  0  0  0  0  0
  1  6  2  0
  2  1  1  0
  3  2  2  0
  3  4  1  0
  4  5  2  0
  5  6  1  0
  5  7  1  0
  7 11  1  0
  7  8  1  0
  8  9  1  0
 10  9  1  0
 11 10  1  0
 12 13  2  0
 12 11  1  0
 14 13  1  0
 15 14  2  0
 16 15  1  0
 16 17  2  0
 17 12  1  0
  1 18  1  0
  2 19  1  0
  3 20  1  0
  8 21  1  0
  8 22  1  0
  9 23  1  0
  9 24  1  0
 10 25  1  0
 10 26  1  0
 11 27  1  1
 13 28  1  0
 14 29  1  0
 15 30  1  0
 16 31  1  0
M  ISO  8  18  14  19  14  20  14  21  13  22  13  23  13  24  13  25  13
M  ISO  6  26  13  27  13  28  14  29  14  30  14  31  14
M  END
>  <minimizedAffinity>  (1) 
-4.52109241

>  <minimizedRMSD>  (1) 
0.577081263

$$$$
