
     RDKit          3D

 32 34  0  0  1  0  0  0  0  0999 V2000
   44.4680   35.9310   44.8020 C   0  0  0  0  0  0  0  0  0  0  0  0
   44.7990   35.7080   43.4500 C   0  0  0  0  0  0  0  0  0  0  0  0
   45.4960   34.5340   43.1460 C   0  0  0  0  0  0  0  0  0  0  0  0
   45.8090   33.6900   44.1600 N   0  0  0  0  0  0  0  0  0  0  0  0
   45.4800   33.9310   45.4310 C   0  0  0  0  0  0  0  0  0  0  0  0
   44.8170   35.0420   45.7440 N   0  0  0  0  0  0  0  0  0  0  0  0
   45.8500   32.9980   46.3920 N   0  0  0  0  0  0  0  0  0  0  0  0
   45.1560   32.7180   47.6420 C   0  0  0  0  0  0  0  0  0  0  0  0
   46.3270   32.3700   48.5380 C   0  0  0  0  0  0  0  0  0  0  0  0
   47.0280   31.3610   47.6310 C   0  0  0  0  0  0  0  0  0  0  0  0
   47.0060   32.1150   46.3370 C   0  0  1  0  0  0  0  0  0  0  0  0
   47.0590   31.2630   45.1450 C   0  0  0  0  0  0  0  0  0  0  0  0
   47.9900   31.3470   44.1590 C   0  0  0  0  0  0  0  0  0  0  0  0
   47.9660   30.4980   43.0620 C   0  0  0  0  0  0  0  0  0  0  0  0
   46.9900   29.5230   42.9170 C   0  0  0  0  0  0  0  0  0  0  0  0
   46.0180   29.3890   43.8860 C   0  0  0  0  0  0  0  0  0  0  0  0
   46.0940   30.2650   44.9580 C   0  0  0  0  0  0  0  0  0  0  0  0
   43.9194   36.8409   45.0867 H   0  0  0  0  0  0  0  0  0  0  0  0
   44.5206   36.4278   42.6662 H   0  0  0  0  0  0  0  0  0  0  0  0
   45.7831   34.3012   42.1100 H   0  0  0  0  0  0  0  0  0  0  0  0
   44.6114   33.6000   48.0102 H   0  0  0  0  0  0  0  0  0  0  0  0
   44.3849   31.9366   47.5723 H   0  0  0  0  0  0  0  0  0  0  0  0
   46.9597   33.2448   48.7487 H   0  0  0  0  0  0  0  0  0  0  0  0
   46.0634   32.0025   49.5407 H   0  0  0  0  0  0  0  0  0  0  0  0
   48.0553   31.1555   47.9663 H   0  0  0  0  0  0  0  0  0  0  0  0
   46.5596   30.3663   47.5956 H   0  0  0  0  0  0  0  0  0  0  0  0
   47.9266   32.7070   46.2271 H   0  0  0  0  0  0  0  0  0  0  0  0
   48.7821   32.1067   44.2323 H   0  0  0  0  0  0  0  0  0  0  0  0
   48.7405   30.6006   42.2876 H   0  0  0  0  0  0  0  0  0  0  0  0
   46.9914   28.8628   42.0372 H   0  0  0  0  0  0  0  0  0  0  0  0
   45.2261   28.6291   43.8125 H   0  0  0  0  0  0  0  0  0  0  0  0
   45.3227   30.1669   45.7361 H   0  0  0  0  0  0  0  0  0  0  0  0
  1  6  2  0
  2  1  1  0
  3  2  2  0
  3  4  1  0
  4  5  2  0
  5  6  1  0
  5  7  1  0
  7  8  1  0
  8  9  1  0
 10  9  1  0
 11  7  1  0
 11 10  1  0
 12 11  1  0
 13 12  2  0
 14 13  1  0
 15 14  2  0
 15 16  1  0
 16 17  2  0
 17 12  1  0
  1 18  1  0
  2 19  1  0
  3 20  1  0
  8 21  1  0
  8 22  1  0
  9 23  1  0
  9 24  1  0
 10 25  1  0
 10 26  1  0
 11 27  1  1
 13 28  1  0
 14 29  1  0
 15 30  1  0
 16 31  1  0
 17 32  1  0
M  ISO  8  18  14  19  14  20  14  21  13  22  13  23  13  24  13  25  13
M  ISO  7  26  13  27  13  28  14  29  14  30  14  31  14  32  14
M  END
>  <minimizedAffinity>  (1) 
-4.48655701

>  <minimizedRMSD>  (1) 
1.15345168

$$$$
