
     RDKit          3D

 31 32  0  0  1  0  0  0  0  0999 V2000
   44.5460   35.7820   44.8610 C   0  0  0  0  0  0  0  0  0  0  0  0
   44.9980   35.5170   43.5560 C   0  0  0  0  0  0  0  0  0  0  0  0
   45.7210   34.3320   43.3490 C   0  0  0  0  0  0  0  0  0  0  0  0
   45.9190   33.5510   44.4350 N   0  0  0  0  0  0  0  0  0  0  0  0
   45.4830   33.8210   45.6640 C   0  0  0  0  0  0  0  0  0  0  0  0
   44.7890   34.9500   45.8780 N   0  0  0  0  0  0  0  0  0  0  0  0
   45.7660   32.9150   46.6880 N   0  0  0  0  0  0  0  0  0  0  0  0
   44.9500   32.6610   47.8600 C   0  0  0  0  0  0  0  0  0  0  0  0
   45.9960   32.3660   48.8930 C   0  0  0  0  0  0  0  0  0  0  0  0
   46.8740   31.3980   48.1170 C   0  0  0  0  0  0  0  0  0  0  0  0
   46.9390   32.0580   46.7620 C   0  0  1  0  0  0  0  0  0  0  0  0
   46.9980   31.0190   45.6690 C   0  0  0  0  0  0  0  0  0  0  0  0
   48.1660   30.0970   46.0160 C   0  0  0  0  0  0  0  0  0  0  0  0
   45.7810   30.1250   45.6710 C   0  0  0  0  0  0  0  0  0  0  0  0
   43.9747   36.7027   45.0505 H   0  0  0  0  0  0  0  0  0  0  0  0
   44.7927   36.2122   42.7287 H   0  0  0  0  0  0  0  0  0  0  0  0
   46.1058   34.0536   42.3568 H   0  0  0  0  0  0  0  0  0  0  0  0
   44.3529   33.5436   48.1331 H   0  0  0  0  0  0  0  0  0  0  0  0
   44.2112   31.8570   47.7269 H   0  0  0  0  0  0  0  0  0  0  0  0
   46.5474   33.2720   49.1849 H   0  0  0  0  0  0  0  0  0  0  0  0
   45.6074   31.9752   49.8450 H   0  0  0  0  0  0  0  0  0  0  0  0
   47.8731   31.3129   48.5693 H   0  0  0  0  0  0  0  0  0  0  0  0
   46.4880   30.3682   48.0927 H   0  0  0  0  0  0  0  0  0  0  0  0
   47.8488   32.6606   46.6238 H   0  0  0  0  0  0  0  0  0  0  0  0
   47.0799   31.5343   44.7006 H   0  0  0  0  0  0  0  0  0  0  0  0
   48.2614   30.0217   47.1093 H   0  0  0  0  0  0  0  0  0  0  0  0
   47.9822   29.0978   45.5943 H   0  0  0  0  0  0  0  0  0  0  0  0
   49.0952   30.5078   45.5943 H   0  0  0  0  0  0  0  0  0  0  0  0
   45.4866   29.9087   46.7086 H   0  0  0  0  0  0  0  0  0  0  0  0
   44.9532   30.6314   45.1529 H   0  0  0  0  0  0  0  0  0  0  0  0
   46.0167   29.1837   45.1529 H   0  0  0  0  0  0  0  0  0  0  0  0
  1  6  2  0
  2  1  1  0
  3  2  2  0
  3  4  1  0
  4  5  2  0
  5  6  1  0
  5  7  1  0
  7 11  1  0
  7  8  1  0
  8  9  1  0
 10  9  1  0
 11 10  1  0
 12 14  1  0
 12 13  1  0
 12 11  1  0
  1 15  1  0
  2 16  1  0
  3 17  1  0
  8 18  1  0
  8 19  1  0
  9 20  1  0
  9 21  1  0
 10 22  1  0
 10 23  1  0
 11 24  1  1
 12 25  1  0
 13 26  1  0
 13 27  1  0
 13 28  1  0
 14 29  1  0
 14 30  1  0
 14 31  1  0
M  ISO  8  15  14  16  14  17  14  18  13  19  13  20  13  21  13  22  13
M  ISO  8  23  13  24  13  25   8  26   8  27   8  28   8  29   8  30   8
M  ISO  1  31   8
M  END
>  <minimizedAffinity>  (1) 
-4.42960405

>  <minimizedRMSD>  (1) 
0.346784681

$$$$
