
     RDKit          3D

 25 26  0  0  1  0  0  0  0  0999 V2000
   45.5160   34.3950   44.9240 C   0  0  0  0  0  0  0  0  0  0  0  0
   46.5300   34.0490   44.0100 C   0  0  0  0  0  0  0  0  0  0  0  0
   47.2850   32.9050   44.3010 C   0  0  0  0  0  0  0  0  0  0  0  0
   46.9960   32.2070   45.4350 N   0  0  0  0  0  0  0  0  0  0  0  0
   46.0160   32.5780   46.2780 C   0  0  0  0  0  0  0  0  0  0  0  0
   45.2830   33.6680   46.0190 N   0  0  0  0  0  0  0  0  0  0  0  0
   45.8030   31.7890   47.4140 N   0  0  0  0  0  0  0  0  0  0  0  0
   44.5350   31.5710   48.0910 C   0  0  0  0  0  0  0  0  0  0  0  0
   44.9870   31.4560   49.5180 C   0  0  0  0  0  0  0  0  0  0  0  0
   46.1680   30.5150   49.3640 C   0  0  0  0  0  0  0  0  0  0  0  0
   46.8340   31.0350   48.1290 C   0  0  2  0  0  0  0  0  0  0  0  0
   48.0290   31.8640   48.4230 C   0  0  0  0  0  0  0  0  0  0  0  0
   49.1430   31.4330   48.8470 O   0  0  0  0  0  0  0  0  0  0  0  0
   48.1630   33.2390   48.2980 O   0  0  0  0  0  0  0  0  0  0  0  0
   44.9009   35.2862   44.7308 H   0  0  0  0  0  0  0  0  0  0  0  0
   46.7207   34.6497   43.1084 H   0  0  0  0  0  0  0  0  0  0  0  0
   48.0925   32.5779   43.6294 H   0  0  0  0  0  0  0  0  0  0  0  0
   43.8513   32.4213   47.9513 H   0  0  0  0  0  0  0  0  0  0  0  0
   43.9688   30.7024   47.7237 H   0  0  0  0  0  0  0  0  0  0  0  0
   45.2954   32.4302   49.9253 H   0  0  0  0  0  0  0  0  0  0  0  0
   44.2120   31.1057   50.2156 H   0  0  0  0  0  0  0  0  0  0  0  0
   46.8397   30.5737   50.2332 H   0  0  0  0  0  0  0  0  0  0  0  0
   45.8799   29.4556   49.2952 H   0  0  0  0  0  0  0  0  0  0  0  0
   47.2260   30.2075   47.5194 H   0  0  0  0  0  0  0  0  0  0  0  0
   49.0210   33.6757   48.5286 H   0  0  0  0  0  0  0  0  0  0  0  0
  1  6  2  0
  2  3  2  0
  2  1  1  0
  3  4  1  0
  4  5  2  0
  5  7  1  0
  6  5  1  0
  7  8  1  0
  7 11  1  0
  8  9  1  0
 10  9  1  0
 11 12  1  0
 11 10  1  0
 12 13  2  0
 14 12  1  0
  1 15  1  0
  2 16  1  0
  3 17  1  0
  8 18  1  0
  8 19  1  0
  9 20  1  0
  9 21  1  0
 10 22  1  0
 10 23  1  0
 11 24  1  6
 14 25  1  0
M  ISO  8  15  14  16  14  17  14  18  13  19  13  20  13  21  13  22  13
M  ISO  3  23  13  24  13  25   3
M  END
>  <minimizedAffinity>  (1) 
-3.82279015

>  <minimizedRMSD>  (1) 
1.7713927

$$$$
