
     RDKit          3D

 33 36  0  0  0  0  0  0  0  0999 V2000
   46.6410   34.7840   42.0580 C   0  0  0  0  0  0  0  0  0  0  0  0
   47.9180   35.3110   41.9690 C   0  0  0  0  0  0  0  0  0  0  0  0
   48.7230   35.1880   40.8590 C   0  0  0  0  0  0  0  0  0  0  0  0
   48.2590   34.5090   39.7640 C   0  0  0  0  0  0  0  0  0  0  0  0
   46.9960   33.9580   39.7850 C   0  0  0  0  0  0  0  0  0  0  0  0
   46.5190   33.2780   38.6870 C   0  0  0  0  0  0  0  0  0  0  0  0
   45.2520   32.7180   38.6720 C   0  0  0  0  0  0  0  0  0  0  0  0
   44.5060   32.8880   39.8260 C   0  0  0  0  0  0  0  0  0  0  0  0
   45.0070   33.5640   40.8910 C   0  0  0  0  0  0  0  0  0  0  0  0
   46.2530   34.1210   40.9220 C   0  0  0  0  0  0  0  0  0  0  0  0
   44.4040   35.9950   44.8930 C   0  0  0  0  0  0  0  0  0  0  0  0
   45.0160   35.9620   43.6550 C   0  0  0  0  0  0  0  0  0  0  0  0
   45.9240   34.9860   43.2870 C   0  0  0  0  0  0  0  0  0  0  0  0
   46.1450   34.0720   44.2770 N   0  0  0  0  0  0  0  0  0  0  0  0
   45.5660   34.0840   45.4810 C   0  0  0  0  0  0  0  0  0  0  0  0
   44.6990   35.0510   45.7720 N   0  0  0  0  0  0  0  0  0  0  0  0
   45.9020   33.0540   46.4130 N   0  0  0  0  0  0  0  0  0  0  0  0
   45.3060   32.6760   47.5800 C   0  0  0  0  0  0  0  0  0  0  0  0
   46.0380   31.6120   48.0990 C   0  0  0  0  0  0  0  0  0  0  0  0
   47.0650   31.3640   47.2380 N   0  0  0  0  0  0  0  0  0  0  0  0
   46.9750   32.2520   46.2060 C   0  0  0  0  0  0  0  0  0  0  0  0
   48.3128   35.8604   42.8363 H   0  0  0  0  0  0  0  0  0  0  0  0
   49.7298   35.6311   40.8517 H   0  0  0  0  0  0  0  0  0  0  0  0
   48.8922   34.4038   38.8707 H   0  0  0  0  0  0  0  0  0  0  0  0
   47.1603   33.1768   37.7990 H   0  0  0  0  0  0  0  0  0  0  0  0
   44.8634   32.1731   37.7990 H   0  0  0  0  0  0  0  0  0  0  0  0
   43.4907   32.4683   39.8806 H   0  0  0  0  0  0  0  0  0  0  0  0
   44.3711   33.6693   41.7824 H   0  0  0  0  0  0  0  0  0  0  0  0
   43.6860   36.7899   45.1430 H   0  0  0  0  0  0  0  0  0  0  0  0
   44.7694   36.7493   42.9275 H   0  0  0  0  0  0  0  0  0  0  0  0
   44.4101   33.1294   48.0292 H   0  0  0  0  0  0  0  0  0  0  0  0
   45.8264   31.0706   49.0328 H   0  0  0  0  0  0  0  0  0  0  0  0
   47.6603   32.3079   45.3474 H   0  0  0  0  0  0  0  0  0  0  0  0
  1 13  1  0
  2  1  2  0
  3  2  1  0
  4  5  1  0
  4  3  2  0
  5 10  2  0
  6  5  1  0
  7  6  2  0
  7  8  1  0
  8  9  2  0
  9 10  1  0
 10  1  1  0
 11 16  2  0
 12 11  1  0
 13 12  2  0
 13 14  1  0
 14 15  2  0
 15 16  1  0
 15 17  1  0
 17 18  1  0
 18 19  2  0
 20 19  1  0
 21 17  1  0
 21 20  2  0
  2 22  1  0
  3 23  1  0
  4 24  1  0
  6 25  1  0
  7 26  1  0
  8 27  1  0
  9 28  1  0
 11 29  1  0
 12 30  1  0
 18 31  1  0
 19 32  1  0
 21 33  1  0
M  ISO  8  22  14  23  14  24  14  25  14  26  14  27  14  28  14  29  14
M  ISO  4  30  14  31  14  32  14  33  14
M  END
>  <minimizedAffinity>  (1) 
-6.98380899

>  <minimizedRMSD>  (1) 
0.134900928

$$$$
