
     RDKit          3D

 46 47  0  0  1  0  0  0  0  0999 V2000
   44.3880   35.9780   44.7360 C   0  0  0  0  0  0  0  0  0  0  0  0
   44.4170   35.8900   43.3150 C   0  0  0  0  0  0  0  0  0  0  0  0
   45.0740   34.7670   42.7270 C   0  0  0  0  0  0  0  0  0  0  0  0
   45.6160   33.8790   43.5750 N   0  0  0  0  0  0  0  0  0  0  0  0
   45.5720   33.9890   44.9220 C   0  0  0  0  0  0  0  0  0  0  0  0
   44.9580   35.0380   45.4710 N   0  0  0  0  0  0  0  0  0  0  0  0
   46.1660   32.9750   45.6680 N   0  0  0  0  0  0  0  0  0  0  0  0
   45.7420   32.5800   47.0100 C   0  0  0  0  0  0  0  0  0  0  0  0
   47.0410   32.0870   47.5750 C   0  0  0  0  0  0  0  0  0  0  0  0
   47.5050   31.1960   46.4360 C   0  0  0  0  0  0  0  0  0  0  0  0
   47.2860   32.1360   45.2590 C   0  0  1  0  0  0  0  0  0  0  0  0
   46.8510   31.4780   44.0940 N   0  0  0  0  0  0  0  0  0  0  0  0
   45.5050   31.1690   44.0190 C   0  0  0  0  0  0  0  0  0  0  0  0
   45.2280   30.2450   42.8410 C   0  0  0  0  0  0  0  0  0  0  0  0
   45.7470   30.6790   41.6550 O   0  0  0  0  0  0  0  0  0  0  0  0
   47.0610   31.0450   41.7080 C   0  0  0  0  0  0  0  0  0  0  0  0
   47.2580   32.0800   42.8250 C   0  0  0  0  0  0  0  0  0  0  0  0
   48.5320   32.8450   42.7290 C   0  0  0  0  0  0  0  0  0  0  0  0
   49.7830   32.4150   42.3940 C   0  0  0  0  0  0  0  0  0  0  0  0
   50.7010   33.4270   42.4050 N   0  0  0  0  0  0  0  0  0  0  0  0
   50.0590   34.5470   42.7510 C   0  0  0  0  0  0  0  0  0  0  0  0
   48.7860   34.1730   42.9350 N   0  0  0  0  0  0  0  0  0  0  0  0
   43.8905   36.8295   45.2232 H   0  0  0  0  0  0  0  0  0  0  0  0
   43.9476   36.6636   42.6895 H   0  0  0  0  0  0  0  0  0  0  0  0
   45.1329   34.6364   41.6364 H   0  0  0  0  0  0  0  0  0  0  0  0
   45.3502   33.4353   47.5800 H   0  0  0  0  0  0  0  0  0  0  0  0
   44.9242   31.8448   47.0337 H   0  0  0  0  0  0  0  0  0  0  0  0
   47.7446   32.9120   47.7601 H   0  0  0  0  0  0  0  0  0  0  0  0
   46.9605   31.5859   48.5509 H   0  0  0  0  0  0  0  0  0  0  0  0
   48.5631   30.9150   46.5426 H   0  0  0  0  0  0  0  0  0  0  0  0
   46.9834   30.2304   46.3611 H   0  0  0  0  0  0  0  0  0  0  0  0
   48.2304   32.6517   45.0306 H   0  0  0  0  0  0  0  0  0  0  0  0
   47.0772   32.0827   43.2915 H   0  0  0  0  0  0  0  0  0  0  0  0
   45.1971   30.6695   44.9495 H   0  0  0  0  0  0  0  0  0  0  0  0
   44.9364   32.1001   43.8785 H   0  0  0  0  0  0  0  0  0  0  0  0
   45.6607   29.2592   43.0667 H   0  0  0  0  0  0  0  0  0  0  0  0
   44.1357   30.2124   42.7149 H   0  0  0  0  0  0  0  0  0  0  0  0
   47.3752   31.1325   42.7585 H   0  0  0  0  0  0  0  0  0  0  0  0
   47.6743   30.2835   41.2041 H   0  0  0  0  0  0  0  0  0  0  0  0
   47.1924   32.0139   41.2041 H   0  0  0  0  0  0  0  0  0  0  0  0
   47.0016   31.9261   43.8836 H   0  0  0  0  0  0  0  0  0  0  0  0
   46.4533   32.6444   42.3312 H   0  0  0  0  0  0  0  0  0  0  0  0
   47.3780   31.1044   42.3312 H   0  0  0  0  0  0  0  0  0  0  0  0
   50.0250   31.3716   42.1434 H   0  0  0  0  0  0  0  0  0  0  0  0
   50.4834   35.5559   42.8607 H   0  0  0  0  0  0  0  0  0  0  0  0
   48.0504   34.8386   43.2121 H   0  0  0  0  0  0  0  0  0  0  0  0
  1  6  2  0
  2  1  1  0
  3  2  2  0
  3  4  1  0
  4  5  2  0
  5  6  1  0
  5  7  1  0
  7  8  1  0
  8  9  1  0
 10  9  1  0
 11  7  1  0
 11 10  1  0
 12 11  1  0
 13 12  1  0
 14 13  1  0
 15 16  1  0
 15 14  1  0
 18 17  1  0
 18 22  1  0
 19 20  1  0
 19 18  2  0
 20 21  2  0
 21 22  1  0
  1 23  1  0
  2 24  1  0
  3 25  1  0
  8 26  1  0
  8 27  1  0
  9 28  1  0
  9 29  1  0
 10 30  1  0
 10 31  1  0
 11 32  1  6
 12 33  1  0
 13 34  1  0
 13 35  1  0
 14 36  1  0
 14 37  1  0
 16 38  1  0
 16 39  1  0
 16 40  1  0
 17 41  1  0
 17 42  1  0
 17 43  1  0
 19 44  1  0
 21 45  1  0
 22 46  1  0
M  ISO  8  23  14  24  14  25  14  26  13  27  13  28  13  29  13  30  13
M  ISO  8  31  13  32  13  33   5  34   8  35   8  36   8  37   8  38   8
M  ISO  8  39   8  40   8  41   8  42   8  43   8  44  14  45  14  46   9
M  END
>  <minimizedAffinity>  (1) 
-5.16993046

>  <minimizedRMSD>  (1) 
1.2294147

$$$$
