
     RDKit          3D

 42 45  0  0  1  0  0  0  0  0999 V2000
   44.6040   35.4470   45.4860 C   0  0  0  0  0  0  0  0  0  0  0  0
   44.6590   36.2940   44.3510 C   0  0  0  0  0  0  0  0  0  0  0  0
   45.3560   35.8250   43.2010 C   0  0  0  0  0  0  0  0  0  0  0  0
   45.8930   34.6080   43.3210 N   0  0  0  0  0  0  0  0  0  0  0  0
   45.8360   33.8210   44.3920 C   0  0  0  0  0  0  0  0  0  0  0  0
   45.1860   34.2550   45.4680 N   0  0  0  0  0  0  0  0  0  0  0  0
   46.4680   32.5710   44.3550 N   0  0  0  0  0  0  0  0  0  0  0  0
   46.0570   31.3800   45.0790 C   0  0  0  0  0  0  0  0  0  0  0  0
   47.4200   30.7380   45.2760 C   0  0  0  0  0  0  0  0  0  0  0  0
   47.9600   30.8390   43.8460 C   0  0  0  0  0  0  0  0  0  0  0  0
   47.6730   32.2710   43.5620 C   0  0  1  0  0  0  0  0  0  0  0  0
   47.2590   32.6130   42.2240 N   0  0  0  0  0  0  0  0  0  0  0  0
   45.9930   32.2100   41.8790 C   0  0  0  0  0  0  0  0  0  0  0  0
   45.7870   32.3300   40.3710 C   0  0  0  0  0  0  0  0  0  0  0  0
   46.3020   33.4460   39.7940 O   0  0  0  0  0  0  0  0  0  0  0  0
   47.5730   33.7420   40.1810 C   0  0  0  0  0  0  0  0  0  0  0  0
   47.8070   33.7320   41.6980 C   0  0  2  0  0  0  0  0  0  0  0  0
   49.2610   33.2930   41.7230 N   0  0  0  0  0  0  0  0  0  0  0  0
   49.7350   32.2940   40.9560 C   0  0  0  0  0  0  0  0  0  0  0  0
   51.1040   32.1250   41.1970 C   0  0  0  0  0  0  0  0  0  0  0  0
   51.4120   33.0330   42.1060 N   0  0  0  0  0  0  0  0  0  0  0  0
   50.3260   33.7250   42.4200 C   0  0  0  0  0  0  0  0  0  0  0  0
   44.0739   35.7810   46.3901 H   0  0  0  0  0  0  0  0  0  0  0  0
   44.1781   37.2833   44.3581 H   0  0  0  0  0  0  0  0  0  0  0  0
   45.4455   36.4215   42.2811 H   0  0  0  0  0  0  0  0  0  0  0  0
   45.5747   31.6256   46.0366 H   0  0  0  0  0  0  0  0  0  0  0  0
   45.3083   30.7535   44.5721 H   0  0  0  0  0  0  0  0  0  0  0  0
   48.0395   31.3021   45.9888 H   0  0  0  0  0  0  0  0  0  0  0  0
   47.4011   29.7220   45.6973 H   0  0  0  0  0  0  0  0  0  0  0  0
   49.0373   30.6217   43.8002 H   0  0  0  0  0  0  0  0  0  0  0  0
   47.5183   30.1276   43.1326 H   0  0  0  0  0  0  0  0  0  0  0  0
   48.6112   32.8076   43.7666 H   0  0  0  0  0  0  0  0  0  0  0  0
   45.8515   31.1619   42.1816 H   0  0  0  0  0  0  0  0  0  0  0  0
   45.2625   32.8539   42.3906 H   0  0  0  0  0  0  0  0  0  0  0  0
   46.2560   31.4562   39.8951 H   0  0  0  0  0  0  0  0  0  0  0  0
   44.6990   32.3891   40.2205 H   0  0  0  0  0  0  0  0  0  0  0  0
   48.2492   33.0031   39.7263 H   0  0  0  0  0  0  0  0  0  0  0  0
   47.7646   34.7723   39.8467 H   0  0  0  0  0  0  0  0  0  0  0  0
   47.4730   34.6599   42.1853 H   0  0  0  0  0  0  0  0  0  0  0  0
   49.1381   31.7007   40.2477 H   0  0  0  0  0  0  0  0  0  0  0  0
   51.7787   31.3928   40.7295 H   0  0  0  0  0  0  0  0  0  0  0  0
   50.2998   34.5442   43.1537 H   0  0  0  0  0  0  0  0  0  0  0  0
  2  1  2  0
  3  4  2  0
  3  2  1  0
  4  5  1  0
  5  6  2  0
  6  1  1  0
  7  5  1  0
  7  8  1  0
  8  9  1  0
 10  9  1  0
 11 10  1  0
 11  7  1  0
 12 13  1  0
 12 11  1  0
 14 13  1  0
 15 16  1  0
 15 14  1  0
 16 17  1  0
 17 18  1  0
 17 12  1  0
 18 22  1  0
 19 20  2  0
 19 18  1  0
 20 21  1  0
 21 22  2  0
  1 23  1  0
  2 24  1  0
  3 25  1  0
  8 26  1  0
  8 27  1  0
  9 28  1  0
  9 29  1  0
 10 30  1  0
 10 31  1  0
 11 32  1  1
 13 33  1  0
 13 34  1  0
 14 35  1  0
 14 36  1  0
 16 37  1  0
 16 38  1  0
 17 39  1  1
 19 40  1  0
 20 41  1  0
 22 42  1  0
M  ISO  8  23  14  24  14  25  14  26  13  27  13  28  13  29  13  30  13
M  ISO  8  31  13  32  13  33  13  34  13  35  13  36  13  37  13  38  13
M  ISO  4  39  13  40  14  41  14  42  14
M  END
>  <minimizedAffinity>  (1) 
-5.11930132

>  <minimizedRMSD>  (1) 
3.17879486

$$$$
