
     RDKit          3D

 43 46  0  0  1  0  0  0  0  0999 V2000
   44.6180   35.4050   45.6330 C   0  0  0  0  0  0  0  0  0  0  0  0
   44.5870   36.2430   44.4880 C   0  0  0  0  0  0  0  0  0  0  0  0
   45.1570   35.7450   43.2840 C   0  0  0  0  0  0  0  0  0  0  0  0
   45.6740   34.5230   43.3510 N   0  0  0  0  0  0  0  0  0  0  0  0
   45.6970   33.7470   44.4350 C   0  0  0  0  0  0  0  0  0  0  0  0
   45.1660   34.1970   45.5700 N   0  0  0  0  0  0  0  0  0  0  0  0
   46.2850   32.4740   44.3500 N   0  0  0  0  0  0  0  0  0  0  0  0
   45.9170   31.2990   45.1260 C   0  0  0  0  0  0  0  0  0  0  0  0
   47.2710   30.6160   45.1920 C   0  0  0  0  0  0  0  0  0  0  0  0
   47.6630   30.6850   43.7110 C   0  0  0  0  0  0  0  0  0  0  0  0
   47.3920   32.1230   43.4400 C   0  0  1  0  0  0  0  0  0  0  0  0
   46.8570   32.4710   42.1510 N   0  0  0  0  0  0  0  0  0  0  0  0
   45.5410   32.1260   41.9510 C   0  0  0  0  0  0  0  0  0  0  0  0
   45.1820   32.2250   40.4730 C   0  0  0  0  0  0  0  0  0  0  0  0
   45.6610   33.3280   39.8310 O   0  0  0  0  0  0  0  0  0  0  0  0
   46.9830   33.5560   40.0610 C   0  0  0  0  0  0  0  0  0  0  0  0
   47.3920   33.5520   41.5420 C   0  0  2  0  0  0  0  0  0  0  0  0
   48.8450   33.0220   41.3890 C   0  0  0  0  0  0  0  0  0  0  0  0
   49.8090   33.5890   42.2290 C   0  0  0  0  0  0  0  0  0  0  0  0
   51.1610   33.2250   42.2210 C   0  0  0  0  0  0  0  0  0  0  0  0
   51.4910   32.2730   41.3380 N   0  0  0  0  0  0  0  0  0  0  0  0
   50.5900   31.7240   40.5350 C   0  0  0  0  0  0  0  0  0  0  0  0
   49.2980   32.0820   40.5510 N   0  0  0  0  0  0  0  0  0  0  0  0
   44.1847   35.7589   46.5801 H   0  0  0  0  0  0  0  0  0  0  0  0
   44.1365   37.2456   44.5305 H   0  0  0  0  0  0  0  0  0  0  0  0
   45.1691   36.3346   42.3555 H   0  0  0  0  0  0  0  0  0  0  0  0
   45.5421   31.5666   46.1249 H   0  0  0  0  0  0  0  0  0  0  0  0
   45.1036   30.6914   44.7027 H   0  0  0  0  0  0  0  0  0  0  0  0
   47.9779   31.1673   45.8295 H   0  0  0  0  0  0  0  0  0  0  0  0
   47.2647   29.6060   45.6277 H   0  0  0  0  0  0  0  0  0  0  0  0
   48.7226   30.4329   43.5568 H   0  0  0  0  0  0  0  0  0  0  0  0
   47.1284   29.9809   43.0564 H   0  0  0  0  0  0  0  0  0  0  0  0
   48.3649   32.6263   43.5407 H   0  0  0  0  0  0  0  0  0  0  0  0
   45.3814   31.0931   42.2939 H   0  0  0  0  0  0  0  0  0  0  0  0
   44.9016   32.8173   42.5195 H   0  0  0  0  0  0  0  0  0  0  0  0
   45.5827   31.3352   39.9654 H   0  0  0  0  0  0  0  0  0  0  0  0
   44.0854   32.2996   40.4301 H   0  0  0  0  0  0  0  0  0  0  0  0
   47.5594   32.7739   39.5452 H   0  0  0  0  0  0  0  0  0  0  0  0
   47.1911   34.5690   39.6862 H   0  0  0  0  0  0  0  0  0  0  0  0
   47.1649   34.5001   42.0514 H   0  0  0  0  0  0  0  0  0  0  0  0
   49.4861   34.3663   42.9372 H   0  0  0  0  0  0  0  0  0  0  0  0
   51.8997   33.6878   42.8920 H   0  0  0  0  0  0  0  0  0  0  0  0
   50.9147   30.9454   39.8290 H   0  0  0  0  0  0  0  0  0  0  0  0
  2  1  2  0
  3  4  2  0
  3  2  1  0
  4  5  1  0
  5  6  2  0
  6  1  1  0
  7  5  1  0
  7  8  1  0
  8  9  1  0
 10  9  1  0
 11 10  1  0
 11  7  1  0
 12 13  1  0
 12 11  1  0
 14 13  1  0
 15 16  1  0
 15 14  1  0
 16 17  1  0
 17 12  1  0
 18 17  1  0
 18 19  2  0
 20 19  1  0
 21 20  2  0
 22 23  2  0
 22 21  1  0
 23 18  1  0
  1 24  1  0
  2 25  1  0
  3 26  1  0
  8 27  1  0
  8 28  1  0
  9 29  1  0
  9 30  1  0
 10 31  1  0
 10 32  1  0
 11 33  1  1
 13 34  1  0
 13 35  1  0
 14 36  1  0
 14 37  1  0
 16 38  1  0
 16 39  1  0
 17 40  1  1
 19 41  1  0
 20 42  1  0
 22 43  1  0
M  ISO  8  24  14  25  14  26  14  27  13  28  13  29  13  30  13  31  13
M  ISO  8  32  13  33  13  34  13  35  13  36  13  37  13  38  13  39  13
M  ISO  4  40  13  41  14  42  14  43  14
M  END
>  <minimizedAffinity>  (1) 
-5.11903954

>  <minimizedRMSD>  (1) 
3.41682768

$$$$
