
     RDKit          3D

 42 45  0  0  1  0  0  0  0  0999 V2000
   44.5980   35.4100   45.6340 C   0  0  0  0  0  0  0  0  0  0  0  0
   44.5870   36.2010   44.4580 C   0  0  0  0  0  0  0  0  0  0  0  0
   45.2050   35.6760   43.2850 C   0  0  0  0  0  0  0  0  0  0  0  0
   45.7410   34.4660   43.4170 N   0  0  0  0  0  0  0  0  0  0  0  0
   45.7450   33.7330   44.5270 C   0  0  0  0  0  0  0  0  0  0  0  0
   45.1710   34.2190   45.6200 N   0  0  0  0  0  0  0  0  0  0  0  0
   46.3630   32.4650   44.5140 N   0  0  0  0  0  0  0  0  0  0  0  0
   45.9820   31.3230   45.3140 C   0  0  0  0  0  0  0  0  0  0  0  0
   47.3450   30.6620   45.4570 C   0  0  0  0  0  0  0  0  0  0  0  0
   47.7950   30.6920   43.9940 C   0  0  0  0  0  0  0  0  0  0  0  0
   47.5150   32.1190   43.6610 C   0  0  1  0  0  0  0  0  0  0  0  0
   47.0260   32.4140   42.3400 N   0  0  0  0  0  0  0  0  0  0  0  0
   45.7360   32.0040   42.0870 C   0  0  0  0  0  0  0  0  0  0  0  0
   45.4620   32.0420   40.5830 C   0  0  0  0  0  0  0  0  0  0  0  0
   45.9240   33.1620   39.9420 O   0  0  0  0  0  0  0  0  0  0  0  0
   47.2420   33.3950   40.2270 C   0  0  0  0  0  0  0  0  0  0  0  0
   47.5450   33.4990   41.7330 C   0  0  2  0  0  0  0  0  0  0  0  0
   49.0470   33.1000   41.7080 C   0  0  0  0  0  0  0  0  0  0  0  0
   50.0250   33.8050   42.4190 C   0  0  0  0  0  0  0  0  0  0  0  0
   51.2800   33.2180   42.2080 C   0  0  0  0  0  0  0  0  0  0  0  0
   50.9710   32.1860   41.3710 C   0  0  0  0  0  0  0  0  0  0  0  0
   49.7240   32.1260   41.0960 O   0  0  0  0  0  0  0  0  0  0  0  0
   44.1308   35.7863   46.5560 H   0  0  0  0  0  0  0  0  0  0  0  0
   44.1140   37.1941   44.4503 H   0  0  0  0  0  0  0  0  0  0  0  0
   45.2362   36.2330   42.3370 H   0  0  0  0  0  0  0  0  0  0  0  0
   45.5654   31.6224   46.2870 H   0  0  0  0  0  0  0  0  0  0  0  0
   45.1929   30.6884   44.8843 H   0  0  0  0  0  0  0  0  0  0  0  0
   48.0171   31.2436   46.1051 H   0  0  0  0  0  0  0  0  0  0  0  0
   47.3357   29.6659   45.9237 H   0  0  0  0  0  0  0  0  0  0  0  0
   48.8635   30.4518   43.8914 H   0  0  0  0  0  0  0  0  0  0  0  0
   47.2958   29.9596   43.3426 H   0  0  0  0  0  0  0  0  0  0  0  0
   48.4716   32.6488   43.7801 H   0  0  0  0  0  0  0  0  0  0  0  0
   45.6010   30.9767   42.4563 H   0  0  0  0  0  0  0  0  0  0  0  0
   45.0349   32.6791   42.5995 H   0  0  0  0  0  0  0  0  0  0  0  0
   45.9414   31.1639   40.1257 H   0  0  0  0  0  0  0  0  0  0  0  0
   44.3681   32.0489   40.4680 H   0  0  0  0  0  0  0  0  0  0  0  0
   47.8378   32.5698   39.8099 H   0  0  0  0  0  0  0  0  0  0  0  0
   47.4982   34.3676   39.7815 H   0  0  0  0  0  0  0  0  0  0  0  0
   47.2226   34.4466   42.1891 H   0  0  0  0  0  0  0  0  0  0  0  0
   49.8369   34.6871   43.0487 H   0  0  0  0  0  0  0  0  0  0  0  0
   52.2596   33.5128   42.6122 H   0  0  0  0  0  0  0  0  0  0  0  0
   51.7159   31.4803   40.9747 H   0  0  0  0  0  0  0  0  0  0  0  0
  2  1  2  0
  3  4  2  0
  3  2  1  0
  4  5  1  0
  5  6  2  0
  6  1  1  0
  7  5  1  0
  7  8  1  0
  8  9  1  0
 10  9  1  0
 11 10  1  0
 11  7  1  0
 12 13  1  0
 12 11  1  0
 14 13  1  0
 15 16  1  0
 15 14  1  0
 16 17  1  0
 17 12  1  0
 18 17  1  0
 18 19  2  0
 20 19  1  0
 21 20  2  0
 22 21  1  0
 22 18  1  0
  1 23  1  0
  2 24  1  0
  3 25  1  0
  8 26  1  0
  8 27  1  0
  9 28  1  0
  9 29  1  0
 10 30  1  0
 10 31  1  0
 11 32  1  1
 13 33  1  0
 13 34  1  0
 14 35  1  0
 14 36  1  0
 16 37  1  0
 16 38  1  0
 17 39  1  1
 19 40  1  0
 20 41  1  0
 21 42  1  0
M  ISO  8  23  14  24  14  25  14  26  13  27  13  28  13  29  13  30  13
M  ISO  8  31  13  32  13  33  13  34  13  35  13  36  13  37  13  38  13
M  ISO  4  39  13  40  14  41  14  42  14
M  END
>  <minimizedAffinity>  (1) 
-5.05990982

>  <minimizedRMSD>  (1) 
3.05161428

$$$$
