
     RDKit          3D

 32 35  0  0  0  0  0  0  0  0999 V2000
   46.6900   34.7890   42.0370 C   0  0  0  0  0  0  0  0  0  0  0  0
   47.9500   35.3450   41.9560 C   0  0  0  0  0  0  0  0  0  0  0  0
   48.7600   35.2420   40.8450 C   0  0  0  0  0  0  0  0  0  0  0  0
   48.3190   34.5570   39.7490 C   0  0  0  0  0  0  0  0  0  0  0  0
   47.0690   33.9790   39.7660 C   0  0  0  0  0  0  0  0  0  0  0  0
   46.6110   33.2880   38.6640 C   0  0  0  0  0  0  0  0  0  0  0  0
   45.3630   32.6970   38.6420 C   0  0  0  0  0  0  0  0  0  0  0  0
   44.5980   32.8430   39.8020 C   0  0  0  0  0  0  0  0  0  0  0  0
   45.0850   33.5300   40.8640 C   0  0  0  0  0  0  0  0  0  0  0  0
   46.3180   34.1180   40.8960 C   0  0  0  0  0  0  0  0  0  0  0  0
   44.4200   35.9730   44.8640 C   0  0  0  0  0  0  0  0  0  0  0  0
   45.0460   35.9520   43.6340 C   0  0  0  0  0  0  0  0  0  0  0  0
   45.9690   34.9760   43.2620 C   0  0  0  0  0  0  0  0  0  0  0  0
   46.1860   34.0500   44.2410 N   0  0  0  0  0  0  0  0  0  0  0  0
   45.5850   34.0580   45.4420 C   0  0  0  0  0  0  0  0  0  0  0  0
   44.7120   35.0190   45.7330 N   0  0  0  0  0  0  0  0  0  0  0  0
   45.9330   32.9800   46.3900 C   0  0  0  0  0  0  0  0  0  0  0  0
   46.9370   32.0130   46.1510 C   0  0  0  0  0  0  0  0  0  0  0  0
   46.8540   31.0160   47.6690 S   0  0  0  0  0  0  0  0  0  0  0  0
   45.4550   32.0910   48.3800 C   0  0  0  0  0  0  0  0  0  0  0  0
   45.2720   32.9050   47.5380 N   0  0  0  0  0  0  0  0  0  0  0  0
   48.3294   35.9012   42.8259 H   0  0  0  0  0  0  0  0  0  0  0  0
   49.7559   35.7090   40.8415 H   0  0  0  0  0  0  0  0  0  0  0  0
   48.9581   34.4674   38.8582 H   0  0  0  0  0  0  0  0  0  0  0  0
   47.2576   33.2052   37.7780 H   0  0  0  0  0  0  0  0  0  0  0  0
   44.9939   32.1451   37.7650 H   0  0  0  0  0  0  0  0  0  0  0  0
   43.5936   32.3973   39.8537 H   0  0  0  0  0  0  0  0  0  0  0  0
   44.4477   33.6198   41.7561 H   0  0  0  0  0  0  0  0  0  0  0  0
   43.6968   36.7628   45.1153 H   0  0  0  0  0  0  0  0  0  0  0  0
   44.8044   36.7452   42.9112 H   0  0  0  0  0  0  0  0  0  0  0  0
   47.5946   31.8952   45.2771 H   0  0  0  0  0  0  0  0  0  0  0  0
   44.9379   31.9828   49.3448 H   0  0  0  0  0  0  0  0  0  0  0  0
  1 13  1  0
  2  1  2  0
  3  2  1  0
  4  5  1  0
  4  3  2  0
  5 10  2  0
  6  5  1  0
  7  6  2  0
  7  8  1  0
  8  9  2  0
  9 10  1  0
 10  1  1  0
 11 16  2  0
 12 11  1  0
 13 12  2  0
 13 14  1  0
 14 15  2  0
 15 16  1  0
 15 17  1  0
 17 21  1  0
 18 17  2  0
 18 19  1  0
 19 20  1  0
 21 20  2  0
  2 22  1  0
  3 23  1  0
  4 24  1  0
  6 25  1  0
  7 26  1  0
  8 27  1  0
  9 28  1  0
 11 29  1  0
 12 30  1  0
 18 31  1  0
 20 32  1  0
M  ISO  8  22  14  23  14  24  14  25  14  26  14  27  14  28  14  29  14
M  ISO  3  30  14  31  14  32  14
M  END
>  <minimizedAffinity>  (1) 
-6.73575974

>  <minimizedRMSD>  (1) 
0.191979825

$$$$
