
     RDKit          3D

 33 36  0  0  0  0  0  0  0  0999 V2000
   46.6890   34.7940   42.0370 C   0  0  0  0  0  0  0  0  0  0  0  0
   47.9530   35.3500   41.9420 C   0  0  0  0  0  0  0  0  0  0  0  0
   48.7590   35.2470   40.8430 C   0  0  0  0  0  0  0  0  0  0  0  0
   48.3090   34.5490   39.7410 C   0  0  0  0  0  0  0  0  0  0  0  0
   47.0570   33.9660   39.7640 C   0  0  0  0  0  0  0  0  0  0  0  0
   46.5990   33.2800   38.6700 C   0  0  0  0  0  0  0  0  0  0  0  0
   45.3490   32.6940   38.6500 C   0  0  0  0  0  0  0  0  0  0  0  0
   44.5980   32.8460   39.8020 C   0  0  0  0  0  0  0  0  0  0  0  0
   45.0810   33.5330   40.8720 C   0  0  0  0  0  0  0  0  0  0  0  0
   46.3130   34.1150   40.9020 C   0  0  0  0  0  0  0  0  0  0  0  0
   44.4100   35.9750   44.8640 C   0  0  0  0  0  0  0  0  0  0  0  0
   45.0400   35.9560   43.6200 C   0  0  0  0  0  0  0  0  0  0  0  0
   45.9690   34.9850   43.2640 C   0  0  0  0  0  0  0  0  0  0  0  0
   46.1900   34.0700   44.2530 N   0  0  0  0  0  0  0  0  0  0  0  0
   45.6000   34.0730   45.4410 C   0  0  0  0  0  0  0  0  0  0  0  0
   44.7200   35.0140   45.7440 N   0  0  0  0  0  0  0  0  0  0  0  0
   45.9310   33.0270   46.4090 C   0  0  0  0  0  0  0  0  0  0  0  0
   46.9080   32.0390   46.4100 C   0  0  0  0  0  0  0  0  0  0  0  0
   46.7230   31.3500   47.6020 C   0  0  0  0  0  0  0  0  0  0  0  0
   45.6920   31.9010   48.2700 N   0  0  0  0  0  0  0  0  0  0  0  0
   45.2110   32.9070   47.5630 N   0  0  0  0  0  0  0  0  0  0  0  0
   48.3338   35.9116   42.8078 H   0  0  0  0  0  0  0  0  0  0  0  0
   49.7545   35.7149   40.8370 H   0  0  0  0  0  0  0  0  0  0  0  0
   48.9447   34.4572   38.8480 H   0  0  0  0  0  0  0  0  0  0  0  0
   47.2447   33.1938   37.7836 H   0  0  0  0  0  0  0  0  0  0  0  0
   44.9746   32.1422   37.7751 H   0  0  0  0  0  0  0  0  0  0  0  0
   43.5923   32.4033   39.8535 H   0  0  0  0  0  0  0  0  0  0  0  0
   44.4417   33.6239   41.7626 H   0  0  0  0  0  0  0  0  0  0  0  0
   43.6789   36.7574   45.1155 H   0  0  0  0  0  0  0  0  0  0  0  0
   44.7918   36.7413   42.8908 H   0  0  0  0  0  0  0  0  0  0  0  0
   47.6640   31.8446   45.6350 H   0  0  0  0  0  0  0  0  0  0  0  0
   47.3218   30.4932   47.9446 H   0  0  0  0  0  0  0  0  0  0  0  0
   45.3361   31.5883   49.1846 H   0  0  0  0  0  0  0  0  0  0  0  0
  1 13  1  0
  2  1  2  0
  3  2  1  0
  4  5  1  0
  4  3  2  0
  5 10  2  0
  6  5  1  0
  7  6  2  0
  7  8  1  0
  8  9  2  0
  9 10  1  0
 10  1  1  0
 11 16  2  0
 12 11  1  0
 13 12  2  0
 13 14  1  0
 14 15  2  0
 15 16  1  0
 15 17  1  0
 17 18  1  0
 17 21  2  0
 18 19  2  0
 19 20  1  0
 21 20  1  0
  2 22  1  0
  3 23  1  0
  4 24  1  0
  6 25  1  0
  7 26  1  0
  8 27  1  0
  9 28  1  0
 11 29  1  0
 12 30  1  0
 18 31  1  0
 19 32  1  0
 20 33  1  0
M  ISO  8  22  14  23  14  24  14  25  14  26  14  27  14  28  14  29  14
M  ISO  4  30  14  31  14  32  14  33   9
M  END
>  <minimizedAffinity>  (1) 
-6.71290874

>  <minimizedRMSD>  (1) 
0.334055513

$$$$
