
     RDKit          3D

 32 34  0  0  1  0  0  0  0  0999 V2000
   47.1990   34.6270   42.4890 N   0  0  0  0  0  0  0  0  0  0  0  0
   48.6470   34.5120   42.5140 C   0  0  0  0  0  0  0  0  0  0  0  0
   48.9990   35.3560   41.3150 C   0  0  0  0  0  0  0  0  0  0  0  0
   48.0520   34.7500   40.2820 C   0  0  0  0  0  0  0  0  0  0  0  0
   46.7990   34.6100   41.0870 C   0  0  1  0  0  0  0  0  0  0  0  0
   45.4860   33.9440   45.7170 C   0  0  0  0  0  0  0  0  0  0  0  0
   46.3810   33.8010   44.6400 C   0  0  0  0  0  0  0  0  0  0  0  0
   46.3300   34.7330   43.5730 C   0  0  0  0  0  0  0  0  0  0  0  0
   45.4070   35.7260   43.6480 N   0  0  0  0  0  0  0  0  0  0  0  0
   44.5560   35.8300   44.7100 C   0  0  0  0  0  0  0  0  0  0  0  0
   44.6060   34.9430   45.7230 N   0  0  0  0  0  0  0  0  0  0  0  0
   45.9110   33.5740   40.7160 N   0  0  0  0  0  0  0  0  0  0  0  0
   46.3150   32.2810   40.5370 C   0  0  0  0  0  0  0  0  0  0  0  0
   45.4900   31.2200   40.1730 C   0  0  0  0  0  0  0  0  0  0  0  0
   44.1550   31.5240   39.9820 C   0  0  0  0  0  0  0  0  0  0  0  0
   43.4430   30.5360   39.6530 O   0  0  0  0  0  0  0  0  0  0  0  0
   43.7340   32.7910   40.1520 N   0  0  0  0  0  0  0  0  0  0  0  0
   44.5940   33.7450   40.5020 C   0  0  0  0  0  0  0  0  0  0  0  0
   44.0860   34.8850   40.6310 O   0  0  0  0  0  0  0  0  0  0  0  0
   49.0729   34.9228   43.4413 H   0  0  0  0  0  0  0  0  0  0  0  0
   49.0299   33.4813   42.4828 H   0  0  0  0  0  0  0  0  0  0  0  0
   48.7872   36.4214   41.4885 H   0  0  0  0  0  0  0  0  0  0  0  0
   50.0625   35.3439   41.0341 H   0  0  0  0  0  0  0  0  0  0  0  0
   48.4141   33.7742   39.9261 H   0  0  0  0  0  0  0  0  0  0  0  0
   47.9372   35.3495   39.3669 H   0  0  0  0  0  0  0  0  0  0  0  0
   46.1406   35.4635   40.8679 H   0  0  0  0  0  0  0  0  0  0  0  0
   45.5137   33.2304   46.5536 H   0  0  0  0  0  0  0  0  0  0  0  0
   47.1100   32.9774   44.6265 H   0  0  0  0  0  0  0  0  0  0  0  0
   43.8207   36.6476   44.7392 H   0  0  0  0  0  0  0  0  0  0  0  0
   47.3811   32.0598   40.6935 H   0  0  0  0  0  0  0  0  0  0  0  0
   45.8782   30.1988   40.0448 H   0  0  0  0  0  0  0  0  0  0  0  0
   42.7407   33.0238   40.0105 H   0  0  0  0  0  0  0  0  0  0  0  0
  1  2  1  0
  1  8  1  0
  3  2  1  0
  4  5  1  0
  4  3  1  0
  5  1  1  0
  6 11  2  0
  7  6  1  0
  8  9  1  0
  8  7  2  0
  9 10  2  0
 10 11  1  0
 12  5  1  0
 13 12  1  0
 14 13  2  0
 15 17  1  0
 15 14  1  0
 16 15  2  0
 17 18  1  0
 18 19  2  0
 18 12  1  0
  2 20  1  0
  2 21  1  0
  3 22  1  0
  3 23  1  0
  4 24  1  0
  4 25  1  0
  5 26  1  1
  6 27  1  0
  7 28  1  0
 10 29  1  0
 13 30  1  0
 14 31  1  0
 17 32  1  0
M  ISO  8  20  13  21  13  22  13  23  13  24  13  25  13  26  13  27  14
M  ISO  5  28  14  29  14  30  14  31  14  32   9
M  END
>  <minimizedAffinity>  (1) 
-4.93839073

>  <minimizedRMSD>  (1) 
1.74081016

$$$$
