
     RDKit          3D

 35 37  0  0  1  0  0  0  0  0999 V2000
   47.2760   34.5080   42.6590 N   0  0  0  0  0  0  0  0  0  0  0  0
   48.6810   34.1640   42.6920 C   0  0  0  0  0  0  0  0  0  0  0  0
   49.2050   35.1560   41.6600 C   0  0  0  0  0  0  0  0  0  0  0  0
   48.2470   34.8550   40.5260 C   0  0  0  0  0  0  0  0  0  0  0  0
   46.9370   34.7270   41.2720 C   0  0  1  0  0  0  0  0  0  0  0  0
   44.4910   35.6780   44.8450 C   0  0  0  0  0  0  0  0  0  0  0  0
   45.3600   35.6150   43.7560 C   0  0  0  0  0  0  0  0  0  0  0  0
   46.3700   34.6220   43.7290 C   0  0  0  0  0  0  0  0  0  0  0  0
   46.4410   33.7680   44.7830 N   0  0  0  0  0  0  0  0  0  0  0  0
   45.5740   33.8570   45.8360 C   0  0  0  0  0  0  0  0  0  0  0  0
   44.6160   34.8070   45.8480 N   0  0  0  0  0  0  0  0  0  0  0  0
   46.1780   33.6000   40.6450 C   0  0  0  0  0  0  0  0  0  0  0  0
   46.7160   33.4190   39.2380 C   0  0  0  0  0  0  0  0  0  0  0  0
   45.6710   32.5010   38.6370 C   0  0  0  0  0  0  0  0  0  0  0  0
   44.3830   32.9470   39.2460 C   0  0  0  0  0  0  0  0  0  0  0  0
   44.7310   33.8690   40.3960 C   0  0  0  0  0  0  0  0  0  0  0  0
   49.1221   34.3334   43.6854 H   0  0  0  0  0  0  0  0  0  0  0  0
   48.9103   33.1080   42.4861 H   0  0  0  0  0  0  0  0  0  0  0  0
   49.1177   36.1960   42.0075 H   0  0  0  0  0  0  0  0  0  0  0  0
   50.2725   35.0589   41.4130 H   0  0  0  0  0  0  0  0  0  0  0  0
   48.5116   33.9186   40.0129 H   0  0  0  0  0  0  0  0  0  0  0  0
   48.2397   35.6129   39.7288 H   0  0  0  0  0  0  0  0  0  0  0  0
   46.2930   35.6172   41.2198 H   0  0  0  0  0  0  0  0  0  0  0  0
   43.7032   36.4451   44.8770 H   0  0  0  0  0  0  0  0  0  0  0  0
   45.2621   36.3298   42.9257 H   0  0  0  0  0  0  0  0  0  0  0  0
   45.6576   33.1519   46.6762 H   0  0  0  0  0  0  0  0  0  0  0  0
   46.2893   32.7577   41.3437 H   0  0  0  0  0  0  0  0  0  0  0  0
   46.7676   34.3772   38.7002 H   0  0  0  0  0  0  0  0  0  0  0  0
   47.7416   33.0236   39.1950 H   0  0  0  0  0  0  0  0  0  0  0  0
   45.6415   32.6100   37.5428 H   0  0  0  0  0  0  0  0  0  0  0  0
   45.8823   31.4403   38.8379 H   0  0  0  0  0  0  0  0  0  0  0  0
   43.7791   33.4849   38.5003 H   0  0  0  0  0  0  0  0  0  0  0  0
   43.7968   32.0853   39.5981 H   0  0  0  0  0  0  0  0  0  0  0  0
   44.5706   34.9208   40.1169 H   0  0  0  0  0  0  0  0  0  0  0  0
   44.1073   33.6933   41.2849 H   0  0  0  0  0  0  0  0  0  0  0  0
  1  2  1  0
  1  8  1  0
  3  2  1  0
  4  5  1  0
  4  3  1  0
  5  1  1  0
  6 11  2  0
  7  6  1  0
  8  7  2  0
  8  9  1  0
  9 10  2  0
 10 11  1  0
 12  5  1  0
 13 12  1  0
 14 13  1  0
 14 15  1  0
 15 16  1  0
 16 12  1  0
  2 17  1  0
  2 18  1  0
  3 19  1  0
  3 20  1  0
  4 21  1  0
  4 22  1  0
  5 23  1  1
  6 24  1  0
  7 25  1  0
 10 26  1  0
 12 27  1  0
 13 28  1  0
 13 29  1  0
 14 30  1  0
 14 31  1  0
 15 32  1  0
 15 33  1  0
 16 34  1  0
 16 35  1  0
M  ISO  8  17  13  18  13  19  13  20  13  21  13  22  13  23  13  24  14
M  ISO  8  25  14  26  14  27  13  28  13  29  13  30  13  31  13  32  13
M  ISO  3  33  13  34  13  35  13
M  END
>  <minimizedAffinity>  (1) 
-4.70963335

>  <minimizedRMSD>  (1) 
1.82270098

$$$$
