
     RDKit          3D

 35 37  0  0  1  0  0  0  0  0999 V2000
   47.2110   34.6920   42.2970 N   0  0  0  0  0  0  0  0  0  0  0  0
   48.6720   34.7650   42.3050 C   0  0  0  0  0  0  0  0  0  0  0  0
   48.9180   35.4960   41.0130 C   0  0  0  0  0  0  0  0  0  0  0  0
   48.0460   34.6860   40.0610 C   0  0  0  0  0  0  0  0  0  0  0  0
   46.8540   34.4160   40.9240 C   0  0  1  0  0  0  0  0  0  0  0  0
   44.4950   35.9650   44.4880 C   0  0  0  0  0  0  0  0  0  0  0  0
   45.3580   35.8900   43.3740 C   0  0  0  0  0  0  0  0  0  0  0  0
   46.3140   34.8480   43.3570 C   0  0  0  0  0  0  0  0  0  0  0  0
   46.3500   33.9810   44.4070 N   0  0  0  0  0  0  0  0  0  0  0  0
   45.4950   34.0960   45.4590 C   0  0  0  0  0  0  0  0  0  0  0  0
   44.5860   35.0740   45.4910 N   0  0  0  0  0  0  0  0  0  0  0  0
   46.2550   33.1250   40.7530 N   0  0  0  0  0  0  0  0  0  0  0  0
   44.9450   33.1520   40.1970 C   0  0  0  0  0  0  0  0  0  0  0  0
   44.6790   32.0160   39.2390 C   0  0  0  0  0  0  0  0  0  0  0  0
   45.1500   30.8050   39.6930 O   0  0  0  0  0  0  0  0  0  0  0  0
   46.4050   30.8160   40.2470 C   0  0  0  0  0  0  0  0  0  0  0  0
   47.0940   32.1610   40.1150 C   0  0  0  0  0  0  0  0  0  0  0  0
   49.0454   35.3327   43.1701 H   0  0  0  0  0  0  0  0  0  0  0  0
   49.1788   33.7919   42.3844 H   0  0  0  0  0  0  0  0  0  0  0  0
   48.5895   36.5442   41.0712 H   0  0  0  0  0  0  0  0  0  0  0  0
   49.9761   35.5619   40.7195 H   0  0  0  0  0  0  0  0  0  0  0  0
   48.5418   33.7533   39.7540 H   0  0  0  0  0  0  0  0  0  0  0  0
   47.8139   35.1960   39.1144 H   0  0  0  0  0  0  0  0  0  0  0  0
   46.0517   35.0945   40.5985 H   0  0  0  0  0  0  0  0  0  0  0  0
   43.7385   36.7621   44.5365 H   0  0  0  0  0  0  0  0  0  0  0  0
   45.2897   36.6150   42.5496 H   0  0  0  0  0  0  0  0  0  0  0  0
   45.5528   33.3776   46.2900 H   0  0  0  0  0  0  0  0  0  0  0  0
   44.2158   33.0938   41.0185 H   0  0  0  0  0  0  0  0  0  0  0  0
   44.8527   34.0878   39.6262 H   0  0  0  0  0  0  0  0  0  0  0  0
   45.1679   32.2447   38.2805 H   0  0  0  0  0  0  0  0  0  0  0  0
   43.5879   31.9247   39.1335 H   0  0  0  0  0  0  0  0  0  0  0  0
   46.3198   30.5681   41.3153 H   0  0  0  0  0  0  0  0  0  0  0  0
   47.0132   30.0776   39.7040 H   0  0  0  0  0  0  0  0  0  0  0  0
   48.0773   32.1315   40.6071 H   0  0  0  0  0  0  0  0  0  0  0  0
   47.2532   32.4182   39.0574 H   0  0  0  0  0  0  0  0  0  0  0  0
  1  2  1  0
  1  8  1  0
  3  2  1  0
  4  5  1  0
  4  3  1  0
  5  1  1  0
  6 11  2  0
  7  6  1  0
  8  7  2  0
  8  9  1  0
  9 10  2  0
 10 11  1  0
 12  5  1  0
 13 12  1  0
 14 15  1  0
 14 13  1  0
 15 16  1  0
 17 16  1  0
 17 12  1  0
  2 18  1  0
  2 19  1  0
  3 20  1  0
  3 21  1  0
  4 22  1  0
  4 23  1  0
  5 24  1  6
  6 25  1  0
  7 26  1  0
 10 27  1  0
 13 28  1  0
 13 29  1  0
 14 30  1  0
 14 31  1  0
 16 32  1  0
 16 33  1  0
 17 34  1  0
 17 35  1  0
M  ISO  8  18  13  19  13  20  13  21  13  22  13  23  13  24  13  25  14
M  ISO  8  26  14  27  14  28  13  29  13  30  13  31  13  32  13  33  13
M  ISO  2  34  13  35  13
M  END
>  <minimizedAffinity>  (1) 
-4.69098759

>  <minimizedRMSD>  (1) 
0.582157552

$$$$
