
     RDKit          3D

 24 25  0  0  1  0  0  0  0  0999 V2000
   47.2940   34.6760   42.1220 N   0  0  0  0  0  0  0  0  0  0  0  0
   48.6960   35.0610   42.0210 C   0  0  0  0  0  0  0  0  0  0  0  0
   48.7600   35.5200   40.5940 C   0  0  0  0  0  0  0  0  0  0  0  0
   48.0620   34.3720   39.8870 C   0  0  0  0  0  0  0  0  0  0  0  0
   46.9670   34.0130   40.8650 C   0  0  2  0  0  0  0  0  0  0  0  0
   44.6420   36.0880   44.3090 C   0  0  0  0  0  0  0  0  0  0  0  0
   45.5170   35.9800   43.2150 C   0  0  0  0  0  0  0  0  0  0  0  0
   46.3890   34.8670   43.1700 C   0  0  0  0  0  0  0  0  0  0  0  0
   46.3280   33.9670   44.1910 N   0  0  0  0  0  0  0  0  0  0  0  0
   45.4700   34.1100   45.2250 C   0  0  0  0  0  0  0  0  0  0  0  0
   44.6360   35.1640   45.2790 N   0  0  0  0  0  0  0  0  0  0  0  0
   45.6520   34.3100   40.3830 N   0  0  0  0  0  0  0  0  0  0  0  0
   48.9437   35.8741   42.7192 H   0  0  0  0  0  0  0  0  0  0  0  0
   49.4071   34.2609   42.2741 H   0  0  0  0  0  0  0  0  0  0  0  0
   48.2224   36.4689   40.4507 H   0  0  0  0  0  0  0  0  0  0  0  0
   49.7774   35.7247   40.2294 H   0  0  0  0  0  0  0  0  0  0  0  0
   47.6446   34.6931   38.9212 H   0  0  0  0  0  0  0  0  0  0  0  0
   48.7294   33.5322   39.6437 H   0  0  0  0  0  0  0  0  0  0  0  0
   46.9304   32.9235   41.0124 H   0  0  0  0  0  0  0  0  0  0  0  0
   43.9525   36.9429   44.3699 H   0  0  0  0  0  0  0  0  0  0  0  0
   45.5238   36.7379   42.4177 H   0  0  0  0  0  0  0  0  0  0  0  0
   45.4534   33.3590   46.0285 H   0  0  0  0  0  0  0  0  0  0  0  0
   45.0178   34.4532   41.1818 H   0  0  0  0  0  0  0  0  0  0  0  0
   45.6814   35.1655   39.8102 H   0  0  0  0  0  0  0  0  0  0  0  0
  1  8  1  0
  2  1  1  0
  3  2  1  0
  4  3  1  0
  4  5  1  0
  5  1  1  0
  6 11  2  0
  7  6  1  0
  8  7  2  0
  8  9  1  0
  9 10  2  0
 10 11  1  0
 12  5  1  0
  2 13  1  0
  2 14  1  0
  3 15  1  0
  3 16  1  0
  4 17  1  0
  4 18  1  0
  5 19  1  1
  6 20  1  0
  7 21  1  0
 10 22  1  0
 12 23  1  0
 12 24  1  0
M  ISO  8  13  13  14  13  15  13  16  13  17  13  18  13  19  13  20  14
M  ISO  4  21  14  22  14  23   5  24   5
M  END
>  <minimizedAffinity>  (1) 
-4.66665411

>  <minimizedRMSD>  (1) 
0.303918421

$$$$
