
     RDKit          3D

 32 34  0  0  1  0  0  0  0  0999 V2000
   47.2390   34.7120   42.2380 N   0  0  0  0  0  0  0  0  0  0  0  0
   48.6830   34.8890   42.2520 C   0  0  0  0  0  0  0  0  0  0  0  0
   48.8970   35.5280   40.9220 C   0  0  0  0  0  0  0  0  0  0  0  0
   48.0570   34.6650   40.0150 C   0  0  0  0  0  0  0  0  0  0  0  0
   46.8570   34.3750   40.8810 C   0  0  1  0  0  0  0  0  0  0  0  0
   44.5140   35.9440   44.4490 C   0  0  0  0  0  0  0  0  0  0  0  0
   45.3750   35.8710   43.3520 C   0  0  0  0  0  0  0  0  0  0  0  0
   46.3470   34.8360   43.3140 C   0  0  0  0  0  0  0  0  0  0  0  0
   46.3850   33.9650   44.3570 N   0  0  0  0  0  0  0  0  0  0  0  0
   45.5230   34.0740   45.4100 C   0  0  0  0  0  0  0  0  0  0  0  0
   44.6030   35.0570   45.4420 N   0  0  0  0  0  0  0  0  0  0  0  0
   46.3890   32.9920   40.7810 C   0  0  0  0  0  0  0  0  0  0  0  0
   45.0670   32.7250   40.5130 C   0  0  0  0  0  0  0  0  0  0  0  0
   44.5450   31.4670   40.4010 C   0  0  0  0  0  0  0  0  0  0  0  0
   45.3760   30.3570   40.5620 C   0  0  0  0  0  0  0  0  0  0  0  0
   46.6950   30.6410   40.8290 C   0  0  0  0  0  0  0  0  0  0  0  0
   47.2140   31.9110   40.9410 C   0  0  0  0  0  0  0  0  0  0  0  0
   49.0026   35.5468   43.0737 H   0  0  0  0  0  0  0  0  0  0  0  0
   49.2547   33.9626   42.4103 H   0  0  0  0  0  0  0  0  0  0  0  0
   48.5452   36.5702   40.9191 H   0  0  0  0  0  0  0  0  0  0  0  0
   49.9544   35.5834   40.6238 H   0  0  0  0  0  0  0  0  0  0  0  0
   48.5855   33.7398   39.7415 H   0  0  0  0  0  0  0  0  0  0  0  0
   47.8068   35.1418   39.0558 H   0  0  0  0  0  0  0  0  0  0  0  0
   46.0013   34.9770   40.5413 H   0  0  0  0  0  0  0  0  0  0  0  0
   43.7558   36.7396   44.4950 H   0  0  0  0  0  0  0  0  0  0  0  0
   45.3018   36.6013   42.5327 H   0  0  0  0  0  0  0  0  0  0  0  0
   45.5803   33.3532   46.2389 H   0  0  0  0  0  0  0  0  0  0  0  0
   44.3860   33.5786   40.3803 H   0  0  0  0  0  0  0  0  0  0  0  0
   43.4752   31.3298   40.1850 H   0  0  0  0  0  0  0  0  0  0  0  0
   45.0016   29.3259   40.4809 H   0  0  0  0  0  0  0  0  0  0  0  0
   47.3836   29.7936   40.9624 H   0  0  0  0  0  0  0  0  0  0  0  0
   48.2827   32.0562   41.1573 H   0  0  0  0  0  0  0  0  0  0  0  0
  1  2  1  0
  1  8  1  0
  3  2  1  0
  4  5  1  0
  4  3  1  0
  5  1  1  0
  6 11  2  0
  7  6  1  0
  8  7  2  0
  8  9  1  0
  9 10  2  0
 10 11  1  0
 12  5  1  0
 12 17  1  0
 13 12  2  0
 14 13  1  0
 14 15  2  0
 15 16  1  0
 16 17  2  0
  2 18  1  0
  2 19  1  0
  3 20  1  0
  3 21  1  0
  4 22  1  0
  4 23  1  0
  5 24  1  6
  6 25  1  0
  7 26  1  0
 10 27  1  0
 13 28  1  0
 14 29  1  0
 15 30  1  0
 16 31  1  0
 17 32  1  0
M  ISO  8  18  13  19  13  20  13  21  13  22  13  23  13  24  13  25  14
M  ISO  7  26  14  27  14  28  14  29  14  30  14  31  14  32  14
M  END
>  <minimizedAffinity>  (1) 
-4.65006924

>  <minimizedRMSD>  (1) 
0.384406418

$$$$
