
     RDKit          3D

 28 30  0  0  1  0  0  0  0  0999 V2000
   47.2650   34.6950   42.2100 N   0  0  0  0  0  0  0  0  0  0  0  0
   48.6940   34.8540   42.1910 C   0  0  0  0  0  0  0  0  0  0  0  0
   48.8710   35.5420   40.8540 C   0  0  0  0  0  0  0  0  0  0  0  0
   48.0640   34.6210   39.9750 C   0  0  0  0  0  0  0  0  0  0  0  0
   46.8760   34.3190   40.8660 C   0  0  1  0  0  0  0  0  0  0  0  0
   44.5220   35.9280   44.4040 C   0  0  0  0  0  0  0  0  0  0  0  0
   45.3810   35.8590   43.3050 C   0  0  0  0  0  0  0  0  0  0  0  0
   46.3540   34.8510   43.2700 C   0  0  0  0  0  0  0  0  0  0  0  0
   46.4020   33.9860   44.3270 N   0  0  0  0  0  0  0  0  0  0  0  0
   45.5520   34.0710   45.3900 C   0  0  0  0  0  0  0  0  0  0  0  0
   44.6230   35.0400   45.4170 N   0  0  0  0  0  0  0  0  0  0  0  0
   46.4560   32.8980   40.7540 C   0  0  0  0  0  0  0  0  0  0  0  0
   45.0210   32.3710   40.8660 C   0  0  0  0  0  0  0  0  0  0  0  0
   45.3170   30.6040   40.6230 S   0  0  0  0  0  0  0  0  0  0  0  0
   47.1960   30.8170   40.4210 C   0  0  0  0  0  0  0  0  0  0  0  0
   47.4250   32.0280   40.5350 N   0  0  0  0  0  0  0  0  0  0  0  0
   49.0447   35.4833   43.0223 H   0  0  0  0  0  0  0  0  0  0  0  0
   49.2631   33.9199   42.3074 H   0  0  0  0  0  0  0  0  0  0  0  0
   48.4595   36.5621   40.8625 H   0  0  0  0  0  0  0  0  0  0  0  0
   49.9160   35.6826   40.5407 H   0  0  0  0  0  0  0  0  0  0  0  0
   47.7530   35.1219   39.0463 H   0  0  0  0  0  0  0  0  0  0  0  0
   48.6112   33.7281   39.6384 H   0  0  0  0  0  0  0  0  0  0  0  0
   45.9883   34.8926   40.5612 H   0  0  0  0  0  0  0  0  0  0  0  0
   43.7542   36.7146   44.4452 H   0  0  0  0  0  0  0  0  0  0  0  0
   45.2954   36.5831   42.4814 H   0  0  0  0  0  0  0  0  0  0  0  0
   45.6269   33.3515   46.2187 H   0  0  0  0  0  0  0  0  0  0  0  0
   44.0803   32.9128   41.0434 H   0  0  0  0  0  0  0  0  0  0  0  0
   47.9334   30.0214   40.2389 H   0  0  0  0  0  0  0  0  0  0  0  0
  1  8  1  0
  2  1  1  0
  3  2  1  0
  4  3  1  0
  4  5  1  0
  5  1  1  0
  6 11  2  0
  7  6  1  0
  8  7  2  0
  8  9  1  0
  9 10  2  0
 10 11  1  0
 12  5  1  0
 12 13  2  0
 14 13  1  0
 15 16  2  0
 15 14  1  0
 16 12  1  0
  2 17  1  0
  2 18  1  0
  3 19  1  0
  3 20  1  0
  4 21  1  0
  4 22  1  0
  5 23  1  6
  6 24  1  0
  7 25  1  0
 10 26  1  0
 13 27  1  0
 15 28  1  0
M  ISO  8  17  13  18  13  19  13  20  13  21  13  22  13  23  13  24  14
M  ISO  4  25  14  26  14  27  14  28  14
M  END
>  <minimizedAffinity>  (1) 
-4.58349037

>  <minimizedRMSD>  (1) 
0.280976236

$$$$
