
     RDKit          3D

 29 31  0  0  1  0  0  0  0  0999 V2000
   47.0830   34.3380   42.4920 N   0  0  0  0  0  0  0  0  0  0  0  0
   48.3830   34.8630   42.1480 C   0  0  0  0  0  0  0  0  0  0  0  0
   48.2410   34.9870   40.6500 C   0  0  0  0  0  0  0  0  0  0  0  0
   47.7450   33.5980   40.3230 C   0  0  0  0  0  0  0  0  0  0  0  0
   46.7790   33.3560   41.4490 C   0  0  2  0  0  0  0  0  0  0  0  0
   44.5390   35.9140   44.6890 C   0  0  0  0  0  0  0  0  0  0  0  0
   45.3460   35.7270   43.5540 C   0  0  0  0  0  0  0  0  0  0  0  0
   46.2260   34.6360   43.5670 C   0  0  0  0  0  0  0  0  0  0  0  0
   46.2700   33.8030   44.6650 N   0  0  0  0  0  0  0  0  0  0  0  0
   45.4570   34.0390   45.7430 C   0  0  0  0  0  0  0  0  0  0  0  0
   44.6070   35.0920   45.7330 N   0  0  0  0  0  0  0  0  0  0  0  0
   45.4040   33.3230   41.0640 N   0  0  0  0  0  0  0  0  0  0  0  0
   44.7100   34.1900   40.3600 N   0  0  0  0  0  0  0  0  0  0  0  0
   43.4380   33.8230   40.1980 C   0  0  0  0  0  0  0  0  0  0  0  0
   43.2990   32.6000   40.8610 C   0  0  0  0  0  0  0  0  0  0  0  0
   44.5340   32.3400   41.3740 C   0  0  0  0  0  0  0  0  0  0  0  0
   48.5650   35.8393   42.6210 H   0  0  0  0  0  0  0  0  0  0  0  0
   49.2300   34.2440   42.4788 H   0  0  0  0  0  0  0  0  0  0  0  0
   47.5088   35.7591   40.3710 H   0  0  0  0  0  0  0  0  0  0  0  0
   49.1553   35.2915   40.1196 H   0  0  0  0  0  0  0  0  0  0  0  0
   47.2397   33.5707   39.3463 H   0  0  0  0  0  0  0  0  0  0  0  0
   48.5411   32.8432   40.2431 H   0  0  0  0  0  0  0  0  0  0  0  0
   46.9209   32.3360   41.8356 H   0  0  0  0  0  0  0  0  0  0  0  0
   43.8352   36.7590   44.7150 H   0  0  0  0  0  0  0  0  0  0  0  0
   45.2896   36.4079   42.6919 H   0  0  0  0  0  0  0  0  0  0  0  0
   45.4955   33.3720   46.6169 H   0  0  0  0  0  0  0  0  0  0  0  0
   42.6560   34.3719   39.6527 H   0  0  0  0  0  0  0  0  0  0  0  0
   42.3922   31.9835   40.9490 H   0  0  0  0  0  0  0  0  0  0  0  0
   44.7881   31.4465   41.9632 H   0  0  0  0  0  0  0  0  0  0  0  0
  1  8  1  0
  2  1  1  0
  3  2  1  0
  4  3  1  0
  4  5  1  0
  5  1  1  0
  6 11  2  0
  7  8  2  0
  7  6  1  0
  8  9  1  0
  9 10  2  0
 11 10  1  0
 12 16  1  0
 12  5  1  0
 13 12  1  0
 14 13  2  0
 14 15  1  0
 15 16  2  0
  2 17  1  0
  2 18  1  0
  3 19  1  0
  3 20  1  0
  4 21  1  0
  4 22  1  0
  5 23  1  1
  6 24  1  0
  7 25  1  0
 10 26  1  0
 14 27  1  0
 15 28  1  0
 16 29  1  0
M  ISO  8  17  13  18  13  19  13  20  13  21  13  22  13  23  13  24  14
M  ISO  5  25  14  26  14  27  14  28  14  29  14
M  END
>  <minimizedAffinity>  (1) 
-4.41977262

>  <minimizedRMSD>  (1) 
1.31194317

$$$$
