
     RDKit          3D

 31 32  0  0  1  0  0  0  0  0999 V2000
   47.1440   34.4850   42.2570 N   0  0  0  0  0  0  0  0  0  0  0  0
   48.5130   35.0070   42.0500 C   0  0  0  0  0  0  0  0  0  0  0  0
   48.4670   35.2160   40.5610 C   0  0  0  0  0  0  0  0  0  0  0  0
   47.9270   33.8850   40.1210 C   0  0  0  0  0  0  0  0  0  0  0  0
   46.8550   33.6040   41.1720 C   0  0  2  0  0  0  0  0  0  0  0  0
   44.5830   36.0460   44.4460 C   0  0  0  0  0  0  0  0  0  0  0  0
   45.4290   35.8320   43.3660 C   0  0  0  0  0  0  0  0  0  0  0  0
   46.2980   34.7530   43.3330 C   0  0  0  0  0  0  0  0  0  0  0  0
   46.2760   33.9120   44.4300 N   0  0  0  0  0  0  0  0  0  0  0  0
   45.4430   34.1300   45.4860 C   0  0  0  0  0  0  0  0  0  0  0  0
   44.6090   35.1850   45.4870 N   0  0  0  0  0  0  0  0  0  0  0  0
   45.5140   33.5300   40.5850 C   0  0  0  0  0  0  0  0  0  0  0  0
   45.3730   33.2260   39.1430 C   0  0  0  0  0  0  0  0  0  0  0  0
   44.7170   32.4510   41.3470 C   0  0  0  0  0  0  0  0  0  0  0  0
   48.6811   35.9487   42.5930 H   0  0  0  0  0  0  0  0  0  0  0  0
   49.3246   34.3578   42.4101 H   0  0  0  0  0  0  0  0  0  0  0  0
   47.7923   36.0402   40.2861 H   0  0  0  0  0  0  0  0  0  0  0  0
   49.4278   35.4971   40.1051 H   0  0  0  0  0  0  0  0  0  0  0  0
   47.4903   33.9459   39.1132 H   0  0  0  0  0  0  0  0  0  0  0  0
   48.6940   33.0994   40.0537 H   0  0  0  0  0  0  0  0  0  0  0  0
   46.8691   32.5963   41.6128 H   0  0  0  0  0  0  0  0  0  0  0  0
   43.8989   36.9073   44.4540 H   0  0  0  0  0  0  0  0  0  0  0  0
   45.4090   36.5335   42.5190 H   0  0  0  0  0  0  0  0  0  0  0  0
   45.4527   33.4394   46.3422 H   0  0  0  0  0  0  0  0  0  0  0  0
   45.1476   34.5627   40.6813 H   0  0  0  0  0  0  0  0  0  0  0  0
   44.9130   32.2343   39.0206 H   0  0  0  0  0  0  0  0  0  0  0  0
   44.7358   33.9868   38.6685 H   0  0  0  0  0  0  0  0  0  0  0  0
   46.3654   33.2310   38.6685 H   0  0  0  0  0  0  0  0  0  0  0  0
   44.8319   32.6066   42.4299 H   0  0  0  0  0  0  0  0  0  0  0  0
   43.6530   32.5222   41.0772 H   0  0  0  0  0  0  0  0  0  0  0  0
   45.0978   31.4549   41.0772 H   0  0  0  0  0  0  0  0  0  0  0  0
  1  8  1  0
  2  1  1  0
  3  2  1  0
  4  3  1  0
  4  5  1  0
  5  1  1  0
  6 11  2  0
  7  6  1  0
  8  7  2  0
  8  9  1  0
  9 10  2  0
 10 11  1  0
 12  5  1  0
 12 14  1  0
 13 12  1  0
  2 15  1  0
  2 16  1  0
  3 17  1  0
  3 18  1  0
  4 19  1  0
  4 20  1  0
  5 21  1  1
  6 22  1  0
  7 23  1  0
 10 24  1  0
 12 25  1  0
 13 26  1  0
 13 27  1  0
 13 28  1  0
 14 29  1  0
 14 30  1  0
 14 31  1  0
M  ISO  8  15  13  16  13  17  13  18  13  19  13  20  13  21  13  22  14
M  ISO  8  23  14  24  14  25   8  26   8  27   8  28   8  29   8  30   8
M  ISO  1  31   8
M  END
>  <minimizedAffinity>  (1) 
-4.28340483

>  <minimizedRMSD>  (1) 
0.740643084

$$$$
