
     RDKit          3D

 37 40  0  0  1  0  0  0  0  0999 V2000
   47.1860   34.6160   42.4250 N   0  0  0  0  0  0  0  0  0  0  0  0
   48.6500   34.6030   42.4710 C   0  0  0  0  0  0  0  0  0  0  0  0
   48.9370   35.3800   41.2060 C   0  0  0  0  0  0  0  0  0  0  0  0
   48.0390   34.6650   40.2250 C   0  0  0  0  0  0  0  0  0  0  0  0
   46.7790   34.4280   41.0590 C   0  0  1  0  0  0  0  0  0  0  0  0
   44.5130   35.9010   44.6920 C   0  0  0  0  0  0  0  0  0  0  0  0
   45.3520   35.8160   43.5740 C   0  0  0  0  0  0  0  0  0  0  0  0
   46.3020   34.7790   43.5060 C   0  0  0  0  0  0  0  0  0  0  0  0
   46.3350   33.9140   44.5650 N   0  0  0  0  0  0  0  0  0  0  0  0
   45.5200   34.0160   45.6270 C   0  0  0  0  0  0  0  0  0  0  0  0
   44.6080   35.0100   45.6900 N   0  0  0  0  0  0  0  0  0  0  0  0
   46.1810   33.2210   40.8020 O   0  0  0  0  0  0  0  0  0  0  0  0
   45.3060   33.0120   39.7560 C   0  0  0  0  0  0  0  0  0  0  0  0
   45.6500   32.1570   38.7590 N   0  0  0  0  0  0  0  0  0  0  0  0
   44.7720   31.9700   37.7440 C   0  0  0  0  0  0  0  0  0  0  0  0
   43.5820   32.6000   37.6970 N   0  0  0  0  0  0  0  0  0  0  0  0
   43.1830   33.4530   38.6480 C   0  0  0  0  0  0  0  0  0  0  0  0
   41.9590   34.0750   38.5620 C   0  0  0  0  0  0  0  0  0  0  0  0
   41.6140   34.9470   39.5880 C   0  0  0  0  0  0  0  0  0  0  0  0
   42.4820   35.1760   40.6550 C   0  0  0  0  0  0  0  0  0  0  0  0
   43.7170   34.5210   40.7010 C   0  0  0  0  0  0  0  0  0  0  0  0
   44.0790   33.6400   39.6780 C   0  0  0  0  0  0  0  0  0  0  0  0
   49.0385   35.1131   43.3648 H   0  0  0  0  0  0  0  0  0  0  0  0
   49.1113   33.6060   42.5271 H   0  0  0  0  0  0  0  0  0  0  0  0
   48.6603   36.4395   41.3101 H   0  0  0  0  0  0  0  0  0  0  0  0
   49.9982   35.4048   40.9176 H   0  0  0  0  0  0  0  0  0  0  0  0
   48.4843   33.7147   39.8952 H   0  0  0  0  0  0  0  0  0  0  0  0
   47.8571   35.2294   39.2985 H   0  0  0  0  0  0  0  0  0  0  0  0
   45.9789   35.1370   40.7997 H   0  0  0  0  0  0  0  0  0  0  0  0
   43.7676   36.7077   44.7524 H   0  0  0  0  0  0  0  0  0  0  0  0
   45.2699   36.5503   42.7591 H   0  0  0  0  0  0  0  0  0  0  0  0
   45.5953   33.2879   46.4481 H   0  0  0  0  0  0  0  0  0  0  0  0
   45.0401   31.2800   36.9303 H   0  0  0  0  0  0  0  0  0  0  0  0
   41.2810   33.8898   37.7158 H   0  0  0  0  0  0  0  0  0  0  0  0
   40.6432   35.4634   39.5578 H   0  0  0  0  0  0  0  0  0  0  0  0
   42.1961   35.8703   41.4589 H   0  0  0  0  0  0  0  0  0  0  0  0
   44.4032   34.6992   41.5421 H   0  0  0  0  0  0  0  0  0  0  0  0
  1  2  1  0
  1  8  1  0
  3  2  1  0
  4  5  1  0
  4  3  1  0
  5  1  1  0
  6 11  2  0
  7  6  1  0
  8  7  2  0
  8  9  1  0
  9 10  2  0
 10 11  1  0
 12  5  1  0
 13 12  1  0
 14 13  2  0
 15 14  1  0
 16 15  2  0
 16 17  1  0
 17 22  2  0
 18 17  1  0
 18 19  2  0
 19 20  1  0
 20 21  2  0
 22 13  1  0
 22 21  1  0
  2 23  1  0
  2 24  1  0
  3 25  1  0
  3 26  1  0
  4 27  1  0
  4 28  1  0
  5 29  1  6
  6 30  1  0
  7 31  1  0
 10 32  1  0
 15 33  1  0
 18 34  1  0
 19 35  1  0
 20 36  1  0
 21 37  1  0
M  ISO  8  23  13  24  13  25  13  26  13  27  13  28  13  29  13  30  14
M  ISO  7  31  14  32  14  33  14  34  14  35  14  36  14  37  14
M  END
>  <minimizedAffinity>  (1) 
-5.89587831

>  <minimizedRMSD>  (1) 
1.27337778

$$$$
