
     RDKit          3D

 39 42  0  0  1  0  0  0  0  0999 V2000
   47.1830   34.6450   42.3850 N   0  0  0  0  0  0  0  0  0  0  0  0
   48.6440   34.6370   42.4220 C   0  0  0  0  0  0  0  0  0  0  0  0
   48.9110   35.4220   41.1390 C   0  0  0  0  0  0  0  0  0  0  0  0
   48.0310   34.6520   40.1820 C   0  0  0  0  0  0  0  0  0  0  0  0
   46.7660   34.4350   41.0060 C   0  0  1  0  0  0  0  0  0  0  0  0
   44.5070   35.9660   44.6170 C   0  0  0  0  0  0  0  0  0  0  0  0
   45.3460   35.8740   43.5100 C   0  0  0  0  0  0  0  0  0  0  0  0
   46.2970   34.8180   43.4580 C   0  0  0  0  0  0  0  0  0  0  0  0
   46.2990   33.9790   44.5160 N   0  0  0  0  0  0  0  0  0  0  0  0
   45.4830   34.0750   45.5820 C   0  0  0  0  0  0  0  0  0  0  0  0
   44.5810   35.0860   45.6190 N   0  0  0  0  0  0  0  0  0  0  0  0
   46.2020   33.2050   40.7860 O   0  0  0  0  0  0  0  0  0  0  0  0
   45.4310   32.8080   39.7110 C   0  0  0  0  0  0  0  0  0  0  0  0
   45.7060   31.8910   38.7230 C   0  0  0  0  0  0  0  0  0  0  0  0
   44.7900   31.6340   37.7250 C   0  0  0  0  0  0  0  0  0  0  0  0
   43.5760   32.2690   37.6630 C   0  0  0  0  0  0  0  0  0  0  0  0
   43.2930   33.2020   38.6660 C   0  0  0  0  0  0  0  0  0  0  0  0
   42.0540   33.8070   38.5470 C   0  0  0  0  0  0  0  0  0  0  0  0
   41.6940   34.7300   39.4800 C   0  0  0  0  0  0  0  0  0  0  0  0
   42.5630   35.0270   40.4980 C   0  0  0  0  0  0  0  0  0  0  0  0
   43.7950   34.4150   40.6000 C   0  0  0  0  0  0  0  0  0  0  0  0
   44.2090   33.4720   39.6820 C   0  0  0  0  0  0  0  0  0  0  0  0
   49.0383   35.1507   43.3112 H   0  0  0  0  0  0  0  0  0  0  0  0
   49.1136   33.6439   42.4792 H   0  0  0  0  0  0  0  0  0  0  0  0
   48.5973   36.4725   41.2288 H   0  0  0  0  0  0  0  0  0  0  0  0
   49.9691   35.4915   40.8464 H   0  0  0  0  0  0  0  0  0  0  0  0
   48.4920   33.6939   39.9001 H   0  0  0  0  0  0  0  0  0  0  0  0
   47.8525   35.1744   39.2306 H   0  0  0  0  0  0  0  0  0  0  0  0
   45.9625   35.1316   40.7249 H   0  0  0  0  0  0  0  0  0  0  0  0
   43.7684   36.7796   44.6675 H   0  0  0  0  0  0  0  0  0  0  0  0
   45.2747   36.6046   42.6907 H   0  0  0  0  0  0  0  0  0  0  0  0
   45.5468   33.3486   46.4055 H   0  0  0  0  0  0  0  0  0  0  0  0
   46.6675   31.3568   38.7293 H   0  0  0  0  0  0  0  0  0  0  0  0
   45.0418   30.8937   36.9514 H   0  0  0  0  0  0  0  0  0  0  0  0
   42.8562   32.0540   36.8595 H   0  0  0  0  0  0  0  0  0  0  0  0
   41.3773   33.5484   37.7192 H   0  0  0  0  0  0  0  0  0  0  0  0
   40.7172   35.2319   39.4181 H   0  0  0  0  0  0  0  0  0  0  0  0
   42.2704   35.7721   41.2524 H   0  0  0  0  0  0  0  0  0  0  0  0
   44.4622   34.6849   41.4318 H   0  0  0  0  0  0  0  0  0  0  0  0
  1  2  1  0
  1  8  1  0
  3  2  1  0
  4  5  1  0
  4  3  1  0
  5  1  1  0
  6 11  2  0
  7  6  1  0
  8  7  2  0
  8  9  1  0
  9 10  2  0
 10 11  1  0
 12  5  1  0
 13 12  1  0
 14 13  2  0
 15 14  1  0
 16 15  2  0
 16 17  1  0
 17 22  2  0
 18 17  1  0
 18 19  2  0
 19 20  1  0
 20 21  2  0
 22 13  1  0
 22 21  1  0
  2 23  1  0
  2 24  1  0
  3 25  1  0
  3 26  1  0
  4 27  1  0
  4 28  1  0
  5 29  1  6
  6 30  1  0
  7 31  1  0
 10 32  1  0
 14 33  1  0
 15 34  1  0
 16 35  1  0
 18 36  1  0
 19 37  1  0
 20 38  1  0
 21 39  1  0
M  ISO  8  23  13  24  13  25  13  26  13  27  13  28  13  29  13  30  14
M  ISO  8  31  14  32  14  33  14  34  14  35  14  36  14  37  14  38  14
M  ISO  1  39  14
M  END
>  <minimizedAffinity>  (1) 
-5.86588573

>  <minimizedRMSD>  (1) 
1.14636624

$$$$
