
     RDKit          3D

 36 38  0  0  1  0  0  0  0  0999 V2000
   46.9470   34.3920   42.4020 N   0  0  0  0  0  0  0  0  0  0  0  0
   48.3510   33.9950   42.3710 C   0  0  0  0  0  0  0  0  0  0  0  0
   48.8130   34.8480   41.2000 C   0  0  0  0  0  0  0  0  0  0  0  0
   47.7510   34.4980   40.1900 C   0  0  0  0  0  0  0  0  0  0  0  0
   46.4870   34.4810   41.0420 C   0  0  1  0  0  0  0  0  0  0  0  0
   44.5060   35.9240   44.7680 C   0  0  0  0  0  0  0  0  0  0  0  0
   45.2570   35.7620   43.5940 C   0  0  0  0  0  0  0  0  0  0  0  0
   46.1510   34.6500   43.5230 C   0  0  0  0  0  0  0  0  0  0  0  0
   46.1960   33.8290   44.6180 N   0  0  0  0  0  0  0  0  0  0  0  0
   45.4580   34.0210   45.7210 C   0  0  0  0  0  0  0  0  0  0  0  0
   44.6090   35.0750   45.7960 N   0  0  0  0  0  0  0  0  0  0  0  0
   45.6240   33.4700   40.6850 O   0  0  0  0  0  0  0  0  0  0  0  0
   41.8030   34.1260   39.1860 C   0  0  0  0  0  0  0  0  0  0  0  0
   42.4030   34.9610   40.1080 C   0  0  0  0  0  0  0  0  0  0  0  0
   43.6910   34.7120   40.5940 C   0  0  0  0  0  0  0  0  0  0  0  0
   44.3750   33.5840   40.1220 C   0  0  0  0  0  0  0  0  0  0  0  0
   43.7570   32.7640   39.2000 C   0  0  0  0  0  0  0  0  0  0  0  0
   42.4930   33.0220   38.7340 C   0  0  0  0  0  0  0  0  0  0  0  0
   40.2100   34.3810   38.5480 S   0  0  0  0  0  0  0  0  0  0  0  0
   39.3320   35.0140   39.5880 O   0  0  0  0  0  0  0  0  0  0  0  0
   40.2670   35.2610   37.3440 O   0  0  0  0  0  0  0  0  0  0  0  0
   48.8741   34.2556   43.3029 H   0  0  0  0  0  0  0  0  0  0  0  0
   48.5354   32.9151   42.2717 H   0  0  0  0  0  0  0  0  0  0  0  0
   48.8048   35.9199   41.4469 H   0  0  0  0  0  0  0  0  0  0  0  0
   49.8461   34.6637   40.8703 H   0  0  0  0  0  0  0  0  0  0  0  0
   47.9401   33.5132   39.7378 H   0  0  0  0  0  0  0  0  0  0  0  0
   47.7017   35.1968   39.3419 H   0  0  0  0  0  0  0  0  0  0  0  0
   45.8836   35.3889   40.8950 H   0  0  0  0  0  0  0  0  0  0  0  0
   43.8123   36.7742   44.8450 H   0  0  0  0  0  0  0  0  0  0  0  0
   45.1606   36.4679   42.7559 H   0  0  0  0  0  0  0  0  0  0  0  0
   45.5417   33.3221   46.5663 H   0  0  0  0  0  0  0  0  0  0  0  0
   41.8547   35.8436   40.4691 H   0  0  0  0  0  0  0  0  0  0  0  0
   44.1556   35.3857   41.3291 H   0  0  0  0  0  0  0  0  0  0  0  0
   44.2932   31.8784   38.8283 H   0  0  0  0  0  0  0  0  0  0  0  0
   42.0298   32.3473   37.9990 H   0  0  0  0  0  0  0  0  0  0  0  0
   39.6877   33.1658   38.1911 H   0  0  0  0  0  0  0  0  0  0  0  0
  1  8  1  0
  2  1  1  0
  3  2  1  0
  4  5  1  0
  4  3  1  0
  5  1  1  0
  6 11  2  0
  7  6  1  0
  8  7  2  0
  8  9  1  0
  9 10  2  0
 10 11  1  0
 12  5  1  0
 13 14  2  0
 14 15  1  0
 16 15  2  0
 16 12  1  0
 17 16  1  0
 18 13  1  0
 18 17  2  0
 19 13  1  0
 19 20  2  0
 21 19  2  0
  2 22  1  0
  2 23  1  0
  3 24  1  0
  3 25  1  0
  4 26  1  0
  4 27  1  0
  5 28  1  1
  6 29  1  0
  7 30  1  0
 10 31  1  0
 14 32  1  0
 15 33  1  0
 17 34  1  0
 18 35  1  0
 19 36  1  0
M  ISO  8  22  13  23  13  24  13  25  13  26  13  27  13  28  13  29  14
M  ISO  7  30  14  31  14  32  14  33  14  34  14  35  14  36  11
M  END
>  <minimizedAffinity>  (1) 
-5.73074722

>  <minimizedRMSD>  (1) 
1.84279346

$$$$
