
     RDKit          3D

 38 40  0  0  1  0  0  0  0  0999 V2000
   47.1810   34.6670   42.2720 N   0  0  0  0  0  0  0  0  0  0  0  0
   48.6450   34.8120   42.2790 C   0  0  0  0  0  0  0  0  0  0  0  0
   48.8130   35.5120   40.9370 C   0  0  0  0  0  0  0  0  0  0  0  0
   48.0120   34.5790   40.0660 C   0  0  0  0  0  0  0  0  0  0  0  0
   46.7840   34.3110   40.9330 C   0  0  1  0  0  0  0  0  0  0  0  0
   44.5350   35.9930   44.5300 C   0  0  0  0  0  0  0  0  0  0  0  0
   45.3730   35.9010   43.4150 C   0  0  0  0  0  0  0  0  0  0  0  0
   46.3000   34.8360   43.3550 C   0  0  0  0  0  0  0  0  0  0  0  0
   46.3140   33.9590   44.4010 N   0  0  0  0  0  0  0  0  0  0  0  0
   45.4860   34.0790   45.4650 C   0  0  0  0  0  0  0  0  0  0  0  0
   44.6020   35.0950   45.5220 N   0  0  0  0  0  0  0  0  0  0  0  0
   46.3460   33.0050   40.8270 O   0  0  0  0  0  0  0  0  0  0  0  0
   42.7470   33.3250   38.7140 N   0  0  0  0  0  0  0  0  0  0  0  0
   43.8030   32.4710   38.2280 C   0  0  0  0  0  0  0  0  0  0  0  0
   45.1610   32.9820   38.7290 C   0  0  0  0  0  0  0  0  0  0  0  0
   45.1160   32.8570   40.2310 C   0  0  0  0  0  0  0  0  0  0  0  0
   44.0550   33.7580   40.7590 C   0  0  0  0  0  0  0  0  0  0  0  0
   43.2150   34.3230   39.6420 C   0  0  0  0  0  0  0  0  0  0  0  0
   48.9953   35.4332   43.1165 H   0  0  0  0  0  0  0  0  0  0  0  0
   49.2153   33.8798   42.4045 H   0  0  0  0  0  0  0  0  0  0  0  0
   48.3897   36.5272   40.9482 H   0  0  0  0  0  0  0  0  0  0  0  0
   49.8542   35.6701   40.6192 H   0  0  0  0  0  0  0  0  0  0  0  0
   48.5656   33.6512   39.8594 H   0  0  0  0  0  0  0  0  0  0  0  0
   47.7735   34.9926   39.0750 H   0  0  0  0  0  0  0  0  0  0  0  0
   45.9168   34.9054   40.6095 H   0  0  0  0  0  0  0  0  0  0  0  0
   43.8084   36.8164   44.5940 H   0  0  0  0  0  0  0  0  0  0  0  0
   45.3123   36.6405   42.6030 H   0  0  0  0  0  0  0  0  0  0  0  0
   45.5346   33.3465   46.2842 H   0  0  0  0  0  0  0  0  0  0  0  0
   42.0432   32.7405   39.1873 H   0  0  0  0  0  0  0  0  0  0  0  0
   43.6412   31.4465   38.5943 H   0  0  0  0  0  0  0  0  0  0  0  0
   43.7970   32.4781   37.1280 H   0  0  0  0  0  0  0  0  0  0  0  0
   45.9767   32.3693   38.3176 H   0  0  0  0  0  0  0  0  0  0  0  0
   45.3455   34.0195   38.4136 H   0  0  0  0  0  0  0  0  0  0  0  0
   44.8416   31.8264   40.5003 H   0  0  0  0  0  0  0  0  0  0  0  0
   43.4077   33.1885   41.4421 H   0  0  0  0  0  0  0  0  0  0  0  0
   44.5380   34.5925   41.2884 H   0  0  0  0  0  0  0  0  0  0  0  0
   43.8194   35.0569   39.0887 H   0  0  0  0  0  0  0  0  0  0  0  0
   42.3262   34.7780   40.1036 H   0  0  0  0  0  0  0  0  0  0  0  0
  1  2  1  0
  1  8  1  0
  3  2  1  0
  4  5  1  0
  4  3  1  0
  5  1  1  0
  6 11  2  0
  7  6  1  0
  8  7  2  0
  8  9  1  0
  9 10  2  0
 10 11  1  0
 12  5  1  0
 13 18  1  0
 14 13  1  0
 14 15  1  0
 15 16  1  0
 16 17  1  0
 16 12  1  0
 18 17  1  0
  2 19  1  0
  2 20  1  0
  3 21  1  0
  3 22  1  0
  4 23  1  0
  4 24  1  0
  5 25  1  6
  6 26  1  0
  7 27  1  0
 10 28  1  0
 13 29  1  0
 14 30  1  0
 14 31  1  0
 15 32  1  0
 15 33  1  0
 16 34  1  0
 17 35  1  0
 17 36  1  0
 18 37  1  0
 18 38  1  0
M  ISO  8  19  13  20  13  21  13  22  13  23  13  24  13  25  13  26  14
M  ISO  8  27  14  28  14  29   5  30  13  31  13  32  13  33  13  34  13
M  ISO  4  35  13  36  13  37  13  38  13
M  END
>  <minimizedAffinity>  (1) 
-5.03057003

>  <minimizedRMSD>  (1) 
0.242291391

$$$$
