
     RDKit          3D

 30 32  0  0  1  0  0  0  0  0999 V2000
   47.1950   34.5620   42.5140 N   0  0  0  0  0  0  0  0  0  0  0  0
   48.6280   34.3140   42.5710 C   0  0  0  0  0  0  0  0  0  0  0  0
   49.0720   35.2070   41.4220 C   0  0  0  0  0  0  0  0  0  0  0  0
   48.1190   34.7390   40.3470 C   0  0  0  0  0  0  0  0  0  0  0  0
   46.8120   34.6120   41.1090 C   0  0  1  0  0  0  0  0  0  0  0  0
   44.4870   35.8590   44.7320 C   0  0  0  0  0  0  0  0  0  0  0  0
   45.3320   35.7710   43.6200 C   0  0  0  0  0  0  0  0  0  0  0  0
   46.3040   34.7300   43.5860 C   0  0  0  0  0  0  0  0  0  0  0  0
   46.3240   33.9030   44.6520 N   0  0  0  0  0  0  0  0  0  0  0  0
   45.5060   34.0020   45.7100 C   0  0  0  0  0  0  0  0  0  0  0  0
   44.5790   34.9950   45.7440 N   0  0  0  0  0  0  0  0  0  0  0  0
   46.0390   33.5560   40.7070 O   0  0  0  0  0  0  0  0  0  0  0  0
   44.8040   33.7510   40.1480 C   0  0  0  0  0  0  0  0  0  0  0  0
   43.7390   34.4840   40.5610 C   0  0  0  0  0  0  0  0  0  0  0  0
   42.5880   34.5530   39.8650 C   0  0  0  0  0  0  0  0  0  0  0  0
   42.5770   33.8000   38.6680 C   0  0  0  0  0  0  0  0  0  0  0  0
   44.2970   33.0190   38.6370 S   0  0  0  0  0  0  0  0  0  0  0  0
   49.0631   34.6301   43.5306 H   0  0  0  0  0  0  0  0  0  0  0  0
   48.9282   33.2587   42.4923 H   0  0  0  0  0  0  0  0  0  0  0  0
   48.9332   36.2729   41.6555 H   0  0  0  0  0  0  0  0  0  0  0  0
   50.1382   35.1335   41.1617 H   0  0  0  0  0  0  0  0  0  0  0  0
   48.4330   33.7708   39.9298 H   0  0  0  0  0  0  0  0  0  0  0  0
   48.0617   35.4168   39.4826 H   0  0  0  0  0  0  0  0  0  0  0  0
   46.1497   35.4673   40.9092 H   0  0  0  0  0  0  0  0  0  0  0  0
   43.7312   36.6573   44.7723 H   0  0  0  0  0  0  0  0  0  0  0  0
   45.2476   36.4892   42.7911 H   0  0  0  0  0  0  0  0  0  0  0  0
   45.5846   33.2866   46.5419 H   0  0  0  0  0  0  0  0  0  0  0  0
   43.8193   35.0452   41.5036 H   0  0  0  0  0  0  0  0  0  0  0  0
   41.7255   35.1475   40.2008 H   0  0  0  0  0  0  0  0  0  0  0  0
   41.7647   33.6947   37.9337 H   0  0  0  0  0  0  0  0  0  0  0  0
  1  2  1  0
  1  8  1  0
  3  2  1  0
  4  5  1  0
  4  3  1  0
  5  1  1  0
  6 11  2  0
  7  6  1  0
  8  7  2  0
  8  9  1  0
  9 10  2  0
 10 11  1  0
 12  5  1  0
 13 14  2  0
 13 12  1  0
 15 14  1  0
 16 15  2  0
 17 16  1  0
 17 13  1  0
  2 18  1  0
  2 19  1  0
  3 20  1  0
  3 21  1  0
  4 22  1  0
  4 23  1  0
  5 24  1  1
  6 25  1  0
  7 26  1  0
 10 27  1  0
 14 28  1  0
 15 29  1  0
 16 30  1  0
M  ISO  8  18  13  19  13  20  13  21  13  22  13  23  13  24  13  25  14
M  ISO  5  26  14  27  14  28  14  29  14  30  14
M  END
>  <minimizedAffinity>  (1) 
-4.94085169

>  <minimizedRMSD>  (1) 
0.972087204

$$$$
