
     RDKit          3D

 36 38  0  0  1  0  0  0  0  0999 V2000
   47.0210   34.5590   42.3370 N   0  0  0  0  0  0  0  0  0  0  0  0
   48.4830   34.6560   42.2530 C   0  0  0  0  0  0  0  0  0  0  0  0
   48.6210   35.3370   40.9110 C   0  0  0  0  0  0  0  0  0  0  0  0
   47.7120   34.4700   40.0750 C   0  0  0  0  0  0  0  0  0  0  0  0
   46.5520   34.2180   41.0190 C   0  0  1  0  0  0  0  0  0  0  0  0
   44.5150   35.9200   44.7190 C   0  0  0  0  0  0  0  0  0  0  0  0
   45.2910   35.8120   43.5560 C   0  0  0  0  0  0  0  0  0  0  0  0
   46.2100   34.7510   43.4470 C   0  0  0  0  0  0  0  0  0  0  0  0
   46.2670   33.8980   44.5100 N   0  0  0  0  0  0  0  0  0  0  0  0
   45.5270   34.0000   45.6200 C   0  0  0  0  0  0  0  0  0  0  0  0
   44.6390   35.0290   45.7220 N   0  0  0  0  0  0  0  0  0  0  0  0
   46.0620   32.9200   40.9200 O   0  0  0  0  0  0  0  0  0  0  0  0
   44.7770   32.8430   40.4620 C   0  0  0  0  0  0  0  0  0  0  0  0
   44.8210   32.6400   38.9480 C   0  0  0  0  0  0  0  0  0  0  0  0
   43.4420   33.1020   38.5270 C   0  0  0  0  0  0  0  0  0  0  0  0
   43.2010   34.3500   39.3770 C   0  0  0  0  0  0  0  0  0  0  0  0
   44.1540   34.2200   40.5550 C   0  0  0  0  0  0  0  0  0  0  0  0
   48.8995   35.2680   43.0667 H   0  0  0  0  0  0  0  0  0  0  0  0
   49.0181   33.6994   42.3456 H   0  0  0  0  0  0  0  0  0  0  0  0
   48.2710   36.3793   40.9454 H   0  0  0  0  0  0  0  0  0  0  0  0
   49.6530   35.4162   40.5384 H   0  0  0  0  0  0  0  0  0  0  0  0
   47.3809   34.9974   39.1682 H   0  0  0  0  0  0  0  0  0  0  0  0
   48.1922   33.5500   39.7102 H   0  0  0  0  0  0  0  0  0  0  0  0
   45.6840   34.8414   40.7583 H   0  0  0  0  0  0  0  0  0  0  0  0
   43.7937   36.7451   44.8139 H   0  0  0  0  0  0  0  0  0  0  0  0
   45.1835   36.5442   42.7422 H   0  0  0  0  0  0  0  0  0  0  0  0
   45.6332   33.2679   46.4341 H   0  0  0  0  0  0  0  0  0  0  0  0
   44.2504   32.0568   41.0228 H   0  0  0  0  0  0  0  0  0  0  0  0
   45.6069   33.2549   38.4852 H   0  0  0  0  0  0  0  0  0  0  0  0
   45.0540   31.6083   38.6459 H   0  0  0  0  0  0  0  0  0  0  0  0
   43.4212   33.3478   37.4550 H   0  0  0  0  0  0  0  0  0  0  0  0
   42.6713   32.3311   38.6745 H   0  0  0  0  0  0  0  0  0  0  0  0
   43.4236   35.2592   38.7992 H   0  0  0  0  0  0  0  0  0  0  0  0
   42.1533   34.4298   39.7025 H   0  0  0  0  0  0  0  0  0  0  0  0
   43.6030   34.3235   41.5014 H   0  0  0  0  0  0  0  0  0  0  0  0
   44.9242   35.0049   40.5288 H   0  0  0  0  0  0  0  0  0  0  0  0
  1  8  1  0
  2  1  1  0
  3  2  1  0
  4  3  1  0
  4  5  1  0
  5  1  1  0
  6 11  2  0
  7  6  1  0
  8  7  2  0
  8  9  1  0
  9 10  2  0
 10 11  1  0
 12  5  1  0
 13 17  1  0
 13 12  1  0
 14 13  1  0
 15 14  1  0
 15 16  1  0
 16 17  1  0
  2 18  1  0
  2 19  1  0
  3 20  1  0
  3 21  1  0
  4 22  1  0
  4 23  1  0
  5 24  1  6
  6 25  1  0
  7 26  1  0
 10 27  1  0
 13 28  1  0
 14 29  1  0
 14 30  1  0
 15 31  1  0
 15 32  1  0
 16 33  1  0
 16 34  1  0
 17 35  1  0
 17 36  1  0
M  ISO  8  18  13  19  13  20  13  21  13  22  13  23  13  24  13  25  14
M  ISO  8  26  14  27  14  28  13  29  13  30  13  31  13  32  13  33  13
M  ISO  3  34  13  35  13  36  13
M  END
>  <minimizedAffinity>  (1) 
-4.81572628

>  <minimizedRMSD>  (1) 
0.322132647

$$$$
