
     RDKit          3D

 28 30  0  0  1  0  0  0  0  0999 V2000
   47.1840   34.5810   42.5310 N   0  0  0  0  0  0  0  0  0  0  0  0
   48.6220   34.3490   42.5820 C   0  0  0  0  0  0  0  0  0  0  0  0
   49.0590   35.2230   41.4240 C   0  0  0  0  0  0  0  0  0  0  0  0
   48.1000   34.7430   40.3540 C   0  0  0  0  0  0  0  0  0  0  0  0
   46.8080   34.6080   41.1340 C   0  0  1  0  0  0  0  0  0  0  0  0
   44.4850   35.8710   44.7480 C   0  0  0  0  0  0  0  0  0  0  0  0
   45.3270   35.7880   43.6380 C   0  0  0  0  0  0  0  0  0  0  0  0
   46.2900   34.7540   43.5970 C   0  0  0  0  0  0  0  0  0  0  0  0
   46.3230   33.9020   44.6610 N   0  0  0  0  0  0  0  0  0  0  0  0
   45.5000   34.0000   45.7240 C   0  0  0  0  0  0  0  0  0  0  0  0
   44.5860   34.9830   45.7600 N   0  0  0  0  0  0  0  0  0  0  0  0
   46.0480   33.5130   40.7310 O   0  0  0  0  0  0  0  0  0  0  0  0
   44.8350   33.7340   40.1050 C   0  0  0  0  0  0  0  0  0  0  0  0
   43.8920   34.5740   40.6040 N   0  0  0  0  0  0  0  0  0  0  0  0
   42.8680   34.5670   39.7910 O   0  0  0  0  0  0  0  0  0  0  0  0
   43.1400   33.7390   38.7850 C   0  0  0  0  0  0  0  0  0  0  0  0
   44.3680   33.2040   38.9600 N   0  0  0  0  0  0  0  0  0  0  0  0
   49.0578   34.6830   43.5352 H   0  0  0  0  0  0  0  0  0  0  0  0
   48.9283   33.2947   42.5138 H   0  0  0  0  0  0  0  0  0  0  0  0
   48.9219   36.2918   41.6451 H   0  0  0  0  0  0  0  0  0  0  0  0
   50.1240   35.1436   41.1604 H   0  0  0  0  0  0  0  0  0  0  0  0
   48.4180   33.7768   39.9354 H   0  0  0  0  0  0  0  0  0  0  0  0
   48.0283   35.4149   39.4860 H   0  0  0  0  0  0  0  0  0  0  0  0
   46.1356   35.4573   40.9427 H   0  0  0  0  0  0  0  0  0  0  0  0
   43.7301   36.6694   44.7989 H   0  0  0  0  0  0  0  0  0  0  0  0
   45.2431   36.5112   42.8134 H   0  0  0  0  0  0  0  0  0  0  0  0
   45.5764   33.2818   46.5537 H   0  0  0  0  0  0  0  0  0  0  0  0
   42.4682   33.5235   37.9410 H   0  0  0  0  0  0  0  0  0  0  0  0
  1  2  1  0
  1  8  1  0
  3  2  1  0
  4  5  1  0
  4  3  1  0
  5  1  1  0
  6 11  2  0
  7  6  1  0
  8  7  2  0
  8  9  1  0
  9 10  2  0
 10 11  1  0
 12  5  1  0
 13 14  2  0
 13 12  1  0
 15 14  1  0
 16 17  2  0
 16 15  1  0
 17 13  1  0
  2 18  1  0
  2 19  1  0
  3 20  1  0
  3 21  1  0
  4 22  1  0
  4 23  1  0
  5 24  1  1
  6 25  1  0
  7 26  1  0
 10 27  1  0
 16 28  1  0
M  ISO  8  18  13  19  13  20  13  21  13  22  13  23  13  24  13  25  14
M  ISO  3  26  14  27  14  28  14
M  END
>  <minimizedAffinity>  (1) 
-4.7984333

>  <minimizedRMSD>  (1) 
0.83370775

$$$$
