
     RDKit          3D

 26 27  0  0  1  0  0  0  0  0999 V2000
   47.2260   34.6170   42.4520 N   0  0  0  0  0  0  0  0  0  0  0  0
   48.6880   34.5430   42.5100 C   0  0  0  0  0  0  0  0  0  0  0  0
   49.0300   35.3850   41.2950 C   0  0  0  0  0  0  0  0  0  0  0  0
   48.1130   34.7850   40.2700 C   0  0  0  0  0  0  0  0  0  0  0  0
   46.8410   34.5190   41.0700 C   0  0  1  0  0  0  0  0  0  0  0  0
   44.4880   35.8400   44.6690 C   0  0  0  0  0  0  0  0  0  0  0  0
   45.3380   35.7720   43.5700 C   0  0  0  0  0  0  0  0  0  0  0  0
   46.3330   34.7580   43.5160 C   0  0  0  0  0  0  0  0  0  0  0  0
   46.3740   33.9170   44.5700 N   0  0  0  0  0  0  0  0  0  0  0  0
   45.5430   33.9890   45.6360 C   0  0  0  0  0  0  0  0  0  0  0  0
   44.5990   34.9650   45.6690 N   0  0  0  0  0  0  0  0  0  0  0  0
   46.2340   33.3370   40.7330 O   0  0  0  0  0  0  0  0  0  0  0  0
   44.9750   33.4350   40.1940 C   0  0  0  0  0  0  0  0  0  0  0  0
   44.0650   32.5760   40.8020 F   0  0  0  0  0  0  0  0  0  0  0  0
   44.9590   33.3720   38.8330 F   0  0  0  0  0  0  0  0  0  0  0  0
   44.5210   34.7200   40.5240 F   0  0  0  0  0  0  0  0  0  0  0  0
   49.0845   34.9813   43.4377 H   0  0  0  0  0  0  0  0  0  0  0  0
   49.1057   33.5254   42.5069 H   0  0  0  0  0  0  0  0  0  0  0  0
   48.8073   36.4489   41.4641 H   0  0  0  0  0  0  0  0  0  0  0  0
   50.0942   35.3723   41.0170 H   0  0  0  0  0  0  0  0  0  0  0  0
   48.5289   33.8508   39.8645 H   0  0  0  0  0  0  0  0  0  0  0  0
   47.9510   35.4342   39.3969 H   0  0  0  0  0  0  0  0  0  0  0  0
   46.0573   35.2567   40.8427 H   0  0  0  0  0  0  0  0  0  0  0  0
   43.7168   36.6232   44.7135 H   0  0  0  0  0  0  0  0  0  0  0  0
   45.2410   36.4974   42.7488 H   0  0  0  0  0  0  0  0  0  0  0  0
   45.6308   33.2685   46.4625 H   0  0  0  0  0  0  0  0  0  0  0  0
  1  2  1  0
  1  8  1  0
  3  2  1  0
  4  5  1  0
  4  3  1  0
  5  1  1  0
  6 11  2  0
  7  6  1  0
  8  7  2  0
  8  9  1  0
  9 10  2  0
 10 11  1  0
 12  5  1  0
 13 16  1  0
 13 12  1  0
 13 14  1  0
 15 13  1  0
  2 17  1  0
  2 18  1  0
  3 19  1  0
  3 20  1  0
  4 21  1  0
  4 22  1  0
  5 23  1  6
  6 24  1  0
  7 25  1  0
 10 26  1  0
M  ISO  8  17  13  18  13  19  13  20  13  21  13  22  13  23  13  24  14
M  ISO  2  25  14  26  14
M  END
>  <minimizedAffinity>  (1) 
-4.58665848

>  <minimizedRMSD>  (1) 
0.425088078

$$$$
