
     RDKit          3D

 32 33  0  0  1  0  0  0  0  0999 V2000
   47.2130   34.6520   42.3360 N   0  0  0  0  0  0  0  0  0  0  0  0
   48.6650   34.7880   42.3450 C   0  0  0  0  0  0  0  0  0  0  0  0
   48.8450   35.5120   41.0310 C   0  0  0  0  0  0  0  0  0  0  0  0
   48.0270   34.6330   40.1260 C   0  0  0  0  0  0  0  0  0  0  0  0
   46.8020   34.3270   40.9750 C   0  0  1  0  0  0  0  0  0  0  0  0
   44.5200   35.8960   44.5970 C   0  0  0  0  0  0  0  0  0  0  0  0
   45.3550   35.8330   43.4840 C   0  0  0  0  0  0  0  0  0  0  0  0
   46.3280   34.7980   43.4130 C   0  0  0  0  0  0  0  0  0  0  0  0
   46.3570   33.9420   44.4600 N   0  0  0  0  0  0  0  0  0  0  0  0
   45.5400   34.0170   45.5340 C   0  0  0  0  0  0  0  0  0  0  0  0
   44.6170   35.0080   45.5880 N   0  0  0  0  0  0  0  0  0  0  0  0
   46.3550   33.0360   40.8370 O   0  0  0  0  0  0  0  0  0  0  0  0
   45.0980   32.8820   40.3190 C   0  0  0  0  0  0  0  0  0  0  0  0
   44.2460   34.1260   40.4150 C   0  0  0  0  0  0  0  0  0  0  0  0
   45.2530   32.6040   38.8270 C   0  0  0  0  0  0  0  0  0  0  0  0
   49.0175   35.3873   43.1974 H   0  0  0  0  0  0  0  0  0  0  0  0
   49.2267   33.8478   42.4469 H   0  0  0  0  0  0  0  0  0  0  0  0
   48.4463   36.5363   41.0727 H   0  0  0  0  0  0  0  0  0  0  0  0
   49.8912   35.6472   40.7192 H   0  0  0  0  0  0  0  0  0  0  0  0
   48.5715   33.7124   39.8689 H   0  0  0  0  0  0  0  0  0  0  0  0
   47.7837   35.1047   39.1625 H   0  0  0  0  0  0  0  0  0  0  0  0
   45.9296   34.9185   40.6602 H   0  0  0  0  0  0  0  0  0  0  0  0
   43.7654   36.6939   44.6602 H   0  0  0  0  0  0  0  0  0  0  0  0
   45.2635   36.5712   42.6736 H   0  0  0  0  0  0  0  0  0  0  0  0
   45.6228   33.2854   46.3513 H   0  0  0  0  0  0  0  0  0  0  0  0
   44.6112   32.0781   40.8906 H   0  0  0  0  0  0  0  0  0  0  0  0
   44.0765   34.3735   41.4733 H   0  0  0  0  0  0  0  0  0  0  0  0
   44.7616   34.9626   39.9208 H   0  0  0  0  0  0  0  0  0  0  0  0
   43.2796   33.9476   39.9208 H   0  0  0  0  0  0  0  0  0  0  0  0
   45.7842   31.6513   38.6848 H   0  0  0  0  0  0  0  0  0  0  0  0
   44.2588   32.5427   38.3602 H   0  0  0  0  0  0  0  0  0  0  0  0
   45.8277   33.4175   38.3602 H   0  0  0  0  0  0  0  0  0  0  0  0
  1  2  1  0
  1  8  1  0
  3  2  1  0
  4  5  1  0
  4  3  1  0
  5  1  1  0
  6 11  2  0
  7  6  1  0
  8  7  2  0
  8  9  1  0
  9 10  2  0
 10 11  1  0
 12  5  1  0
 13 14  1  0
 13 12  1  0
 15 13  1  0
  2 16  1  0
  2 17  1  0
  3 18  1  0
  3 19  1  0
  4 20  1  0
  4 21  1  0
  5 22  1  6
  6 23  1  0
  7 24  1  0
 10 25  1  0
 13 26  1  0
 14 27  1  0
 14 28  1  0
 14 29  1  0
 15 30  1  0
 15 31  1  0
 15 32  1  0
M  ISO  8  16  13  17  13  18  13  19  13  20  13  21  13  22  13  23  14
M  ISO  8  24  14  25  14  26   8  27   8  28   8  29   8  30   8  31   8
M  ISO  1  32   8
M  END
>  <minimizedAffinity>  (1) 
-4.5386858

>  <minimizedRMSD>  (1) 
0.705486596

$$$$
