
     RDKit          3D

 37 40  0  0  1  0  0  0  0  0999 V2000
   46.5820   34.1740   42.3260 N   0  0  0  0  0  0  0  0  0  0  0  0
   47.9210   33.5840   42.1910 C   0  0  0  0  0  0  0  0  0  0  0  0
   48.4080   34.3660   40.9860 C   0  0  0  0  0  0  0  0  0  0  0  0
   47.2350   34.1900   40.0600 C   0  0  0  0  0  0  0  0  0  0  0  0
   46.0410   34.3500   40.9900 C   0  0  1  0  0  0  0  0  0  0  0  0
   44.4810   35.9360   44.8470 C   0  0  0  0  0  0  0  0  0  0  0  0
   45.1070   35.6830   43.6130 C   0  0  0  0  0  0  0  0  0  0  0  0
   45.9120   34.5220   43.5130 C   0  0  0  0  0  0  0  0  0  0  0  0
   46.0260   33.7290   44.6190 N   0  0  0  0  0  0  0  0  0  0  0  0
   45.4020   34.0140   45.7910 C   0  0  0  0  0  0  0  0  0  0  0  0
   44.6390   35.1160   45.8850 N   0  0  0  0  0  0  0  0  0  0  0  0
   45.0160   33.4760   40.7000 O   0  0  0  0  0  0  0  0  0  0  0  0
   43.9640   33.7870   39.8520 C   0  0  0  0  0  0  0  0  0  0  0  0
   43.8270   33.4600   38.5050 C   0  0  0  0  0  0  0  0  0  0  0  0
   42.6730   33.9280   37.9970 N   0  0  0  0  0  0  0  0  0  0  0  0
   42.0100   34.5810   38.9940 C   0  0  0  0  0  0  0  0  0  0  0  0
   40.8190   35.2620   39.1300 C   0  0  0  0  0  0  0  0  0  0  0  0
   40.3990   35.8330   40.2920 C   0  0  0  0  0  0  0  0  0  0  0  0
   41.1890   35.7500   41.4350 C   0  0  0  0  0  0  0  0  0  0  0  0
   42.3800   35.0690   41.2970 C   0  0  0  0  0  0  0  0  0  0  0  0
   42.8180   34.4860   40.1310 C   0  0  0  0  0  0  0  0  0  0  0  0
   48.5432   33.7667   43.0796 H   0  0  0  0  0  0  0  0  0  0  0  0
   47.9458   32.4894   42.0847 H   0  0  0  0  0  0  0  0  0  0  0  0
   48.5788   35.4249   41.2298 H   0  0  0  0  0  0  0  0  0  0  0  0
   49.3721   34.0293   40.5773 H   0  0  0  0  0  0  0  0  0  0  0  0
   47.2313   34.9606   39.2750 H   0  0  0  0  0  0  0  0  0  0  0  0
   47.2437   33.2286   39.5256 H   0  0  0  0  0  0  0  0  0  0  0  0
   45.5674   35.3364   40.8771 H   0  0  0  0  0  0  0  0  0  0  0  0
   43.8482   36.8290   44.9572 H   0  0  0  0  0  0  0  0  0  0  0  0
   44.9762   36.3618   42.7573 H   0  0  0  0  0  0  0  0  0  0  0  0
   45.5204   33.3471   46.6577 H   0  0  0  0  0  0  0  0  0  0  0  0
   44.5703   32.8899   37.9284 H   0  0  0  0  0  0  0  0  0  0  0  0
   42.3475   33.8135   37.0265 H   0  0  0  0  0  0  0  0  0  0  0  0
   40.1693   35.3491   38.2466 H   0  0  0  0  0  0  0  0  0  0  0  0
   39.4344   36.3605   40.3278 H   0  0  0  0  0  0  0  0  0  0  0  0
   40.8818   36.2004   42.3904 H   0  0  0  0  0  0  0  0  0  0  0  0
   43.0263   34.9861   42.1833 H   0  0  0  0  0  0  0  0  0  0  0  0
  1  8  1  0
  2  1  1  0
  3  2  1  0
  4  3  1  0
  4  5  1  0
  5  1  1  0
  6 11  2  0
  7  6  1  0
  8  7  2  0
  8  9  1  0
  9 10  2  0
 10 11  1  0
 12  5  1  0
 13 21  1  0
 13 12  1  0
 14 13  2  0
 15 14  1  0
 15 16  1  0
 16 17  2  0
 16 21  1  0
 17 18  1  0
 18 19  2  0
 20 19  1  0
 21 20  2  0
  2 22  1  0
  2 23  1  0
  3 24  1  0
  3 25  1  0
  4 26  1  0
  4 27  1  0
  5 28  1  1
  6 29  1  0
  7 30  1  0
 10 31  1  0
 14 32  1  0
 15 33  1  0
 17 34  1  0
 18 35  1  0
 19 36  1  0
 20 37  1  0
M  ISO  8  22  13  23  13  24  13  25  13  26  13  27  13  28  13  29  14
M  ISO  8  30  14  31  14  32  14  33   9  34  14  35  14  36  14  37  14
M  END
>  <minimizedAffinity>  (1) 
-6.36209631

>  <minimizedRMSD>  (1) 
1.51757276

$$$$
