
     RDKit          3D

 53 57  0  0  1  0  0  0  0  0999 V2000
   45.4710   33.6070   41.8460 N   0  0  0  0  0  0  0  0  0  0  0  0
   46.4680   32.5610   41.5420 C   0  0  0  0  0  0  0  0  0  0  0  0
   46.9510   33.0950   40.2120 C   0  0  0  0  0  0  0  0  0  0  0  0
   45.6290   33.3090   39.5330 C   0  0  0  0  0  0  0  0  0  0  0  0
   44.7520   33.8990   40.6460 C   0  0  1  0  0  0  0  0  0  0  0  0
   44.4460   35.9920   44.4950 C   0  0  0  0  0  0  0  0  0  0  0  0
   44.6540   35.5270   43.1700 C   0  0  0  0  0  0  0  0  0  0  0  0
   45.2270   34.2350   43.0830 C   0  0  0  0  0  0  0  0  0  0  0  0
   45.5370   33.5340   44.2400 N   0  0  0  0  0  0  0  0  0  0  0  0
   45.3100   34.0400   45.4720 C   0  0  0  0  0  0  0  0  0  0  0  0
   44.7660   35.2680   45.5870 N   0  0  0  0  0  0  0  0  0  0  0  0
   43.4350   33.4180   40.6330 O   0  0  0  0  0  0  0  0  0  0  0  0
   42.4480   34.0370   39.8890 C   0  0  0  0  0  0  0  0  0  0  0  0
   42.5080   35.1090   38.9630 C   0  0  0  0  0  0  0  0  0  0  0  0
   41.2930   35.4640   38.5120 N   0  0  0  0  0  0  0  0  0  0  0  0
   40.4010   34.6490   39.1120 C   0  0  0  0  0  0  0  0  0  0  0  0
   39.0200   34.6030   39.1880 C   0  0  0  0  0  0  0  0  0  0  0  0
   38.3930   33.7280   40.0050 C   0  0  0  0  0  0  0  0  0  0  0  0
   39.0710   32.8210   40.7920 C   0  0  0  0  0  0  0  0  0  0  0  0
   40.4190   32.8630   40.7150 C   0  0  0  0  0  0  0  0  0  0  0  0
   41.1110   33.7390   39.9530 C   0  0  0  0  0  0  0  0  0  0  0  0
   40.9860   31.4830   41.0700 C   0  0  0  0  0  0  0  0  0  0  0  0
   40.3000   31.2960   42.5190 C   0  0  0  0  0  0  0  0  0  0  0  0
   40.8290   30.1690   43.2710 C   0  0  0  0  0  0  0  0  0  0  0  0
   39.9790   29.0200   42.6900 C   0  0  0  0  0  0  0  0  0  0  0  0
   40.5160   28.9910   41.3270 C   0  0  0  0  0  0  0  0  0  0  0  0
   40.4170   30.2710   40.4850 C   0  0  0  0  0  0  0  0  0  0  0  0
   47.2725   32.5244   42.2912 H   0  0  0  0  0  0  0  0  0  0  0  0
   46.0906   31.5278   41.5344 H   0  0  0  0  0  0  0  0  0  0  0  0
   47.5100   34.0354   40.3265 H   0  0  0  0  0  0  0  0  0  0  0  0
   47.6526   32.4413   39.6731 H   0  0  0  0  0  0  0  0  0  0  0  0
   45.7266   34.0129   38.6933 H   0  0  0  0  0  0  0  0  0  0  0  0
   45.2131   32.3872   39.1002 H   0  0  0  0  0  0  0  0  0  0  0  0
   44.5950   34.9808   40.5237 H   0  0  0  0  0  0  0  0  0  0  0  0
   44.0034   36.9889   44.6377 H   0  0  0  0  0  0  0  0  0  0  0  0
   44.3914   36.1220   42.2829 H   0  0  0  0  0  0  0  0  0  0  0  0
   45.5657   33.4576   46.3694 H   0  0  0  0  0  0  0  0  0  0  0  0
   43.4435   35.5952   38.6492 H   0  0  0  0  0  0  0  0  0  0  0  0
   41.0831   36.2140   37.8379 H   0  0  0  0  0  0  0  0  0  0  0  0
   38.4219   35.2910   38.5724 H   0  0  0  0  0  0  0  0  0  0  0  0
   37.2938   33.7398   40.0440 H   0  0  0  0  0  0  0  0  0  0  0  0
   38.5459   32.1066   41.4431 H   0  0  0  0  0  0  0  0  0  0  0  0
   42.0585   31.5242   40.8292 H   0  0  0  0  0  0  0  0  0  0  0  0
   40.4658   32.2130   43.1035 H   0  0  0  0  0  0  0  0  0  0  0  0
   39.2317   31.0974   42.3477 H   0  0  0  0  0  0  0  0  0  0  0  0
   41.9014   30.0190   43.0774 H   0  0  0  0  0  0  0  0  0  0  0  0
   40.7675   30.2776   44.3639 H   0  0  0  0  0  0  0  0  0  0  0  0
   40.1525   28.0719   43.2202 H   0  0  0  0  0  0  0  0  0  0  0  0
   38.8902   29.1587   42.7626 H   0  0  0  0  0  0  0  0  0  0  0  0
   41.5820   28.7301   41.4011 H   0  0  0  0  0  0  0  0  0  0  0  0
   39.8818   28.2647   40.7977 H   0  0  0  0  0  0  0  0  0  0  0  0
   39.3511   30.4620   40.2918 H   0  0  0  0  0  0  0  0  0  0  0  0
   41.0170   30.0736   39.5844 H   0  0  0  0  0  0  0  0  0  0  0  0
  1  8  1  0
  2  1  1  0
  3  2  1  0
  4  3  1  0
  4  5  1  0
  5  1  1  0
  6 11  2  0
  7  6  1  0
  8  7  2  0
  8  9  1  0
  9 10  2  0
 10 11  1  0
 12  5  1  0
 13 21  1  0
 13 12  1  0
 14 13  2  0
 15 14  1  0
 15 16  1  0
 16 17  2  0
 16 21  1  0
 17 18  1  0
 18 19  2  0
 20 19  1  0
 20 22  1  0
 21 20  2  0
 22 23  1  0
 23 24  1  0
 25 24  1  0
 26 25  1  0
 27 22  1  0
 27 26  1  0
  2 28  1  0
  2 29  1  0
  3 30  1  0
  3 31  1  0
  4 32  1  0
  4 33  1  0
  5 34  1  6
  6 35  1  0
  7 36  1  0
 10 37  1  0
 14 38  1  0
 15 39  1  0
 17 40  1  0
 18 41  1  0
 19 42  1  0
 22 43  1  0
 23 44  1  0
 23 45  1  0
 24 46  1  0
 24 47  1  0
 25 48  1  0
 25 49  1  0
 26 50  1  0
 26 51  1  0
 27 52  1  0
 27 53  1  0
M  ISO  8  28  13  29  13  30  13  31  13  32  13  33  13  34  13  35  14
M  ISO  8  36  14  37  14  38  14  39   9  40  14  41  14  42  14  43  13
M  ISO  8  44  13  45  13  46  13  47  13  48  13  49  13  50  13  51  13
M  ISO  2  52  13  53  13
M  END
>  <minimizedAffinity>  (1) 
-6.43232346

>  <minimizedRMSD>  (1) 
2.40305448

$$$$
