
     RDKit          3D

 51 56  0  0  1  0  0  0  0  0999 V2000
   43.5160   33.8040   39.4450 C   0  0  0  0  0  0  0  0  0  0  0  0
   43.5850   34.3180   38.1230 C   0  0  0  0  0  0  0  0  0  0  0  0
   42.5570   35.1480   37.8310 N   0  0  0  0  0  0  0  0  0  0  0  0
   41.7900   35.2020   38.9320 C   0  0  0  0  0  0  0  0  0  0  0  0
   40.7130   35.9900   39.3300 C   0  0  0  0  0  0  0  0  0  0  0  0
   40.2290   35.9340   40.5910 C   0  0  0  0  0  0  0  0  0  0  0  0
   40.7340   35.0940   41.5690 C   0  0  0  0  0  0  0  0  0  0  0  0
   41.7750   34.3350   41.1610 C   0  0  0  0  0  0  0  0  0  0  0  0
   42.3570   34.3520   39.9380 C   0  0  0  0  0  0  0  0  0  0  0  0
   41.9170   32.8780   41.6310 C   0  0  0  0  0  0  0  0  0  0  0  0
   42.7420   32.0970   42.1840 N   0  0  0  0  0  0  0  0  0  0  0  0
   42.8590   30.8470   42.4520 C   0  0  0  0  0  0  0  0  0  0  0  0
   41.8780   30.0300   42.0880 N   0  0  0  0  0  0  0  0  0  0  0  0
   40.8320   30.6040   41.4560 C   0  0  0  0  0  0  0  0  0  0  0  0
   39.8700   29.7040   41.0640 C   0  0  0  0  0  0  0  0  0  0  0  0
   38.7880   30.1730   40.3650 C   0  0  0  0  0  0  0  0  0  0  0  0
   38.7090   31.5190   40.0840 C   0  0  0  0  0  0  0  0  0  0  0  0
   39.7380   32.2990   40.5350 C   0  0  0  0  0  0  0  0  0  0  0  0
   40.8860   31.9680   41.2530 C   0  0  0  0  0  0  0  0  0  0  0  0
   44.4090   32.9810   40.1490 O   0  0  0  0  0  0  0  0  0  0  0  0
   46.1500   33.3530   41.7570 N   0  0  0  0  0  0  0  0  0  0  0  0
   47.1560   32.2780   41.8200 C   0  0  0  0  0  0  0  0  0  0  0  0
   47.9460   32.6400   40.5810 C   0  0  0  0  0  0  0  0  0  0  0  0
   46.8010   32.7260   39.6040 C   0  0  0  0  0  0  0  0  0  0  0  0
   45.7170   33.4700   40.4000 C   0  0  1  0  0  0  0  0  0  0  0  0
   44.5310   35.9720   43.8300 C   0  0  0  0  0  0  0  0  0  0  0  0
   45.0280   35.3720   42.6370 C   0  0  0  0  0  0  0  0  0  0  0  0
   45.6720   34.1300   42.8200 C   0  0  0  0  0  0  0  0  0  0  0  0
   45.7570   33.6340   44.0920 N   0  0  0  0  0  0  0  0  0  0  0  0
   45.2660   34.2450   45.1840 C   0  0  0  0  0  0  0  0  0  0  0  0
   44.6560   35.4130   45.0440 N   0  0  0  0  0  0  0  0  0  0  0  0
   44.3874   34.0684   37.4131 H   0  0  0  0  0  0  0  0  0  0  0  0
   42.3950   35.6405   36.9410 H   0  0  0  0  0  0  0  0  0  0  0  0
   40.2467   36.6718   38.6036 H   0  0  0  0  0  0  0  0  0  0  0  0
   39.3878   36.5919   40.8546 H   0  0  0  0  0  0  0  0  0  0  0  0
   40.3238   35.0485   42.5886 H   0  0  0  0  0  0  0  0  0  0  0  0
   43.7498   30.4625   42.9703 H   0  0  0  0  0  0  0  0  0  0  0  0
   39.9658   28.6350   41.3049 H   0  0  0  0  0  0  0  0  0  0  0  0
   37.9957   29.4855   40.0339 H   0  0  0  0  0  0  0  0  0  0  0  0
   37.8621   31.9447   39.5257 H   0  0  0  0  0  0  0  0  0  0  0  0
   39.6438   33.3672   40.2899 H   0  0  0  0  0  0  0  0  0  0  0  0
   47.7671   32.3348   42.7329 H   0  0  0  0  0  0  0  0  0  0  0  0
   46.7591   31.2526   41.8517 H   0  0  0  0  0  0  0  0  0  0  0  0
   48.4710   33.6005   40.6900 H   0  0  0  0  0  0  0  0  0  0  0  0
   48.7546   31.9453   40.3098 H   0  0  0  0  0  0  0  0  0  0  0  0
   46.4567   31.7234   39.3102 H   0  0  0  0  0  0  0  0  0  0  0  0
   47.0713   33.2318   38.6653 H   0  0  0  0  0  0  0  0  0  0  0  0
   45.6170   34.5250   40.1050 H   0  0  0  0  0  0  0  0  0  0  0  0
   44.0189   36.9424   43.7522 H   0  0  0  0  0  0  0  0  0  0  0  0
   44.9180   35.8415   41.6483 H   0  0  0  0  0  0  0  0  0  0  0  0
   45.3688   33.7832   46.1771 H   0  0  0  0  0  0  0  0  0  0  0  0
  1  9  1  0
  1 20  1  0
  2  1  2  0
  3  2  1  0
  3  4  1  0
  4  5  2  0
  4  9  1  0
  5  6  1  0
  6  7  2  0
  8  7  1  0
  8 10  1  0
  9  8  2  0
 10 11  2  0
 11 12  1  0
 13 12  2  0
 14 13  1  0
 15 14  2  0
 16 15  1  0
 17 16  2  0
 17 18  1  0
 18 19  2  0
 19 14  1  0
 19 10  1  0
 20 25  1  0
 21 22  1  0
 21 28  1  0
 23 22  1  0
 24 25  1  0
 24 23  1  0
 25 21  1  0
 26 31  2  0
 27 28  2  0
 27 26  1  0
 28 29  1  0
 29 30  2  0
 31 30  1  0
  2 32  1  0
  3 33  1  0
  5 34  1  0
  6 35  1  0
  7 36  1  0
 12 37  1  0
 15 38  1  0
 16 39  1  0
 17 40  1  0
 18 41  1  0
 22 42  1  0
 22 43  1  0
 23 44  1  0
 23 45  1  0
 24 46  1  0
 24 47  1  0
 25 48  1  6
 26 49  1  0
 27 50  1  0
 30 51  1  0
M  ISO  8  32  14  33   9  34  14  35  14  36  14  37  14  38  14  39  14
M  ISO  8  40  14  41  14  42  13  43  13  44  13  45  13  46  13  47  13
M  ISO  4  48  13  49  14  50  14  51  14
M  END
>  <minimizedAffinity>  (1) 
-6.39054441

>  <minimizedRMSD>  (1) 
1.454849

$$$$
