
     RDKit          3D

 44 48  0  0  1  0  0  0  0  0999 V2000
   43.5130   33.3050   40.7070 O   0  0  0  0  0  0  0  0  0  0  0  0
   42.4950   33.9250   39.9680 C   0  0  0  0  0  0  0  0  0  0  0  0
   42.5770   34.9310   38.9770 C   0  0  0  0  0  0  0  0  0  0  0  0
   41.3730   35.3150   38.5230 N   0  0  0  0  0  0  0  0  0  0  0  0
   40.4610   34.5790   39.1910 C   0  0  0  0  0  0  0  0  0  0  0  0
   39.0700   34.5440   39.2230 C   0  0  0  0  0  0  0  0  0  0  0  0
   38.3790   33.7050   40.0520 C   0  0  0  0  0  0  0  0  0  0  0  0
   39.0670   32.8240   40.9090 C   0  0  0  0  0  0  0  0  0  0  0  0
   40.4290   32.8820   40.8480 C   0  0  0  0  0  0  0  0  0  0  0  0
   41.1650   33.7150   40.0670 C   0  0  0  0  0  0  0  0  0  0  0  0
   40.9700   31.5410   41.2340 C   0  0  0  0  0  0  0  0  0  0  0  0
   41.3000   30.4170   40.4590 C   0  0  0  0  0  0  0  0  0  0  0  0
   41.9060   29.4340   41.2030 C   0  0  0  0  0  0  0  0  0  0  0  0
   41.9360   29.9760   42.4320 N   0  0  0  0  0  0  0  0  0  0  0  0
   41.4050   31.1590   42.4280 N   0  0  0  0  0  0  0  0  0  0  0  0
   45.5380   33.6490   41.9190 N   0  0  0  0  0  0  0  0  0  0  0  0
   46.5990   32.6690   41.6140 C   0  0  0  0  0  0  0  0  0  0  0  0
   47.0400   33.2090   40.2750 C   0  0  0  0  0  0  0  0  0  0  0  0
   45.7110   33.3640   39.6020 C   0  0  0  0  0  0  0  0  0  0  0  0
   44.7980   33.8860   40.7170 C   0  0  1  0  0  0  0  0  0  0  0  0
   44.4360   36.0280   44.5470 C   0  0  0  0  0  0  0  0  0  0  0  0
   44.6880   35.5370   43.2620 C   0  0  0  0  0  0  0  0  0  0  0  0
   45.2590   34.2590   43.1510 C   0  0  0  0  0  0  0  0  0  0  0  0
   45.5360   33.5700   44.3110 N   0  0  0  0  0  0  0  0  0  0  0  0
   45.2790   34.0770   45.5400 C   0  0  0  0  0  0  0  0  0  0  0  0
   44.7300   35.3060   45.6430 N   0  0  0  0  0  0  0  0  0  0  0  0
   43.5263   35.3539   38.6165 H   0  0  0  0  0  0  0  0  0  0  0  0
   41.1833   36.0301   37.8064 H   0  0  0  0  0  0  0  0  0  0  0  0
   38.5069   35.2151   38.5578 H   0  0  0  0  0  0  0  0  0  0  0  0
   37.2791   33.7180   40.0498 H   0  0  0  0  0  0  0  0  0  0  0  0
   38.5402   32.1336   41.5841 H   0  0  0  0  0  0  0  0  0  0  0  0
   41.0967   30.3336   39.3812 H   0  0  0  0  0  0  0  0  0  0  0  0
   42.2741   28.4506   40.8751 H   0  0  0  0  0  0  0  0  0  0  0  0
   42.3279   29.5141   43.2650 H   0  0  0  0  0  0  0  0  0  0  0  0
   47.4101   32.6945   42.3566 H   0  0  0  0  0  0  0  0  0  0  0  0
   46.2854   31.6147   41.6193 H   0  0  0  0  0  0  0  0  0  0  0  0
   47.5607   34.1727   40.3757 H   0  0  0  0  0  0  0  0  0  0  0  0
   47.7595   32.5753   39.7358 H   0  0  0  0  0  0  0  0  0  0  0  0
   45.7721   34.0863   38.7746 H   0  0  0  0  0  0  0  0  0  0  0  0
   45.3468   32.4265   39.1565 H   0  0  0  0  0  0  0  0  0  0  0  0
   44.5636   34.9538   40.5946 H   0  0  0  0  0  0  0  0  0  0  0  0
   43.9879   37.0258   44.6638 H   0  0  0  0  0  0  0  0  0  0  0  0
   44.4471   36.1318   42.3686 H   0  0  0  0  0  0  0  0  0  0  0  0
   45.5146   33.4948   46.4431 H   0  0  0  0  0  0  0  0  0  0  0  0
  1 20  1  0
  2 10  1  0
  2  1  1  0
  3  2  2  0
  4  3  1  0
  4  5  1  0
  5  6  2  0
  5 10  1  0
  6  7  1  0
  7  8  2  0
  9  8  1  0
  9 11  1  0
 10  9  2  0
 11 15  2  0
 12 13  2  0
 12 11  1  0
 13 14  1  0
 15 14  1  0
 16 23  1  0
 17 16  1  0
 18 17  1  0
 19 18  1  0
 19 20  1  0
 20 16  1  0
 21 26  2  0
 22 21  1  0
 23 22  2  0
 23 24  1  0
 24 25  2  0
 25 26  1  0
  3 27  1  0
  4 28  1  0
  6 29  1  0
  7 30  1  0
  8 31  1  0
 12 32  1  0
 13 33  1  0
 14 34  1  0
 17 35  1  0
 17 36  1  0
 18 37  1  0
 18 38  1  0
 19 39  1  0
 19 40  1  0
 20 41  1  6
 21 42  1  0
 22 43  1  0
 25 44  1  0
M  ISO  8  27  14  28   9  29  14  30  14  31  14  32  14  33  14  34   9
M  ISO  8  35  13  36  13  37  13  38  13  39  13  40  13  41  13  42  14
M  ISO  2  43  14  44  14
M  END
>  <minimizedAffinity>  (1) 
-6.06673193

>  <minimizedRMSD>  (1) 
2.34014869

$$$$
