
     RDKit          3D

 30 31  0  0  1  0  0  0  0  0999 V2000
   44.7630   35.4450   43.1550 C   0  0  1  0  0  0  0  0  0  0  0  0
   45.4910   34.4990   44.0410 C   0  0  0  0  0  0  0  0  0  0  0  0
   46.5560   33.7620   43.4730 C   0  0  0  0  0  0  0  0  0  0  0  0
   47.2290   32.8700   44.2990 C   0  0  0  0  0  0  0  0  0  0  0  0
   46.8440   32.7490   45.5950 N   0  0  0  0  0  0  0  0  0  0  0  0
   45.8220   33.4660   46.1190 C   0  0  0  0  0  0  0  0  0  0  0  0
   45.1860   34.3100   45.3260 N   0  0  0  0  0  0  0  0  0  0  0  0
   45.1890   36.8790   43.3910 C   0  0  0  0  0  0  0  0  0  0  0  0
   44.9720   35.0750   41.6970 C   0  0  0  0  0  0  0  0  0  0  0  0
   43.7070   34.6890   41.1880 N   0  0  0  0  0  0  0  0  0  0  0  0
   42.5610   35.2720   41.7420 C   0  0  0  0  0  0  0  0  0  0  0  0
   41.2520   34.7070   41.2940 C   0  0  0  0  0  0  0  0  0  0  0  0
   41.3140   33.7010   40.3520 O   0  0  0  0  0  0  0  0  0  0  0  0
   42.3590   33.8690   39.4470 C   0  0  0  0  0  0  0  0  0  0  0  0
   43.6190   33.6240   40.2850 C   0  0  0  0  0  0  0  0  0  0  0  0
   43.6935   35.3663   43.4001 H   0  0  0  0  0  0  0  0  0  0  0  0
   46.8406   33.8899   42.4182 H   0  0  0  0  0  0  0  0  0  0  0  0
   48.0633   32.2694   43.9075 H   0  0  0  0  0  0  0  0  0  0  0  0
   45.5300   33.3494   47.1731 H   0  0  0  0  0  0  0  0  0  0  0  0
   45.2461   37.0713   44.4726 H   0  0  0  0  0  0  0  0  0  0  0  0
   46.1761   37.0479   42.9359 H   0  0  0  0  0  0  0  0  0  0  0  0
   44.4542   37.5594   42.9359 H   0  0  0  0  0  0  0  0  0  0  0  0
   45.3572   35.9405   41.1380 H   0  0  0  0  0  0  0  0  0  0  0  0
   45.7035   34.2596   41.5973 H   0  0  0  0  0  0  0  0  0  0  0  0
   42.6207   36.0985   42.4655 H   0  0  0  0  0  0  0  0  0  0  0  0
   40.2940   35.0723   41.6925 H   0  0  0  0  0  0  0  0  0  0  0  0
   42.3572   34.8879   39.0325 H   0  0  0  0  0  0  0  0  0  0  0  0
   42.2855   33.1898   38.5849 H   0  0  0  0  0  0  0  0  0  0  0  0
   43.5353   32.6710   40.8279 H   0  0  0  0  0  0  0  0  0  0  0  0
   44.5150   33.5653   39.6495 H   0  0  0  0  0  0  0  0  0  0  0  0
  1  8  1  0
  1  2  1  0
  2  7  1  0
  3  2  2  0
  3  4  1  0
  4  5  2  0
  5  6  1  0
  7  6  2  0
  9  1  1  0
 10  9  1  0
 10 11  1  0
 12 11  2  0
 13 12  1  0
 14 15  1  0
 14 13  1  0
 15 10  1  0
  1 16  1  1
  3 17  1  0
  4 18  1  0
  6 19  1  0
  8 20  1  0
  8 21  1  0
  8 22  1  0
  9 23  1  0
  9 24  1  0
 11 25  1  0
 12 26  1  0
 14 27  1  0
 14 28  1  0
 15 29  1  0
 15 30  1  0
M  ISO  8  16   8  17  14  18  14  19  14  20   8  21   8  22   8  23   8
M  ISO  7  24   8  25  13  26  13  27  13  28  13  29  13  30  13
M  END
>  <minimizedAffinity>  (1) 
-3.91138601

>  <minimizedRMSD>  (1) 
2.02017641

$$$$
