
     RDKit          3D

 48 51  0  0  1  0  0  0  0  0999 V2000
   42.2000   33.9330   40.4790 N   0  0  0  0  0  0  0  0  0  0  0  0
   42.2150   35.2110   39.8960 C   0  0  0  0  0  0  0  0  0  0  0  0
   40.9430   35.6300   39.2420 C   0  0  0  0  0  0  0  0  0  0  0  0
   39.8170   35.6200   40.2200 C   0  0  0  0  0  0  0  0  0  0  0  0
   39.8400   34.3860   41.0450 C   0  0  0  0  0  0  0  0  0  0  0  0
   40.8990   33.3990   40.6870 C   0  0  1  0  0  0  0  0  0  0  0  0
   40.5070   32.4210   39.6830 N   0  0  0  0  0  0  0  0  0  0  0  0
   41.0620   32.1190   38.4850 C   0  0  0  0  0  0  0  0  0  0  0  0
   40.3760   31.1470   37.8730 N   0  0  0  0  0  0  0  0  0  0  0  0
   39.3420   30.7870   38.6710 C   0  0  0  0  0  0  0  0  0  0  0  0
   38.3330   29.8450   38.5310 C   0  0  0  0  0  0  0  0  0  0  0  0
   38.2550   29.1270   37.5170 O   0  0  0  0  0  0  0  0  0  0  0  0
   37.4120   29.6990   39.5140 N   0  0  0  0  0  0  0  0  0  0  0  0
   37.5040   30.4850   40.6150 C   0  0  0  0  0  0  0  0  0  0  0  0
   36.5860   30.4130   41.7080 N   0  0  0  0  0  0  0  0  0  0  0  0
   38.4990   31.4070   40.7420 N   0  0  0  0  0  0  0  0  0  0  0  0
   39.4350   31.5770   39.7790 C   0  0  0  0  0  0  0  0  0  0  0  0
   43.1110   33.7150   41.5740 C   0  0  0  0  0  0  0  0  0  0  0  0
   44.3820   33.0970   40.9760 C   0  0  1  0  0  0  0  0  0  0  0  0
   45.5800   33.6020   41.6990 C   0  0  0  0  0  0  0  0  0  0  0  0
   45.7730   33.0850   43.0100 C   0  0  0  0  0  0  0  0  0  0  0  0
   46.8790   33.5270   43.7520 C   0  0  0  0  0  0  0  0  0  0  0  0
   47.7130   34.4520   43.1370 N   0  0  0  0  0  0  0  0  0  0  0  0
   47.4810   34.9080   41.8910 C   0  0  0  0  0  0  0  0  0  0  0  0
   46.4310   34.4970   41.1690 N   0  0  0  0  0  0  0  0  0  0  0  0
   44.3000   31.6080   40.9330 C   0  0  0  0  0  0  0  0  0  0  0  0
   42.4476   35.9413   40.6850 H   0  0  0  0  0  0  0  0  0  0  0  0
   42.9684   35.1703   39.0955 H   0  0  0  0  0  0  0  0  0  0  0  0
   41.0622   36.6467   38.8395 H   0  0  0  0  0  0  0  0  0  0  0  0
   40.7130   34.9223   38.4319 H   0  0  0  0  0  0  0  0  0  0  0  0
   39.9059   36.4956   40.8799 H   0  0  0  0  0  0  0  0  0  0  0  0
   38.8689   35.6518   39.6632 H   0  0  0  0  0  0  0  0  0  0  0  0
   39.9914   34.6813   42.0938 H   0  0  0  0  0  0  0  0  0  0  0  0
   38.8799   33.8809   40.8632 H   0  0  0  0  0  0  0  0  0  0  0  0
   40.9998   32.8264   41.6208 H   0  0  0  0  0  0  0  0  0  0  0  0
   41.9565   32.6073   38.0709 H   0  0  0  0  0  0  0  0  0  0  0  0
   36.6566   29.0043   39.4266 H   0  0  0  0  0  0  0  0  0  0  0  0
   36.7031   31.0348   42.5207 H   0  0  0  0  0  0  0  0  0  0  0  0
   35.8073   29.7393   41.6830 H   0  0  0  0  0  0  0  0  0  0  0  0
   43.3490   34.6703   42.0647 H   0  0  0  0  0  0  0  0  0  0  0  0
   42.6674   33.0513   42.3307 H   0  0  0  0  0  0  0  0  0  0  0  0
   44.4785   33.4139   39.9271 H   0  0  0  0  0  0  0  0  0  0  0  0
   45.0693   32.3533   43.4337 H   0  0  0  0  0  0  0  0  0  0  0  0
   47.0757   33.1593   44.7699 H   0  0  0  0  0  0  0  0  0  0  0  0
   48.1753   35.6404   41.4533 H   0  0  0  0  0  0  0  0  0  0  0  0
   44.2782   31.2122   41.9591 H   0  0  0  0  0  0  0  0  0  0  0  0
   43.3839   31.3063   40.4041 H   0  0  0  0  0  0  0  0  0  0  0  0
   45.1775   31.2076   40.4041 H   0  0  0  0  0  0  0  0  0  0  0  0
  1  6  1  0
  1 18  1  0
  2  1  1  0
  3  2  1  0
  3  4  1  0
  4  5  1  0
  6  5  1  0
  7 17  1  0
  7  6  1  0
  8  7  1  0
  9  8  2  0
  9 10  1  0
 10 17  2  0
 11 10  1  0
 11 13  1  0
 12 11  2  0
 13 14  1  0
 14 16  2  0
 14 15  1  0
 17 16  1  0
 19 18  1  0
 19 20  1  0
 20 21  2  0
 21 22  1  0
 23 22  2  0
 24 23  1  0
 25 20  1  0
 25 24  2  0
 26 19  1  0
  2 27  1  0
  2 28  1  0
  3 29  1  0
  3 30  1  0
  4 31  1  0
  4 32  1  0
  5 33  1  0
  5 34  1  0
  6 35  1  1
  8 36  1  0
 13 37  1  0
 15 38  1  0
 15 39  1  0
 18 40  1  0
 18 41  1  0
 19 42  1  6
 21 43  1  0
 22 44  1  0
 24 45  1  0
 26 46  1  0
 26 47  1  0
 26 48  1  0
M  ISO  8  27  13  28  13  29  13  30  13  31  13  32  13  33  13  34  13
M  ISO  8  35  13  36  14  37   9  40   8  41   8  42   8  43  14  44  14
M  ISO  4  45  14  46   8  47   8  48   8
M  END
>  <minimizedAffinity>  (1) 
-5.74697208

>  <minimizedRMSD>  (1) 
4.07347298

$$$$
