
     RDKit          3D

 50 52  0  0  1  0  0  0  0  0999 V2000
   42.6560   34.7980   40.7140 N   0  0  0  0  0  0  0  0  0  0  0  0
   42.8880   34.8680   39.3040 C   0  0  0  0  0  0  0  0  0  0  0  0
   41.6800   34.6590   38.4590 C   0  0  0  0  0  0  0  0  0  0  0  0
   40.6390   35.6910   38.7520 C   0  0  0  0  0  0  0  0  0  0  0  0
   40.5210   35.9690   40.1950 C   0  0  0  0  0  0  0  0  0  0  0  0
   41.3030   35.0080   41.0680 C   0  0  1  0  0  0  0  0  0  0  0  0
   40.6020   33.7270   41.3800 C   0  0  0  0  0  0  0  0  0  0  0  0
   39.4420   33.4260   40.4530 C   0  0  0  0  0  0  0  0  0  0  0  0
   38.5800   32.3780   41.1280 C   0  0  0  0  0  0  0  0  0  0  0  0
   39.3500   31.1220   41.4280 C   0  0  0  0  0  0  0  0  0  0  0  0
   40.6800   31.3690   42.0330 C   0  0  0  0  0  0  0  0  0  0  0  0
   41.4710   32.5030   41.4090 C   0  0  0  0  0  0  0  0  0  0  0  0
   43.6050   35.6200   41.4710 C   0  0  0  0  0  0  0  0  0  0  0  0
   44.5110   34.6420   42.1990 C   0  0  1  0  0  0  0  0  0  0  0  0
   45.8590   34.5850   41.5580 C   0  0  0  0  0  0  0  0  0  0  0  0
   46.9060   35.2540   42.2480 C   0  0  0  0  0  0  0  0  0  0  0  0
   48.1890   35.2470   41.7100 C   0  0  0  0  0  0  0  0  0  0  0  0
   48.3490   34.5790   40.5260 N   0  0  0  0  0  0  0  0  0  0  0  0
   47.3390   33.9540   39.8930 C   0  0  0  0  0  0  0  0  0  0  0  0
   46.0940   33.9560   40.4080 N   0  0  0  0  0  0  0  0  0  0  0  0
   44.5660   34.9570   43.6600 C   0  0  0  0  0  0  0  0  0  0  0  0
   43.2980   35.8625   39.0741 H   0  0  0  0  0  0  0  0  0  0  0  0
   43.5786   34.0462   39.0637 H   0  0  0  0  0  0  0  0  0  0  0  0
   41.2654   33.6609   38.6639 H   0  0  0  0  0  0  0  0  0  0  0  0
   41.9716   34.7442   37.4018 H   0  0  0  0  0  0  0  0  0  0  0  0
   40.9077   36.6227   38.2326 H   0  0  0  0  0  0  0  0  0  0  0  0
   39.6709   35.3028   38.4026 H   0  0  0  0  0  0  0  0  0  0  0  0
   40.8902   36.9879   40.3834 H   0  0  0  0  0  0  0  0  0  0  0  0
   39.4596   35.8509   40.4587 H   0  0  0  0  0  0  0  0  0  0  0  0
   41.3468   35.5756   42.0092 H   0  0  0  0  0  0  0  0  0  0  0  0
   40.2422   33.9256   42.4003 H   0  0  0  0  0  0  0  0  0  0  0  0
   39.8180   33.0418   39.4933 H   0  0  0  0  0  0  0  0  0  0  0  0
   38.8591   34.3372   40.2531 H   0  0  0  0  0  0  0  0  0  0  0  0
   38.1927   32.7907   42.0712 H   0  0  0  0  0  0  0  0  0  0  0  0
   37.7612   32.1181   40.4409 H   0  0  0  0  0  0  0  0  0  0  0  0
   38.7591   30.5107   42.1259 H   0  0  0  0  0  0  0  0  0  0  0  0
   39.5229   30.6138   40.4679 H   0  0  0  0  0  0  0  0  0  0  0  0
   40.5318   31.6025   43.0977 H   0  0  0  0  0  0  0  0  0  0  0  0
   41.2683   30.4554   41.8622 H   0  0  0  0  0  0  0  0  0  0  0  0
   41.7645   32.2314   40.3843 H   0  0  0  0  0  0  0  0  0  0  0  0
   42.3797   32.6985   41.9973 H   0  0  0  0  0  0  0  0  0  0  0  0
   44.1930   36.2521   40.7893 H   0  0  0  0  0  0  0  0  0  0  0  0
   43.0888   36.2923   42.1721 H   0  0  0  0  0  0  0  0  0  0  0  0
   44.0864   33.6308   42.1142 H   0  0  0  0  0  0  0  0  0  0  0  0
   46.7041   35.7718   43.1973 H   0  0  0  0  0  0  0  0  0  0  0  0
   49.0296   35.7511   42.2092 H   0  0  0  0  0  0  0  0  0  0  0  0
   47.5325   33.4348   38.9428 H   0  0  0  0  0  0  0  0  0  0  0  0
   44.4052   34.0362   44.2399 H   0  0  0  0  0  0  0  0  0  0  0  0
   45.5514   35.3788   43.9073 H   0  0  0  0  0  0  0  0  0  0  0  0
   43.7819   35.6877   43.9073 H   0  0  0  0  0  0  0  0  0  0  0  0
  1  6  1  0
  1 13  1  0
  2  1  1  0
  3  4  1  0
  3  2  1  0
  4  5  1  0
  5  6  1  0
  6  7  1  0
  7 12  1  0
  8  9  1  0
  8  7  1  0
  9 10  1  0
 10 11  1  0
 12 11  1  0
 13 14  1  0
 14 21  1  0
 15 14  1  0
 15 16  2  0
 17 16  1  0
 18 17  2  0
 19 20  2  0
 19 18  1  0
 20 15  1  0
  2 22  1  0
  2 23  1  0
  3 24  1  0
  3 25  1  0
  4 26  1  0
  4 27  1  0
  5 28  1  0
  5 29  1  0
  6 30  1  1
  7 31  1  0
  8 32  1  0
  8 33  1  0
  9 34  1  0
  9 35  1  0
 10 36  1  0
 10 37  1  0
 11 38  1  0
 11 39  1  0
 12 40  1  0
 12 41  1  0
 13 42  1  0
 13 43  1  0
 14 44  1  1
 16 45  1  0
 17 46  1  0
 19 47  1  0
 21 48  1  0
 21 49  1  0
 21 50  1  0
M  ISO  8  22  13  23  13  24  13  25  13  26  13  27  13  28  13  29  13
M  ISO  8  30  13  31  13  32  13  33  13  34  13  35  13  36  13  37  13
M  ISO  8  38  13  39  13  40  13  41  13  42   8  43   8  44   8  45  14
M  ISO  5  46  14  47  14  48   8  49   8  50   8
M  END
>  <minimizedAffinity>  (1) 
-5.56852198

>  <minimizedRMSD>  (1) 
1.47424197

$$$$
