
     RDKit          3D

 43 45  0  0  1  0  0  0  0  0999 V2000
   42.6660   34.8590   40.6790 N   0  0  0  0  0  0  0  0  0  0  0  0
   42.8890   34.8860   39.2710 C   0  0  0  0  0  0  0  0  0  0  0  0
   41.6540   34.6390   38.4590 C   0  0  0  0  0  0  0  0  0  0  0  0
   40.6370   35.7010   38.7400 C   0  0  0  0  0  0  0  0  0  0  0  0
   40.5230   35.9840   40.2020 C   0  0  0  0  0  0  0  0  0  0  0  0
   41.3160   35.0260   41.0540 C   0  0  1  0  0  0  0  0  0  0  0  0
   40.6570   33.7160   41.2050 C   0  0  0  0  0  0  0  0  0  0  0  0
   39.3160   33.4840   41.0060 C   0  0  0  0  0  0  0  0  0  0  0  0
   38.7120   32.2520   41.1540 C   0  0  0  0  0  0  0  0  0  0  0  0
   39.5180   31.1950   41.5250 C   0  0  0  0  0  0  0  0  0  0  0  0
   40.8570   31.4840   41.7100 C   0  0  0  0  0  0  0  0  0  0  0  0
   41.4190   32.6960   41.5590 N   0  0  0  0  0  0  0  0  0  0  0  0
   43.6250   35.5850   41.4660 C   0  0  0  0  0  0  0  0  0  0  0  0
   44.5230   34.5450   42.1450 C   0  0  1  0  0  0  0  0  0  0  0  0
   45.8750   34.5340   41.5190 C   0  0  0  0  0  0  0  0  0  0  0  0
   46.9010   35.2250   42.2270 C   0  0  0  0  0  0  0  0  0  0  0  0
   48.1830   35.2490   41.6790 C   0  0  0  0  0  0  0  0  0  0  0  0
   48.3630   34.5920   40.4770 N   0  0  0  0  0  0  0  0  0  0  0  0
   47.3720   33.9510   39.8410 C   0  0  0  0  0  0  0  0  0  0  0  0
   46.1160   33.9110   40.3490 N   0  0  0  0  0  0  0  0  0  0  0  0
   44.5660   34.7420   43.6240 C   0  0  0  0  0  0  0  0  0  0  0  0
   43.2891   35.8747   39.0020 H   0  0  0  0  0  0  0  0  0  0  0  0
   43.5917   34.0713   39.0419 H   0  0  0  0  0  0  0  0  0  0  0  0
   41.2362   33.6558   38.7210 H   0  0  0  0  0  0  0  0  0  0  0  0
   41.9136   34.6607   37.3903 H   0  0  0  0  0  0  0  0  0  0  0  0
   40.9328   36.6242   38.2202 H   0  0  0  0  0  0  0  0  0  0  0  0
   39.6601   35.3431   38.3829 H   0  0  0  0  0  0  0  0  0  0  0  0
   40.8880   37.0044   40.3904 H   0  0  0  0  0  0  0  0  0  0  0  0
   39.4642   35.8676   40.4767 H   0  0  0  0  0  0  0  0  0  0  0  0
   41.3380   35.5256   42.0337 H   0  0  0  0  0  0  0  0  0  0  0  0
   38.6846   34.3347   40.7100 H   0  0  0  0  0  0  0  0  0  0  0  0
   37.6336   32.1182   40.9834 H   0  0  0  0  0  0  0  0  0  0  0  0
   39.1176   30.1801   41.6655 H   0  0  0  0  0  0  0  0  0  0  0  0
   41.5167   30.6546   42.0049 H   0  0  0  0  0  0  0  0  0  0  0  0
   44.2271   36.2398   40.8190 H   0  0  0  0  0  0  0  0  0  0  0  0
   43.1230   36.2186   42.2120 H   0  0  0  0  0  0  0  0  0  0  0  0
   44.0878   33.5473   41.9864 H   0  0  0  0  0  0  0  0  0  0  0  0
   46.6868   35.7269   43.1821 H   0  0  0  0  0  0  0  0  0  0  0  0
   49.0133   35.7674   42.1809 H   0  0  0  0  0  0  0  0  0  0  0  0
   47.5827   33.4467   38.8864 H   0  0  0  0  0  0  0  0  0  0  0  0
   44.3574   33.7864   44.1274 H   0  0  0  0  0  0  0  0  0  0  0  0
   45.5636   35.1008   43.9173 H   0  0  0  0  0  0  0  0  0  0  0  0
   43.8086   35.4839   43.9173 H   0  0  0  0  0  0  0  0  0  0  0  0
  1  6  1  0
  1 13  1  0
  2  1  1  0
  3  4  1  0
  3  2  1  0
  4  5  1  0
  5  6  1  0
  6  7  1  0
  7 12  2  0
  8  9  2  0
  8  7  1  0
  9 10  1  0
 10 11  2  0
 12 11  1  0
 13 14  1  0
 14 21  1  0
 15 14  1  0
 15 16  2  0
 17 16  1  0
 18 17  2  0
 19 20  2  0
 19 18  1  0
 20 15  1  0
  2 22  1  0
  2 23  1  0
  3 24  1  0
  3 25  1  0
  4 26  1  0
  4 27  1  0
  5 28  1  0
  5 29  1  0
  6 30  1  1
  8 31  1  0
  9 32  1  0
 10 33  1  0
 11 34  1  0
 13 35  1  0
 13 36  1  0
 14 37  1  1
 16 38  1  0
 17 39  1  0
 19 40  1  0
 21 41  1  0
 21 42  1  0
 21 43  1  0
M  ISO  8  22  13  23  13  24  13  25  13  26  13  27  13  28  13  29  13
M  ISO  8  30  13  31  14  32  14  33  14  34  14  35   8  36   8  37   8
M  ISO  6  38  14  39  14  40  14  41   8  42   8  43   8
M  END
>  <minimizedAffinity>  (1) 
-5.49622059

>  <minimizedRMSD>  (1) 
1.31417167

$$$$
