
     RDKit          3D

 40 42  0  0  1  0  0  0  0  0999 V2000
   42.6150   34.7090   40.5700 N   0  0  0  0  0  0  0  0  0  0  0  0
   42.6540   34.8190   39.1460 C   0  0  0  0  0  0  0  0  0  0  0  0
   41.3950   34.2890   38.4920 C   0  0  0  0  0  0  0  0  0  0  0  0
   40.2590   35.1840   38.8880 C   0  0  0  0  0  0  0  0  0  0  0  0
   40.2770   35.4700   40.3610 C   0  0  0  0  0  0  0  0  0  0  0  0
   41.3060   34.6600   41.1010 C   0  0  1  0  0  0  0  0  0  0  0  0
   40.7990   33.2620   41.3540 C   0  0  0  0  0  0  0  0  0  0  0  0
   41.8830   32.2620   41.5850 C   0  0  0  0  0  0  0  0  0  0  0  0
   40.8970   30.8200   41.8290 S   0  0  0  0  0  0  0  0  0  0  0  0
   39.2340   31.6760   41.6060 C   0  0  0  0  0  0  0  0  0  0  0  0
   39.5080   32.9700   41.3650 N   0  0  0  0  0  0  0  0  0  0  0  0
   43.5240   35.6050   41.2420 C   0  0  0  0  0  0  0  0  0  0  0  0
   44.4330   34.7390   42.1190 C   0  0  1  0  0  0  0  0  0  0  0  0
   45.7730   34.5830   41.4940 C   0  0  0  0  0  0  0  0  0  0  0  0
   46.8600   35.2040   42.1740 C   0  0  0  0  0  0  0  0  0  0  0  0
   48.1430   35.0970   41.6330 C   0  0  0  0  0  0  0  0  0  0  0  0
   48.2520   34.3800   40.4510 N   0  0  0  0  0  0  0  0  0  0  0  0
   47.2130   33.8150   39.8440 C   0  0  0  0  0  0  0  0  0  0  0  0
   45.9570   33.9020   40.3480 N   0  0  0  0  0  0  0  0  0  0  0  0
   44.4950   35.2720   43.5140 C   0  0  0  0  0  0  0  0  0  0  0  0
   42.7729   35.8788   38.8766 H   0  0  0  0  0  0  0  0  0  0  0  0
   43.4995   34.2146   38.7856 H   0  0  0  0  0  0  0  0  0  0  0  0
   41.1992   33.2624   38.8351 H   0  0  0  0  0  0  0  0  0  0  0  0
   41.5082   34.2743   37.3979 H   0  0  0  0  0  0  0  0  0  0  0  0
   40.3421   36.1329   38.3379 H   0  0  0  0  0  0  0  0  0  0  0  0
   39.3150   34.6742   38.6452 H   0  0  0  0  0  0  0  0  0  0  0  0
   40.4976   36.5375   40.5088 H   0  0  0  0  0  0  0  0  0  0  0  0
   39.2900   35.1971   40.7628 H   0  0  0  0  0  0  0  0  0  0  0  0
   41.4371   35.1525   42.0758 H   0  0  0  0  0  0  0  0  0  0  0  0
   42.9757   32.3875   41.5990 H   0  0  0  0  0  0  0  0  0  0  0  0
   38.2388   31.2107   41.6617 H   0  0  0  0  0  0  0  0  0  0  0  0
   44.1245   36.1581   40.5048 H   0  0  0  0  0  0  0  0  0  0  0  0
   42.9758   36.3410   41.8484 H   0  0  0  0  0  0  0  0  0  0  0  0
   44.0017   33.7298   42.1927 H   0  0  0  0  0  0  0  0  0  0  0  0
   46.6916   35.7583   43.1091 H   0  0  0  0  0  0  0  0  0  0  0  0
   49.0178   35.5556   42.1171 H   0  0  0  0  0  0  0  0  0  0  0  0
   47.3765   33.2618   38.9074 H   0  0  0  0  0  0  0  0  0  0  0  0
   44.3984   34.4413   44.2285 H   0  0  0  0  0  0  0  0  0  0  0  0
   45.4583   35.7797   43.6701 H   0  0  0  0  0  0  0  0  0  0  0  0
   43.6740   35.9873   43.6701 H   0  0  0  0  0  0  0  0  0  0  0  0
  1  6  1  0
  1 12  1  0
  2  1  1  0
  3  4  1  0
  3  2  1  0
  4  5  1  0
  5  6  1  0
  6  7  1  0
  7 11  1  0
  7  8  2  0
  8  9  1  0
 10  9  1  0
 11 10  2  0
 12 13  1  0
 13 20  1  0
 14 13  1  0
 14 15  2  0
 16 15  1  0
 17 16  2  0
 18 19  2  0
 18 17  1  0
 19 14  1  0
  2 21  1  0
  2 22  1  0
  3 23  1  0
  3 24  1  0
  4 25  1  0
  4 26  1  0
  5 27  1  0
  5 28  1  0
  6 29  1  1
  8 30  1  0
 10 31  1  0
 12 32  1  0
 12 33  1  0
 13 34  1  1
 15 35  1  0
 16 36  1  0
 18 37  1  0
 20 38  1  0
 20 39  1  0
 20 40  1  0
M  ISO  8  21  13  22  13  23  13  24  13  25  13  26  13  27  13  28  13
M  ISO  8  29  13  30  14  31  14  32   8  33   8  34   8  35  14  36  14
M  ISO  4  37  14  38   8  39   8  40   8
M  END
>  <minimizedAffinity>  (1) 
-5.22973537

>  <minimizedRMSD>  (1) 
1.47029531

$$$$
