
     RDKit          3D

 41 42  0  0  1  0  0  0  0  0999 V2000
   42.6480   34.9220   41.0450 N   0  0  0  0  0  0  0  0  0  0  0  0
   42.7540   34.8930   39.6400 C   0  0  0  0  0  0  0  0  0  0  0  0
   41.4410   34.7390   38.9330 C   0  0  0  0  0  0  0  0  0  0  0  0
   40.5450   35.8950   39.2550 C   0  0  0  0  0  0  0  0  0  0  0  0
   40.5340   36.1470   40.7300 C   0  0  0  0  0  0  0  0  0  0  0  0
   41.3320   35.1650   41.5380 C   0  0  1  0  0  0  0  0  0  0  0  0
   40.6180   33.9390   41.8430 N   0  0  0  0  0  0  0  0  0  0  0  0
   41.3380   32.7300   42.0510 C   0  0  0  0  0  0  0  0  0  0  0  0
   42.5920   32.6150   41.8060 N   0  0  0  0  0  0  0  0  0  0  0  0
   40.5660   31.6350   42.5570 N   0  0  0  0  0  0  0  0  0  0  0  0
   43.0530   31.7020   41.9820 H   0  0  0  0  0  0  0  0  0  0  0  0
   43.6930   35.5990   41.7620 C   0  0  0  0  0  0  0  0  0  0  0  0
   44.6090   34.5110   42.3450 C   0  0  1  0  0  0  0  0  0  0  0  0
   45.9050   34.4870   41.5970 C   0  0  0  0  0  0  0  0  0  0  0  0
   47.0040   35.1530   42.2170 C   0  0  0  0  0  0  0  0  0  0  0  0
   48.2150   35.1640   41.5480 C   0  0  0  0  0  0  0  0  0  0  0  0
   48.2820   34.5250   40.3190 N   0  0  0  0  0  0  0  0  0  0  0  0
   47.2180   33.9110   39.7750 C   0  0  0  0  0  0  0  0  0  0  0  0
   46.0330   33.8850   40.3990 N   0  0  0  0  0  0  0  0  0  0  0  0
   44.7970   34.7190   43.8140 C   0  0  0  0  0  0  0  0  0  0  0  0
   43.2172   35.8340   39.3085 H   0  0  0  0  0  0  0  0  0  0  0  0
   43.3588   34.0104   39.3844 H   0  0  0  0  0  0  0  0  0  0  0  0
   40.9602   33.8044   39.2578 H   0  0  0  0  0  0  0  0  0  0  0  0
   41.6174   34.7113   37.8476 H   0  0  0  0  0  0  0  0  0  0  0  0
   40.9105   36.7933   38.7359 H   0  0  0  0  0  0  0  0  0  0  0  0
   39.5228   35.6590   38.9242 H   0  0  0  0  0  0  0  0  0  0  0  0
   40.9437   37.1520   40.9094 H   0  0  0  0  0  0  0  0  0  0  0  0
   39.4887   36.0425   41.0562 H   0  0  0  0  0  0  0  0  0  0  0  0
   41.4758   35.6802   42.4992 H   0  0  0  0  0  0  0  0  0  0  0  0
   39.5901   33.9443   41.9089 H   0  0  0  0  0  0  0  0  0  0  0  0
   41.0163   30.7257   42.7338 H   0  0  0  0  0  0  0  0  0  0  0  0
   39.5605   31.7568   42.7441 H   0  0  0  0  0  0  0  0  0  0  0  0
   44.2620   36.2472   41.0793 H   0  0  0  0  0  0  0  0  0  0  0  0
   43.2777   36.2336   42.5587 H   0  0  0  0  0  0  0  0  0  0  0  0
   44.1389   33.5241   42.2225 H   0  0  0  0  0  0  0  0  0  0  0  0
   46.8920   35.6422   43.1958 H   0  0  0  0  0  0  0  0  0  0  0  0
   49.0962   35.6634   41.9771 H   0  0  0  0  0  0  0  0  0  0  0  0
   47.3222   33.4193   38.7966 H   0  0  0  0  0  0  0  0  0  0  0  0
   44.1600   34.0142   44.3686 H   0  0  0  0  0  0  0  0  0  0  0  0
   45.8509   34.5456   44.0770 H   0  0  0  0  0  0  0  0  0  0  0  0
   44.5183   35.7501   44.0770 H   0  0  0  0  0  0  0  0  0  0  0  0
  1  6  1  0
  1 12  1  0
  2  1  1  0
  3  4  1  0
  3  2  1  0
  4  5  1  0
  5  6  1  0
  6  7  1  0
  7  8  1  0
  8 10  1  0
  9 11  1  0
  9  8  2  0
 12 13  1  0
 13 20  1  0
 14 15  2  0
 14 13  1  0
 16 15  1  0
 17 16  2  0
 18 17  1  0
 18 19  2  0
 19 14  1  0
  2 21  1  0
  2 22  1  0
  3 23  1  0
  3 24  1  0
  4 25  1  0
  4 26  1  0
  5 27  1  0
  5 28  1  0
  6 29  1  1
  7 30  1  0
 10 31  1  0
 10 32  1  0
 12 33  1  0
 12 34  1  0
 13 35  1  1
 15 36  1  0
 16 37  1  0
 18 38  1  0
 20 39  1  0
 20 40  1  0
 20 41  1  0
M  ISO  8  21  13  22  13  23  13  24  13  25  13  26  13  27  13  28  13
M  ISO  8  29  13  33   8  34   8  35   8  36  14  37  14  38  14  39   8
M  ISO  2  40   8  41   8
M  END
>  <minimizedAffinity>  (1) 
-5.22684002

>  <minimizedRMSD>  (1) 
0.716356993

$$$$
