
     RDKit          3D

 43 44  0  0  1  0  0  0  0  0999 V2000
   43.5350   35.5710   41.1540 C   0  0  0  0  0  0  0  0  0  0  0  0
   42.6160   34.6870   40.4780 N   0  0  0  0  0  0  0  0  0  0  0  0
   42.8410   34.5410   39.0920 C   0  0  0  0  0  0  0  0  0  0  0  0
   41.6540   34.2600   38.2550 C   0  0  0  0  0  0  0  0  0  0  0  0
   40.5600   35.2410   38.4560 C   0  0  0  0  0  0  0  0  0  0  0  0
   40.4000   35.5970   39.8800 C   0  0  0  0  0  0  0  0  0  0  0  0
   41.2540   34.8450   40.8590 C   0  0  1  0  0  0  0  0  0  0  0  0
   40.6210   33.6920   41.5430 C   0  0  0  0  0  0  0  0  0  0  0  0
   39.2170   33.5000   40.9560 C   0  0  0  0  0  0  0  0  0  0  0  0
   41.3060   32.3770   41.4910 C   0  0  0  0  0  0  0  0  0  0  0  0
   44.3890   34.6990   42.0800 C   0  0  1  0  0  0  0  0  0  0  0  0
   45.7740   34.5970   41.5470 C   0  0  0  0  0  0  0  0  0  0  0  0
   46.7860   35.2100   42.3360 C   0  0  0  0  0  0  0  0  0  0  0  0
   48.1100   35.1580   41.8830 C   0  0  0  0  0  0  0  0  0  0  0  0
   48.3330   34.5020   40.6820 N   0  0  0  0  0  0  0  0  0  0  0  0
   47.3420   33.9380   39.9730 C   0  0  0  0  0  0  0  0  0  0  0  0
   46.0670   33.9770   40.3910 N   0  0  0  0  0  0  0  0  0  0  0  0
   44.3360   35.1770   43.4930 C   0  0  0  0  0  0  0  0  0  0  0  0
   42.9798   36.3167   41.7420 H   0  0  0  0  0  0  0  0  0  0  0  0
   44.1636   36.1132   40.4323 H   0  0  0  0  0  0  0  0  0  0  0  0
   43.2934   35.4749   38.7270 H   0  0  0  0  0  0  0  0  0  0  0  0
   43.4823   33.6527   38.9939 H   0  0  0  0  0  0  0  0  0  0  0  0
   41.2769   33.2576   38.5061 H   0  0  0  0  0  0  0  0  0  0  0  0
   41.9686   34.3277   37.2031 H   0  0  0  0  0  0  0  0  0  0  0  0
   40.7891   36.1524   37.8843 H   0  0  0  0  0  0  0  0  0  0  0  0
   39.6215   34.7836   38.1095 H   0  0  0  0  0  0  0  0  0  0  0  0
   40.6340   36.6667   39.9853 H   0  0  0  0  0  0  0  0  0  0  0  0
   39.3634   35.3287   40.1322 H   0  0  0  0  0  0  0  0  0  0  0  0
   41.3249   35.5538   41.6972 H   0  0  0  0  0  0  0  0  0  0  0  0
   40.6532   33.9746   42.6056 H   0  0  0  0  0  0  0  0  0  0  0  0
   38.4881   33.4003   41.7738 H   0  0  0  0  0  0  0  0  0  0  0  0
   38.9563   34.3709   40.3366 H   0  0  0  0  0  0  0  0  0  0  0  0
   39.1997   32.5911   40.3366 H   0  0  0  0  0  0  0  0  0  0  0  0
   41.4921   32.0198   42.5146 H   0  0  0  0  0  0  0  0  0  0  0  0
   40.6703   31.6532   40.9599 H   0  0  0  0  0  0  0  0  0  0  0  0
   42.2634   32.4831   40.9599 H   0  0  0  0  0  0  0  0  0  0  0  0
   43.9701   33.6821   42.0999 H   0  0  0  0  0  0  0  0  0  0  0  0
   46.5344   35.7137   43.2810 H   0  0  0  0  0  0  0  0  0  0  0  0
   48.9329   35.6152   42.4521 H   0  0  0  0  0  0  0  0  0  0  0  0
   47.5809   33.4315   39.0262 H   0  0  0  0  0  0  0  0  0  0  0  0
   44.4312   34.3186   44.1743 H   0  0  0  0  0  0  0  0  0  0  0  0
   45.1616   35.8813   43.6730 H   0  0  0  0  0  0  0  0  0  0  0  0
   43.3762   35.6833   43.6730 H   0  0  0  0  0  0  0  0  0  0  0  0
  1 11  1  0
  2  7  1  0
  2  1  1  0
  3  2  1  0
  4  5  1  0
  4  3  1  0
  5  6  1  0
  6  7  1  0
  7  8  1  0
  9  8  1  0
 10  8  1  0
 11 18  1  0
 12 11  1  0
 12 13  2  0
 14 13  1  0
 15 14  2  0
 16 17  2  0
 16 15  1  0
 17 12  1  0
  1 19  1  0
  1 20  1  0
  3 21  1  0
  3 22  1  0
  4 23  1  0
  4 24  1  0
  5 25  1  0
  5 26  1  0
  6 27  1  0
  6 28  1  0
  7 29  1  1
  8 30  1  0
  9 31  1  0
  9 32  1  0
  9 33  1  0
 10 34  1  0
 10 35  1  0
 10 36  1  0
 11 37  1  1
 13 38  1  0
 14 39  1  0
 16 40  1  0
 18 41  1  0
 18 42  1  0
 18 43  1  0
M  ISO  8  19   8  20   8  21  13  22  13  23  13  24  13  25  13  26  13
M  ISO  8  27  13  28  13  29  13  30   8  31   8  32   8  33   8  34   8
M  ISO  8  35   8  36   8  37   8  38  14  39  14  40  14  41   8  42   8
M  ISO  1  43   8
M  END
>  <minimizedAffinity>  (1) 
-4.78465843

>  <minimizedRMSD>  (1) 
1.0193969

$$$$
