
     RDKit          3D

 41 43  0  0  1  0  0  0  0  0999 V2000
   42.1320   33.7860   40.0060 N   0  0  0  0  0  0  0  0  0  0  0  0
   42.2160   35.1110   39.4970 C   0  0  0  0  0  0  0  0  0  0  0  0
   40.8930   35.7240   39.1430 C   0  0  0  0  0  0  0  0  0  0  0  0
   40.0250   35.7850   40.3740 C   0  0  0  0  0  0  0  0  0  0  0  0
   40.1080   34.5310   41.1640 C   0  0  0  0  0  0  0  0  0  0  0  0
   40.8200   33.4290   40.3780 C   0  0  2  0  0  0  0  0  0  0  0  0
   40.6170   32.1480   40.9570 N   0  0  0  0  0  0  0  0  0  0  0  0
   40.3250   31.8370   42.2320 N   0  0  0  0  0  0  0  0  0  0  0  0
   40.2080   30.5180   42.3920 C   0  0  0  0  0  0  0  0  0  0  0  0
   40.4360   29.9340   41.1560 C   0  0  0  0  0  0  0  0  0  0  0  0
   40.6850   30.9640   40.2840 C   0  0  0  0  0  0  0  0  0  0  0  0
   43.2240   33.3570   40.8210 C   0  0  0  0  0  0  0  0  0  0  0  0
   44.4990   33.4970   39.9800 C   0  0  1  0  0  0  0  0  0  0  0  0
   45.5930   34.1230   40.7750 C   0  0  0  0  0  0  0  0  0  0  0  0
   46.9060   34.0370   40.2260 C   0  0  0  0  0  0  0  0  0  0  0  0
   47.9550   34.5940   40.9370 C   0  0  0  0  0  0  0  0  0  0  0  0
   47.6540   35.1980   42.1360 N   0  0  0  0  0  0  0  0  0  0  0  0
   46.4100   35.2640   42.6270 C   0  0  0  0  0  0  0  0  0  0  0  0
   45.3740   34.7310   41.9570 N   0  0  0  0  0  0  0  0  0  0  0  0
   44.8860   32.1610   39.4280 C   0  0  0  0  0  0  0  0  0  0  0  0
   42.6949   35.7428   40.2596 H   0  0  0  0  0  0  0  0  0  0  0  0
   42.7948   35.0526   38.5634 H   0  0  0  0  0  0  0  0  0  0  0  0
   41.0516   36.7409   38.7549 H   0  0  0  0  0  0  0  0  0  0  0  0
   40.3983   35.1125   38.3741 H   0  0  0  0  0  0  0  0  0  0  0  0
   40.3553   36.6253   41.0024 H   0  0  0  0  0  0  0  0  0  0  0  0
   38.9817   35.9209   40.0529 H   0  0  0  0  0  0  0  0  0  0  0  0
   40.6653   34.7275   42.0918 H   0  0  0  0  0  0  0  0  0  0  0  0
   39.0859   34.1931   41.3901 H   0  0  0  0  0  0  0  0  0  0  0  0
   40.3383   33.3215   39.3949 H   0  0  0  0  0  0  0  0  0  0  0  0
   39.9743   29.9922   43.3295 H   0  0  0  0  0  0  0  0  0  0  0  0
   40.4205   28.8595   40.9209 H   0  0  0  0  0  0  0  0  0  0  0  0
   40.9046   30.8522   39.2120 H   0  0  0  0  0  0  0  0  0  0  0  0
   43.2941   33.9874   41.7197 H   0  0  0  0  0  0  0  0  0  0  0  0
   43.0831   32.3158   41.1467 H   0  0  0  0  0  0  0  0  0  0  0  0
   44.3066   34.1689   39.1306 H   0  0  0  0  0  0  0  0  0  0  0  0
   47.0812   33.5399   39.2605 H   0  0  0  0  0  0  0  0  0  0  0  0
   48.9872   34.5553   40.5588 H   0  0  0  0  0  0  0  0  0  0  0  0
   46.2335   35.7614   43.5921 H   0  0  0  0  0  0  0  0  0  0  0  0
   45.0873   31.4662   40.2567 H   0  0  0  0  0  0  0  0  0  0  0  0
   44.0649   31.7675   38.8108 H   0  0  0  0  0  0  0  0  0  0  0  0
   45.7903   32.2673   38.8108 H   0  0  0  0  0  0  0  0  0  0  0  0
  1  6  1  0
  1 12  1  0
  2  1  1  0
  3  2  1  0
  3  4  1  0
  4  5  1  0
  6  7  1  0
  6  5  1  0
  7  8  1  0
  8  9  2  0
 10  9  1  0
 11  7  1  0
 11 10  2  0
 13 14  1  0
 13 12  1  0
 14 19  1  0
 15 14  2  0
 15 16  1  0
 16 17  2  0
 17 18  1  0
 19 18  2  0
 20 13  1  0
  2 21  1  0
  2 22  1  0
  3 23  1  0
  3 24  1  0
  4 25  1  0
  4 26  1  0
  5 27  1  0
  5 28  1  0
  6 29  1  6
  9 30  1  0
 10 31  1  0
 11 32  1  0
 12 33  1  0
 12 34  1  0
 13 35  1  6
 15 36  1  0
 16 37  1  0
 18 38  1  0
 20 39  1  0
 20 40  1  0
 20 41  1  0
M  ISO  8  21  13  22  13  23  13  24  13  25  13  26  13  27  13  28  13
M  ISO  8  29  13  30  14  31  14  32  14  33   8  34   8  35   8  36  14
M  ISO  5  37  14  38  14  39   8  40   8  41   8
M  END
>  <minimizedAffinity>  (1) 
-4.73924923

>  <minimizedRMSD>  (1) 
3.75741935

$$$$
