
     RDKit          3D

 41 43  0  0  1  0  0  0  0  0999 V2000
   43.5970   34.4510   40.8790 C   0  0  0  0  0  0  0  0  0  0  0  0
   42.5110   33.6410   41.3320 N   0  0  0  0  0  0  0  0  0  0  0  0
   42.8910   32.3560   41.8250 C   0  0  0  0  0  0  0  0  0  0  0  0
   41.7780   31.3410   41.8110 C   0  0  0  0  0  0  0  0  0  0  0  0
   41.3500   31.1340   40.3660 C   0  0  0  0  0  0  0  0  0  0  0  0
   41.2130   32.4270   39.6530 C   0  0  0  0  0  0  0  0  0  0  0  0
   41.3050   33.6100   40.6200 C   0  0  2  0  0  0  0  0  0  0  0  0
   40.8420   34.8180   39.9150 C   0  0  0  0  0  0  0  0  0  0  0  0
   39.3350   35.1290   39.9610 C   0  0  0  0  0  0  0  0  0  0  0  0
   40.3340   36.0400   40.5950 C   0  0  0  0  0  0  0  0  0  0  0  0
   44.6430   34.4760   41.9980 C   0  0  1  0  0  0  0  0  0  0  0  0
   46.0210   34.5080   41.4430 C   0  0  0  0  0  0  0  0  0  0  0  0
   46.9950   35.1750   42.2350 C   0  0  0  0  0  0  0  0  0  0  0  0
   48.2920   35.2530   41.7700 C   0  0  0  0  0  0  0  0  0  0  0  0
   48.5600   34.6740   40.5580 N   0  0  0  0  0  0  0  0  0  0  0  0
   47.6270   34.0510   39.8300 C   0  0  0  0  0  0  0  0  0  0  0  0
   46.3590   33.9620   40.2620 N   0  0  0  0  0  0  0  0  0  0  0  0
   44.3550   35.6390   42.8950 C   0  0  0  0  0  0  0  0  0  0  0  0
   44.0329   34.0200   39.9656 H   0  0  0  0  0  0  0  0  0  0  0  0
   43.2527   35.4690   40.6444 H   0  0  0  0  0  0  0  0  0  0  0  0
   43.7138   31.9758   41.2017 H   0  0  0  0  0  0  0  0  0  0  0  0
   43.1843   32.4924   42.8764 H   0  0  0  0  0  0  0  0  0  0  0  0
   42.1341   30.3904   42.2349 H   0  0  0  0  0  0  0  0  0  0  0  0
   40.9293   31.6956   42.4143 H   0  0  0  0  0  0  0  0  0  0  0  0
   42.1054   30.5205   39.8531 H   0  0  0  0  0  0  0  0  0  0  0  0
   40.3718   30.6310   40.3628 H   0  0  0  0  0  0  0  0  0  0  0  0
   42.0168   32.5112   38.9068 H   0  0  0  0  0  0  0  0  0  0  0  0
   40.2261   32.4521   39.1678 H   0  0  0  0  0  0  0  0  0  0  0  0
   40.6163   33.5120   41.4721 H   0  0  0  0  0  0  0  0  0  0  0  0
   41.6274   34.6592   39.1614 H   0  0  0  0  0  0  0  0  0  0  0  0
   38.8055   35.4380   39.0477 H   0  0  0  0  0  0  0  0  0  0  0  0
   38.4333   34.5965   40.2977 H   0  0  0  0  0  0  0  0  0  0  0  0
   40.3845   36.1131   41.6914 H   0  0  0  0  0  0  0  0  0  0  0  0
   40.5555   37.1136   40.5044 H   0  0  0  0  0  0  0  0  0  0  0  0
   44.5815   33.5531   42.5934 H   0  0  0  0  0  0  0  0  0  0  0  0
   46.7196   35.6213   43.2019 H   0  0  0  0  0  0  0  0  0  0  0  0
   49.0783   35.7594   42.3490 H   0  0  0  0  0  0  0  0  0  0  0  0
   47.9026   33.6049   38.8630 H   0  0  0  0  0  0  0  0  0  0  0  0
   44.4338   35.3206   43.9450 H   0  0  0  0  0  0  0  0  0  0  0  0
   45.0816   36.4415   42.6996 H   0  0  0  0  0  0  0  0  0  0  0  0
   43.3379   36.0097   42.6996 H   0  0  0  0  0  0  0  0  0  0  0  0
  1  2  1  0
  1 11  1  0
  2  3  1  0
  4  3  1  0
  5  4  1  0
  6  5  1  0
  6  7  1  0
  7  2  1  0
  8  9  1  0
  8 10  1  0
  8  7  1  0
  9 10  1  0
 11 18  1  0
 12 11  1  0
 12 13  2  0
 14 13  1  0
 15 14  2  0
 16 17  2  0
 16 15  1  0
 17 12  1  0
  1 19  1  0
  1 20  1  0
  3 21  1  0
  3 22  1  0
  4 23  1  0
  4 24  1  0
  5 25  1  0
  5 26  1  0
  6 27  1  0
  6 28  1  0
  7 29  1  1
  8 30  1  0
  9 31  1  0
  9 32  1  0
 10 33  1  0
 10 34  1  0
 11 35  1  1
 13 36  1  0
 14 37  1  0
 16 38  1  0
 18 39  1  0
 18 40  1  0
 18 41  1  0
M  ISO  8  19   8  20   8  21  13  22  13  23  13  24  13  25  13  26  13
M  ISO  8  27  13  28  13  29  13  30  13  31  13  32  13  33  13  34  13
M  ISO  7  35   8  36  14  37  14  38  14  39   8  40   8  41   8
M  END
>  <minimizedAffinity>  (1) 
-4.64130545

>  <minimizedRMSD>  (1) 
2.49827051

$$$$
