
     RDKit          3D

 40 41  0  0  1  0  0  0  0  0999 V2000
   43.5410   34.9710   40.6490 C   0  0  0  0  0  0  0  0  0  0  0  0
   42.5870   33.9320   40.4370 N   0  0  0  0  0  0  0  0  0  0  0  0
   42.9210   32.9710   39.4360 C   0  0  0  0  0  0  0  0  0  0  0  0
   41.7390   32.2560   38.8450 C   0  0  0  0  0  0  0  0  0  0  0  0
   40.8430   33.2690   38.1820 C   0  0  0  0  0  0  0  0  0  0  0  0
   40.6270   34.4630   39.0700 C   0  0  0  0  0  0  0  0  0  0  0  0
   41.2160   34.2290   40.4550 C   0  0  2  0  0  0  0  0  0  0  0  0
   40.7170   35.2430   41.4090 C   0  0  0  0  0  0  0  0  0  0  0  0
   40.1670   36.4470   40.6430 C   0  0  0  0  0  0  0  0  0  0  0  0
   44.4370   34.5330   41.8130 C   0  0  1  0  0  0  0  0  0  0  0  0
   45.8700   34.5190   41.4030 C   0  0  0  0  0  0  0  0  0  0  0  0
   46.7870   35.1400   42.2960 C   0  0  0  0  0  0  0  0  0  0  0  0
   48.1260   35.1670   41.9540 C   0  0  0  0  0  0  0  0  0  0  0  0
   48.4830   34.5870   40.7670 N   0  0  0  0  0  0  0  0  0  0  0  0
   47.6050   34.0110   39.9460 C   0  0  0  0  0  0  0  0  0  0  0  0
   46.2970   33.9700   40.2520 N   0  0  0  0  0  0  0  0  0  0  0  0
   44.1880   35.4370   42.9820 C   0  0  0  0  0  0  0  0  0  0  0  0
   43.0261   35.9095   40.9022 H   0  0  0  0  0  0  0  0  0  0  0  0
   44.1373   35.1448   39.7411 H   0  0  0  0  0  0  0  0  0  0  0  0
   43.4509   33.4900   38.6237 H   0  0  0  0  0  0  0  0  0  0  0  0
   43.5379   32.2050   39.9287 H   0  0  0  0  0  0  0  0  0  0  0  0
   42.0840   31.5236   38.1003 H   0  0  0  0  0  0  0  0  0  0  0  0
   41.1864   31.7284   39.6364 H   0  0  0  0  0  0  0  0  0  0  0  0
   41.3086   33.5998   37.2419 H   0  0  0  0  0  0  0  0  0  0  0  0
   39.8683   32.7983   37.9857 H   0  0  0  0  0  0  0  0  0  0  0  0
   41.1117   35.3403   38.6168 H   0  0  0  0  0  0  0  0  0  0  0  0
   39.5448   34.6304   39.1739 H   0  0  0  0  0  0  0  0  0  0  0  0
   40.8352   33.2850   40.8718 H   0  0  0  0  0  0  0  0  0  0  0  0
   39.9169   34.8042   42.0233 H   0  0  0  0  0  0  0  0  0  0  0  0
   41.5435   35.5707   42.0567 H   0  0  0  0  0  0  0  0  0  0  0  0
   39.8193   37.2081   41.3570 H   0  0  0  0  0  0  0  0  0  0  0  0
   40.9600   36.8726   40.0105 H   0  0  0  0  0  0  0  0  0  0  0  0
   39.3261   36.1262   40.0105 H   0  0  0  0  0  0  0  0  0  0  0  0
   44.1903   33.5032   42.1108 H   0  0  0  0  0  0  0  0  0  0  0  0
   46.4382   35.5887   43.2378 H   0  0  0  0  0  0  0  0  0  0  0  0
   48.8746   35.6359   42.6096 H   0  0  0  0  0  0  0  0  0  0  0  0
   47.9560   33.5629   39.0047 H   0  0  0  0  0  0  0  0  0  0  0  0
   44.3419   34.8782   43.9169 H   0  0  0  0  0  0  0  0  0  0  0  0
   44.8856   36.2867   42.9436 H   0  0  0  0  0  0  0  0  0  0  0  0
   43.1538   35.8097   42.9436 H   0  0  0  0  0  0  0  0  0  0  0  0
  1 10  1  0
  2  7  1  0
  2  1  1  0
  3  2  1  0
  4  3  1  0
  5  4  1  0
  5  6  1  0
  6  7  1  0
  7  8  1  0
  9  8  1  0
 10 17  1  0
 11 10  1  0
 11 12  2  0
 13 12  1  0
 14 13  2  0
 15 16  2  0
 15 14  1  0
 16 11  1  0
  1 18  1  0
  1 19  1  0
  3 20  1  0
  3 21  1  0
  4 22  1  0
  4 23  1  0
  5 24  1  0
  5 25  1  0
  6 26  1  0
  6 27  1  0
  7 28  1  1
  8 29  1  0
  8 30  1  0
  9 31  1  0
  9 32  1  0
  9 33  1  0
 10 34  1  1
 12 35  1  0
 13 36  1  0
 15 37  1  0
 17 38  1  0
 17 39  1  0
 17 40  1  0
M  ISO  8  18   8  19   8  20  13  21  13  22  13  23  13  24  13  25  13
M  ISO  8  26  13  27  13  28  13  29   8  30   8  31   8  32   8  33   8
M  ISO  7  34   8  35  14  36  14  37  14  38   8  39   8  40   8
M  END
>  <minimizedAffinity>  (1) 
-4.60559893

>  <minimizedRMSD>  (1) 
1.40428042

$$$$
