
     RDKit          3D

 45 48  0  0  1  0  0  0  0  0999 V2000
   45.5380   32.8300   39.7360 N   0  0  0  0  0  0  0  0  0  0  0  0
   46.8770   33.3080   39.5470 C   0  0  0  0  0  0  0  0  0  0  0  0
   47.4930   32.8840   38.2410 C   0  0  0  0  0  0  0  0  0  0  0  0
   46.6920   33.4690   37.1150 C   0  0  0  0  0  0  0  0  0  0  0  0
   45.2410   33.2900   37.3480 C   0  0  0  0  0  0  0  0  0  0  0  0
   44.9410   32.3920   38.5470 C   0  0  2  0  0  0  0  0  0  0  0  0
   43.5100   32.2230   38.5350 N   0  0  0  0  0  0  0  0  0  0  0  0
   42.7330   31.1290   38.6190 C   0  0  0  0  0  0  0  0  0  0  0  0
   41.4220   31.4250   38.5770 N   0  0  0  0  0  0  0  0  0  0  0  0
   41.3560   32.7630   38.4600 C   0  0  0  0  0  0  0  0  0  0  0  0
   40.2990   33.6770   38.3680 C   0  0  0  0  0  0  0  0  0  0  0  0
   40.4940   34.9990   38.2570 N   0  0  0  0  0  0  0  0  0  0  0  0
   41.7550   35.4540   38.2340 C   0  0  0  0  0  0  0  0  0  0  0  0
   42.7990   34.6090   38.3210 N   0  0  0  0  0  0  0  0  0  0  0  0
   42.6360   33.2680   38.4340 C   0  0  0  0  0  0  0  0  0  0  0  0
   44.7620   33.5770   40.6680 C   0  0  0  0  0  0  0  0  0  0  0  0
   44.8330   32.8460   42.0140 C   0  0  1  0  0  0  0  0  0  0  0  0
   44.8340   33.8330   43.1330 C   0  0  0  0  0  0  0  0  0  0  0  0
   44.4410   35.1610   42.7980 C   0  0  0  0  0  0  0  0  0  0  0  0
   44.4340   36.1280   43.8050 C   0  0  0  0  0  0  0  0  0  0  0  0
   44.8160   35.7180   45.0720 N   0  0  0  0  0  0  0  0  0  0  0  0
   45.1790   34.4520   45.3410 C   0  0  0  0  0  0  0  0  0  0  0  0
   45.1920   33.5060   44.3860 N   0  0  0  0  0  0  0  0  0  0  0  0
   43.7550   31.8220   42.1410 C   0  0  0  0  0  0  0  0  0  0  0  0
   46.8614   34.4073   39.5827 H   0  0  0  0  0  0  0  0  0  0  0  0
   47.4903   32.8702   40.3484 H   0  0  0  0  0  0  0  0  0  0  0  0
   48.5294   33.2486   38.1856 H   0  0  0  0  0  0  0  0  0  0  0  0
   47.4941   31.7865   38.1676 H   0  0  0  0  0  0  0  0  0  0  0  0
   46.9704   32.9670   36.1766 H   0  0  0  0  0  0  0  0  0  0  0  0
   46.9072   34.5460   37.0541 H   0  0  0  0  0  0  0  0  0  0  0  0
   44.7891   34.2770   37.5261 H   0  0  0  0  0  0  0  0  0  0  0  0
   44.8195   32.8037   36.4559 H   0  0  0  0  0  0  0  0  0  0  0  0
   45.4104   31.3997   38.4764 H   0  0  0  0  0  0  0  0  0  0  0  0
   43.1260   30.1058   38.7118 H   0  0  0  0  0  0  0  0  0  0  0  0
   39.2676   33.2952   38.3876 H   0  0  0  0  0  0  0  0  0  0  0  0
   41.9392   36.5346   38.1426 H   0  0  0  0  0  0  0  0  0  0  0  0
   45.1719   34.5927   40.7697 H   0  0  0  0  0  0  0  0  0  0  0  0
   43.7198   33.6611   40.3263 H   0  0  0  0  0  0  0  0  0  0  0  0
   45.7799   32.2887   42.0667 H   0  0  0  0  0  0  0  0  0  0  0  0
   44.1496   35.4186   41.7690 H   0  0  0  0  0  0  0  0  0  0  0  0
   44.1387   37.1679   43.6017 H   0  0  0  0  0  0  0  0  0  0  0  0
   45.4723   34.1838   46.3667 H   0  0  0  0  0  0  0  0  0  0  0  0
   43.5541   31.6312   43.2055 H   0  0  0  0  0  0  0  0  0  0  0  0
   42.8396   32.1912   41.6555 H   0  0  0  0  0  0  0  0  0  0  0  0
   44.0767   30.8888   41.6555 H   0  0  0  0  0  0  0  0  0  0  0  0
  1 16  1  0
  2  1  1  0
  3  2  1  0
  4  5  1  0
  4  3  1  0
  5  6  1  0
  6  1  1  0
  7  6  1  0
  7  8  1  0
  9  8  2  0
 10  9  1  0
 11 10  2  0
 12 11  1  0
 13 12  2  0
 13 14  1  0
 14 15  2  0
 15 10  1  0
 15  7  1  0
 16 17  1  0
 17 24  1  0
 17 18  1  0
 18 23  1  0
 19 18  2  0
 19 20  1  0
 20 21  2  0
 21 22  1  0
 23 22  2  0
  2 25  1  0
  2 26  1  0
  3 27  1  0
  3 28  1  0
  4 29  1  0
  4 30  1  0
  5 31  1  0
  5 32  1  0
  6 33  1  6
  8 34  1  0
 11 35  1  0
 13 36  1  0
 16 37  1  0
 16 38  1  0
 17 39  1  6
 19 40  1  0
 20 41  1  0
 22 42  1  0
 24 43  1  0
 24 44  1  0
 24 45  1  0
M  ISO  8  25  13  26  13  27  13  28  13  29  13  30  13  31  13  32  13
M  ISO  8  33  13  34  14  35  14  36  14  37   8  38   8  39   8  40  14
M  ISO  5  41  14  42  14  43   8  44   8  45   8
M  END
>  <minimizedAffinity>  (1) 
-4.59006357

>  <minimizedRMSD>  (1) 
5.84409618

$$$$
