
     RDKit          3D

 36 37  0  0  1  0  0  0  0  0999 V2000
   43.7690   35.5910   41.5990 C   0  0  0  0  0  0  0  0  0  0  0  0
   42.7120   34.8220   41.0070 N   0  0  0  0  0  0  0  0  0  0  0  0
   42.7440   34.6810   39.5960 C   0  0  0  0  0  0  0  0  0  0  0  0
   41.3990   34.3410   39.0010 C   0  0  0  0  0  0  0  0  0  0  0  0
   40.4600   35.4830   39.2610 C   0  0  0  0  0  0  0  0  0  0  0  0
   40.5510   35.9470   40.6770 C   0  0  0  0  0  0  0  0  0  0  0  0
   41.4170   35.0680   41.5370 C   0  0  2  0  0  0  0  0  0  0  0  0
   41.4570   35.7250   42.8500 N   0  0  0  0  0  0  0  0  0  0  0  0
   44.7100   34.5980   42.2950 C   0  0  1  0  0  0  0  0  0  0  0  0
   46.0040   34.5420   41.5690 C   0  0  0  0  0  0  0  0  0  0  0  0
   47.1040   35.1800   42.2090 C   0  0  0  0  0  0  0  0  0  0  0  0
   48.3540   35.1750   41.5740 C   0  0  0  0  0  0  0  0  0  0  0  0
   48.4290   34.5360   40.3430 N   0  0  0  0  0  0  0  0  0  0  0  0
   47.3550   33.9480   39.7820 C   0  0  0  0  0  0  0  0  0  0  0  0
   46.1620   33.9450   40.3750 N   0  0  0  0  0  0  0  0  0  0  0  0
   44.8600   34.9130   43.7440 C   0  0  0  0  0  0  0  0  0  0  0  0
   43.3561   36.2984   42.3332 H   0  0  0  0  0  0  0  0  0  0  0  0
   44.3066   36.1726   40.8357 H   0  0  0  0  0  0  0  0  0  0  0  0
   43.0905   35.6286   39.1579 H   0  0  0  0  0  0  0  0  0  0  0  0
   43.4230   33.8465   39.3665 H   0  0  0  0  0  0  0  0  0  0  0  0
   41.0076   33.4252   39.4681 H   0  0  0  0  0  0  0  0  0  0  0  0
   41.4976   34.1735   37.9183 H   0  0  0  0  0  0  0  0  0  0  0  0
   40.7174   36.3180   38.5928 H   0  0  0  0  0  0  0  0  0  0  0  0
   39.4325   35.1378   39.0736 H   0  0  0  0  0  0  0  0  0  0  0  0
   40.9695   36.9642   40.6848 H   0  0  0  0  0  0  0  0  0  0  0  0
   39.5347   35.9135   41.0966 H   0  0  0  0  0  0  0  0  0  0  0  0
   40.9893   34.0563   41.5969 H   0  0  0  0  0  0  0  0  0  0  0  0
   41.4136   35.0121   43.5921 H   0  0  0  0  0  0  0  0  0  0  0  0
   42.3322   36.2607   42.9393 H   0  0  0  0  0  0  0  0  0  0  0  0
   44.2693   33.5908   42.2584 H   0  0  0  0  0  0  0  0  0  0  0  0
   46.9753   35.6690   43.1859 H   0  0  0  0  0  0  0  0  0  0  0  0
   49.2334   35.6543   42.0290 H   0  0  0  0  0  0  0  0  0  0  0  0
   47.4662   33.4554   38.8048 H   0  0  0  0  0  0  0  0  0  0  0  0
   44.4634   34.0802   44.3432 H   0  0  0  0  0  0  0  0  0  0  0  0
   45.9245   35.0595   43.9791 H   0  0  0  0  0  0  0  0  0  0  0  0
   44.3027   35.8318   43.9791 H   0  0  0  0  0  0  0  0  0  0  0  0
  1  9  1  0
  2  7  1  0
  2  1  1  0
  3  2  1  0
  4  5  1  0
  4  3  1  0
  5  6  1  0
  6  7  1  0
  7  8  1  0
  9 16  1  0
 10 11  2  0
 10  9  1  0
 12 11  1  0
 13 12  2  0
 14 13  1  0
 14 15  2  0
 15 10  1  0
  1 17  1  0
  1 18  1  0
  3 19  1  0
  3 20  1  0
  4 21  1  0
  4 22  1  0
  5 23  1  0
  5 24  1  0
  6 25  1  0
  6 26  1  0
  7 27  1  1
  8 28  1  0
  8 29  1  0
  9 30  1  1
 11 31  1  0
 12 32  1  0
 14 33  1  0
 16 34  1  0
 16 35  1  0
 16 36  1  0
M  ISO  8  17   8  18   8  19  13  20  13  21  13  22  13  23  13  24  13
M  ISO  8  25  13  26  13  27  13  28   5  29   5  30   8  31  14  32  14
M  ISO  4  33  14  34   8  35   8  36   8
M  END
>  <minimizedAffinity>  (1) 
-5.05923176

>  <minimizedRMSD>  (1) 
0.497710198

$$$$
