
     RDKit          3D

 43 45  0  0  1  0  0  0  0  0999 V2000
   43.8900   35.5080   41.3820 C   0  0  0  0  0  0  0  0  0  0  0  0
   42.7610   34.8260   40.8450 N   0  0  0  0  0  0  0  0  0  0  0  0
   42.6760   34.6350   39.4530 C   0  0  0  0  0  0  0  0  0  0  0  0
   41.2750   34.3560   38.9650 C   0  0  0  0  0  0  0  0  0  0  0  0
   40.4080   35.5340   39.2820 C   0  0  0  0  0  0  0  0  0  0  0  0
   40.6220   35.9930   40.6960 C   0  0  0  0  0  0  0  0  0  0  0  0
   41.5120   35.0780   41.4800 C   0  0  2  0  0  0  0  0  0  0  0  0
   41.6650   35.6840   42.7980 N   0  0  0  0  0  0  0  0  0  0  0  0
   44.8330   34.4220   41.9930 C   0  0  1  0  0  0  0  0  0  0  0  0
   46.0240   34.2950   41.0910 C   0  0  0  0  0  0  0  0  0  0  0  0
   47.2160   34.9940   41.5040 C   0  0  0  0  0  0  0  0  0  0  0  0
   48.3270   34.8920   40.6710 C   0  0  0  0  0  0  0  0  0  0  0  0
   48.2260   34.1400   39.5150 N   0  0  0  0  0  0  0  0  0  0  0  0
   47.0870   33.5090   39.1790 C   0  0  0  0  0  0  0  0  0  0  0  0
   45.9980   33.5740   39.9410 N   0  0  0  0  0  0  0  0  0  0  0  0
   45.1970   34.7640   43.3750 C   0  0  0  0  0  0  0  0  0  0  0  0
   45.2490   33.6640   44.3750 C   0  0  0  0  0  0  0  0  0  0  0  0
   46.7210   33.3850   44.8070 C   0  0  0  0  0  0  0  0  0  0  0  0
   45.6260   33.7500   45.7720 C   0  0  0  0  0  0  0  0  0  0  0  0
   43.5691   36.2124   42.1636 H   0  0  0  0  0  0  0  0  0  0  0  0
   44.4087   36.0832   40.6009 H   0  0  0  0  0  0  0  0  0  0  0  0
   43.0432   35.5441   38.9543 H   0  0  0  0  0  0  0  0  0  0  0  0
   43.2835   33.7504   39.2114 H   0  0  0  0  0  0  0  0  0  0  0  0
   40.8802   33.4609   39.4679 H   0  0  0  0  0  0  0  0  0  0  0  0
   41.2861   34.1828   37.8788 H   0  0  0  0  0  0  0  0  0  0  0  0
   40.6540   36.3572   38.5952 H   0  0  0  0  0  0  0  0  0  0  0  0
   39.3554   35.2369   39.1648 H   0  0  0  0  0  0  0  0  0  0  0  0
   41.0793   36.9932   40.6745 H   0  0  0  0  0  0  0  0  0  0  0  0
   39.6400   36.0011   41.1915 H   0  0  0  0  0  0  0  0  0  0  0  0
   41.0559   34.0800   41.5574 H   0  0  0  0  0  0  0  0  0  0  0  0
   41.4862   34.9759   43.5243 H   0  0  0  0  0  0  0  0  0  0  0  0
   42.6238   36.0461   42.9002 H   0  0  0  0  0  0  0  0  0  0  0  0
   44.3261   33.4476   42.0532 H   0  0  0  0  0  0  0  0  0  0  0  0
   47.2460   35.5806   42.4341 H   0  0  0  0  0  0  0  0  0  0  0  0
   49.2680   35.4004   40.9279 H   0  0  0  0  0  0  0  0  0  0  0  0
   47.0546   32.9230   38.2487 H   0  0  0  0  0  0  0  0  0  0  0  0
   46.1943   35.2271   43.3457 H   0  0  0  0  0  0  0  0  0  0  0  0
   44.3797   35.4132   43.7222 H   0  0  0  0  0  0  0  0  0  0  0  0
   44.3561   33.1906   43.9408 H   0  0  0  0  0  0  0  0  0  0  0  0
   47.1274   32.3631   44.7822 H   0  0  0  0  0  0  0  0  0  0  0  0
   47.7166   33.7729   44.5457 H   0  0  0  0  0  0  0  0  0  0  0  0
   45.6473   34.7328   46.2655 H   0  0  0  0  0  0  0  0  0  0  0  0
   45.2398   33.2810   46.6890 H   0  0  0  0  0  0  0  0  0  0  0  0
  1  9  1  0
  2  1  1  0
  2  7  1  0
  3  2  1  0
  4  5  1  0
  4  3  1  0
  5  6  1  0
  6  7  1  0
  7  8  1  0
  9 16  1  0
 10 11  2  0
 10  9  1  0
 12 11  1  0
 13 12  2  0
 14 13  1  0
 14 15  2  0
 15 10  1  0
 16 17  1  0
 17 18  1  0
 17 19  1  0
 18 19  1  0
  1 20  1  0
  1 21  1  0
  3 22  1  0
  3 23  1  0
  4 24  1  0
  4 25  1  0
  5 26  1  0
  5 27  1  0
  6 28  1  0
  6 29  1  0
  7 30  1  1
  8 31  1  0
  8 32  1  0
  9 33  1  1
 11 34  1  0
 12 35  1  0
 14 36  1  0
 16 37  1  0
 16 38  1  0
 17 39  1  0
 18 40  1  0
 18 41  1  0
 19 42  1  0
 19 43  1  0
M  ISO  8  20   8  21   8  22  13  23  13  24  13  25  13  26  13  27  13
M  ISO  8  28  13  29  13  30  13  31   5  32   5  33   8  34  14  35  14
M  ISO  8  36  14  37   8  38   8  39  13  40  13  41  13  42  13  43  13
M  END
>  <minimizedAffinity>  (1) 
-5.32115793

>  <minimizedRMSD>  (1) 
0.753358722

$$$$
