
     RDKit          3D

 38 39  0  0  1  0  0  0  0  0999 V2000
   43.7770   35.6270   41.5600 C   0  0  0  0  0  0  0  0  0  0  0  0
   42.7160   34.8730   40.9860 N   0  0  0  0  0  0  0  0  0  0  0  0
   42.7210   34.6930   39.5800 C   0  0  0  0  0  0  0  0  0  0  0  0
   41.3700   34.3400   39.0070 C   0  0  0  0  0  0  0  0  0  0  0  0
   40.4530   35.5030   39.2710 C   0  0  0  0  0  0  0  0  0  0  0  0
   40.5250   35.9250   40.7030 C   0  0  0  0  0  0  0  0  0  0  0  0
   41.4320   35.0590   41.5380 C   0  0  2  0  0  0  0  0  0  0  0  0
   41.4880   35.7240   42.8580 N   0  0  0  0  0  0  0  0  0  0  0  0
   44.7460   34.6660   42.2610 C   0  0  1  0  0  0  0  0  0  0  0  0
   46.0050   34.5420   41.4960 C   0  0  0  0  0  0  0  0  0  0  0  0
   47.1150   35.1840   42.0710 C   0  0  0  0  0  0  0  0  0  0  0  0
   48.3530   35.1280   41.4130 C   0  0  0  0  0  0  0  0  0  0  0  0
   48.3850   34.4180   40.2070 N   0  0  0  0  0  0  0  0  0  0  0  0
   47.2760   33.8220   39.7090 C   0  0  0  0  0  0  0  0  0  0  0  0
   46.0990   33.8760   40.3370 N   0  0  0  0  0  0  0  0  0  0  0  0
   44.9050   34.9610   43.6960 C   0  0  0  0  0  0  0  0  0  0  0  0
   44.3310   36.1710   44.1880 N   0  0  0  0  0  0  0  0  0  0  0  0
   43.3696   36.3399   42.2920 H   0  0  0  0  0  0  0  0  0  0  0  0
   44.3074   36.1834   40.7732 H   0  0  0  0  0  0  0  0  0  0  0  0
   43.0630   35.6278   39.1118 H   0  0  0  0  0  0  0  0  0  0  0  0
   43.3906   33.8466   39.3674 H   0  0  0  0  0  0  0  0  0  0  0  0
   40.9794   33.4347   39.4947 H   0  0  0  0  0  0  0  0  0  0  0  0
   41.4452   34.1412   37.9277 H   0  0  0  0  0  0  0  0  0  0  0  0
   40.7492   36.3475   38.6314 H   0  0  0  0  0  0  0  0  0  0  0  0
   39.4211   35.1947   39.0471 H   0  0  0  0  0  0  0  0  0  0  0  0
   40.8968   36.9595   40.7432 H   0  0  0  0  0  0  0  0  0  0  0  0
   39.5117   35.8304   41.1204 H   0  0  0  0  0  0  0  0  0  0  0  0
   41.0345   34.0352   41.5991 H   0  0  0  0  0  0  0  0  0  0  0  0
   41.4283   35.0148   43.6025 H   0  0  0  0  0  0  0  0  0  0  0  0
   42.3754   36.2396   42.9453 H   0  0  0  0  0  0  0  0  0  0  0  0
   44.3017   33.6597   42.2618 H   0  0  0  0  0  0  0  0  0  0  0  0
   47.0146   35.7234   43.0244 H   0  0  0  0  0  0  0  0  0  0  0  0
   49.2499   35.6156   41.8227 H   0  0  0  0  0  0  0  0  0  0  0  0
   47.3469   33.2759   38.7567 H   0  0  0  0  0  0  0  0  0  0  0  0
   44.4509   34.1298   44.2554 H   0  0  0  0  0  0  0  0  0  0  0  0
   45.9885   35.0875   43.8374 H   0  0  0  0  0  0  0  0  0  0  0  0
   44.3364   36.1596   45.2179 H   0  0  0  0  0  0  0  0  0  0  0  0
   44.8809   36.9739   43.8506 H   0  0  0  0  0  0  0  0  0  0  0  0
  1  9  1  0
  2  7  1  0
  2  1  1  0
  3  2  1  0
  4  5  1  0
  4  3  1  0
  5  6  1  0
  6  7  1  0
  7  8  1  0
  9 16  1  0
 10 11  2  0
 10  9  1  0
 12 11  1  0
 13 12  2  0
 14 13  1  0
 14 15  2  0
 15 10  1  0
 16 17  1  0
  1 18  1  0
  1 19  1  0
  3 20  1  0
  3 21  1  0
  4 22  1  0
  4 23  1  0
  5 24  1  0
  5 25  1  0
  6 26  1  0
  6 27  1  0
  7 28  1  1
  8 29  1  0
  8 30  1  0
  9 31  1  1
 11 32  1  0
 12 33  1  0
 14 34  1  0
 16 35  1  0
 16 36  1  0
 17 37  1  0
 17 38  1  0
M  ISO  8  18   8  19   8  20  13  21  13  22  13  23  13  24  13  25  13
M  ISO  8  26  13  27  13  28  13  29   5  30   5  31   8  32  14  33  14
M  ISO  5  34  14  35   8  36   8  37   5  38   5
M  END
>  <minimizedAffinity>  (1) 
-5.30448198

>  <minimizedRMSD>  (1) 
0.247979656

$$$$
