
     RDKit          3D

 32 34  0  0  1  0  0  0  0  0999 V2000
   44.4880   35.8400   44.8420 C   0  0  0  0  0  0  0  0  0  0  0  0
   45.1730   35.7680   43.5850 C   0  0  0  0  0  0  0  0  0  0  0  0
   46.1140   34.7210   43.3840 C   0  0  0  0  0  0  0  0  0  0  0  0
   46.2880   33.8610   44.4170 N   0  0  0  0  0  0  0  0  0  0  0  0
   45.6290   33.9580   45.5780 C   0  0  0  0  0  0  0  0  0  0  0  0
   44.7240   34.9450   45.8050 N   0  0  0  0  0  0  0  0  0  0  0  0
   45.8890   32.9870   46.5570 N   0  0  0  0  0  0  0  0  0  0  0  0
   45.1170   32.6990   47.7210 C   0  0  0  0  0  0  0  0  0  0  0  0
   46.1590   32.3480   48.7360 C   0  0  0  0  0  0  0  0  0  0  0  0
   47.0740   31.4380   47.9250 C   0  0  0  0  0  0  0  0  0  0  0  0
   46.9990   32.0710   46.5930 C   0  0  1  0  0  0  0  0  0  0  0  0
   47.1600   31.2340   45.4110 C   0  0  0  0  0  0  0  0  0  0  0  0
   46.2580   30.5640   45.0480 O   0  0  0  0  0  0  0  0  0  0  0  0
   48.0470   30.7540   44.3090 C   0  0  0  0  0  0  0  0  0  0  0  0
   48.9060   29.6610   44.4950 C   0  0  0  0  0  0  0  0  0  0  0  0
   49.8110   29.1910   43.5850 C   0  0  0  0  0  0  0  0  0  0  0  0
   49.7840   29.9060   42.4690 N   0  0  0  0  0  0  0  0  0  0  0  0
   49.0070   30.9480   42.2110 C   0  0  0  0  0  0  0  0  0  0  0  0
   48.1390   31.3770   43.1210 N   0  0  0  0  0  0  0  0  0  0  0  0
   43.7575   36.6438   45.0161 H   0  0  0  0  0  0  0  0  0  0  0  0
   44.9752   36.5060   42.7937 H   0  0  0  0  0  0  0  0  0  0  0  0
   46.6706   34.6148   42.4412 H   0  0  0  0  0  0  0  0  0  0  0  0
   44.5362   33.5778   48.0379 H   0  0  0  0  0  0  0  0  0  0  0  0
   44.3772   31.9002   47.5644 H   0  0  0  0  0  0  0  0  0  0  0  0
   46.6925   33.2422   49.0908 H   0  0  0  0  0  0  0  0  0  0  0  0
   45.7587   31.8845   49.6497 H   0  0  0  0  0  0  0  0  0  0  0  0
   48.1014   31.4455   48.3178 H   0  0  0  0  0  0  0  0  0  0  0  0
   46.7833   30.3772   47.9382 H   0  0  0  0  0  0  0  0  0  0  0  0
   47.9376   32.6355   46.4915 H   0  0  0  0  0  0  0  0  0  0  0  0
   48.8460   29.1351   45.4593 H   0  0  0  0  0  0  0  0  0  0  0  0
   50.4754   28.3312   43.7564 H   0  0  0  0  0  0  0  0  0  0  0  0
   49.0809   31.4596   41.2400 H   0  0  0  0  0  0  0  0  0  0  0  0
  1  6  2  0
  2  1  1  0
  3  2  2  0
  3  4  1  0
  4  5  2  0
  5  6  1  0
  5  7  1  0
  7 11  1  0
  7  8  1  0
  8  9  1  0
 10  9  1  0
 11 10  1  0
 12 11  1  0
 13 12  2  0
 14 15  2  0
 14 12  1  0
 16 15  1  0
 17 16  2  0
 18 17  1  0
 18 19  2  0
 19 14  1  0
  1 20  1  0
  2 21  1  0
  3 22  1  0
  8 23  1  0
  8 24  1  0
  9 25  1  0
  9 26  1  0
 10 27  1  0
 10 28  1  0
 11 29  1  1
 15 30  1  0
 16 31  1  0
 18 32  1  0
M  ISO  8  20  14  21  14  22  14  23  13  24  13  25  13  26  13  27  13
M  ISO  5  28  13  29  13  30  14  31  14  32  14
M  END
>  <minimizedAffinity>  (1) 
-4.78764725

>  <minimizedRMSD>  (1) 
1.53152871

$$$$
