
     RDKit          3D

 33 35  0  0  1  0  0  0  0  0999 V2000
   44.5410   35.8330   44.8840 C   0  0  0  0  0  0  0  0  0  0  0  0
   45.0870   35.6130   43.5850 C   0  0  0  0  0  0  0  0  0  0  0  0
   45.8720   34.4650   43.3890 C   0  0  0  0  0  0  0  0  0  0  0  0
   46.0570   33.6370   44.4510 N   0  0  0  0  0  0  0  0  0  0  0  0
   45.5230   33.8820   45.6580 C   0  0  0  0  0  0  0  0  0  0  0  0
   44.7690   34.9740   45.8750 N   0  0  0  0  0  0  0  0  0  0  0  0
   45.7700   32.9300   46.6530 N   0  0  0  0  0  0  0  0  0  0  0  0
   44.9400   32.7230   47.8350 C   0  0  0  0  0  0  0  0  0  0  0  0
   46.0170   32.3400   48.8430 C   0  0  0  0  0  0  0  0  0  0  0  0
   46.6870   31.2610   48.0220 C   0  0  0  0  0  0  0  0  0  0  0  0
   46.8890   31.9730   46.6740 C   0  0  1  0  0  0  0  0  0  0  0  0
   46.7330   30.9720   45.5930 C   0  0  0  0  0  0  0  0  0  0  0  0
   47.9620   30.6380   45.2550 O   0  0  0  0  0  0  0  0  0  0  0  0
   45.7140   30.2580   44.8310 C   0  0  0  0  0  0  0  0  0  0  0  0
   45.5940   28.8850   44.8150 C   0  0  0  0  0  0  0  0  0  0  0  0
   44.5760   28.5590   44.0110 N   0  0  0  0  0  0  0  0  0  0  0  0
   44.0120   29.6520   43.4920 C   0  0  0  0  0  0  0  0  0  0  0  0
   44.7290   30.6460   44.0130 N   0  0  0  0  0  0  0  0  0  0  0  0
   43.9234   36.7242   45.0694 H   0  0  0  0  0  0  0  0  0  0  0  0
   44.8994   36.3196   42.7631 H   0  0  0  0  0  0  0  0  0  0  0  0
   46.3216   34.2436   42.4098 H   0  0  0  0  0  0  0  0  0  0  0  0
   44.4115   33.6415   48.1299 H   0  0  0  0  0  0  0  0  0  0  0  0
   44.1324   31.9860   47.7137 H   0  0  0  0  0  0  0  0  0  0  0  0
   46.6955   33.1761   49.0679 H   0  0  0  0  0  0  0  0  0  0  0  0
   45.6643   32.0424   49.8415 H   0  0  0  0  0  0  0  0  0  0  0  0
   47.6482   30.9598   48.4641 H   0  0  0  0  0  0  0  0  0  0  0  0
   46.1067   30.3292   47.9516 H   0  0  0  0  0  0  0  0  0  0  0  0
   47.8696   32.4540   46.5435 H   0  0  0  0  0  0  0  0  0  0  0  0
   46.7197   30.1659   46.3414 H   0  0  0  0  0  0  0  0  0  0  0  0
   48.5008   30.4916   46.0725 H   0  0  0  0  0  0  0  0  0  0  0  0
   46.2279   28.1774   45.3694 H   0  0  0  0  0  0  0  0  0  0  0  0
   43.1594   29.7162   42.7999 H   0  0  0  0  0  0  0  0  0  0  0  0
   44.5399   31.6364   43.8026 H   0  0  0  0  0  0  0  0  0  0  0  0
  1  6  2  0
  2  1  1  0
  3  2  2  0
  3  4  1  0
  4  5  2  0
  5  6  1  0
  5  7  1  0
  7 11  1  0
  7  8  1  0
  8  9  1  0
 10  9  1  0
 11 10  1  0
 12 13  1  0
 12 11  1  0
 14 12  1  0
 15 14  2  0
 16 15  1  0
 17 16  2  0
 17 18  1  0
 18 14  1  0
  1 19  1  0
  2 20  1  0
  3 21  1  0
  8 22  1  0
  8 23  1  0
  9 24  1  0
  9 25  1  0
 10 26  1  0
 10 27  1  0
 11 28  1  1
 12 29  1  0
 13 30  1  0
 15 31  1  0
 17 32  1  0
 18 33  1  0
M  ISO  8  19  14  20  14  21  14  22  13  23  13  24  13  25  13  26  13
M  ISO  7  27  13  28  13  29   8  30   3  31  14  32  14  33   9
M  END
>  <minimizedAffinity>  (1) 
-4.62169886

>  <minimizedRMSD>  (1) 
0.542406738

$$$$
