
     RDKit          3D

 26 27  0  0  0  0  0  0  0  0999 V2000
   44.5023   35.7500   44.8189 C   0  0  0  0  0  0  0  0  0  0  0  0
   45.1303   35.5844   43.5650 C   0  0  0  0  0  0  0  0  0  0  0  0
   46.0250   34.5019   43.4204 C   0  0  0  0  0  0  0  0  0  0  0  0
   46.2137   33.6988   44.5044 N   0  0  0  0  0  0  0  0  0  0  0  0
   45.5980   33.8873   45.6825 C   0  0  0  0  0  0  0  0  0  0  0  0
   44.7414   34.9196   45.8297 N   0  0  0  0  0  0  0  0  0  0  0  0
   45.8792   32.9874   46.7155 N   0  0  0  0  0  0  0  0  0  0  0  0
   44.9711   32.6595   47.7818 C   0  0  0  0  0  0  0  0  0  0  0  0
   45.9170   32.3061   48.8736 C   0  0  0  0  0  0  0  0  0  0  0  0
   46.9160   31.4336   48.1319 C   0  0  0  0  0  0  0  0  0  0  0  0
   47.1279   32.2523   46.8711 C   0  0  1  0  0  0  0  0  0  0  0  0
   47.3873   31.3207   45.7620 C   0  0  0  0  0  0  0  0  0  0  0  0
   47.7629   30.1433   45.6984 O   0  0  0  0  0  0  0  0  0  0  0  0
   43.8122   36.6041   44.8939 H   0  0  0  0  0  0  0  0  0  0  0  0
   44.9834   36.2182   42.7042 H   0  0  0  0  0  0  0  0  0  0  0  0
   46.5427   34.3187   42.4773 H   0  0  0  0  0  0  0  0  0  0  0  0
   44.3201   31.7970   47.5489 H   0  0  0  0  0  0  0  0  0  0  0  0
   44.3287   33.5396   48.0698 H   0  0  0  0  0  0  0  0  0  0  0  0
   45.3705   31.5969   49.5599 H   0  0  0  0  0  0  0  0  0  0  0  0
   46.3868   33.1412   49.3876 H   0  0  0  0  0  0  0  0  0  0  0  0
   47.8632   31.4747   48.7169 H   0  0  0  0  0  0  0  0  0  0  0  0
   46.5614   30.4209   47.9660 H   0  0  0  0  0  0  0  0  0  0  0  0
   47.9973   32.9262   46.9815 H   0  0  0  0  0  0  0  0  0  0  0  0
   47.3413   31.3251   44.3649 N   0  0  0  0  0  0  0  0  0  0  0  0
   47.3085   31.3283   43.3675 H   0  0  0  0  0  0  0  0  0  0  0  0
   47.2270   30.5961   43.5987 H   0  0  0  0  0  0  0  0  0  0  0  0
  1  6  2  0
  2  1  1  0
  3  2  2  0
  3  4  1  0
  4  5  2  0
  5  6  1  0
  5  7  1  0
  7 11  1  0
  7  8  1  0
  8  9  1  0
 10  9  1  0
 11 10  1  0
 12 13  2  0
 12 11  1  0
  1 14  1  0
  2 15  1  0
  3 16  1  0
  8 17  1  0
  8 18  1  0
  9 19  1  0
  9 20  1  0
 10 21  1  0
 10 22  1  0
 11 23  1  1
 24 25  1  0
 24 26  1  0
 12 24  1  0
M  END
>  <DihAtoms>  (1) 
12,11,23,24

>  <DihDeg>  (1) 
-90.73442703944963

$$$$
