
     RDKit          3D

 34 37  0  0  0  0  0  0  0  0999 V2000
   46.5600   34.6470   42.0550 C   0  0  0  0  0  0  0  0  0  0  0  0
   47.7890   35.2270   41.8710 C   0  0  0  0  0  0  0  0  0  0  0  0
   48.5160   35.0520   40.6900 C   0  0  0  0  0  0  0  0  0  0  0  0
   47.9900   34.2690   39.6640 C   0  0  0  0  0  0  0  0  0  0  0  0
   46.7490   33.6800   39.8420 C   0  0  0  0  0  0  0  0  0  0  0  0
   46.0500   33.8720   41.0250 C   0  0  0  0  0  0  0  0  0  0  0  0
   44.7740   33.2620   41.2000 N   0  0  0  0  0  0  0  0  0  0  0  0
   44.2690   32.2990   41.9980 C   0  0  0  0  0  0  0  0  0  0  0  0
   42.9550   32.1330   41.7120 N   0  0  0  0  0  0  0  0  0  0  0  0
   42.6060   32.9970   40.7180 C   0  0  0  0  0  0  0  0  0  0  0  0
   41.3830   33.1930   40.0970 C   0  0  0  0  0  0  0  0  0  0  0  0
   40.4100   32.4870   40.4750 O   0  0  0  0  0  0  0  0  0  0  0  0
   41.2890   34.1220   39.1260 N   0  0  0  0  0  0  0  0  0  0  0  0
   42.4050   34.8030   38.8240 C   0  0  0  0  0  0  0  0  0  0  0  0
   42.3600   35.7980   37.8030 N   0  0  0  0  0  0  0  0  0  0  0  0
   43.5930   34.6150   39.4240 N   0  0  0  0  0  0  0  0  0  0  0  0
   43.7570   33.7030   40.4030 C   0  0  0  0  0  0  0  0  0  0  0  0
   44.4240   36.0240   44.8150 C   0  0  0  0  0  0  0  0  0  0  0  0
   45.0150   35.9410   43.5350 C   0  0  0  0  0  0  0  0  0  0  0  0
   45.8710   34.8800   43.3140 C   0  0  0  0  0  0  0  0  0  0  0  0
   46.1090   33.9750   44.3110 N   0  0  0  0  0  0  0  0  0  0  0  0
   45.5080   34.1040   45.5320 C   0  0  0  0  0  0  0  0  0  0  0  0
   44.6810   35.1140   45.7730 N   0  0  0  0  0  0  0  0  0  0  0  0
   48.2141   35.8466   42.6744 H   0  0  0  0  0  0  0  0  0  0  0  0
   49.4993   35.5304   40.5709 H   0  0  0  0  0  0  0  0  0  0  0  0
   48.5506   34.1213   38.7292 H   0  0  0  0  0  0  0  0  0  0  0  0
   46.3168   33.0587   39.0438 H   0  0  0  0  0  0  0  0  0  0  0  0
   44.8329   31.7388   42.7583 H   0  0  0  0  0  0  0  0  0  0  0  0
   40.4003   34.3015   38.6373 H   0  0  0  0  0  0  0  0  0  0  0  0
   43.2100   36.3275   37.5621 H   0  0  0  0  0  0  0  0  0  0  0  0
   41.4775   35.9870   37.3066 H   0  0  0  0  0  0  0  0  0  0  0  0
   43.7360   36.8536   45.0347 H   0  0  0  0  0  0  0  0  0  0  0  0
   44.8039   36.6848   42.7526 H   0  0  0  0  0  0  0  0  0  0  0  0
   45.7113   33.3650   46.3210 H   0  0  0  0  0  0  0  0  0  0  0  0
  1 20  1  0
  2  1  2  0
  3  2  1  0
  4  5  1  0
  4  3  2  0
  5  6  2  0
  6  7  1  0
  6  1  1  0
  7  8  1  0
  9  8  2  0
 10  9  1  0
 11 12  2  0
 11 10  1  0
 13 11  1  0
 14 13  1  0
 14 16  2  0
 15 14  1  0
 16 17  1  0
 17 10  2  0
 17  7  1  0
 18 23  2  0
 19 18  1  0
 20 19  2  0
 20 21  1  0
 21 22  2  0
 22 23  1  0
  2 24  1  0
  3 25  1  0
  4 26  1  0
  5 27  1  0
  8 28  1  0
 13 29  1  0
 15 30  1  0
 15 31  1  0
 18 32  1  0
 19 33  1  0
 22 34  1  0
M  ISO  8  24  14  25  14  26  14  27  14  28  14  29   9  32  14  33  14
M  ISO  1  34  14
M  END
>  <minimizedAffinity>  (1) 
-6.81580114

>  <minimizedRMSD>  (1) 
0.256540269

$$$$
