
     RDKit          3D

 36 39  0  0  0  0  0  0  0  0999 V2000
   46.5190   34.5900   42.1720 C   0  0  0  0  0  0  0  0  0  0  0  0
   47.7010   35.2780   41.9460 C   0  0  0  0  0  0  0  0  0  0  0  0
   48.4150   35.1370   40.7540 C   0  0  0  0  0  0  0  0  0  0  0  0
   47.9100   34.2690   39.7640 C   0  0  0  0  0  0  0  0  0  0  0  0
   46.7180   33.5740   39.9890 C   0  0  0  0  0  0  0  0  0  0  0  0
   46.0520   33.7550   41.1930 C   0  0  0  0  0  0  0  0  0  0  0  0
   44.8150   33.0110   41.3940 C   0  0  0  0  0  0  0  0  0  0  0  0
   44.6820   31.7550   41.9400 C   0  0  0  0  0  0  0  0  0  0  0  0
   43.4800   31.1220   42.0990 C   0  0  0  0  0  0  0  0  0  0  0  0
   42.3160   31.7270   41.7090 C   0  0  0  0  0  0  0  0  0  0  0  0
   42.3930   32.9940   41.1520 C   0  0  0  0  0  0  0  0  0  0  0  0
   41.2070   33.5620   40.7770 C   0  0  0  0  0  0  0  0  0  0  0  0
   41.1990   34.8150   40.2180 C   0  0  0  0  0  0  0  0  0  0  0  0
   42.4130   35.4570   40.0570 C   0  0  0  0  0  0  0  0  0  0  0  0
   43.5860   34.8720   40.4380 C   0  0  0  0  0  0  0  0  0  0  0  0
   43.6100   33.6070   41.0040 C   0  0  0  0  0  0  0  0  0  0  0  0
   44.4430   35.9590   44.9890 C   0  0  0  0  0  0  0  0  0  0  0  0
   45.0160   35.8660   43.7160 C   0  0  0  0  0  0  0  0  0  0  0  0
   45.8590   34.8070   43.4420 C   0  0  0  0  0  0  0  0  0  0  0  0
   46.0790   33.9180   44.4280 N   0  0  0  0  0  0  0  0  0  0  0  0
   45.5200   34.0150   45.6630 C   0  0  0  0  0  0  0  0  0  0  0  0
   44.7080   35.0280   45.9370 N   0  0  0  0  0  0  0  0  0  0  0  0
   48.0863   35.9521   42.7252 H   0  0  0  0  0  0  0  0  0  0  0  0
   49.3511   35.6911   40.5909 H   0  0  0  0  0  0  0  0  0  0  0  0
   48.4531   34.1390   38.8163 H   0  0  0  0  0  0  0  0  0  0  0  0
   46.3144   32.8945   39.2239 H   0  0  0  0  0  0  0  0  0  0  0  0
   45.5925   31.2312   42.2666 H   0  0  0  0  0  0  0  0  0  0  0  0
   43.4486   30.1168   42.5447 H   0  0  0  0  0  0  0  0  0  0  0  0
   41.3467   31.2221   41.8340 H   0  0  0  0  0  0  0  0  0  0  0  0
   40.2630   33.0165   40.9229 H   0  0  0  0  0  0  0  0  0  0  0  0
   40.2580   35.2930   39.9082 H   0  0  0  0  0  0  0  0  0  0  0  0
   42.4340   36.4625   39.6115 H   0  0  0  0  0  0  0  0  0  0  0  0
   44.5313   35.4155   40.2929 H   0  0  0  0  0  0  0  0  0  0  0  0
   43.7700   36.7971   45.2227 H   0  0  0  0  0  0  0  0  0  0  0  0
   44.7990   36.6225   42.9475 H   0  0  0  0  0  0  0  0  0  0  0  0
   45.7394   33.2584   46.4307 H   0  0  0  0  0  0  0  0  0  0  0  0
  1 19  1  0
  2  1  2  0
  3  2  1  0
  4  5  1  0
  4  3  2  0
  5  6  2  0
  6  7  1  0
  6  1  1  0
  7  8  2  0
  8  9  1  0
 10  9  2  0
 11 10  1  0
 12 11  2  0
 13 12  1  0
 14 13  2  0
 14 15  1  0
 15 16  2  0
 16 11  1  0
 16  7  1  0
 17 22  2  0
 18 17  1  0
 19 18  2  0
 19 20  1  0
 20 21  2  0
 21 22  1  0
  2 23  1  0
  3 24  1  0
  4 25  1  0
  5 26  1  0
  8 27  1  0
  9 28  1  0
 10 29  1  0
 12 30  1  0
 13 31  1  0
 14 32  1  0
 15 33  1  0
 17 34  1  0
 18 35  1  0
 21 36  1  0
M  ISO  8  23  14  24  14  25  14  26  14  27  14  28  14  29  14  30  14
M  ISO  6  31  14  32  14  33  14  34  14  35  14  36  14
M  END
>  <minimizedAffinity>  (1) 
-6.48953485

>  <minimizedRMSD>  (1) 
1.36246455

$$$$
