
     RDKit          3D

 31 33  0  0  0  0  0  0  0  0999 V2000
   46.5510   34.6310   42.1560 C   0  0  0  0  0  0  0  0  0  0  0  0
   47.7620   35.2450   41.9670 C   0  0  0  0  0  0  0  0  0  0  0  0
   48.4660   35.1110   40.7690 C   0  0  0  0  0  0  0  0  0  0  0  0
   47.9350   34.3420   39.7410 C   0  0  0  0  0  0  0  0  0  0  0  0
   46.7070   33.7160   39.9260 C   0  0  0  0  0  0  0  0  0  0  0  0
   46.0180   33.8620   41.1310 C   0  0  0  0  0  0  0  0  0  0  0  0
   44.7600   33.2220   41.3220 N   0  0  0  0  0  0  0  0  0  0  0  0
   44.5110   32.0000   41.8280 C   0  0  0  0  0  0  0  0  0  0  0  0
   43.2070   31.5620   41.9300 C   0  0  0  0  0  0  0  0  0  0  0  0
   42.1720   32.3910   41.5070 C   0  0  0  0  0  0  0  0  0  0  0  0
   40.8330   31.9430   41.6100 N   0  0  0  0  0  0  0  0  0  0  0  0
   42.4480   33.6250   40.9970 N   0  0  0  0  0  0  0  0  0  0  0  0
   43.7500   34.0200   40.9140 C   0  0  0  0  0  0  0  0  0  0  0  0
   43.8430   35.1770   40.4260 O   0  0  0  0  0  0  0  0  0  0  0  0
   44.4490   35.9950   44.9650 C   0  0  0  0  0  0  0  0  0  0  0  0
   45.0410   35.9120   43.7000 C   0  0  0  0  0  0  0  0  0  0  0  0
   45.8830   34.8210   43.4340 C   0  0  0  0  0  0  0  0  0  0  0  0
   46.0870   33.9050   44.3970 N   0  0  0  0  0  0  0  0  0  0  0  0
   45.4910   34.0190   45.6190 C   0  0  0  0  0  0  0  0  0  0  0  0
   44.6910   35.0390   45.8980 N   0  0  0  0  0  0  0  0  0  0  0  0
   48.1880   35.8561   42.7764 H   0  0  0  0  0  0  0  0  0  0  0  0
   49.4367   35.6120   40.6395 H   0  0  0  0  0  0  0  0  0  0  0  0
   48.4795   34.2296   38.7918 H   0  0  0  0  0  0  0  0  0  0  0  0
   46.2771   33.1036   39.1197 H   0  0  0  0  0  0  0  0  0  0  0  0
   45.3400   31.3563   42.1573 H   0  0  0  0  0  0  0  0  0  0  0  0
   42.9869   30.5661   42.3421 H   0  0  0  0  0  0  0  0  0  0  0  0
   40.0614   32.5504   41.2992 H   0  0  0  0  0  0  0  0  0  0  0  0
   40.6304   31.0097   41.9957 H   0  0  0  0  0  0  0  0  0  0  0  0
   43.7847   36.8384   45.2046 H   0  0  0  0  0  0  0  0  0  0  0  0
   44.8519   36.6800   42.9356 H   0  0  0  0  0  0  0  0  0  0  0  0
   45.6772   33.2522   46.3853 H   0  0  0  0  0  0  0  0  0  0  0  0
  1 17  1  0
  2  1  2  0
  3  2  1  0
  4  5  1  0
  4  3  2  0
  5  6  2  0
  6  7  1  0
  6  1  1  0
  7  8  1  0
  8  9  2  0
 10 11  1  0
 10  9  1  0
 12 10  2  0
 13 12  1  0
 13  7  1  0
 14 13  2  0
 15 20  2  0
 16 15  1  0
 17 16  2  0
 17 18  1  0
 18 19  2  0
 19 20  1  0
  2 21  1  0
  3 22  1  0
  4 23  1  0
  5 24  1  0
  8 25  1  0
  9 26  1  0
 11 27  1  0
 11 28  1  0
 15 29  1  0
 16 30  1  0
 19 31  1  0
M  ISO  8  21  14  22  14  23  14  24  14  25  14  26  14  29  14  30  14
M  ISO  1  31  14
M  END
>  <minimizedAffinity>  (1) 
-5.95854759

>  <minimizedRMSD>  (1) 
1.3391341

$$$$
