
     RDKit          3D

 30 32  0  0  0  0  0  0  0  0999 V2000
   46.6390   34.7740   42.0570 C   0  0  0  0  0  0  0  0  0  0  0  0
   47.9480   35.2300   42.0150 C   0  0  0  0  0  0  0  0  0  0  0  0
   48.7010   35.0840   40.8410 C   0  0  0  0  0  0  0  0  0  0  0  0
   48.1420   34.4830   39.7150 C   0  0  0  0  0  0  0  0  0  0  0  0
   46.8330   34.0360   39.7820 C   0  0  0  0  0  0  0  0  0  0  0  0
   46.0970   34.1850   40.9460 C   0  0  0  0  0  0  0  0  0  0  0  0
   44.4470   36.1400   44.8010 C   0  0  0  0  0  0  0  0  0  0  0  0
   45.0830   36.0700   43.5600 C   0  0  0  0  0  0  0  0  0  0  0  0
   45.9160   34.9690   43.3160 C   0  0  0  0  0  0  0  0  0  0  0  0
   46.0720   34.0340   44.2740 N   0  0  0  0  0  0  0  0  0  0  0  0
   45.4300   34.1440   45.4740 C   0  0  0  0  0  0  0  0  0  0  0  0
   44.6320   35.1790   45.7310 N   0  0  0  0  0  0  0  0  0  0  0  0
   44.7050   33.7100   41.0370 C   0  0  0  0  0  0  0  0  0  0  0  0
   43.6840   34.5350   40.5750 C   0  0  0  0  0  0  0  0  0  0  0  0
   42.3630   34.1580   40.6170 C   0  0  0  0  0  0  0  0  0  0  0  0
   42.0270   32.9440   41.1220 C   0  0  0  0  0  0  0  0  0  0  0  0
   43.0540   32.1260   41.5820 C   0  0  0  0  0  0  0  0  0  0  0  0
   44.3830   32.4780   41.5520 C   0  0  0  0  0  0  0  0  0  0  0  0
   48.3947   35.7053   42.9008 H   0  0  0  0  0  0  0  0  0  0  0  0
   49.7392   35.4461   40.8088 H   0  0  0  0  0  0  0  0  0  0  0  0
   48.7285   34.3660   38.7918 H   0  0  0  0  0  0  0  0  0  0  0  0
   46.3739   33.5587   38.9037 H   0  0  0  0  0  0  0  0  0  0  0  0
   43.7858   36.9903   45.0241 H   0  0  0  0  0  0  0  0  0  0  0  0
   44.9356   36.8516   42.8001 H   0  0  0  0  0  0  0  0  0  0  0  0
   45.5738   33.3670   46.2392 H   0  0  0  0  0  0  0  0  0  0  0  0
   43.9427   35.5214   40.1626 H   0  0  0  0  0  0  0  0  0  0  0  0
   41.5822   34.8367   40.2433 H   0  0  0  0  0  0  0  0  0  0  0  0
   40.9775   32.6176   41.1662 H   0  0  0  0  0  0  0  0  0  0  0  0
   42.7877   31.1412   41.9933 H   0  0  0  0  0  0  0  0  0  0  0  0
   45.1609   31.7968   41.9273 H   0  0  0  0  0  0  0  0  0  0  0  0
  1  9  1  0
  2  1  2  0
  3  2  1  0
  4  5  1  0
  4  3  2  0
  5  6  2  0
  6 13  1  0
  6  1  1  0
  7 12  2  0
  8  7  1  0
  9  8  2  0
  9 10  1  0
 10 11  2  0
 11 12  1  0
 13 18  2  0
 14 15  2  0
 14 13  1  0
 15 16  1  0
 16 17  2  0
 18 17  1  0
  2 19  1  0
  3 20  1  0
  4 21  1  0
  5 22  1  0
  7 23  1  0
  8 24  1  0
 11 25  1  0
 14 26  1  0
 15 27  1  0
 16 28  1  0
 17 29  1  0
 18 30  1  0
M  ISO  8  19  14  20  14  21  14  22  14  23  14  24  14  25  14  26  14
M  ISO  4  27  14  28  14  29  14  30  14
M  END
>  <minimizedAffinity>  (1) 
-5.80468178

>  <minimizedRMSD>  (1) 
0.841681838

$$$$
