
     RDKit          3D

 27 29  0  0  0  0  0  0  0  0999 V2000
   46.6510   34.7900   42.0620 C   0  0  0  0  0  0  0  0  0  0  0  0
   47.9530   35.2750   41.9960 C   0  0  0  0  0  0  0  0  0  0  0  0
   48.7120   35.1420   40.8300 C   0  0  0  0  0  0  0  0  0  0  0  0
   48.1540   34.5110   39.7140 C   0  0  0  0  0  0  0  0  0  0  0  0
   46.8600   34.0310   39.7830 C   0  0  0  0  0  0  0  0  0  0  0  0
   46.1360   34.1780   40.9510 C   0  0  0  0  0  0  0  0  0  0  0  0
   44.4510   36.1040   44.8150 C   0  0  0  0  0  0  0  0  0  0  0  0
   45.0920   36.0470   43.5710 C   0  0  0  0  0  0  0  0  0  0  0  0
   45.9320   34.9660   43.3080 C   0  0  0  0  0  0  0  0  0  0  0  0
   46.0940   34.0170   44.2630 N   0  0  0  0  0  0  0  0  0  0  0  0
   45.4560   34.0990   45.4670 C   0  0  0  0  0  0  0  0  0  0  0  0
   44.6430   35.1390   45.7320 N   0  0  0  0  0  0  0  0  0  0  0  0
   44.7740   33.6600   40.9950 C   0  0  0  0  0  0  0  0  0  0  0  0
   43.7820   34.4250   40.3890 C   0  0  0  0  0  0  0  0  0  0  0  0
   42.5700   33.7460   40.5500 C   0  0  0  0  0  0  0  0  0  0  0  0
   42.9120   32.5990   41.2500 C   0  0  0  0  0  0  0  0  0  0  0  0
   44.1950   32.5840   41.4900 O   0  0  0  0  0  0  0  0  0  0  0  0
   48.3918   35.7706   42.8746 H   0  0  0  0  0  0  0  0  0  0  0  0
   49.7403   35.5307   40.7906 H   0  0  0  0  0  0  0  0  0  0  0  0
   48.7396   34.3977   38.7897 H   0  0  0  0  0  0  0  0  0  0  0  0
   46.4081   33.5340   38.9119 H   0  0  0  0  0  0  0  0  0  0  0  0
   43.7831   36.9474   45.0446 H   0  0  0  0  0  0  0  0  0  0  0  0
   44.9365   36.8357   42.8201 H   0  0  0  0  0  0  0  0  0  0  0  0
   45.6064   33.3137   46.2224 H   0  0  0  0  0  0  0  0  0  0  0  0
   43.9250   35.3879   39.8769 H   0  0  0  0  0  0  0  0  0  0  0  0
   41.5728   34.0521   40.2009 H   0  0  0  0  0  0  0  0  0  0  0  0
   42.2046   31.8152   41.5584 H   0  0  0  0  0  0  0  0  0  0  0  0
  1  9  1  0
  2  1  2  0
  3  2  1  0
  4  5  1  0
  4  3  2  0
  5  6  2  0
  6 13  1  0
  6  1  1  0
  7 12  2  0
  8  7  1  0
  9  8  2  0
  9 10  1  0
 10 11  2  0
 11 12  1  0
 13 17  1  0
 14 15  1  0
 14 13  2  0
 15 16  2  0
 16 17  1  0
  2 18  1  0
  3 19  1  0
  4 20  1  0
  5 21  1  0
  7 22  1  0
  8 23  1  0
 11 24  1  0
 14 25  1  0
 15 26  1  0
 16 27  1  0
M  ISO  8  18  14  19  14  20  14  21  14  22  14  23  14  24  14  25  14
M  ISO  2  26  14  27  14
M  END
>  <minimizedAffinity>  (1) 
-5.53998947

>  <minimizedRMSD>  (1) 
0.734846115

$$$$
