
     RDKit          3D

 33 35  0  0  0  0  0  0  0  0999 V2000
   46.6220   34.7490   42.0240 C   0  0  0  0  0  0  0  0  0  0  0  0
   47.8970   35.2920   41.9280 C   0  0  0  0  0  0  0  0  0  0  0  0
   48.6550   35.1630   40.7590 C   0  0  0  0  0  0  0  0  0  0  0  0
   48.1210   34.4760   39.6700 C   0  0  0  0  0  0  0  0  0  0  0  0
   46.8390   33.9290   39.7680 C   0  0  0  0  0  0  0  0  0  0  0  0
   46.1200   34.0780   40.9420 C   0  0  0  0  0  0  0  0  0  0  0  0
   44.4750   36.0740   44.8050 C   0  0  0  0  0  0  0  0  0  0  0  0
   45.0920   36.0260   43.5440 C   0  0  0  0  0  0  0  0  0  0  0  0
   45.9150   34.9370   43.2820 C   0  0  0  0  0  0  0  0  0  0  0  0
   46.0850   33.9850   44.2370 N   0  0  0  0  0  0  0  0  0  0  0  0
   45.4740   34.0570   45.4500 C   0  0  0  0  0  0  0  0  0  0  0  0
   44.6750   35.0980   45.7230 N   0  0  0  0  0  0  0  0  0  0  0  0
   44.7520   33.5070   41.0760 C   0  0  0  0  0  0  0  0  0  0  0  0
   43.7030   34.4530   40.5320 C   0  0  0  0  0  0  0  0  0  0  0  0
   43.3530   33.9320   39.1590 C   0  0  0  0  0  0  0  0  0  0  0  0
   43.8100   32.5010   39.0880 C   0  0  0  0  0  0  0  0  0  0  0  0
   44.5960   32.1970   40.3350 C   0  0  0  0  0  0  0  0  0  0  0  0
   48.3188   35.8337   42.7874 H   0  0  0  0  0  0  0  0  0  0  0  0
   49.6629   35.5996   40.6999 H   0  0  0  0  0  0  0  0  0  0  0  0
   48.7029   34.3656   38.7430 H   0  0  0  0  0  0  0  0  0  0  0  0
   46.4036   33.3834   38.9178 H   0  0  0  0  0  0  0  0  0  0  0  0
   43.8169   36.9202   45.0518 H   0  0  0  0  0  0  0  0  0  0  0  0
   44.9308   36.8163   42.7960 H   0  0  0  0  0  0  0  0  0  0  0  0
   45.6341   33.2683   46.1999 H   0  0  0  0  0  0  0  0  0  0  0  0
   44.6108   33.3430   42.1545 H   0  0  0  0  0  0  0  0  0  0  0  0
   42.8141   34.4530   41.1799 H   0  0  0  0  0  0  0  0  0  0  0  0
   44.0732   35.4880   40.4905 H   0  0  0  0  0  0  0  0  0  0  0  0
   42.2656   33.9871   39.0024 H   0  0  0  0  0  0  0  0  0  0  0  0
   43.8431   34.5342   38.3798 H   0  0  0  0  0  0  0  0  0  0  0  0
   42.9376   31.8340   39.0256 H   0  0  0  0  0  0  0  0  0  0  0  0
   44.4355   32.3452   38.1967 H   0  0  0  0  0  0  0  0  0  0  0  0
   44.0538   31.4705   40.9580 H   0  0  0  0  0  0  0  0  0  0  0  0
   45.5753   31.7597   40.0906 H   0  0  0  0  0  0  0  0  0  0  0  0
  1  9  1  0
  2  1  2  0
  3  2  1  0
  4  5  1  0
  4  3  2  0
  5  6  2  0
  6 13  1  0
  6  1  1  0
  7 12  2  0
  8  7  1  0
  9  8  2  0
  9 10  1  0
 10 11  2  0
 11 12  1  0
 14 13  1  0
 15 14  1  0
 16 15  1  0
 16 17  1  0
 17 13  1  0
  2 18  1  0
  3 19  1  0
  4 20  1  0
  5 21  1  0
  7 22  1  0
  8 23  1  0
 11 24  1  0
 13 25  1  0
 14 26  1  0
 14 27  1  0
 15 28  1  0
 15 29  1  0
 16 30  1  0
 16 31  1  0
 17 32  1  0
 17 33  1  0
M  ISO  8  18  14  19  14  20  14  21  14  22  14  23  14  24  14  25  13
M  ISO  8  26  13  27  13  28  13  29  13  30  13  31  13  32  13  33  13
M  END
>  <minimizedAffinity>  (1) 
-5.509902

>  <minimizedRMSD>  (1) 
0.871984243

$$$$
