
     RDKit          3D

 26 28  0  0  0  0  0  0  0  0999 V2000
   46.6260   34.7710   42.0520 C   0  0  0  0  0  0  0  0  0  0  0  0
   47.9100   35.2670   41.9650 C   0  0  0  0  0  0  0  0  0  0  0  0
   48.6790   35.1310   40.8040 C   0  0  0  0  0  0  0  0  0  0  0  0
   48.1370   34.4760   39.6970 C   0  0  0  0  0  0  0  0  0  0  0  0
   46.8400   33.9730   39.7800 C   0  0  0  0  0  0  0  0  0  0  0  0
   46.1180   34.1340   40.9530 C   0  0  0  0  0  0  0  0  0  0  0  0
   44.4570   36.1020   44.8070 C   0  0  0  0  0  0  0  0  0  0  0  0
   45.0870   36.0440   43.5510 C   0  0  0  0  0  0  0  0  0  0  0  0
   45.9120   34.9640   43.2980 C   0  0  0  0  0  0  0  0  0  0  0  0
   46.0710   34.0250   44.2640 N   0  0  0  0  0  0  0  0  0  0  0  0
   45.4520   34.1020   45.4670 C   0  0  0  0  0  0  0  0  0  0  0  0
   44.6490   35.1360   45.7370 N   0  0  0  0  0  0  0  0  0  0  0  0
   44.7950   33.6150   41.0240 N   0  0  0  0  0  0  0  0  0  0  0  0
   44.1830   32.5170   41.4750 C   0  0  0  0  0  0  0  0  0  0  0  0
   42.8780   32.6200   41.2470 N   0  0  0  0  0  0  0  0  0  0  0  0
   42.6410   33.7980   40.6390 C   0  0  0  0  0  0  0  0  0  0  0  0
   43.8560   34.4010   40.5120 N   0  0  0  0  0  0  0  0  0  0  0  0
   48.3422   35.7848   42.8340 H   0  0  0  0  0  0  0  0  0  0  0  0
   49.7008   35.5364   40.7641 H   0  0  0  0  0  0  0  0  0  0  0  0
   48.7240   34.3588   38.7742 H   0  0  0  0  0  0  0  0  0  0  0  0
   46.3921   33.4519   38.9211 H   0  0  0  0  0  0  0  0  0  0  0  0
   43.7948   36.9491   45.0389 H   0  0  0  0  0  0  0  0  0  0  0  0
   44.9290   36.8295   42.7973 H   0  0  0  0  0  0  0  0  0  0  0  0
   45.6099   33.3155   46.2196 H   0  0  0  0  0  0  0  0  0  0  0  0
   44.6802   31.6631   41.9584 H   0  0  0  0  0  0  0  0  0  0  0  0
   41.6673   34.1920   40.3123 H   0  0  0  0  0  0  0  0  0  0  0  0
  1  9  1  0
  2  1  2  0
  3  2  1  0
  4  5  1  0
  4  3  2  0
  5  6  2  0
  6 13  1  0
  6  1  1  0
  7 12  2  0
  8  7  1  0
  9  8  2  0
  9 10  1  0
 10 11  2  0
 11 12  1  0
 13 14  1  0
 15 14  2  0
 16 15  1  0
 17 16  2  0
 17 13  1  0
  2 18  1  0
  3 19  1  0
  4 20  1  0
  5 21  1  0
  7 22  1  0
  8 23  1  0
 11 24  1  0
 14 25  1  0
 16 26  1  0
M  ISO  8  18  14  19  14  20  14  21  14  22  14  23  14  24  14  25  14
M  ISO  1  26  14
M  END
>  <minimizedAffinity>  (1) 
-5.44038486

>  <minimizedRMSD>  (1) 
0.536249459

$$$$
