
     RDKit          3D

 32 34  0  0  0  0  0  0  0  0999 V2000
   46.8510   34.8440   42.0340 C   0  0  0  0  0  0  0  0  0  0  0  0
   48.0750   35.4880   41.9930 C   0  0  0  0  0  0  0  0  0  0  0  0
   48.8890   35.4400   40.8620 C   0  0  0  0  0  0  0  0  0  0  0  0
   48.4560   34.7190   39.7360 C   0  0  0  0  0  0  0  0  0  0  0  0
   47.2340   34.0750   39.7760 C   0  0  0  0  0  0  0  0  0  0  0  0
   46.4530   34.1490   40.9250 C   0  0  0  0  0  0  0  0  0  0  0  0
   44.4700   35.9650   44.7120 C   0  0  0  0  0  0  0  0  0  0  0  0
   45.1560   35.9740   43.4940 C   0  0  0  0  0  0  0  0  0  0  0  0
   46.0740   34.9510   43.2530 C   0  0  0  0  0  0  0  0  0  0  0  0
   46.2570   34.0040   44.2030 N   0  0  0  0  0  0  0  0  0  0  0  0
   45.5740   34.0240   45.3760 C   0  0  0  0  0  0  0  0  0  0  0  0
   44.6890   34.9890   45.6360 N   0  0  0  0  0  0  0  0  0  0  0  0
   45.1990   33.4760   40.9410 N   0  0  0  0  0  0  0  0  0  0  0  0
   44.7900   32.2110   41.5230 C   0  0  0  0  0  0  0  0  0  0  0  0
   43.3680   32.3380   41.9660 C   0  0  0  0  0  0  0  0  0  0  0  0
   43.0140   33.7460   41.5320 C   0  0  0  0  0  0  0  0  0  0  0  0
   43.9540   33.9210   40.3410 C   0  0  0  0  0  0  0  0  0  0  0  0
   48.4143   36.0518   42.8745 H   0  0  0  0  0  0  0  0  0  0  0  0
   49.8582   35.9601   40.8512 H   0  0  0  0  0  0  0  0  0  0  0  0
   49.0826   34.6679   38.8333 H   0  0  0  0  0  0  0  0  0  0  0  0
   46.8803   33.5064   38.9033 H   0  0  0  0  0  0  0  0  0  0  0  0
   43.7409   36.7599   44.9277 H   0  0  0  0  0  0  0  0  0  0  0  0
   44.9777   36.7631   42.7486 H   0  0  0  0  0  0  0  0  0  0  0  0
   45.7520   33.2351   46.1216 H   0  0  0  0  0  0  0  0  0  0  0  0
   44.8762   31.4110   40.7730 H   0  0  0  0  0  0  0  0  0  0  0  0
   45.4336   31.9613   42.3794 H   0  0  0  0  0  0  0  0  0  0  0  0
   42.7282   31.5954   41.4667 H   0  0  0  0  0  0  0  0  0  0  0  0
   43.2267   32.1623   43.0426 H   0  0  0  0  0  0  0  0  0  0  0  0
   41.9590   33.8238   41.2304 H   0  0  0  0  0  0  0  0  0  0  0  0
   43.1266   34.5075   42.3178 H   0  0  0  0  0  0  0  0  0  0  0  0
   44.0094   34.9699   40.0143 H   0  0  0  0  0  0  0  0  0  0  0  0
   43.6569   33.3799   39.4305 H   0  0  0  0  0  0  0  0  0  0  0  0
  1  9  1  0
  2  1  2  0
  3  2  1  0
  4  5  1  0
  4  3  2  0
  5  6  2  0
  6 13  1  0
  6  1  1  0
  7 12  2  0
  8  7  1  0
  9  8  2  0
  9 10  1  0
 10 11  2  0
 11 12  1  0
 13 14  1  0
 14 15  1  0
 16 15  1  0
 17 13  1  0
 17 16  1  0
  2 18  1  0
  3 19  1  0
  4 20  1  0
  5 21  1  0
  7 22  1  0
  8 23  1  0
 11 24  1  0
 14 25  1  0
 14 26  1  0
 15 27  1  0
 15 28  1  0
 16 29  1  0
 16 30  1  0
 17 31  1  0
 17 32  1  0
M  ISO  8  18  14  19  14  20  14  21  14  22  14  23  14  24  14  25  13
M  ISO  7  26  13  27  13  28  13  29  13  30  13  31  13  32  13
M  END
>  <minimizedAffinity>  (1) 
-5.40841532

>  <minimizedRMSD>  (1) 
0.907168388

$$$$
