
     RDKit          3D

 29 30  0  0  0  0  0  0  0  0999 V2000
   46.6650   34.8080   42.0470 C   0  0  0  0  0  0  0  0  0  0  0  0
   47.9420   35.2950   41.9790 C   0  0  0  0  0  0  0  0  0  0  0  0
   48.7280   35.1630   40.8330 C   0  0  0  0  0  0  0  0  0  0  0  0
   48.1790   34.5060   39.7120 C   0  0  0  0  0  0  0  0  0  0  0  0
   46.8890   34.0130   39.7730 C   0  0  0  0  0  0  0  0  0  0  0  0
   46.1520   34.1680   40.9280 C   0  0  0  0  0  0  0  0  0  0  0  0
   44.4510   36.1140   44.7810 C   0  0  0  0  0  0  0  0  0  0  0  0
   45.0960   36.0710   43.5300 C   0  0  0  0  0  0  0  0  0  0  0  0
   45.9310   34.9950   43.2870 C   0  0  0  0  0  0  0  0  0  0  0  0
   46.0790   34.0580   44.2440 N   0  0  0  0  0  0  0  0  0  0  0  0
   45.4450   34.1180   45.4480 C   0  0  0  0  0  0  0  0  0  0  0  0
   44.6360   35.1480   45.7020 N   0  0  0  0  0  0  0  0  0  0  0  0
   44.7680   33.6510   41.0260 C   0  0  0  0  0  0  0  0  0  0  0  0
   44.6060   32.6650   42.1750 C   0  0  0  0  0  0  0  0  0  0  0  0
   43.7780   34.7680   41.2980 C   0  0  0  0  0  0  0  0  0  0  0  0
   48.3631   35.8075   42.8565 H   0  0  0  0  0  0  0  0  0  0  0  0
   49.7525   35.5624   40.8047 H   0  0  0  0  0  0  0  0  0  0  0  0
   48.7740   34.3866   38.7945 H   0  0  0  0  0  0  0  0  0  0  0  0
   46.4523   33.4993   38.9039 H   0  0  0  0  0  0  0  0  0  0  0  0
   43.7809   36.9553   45.0116 H   0  0  0  0  0  0  0  0  0  0  0  0
   44.9425   36.8592   42.7782 H   0  0  0  0  0  0  0  0  0  0  0  0
   45.5977   33.3293   46.1994 H   0  0  0  0  0  0  0  0  0  0  0  0
   44.5722   33.1633   40.0596 H   0  0  0  0  0  0  0  0  0  0  0  0
   44.6939   33.1998   43.1322 H   0  0  0  0  0  0  0  0  0  0  0  0
   43.6173   32.1871   42.1114 H   0  0  0  0  0  0  0  0  0  0  0  0
   45.3898   31.8959   42.1114 H   0  0  0  0  0  0  0  0  0  0  0  0
   43.6621   34.8988   42.3840 H   0  0  0  0  0  0  0  0  0  0  0  0
   44.1492   35.7033   40.8536 H   0  0  0  0  0  0  0  0  0  0  0  0
   42.8049   34.5118   40.8536 H   0  0  0  0  0  0  0  0  0  0  0  0
  1  9  1  0
  2  1  2  0
  3  2  1  0
  4  5  1  0
  4  3  2  0
  5  6  2  0
  6 13  1  0
  6  1  1  0
  7 12  2  0
  8  7  1  0
  9  8  2  0
  9 10  1  0
 10 11  2  0
 11 12  1  0
 13 15  1  0
 13 14  1  0
  2 16  1  0
  3 17  1  0
  4 18  1  0
  5 19  1  0
  7 20  1  0
  8 21  1  0
 11 22  1  0
 13 23  1  0
 14 24  1  0
 14 25  1  0
 14 26  1  0
 15 27  1  0
 15 28  1  0
 15 29  1  0
M  ISO  8  16  14  17  14  18  14  19  14  20  14  21  14  22  14  23   8
M  ISO  6  24   8  25   8  26   8  27   8  28   8  29   8
M  END
>  <minimizedAffinity>  (1) 
-5.3162756

>  <minimizedRMSD>  (1) 
0.23435615

$$$$
