
     RDKit          3D

 39 41  0  0  0  0  0  0  0  0999 V2000
   46.6440   34.7950   42.0300 C   0  0  0  0  0  0  0  0  0  0  0  0
   47.9370   35.2570   41.9550 C   0  0  0  0  0  0  0  0  0  0  0  0
   48.7160   35.1380   40.8100 C   0  0  0  0  0  0  0  0  0  0  0  0
   48.1560   34.5200   39.6890 C   0  0  0  0  0  0  0  0  0  0  0  0
   46.8400   34.0390   39.7410 C   0  0  0  0  0  0  0  0  0  0  0  0
   46.1280   34.1910   40.9050 C   0  0  0  0  0  0  0  0  0  0  0  0
   44.4760   36.1260   44.7850 C   0  0  0  0  0  0  0  0  0  0  0  0
   45.1210   36.0690   43.5350 C   0  0  0  0  0  0  0  0  0  0  0  0
   45.9260   34.9740   43.2750 C   0  0  0  0  0  0  0  0  0  0  0  0
   46.0500   34.0300   44.2220 N   0  0  0  0  0  0  0  0  0  0  0  0
   45.4190   34.1060   45.4220 C   0  0  0  0  0  0  0  0  0  0  0  0
   44.6410   35.1470   45.6950 N   0  0  0  0  0  0  0  0  0  0  0  0
   44.7600   33.7010   40.9840 C   0  0  0  0  0  0  0  0  0  0  0  0
   44.5180   32.4750   41.1520 O   0  0  0  0  0  0  0  0  0  0  0  0
   43.6450   34.5140   40.8870 O   0  0  0  0  0  0  0  0  0  0  0  0
   42.4420   34.1270   40.2430 C   0  0  0  0  0  0  0  0  0  0  0  0
   41.4180   33.8780   41.2810 C   0  0  0  0  0  0  0  0  0  0  0  0
   40.0370   34.3490   41.0240 C   0  0  0  0  0  0  0  0  0  0  0  0
   39.9350   35.5950   40.1750 C   0  0  0  0  0  0  0  0  0  0  0  0
   40.6550   35.2420   38.8750 C   0  0  0  0  0  0  0  0  0  0  0  0
   42.1140   35.1770   39.2340 C   0  0  0  0  0  0  0  0  0  0  0  0
   48.3741   35.7421   42.8402 H   0  0  0  0  0  0  0  0  0  0  0  0
   49.7471   35.5206   40.7870 H   0  0  0  0  0  0  0  0  0  0  0  0
   48.7465   34.4110   38.7673 H   0  0  0  0  0  0  0  0  0  0  0  0
   46.3869   33.5495   38.8663 H   0  0  0  0  0  0  0  0  0  0  0  0
   43.8278   36.9826   45.0219 H   0  0  0  0  0  0  0  0  0  0  0  0
   44.9895   36.8678   42.7903 H   0  0  0  0  0  0  0  0  0  0  0  0
   45.5520   33.3070   46.1663 H   0  0  0  0  0  0  0  0  0  0  0  0
   42.5166   33.1834   39.6826 H   0  0  0  0  0  0  0  0  0  0  0  0
   41.3687   32.7903   41.4373 H   0  0  0  0  0  0  0  0  0  0  0  0
   41.7535   34.4703   42.1450 H   0  0  0  0  0  0  0  0  0  0  0  0
   39.4908   33.5423   40.5132 H   0  0  0  0  0  0  0  0  0  0  0  0
   39.6135   34.6099   42.0051 H   0  0  0  0  0  0  0  0  0  0  0  0
   38.8819   35.8451   39.9790 H   0  0  0  0  0  0  0  0  0  0  0  0
   40.3780   36.4718   40.6699 H   0  0  0  0  0  0  0  0  0  0  0  0
   40.4795   36.0173   38.1147 H   0  0  0  0  0  0  0  0  0  0  0  0
   40.2944   34.2931   38.4513 H   0  0  0  0  0  0  0  0  0  0  0  0
   42.6871   34.9687   38.3185 H   0  0  0  0  0  0  0  0  0  0  0  0
   42.3756   36.1458   39.6845 H   0  0  0  0  0  0  0  0  0  0  0  0
  1  9  1  0
  2  1  2  0
  3  2  1  0
  4  5  1  0
  4  3  2  0
  5  6  2  0
  6 13  1  0
  6  1  1  0
  7 12  2  0
  8  7  1  0
  9  8  2  0
  9 10  1  0
 10 11  2  0
 11 12  1  0
 13 14  2  0
 15 13  1  0
 16 15  1  0
 16 17  1  0
 18 17  1  0
 19 18  1  0
 20 21  1  0
 20 19  1  0
 21 16  1  0
  2 22  1  0
  3 23  1  0
  4 24  1  0
  5 25  1  0
  7 26  1  0
  8 27  1  0
 11 28  1  0
 16 29  1  0
 17 30  1  0
 17 31  1  0
 18 32  1  0
 18 33  1  0
 19 34  1  0
 19 35  1  0
 20 36  1  0
 20 37  1  0
 21 38  1  0
 21 39  1  0
M  ISO  8  22  14  23  14  24  14  25  14  26  14  27  14  28  14  29  13
M  ISO  8  30  13  31  13  32  13  33  13  34  13  35  13  36  13  37  13
M  ISO  2  38  13  39  13
M  END
>  <minimizedAffinity>  (1) 
-6.52325153

>  <minimizedRMSD>  (1) 
0.869294345

$$$$
