
     RDKit          3D

 31 33  0  0  0  0  0  0  0  0999 V2000
   46.7480   34.8030   41.9570 C   0  0  0  0  0  0  0  0  0  0  0  0
   48.0130   35.3590   41.8890 C   0  0  0  0  0  0  0  0  0  0  0  0
   48.8190   35.2630   40.7570 C   0  0  0  0  0  0  0  0  0  0  0  0
   48.3210   34.5700   39.6390 C   0  0  0  0  0  0  0  0  0  0  0  0
   47.0470   34.0050   39.6970 C   0  0  0  0  0  0  0  0  0  0  0  0
   46.3080   34.1410   40.8490 C   0  0  0  0  0  0  0  0  0  0  0  0
   44.4450   36.0730   44.6300 C   0  0  0  0  0  0  0  0  0  0  0  0
   45.1140   36.0220   43.3940 C   0  0  0  0  0  0  0  0  0  0  0  0
   46.0020   34.9650   43.1840 C   0  0  0  0  0  0  0  0  0  0  0  0
   46.1740   34.0570   44.1540 N   0  0  0  0  0  0  0  0  0  0  0  0
   45.5060   34.1400   45.3400 C   0  0  0  0  0  0  0  0  0  0  0  0
   44.6590   35.1310   45.5690 N   0  0  0  0  0  0  0  0  0  0  0  0
   44.9810   33.5550   40.9190 C   0  0  0  0  0  0  0  0  0  0  0  0
   44.7160   32.6690   41.7730 O   0  0  0  0  0  0  0  0  0  0  0  0
   43.9160   33.9060   40.0790 O   0  0  0  0  0  0  0  0  0  0  0  0
   42.6800   34.2300   40.6540 C   0  0  0  0  0  0  0  0  0  0  0  0
   42.3190   35.4060   41.3070 C   0  0  0  0  0  0  0  0  0  0  0  0
   41.0250   35.4760   41.7890 C   0  0  0  0  0  0  0  0  0  0  0  0
   40.2010   34.4490   41.6150 N   0  0  0  0  0  0  0  0  0  0  0  0
   40.5300   33.3030   40.9860 C   0  0  0  0  0  0  0  0  0  0  0  0
   41.7920   33.2260   40.5130 N   0  0  0  0  0  0  0  0  0  0  0  0
   48.3986   35.8997   42.7659 H   0  0  0  0  0  0  0  0  0  0  0  0
   49.8203   35.7180   40.7379 H   0  0  0  0  0  0  0  0  0  0  0  0
   48.9301   34.4745   38.7280 H   0  0  0  0  0  0  0  0  0  0  0  0
   46.6392   33.4585   38.8338 H   0  0  0  0  0  0  0  0  0  0  0  0
   43.7387   36.8917   44.8324 H   0  0  0  0  0  0  0  0  0  0  0  0
   44.9441   36.7863   42.6214 H   0  0  0  0  0  0  0  0  0  0  0  0
   45.6727   33.3761   46.1137 H   0  0  0  0  0  0  0  0  0  0  0  0
   43.0279   36.2376   41.4330 H   0  0  0  0  0  0  0  0  0  0  0  0
   40.6794   36.3785   42.3144 H   0  0  0  0  0  0  0  0  0  0  0  0
   39.8119   32.4786   40.8652 H   0  0  0  0  0  0  0  0  0  0  0  0
  1  9  1  0
  2  1  2  0
  3  2  1  0
  4  5  1  0
  4  3  2  0
  5  6  2  0
  6 13  1  0
  6  1  1  0
  7 12  2  0
  8  7  1  0
  9  8  2  0
  9 10  1  0
 10 11  2  0
 11 12  1  0
 13 14  2  0
 15 16  1  0
 15 13  1  0
 16 17  2  0
 17 18  1  0
 19 18  2  0
 20 19  1  0
 21 16  1  0
 21 20  2  0
  2 22  1  0
  3 23  1  0
  4 24  1  0
  5 25  1  0
  7 26  1  0
  8 27  1  0
 11 28  1  0
 17 29  1  0
 18 30  1  0
 20 31  1  0
M  ISO  8  22  14  23  14  24  14  25  14  26  14  27  14  28  14  29  14
M  ISO  2  30  14  31  14
M  END
>  <minimizedAffinity>  (1) 
-6.10697985

>  <minimizedRMSD>  (1) 
1.01484227

$$$$
