
     RDKit          3D

 30 32  0  0  0  0  0  0  0  0999 V2000
   46.7550   34.7700   41.9770 C   0  0  0  0  0  0  0  0  0  0  0  0
   47.9800   35.3900   41.8760 C   0  0  0  0  0  0  0  0  0  0  0  0
   48.7770   35.3070   40.7350 C   0  0  0  0  0  0  0  0  0  0  0  0
   48.3060   34.5570   39.6460 C   0  0  0  0  0  0  0  0  0  0  0  0
   47.0740   33.9290   39.7370 C   0  0  0  0  0  0  0  0  0  0  0  0
   46.3260   34.0450   40.8920 C   0  0  0  0  0  0  0  0  0  0  0  0
   44.4370   35.9930   44.6640 C   0  0  0  0  0  0  0  0  0  0  0  0
   45.0940   35.9570   43.4260 C   0  0  0  0  0  0  0  0  0  0  0  0
   46.0090   34.9240   43.2120 C   0  0  0  0  0  0  0  0  0  0  0  0
   46.2220   34.0130   44.1930 N   0  0  0  0  0  0  0  0  0  0  0  0
   45.5600   34.0880   45.3820 C   0  0  0  0  0  0  0  0  0  0  0  0
   44.6840   35.0670   45.6030 N   0  0  0  0  0  0  0  0  0  0  0  0
   45.0290   33.3850   40.9920 C   0  0  0  0  0  0  0  0  0  0  0  0
   44.8870   32.3940   41.7470 O   0  0  0  0  0  0  0  0  0  0  0  0
   43.9150   33.7980   40.2850 O   0  0  0  0  0  0  0  0  0  0  0  0
   40.7420   34.1300   41.8060 N   0  0  0  0  0  0  0  0  0  0  0  0
   41.7190   33.4060   41.2900 N   0  0  0  0  0  0  0  0  0  0  0  0
   42.7270   34.2070   40.8760 C   0  0  0  0  0  0  0  0  0  0  0  0
   42.2880   35.4960   41.1800 C   0  0  0  0  0  0  0  0  0  0  0  0
   41.0380   35.4460   41.7660 C   0  0  0  0  0  0  0  0  0  0  0  0
   48.3457   35.9760   42.7321 H   0  0  0  0  0  0  0  0  0  0  0  0
   49.7508   35.8166   40.6894 H   0  0  0  0  0  0  0  0  0  0  0  0
   48.9085   34.4687   38.7299 H   0  0  0  0  0  0  0  0  0  0  0  0
   46.6925   33.3391   38.8906 H   0  0  0  0  0  0  0  0  0  0  0  0
   43.7088   36.7917   44.8684 H   0  0  0  0  0  0  0  0  0  0  0  0
   44.8962   36.7138   42.6526 H   0  0  0  0  0  0  0  0  0  0  0  0
   45.7499   33.3367   46.1627 H   0  0  0  0  0  0  0  0  0  0  0  0
   39.8685   33.7409   42.1888 H   0  0  0  0  0  0  0  0  0  0  0  0
   42.8547   36.4178   40.9819 H   0  0  0  0  0  0  0  0  0  0  0  0
   40.4238   36.2873   42.1195 H   0  0  0  0  0  0  0  0  0  0  0  0
  1  9  1  0
  2  1  2  0
  3  2  1  0
  4  5  1  0
  4  3  2  0
  5  6  2  0
  6 13  1  0
  6  1  1  0
  7 12  2  0
  8  7  1  0
  9  8  2  0
  9 10  1  0
 10 11  2  0
 11 12  1  0
 13 14  2  0
 15 18  1  0
 15 13  1  0
 17 16  1  0
 18 19  1  0
 18 17  2  0
 19 20  2  0
 20 16  1  0
  2 21  1  0
  3 22  1  0
  4 23  1  0
  5 24  1  0
  7 25  1  0
  8 26  1  0
 11 27  1  0
 16 28  1  0
 19 29  1  0
 20 30  1  0
M  ISO  8  21  14  22  14  23  14  24  14  25  14  26  14  27  14  28   9
M  ISO  2  29  14  30  14
M  END
>  <minimizedAffinity>  (1) 
-6.00793457

>  <minimizedRMSD>  (1) 
0.820716023

$$$$
