
     RDKit          3D

 26 27  0  0  0  0  0  0  0  0999 V2000
   46.6660   34.7230   42.0690 C   0  0  0  0  0  0  0  0  0  0  0  0
   47.9040   35.3160   41.9500 C   0  0  0  0  0  0  0  0  0  0  0  0
   48.6680   35.2250   40.7910 C   0  0  0  0  0  0  0  0  0  0  0  0
   48.1590   34.5040   39.7050 C   0  0  0  0  0  0  0  0  0  0  0  0
   46.9110   33.9000   39.8080 C   0  0  0  0  0  0  0  0  0  0  0  0
   46.2010   34.0230   40.9780 C   0  0  0  0  0  0  0  0  0  0  0  0
   44.4480   35.9790   44.8140 C   0  0  0  0  0  0  0  0  0  0  0  0
   45.0780   35.9270   43.5740 C   0  0  0  0  0  0  0  0  0  0  0  0
   45.9570   34.8790   43.3190 C   0  0  0  0  0  0  0  0  0  0  0  0
   46.1610   33.9600   44.2810 N   0  0  0  0  0  0  0  0  0  0  0  0
   45.5270   34.0370   45.4920 C   0  0  0  0  0  0  0  0  0  0  0  0
   44.6890   35.0310   45.7430 N   0  0  0  0  0  0  0  0  0  0  0  0
   44.8950   33.4000   41.1060 C   0  0  0  0  0  0  0  0  0  0  0  0
   44.6980   32.4680   41.9220 O   0  0  0  0  0  0  0  0  0  0  0  0
   43.7780   33.7740   40.3530 O   0  0  0  0  0  0  0  0  0  0  0  0
   42.9560   34.8770   40.7180 C   0  0  0  0  0  0  0  0  0  0  0  0
   41.9130   34.9540   39.7970 F   0  0  0  0  0  0  0  0  0  0  0  0
   43.6850   36.0580   40.7240 F   0  0  0  0  0  0  0  0  0  0  0  0
   42.3870   34.7350   41.9650 F   0  0  0  0  0  0  0  0  0  0  0  0
   48.3034   35.8829   42.8039 H   0  0  0  0  0  0  0  0  0  0  0  0
   49.6532   35.7104   40.7294 H   0  0  0  0  0  0  0  0  0  0  0  0
   48.7422   34.4158   38.7765 H   0  0  0  0  0  0  0  0  0  0  0  0
   46.4969   33.3304   38.9629 H   0  0  0  0  0  0  0  0  0  0  0  0
   43.7491   36.7984   45.0379 H   0  0  0  0  0  0  0  0  0  0  0  0
   44.8853   36.6972   42.8126 H   0  0  0  0  0  0  0  0  0  0  0  0
   45.7143   33.2708   46.2587 H   0  0  0  0  0  0  0  0  0  0  0  0
  1  9  1  0
  2  1  2  0
  3  2  1  0
  4  5  1  0
  4  3  2  0
  5  6  2  0
  6 13  1  0
  6  1  1  0
  7 12  2  0
  8  7  1  0
  9  8  2  0
  9 10  1  0
 10 11  2  0
 11 12  1  0
 13 14  2  0
 15 16  1  0
 15 13  1  0
 16 18  1  0
 16 19  1  0
 17 16  1  0
  2 20  1  0
  3 21  1  0
  4 22  1  0
  5 23  1  0
  7 24  1  0
  8 25  1  0
 11 26  1  0
M  ISO  7  20  14  21  14  22  14  23  14  24  14  25  14  26  14
M  END
>  <minimizedAffinity>  (1) 
-5.59807444

>  <minimizedRMSD>  (1) 
0.95697391

$$$$
