
     RDKit          3D

 27 28  0  0  0  0  0  0  0  0999 V2000
   46.6070   34.7870   42.0870 C   0  0  0  0  0  0  0  0  0  0  0  0
   47.9160   35.1920   42.0130 C   0  0  0  0  0  0  0  0  0  0  0  0
   48.6950   35.0410   40.8690 C   0  0  0  0  0  0  0  0  0  0  0  0
   48.1080   34.4470   39.7390 C   0  0  0  0  0  0  0  0  0  0  0  0
   46.7760   34.0290   39.7950 C   0  0  0  0  0  0  0  0  0  0  0  0
   46.0640   34.2090   40.9590 C   0  0  0  0  0  0  0  0  0  0  0  0
   44.4680   36.1990   44.8230 C   0  0  0  0  0  0  0  0  0  0  0  0
   45.1070   36.1170   43.5810 C   0  0  0  0  0  0  0  0  0  0  0  0
   45.8970   34.9930   43.3220 C   0  0  0  0  0  0  0  0  0  0  0  0
   46.0020   34.0510   44.2770 N   0  0  0  0  0  0  0  0  0  0  0  0
   45.3710   34.1540   45.4770 C   0  0  0  0  0  0  0  0  0  0  0  0
   44.6140   35.2130   45.7470 N   0  0  0  0  0  0  0  0  0  0  0  0
   44.6830   33.7790   41.0290 C   0  0  0  0  0  0  0  0  0  0  0  0
   44.3860   32.6610   41.5180 O   0  0  0  0  0  0  0  0  0  0  0  0
   43.6010   34.5440   40.5760 O   0  0  0  0  0  0  0  0  0  0  0  0
   42.3630   34.5070   41.1890 C   0  0  0  0  0  0  0  0  0  0  0  0
   42.0040   35.3730   42.2600 N   0  0  0  0  0  0  0  0  0  0  0  0
   41.4850   33.6860   40.8170 O   0  0  0  0  0  0  0  0  0  0  0  0
   48.3713   35.6579   42.8993 H   0  0  0  0  0  0  0  0  0  0  0  0
   49.7420   35.3777   40.8503 H   0  0  0  0  0  0  0  0  0  0  0  0
   48.6928   34.3121   38.8171 H   0  0  0  0  0  0  0  0  0  0  0  0
   46.3020   33.5616   38.9193 H   0  0  0  0  0  0  0  0  0  0  0  0
   43.8399   37.0719   45.0544 H   0  0  0  0  0  0  0  0  0  0  0  0
   44.9913   36.9131   42.8308 H   0  0  0  0  0  0  0  0  0  0  0  0
   45.4873   33.3580   46.2273 H   0  0  0  0  0  0  0  0  0  0  0  0
   41.0678   35.3065   42.6844 H   0  0  0  0  0  0  0  0  0  0  0  0
   42.6804   36.0661   42.6107 H   0  0  0  0  0  0  0  0  0  0  0  0
  1  9  1  0
  2  1  2  0
  3  2  1  0
  4  5  1  0
  4  3  2  0
  5  6  2  0
  6 13  1  0
  6  1  1  0
  7 12  2  0
  8  7  1  0
  9  8  2  0
  9 10  1  0
 10 11  2  0
 11 12  1  0
 13 14  2  0
 15 13  1  0
 15 16  1  0
 16 17  1  0
 18 16  2  0
  2 19  1  0
  3 20  1  0
  4 21  1  0
  5 22  1  0
  7 23  1  0
  8 24  1  0
 11 25  1  0
 17 26  1  0
 17 27  1  0
M  ISO  7  19  14  20  14  21  14  22  14  23  14  24  14  25  14
M  END
>  <minimizedAffinity>  (1) 
-5.55259466

>  <minimizedRMSD>  (1) 
0.61710757

$$$$
