
     RDKit          3D

 25 26  0  0  0  0  0  0  0  0999 V2000
   46.7180   34.8240   42.0220 C   0  0  0  0  0  0  0  0  0  0  0  0
   47.9950   35.3320   41.9550 C   0  0  0  0  0  0  0  0  0  0  0  0
   48.7910   35.2210   40.8240 C   0  0  0  0  0  0  0  0  0  0  0  0
   48.2710   34.5590   39.6920 C   0  0  0  0  0  0  0  0  0  0  0  0
   46.9770   34.0370   39.7420 C   0  0  0  0  0  0  0  0  0  0  0  0
   46.2350   34.1830   40.9030 C   0  0  0  0  0  0  0  0  0  0  0  0
   44.4610   36.1070   44.7180 C   0  0  0  0  0  0  0  0  0  0  0  0
   45.1240   36.0600   43.4960 C   0  0  0  0  0  0  0  0  0  0  0  0
   45.9730   34.9920   43.2410 C   0  0  0  0  0  0  0  0  0  0  0  0
   46.1130   34.0440   44.2030 N   0  0  0  0  0  0  0  0  0  0  0  0
   45.4490   34.1210   45.3860 C   0  0  0  0  0  0  0  0  0  0  0  0
   44.6380   35.1360   45.6360 N   0  0  0  0  0  0  0  0  0  0  0  0
   44.8940   33.6430   40.9570 C   0  0  0  0  0  0  0  0  0  0  0  0
   44.6860   32.4820   41.3690 O   0  0  0  0  0  0  0  0  0  0  0  0
   43.7520   34.3570   40.5670 O   0  0  0  0  0  0  0  0  0  0  0  0
   42.5990   34.2990   41.3530 C   0  0  0  0  0  0  0  0  0  0  0  0
   42.0610   35.3670   41.7960 O   0  0  0  0  0  0  0  0  0  0  0  0
   48.4026   35.8486   42.8365 H   0  0  0  0  0  0  0  0  0  0  0  0
   49.8076   35.6410   40.8103 H   0  0  0  0  0  0  0  0  0  0  0  0
   48.8780   34.4553   38.7805 H   0  0  0  0  0  0  0  0  0  0  0  0
   46.5521   33.5166   38.8710 H   0  0  0  0  0  0  0  0  0  0  0  0
   43.7846   36.9462   44.9377 H   0  0  0  0  0  0  0  0  0  0  0  0
   44.9785   36.8527   42.7474 H   0  0  0  0  0  0  0  0  0  0  0  0
   45.5868   33.3335   46.1415 H   0  0  0  0  0  0  0  0  0  0  0  0
   42.1509   33.3233   41.5921 H   0  0  0  0  0  0  0  0  0  0  0  0
  1  9  1  0
  2  1  2  0
  3  2  1  0
  4  5  1  0
  4  3  2  0
  5  6  2  0
  6 13  1  0
  6  1  1  0
  7 12  2  0
  8  7  1  0
  9  8  2  0
  9 10  1  0
 10 11  2  0
 11 12  1  0
 13 14  2  0
 15 13  1  0
 15 16  1  0
 16 17  2  0
  2 18  1  0
  3 19  1  0
  4 20  1  0
  5 21  1  0
  7 22  1  0
  8 23  1  0
 11 24  1  0
 16 25  1  0
M  ISO  8  18  14  19  14  20  14  21  14  22  14  23  14  24  14  25   6
M  END
>  <minimizedAffinity>  (1) 
-5.11921406

>  <minimizedRMSD>  (1) 
0.703267872

$$$$
