
     RDKit          3D

 24 25  0  0  0  0  0  0  0  0999 V2000
   46.0680   32.9020   42.7720 C   0  0  0  0  0  0  0  0  0  0  0  0
   46.8010   34.1080   42.8840 C   0  0  0  0  0  0  0  0  0  0  0  0
   46.1010   35.2570   42.5430 C   0  0  0  0  0  0  0  0  0  0  0  0
   44.8070   35.1870   42.1370 N   0  0  0  0  0  0  0  0  0  0  0  0
   44.1510   33.9960   42.0490 C   0  0  0  0  0  0  0  0  0  0  0  0
   44.8070   32.8780   42.3700 N   0  0  0  0  0  0  0  0  0  0  0  0
   42.8100   34.1620   41.6030 N   0  0  0  0  0  0  0  0  0  0  0  0
   41.8280   33.3610   41.1880 N   0  0  0  0  0  0  0  0  0  0  0  0
   40.7460   34.0830   40.8850 C   0  0  0  0  0  0  0  0  0  0  0  0
   41.0200   35.4350   41.1100 C   0  0  0  0  0  0  0  0  0  0  0  0
   42.3410   35.4380   41.5640 C   0  0  0  0  0  0  0  0  0  0  0  0
   48.1630   34.1510   43.3150 N   0  0  0  0  0  0  0  0  0  0  0  0
   49.2590   34.4440   42.4640 C   0  0  0  0  0  0  0  0  0  0  0  0
   49.1840   33.9270   41.2500 N   0  0  0  0  0  0  0  0  0  0  0  0
   50.2970   35.2600   43.0350 N   0  0  0  0  0  0  0  0  0  0  0  0
   49.9330   34.1010   40.5580 H   0  0  0  0  0  0  0  0  0  0  0  0
   46.5628   31.9534   43.0275 H   0  0  0  0  0  0  0  0  0  0  0  0
   46.6001   36.2355   42.6023 H   0  0  0  0  0  0  0  0  0  0  0  0
   39.7916   33.6782   40.5171 H   0  0  0  0  0  0  0  0  0  0  0  0
   40.3512   36.2960   40.9637 H   0  0  0  0  0  0  0  0  0  0  0  0
   42.9134   36.3339   41.8463 H   0  0  0  0  0  0  0  0  0  0  0  0
   48.3612   33.9568   44.3069 H   0  0  0  0  0  0  0  0  0  0  0  0
   51.1225   35.5114   42.4726 H   0  0  0  0  0  0  0  0  0  0  0  0
   50.2148   35.5929   44.0063 H   0  0  0  0  0  0  0  0  0  0  0  0
  1  2  2  0
  2 12  1  0
  3  2  1  0
  4  3  2  0
  5  4  1  0
  5  6  2  0
  6  1  1  0
  7  5  1  0
  8  7  1  0
  9 10  1  0
  9  8  2  0
 10 11  2  0
 11  7  1  0
 13 15  1  0
 13 12  1  0
 14 13  2  0
 16 14  1  0
  1 17  1  0
  3 18  1  0
  9 19  1  0
 10 20  1  0
 11 21  1  0
 12 22  1  0
 15 23  1  0
 15 24  1  0
M  ISO  5  17  14  18  14  19  14  20  14  21  14
M  END
>  <minimizedAffinity>  (1) 
-5.12873554

>  <minimizedRMSD>  (1) 
8.75841808

$$$$
