
     RDKit          3D

 19 19  0  0  0  0  0  0  0  0999 V2000
   47.0380   35.0890   42.1730 C   0  0  0  0  0  0  0  0  0  0  0  0
   47.8180   34.0150   42.6480 C   0  0  0  0  0  0  0  0  0  0  0  0
   47.3720   33.4650   43.8530 C   0  0  0  0  0  0  0  0  0  0  0  0
   46.2710   33.9580   44.4800 N   0  0  0  0  0  0  0  0  0  0  0  0
   45.5650   34.9990   43.9640 C   0  0  0  0  0  0  0  0  0  0  0  0
   45.9690   35.5380   42.8190 N   0  0  0  0  0  0  0  0  0  0  0  0
   48.9630   33.5200   41.9740 N   0  0  0  0  0  0  0  0  0  0  0  0
   50.2960   33.7560   42.3760 C   0  0  0  0  0  0  0  0  0  0  0  0
   50.5410   34.9640   42.8430 N   0  0  0  0  0  0  0  0  0  0  0  0
   51.2040   32.6520   42.2230 N   0  0  0  0  0  0  0  0  0  0  0  0
   51.4880   35.2330   43.1770 H   0  0  0  0  0  0  0  0  0  0  0  0
   44.4020   35.4440   44.7220 C   0  0  0  0  0  0  0  0  0  0  0  0
   44.4390   35.3660   45.9660 O   0  0  0  0  0  0  0  0  0  0  0  0
   47.3269   35.5744   41.2291 H   0  0  0  0  0  0  0  0  0  0  0  0
   47.9191   32.6219   44.3001 H   0  0  0  0  0  0  0  0  0  0  0  0
   48.8118   32.9475   41.1312 H   0  0  0  0  0  0  0  0  0  0  0  0
   52.1915   32.7556   42.4968 H   0  0  0  0  0  0  0  0  0  0  0  0
   50.8670   31.7574   41.8396 H   0  0  0  0  0  0  0  0  0  0  0  0
   43.5129   35.8392   44.2088 H   0  0  0  0  0  0  0  0  0  0  0  0
  1  2  2  0
  1  6  1  0
  2  3  1  0
  3  4  2  0
  5  4  1  0
  5 12  1  0
  6  5  2  0
  7  8  1  0
  7  2  1  0
  8  9  2  0
  9 11  1  0
 10  8  1  0
 12 13  2  0
  1 14  1  0
  3 15  1  0
  7 16  1  0
 10 17  1  0
 10 18  1  0
 12 19  1  0
M  ISO  3  14  14  15  14  19   6
M  END
>  <minimizedAffinity>  (1) 
-4.48266077

>  <minimizedRMSD>  (1) 
6.33705807

$$$$
