
     RDKit          3D

 31 33  0  0  0  0  0  0  0  0999 V2000
   48.3000   30.3770   47.4340 C   0  0  0  0  0  0  0  0  0  0  0  0
   47.6440   30.9380   48.5320 C   0  0  0  0  0  0  0  0  0  0  0  0
   46.4250   31.5350   48.2290 C   0  0  0  0  0  0  0  0  0  0  0  0
   45.9400   31.5540   46.9550 N   0  0  0  0  0  0  0  0  0  0  0  0
   46.6320   30.9850   45.9260 C   0  0  0  0  0  0  0  0  0  0  0  0
   47.8230   30.3980   46.1920 N   0  0  0  0  0  0  0  0  0  0  0  0
   46.0810   31.0320   44.6150 N   0  0  0  0  0  0  0  0  0  0  0  0
   46.0270   29.9790   43.7740 C   0  0  0  0  0  0  0  0  0  0  0  0
   45.4360   30.4470   42.6600 N   0  0  0  0  0  0  0  0  0  0  0  0
   45.1390   31.7610   42.8220 C   0  0  0  0  0  0  0  0  0  0  0  0
   44.5240   32.6830   41.9520 C   0  0  0  0  0  0  0  0  0  0  0  0
   44.3790   33.9230   42.4290 N   0  0  0  0  0  0  0  0  0  0  0  0
   44.7950   34.2570   43.6610 C   0  0  0  0  0  0  0  0  0  0  0  0
   45.3900   33.3940   44.5240 N   0  0  0  0  0  0  0  0  0  0  0  0
   45.5540   32.1470   44.0880 C   0  0  0  0  0  0  0  0  0  0  0  0
   48.2060   30.8890   49.8190 N   0  0  0  0  0  0  0  0  0  0  0  0
   49.4010   30.2310   50.1830 C   0  0  0  0  0  0  0  0  0  0  0  0
   49.6160   29.0810   49.5790 N   0  0  0  0  0  0  0  0  0  0  0  0
   50.2070   30.9300   51.1740 N   0  0  0  0  0  0  0  0  0  0  0  0
   50.5200   28.5830   49.7430 H   0  0  0  0  0  0  0  0  0  0  0  0
   44.6040   35.6560   44.1340 C   0  0  0  0  0  0  0  0  0  0  0  0
   45.4690   36.5210   43.4910 F   0  0  0  0  0  0  0  0  0  0  0  0
   43.2890   35.9800   43.8890 F   0  0  0  0  0  0  0  0  0  0  0  0
   44.8200   35.7760   45.4840 F   0  0  0  0  0  0  0  0  0  0  0  0
   49.2701   29.8880   47.6065 H   0  0  0  0  0  0  0  0  0  0  0  0
   45.8395   32.0020   49.0347 H   0  0  0  0  0  0  0  0  0  0  0  0
   46.3887   28.9568   43.9593 H   0  0  0  0  0  0  0  0  0  0  0  0
   44.1849   32.4003   40.9445 H   0  0  0  0  0  0  0  0  0  0  0  0
   47.6977   31.3799   50.5683 H   0  0  0  0  0  0  0  0  0  0  0  0
   51.0954   30.5208   51.4968 H   0  0  0  0  0  0  0  0  0  0  0  0
   49.8887   31.8336   51.5522 H   0  0  0  0  0  0  0  0  0  0  0  0
  1  2  2  0
  2 16  1  0
  3  2  1  0
  4  3  2  0
  5  6  2  0
  5  4  1  0
  6  1  1  0
  7  5  1  0
  8  7  1  0
  9 10  1  0
  9  8  2  0
 10 15  2  0
 11 12  2  0
 11 10  1  0
 12 13  1  0
 13 21  1  0
 13 14  2  0
 15 14  1  0
 15  7  1  0
 16 17  1  0
 17 19  1  0
 18 20  1  0
 18 17  2  0
 21 24  1  0
 22 21  1  0
 23 21  1  0
  1 25  1  0
  3 26  1  0
  8 27  1  0
 11 28  1  0
 16 29  1  0
 19 30  1  0
 19 31  1  0
M  ISO  4  25  14  26  14  27  14  28  14
M  END
>  <minimizedAffinity>  (1) 
-5.81273127

>  <minimizedRMSD>  (1) 
1.45085168

$$$$
