
     RDKit          3D

 34 37  0  0  0  0  0  0  0  0999 V2000
   49.2870   30.1310   48.1800 C   0  0  0  0  0  0  0  0  0  0  0  0
   48.9400   31.1660   49.0540 C   0  0  0  0  0  0  0  0  0  0  0  0
   47.7310   31.7900   48.7740 C   0  0  0  0  0  0  0  0  0  0  0  0
   46.9570   31.4040   47.7170 N   0  0  0  0  0  0  0  0  0  0  0  0
   47.3480   30.3940   46.9060 C   0  0  0  0  0  0  0  0  0  0  0  0
   48.5210   29.7650   47.1530 N   0  0  0  0  0  0  0  0  0  0  0  0
   46.5290   30.0110   45.7990 N   0  0  0  0  0  0  0  0  0  0  0  0
   46.2240   28.7650   45.4370 C   0  0  0  0  0  0  0  0  0  0  0  0
   45.4410   28.8840   44.3430 N   0  0  0  0  0  0  0  0  0  0  0  0
   45.2720   30.1950   44.0430 C   0  0  0  0  0  0  0  0  0  0  0  0
   44.5510   30.7760   43.0070 C   0  0  0  0  0  0  0  0  0  0  0  0
   44.5870   32.1320   42.9870 N   0  0  0  0  0  0  0  0  0  0  0  0
   45.2730   32.8340   43.9050 C   0  0  0  0  0  0  0  0  0  0  0  0
   45.9780   32.2800   44.9170 N   0  0  0  0  0  0  0  0  0  0  0  0
   45.9710   30.9320   44.9770 C   0  0  0  0  0  0  0  0  0  0  0  0
   45.2510   34.2680   43.8000 N   0  0  0  0  0  0  0  0  0  0  0  0
   45.9430   35.0290   42.9340 C   0  0  0  0  0  0  0  0  0  0  0  0
   45.6360   36.3370   43.1680 N   0  0  0  0  0  0  0  0  0  0  0  0
   44.7400   36.3790   44.1960 C   0  0  0  0  0  0  0  0  0  0  0  0
   44.5320   35.0980   44.5530 N   0  0  0  0  0  0  0  0  0  0  0  0
   49.7790   31.5290   50.1220 N   0  0  0  0  0  0  0  0  0  0  0  0
   50.4640   30.6440   50.9860 C   0  0  0  0  0  0  0  0  0  0  0  0
   49.7840   29.5490   51.3150 N   0  0  0  0  0  0  0  0  0  0  0  0
   51.7990   31.0840   51.3670 N   0  0  0  0  0  0  0  0  0  0  0  0
   50.2880   28.8130   51.8610 H   0  0  0  0  0  0  0  0  0  0  0  0
   50.2333   29.5958   48.3476 H   0  0  0  0  0  0  0  0  0  0  0  0
   47.3893   32.6136   49.4181 H   0  0  0  0  0  0  0  0  0  0  0  0
   46.5435   27.8336   45.9273 H   0  0  0  0  0  0  0  0  0  0  0  0
   43.9962   30.1847   42.2637 H   0  0  0  0  0  0  0  0  0  0  0  0
   46.6390   34.6591   42.1666 H   0  0  0  0  0  0  0  0  0  0  0  0
   44.2822   37.2747   44.6411 H   0  0  0  0  0  0  0  0  0  0  0  0
   49.9070   32.5369   50.2914 H   0  0  0  0  0  0  0  0  0  0  0  0
   52.3732   30.5031   51.9944 H   0  0  0  0  0  0  0  0  0  0  0  0
   52.1689   31.9761   51.0090 H   0  0  0  0  0  0  0  0  0  0  0  0
  1  2  2  0
  2 21  1  0
  3  2  1  0
  4  3  2  0
  5  6  2  0
  5  4  1  0
  6  1  1  0
  7  5  1  0
  8  7  1  0
  9  8  2  0
 10  9  1  0
 10 15  2  0
 11 10  1  0
 12 11  2  0
 12 13  1  0
 13 14  2  0
 14 15  1  0
 15  7  1  0
 16 13  1  0
 16 20  1  0
 17 18  2  0
 17 16  1  0
 18 19  1  0
 19 20  2  0
 21 22  1  0
 22 23  2  0
 22 24  1  0
 23 25  1  0
  1 26  1  0
  3 27  1  0
  8 28  1  0
 11 29  1  0
 17 30  1  0
 19 31  1  0
 21 32  1  0
 24 33  1  0
 24 34  1  0
M  ISO  6  26  14  27  14  28  14  29  14  30  14  31  14
M  END
>  <minimizedAffinity>  (1) 
-5.63923836

>  <minimizedRMSD>  (1) 
2.89193273

$$$$
