
     RDKit          3D

 40 43  0  0  0  0  0  0  0  0999 V2000
   46.3070   33.3120   46.1530 C   0  0  0  0  0  0  0  0  0  0  0  0
   45.7180   33.2360   44.8900 C   0  0  0  0  0  0  0  0  0  0  0  0
   45.9280   32.0340   44.2330 C   0  0  0  0  0  0  0  0  0  0  0  0
   46.6560   31.0280   44.8020 N   0  0  0  0  0  0  0  0  0  0  0  0
   47.2030   31.1680   46.0430 C   0  0  0  0  0  0  0  0  0  0  0  0
   47.0140   32.3310   46.7080 N   0  0  0  0  0  0  0  0  0  0  0  0
   47.9550   30.0910   46.5950 N   0  0  0  0  0  0  0  0  0  0  0  0
   47.8250   29.6370   47.8560 C   0  0  0  0  0  0  0  0  0  0  0  0
   48.7150   28.6260   47.9510 N   0  0  0  0  0  0  0  0  0  0  0  0
   49.3730   28.4710   46.7730 C   0  0  0  0  0  0  0  0  0  0  0  0
   50.3700   27.5640   46.4050 C   0  0  0  0  0  0  0  0  0  0  0  0
   50.8140   27.6860   45.1360 N   0  0  0  0  0  0  0  0  0  0  0  0
   50.3160   28.6130   44.3130 C   0  0  0  0  0  0  0  0  0  0  0  0
   49.3510   29.5040   44.6380 N   0  0  0  0  0  0  0  0  0  0  0  0
   48.8780   29.4180   45.9000 C   0  0  0  0  0  0  0  0  0  0  0  0
   50.8200   28.6990   42.9830 N   0  0  0  0  0  0  0  0  0  0  0  0
   52.0360   28.1100   42.4080 C   0  0  0  0  0  0  0  0  0  0  0  0
   52.5790   29.2980   41.6450 C   0  0  0  0  0  0  0  0  0  0  0  0
   51.3340   29.7590   40.9160 C   0  0  0  0  0  0  0  0  0  0  0  0
   50.2130   29.4180   41.8620 C   0  0  0  0  0  0  0  0  0  0  0  0
   44.9850   34.3160   44.3680 N   0  0  0  0  0  0  0  0  0  0  0  0
   44.5750   35.4690   45.0670 C   0  0  0  0  0  0  0  0  0  0  0  0
   44.2200   35.2850   46.3140 N   0  0  0  0  0  0  0  0  0  0  0  0
   44.6150   36.6860   44.2720 N   0  0  0  0  0  0  0  0  0  0  0  0
   43.9960   36.1110   46.9110 H   0  0  0  0  0  0  0  0  0  0  0  0
   46.1785   34.2421   46.7260 H   0  0  0  0  0  0  0  0  0  0  0  0
   45.4988   31.8868   43.2309 H   0  0  0  0  0  0  0  0  0  0  0  0
   47.1442   30.0078   48.6364 H   0  0  0  0  0  0  0  0  0  0  0  0
   50.7641   26.8063   47.0982 H   0  0  0  0  0  0  0  0  0  0  0  0
   52.7341   27.7747   43.1892 H   0  0  0  0  0  0  0  0  0  0  0  0
   51.8671   27.2101   41.7983 H   0  0  0  0  0  0  0  0  0  0  0  0
   52.9619   30.0745   42.3236 H   0  0  0  0  0  0  0  0  0  0  0  0
   53.4319   29.0676   40.9897 H   0  0  0  0  0  0  0  0  0  0  0  0
   51.3701   30.8419   40.7261 H   0  0  0  0  0  0  0  0  0  0  0  0
   51.2180   29.2823   39.9315 H   0  0  0  0  0  0  0  0  0  0  0  0
   49.7246   30.3365   42.2194 H   0  0  0  0  0  0  0  0  0  0  0  0
   49.4455   28.8060   41.3655 H   0  0  0  0  0  0  0  0  0  0  0  0
   44.7209   34.2588   43.3741 H   0  0  0  0  0  0  0  0  0  0  0  0
   44.3344   37.5842   44.6908 H   0  0  0  0  0  0  0  0  0  0  0  0
   44.9240   36.6498   43.2901 H   0  0  0  0  0  0  0  0  0  0  0  0
  1  6  2  0
  2  1  1  0
  3  4  1  0
  3  2  2  0
  4  5  2  0
  5  7  1  0
  5  6  1  0
  7  8  1  0
  8  9  2  0
 10  9  1  0
 11 10  2  0
 12 11  1  0
 13 14  1  0
 13 12  2  0
 14 15  2  0
 15  7  1  0
 15 10  1  0
 16 13  1  0
 17 16  1  0
 18 17  1  0
 19 18  1  0
 19 20  1  0
 20 16  1  0
 21  2  1  0
 21 22  1  0
 22 23  2  0
 23 25  1  0
 24 22  1  0
  1 26  1  0
  3 27  1  0
  8 28  1  0
 11 29  1  0
 17 30  1  0
 17 31  1  0
 18 32  1  0
 18 33  1  0
 19 34  1  0
 19 35  1  0
 20 36  1  0
 20 37  1  0
 21 38  1  0
 24 39  1  0
 24 40  1  0
M  ISO  8  26  14  27  14  28  14  29  14  30  13  31  13  32  13  33  13
M  ISO  4  34  13  35  13  36  13  37  13
M  END
>  <minimizedAffinity>  (1) 
-5.43534708

>  <minimizedRMSD>  (1) 
8.14182091

$$$$
