
     RDKit          3D

 17 17  0  0  0  0  0  0  0  0999 V2000
   44.9890   32.1400   47.8830 C   0  0  0  0  0  0  0  0  0  0  0  0
   45.8070   32.6860   46.8560 C   0  0  0  0  0  0  0  0  0  0  0  0
   47.1740   32.5910   47.0850 C   0  0  0  0  0  0  0  0  0  0  0  0
   47.6510   32.0130   48.2160 N   0  0  0  0  0  0  0  0  0  0  0  0
   46.8230   31.5100   49.1610 C   0  0  0  0  0  0  0  0  0  0  0  0
   45.5000   31.5810   48.9790 N   0  0  0  0  0  0  0  0  0  0  0  0
   45.2280   33.2690   45.6990 N   0  0  0  0  0  0  0  0  0  0  0  0
   44.9650   34.6500   45.5390 C   0  0  0  0  0  0  0  0  0  0  0  0
   44.4570   35.2280   46.6000 N   0  0  0  0  0  0  0  0  0  0  0  0
   45.2750   35.2520   44.2660 N   0  0  0  0  0  0  0  0  0  0  0  0
   44.2180   36.2410   46.6130 H   0  0  0  0  0  0  0  0  0  0  0  0
   43.8957   32.1806   47.7685 H   0  0  0  0  0  0  0  0  0  0  0  0
   47.8784   32.9894   46.3400 H   0  0  0  0  0  0  0  0  0  0  0  0
   47.2343   31.0472   50.0702 H   0  0  0  0  0  0  0  0  0  0  0  0
   44.9816   32.6419   44.9199 H   0  0  0  0  0  0  0  0  0  0  0  0
   45.0968   36.2549   44.1136 H   0  0  0  0  0  0  0  0  0  0  0  0
   45.6747   34.6791   43.5091 H   0  0  0  0  0  0  0  0  0  0  0  0
  1  6  2  0
  2  3  2  0
  2  1  1  0
  3  4  1  0
  4  5  2  0
  6  5  1  0
  7  2  1  0
  8  7  1  0
  8  9  2  0
  9 11  1  0
 10  8  1  0
  1 12  1  0
  3 13  1  0
  5 14  1  0
  7 15  1  0
 10 16  1  0
 10 17  1  0
M  ISO  3  12  14  13  14  14  14
M  END
>  <minimizedAffinity>  (1) 
-3.92293859

>  <minimizedRMSD>  (1) 
4.71229076

$$$$
