
     RDKit          3D

 32 35  0  0  0  0  0  0  0  0999 V2000
   46.9300   34.8020   41.9890 C   0  0  0  0  0  0  0  0  0  0  0  0
   48.1540   35.4230   41.9360 C   0  0  0  0  0  0  0  0  0  0  0  0
   48.8230   35.2780   40.7390 C   0  0  0  0  0  0  0  0  0  0  0  0
   48.3130   34.5650   39.6660 C   0  0  0  0  0  0  0  0  0  0  0  0
   47.0560   33.9620   39.8040 C   0  0  0  0  0  0  0  0  0  0  0  0
   46.4160   34.1110   40.9750 N   0  0  0  0  0  0  0  0  0  0  0  0
   46.4090   33.2020   38.7890 N   0  0  0  0  0  0  0  0  0  0  0  0
   45.2110   32.5870   38.8700 C   0  0  0  0  0  0  0  0  0  0  0  0
   45.0100   31.9900   37.6660 N   0  0  0  0  0  0  0  0  0  0  0  0
   46.0600   32.2390   36.8730 C   0  0  0  0  0  0  0  0  0  0  0  0
   46.3910   31.8920   35.5760 C   0  0  0  0  0  0  0  0  0  0  0  0
   47.5560   32.2850   34.9890 N   0  0  0  0  0  0  0  0  0  0  0  0
   48.4150   33.0430   35.7080 C   0  0  0  0  0  0  0  0  0  0  0  0
   48.1080   33.3890   36.9790 N   0  0  0  0  0  0  0  0  0  0  0  0
   46.9630   33.0100   37.5760 C   0  0  0  0  0  0  0  0  0  0  0  0
   44.4900   36.0320   44.5530 C   0  0  0  0  0  0  0  0  0  0  0  0
   45.2390   35.9610   43.3610 C   0  0  0  0  0  0  0  0  0  0  0  0
   46.1420   34.8960   43.2180 C   0  0  0  0  0  0  0  0  0  0  0  0
   46.2610   33.9860   44.2190 N   0  0  0  0  0  0  0  0  0  0  0  0
   45.5190   34.0960   45.3470 C   0  0  0  0  0  0  0  0  0  0  0  0
   44.6510   35.0940   45.5170 N   0  0  0  0  0  0  0  0  0  0  0  0
   45.5270   31.1100   34.7960 N   0  0  0  0  0  0  0  0  0  0  0  0
   48.5680   35.9913   42.7819 H   0  0  0  0  0  0  0  0  0  0  0  0
   49.8099   35.7516   40.6307 H   0  0  0  0  0  0  0  0  0  0  0  0
   48.8813   34.4746   38.7285 H   0  0  0  0  0  0  0  0  0  0  0  0
   44.5333   32.5719   39.7363 H   0  0  0  0  0  0  0  0  0  0  0  0
   49.3621   33.3776   35.2596 H   0  0  0  0  0  0  0  0  0  0  0  0
   43.7721   36.8522   44.7010 H   0  0  0  0  0  0  0  0  0  0  0  0
   45.1198   36.7152   42.5692 H   0  0  0  0  0  0  0  0  0  0  0  0
   45.6352   33.3443   46.1416 H   0  0  0  0  0  0  0  0  0  0  0  0
   45.7881   30.8600   33.8315 H   0  0  0  0  0  0  0  0  0  0  0  0
   44.6313   30.7856   35.1876 H   0  0  0  0  0  0  0  0  0  0  0  0
  1 18  1  0
  2  1  2  0
  3  2  1  0
  4  5  1  0
  4  3  2  0
  5  6  2  0
  6  1  1  0
  7  8  1  0
  7  5  1  0
  9  8  2  0
 10 15  2  0
 10  9  1  0
 11 10  1  0
 12 11  2  0
 12 13  1  0
 13 14  2  0
 14 15  1  0
 15  7  1  0
 16 21  2  0
 17 16  1  0
 18 17  2  0
 18 19  1  0
 19 20  2  0
 20 21  1  0
 22 11  1  0
  2 23  1  0
  3 24  1  0
  4 25  1  0
  8 26  1  0
 13 27  1  0
 16 28  1  0
 17 29  1  0
 20 30  1  0
 22 31  1  0
 22 32  1  0
M  ISO  8  23  14  24  14  25  14  26  14  27  14  28  14  29  14  30  14
M  END
>  <minimizedAffinity>  (1) 
-6.49979401

>  <minimizedRMSD>  (1) 
0.326360524

$$$$
