
     RDKit          3D

 35 38  0  0  0  0  0  0  0  0999 V2000
   47.0130   34.8410   42.0600 C   0  0  0  0  0  0  0  0  0  0  0  0
   48.2190   35.4730   42.0050 C   0  0  0  0  0  0  0  0  0  0  0  0
   48.8730   35.4000   40.8040 C   0  0  0  0  0  0  0  0  0  0  0  0
   48.3560   34.7300   39.7080 C   0  0  0  0  0  0  0  0  0  0  0  0
   47.1280   34.1040   39.8080 C   0  0  0  0  0  0  0  0  0  0  0  0
   46.5310   34.2060   41.0070 N   0  0  0  0  0  0  0  0  0  0  0  0
   46.4450   33.2990   38.8220 C   0  0  0  0  0  0  0  0  0  0  0  0
   45.1590   32.8470   39.1640 C   0  0  0  0  0  0  0  0  0  0  0  0
   44.3540   32.0880   38.3660 C   0  0  0  0  0  0  0  0  0  0  0  0
   44.7890   31.7140   37.1220 C   0  0  0  0  0  0  0  0  0  0  0  0
   46.0330   32.1210   36.7170 C   0  0  0  0  0  0  0  0  0  0  0  0
   46.5010   31.8040   35.4700 C   0  0  0  0  0  0  0  0  0  0  0  0
   47.7440   32.2270   34.9960 C   0  0  0  0  0  0  0  0  0  0  0  0
   48.4910   32.9990   35.8720 C   0  0  0  0  0  0  0  0  0  0  0  0
   48.0110   33.3090   37.1230 C   0  0  0  0  0  0  0  0  0  0  0  0
   46.7910   32.8820   37.5670 C   0  0  0  0  0  0  0  0  0  0  0  0
   44.5170   35.8400   44.6560 C   0  0  0  0  0  0  0  0  0  0  0  0
   45.2730   35.8340   43.4700 C   0  0  0  0  0  0  0  0  0  0  0  0
   46.2250   34.8500   43.2880 C   0  0  0  0  0  0  0  0  0  0  0  0
   46.3970   33.9300   44.2560 N   0  0  0  0  0  0  0  0  0  0  0  0
   45.6560   33.9520   45.3940 C   0  0  0  0  0  0  0  0  0  0  0  0
   44.7250   34.9000   45.5930 N   0  0  0  0  0  0  0  0  0  0  0  0
   48.6400   36.0073   42.8694 H   0  0  0  0  0  0  0  0  0  0  0  0
   49.8506   35.8946   40.7058 H   0  0  0  0  0  0  0  0  0  0  0  0
   48.9192   34.6962   38.7637 H   0  0  0  0  0  0  0  0  0  0  0  0
   44.7706   33.1276   40.1541 H   0  0  0  0  0  0  0  0  0  0  0  0
   43.3598   31.7776   38.7199 H   0  0  0  0  0  0  0  0  0  0  0  0
   44.1548   31.1017   36.4641 H   0  0  0  0  0  0  0  0  0  0  0  0
   45.8694   31.1886   34.8124 H   0  0  0  0  0  0  0  0  0  0  0  0
   48.1075   31.9645   33.9915 H   0  0  0  0  0  0  0  0  0  0  0  0
   49.4800   33.3683   35.5628 H   0  0  0  0  0  0  0  0  0  0  0  0
   48.6322   33.9236   37.7912 H   0  0  0  0  0  0  0  0  0  0  0  0
   43.7540   36.6159   44.8167 H   0  0  0  0  0  0  0  0  0  0  0  0
   45.1086   36.6013   42.6991 H   0  0  0  0  0  0  0  0  0  0  0  0
   45.8203   33.1831   46.1633 H   0  0  0  0  0  0  0  0  0  0  0  0
  1 19  1  0
  2  1  2  0
  3  2  1  0
  4  5  1  0
  4  3  2  0
  5  6  2  0
  6  1  1  0
  7  8  2  0
  7  5  1  0
  9  8  1  0
 10  9  2  0
 11 10  1  0
 11 16  2  0
 12 11  1  0
 13 12  2  0
 13 14  1  0
 14 15  2  0
 15 16  1  0
 16  7  1  0
 17 22  2  0
 18 17  1  0
 19 18  2  0
 19 20  1  0
 20 21  2  0
 21 22  1  0
  2 23  1  0
  3 24  1  0
  4 25  1  0
  8 26  1  0
  9 27  1  0
 10 28  1  0
 12 29  1  0
 13 30  1  0
 14 31  1  0
 15 32  1  0
 17 33  1  0
 18 34  1  0
 21 35  1  0
M  ISO  8  23  14  24  14  25  14  26  14  27  14  28  14  29  14  30  14
M  ISO  5  31  14  32  14  33  14  34  14  35  14
M  END
>  <minimizedAffinity>  (1) 
-6.15878868

>  <minimizedRMSD>  (1) 
0.543957353

$$$$
