
     RDKit          3D

 29 31  0  0  0  0  0  0  0  0999 V2000
   46.9410   34.8050   41.9700 C   0  0  0  0  0  0  0  0  0  0  0  0
   48.1650   35.4130   41.9240 C   0  0  0  0  0  0  0  0  0  0  0  0
   48.8030   35.2730   40.7060 C   0  0  0  0  0  0  0  0  0  0  0  0
   48.2710   34.5870   39.6260 C   0  0  0  0  0  0  0  0  0  0  0  0
   47.0070   33.9940   39.7600 C   0  0  0  0  0  0  0  0  0  0  0  0
   46.3770   34.1290   40.9520 N   0  0  0  0  0  0  0  0  0  0  0  0
   46.4030   33.2760   38.6870 N   0  0  0  0  0  0  0  0  0  0  0  0
   45.4120   32.4590   39.1270 C   0  0  0  0  0  0  0  0  0  0  0  0
   44.7100   31.6800   38.2250 C   0  0  0  0  0  0  0  0  0  0  0  0
   45.0730   31.7850   36.8890 C   0  0  0  0  0  0  0  0  0  0  0  0
   44.5520   31.1590   35.9220 O   0  0  0  0  0  0  0  0  0  0  0  0
   46.0670   32.6130   36.4890 N   0  0  0  0  0  0  0  0  0  0  0  0
   46.7280   33.3540   37.3850 C   0  0  0  0  0  0  0  0  0  0  0  0
   47.6670   34.1680   37.2110 O   0  0  0  0  0  0  0  0  0  0  0  0
   44.5010   35.9580   44.5700 C   0  0  0  0  0  0  0  0  0  0  0  0
   45.2380   35.9150   43.3680 C   0  0  0  0  0  0  0  0  0  0  0  0
   46.1600   34.8800   43.2040 C   0  0  0  0  0  0  0  0  0  0  0  0
   46.2890   33.9830   44.2120 N   0  0  0  0  0  0  0  0  0  0  0  0
   45.5770   34.0430   45.3470 C   0  0  0  0  0  0  0  0  0  0  0  0
   44.6880   35.0200   45.5330 N   0  0  0  0  0  0  0  0  0  0  0  0
   48.5995   35.9602   42.7736 H   0  0  0  0  0  0  0  0  0  0  0  0
   49.7943   35.7346   40.5866 H   0  0  0  0  0  0  0  0  0  0  0  0
   48.8294   34.5090   38.6815 H   0  0  0  0  0  0  0  0  0  0  0  0
   45.1678   32.4166   40.1987 H   0  0  0  0  0  0  0  0  0  0  0  0
   43.9019   31.0087   38.5509 H   0  0  0  0  0  0  0  0  0  0  0  0
   46.3149   32.6724   35.4911 H   0  0  0  0  0  0  0  0  0  0  0  0
   43.7662   36.7611   44.7287 H   0  0  0  0  0  0  0  0  0  0  0  0
   45.0908   36.6731   42.5847 H   0  0  0  0  0  0  0  0  0  0  0  0
   45.7268   33.2831   46.1281 H   0  0  0  0  0  0  0  0  0  0  0  0
  1 17  1  0
  2  1  2  0
  3  2  1  0
  4  5  1  0
  4  3  2  0
  5  6  2  0
  6  1  1  0
  7  8  1  0
  7  5  1  0
  9  8  2  0
 10  9  1  0
 11 10  2  0
 12 10  1  0
 12 13  1  0
 13  7  1  0
 14 13  2  0
 15 20  2  0
 16 15  1  0
 17 16  2  0
 17 18  1  0
 18 19  2  0
 19 20  1  0
  2 21  1  0
  3 22  1  0
  4 23  1  0
  8 24  1  0
  9 25  1  0
 12 26  1  0
 15 27  1  0
 16 28  1  0
 19 29  1  0
M  ISO  8  21  14  22  14  23  14  24  14  25  14  26   9  27  14  28  14
M  ISO  1  29  14
M  END
>  <minimizedAffinity>  (1) 
-6.1034832

>  <minimizedRMSD>  (1) 
0.33944869

$$$$
