
     RDKit          3D

 25 27  0  0  0  0  0  0  0  0999 V2000
   46.8560   34.7410   42.0230 C   0  0  0  0  0  0  0  0  0  0  0  0
   48.0720   35.3560   41.9030 C   0  0  0  0  0  0  0  0  0  0  0  0
   48.6840   35.2140   40.6840 C   0  0  0  0  0  0  0  0  0  0  0  0
   48.1290   34.5010   39.6330 C   0  0  0  0  0  0  0  0  0  0  0  0
   46.8960   33.9030   39.8180 C   0  0  0  0  0  0  0  0  0  0  0  0
   46.2900   34.0410   41.0210 N   0  0  0  0  0  0  0  0  0  0  0  0
   46.1780   33.1300   38.8400 N   0  0  0  0  0  0  0  0  0  0  0  0
   46.4180   33.1950   37.5070 C   0  0  0  0  0  0  0  0  0  0  0  0
   45.5550   32.3330   36.9110 N   0  0  0  0  0  0  0  0  0  0  0  0
   44.7880   31.7440   37.8720 C   0  0  0  0  0  0  0  0  0  0  0  0
   45.1940   32.2510   39.0400 N   0  0  0  0  0  0  0  0  0  0  0  0
   44.5020   35.9390   44.6670 C   0  0  0  0  0  0  0  0  0  0  0  0
   45.2090   35.8780   43.4500 C   0  0  0  0  0  0  0  0  0  0  0  0
   46.1140   34.8240   43.2750 C   0  0  0  0  0  0  0  0  0  0  0  0
   46.2650   33.9270   44.2700 N   0  0  0  0  0  0  0  0  0  0  0  0
   45.5770   34.0080   45.4260 C   0  0  0  0  0  0  0  0  0  0  0  0
   44.7070   34.9980   45.6260 N   0  0  0  0  0  0  0  0  0  0  0  0
   48.5273   35.9249   42.7270 H   0  0  0  0  0  0  0  0  0  0  0  0
   49.6642   35.6897   40.5328 H   0  0  0  0  0  0  0  0  0  0  0  0
   48.6579   34.4127   38.6725 H   0  0  0  0  0  0  0  0  0  0  0  0
   47.1675   33.8248   37.0053 H   0  0  0  0  0  0  0  0  0  0  0  0
   43.9931   30.9996   37.7169 H   0  0  0  0  0  0  0  0  0  0  0  0
   43.7812   36.7514   44.8418 H   0  0  0  0  0  0  0  0  0  0  0  0
   45.0554   36.6324   42.6643 H   0  0  0  0  0  0  0  0  0  0  0  0
   45.7344   33.2522   46.2096 H   0  0  0  0  0  0  0  0  0  0  0  0
  1 14  1  0
  2  1  2  0
  3  2  1  0
  4  5  1  0
  4  3  2  0
  5  6  2  0
  6  1  1  0
  7 11  1  0
  7  5  1  0
  8  7  1  0
  9  8  2  0
  9 10  1  0
 10 11  2  0
 12 17  2  0
 13 12  1  0
 14 13  2  0
 14 15  1  0
 15 16  2  0
 16 17  1  0
  2 18  1  0
  3 19  1  0
  4 20  1  0
  8 21  1  0
 10 22  1  0
 12 23  1  0
 13 24  1  0
 16 25  1  0
M  ISO  8  18  14  19  14  20  14  21  14  22  14  23  14  24  14  25  14
M  END
>  <minimizedAffinity>  (1) 
-5.51927662

>  <minimizedRMSD>  (1) 
0.126241088

$$$$
