
     RDKit          3D

 29 31  0  0  0  0  0  0  0  0999 V2000
   46.8790   34.7630   42.0280 C   0  0  0  0  0  0  0  0  0  0  0  0
   48.1050   35.3620   41.9460 C   0  0  0  0  0  0  0  0  0  0  0  0
   48.7220   35.2210   40.7160 C   0  0  0  0  0  0  0  0  0  0  0  0
   48.1580   34.5310   39.6440 C   0  0  0  0  0  0  0  0  0  0  0  0
   46.9140   33.9530   39.8110 C   0  0  0  0  0  0  0  0  0  0  0  0
   46.3110   34.0910   41.0100 N   0  0  0  0  0  0  0  0  0  0  0  0
   44.5020   35.9180   44.6690 C   0  0  0  0  0  0  0  0  0  0  0  0
   45.2190   35.8600   43.4640 C   0  0  0  0  0  0  0  0  0  0  0  0
   46.1290   34.8390   43.2670 C   0  0  0  0  0  0  0  0  0  0  0  0
   46.2910   33.9230   44.2700 N   0  0  0  0  0  0  0  0  0  0  0  0
   45.5970   33.9920   45.4220 C   0  0  0  0  0  0  0  0  0  0  0  0
   44.7030   34.9860   45.6250 N   0  0  0  0  0  0  0  0  0  0  0  0
   46.2090   33.2050   38.7750 C   0  0  0  0  0  0  0  0  0  0  0  0
   46.6820   33.2880   37.4830 C   0  0  0  0  0  0  0  0  0  0  0  0
   46.0790   32.6140   36.4310 C   0  0  0  0  0  0  0  0  0  0  0  0
   44.9530   31.8210   36.6820 C   0  0  0  0  0  0  0  0  0  0  0  0
   44.4960   31.7540   37.9840 C   0  0  0  0  0  0  0  0  0  0  0  0
   45.1010   32.4260   39.0230 C   0  0  0  0  0  0  0  0  0  0  0  0
   48.5610   35.9084   42.7848 H   0  0  0  0  0  0  0  0  0  0  0  0
   49.7124   35.6786   40.5760 H   0  0  0  0  0  0  0  0  0  0  0  0
   48.6918   34.4484   38.6857 H   0  0  0  0  0  0  0  0  0  0  0  0
   43.7738   36.7255   44.8352 H   0  0  0  0  0  0  0  0  0  0  0  0
   45.0583   36.6193   42.6845 H   0  0  0  0  0  0  0  0  0  0  0  0
   45.7585   33.2346   46.2032 H   0  0  0  0  0  0  0  0  0  0  0  0
   47.5667   33.9091   37.2794 H   0  0  0  0  0  0  0  0  0  0  0  0
   46.4812   32.7017   35.4109 H   0  0  0  0  0  0  0  0  0  0  0  0
   44.4506   31.2715   35.8723 H   0  0  0  0  0  0  0  0  0  0  0  0
   43.6110   31.1375   38.2002 H   0  0  0  0  0  0  0  0  0  0  0  0
   44.7016   32.3409   40.0444 H   0  0  0  0  0  0  0  0  0  0  0  0
  1  9  1  0
  2  1  2  0
  3  2  1  0
  4  5  1  0
  4  3  2  0
  5  6  2  0
  6  1  1  0
  7 12  2  0
  8  7  1  0
  9  8  2  0
  9 10  1  0
 10 11  2  0
 11 12  1  0
 13 18  1  0
 13  5  1  0
 14 13  2  0
 15 16  2  0
 15 14  1  0
 16 17  1  0
 17 18  2  0
  2 19  1  0
  3 20  1  0
  4 21  1  0
  7 22  1  0
  8 23  1  0
 11 24  1  0
 14 25  1  0
 15 26  1  0
 16 27  1  0
 17 28  1  0
 18 29  1  0
M  ISO  8  19  14  20  14  21  14  22  14  23  14  24  14  25  14  26  14
M  ISO  3  27  14  28  14  29  14
M  END
>  <minimizedAffinity>  (1) 
-5.45975208

>  <minimizedRMSD>  (1) 
0.624662399

$$$$
