
     RDKit          3D

 29 31  0  0  0  0  0  0  0  0999 V2000
   46.8590   34.7460   42.0280 C   0  0  0  0  0  0  0  0  0  0  0  0
   48.0990   35.3510   41.9540 C   0  0  0  0  0  0  0  0  0  0  0  0
   48.7140   35.2120   40.7260 C   0  0  0  0  0  0  0  0  0  0  0  0
   48.1400   34.5210   39.6440 C   0  0  0  0  0  0  0  0  0  0  0  0
   46.8940   33.9510   39.8170 C   0  0  0  0  0  0  0  0  0  0  0  0
   46.3010   34.0920   41.0210 N   0  0  0  0  0  0  0  0  0  0  0  0
   44.4960   35.9210   44.6880 C   0  0  0  0  0  0  0  0  0  0  0  0
   45.2110   35.8430   43.4790 C   0  0  0  0  0  0  0  0  0  0  0  0
   46.1230   34.8230   43.2720 C   0  0  0  0  0  0  0  0  0  0  0  0
   46.2890   33.9130   44.2800 N   0  0  0  0  0  0  0  0  0  0  0  0
   45.5850   34.0100   45.4400 C   0  0  0  0  0  0  0  0  0  0  0  0
   44.7070   34.9900   45.6430 N   0  0  0  0  0  0  0  0  0  0  0  0
   46.2170   33.2150   38.7560 C   0  0  0  0  0  0  0  0  0  0  0  0
   45.1030   32.4310   38.9400 C   0  0  0  0  0  0  0  0  0  0  0  0
   44.4700   31.7400   37.9320 C   0  0  0  0  0  0  0  0  0  0  0  0
   44.9580   31.8170   36.6450 C   0  0  0  0  0  0  0  0  0  0  0  0
   46.0770   32.5970   36.4320 C   0  0  0  0  0  0  0  0  0  0  0  0
   46.6950   33.2840   37.4650 C   0  0  0  0  0  0  0  0  0  0  0  0
   48.5541   35.8933   42.7959 H   0  0  0  0  0  0  0  0  0  0  0  0
   49.7061   35.6660   40.5863 H   0  0  0  0  0  0  0  0  0  0  0  0
   48.6702   34.4366   38.6839 H   0  0  0  0  0  0  0  0  0  0  0  0
   43.7721   36.7325   44.8538 H   0  0  0  0  0  0  0  0  0  0  0  0
   45.0444   36.5961   42.6947 H   0  0  0  0  0  0  0  0  0  0  0  0
   45.7450   33.2607   46.2293 H   0  0  0  0  0  0  0  0  0  0  0  0
   44.6915   32.3508   39.9570 H   0  0  0  0  0  0  0  0  0  0  0  0
   43.5810   31.1306   38.1517 H   0  0  0  0  0  0  0  0  0  0  0  0
   44.4736   31.2768   35.8182 H   0  0  0  0  0  0  0  0  0  0  0  0
   46.4892   32.6754   35.4152 H   0  0  0  0  0  0  0  0  0  0  0  0
   47.5836   33.8958   37.2505 H   0  0  0  0  0  0  0  0  0  0  0  0
  1  9  1  0
  2  1  2  0
  3  2  1  0
  4  5  1  0
  4  3  2  0
  5  6  2  0
  6  1  1  0
  7 12  2  0
  8  7  1  0
  9  8  2  0
  9 10  1  0
 10 11  2  0
 11 12  1  0
 13 14  2  0
 13  5  1  0
 15 14  1  0
 16 15  2  0
 17 16  1  0
 17 18  2  0
 18 13  1  0
  2 19  1  0
  3 20  1  0
  4 21  1  0
  7 22  1  0
  8 23  1  0
 11 24  1  0
 14 25  1  0
 15 26  1  0
 16 27  1  0
 17 28  1  0
 18 29  1  0
M  ISO  8  19  14  20  14  21  14  22  14  23  14  24  14  25  14  26  14
M  ISO  3  27  14  28  14  29  14
M  END
>  <minimizedAffinity>  (1) 
-5.45649385

>  <minimizedRMSD>  (1) 
0.225374669

$$$$
