
     RDKit          3D

 35 38  0  0  0  0  0  0  0  0999 V2000
   46.7910   34.7340   42.0520 C   0  0  0  0  0  0  0  0  0  0  0  0
   48.0350   35.2920   41.9450 C   0  0  0  0  0  0  0  0  0  0  0  0
   48.6340   35.1190   40.7230 C   0  0  0  0  0  0  0  0  0  0  0  0
   48.0300   34.4260   39.6660 C   0  0  0  0  0  0  0  0  0  0  0  0
   46.7710   33.8900   39.8530 C   0  0  0  0  0  0  0  0  0  0  0  0
   46.1950   34.0680   41.0560 N   0  0  0  0  0  0  0  0  0  0  0  0
   46.1110   33.1660   38.7880 C   0  0  0  0  0  0  0  0  0  0  0  0
   46.8480   32.6310   37.7590 C   0  0  0  0  0  0  0  0  0  0  0  0
   46.2390   31.9330   36.7300 C   0  0  0  0  0  0  0  0  0  0  0  0
   44.8530   31.8420   36.8540 C   0  0  0  0  0  0  0  0  0  0  0  0
   44.0900   32.3630   37.8630 C   0  0  0  0  0  0  0  0  0  0  0  0
   44.7630   33.0400   38.8470 N   0  0  0  0  0  0  0  0  0  0  0  0
   42.6780   32.2020   37.8760 N   0  0  0  0  0  0  0  0  0  0  0  0
   41.8850   33.1300   38.3560 N   0  0  0  0  0  0  0  0  0  0  0  0
   40.5940   32.7260   38.2490 C   0  0  0  0  0  0  0  0  0  0  0  0
   40.6250   31.4690   37.6650 C   0  0  0  0  0  0  0  0  0  0  0  0
   41.9450   31.1470   37.4330 C   0  0  0  0  0  0  0  0  0  0  0  0
   44.5010   35.9500   44.7370 C   0  0  0  0  0  0  0  0  0  0  0  0
   45.1780   35.8870   43.5080 C   0  0  0  0  0  0  0  0  0  0  0  0
   46.0580   34.8540   43.3050 C   0  0  0  0  0  0  0  0  0  0  0  0
   46.2230   33.9380   44.3200 N   0  0  0  0  0  0  0  0  0  0  0  0
   45.5560   34.0270   45.4890 C   0  0  0  0  0  0  0  0  0  0  0  0
   44.6930   35.0350   45.6990 N   0  0  0  0  0  0  0  0  0  0  0  0
   48.5162   35.8354   42.7716 H   0  0  0  0  0  0  0  0  0  0  0  0
   49.6361   35.5446   40.5657 H   0  0  0  0  0  0  0  0  0  0  0  0
   48.5497   34.3107   38.7034 H   0  0  0  0  0  0  0  0  0  0  0  0
   47.9405   32.7595   37.7527 H   0  0  0  0  0  0  0  0  0  0  0  0
   46.7972   31.4908   35.8916 H   0  0  0  0  0  0  0  0  0  0  0  0
   44.3199   31.2968   36.0612 H   0  0  0  0  0  0  0  0  0  0  0  0
   39.7002   33.2849   38.5633 H   0  0  0  0  0  0  0  0  0  0  0  0
   39.7529   30.8414   37.4292 H   0  0  0  0  0  0  0  0  0  0  0  0
   42.3285   30.2210   36.9798 H   0  0  0  0  0  0  0  0  0  0  0  0
   43.7933   36.7729   44.9157 H   0  0  0  0  0  0  0  0  0  0  0  0
   45.0074   36.6451   42.7295 H   0  0  0  0  0  0  0  0  0  0  0  0
   45.7191   33.2723   46.2725 H   0  0  0  0  0  0  0  0  0  0  0  0
  1 20  1  0
  2  1  2  0
  3  2  1  0
  4  5  1  0
  4  3  2  0
  5  6  2  0
  6  1  1  0
  7 12  1  0
  7  5  1  0
  8  7  2  0
  9 10  2  0
  9  8  1  0
 10 11  1  0
 11 13  1  0
 11 12  2  0
 13 14  1  0
 15 14  2  0
 16 15  1  0
 17 16  2  0
 17 13  1  0
 18 23  2  0
 19 18  1  0
 20 19  2  0
 20 21  1  0
 21 22  2  0
 22 23  1  0
  2 24  1  0
  3 25  1  0
  4 26  1  0
  8 27  1  0
  9 28  1  0
 10 29  1  0
 15 30  1  0
 16 31  1  0
 17 32  1  0
 18 33  1  0
 19 34  1  0
 22 35  1  0
M  ISO  8  24  14  25  14  26  14  27  14  28  14  29  14  30  14  31  14
M  ISO  4  32  14  33  14  34  14  35  14
M  END
>  <minimizedAffinity>  (1) 
-6.30531454

>  <minimizedRMSD>  (1) 
1.27425325

$$$$
