
     RDKit          3D

 34 37  0  0  0  0  0  0  0  0999 V2000
   46.7620   34.7270   42.0780 C   0  0  0  0  0  0  0  0  0  0  0  0
   48.0210   35.2660   41.9760 C   0  0  0  0  0  0  0  0  0  0  0  0
   48.6230   35.0890   40.7570 C   0  0  0  0  0  0  0  0  0  0  0  0
   48.0070   34.4120   39.6930 C   0  0  0  0  0  0  0  0  0  0  0  0
   46.7430   33.8980   39.8740 C   0  0  0  0  0  0  0  0  0  0  0  0
   46.1560   34.0780   41.0800 N   0  0  0  0  0  0  0  0  0  0  0  0
   46.0710   33.1920   38.8030 C   0  0  0  0  0  0  0  0  0  0  0  0
   46.8000   32.6560   37.7760 C   0  0  0  0  0  0  0  0  0  0  0  0
   46.1710   31.9770   36.7420 C   0  0  0  0  0  0  0  0  0  0  0  0
   44.7750   31.9080   36.8670 C   0  0  0  0  0  0  0  0  0  0  0  0
   44.0230   32.4350   37.8820 C   0  0  0  0  0  0  0  0  0  0  0  0
   44.7220   33.0830   38.8490 N   0  0  0  0  0  0  0  0  0  0  0  0
   42.6210   32.3060   37.9060 N   0  0  0  0  0  0  0  0  0  0  0  0
   41.9350   31.2480   37.4970 C   0  0  0  0  0  0  0  0  0  0  0  0
   40.6070   31.4790   37.6690 N   0  0  0  0  0  0  0  0  0  0  0  0
   40.4950   32.7040   38.1930 C   0  0  0  0  0  0  0  0  0  0  0  0
   41.7410   33.1950   38.3300 N   0  0  0  0  0  0  0  0  0  0  0  0
   44.4980   35.9630   44.7740 C   0  0  0  0  0  0  0  0  0  0  0  0
   45.1650   35.9030   43.5350 C   0  0  0  0  0  0  0  0  0  0  0  0
   46.0320   34.8590   43.3370 C   0  0  0  0  0  0  0  0  0  0  0  0
   46.1970   33.9400   44.3510 N   0  0  0  0  0  0  0  0  0  0  0  0
   45.5390   34.0320   45.5220 C   0  0  0  0  0  0  0  0  0  0  0  0
   44.6930   35.0450   45.7260 N   0  0  0  0  0  0  0  0  0  0  0  0
   48.5080   35.7977   42.8067 H   0  0  0  0  0  0  0  0  0  0  0  0
   49.6339   35.4957   40.6061 H   0  0  0  0  0  0  0  0  0  0  0  0
   48.5258   34.2941   38.7302 H   0  0  0  0  0  0  0  0  0  0  0  0
   47.8946   32.7645   37.7702 H   0  0  0  0  0  0  0  0  0  0  0  0
   46.7187   31.5319   35.8983 H   0  0  0  0  0  0  0  0  0  0  0  0
   44.2315   31.3782   36.0708 H   0  0  0  0  0  0  0  0  0  0  0  0
   42.3722   30.3273   37.0832 H   0  0  0  0  0  0  0  0  0  0  0  0
   39.5590   33.2154   38.4621 H   0  0  0  0  0  0  0  0  0  0  0  0
   43.7966   36.7888   44.9637 H   0  0  0  0  0  0  0  0  0  0  0  0
   44.9973   36.6628   42.7575 H   0  0  0  0  0  0  0  0  0  0  0  0
   45.6973   33.2771   46.3062 H   0  0  0  0  0  0  0  0  0  0  0  0
  1 20  1  0
  2  1  2  0
  3  2  1  0
  4  5  1  0
  4  3  2  0
  5  6  2  0
  6  1  1  0
  7 12  1  0
  7  5  1  0
  8  7  2  0
  9 10  2  0
  9  8  1  0
 10 11  1  0
 11 13  1  0
 11 12  2  0
 13 17  1  0
 14 15  2  0
 14 13  1  0
 15 16  1  0
 16 17  2  0
 18 23  2  0
 19 18  1  0
 20 19  2  0
 20 21  1  0
 21 22  2  0
 22 23  1  0
  2 24  1  0
  3 25  1  0
  4 26  1  0
  8 27  1  0
  9 28  1  0
 10 29  1  0
 14 30  1  0
 16 31  1  0
 18 32  1  0
 19 33  1  0
 22 34  1  0
M  ISO  8  24  14  25  14  26  14  27  14  28  14  29  14  30  14  31  14
M  ISO  3  32  14  33  14  34  14
M  END
>  <minimizedAffinity>  (1) 
-6.30206299

>  <minimizedRMSD>  (1) 
1.29980052

$$$$
