
     RDKit          3D

 35 38  0  0  0  0  0  0  0  0999 V2000
   46.7950   34.7340   42.0850 C   0  0  0  0  0  0  0  0  0  0  0  0
   48.0420   35.2720   41.9790 C   0  0  0  0  0  0  0  0  0  0  0  0
   48.6370   35.0940   40.7500 C   0  0  0  0  0  0  0  0  0  0  0  0
   48.0110   34.4160   39.6920 C   0  0  0  0  0  0  0  0  0  0  0  0
   46.7460   33.9010   39.8810 C   0  0  0  0  0  0  0  0  0  0  0  0
   46.1830   34.0830   41.0840 N   0  0  0  0  0  0  0  0  0  0  0  0
   44.5020   35.9500   44.7720 C   0  0  0  0  0  0  0  0  0  0  0  0
   45.1800   35.8930   43.5400 C   0  0  0  0  0  0  0  0  0  0  0  0
   46.0560   34.8560   43.3430 C   0  0  0  0  0  0  0  0  0  0  0  0
   46.2120   33.9490   44.3540 N   0  0  0  0  0  0  0  0  0  0  0  0
   45.5520   34.0250   45.5250 C   0  0  0  0  0  0  0  0  0  0  0  0
   44.6890   35.0380   45.7300 N   0  0  0  0  0  0  0  0  0  0  0  0
   46.0780   33.1960   38.8080 C   0  0  0  0  0  0  0  0  0  0  0  0
   46.8200   32.6530   37.7880 C   0  0  0  0  0  0  0  0  0  0  0  0
   46.1910   31.9690   36.7450 C   0  0  0  0  0  0  0  0  0  0  0  0
   44.8100   31.9110   36.8650 C   0  0  0  0  0  0  0  0  0  0  0  0
   44.0470   32.4430   37.8700 C   0  0  0  0  0  0  0  0  0  0  0  0
   44.7260   33.0990   38.8560 N   0  0  0  0  0  0  0  0  0  0  0  0
   42.5940   32.3170   37.8850 C   0  0  0  0  0  0  0  0  0  0  0  0
   41.8860   31.1580   37.7130 C   0  0  0  0  0  0  0  0  0  0  0  0
   40.5700   31.4460   37.7910 N   0  0  0  0  0  0  0  0  0  0  0  0
   40.5220   32.7900   38.0110 C   0  0  0  0  0  0  0  0  0  0  0  0
   41.7470   33.3450   38.0720 N   0  0  0  0  0  0  0  0  0  0  0  0
   48.5331   35.8046   42.8068 H   0  0  0  0  0  0  0  0  0  0  0  0
   49.6465   35.5007   40.5903 H   0  0  0  0  0  0  0  0  0  0  0  0
   48.5227   34.2973   38.7255 H   0  0  0  0  0  0  0  0  0  0  0  0
   43.7946   36.7729   44.9520 H   0  0  0  0  0  0  0  0  0  0  0  0
   45.0133   36.6531   42.7626 H   0  0  0  0  0  0  0  0  0  0  0  0
   45.7160   33.2677   46.3058 H   0  0  0  0  0  0  0  0  0  0  0  0
   47.9150   32.7572   37.7923 H   0  0  0  0  0  0  0  0  0  0  0  0
   46.7402   31.5177   35.9055 H   0  0  0  0  0  0  0  0  0  0  0  0
   44.2699   31.3806   36.0669 H   0  0  0  0  0  0  0  0  0  0  0  0
   42.3169   30.1608   37.5404 H   0  0  0  0  0  0  0  0  0  0  0  0
   39.5869   33.3579   38.1259 H   0  0  0  0  0  0  0  0  0  0  0  0
   41.9829   34.3355   38.2272 H   0  0  0  0  0  0  0  0  0  0  0  0
  1  9  1  0
  2  1  2  0
  3  2  1  0
  4  5  1  0
  4  3  2  0
  5  6  2  0
  6  1  1  0
  7 12  2  0
  8  7  1  0
  9  8  2  0
  9 10  1  0
 10 11  2  0
 11 12  1  0
 13 18  1  0
 13  5  1  0
 14 13  2  0
 15 16  2  0
 15 14  1  0
 16 17  1  0
 17 19  1  0
 17 18  2  0
 19 23  1  0
 20 21  1  0
 20 19  2  0
 21 22  2  0
 22 23  1  0
  2 24  1  0
  3 25  1  0
  4 26  1  0
  7 27  1  0
  8 28  1  0
 11 29  1  0
 14 30  1  0
 15 31  1  0
 16 32  1  0
 20 33  1  0
 22 34  1  0
 23 35  1  0
M  ISO  8  24  14  25  14  26  14  27  14  28  14  29  14  30  14  31  14
M  ISO  4  32  14  33  14  34  14  35   9
M  END
>  <minimizedAffinity>  (1) 
-6.06757021

>  <minimizedRMSD>  (1) 
1.40473461

$$$$
