
     RDKit          3D

 33 36  0  0  0  0  0  0  0  0999 V2000
   46.7860   34.7280   42.0640 C   0  0  0  0  0  0  0  0  0  0  0  0
   48.0240   35.3000   41.9440 C   0  0  0  0  0  0  0  0  0  0  0  0
   48.6190   35.1220   40.7250 C   0  0  0  0  0  0  0  0  0  0  0  0
   48.0170   34.4110   39.6760 C   0  0  0  0  0  0  0  0  0  0  0  0
   46.7730   33.8640   39.8700 C   0  0  0  0  0  0  0  0  0  0  0  0
   46.2000   34.0490   41.0780 N   0  0  0  0  0  0  0  0  0  0  0  0
   44.4950   35.9510   44.7460 C   0  0  0  0  0  0  0  0  0  0  0  0
   45.1760   35.8840   43.5170 C   0  0  0  0  0  0  0  0  0  0  0  0
   46.0520   34.8490   43.3200 C   0  0  0  0  0  0  0  0  0  0  0  0
   46.2190   33.9320   44.3370 N   0  0  0  0  0  0  0  0  0  0  0  0
   45.5460   34.0310   45.5070 C   0  0  0  0  0  0  0  0  0  0  0  0
   44.6910   35.0360   45.7070 N   0  0  0  0  0  0  0  0  0  0  0  0
   46.1150   33.1220   38.8160 C   0  0  0  0  0  0  0  0  0  0  0  0
   46.8650   32.5250   37.8380 C   0  0  0  0  0  0  0  0  0  0  0  0
   46.2550   31.8080   36.8210 C   0  0  0  0  0  0  0  0  0  0  0  0
   44.8750   31.7600   36.8960 C   0  0  0  0  0  0  0  0  0  0  0  0
   44.1000   32.3460   37.8600 C   0  0  0  0  0  0  0  0  0  0  0  0
   44.7620   33.0400   38.8360 N   0  0  0  0  0  0  0  0  0  0  0  0
   42.6510   32.2570   37.8810 C   0  0  0  0  0  0  0  0  0  0  0  0
   41.8740   31.2760   37.3870 N   0  0  0  0  0  0  0  0  0  0  0  0
   40.6210   31.5840   37.6130 O   0  0  0  0  0  0  0  0  0  0  0  0
   40.5350   32.7190   38.2300 C   0  0  0  0  0  0  0  0  0  0  0  0
   41.7910   33.1610   38.4100 N   0  0  0  0  0  0  0  0  0  0  0  0
   48.5022   35.8582   42.7624 H   0  0  0  0  0  0  0  0  0  0  0  0
   49.6159   35.5566   40.5596 H   0  0  0  0  0  0  0  0  0  0  0  0
   48.5342   34.2936   38.7123 H   0  0  0  0  0  0  0  0  0  0  0  0
   43.7854   36.7727   44.9230 H   0  0  0  0  0  0  0  0  0  0  0  0
   45.0100   36.6410   42.7363 H   0  0  0  0  0  0  0  0  0  0  0  0
   45.7042   33.2807   46.2957 H   0  0  0  0  0  0  0  0  0  0  0  0
   47.9611   32.6154   37.8599 H   0  0  0  0  0  0  0  0  0  0  0  0
   46.8234   31.3161   36.0179 H   0  0  0  0  0  0  0  0  0  0  0  0
   44.3516   31.1988   36.1078 H   0  0  0  0  0  0  0  0  0  0  0  0
   39.6107   33.2246   38.5463 H   0  0  0  0  0  0  0  0  0  0  0  0
  1  9  1  0
  2  1  2  0
  3  2  1  0
  4  5  1  0
  4  3  2  0
  5  6  2  0
  6  1  1  0
  7 12  2  0
  8  7  1  0
  9  8  2  0
  9 10  1  0
 10 11  2  0
 11 12  1  0
 13 18  1  0
 13  5  1  0
 14 13  2  0
 15 16  2  0
 15 14  1  0
 16 17  1  0
 17 19  1  0
 17 18  2  0
 19 23  1  0
 20 21  1  0
 20 19  2  0
 21 22  1  0
 22 23  2  0
  2 24  1  0
  3 25  1  0
  4 26  1  0
  7 27  1  0
  8 28  1  0
 11 29  1  0
 14 30  1  0
 15 31  1  0
 16 32  1  0
 22 33  1  0
M  ISO  8  24  14  25  14  26  14  27  14  28  14  29  14  30  14  31  14
M  ISO  2  32  14  33  14
M  END
>  <minimizedAffinity>  (1) 
-5.97562361

>  <minimizedRMSD>  (1) 
1.38965249

$$$$
