
     RDKit          3D

 41 44  0  0  0  0  0  0  0  0999 V2000
   45.8900   33.1330   38.9190 C   0  0  0  0  0  0  0  0  0  0  0  0
   46.5760   32.5530   37.8950 C   0  0  0  0  0  0  0  0  0  0  0  0
   45.9090   31.8900   36.8680 C   0  0  0  0  0  0  0  0  0  0  0  0
   44.5290   31.8890   37.0060 C   0  0  0  0  0  0  0  0  0  0  0  0
   43.7940   32.4610   38.0210 C   0  0  0  0  0  0  0  0  0  0  0  0
   44.5300   33.0880   38.9800 N   0  0  0  0  0  0  0  0  0  0  0  0
   46.6760   34.6590   42.1670 C   0  0  0  0  0  0  0  0  0  0  0  0
   47.9490   35.1760   42.0420 C   0  0  0  0  0  0  0  0  0  0  0  0
   48.5150   34.9760   40.8050 C   0  0  0  0  0  0  0  0  0  0  0  0
   47.8540   34.3070   39.7680 C   0  0  0  0  0  0  0  0  0  0  0  0
   46.5880   33.8210   39.9720 C   0  0  0  0  0  0  0  0  0  0  0  0
   46.0420   34.0230   41.1930 N   0  0  0  0  0  0  0  0  0  0  0  0
   44.4790   35.9610   44.8840 C   0  0  0  0  0  0  0  0  0  0  0  0
   45.1320   35.8590   43.6400 C   0  0  0  0  0  0  0  0  0  0  0  0
   45.9750   34.8100   43.4380 C   0  0  0  0  0  0  0  0  0  0  0  0
   46.1210   33.9350   44.4630 N   0  0  0  0  0  0  0  0  0  0  0  0
   45.4980   34.0350   45.6440 C   0  0  0  0  0  0  0  0  0  0  0  0
   44.6710   35.0610   45.8480 N   0  0  0  0  0  0  0  0  0  0  0  0
   42.3330   32.3790   38.0310 C   0  0  0  0  0  0  0  0  0  0  0  0
   41.6830   33.4330   38.7800 N   0  0  0  0  0  0  0  0  0  0  0  0
   41.5700   34.6360   38.1550 C   0  0  0  0  0  0  0  0  0  0  0  0
   40.9610   35.7180   38.7880 C   0  0  0  0  0  0  0  0  0  0  0  0
   40.4740   35.5370   40.0720 C   0  0  0  0  0  0  0  0  0  0  0  0
   39.9080   36.4940   40.6950 O   0  0  0  0  0  0  0  0  0  0  0  0
   40.5970   34.3290   40.6800 N   0  0  0  0  0  0  0  0  0  0  0  0
   41.1870   33.3400   40.0230 C   0  0  0  0  0  0  0  0  0  0  0  0
   41.2920   32.2430   40.5880 O   0  0  0  0  0  0  0  0  0  0  0  0
   47.6744   32.6093   37.8791 H   0  0  0  0  0  0  0  0  0  0  0  0
   46.4287   31.4112   36.0250 H   0  0  0  0  0  0  0  0  0  0  0  0
   43.9586   31.3749   36.2183 H   0  0  0  0  0  0  0  0  0  0  0  0
   48.4651   35.7014   42.8591 H   0  0  0  0  0  0  0  0  0  0  0  0
   49.5303   35.3579   40.6224 H   0  0  0  0  0  0  0  0  0  0  0  0
   48.3477   34.1718   38.7943 H   0  0  0  0  0  0  0  0  0  0  0  0
   43.7946   36.8032   45.0640 H   0  0  0  0  0  0  0  0  0  0  0  0
   44.9648   36.6081   42.8520 H   0  0  0  0  0  0  0  0  0  0  0  0
   45.6652   33.2850   46.4311 H   0  0  0  0  0  0  0  0  0  0  0  0
   41.9781   32.4261   36.9909 H   0  0  0  0  0  0  0  0  0  0  0  0
   42.0738   31.4328   38.5284 H   0  0  0  0  0  0  0  0  0  0  0  0
   41.9649   34.7565   37.1354 H   0  0  0  0  0  0  0  0  0  0  0  0
   40.8695   36.6901   38.2813 H   0  0  0  0  0  0  0  0  0  0  0  0
   40.2383   34.1837   41.6345 H   0  0  0  0  0  0  0  0  0  0  0  0
  1  6  1  0
  1 11  1  0
  2  1  2  0
  3  4  2  0
  3  2  1  0
  4  5  1  0
  5 19  1  0
  5  6  2  0
  7 15  1  0
  8  7  2  0
  9  8  1  0
 10 11  1  0
 10  9  2  0
 11 12  2  0
 12  7  1  0
 13 18  2  0
 14 13  1  0
 15 14  2  0
 15 16  1  0
 16 17  2  0
 17 18  1  0
 19 20  1  0
 20 26  1  0
 21 20  1  0
 21 22  2  0
 22 23  1  0
 23 25  1  0
 23 24  2  0
 26 27  2  0
 26 25  1  0
  2 28  1  0
  3 29  1  0
  4 30  1  0
  8 31  1  0
  9 32  1  0
 10 33  1  0
 13 34  1  0
 14 35  1  0
 17 36  1  0
 19 37  1  0
 19 38  1  0
 21 39  1  0
 22 40  1  0
 25 41  1  0
M  ISO  8  28  14  29  14  30  14  31  14  32  14  33  14  34  14  35  14
M  ISO  6  36  14  37   8  38   8  39  14  40  14  41   9
M  END
>  <minimizedAffinity>  (1) 
-6.89397907

>  <minimizedRMSD>  (1) 
1.66747141

$$$$
