
     RDKit          3D

 38 41  0  0  0  0  0  0  0  0999 V2000
   45.9900   33.2710   38.8110 C   0  0  0  0  0  0  0  0  0  0  0  0
   46.6310   33.0210   37.6400 C   0  0  0  0  0  0  0  0  0  0  0  0
   45.9850   32.3830   36.5800 C   0  0  0  0  0  0  0  0  0  0  0  0
   44.6560   32.0430   36.8470 C   0  0  0  0  0  0  0  0  0  0  0  0
   43.9810   32.2850   38.0250 C   0  0  0  0  0  0  0  0  0  0  0  0
   44.6910   32.9120   39.0050 N   0  0  0  0  0  0  0  0  0  0  0  0
   46.7280   34.7220   42.1020 C   0  0  0  0  0  0  0  0  0  0  0  0
   48.0160   35.2140   42.0100 C   0  0  0  0  0  0  0  0  0  0  0  0
   48.6100   35.0280   40.7800 C   0  0  0  0  0  0  0  0  0  0  0  0
   47.9570   34.3920   39.7220 C   0  0  0  0  0  0  0  0  0  0  0  0
   46.6790   33.9280   39.8850 C   0  0  0  0  0  0  0  0  0  0  0  0
   46.1120   34.1180   41.0930 N   0  0  0  0  0  0  0  0  0  0  0  0
   44.4920   35.9920   44.7910 C   0  0  0  0  0  0  0  0  0  0  0  0
   45.1620   35.9100   43.5520 C   0  0  0  0  0  0  0  0  0  0  0  0
   46.0080   34.8630   43.3530 C   0  0  0  0  0  0  0  0  0  0  0  0
   46.1510   33.9560   44.3790 N   0  0  0  0  0  0  0  0  0  0  0  0
   45.5000   34.0580   45.5480 C   0  0  0  0  0  0  0  0  0  0  0  0
   44.6670   35.0770   45.7590 N   0  0  0  0  0  0  0  0  0  0  0  0
   42.5740   31.8790   38.1810 C   0  0  0  0  0  0  0  0  0  0  0  0
   41.6520   32.9800   38.2030 N   0  0  0  0  0  0  0  0  0  0  0  0
   42.1490   34.2080   38.3770 N   0  0  0  0  0  0  0  0  0  0  0  0
   41.1650   35.1130   38.3710 C   0  0  0  0  0  0  0  0  0  0  0  0
   39.9970   34.3850   38.1810 C   0  0  0  0  0  0  0  0  0  0  0  0
   40.3130   33.0300   38.0740 C   0  0  0  0  0  0  0  0  0  0  0  0
   47.6811   33.3277   37.5246 H   0  0  0  0  0  0  0  0  0  0  0  0
   46.4777   32.1671   35.6205 H   0  0  0  0  0  0  0  0  0  0  0  0
   44.0981   31.5368   36.0454 H   0  0  0  0  0  0  0  0  0  0  0  0
   48.5248   35.7124   42.8482 H   0  0  0  0  0  0  0  0  0  0  0  0
   49.6359   35.3939   40.6262 H   0  0  0  0  0  0  0  0  0  0  0  0
   48.4695   34.2637   38.7572 H   0  0  0  0  0  0  0  0  0  0  0  0
   43.8045   36.8318   44.9701 H   0  0  0  0  0  0  0  0  0  0  0  0
   45.0053   36.6688   42.7712 H   0  0  0  0  0  0  0  0  0  0  0  0
   45.6537   33.3013   46.3315 H   0  0  0  0  0  0  0  0  0  0  0  0
   42.3079   31.2205   37.3410 H   0  0  0  0  0  0  0  0  0  0  0  0
   42.4925   31.3734   39.1545 H   0  0  0  0  0  0  0  0  0  0  0  0
   41.2599   36.2023   38.4910 H   0  0  0  0  0  0  0  0  0  0  0  0
   38.9838   34.8094   38.1240 H   0  0  0  0  0  0  0  0  0  0  0  0
   39.6212   32.1890   37.9187 H   0  0  0  0  0  0  0  0  0  0  0  0
  1  6  1  0
  1 11  1  0
  2  1  2  0
  3  4  2  0
  3  2  1  0
  4  5  1  0
  5 19  1  0
  5  6  2  0
  7 15  1  0
  8  7  2  0
  9  8  1  0
 10 11  1  0
 10  9  2  0
 11 12  2  0
 12  7  1  0
 13 18  2  0
 14 13  1  0
 15 14  2  0
 15 16  1  0
 16 17  2  0
 17 18  1  0
 19 20  1  0
 20 21  1  0
 22 21  2  0
 23 22  1  0
 24 23  2  0
 24 20  1  0
  2 25  1  0
  3 26  1  0
  4 27  1  0
  8 28  1  0
  9 29  1  0
 10 30  1  0
 13 31  1  0
 14 32  1  0
 17 33  1  0
 19 34  1  0
 19 35  1  0
 22 36  1  0
 23 37  1  0
 24 38  1  0
M  ISO  8  25  14  26  14  27  14  28  14  29  14  30  14  31  14  32  14
M  ISO  6  33  14  34   8  35   8  36  14  37  14  38  14
M  END
>  <minimizedAffinity>  (1) 
-6.24259567

>  <minimizedRMSD>  (1) 
0.821863055

$$$$
