
     RDKit          3D

 43 46  0  0  0  0  0  0  0  0999 V2000
   46.5860   34.6410   42.1460 C   0  0  0  0  0  0  0  0  0  0  0  0
   47.8710   35.1310   41.9930 C   0  0  0  0  0  0  0  0  0  0  0  0
   48.4140   34.9170   40.7510 C   0  0  0  0  0  0  0  0  0  0  0  0
   47.7200   34.2590   39.7330 C   0  0  0  0  0  0  0  0  0  0  0  0
   46.4430   33.7990   39.9600 C   0  0  0  0  0  0  0  0  0  0  0  0
   45.9230   34.0160   41.1840 N   0  0  0  0  0  0  0  0  0  0  0  0
   44.4710   35.9920   44.8860 C   0  0  0  0  0  0  0  0  0  0  0  0
   45.0950   35.8790   43.6260 C   0  0  0  0  0  0  0  0  0  0  0  0
   45.9140   34.8110   43.4260 C   0  0  0  0  0  0  0  0  0  0  0  0
   46.0710   33.9220   44.4640 N   0  0  0  0  0  0  0  0  0  0  0  0
   45.4630   34.0560   45.6540 C   0  0  0  0  0  0  0  0  0  0  0  0
   44.6580   35.0970   45.8660 N   0  0  0  0  0  0  0  0  0  0  0  0
   45.7200   33.1130   38.9280 C   0  0  0  0  0  0  0  0  0  0  0  0
   46.3850   32.4730   37.9330 C   0  0  0  0  0  0  0  0  0  0  0  0
   45.7130   31.7850   36.9330 C   0  0  0  0  0  0  0  0  0  0  0  0
   44.3390   31.8200   37.0500 C   0  0  0  0  0  0  0  0  0  0  0  0
   43.6170   32.4640   38.0530 C   0  0  0  0  0  0  0  0  0  0  0  0
   44.3560   33.1170   38.9990 N   0  0  0  0  0  0  0  0  0  0  0  0
   42.1450   32.4330   38.0750 C   0  0  0  0  0  0  0  0  0  0  0  0
   41.7150   33.4880   38.9760 N   0  0  0  0  0  0  0  0  0  0  0  0
   40.6720   32.9930   39.8860 C   0  0  0  0  0  0  0  0  0  0  0  0
   40.0110   34.2640   40.3850 C   0  0  0  0  0  0  0  0  0  0  0  0
   40.3920   35.3340   39.3780 C   0  0  0  0  0  0  0  0  0  0  0  0
   40.9570   34.5100   38.2450 C   0  0  0  0  0  0  0  0  0  0  0  0
   48.4117   35.6485   42.7991 H   0  0  0  0  0  0  0  0  0  0  0  0
   49.4337   35.2771   40.5497 H   0  0  0  0  0  0  0  0  0  0  0  0
   48.1934   34.1087   38.7515 H   0  0  0  0  0  0  0  0  0  0  0  0
   43.8052   36.8477   45.0714 H   0  0  0  0  0  0  0  0  0  0  0  0
   44.9261   36.6253   42.8358 H   0  0  0  0  0  0  0  0  0  0  0  0
   45.6281   33.3124   46.4476 H   0  0  0  0  0  0  0  0  0  0  0  0
   47.4846   32.5004   37.9190 H   0  0  0  0  0  0  0  0  0  0  0  0
   46.2306   31.2577   36.1181 H   0  0  0  0  0  0  0  0  0  0  0  0
   43.7592   31.2902   36.2798 H   0  0  0  0  0  0  0  0  0  0  0  0
   41.7476   32.6125   37.0651 H   0  0  0  0  0  0  0  0  0  0  0  0
   41.7765   31.4528   38.4116 H   0  0  0  0  0  0  0  0  0  0  0  0
   39.9509   32.3581   39.3504 H   0  0  0  0  0  0  0  0  0  0  0  0
   41.0713   32.3683   40.6986 H   0  0  0  0  0  0  0  0  0  0  0  0
   38.9185   34.1413   40.4224 H   0  0  0  0  0  0  0  0  0  0  0  0
   40.3366   34.5237   41.4031 H   0  0  0  0  0  0  0  0  0  0  0  0
   39.5124   35.9096   39.0540 H   0  0  0  0  0  0  0  0  0  0  0  0
   41.0916   36.0858   39.7722 H   0  0  0  0  0  0  0  0  0  0  0  0
   41.6133   35.1116   37.5990 H   0  0  0  0  0  0  0  0  0  0  0  0
   40.1955   34.1020   37.5641 H   0  0  0  0  0  0  0  0  0  0  0  0
  1  9  1  0
  2  1  2  0
  3  2  1  0
  4  5  1  0
  4  3  2  0
  5  6  2  0
  6  1  1  0
  7 12  2  0
  8  7  1  0
  9  8  2  0
  9 10  1  0
 10 11  2  0
 11 12  1  0
 13 18  1  0
 13  5  1  0
 14 13  2  0
 15 16  2  0
 15 14  1  0
 16 17  1  0
 17 19  1  0
 17 18  2  0
 19 20  1  0
 20 21  1  0
 21 22  1  0
 23 22  1  0
 24 20  1  0
 24 23  1  0
  2 25  1  0
  3 26  1  0
  4 27  1  0
  7 28  1  0
  8 29  1  0
 11 30  1  0
 14 31  1  0
 15 32  1  0
 16 33  1  0
 19 34  1  0
 19 35  1  0
 21 36  1  0
 21 37  1  0
 22 38  1  0
 22 39  1  0
 23 40  1  0
 23 41  1  0
 24 42  1  0
 24 43  1  0
M  ISO  8  25  14  26  14  27  14  28  14  29  14  30  14  31  14  32  14
M  ISO  8  33  14  34   8  35   8  36  13  37  13  38  13  39  13  40  13
M  ISO  3  41  13  42  13  43  13
M  END
>  <minimizedAffinity>  (1) 
-6.20431519

>  <minimizedRMSD>  (1) 
3.28155231

$$$$
