
     RDKit          3D

 30 31  0  0  0  0  0  0  0  0999 V2000
   44.6150   36.0770   44.0840 C   0  0  0  0  0  0  0  0  0  0  0  0
   45.1960   35.7960   42.8160 C   0  0  0  0  0  0  0  0  0  0  0  0
   46.0770   34.6870   42.7390 C   0  0  0  0  0  0  0  0  0  0  0  0
   46.2900   33.9900   43.8770 N   0  0  0  0  0  0  0  0  0  0  0  0
   45.7390   34.2640   45.0590 C   0  0  0  0  0  0  0  0  0  0  0  0
   44.8920   35.3220   45.1560 N   0  0  0  0  0  0  0  0  0  0  0  0
   45.9920   33.5010   46.2320 N   0  0  0  0  0  0  0  0  0  0  0  0
   45.0010   33.3990   47.2180 C   0  0  0  0  0  0  0  0  0  0  0  0
   44.2270   34.3610   47.5080 N   0  0  0  0  0  0  0  0  0  0  0  0
   44.8160   32.1860   47.9570 N   0  0  0  0  0  0  0  0  0  0  0  0
   44.1770   35.3030   47.1210 H   0  0  0  0  0  0  0  0  0  0  0  0
   46.6390   34.4250   41.4850 N   0  0  0  0  0  0  0  0  0  0  0  0
   46.0720   33.7240   40.4780 C   0  0  0  0  0  0  0  0  0  0  0  0
   46.7220   33.5350   39.2710 C   0  0  0  0  0  0  0  0  0  0  0  0
   47.9790   34.1120   39.1750 C   0  0  0  0  0  0  0  0  0  0  0  0
   48.5910   33.9550   38.0810 O   0  0  0  0  0  0  0  0  0  0  0  0
   48.5550   34.8120   40.1720 N   0  0  0  0  0  0  0  0  0  0  0  0
   47.8710   34.9660   41.3370 C   0  0  0  0  0  0  0  0  0  0  0  0
   48.4680   35.6260   42.2150 O   0  0  0  0  0  0  0  0  0  0  0  0
   46.0790   32.7550   38.1870 C   0  0  0  0  0  0  0  0  0  0  0  0
   43.9265   36.9288   44.1862 H   0  0  0  0  0  0  0  0  0  0  0  0
   44.9715   36.4125   41.9331 H   0  0  0  0  0  0  0  0  0  0  0  0
   46.8976   33.0264   46.3563 H   0  0  0  0  0  0  0  0  0  0  0  0
   44.0827   32.1290   48.6780 H   0  0  0  0  0  0  0  0  0  0  0  0
   45.4163   31.3708   47.7674 H   0  0  0  0  0  0  0  0  0  0  0  0
   45.0700   33.2935   40.6213 H   0  0  0  0  0  0  0  0  0  0  0  0
   49.4928   35.2214   40.0542 H   0  0  0  0  0  0  0  0  0  0  0  0
   45.4375   31.9768   38.6261 H   0  0  0  0  0  0  0  0  0  0  0  0
   45.4681   33.4260   37.5652 H   0  0  0  0  0  0  0  0  0  0  0  0
   46.8542   32.2834   37.5652 H   0  0  0  0  0  0  0  0  0  0  0  0
  1  6  2  0
  2  1  1  0
  3  2  2  0
  3  4  1  0
  4  5  2  0
  5  6  1  0
  5  7  1  0
  7  8  1  0
  8  9  2  0
  8 10  1  0
 11  9  1  0
 12  3  1  0
 13 12  1  0
 14 13  2  0
 15 14  1  0
 15 17  1  0
 16 15  2  0
 17 18  1  0
 18 12  1  0
 18 19  2  0
 20 14  1  0
  1 21  1  0
  2 22  1  0
  7 23  1  0
 10 24  1  0
 10 25  1  0
 13 26  1  0
 17 27  1  0
 20 28  1  0
 20 29  1  0
 20 30  1  0
M  ISO  7  21  14  22  14  26  14  27   9  28   8  29   8  30   8
M  END
>  <minimizedAffinity>  (1) 
-6.90432739

>  <minimizedRMSD>  (1) 
0.233233273

$$$$
