
     RDKit          3D

 34 37  0  0  0  0  0  0  0  0999 V2000
   45.0530   35.0700   43.9150 C   0  0  0  0  0  0  0  0  0  0  0  0
   45.5840   35.0750   42.6010 C   0  0  0  0  0  0  0  0  0  0  0  0
   46.4870   34.0470   42.2370 C   0  0  0  0  0  0  0  0  0  0  0  0
   46.7970   33.1100   43.1680 N   0  0  0  0  0  0  0  0  0  0  0  0
   46.2770   33.1310   44.4060 C   0  0  0  0  0  0  0  0  0  0  0  0
   45.4110   34.0960   44.7920 N   0  0  0  0  0  0  0  0  0  0  0  0
   46.7280   32.0580   45.2370 N   0  0  0  0  0  0  0  0  0  0  0  0
   47.4260   30.9900   44.7930 C   0  0  0  0  0  0  0  0  0  0  0  0
   47.6670   30.1990   45.8670 N   0  0  0  0  0  0  0  0  0  0  0  0
   47.1290   30.7630   46.9700 C   0  0  0  0  0  0  0  0  0  0  0  0
   47.0610   30.4150   48.3240 C   0  0  0  0  0  0  0  0  0  0  0  0
   46.4240   31.2310   49.1890 N   0  0  0  0  0  0  0  0  0  0  0  0
   45.8510   32.3740   48.7850 C   0  0  0  0  0  0  0  0  0  0  0  0
   45.8990   32.7400   47.4740 N   0  0  0  0  0  0  0  0  0  0  0  0
   46.5320   31.9430   46.5700 C   0  0  0  0  0  0  0  0  0  0  0  0
   46.9820   34.0990   40.9250 N   0  0  0  0  0  0  0  0  0  0  0  0
   46.4930   33.4950   39.8410 C   0  0  0  0  0  0  0  0  0  0  0  0
   47.0680   33.6200   38.5900 C   0  0  0  0  0  0  0  0  0  0  0  0
   48.2010   34.4250   38.5440 C   0  0  0  0  0  0  0  0  0  0  0  0
   48.7700   34.5770   37.4250 O   0  0  0  0  0  0  0  0  0  0  0  0
   48.7280   35.0590   39.6360 N   0  0  0  0  0  0  0  0  0  0  0  0
   48.0950   34.8770   40.8250 C   0  0  0  0  0  0  0  0  0  0  0  0
   48.6380   35.4920   41.7830 O   0  0  0  0  0  0  0  0  0  0  0  0
   46.5110   32.9440   37.4160 C   0  0  0  0  0  0  0  0  0  0  0  0
   44.3494   35.8565   44.2255 H   0  0  0  0  0  0  0  0  0  0  0  0
   45.3016   35.8580   41.8819 H   0  0  0  0  0  0  0  0  0  0  0  0
   47.7394   30.7985   43.7561 H   0  0  0  0  0  0  0  0  0  0  0  0
   47.5237   29.4828   48.6802 H   0  0  0  0  0  0  0  0  0  0  0  0
   45.3401   33.0187   49.5154 H   0  0  0  0  0  0  0  0  0  0  0  0
   45.5936   32.8706   39.9469 H   0  0  0  0  0  0  0  0  0  0  0  0
   49.5688   35.6492   39.5602 H   0  0  0  0  0  0  0  0  0  0  0  0
   45.8430   32.1333   37.7423 H   0  0  0  0  0  0  0  0  0  0  0  0
   45.9427   33.6667   36.8120 H   0  0  0  0  0  0  0  0  0  0  0  0
   47.3290   32.5244   36.8120 H   0  0  0  0  0  0  0  0  0  0  0  0
  1  6  2  0
  2  1  1  0
  3  2  2  0
  3  4  1  0
  4  5  2  0
  5  6  1  0
  5  7  1  0
  7 15  1  0
  8  7  1  0
  8  9  2  0
  9 10  1  0
 10 11  2  0
 11 12  1  0
 13 12  2  0
 14 13  1  0
 15 10  1  0
 15 14  2  0
 16  3  1  0
 17 16  1  0
 18 17  2  0
 19 18  1  0
 19 21  1  0
 20 19  2  0
 21 22  1  0
 22 16  1  0
 22 23  2  0
 24 18  1  0
  1 25  1  0
  2 26  1  0
  8 27  1  0
 11 28  1  0
 13 29  1  0
 17 30  1  0
 21 31  1  0
 24 32  1  0
 24 33  1  0
 24 34  1  0
M  ISO  8  25  14  26  14  27  14  28  14  29  14  30  14  31   9  32   8
M  ISO  2  33   8  34   8
M  END
>  <minimizedAffinity>  (1) 
-6.71171093

>  <minimizedRMSD>  (1) 
1.3744173

$$$$
