
     RDKit          3D

 37 39  0  0  0  0  0  0  0  0999 V2000
   44.6290   36.0170   44.2980 C   0  0  0  0  0  0  0  0  0  0  0  0
   45.2050   35.7620   43.0280 C   0  0  0  0  0  0  0  0  0  0  0  0
   46.0180   34.6220   42.8960 C   0  0  0  0  0  0  0  0  0  0  0  0
   46.1990   33.8370   44.0010 N   0  0  0  0  0  0  0  0  0  0  0  0
   45.6350   34.1170   45.1830 C   0  0  0  0  0  0  0  0  0  0  0  0
   44.8530   35.1960   45.3420 N   0  0  0  0  0  0  0  0  0  0  0  0
   45.8900   33.2310   46.2660 N   0  0  0  0  0  0  0  0  0  0  0  0
   45.0550   33.3050   47.4490 C   0  0  0  0  0  0  0  0  0  0  0  0
   45.1600   32.0050   48.2030 C   0  0  0  0  0  0  0  0  0  0  0  0
   46.5190   31.8550   48.6560 N   0  0  0  0  0  0  0  0  0  0  0  0
   47.4920   32.1550   47.6520 C   0  0  0  0  0  0  0  0  0  0  0  0
   46.9490   32.2490   46.2530 C   0  0  0  0  0  0  0  0  0  0  0  0
   46.5760   34.3930   41.6240 N   0  0  0  0  0  0  0  0  0  0  0  0
   45.9900   33.7830   40.5840 C   0  0  0  0  0  0  0  0  0  0  0  0
   46.6250   33.6080   39.3740 C   0  0  0  0  0  0  0  0  0  0  0  0
   47.9090   34.1060   39.3070 C   0  0  0  0  0  0  0  0  0  0  0  0
   48.5480   33.9780   38.2220 O   0  0  0  0  0  0  0  0  0  0  0  0
   48.5280   34.7320   40.3550 N   0  0  0  0  0  0  0  0  0  0  0  0
   47.8380   34.8670   41.5160 C   0  0  0  0  0  0  0  0  0  0  0  0
   48.4670   35.4510   42.4310 O   0  0  0  0  0  0  0  0  0  0  0  0
   45.9600   32.9350   38.2470 C   0  0  0  0  0  0  0  0  0  0  0  0
   43.9880   36.9007   44.4332 H   0  0  0  0  0  0  0  0  0  0  0  0
   45.0224   36.4325   42.1753 H   0  0  0  0  0  0  0  0  0  0  0  0
   45.3951   34.1319   48.0898 H   0  0  0  0  0  0  0  0  0  0  0  0
   44.0096   33.4826   47.1565 H   0  0  0  0  0  0  0  0  0  0  0  0
   44.4792   32.0197   49.0669 H   0  0  0  0  0  0  0  0  0  0  0  0
   44.8824   31.1642   47.5504 H   0  0  0  0  0  0  0  0  0  0  0  0
   46.6683   32.4887   49.4542 H   0  0  0  0  0  0  0  0  0  0  0  0
   47.9567   33.1197   47.9038 H   0  0  0  0  0  0  0  0  0  0  0  0
   48.2036   31.3162   47.6513 H   0  0  0  0  0  0  0  0  0  0  0  0
   46.5526   31.2727   45.9371 H   0  0  0  0  0  0  0  0  0  0  0  0
   47.7410   32.5411   45.5477 H   0  0  0  0  0  0  0  0  0  0  0  0
   44.9626   33.4078   40.7013 H   0  0  0  0  0  0  0  0  0  0  0  0
   49.4895   35.0902   40.2652 H   0  0  0  0  0  0  0  0  0  0  0  0
   45.2360   32.2023   38.6330 H   0  0  0  0  0  0  0  0  0  0  0  0
   45.4346   33.6811   37.6328 H   0  0  0  0  0  0  0  0  0  0  0  0
   46.7123   32.4185   37.6328 H   0  0  0  0  0  0  0  0  0  0  0  0
  1  6  2  0
  2  1  1  0
  3  2  2  0
  3  4  1  0
  4  5  2  0
  5  6  1  0
  5  7  1  0
  7  8  1  0
  8  9  1  0
  9 10  1  0
 11 10  1  0
 12  7  1  0
 12 11  1  0
 13  3  1  0
 14 13  1  0
 15 14  2  0
 16 15  1  0
 16 18  1  0
 17 16  2  0
 18 19  1  0
 19 13  1  0
 19 20  2  0
 21 15  1  0
  1 22  1  0
  2 23  1  0
  8 24  1  0
  8 25  1  0
  9 26  1  0
  9 27  1  0
 10 28  1  0
 11 29  1  0
 11 30  1  0
 12 31  1  0
 12 32  1  0
 14 33  1  0
 18 34  1  0
 21 35  1  0
 21 36  1  0
 21 37  1  0
M  ISO  8  22  14  23  14  24  13  25  13  26  13  27  13  28   5  29  13
M  ISO  8  30  13  31  13  32  13  33  14  34   9  35   8  36   8  37   8
M  END
>  <minimizedAffinity>  (1) 
-6.44575262

>  <minimizedRMSD>  (1) 
0.133750021

$$$$
