
     RDKit          3D

 38 40  0  0  0  0  0  0  0  0999 V2000
   44.9570   35.5500   44.1460 C   0  0  0  0  0  0  0  0  0  0  0  0
   45.4940   35.4410   42.8460 C   0  0  0  0  0  0  0  0  0  0  0  0
   46.2880   34.3090   42.5490 C   0  0  0  0  0  0  0  0  0  0  0  0
   46.4960   33.3830   43.5320 N   0  0  0  0  0  0  0  0  0  0  0  0
   45.9550   33.5420   44.7600 C   0  0  0  0  0  0  0  0  0  0  0  0
   45.1970   34.5980   45.0830 N   0  0  0  0  0  0  0  0  0  0  0  0
   46.2160   32.5350   45.7310 N   0  0  0  0  0  0  0  0  0  0  0  0
   46.5900   32.8880   47.0870 C   0  0  0  0  0  0  0  0  0  0  0  0
   45.4050   32.4950   47.9390 C   0  0  0  0  0  0  0  0  0  0  0  0
   45.1630   31.0320   47.8440 C   0  0  0  0  0  0  0  0  0  0  0  0
   45.7840   30.3210   46.7040 C   0  0  0  0  0  0  0  0  0  0  0  0
   46.1480   31.1320   45.5090 C   0  0  0  0  0  0  0  0  0  0  0  0
   46.8020   34.2390   41.2430 N   0  0  0  0  0  0  0  0  0  0  0  0
   46.2660   33.6140   40.1890 C   0  0  0  0  0  0  0  0  0  0  0  0
   46.8760   33.6180   38.9430 C   0  0  0  0  0  0  0  0  0  0  0  0
   48.0650   34.3030   38.8580 C   0  0  0  0  0  0  0  0  0  0  0  0
   48.6450   34.3270   37.7400 O   0  0  0  0  0  0  0  0  0  0  0  0
   48.6260   34.9420   39.9090 N   0  0  0  0  0  0  0  0  0  0  0  0
   47.9800   34.9040   41.1100 C   0  0  0  0  0  0  0  0  0  0  0  0
   48.5660   35.5200   42.0340 O   0  0  0  0  0  0  0  0  0  0  0  0
   46.2400   32.9090   37.8050 C   0  0  0  0  0  0  0  0  0  0  0  0
   44.3345   36.4195   44.4040 H   0  0  0  0  0  0  0  0  0  0  0  0
   45.3010   36.2130   42.0865 H   0  0  0  0  0  0  0  0  0  0  0  0
   47.4884   32.3337   47.3962 H   0  0  0  0  0  0  0  0  0  0  0  0
   46.8290   33.9574   47.1828 H   0  0  0  0  0  0  0  0  0  0  0  0
   45.6072   32.7619   48.9868 H   0  0  0  0  0  0  0  0  0  0  0  0
   44.5132   33.0289   47.5790 H   0  0  0  0  0  0  0  0  0  0  0  0
   45.5425   30.5721   48.7684 H   0  0  0  0  0  0  0  0  0  0  0  0
   44.0789   30.9313   47.6872 H   0  0  0  0  0  0  0  0  0  0  0  0
   46.7045   29.8453   47.0733 H   0  0  0  0  0  0  0  0  0  0  0  0
   45.0085   29.6267   46.3483 H   0  0  0  0  0  0  0  0  0  0  0  0
   45.3951   30.9464   44.7288 H   0  0  0  0  0  0  0  0  0  0  0  0
   47.1623   30.8174   45.2221 H   0  0  0  0  0  0  0  0  0  0  0  0
   45.3122   33.0804   40.3139 H   0  0  0  0  0  0  0  0  0  0  0  0
   49.5189   35.4450   39.8056 H   0  0  0  0  0  0  0  0  0  0  0  0
   45.5518   32.1418   38.1895 H   0  0  0  0  0  0  0  0  0  0  0  0
   45.6798   33.6296   37.1910 H   0  0  0  0  0  0  0  0  0  0  0  0
   47.0170   32.4301   37.1910 H   0  0  0  0  0  0  0  0  0  0  0  0
  1  6  2  0
  2  1  1  0
  3  2  2  0
  3  4  1  0
  4  5  2  0
  5  6  1  0
  5  7  1  0
  7  8  1  0
  8  9  1  0
 10  9  1  0
 11 10  1  0
 12  7  1  0
 12 11  1  0
 13  3  1  0
 14 13  1  0
 15 14  2  0
 16 15  1  0
 16 18  1  0
 17 16  2  0
 18 19  1  0
 19 13  1  0
 19 20  2  0
 21 15  1  0
  1 22  1  0
  2 23  1  0
  8 24  1  0
  8 25  1  0
  9 26  1  0
  9 27  1  0
 10 28  1  0
 10 29  1  0
 11 30  1  0
 11 31  1  0
 12 32  1  0
 12 33  1  0
 14 34  1  0
 18 35  1  0
 21 36  1  0
 21 37  1  0
 21 38  1  0
M  ISO  8  22  14  23  14  24  13  25  13  26  13  27  13  28  13  29  13
M  ISO  8  30  13  31  13  32  13  33  13  34  14  35   9  36   8  37   8
M  ISO  1  38   8
M  END
>  <minimizedAffinity>  (1) 
-6.37470341

>  <minimizedRMSD>  (1) 
0.670437157

$$$$
