
     RDKit          3D

 33 35  0  0  0  0  0  0  0  0999 V2000
   44.6110   35.8160   44.4690 C   0  0  0  0  0  0  0  0  0  0  0  0
   45.1720   35.6090   43.1800 C   0  0  0  0  0  0  0  0  0  0  0  0
   46.0210   34.4920   43.0100 C   0  0  0  0  0  0  0  0  0  0  0  0
   46.2590   33.6770   44.0760 N   0  0  0  0  0  0  0  0  0  0  0  0
   45.7030   33.9140   45.2840 C   0  0  0  0  0  0  0  0  0  0  0  0
   44.8920   34.9630   45.4860 N   0  0  0  0  0  0  0  0  0  0  0  0
   46.5600   34.3170   41.7210 N   0  0  0  0  0  0  0  0  0  0  0  0
   45.9740   33.7260   40.6690 C   0  0  0  0  0  0  0  0  0  0  0  0
   46.5930   33.6050   39.4410 C   0  0  0  0  0  0  0  0  0  0  0  0
   47.8630   34.1370   39.3750 C   0  0  0  0  0  0  0  0  0  0  0  0
   48.4930   34.0630   38.2760 O   0  0  0  0  0  0  0  0  0  0  0  0
   48.4830   34.7420   40.4210 N   0  0  0  0  0  0  0  0  0  0  0  0
   47.8100   34.8240   41.6030 C   0  0  0  0  0  0  0  0  0  0  0  0
   48.4430   35.3920   42.5180 O   0  0  0  0  0  0  0  0  0  0  0  0
   45.9290   32.9540   38.3070 C   0  0  0  0  0  0  0  0  0  0  0  0
   45.9840   33.0150   46.3990 C   0  0  0  0  0  0  0  0  0  0  0  0
   47.0650   32.1390   46.3250 C   0  0  0  0  0  0  0  0  0  0  0  0
   47.3390   31.2840   47.3740 C   0  0  0  0  0  0  0  0  0  0  0  0
   46.5230   31.3090   48.5030 C   0  0  0  0  0  0  0  0  0  0  0  0
   45.4480   32.1640   48.6020 C   0  0  0  0  0  0  0  0  0  0  0  0
   45.2070   32.9980   47.5400 C   0  0  0  0  0  0  0  0  0  0  0  0
   43.9445   36.6735   44.6435 H   0  0  0  0  0  0  0  0  0  0  0  0
   44.9538   36.2923   42.3460 H   0  0  0  0  0  0  0  0  0  0  0  0
   44.9584   33.3211   40.7898 H   0  0  0  0  0  0  0  0  0  0  0  0
   49.4333   35.1272   40.3237 H   0  0  0  0  0  0  0  0  0  0  0  0
   45.1903   32.2298   38.6811 H   0  0  0  0  0  0  0  0  0  0  0  0
   45.4205   33.7133   37.6947 H   0  0  0  0  0  0  0  0  0  0  0  0
   46.6781   32.4306   37.6947 H   0  0  0  0  0  0  0  0  0  0  0  0
   47.7020   32.1285   45.4283 H   0  0  0  0  0  0  0  0  0  0  0  0
   48.1916   30.5912   47.3190 H   0  0  0  0  0  0  0  0  0  0  0  0
   46.7434   30.6274   49.3378 H   0  0  0  0  0  0  0  0  0  0  0  0
   44.8083   32.1776   49.4968 H   0  0  0  0  0  0  0  0  0  0  0  0
   44.3521   33.6876   47.6005 H   0  0  0  0  0  0  0  0  0  0  0  0
  1  6  2  0
  2  1  1  0
  3  2  2  0
  3  4  1  0
  4  5  2  0
  5  6  1  0
  5 16  1  0
  7  3  1  0
  8  7  1  0
  9  8  2  0
 10  9  1  0
 10 12  1  0
 11 10  2  0
 12 13  1  0
 13  7  1  0
 13 14  2  0
 15  9  1  0
 16 21  1  0
 17 16  2  0
 17 18  1  0
 18 19  2  0
 19 20  1  0
 21 20  2  0
  1 22  1  0
  2 23  1  0
  8 24  1  0
 12 25  1  0
 15 26  1  0
 15 27  1  0
 15 28  1  0
 17 29  1  0
 18 30  1  0
 19 31  1  0
 20 32  1  0
 21 33  1  0
M  ISO  8  22  14  23  14  24  14  25   9  26   8  27   8  28   8  29  14
M  ISO  4  30  14  31  14  32  14  33  14
M  END
>  <minimizedAffinity>  (1) 
-6.3525238

>  <minimizedRMSD>  (1) 
0.562415063

$$$$
