
     RDKit          3D

 32 34  0  0  0  0  0  0  0  0999 V2000
   44.6100   35.7840   44.4760 C   0  0  0  0  0  0  0  0  0  0  0  0
   45.1780   35.5730   43.1950 C   0  0  0  0  0  0  0  0  0  0  0  0
   46.0420   34.4890   43.0090 C   0  0  0  0  0  0  0  0  0  0  0  0
   46.2940   33.6830   44.0900 N   0  0  0  0  0  0  0  0  0  0  0  0
   45.7360   33.9130   45.2940 C   0  0  0  0  0  0  0  0  0  0  0  0
   44.9020   34.9550   45.4840 N   0  0  0  0  0  0  0  0  0  0  0  0
   46.5800   34.3190   41.7250 N   0  0  0  0  0  0  0  0  0  0  0  0
   45.9840   33.7230   40.6740 C   0  0  0  0  0  0  0  0  0  0  0  0
   46.6000   33.6050   39.4450 C   0  0  0  0  0  0  0  0  0  0  0  0
   47.8640   34.1380   39.3710 C   0  0  0  0  0  0  0  0  0  0  0  0
   48.4890   34.0660   38.2720 O   0  0  0  0  0  0  0  0  0  0  0  0
   48.4880   34.7460   40.4190 N   0  0  0  0  0  0  0  0  0  0  0  0
   47.8260   34.8280   41.5990 C   0  0  0  0  0  0  0  0  0  0  0  0
   48.4560   35.3980   42.5190 O   0  0  0  0  0  0  0  0  0  0  0  0
   45.9180   32.9470   38.3150 C   0  0  0  0  0  0  0  0  0  0  0  0
   46.0380   33.0330   46.3900 C   0  0  0  0  0  0  0  0  0  0  0  0
   45.2130   32.9720   47.5080 C   0  0  0  0  0  0  0  0  0  0  0  0
   45.4660   32.1460   48.5760 C   0  0  0  0  0  0  0  0  0  0  0  0
   46.5850   31.3400   48.5420 C   0  0  0  0  0  0  0  0  0  0  0  0
   47.4050   31.4060   47.4220 C   0  0  0  0  0  0  0  0  0  0  0  0
   47.1040   32.2330   46.4130 N   0  0  0  0  0  0  0  0  0  0  0  0
   43.9279   36.6309   44.6415 H   0  0  0  0  0  0  0  0  0  0  0  0
   44.9433   36.2505   42.3608 H   0  0  0  0  0  0  0  0  0  0  0  0
   44.9699   33.3159   40.8002 H   0  0  0  0  0  0  0  0  0  0  0  0
   49.4372   35.1328   40.3171 H   0  0  0  0  0  0  0  0  0  0  0  0
   45.1766   32.2317   38.7005 H   0  0  0  0  0  0  0  0  0  0  0  0
   45.4108   33.7056   37.7008 H   0  0  0  0  0  0  0  0  0  0  0  0
   46.6580   32.4129   37.7008 H   0  0  0  0  0  0  0  0  0  0  0  0
   44.3194   33.6128   47.5383 H   0  0  0  0  0  0  0  0  0  0  0  0
   44.7887   32.1276   49.4425 H   0  0  0  0  0  0  0  0  0  0  0  0
   46.8214   30.6645   49.3774 H   0  0  0  0  0  0  0  0  0  0  0  0
   48.3050   30.7762   47.3642 H   0  0  0  0  0  0  0  0  0  0  0  0
  1  6  2  0
  2  1  1  0
  3  2  2  0
  3  4  1  0
  4  5  2  0
  5  6  1  0
  5 16  1  0
  7  3  1  0
  8  7  1  0
  9  8  2  0
 10  9  1  0
 10 12  1  0
 11 10  2  0
 12 13  1  0
 13  7  1  0
 13 14  2  0
 15  9  1  0
 16 21  1  0
 16 17  2  0
 17 18  1  0
 19 18  2  0
 20 19  1  0
 21 20  2  0
  1 22  1  0
  2 23  1  0
  8 24  1  0
 12 25  1  0
 15 26  1  0
 15 27  1  0
 15 28  1  0
 17 29  1  0
 18 30  1  0
 19 31  1  0
 20 32  1  0
M  ISO  8  22  14  23  14  24  14  25   9  26   8  27   8  28   8  29  14
M  ISO  3  30  14  31  14  32  14
M  END
>  <minimizedAffinity>  (1) 
-6.28667498

>  <minimizedRMSD>  (1) 
0.443473577

$$$$
