
     RDKit          3D

 30 32  0  0  0  0  0  0  0  0999 V2000
   46.5900   34.4340   41.5190 N   0  0  0  0  0  0  0  0  0  0  0  0
   46.0090   33.7840   40.4820 C   0  0  0  0  0  0  0  0  0  0  0  0
   46.6740   33.5960   39.2860 C   0  0  0  0  0  0  0  0  0  0  0  0
   47.9640   34.1160   39.2330 C   0  0  0  0  0  0  0  0  0  0  0  0
   48.5950   33.9570   38.1480 O   0  0  0  0  0  0  0  0  0  0  0  0
   48.5440   34.7630   40.2650 N   0  0  0  0  0  0  0  0  0  0  0  0
   47.8410   34.9180   41.4150 C   0  0  0  0  0  0  0  0  0  0  0  0
   48.4480   35.5270   42.3230 O   0  0  0  0  0  0  0  0  0  0  0  0
   44.5900   36.1100   44.1300 C   0  0  0  0  0  0  0  0  0  0  0  0
   45.1920   35.8330   42.8720 C   0  0  0  0  0  0  0  0  0  0  0  0
   46.0080   34.6820   42.7780 C   0  0  0  0  0  0  0  0  0  0  0  0
   46.1590   33.9260   43.8930 N   0  0  0  0  0  0  0  0  0  0  0  0
   45.5750   34.2200   45.0620 C   0  0  0  0  0  0  0  0  0  0  0  0
   44.7940   35.3010   45.1970 N   0  0  0  0  0  0  0  0  0  0  0  0
   45.8240   33.3170   46.1850 C   0  0  0  0  0  0  0  0  0  0  0  0
   46.8900   32.4320   46.2050 C   0  0  0  0  0  0  0  0  0  0  0  0
   46.7920   31.7740   47.3900 C   0  0  0  0  0  0  0  0  0  0  0  0
   45.6930   32.2540   48.0640 C   0  0  0  0  0  0  0  0  0  0  0  0
   45.1370   33.1870   47.2980 O   0  0  0  0  0  0  0  0  0  0  0  0
   46.0110   32.8810   38.1680 C   0  0  0  0  0  0  0  0  0  0  0  0
   44.9853   33.3975   40.5949 H   0  0  0  0  0  0  0  0  0  0  0  0
   49.5019   35.1321   40.1815 H   0  0  0  0  0  0  0  0  0  0  0  0
   43.9477   36.9964   44.2385 H   0  0  0  0  0  0  0  0  0  0  0  0
   45.0291   36.4894   42.0045 H   0  0  0  0  0  0  0  0  0  0  0  0
   47.6541   32.2917   45.4263 H   0  0  0  0  0  0  0  0  0  0  0  0
   47.4755   30.9905   47.7493 H   0  0  0  0  0  0  0  0  0  0  0  0
   45.3400   31.9265   49.0530 H   0  0  0  0  0  0  0  0  0  0  0  0
   45.3157   32.1312   38.5733 H   0  0  0  0  0  0  0  0  0  0  0  0
   45.4543   33.6015   37.5508 H   0  0  0  0  0  0  0  0  0  0  0  0
   46.7714   32.3801   37.5508 H   0  0  0  0  0  0  0  0  0  0  0  0
  1 11  1  0
  2  1  1  0
  3  2  2  0
  4  3  1  0
  4  6  1  0
  5  4  2  0
  6  7  1  0
  7  1  1  0
  7  8  2  0
  9 14  2  0
 10  9  1  0
 11 10  2  0
 11 12  1  0
 12 13  2  0
 13 14  1  0
 13 15  1  0
 15 16  2  0
 15 19  1  0
 16 17  1  0
 17 18  2  0
 19 18  1  0
 20  3  1  0
  2 21  1  0
  6 22  1  0
  9 23  1  0
 10 24  1  0
 16 25  1  0
 17 26  1  0
 18 27  1  0
 20 28  1  0
 20 29  1  0
 20 30  1  0
M  ISO  8  21  14  22   9  23  14  24  14  25  14  26  14  27  14  28   8
M  ISO  2  29   8  30   8
M  END
>  <minimizedAffinity>  (1) 
-6.03792715

>  <minimizedRMSD>  (1) 
0.189597949

$$$$
