
     RDKit          3D

 26 27  0  0  0  0  0  0  0  0999 V2000
   46.6040   34.4010   41.5690 N   0  0  0  0  0  0  0  0  0  0  0  0
   46.0100   33.7830   40.5190 C   0  0  0  0  0  0  0  0  0  0  0  0
   46.6490   33.6280   39.3090 C   0  0  0  0  0  0  0  0  0  0  0  0
   47.9310   34.1450   39.2500 C   0  0  0  0  0  0  0  0  0  0  0  0
   48.5740   34.0330   38.1580 O   0  0  0  0  0  0  0  0  0  0  0  0
   48.5330   34.7610   40.2860 N   0  0  0  0  0  0  0  0  0  0  0  0
   47.8570   34.8880   41.4600 C   0  0  0  0  0  0  0  0  0  0  0  0
   48.4770   35.4700   42.3760 O   0  0  0  0  0  0  0  0  0  0  0  0
   44.6890   36.0090   44.2730 C   0  0  0  0  0  0  0  0  0  0  0  0
   45.2650   35.7860   42.9900 C   0  0  0  0  0  0  0  0  0  0  0  0
   46.0410   34.6090   42.8410 C   0  0  0  0  0  0  0  0  0  0  0  0
   46.1860   33.7780   43.9150 N   0  0  0  0  0  0  0  0  0  0  0  0
   45.6170   34.0440   45.1040 C   0  0  0  0  0  0  0  0  0  0  0  0
   44.8730   35.1470   45.2920 N   0  0  0  0  0  0  0  0  0  0  0  0
   45.8230   33.0880   46.2260 C   0  0  0  0  0  0  0  0  0  0  0  0
   47.0780   33.2370   46.7870 F   0  0  0  0  0  0  0  0  0  0  0  0
   45.6690   31.7830   45.8560 F   0  0  0  0  0  0  0  0  0  0  0  0
   44.9250   33.4510   47.2310 F   0  0  0  0  0  0  0  0  0  0  0  0
   45.9920   32.9520   38.1700 C   0  0  0  0  0  0  0  0  0  0  0  0
   44.9879   33.3940   40.6368 H   0  0  0  0  0  0  0  0  0  0  0  0
   49.4899   35.1300   40.1908 H   0  0  0  0  0  0  0  0  0  0  0  0
   44.0777   36.9088   44.4365 H   0  0  0  0  0  0  0  0  0  0  0  0
   45.1157   36.4901   42.1581 H   0  0  0  0  0  0  0  0  0  0  0  0
   45.2722   32.2114   38.5488 H   0  0  0  0  0  0  0  0  0  0  0  0
   45.4634   33.6968   37.5569 H   0  0  0  0  0  0  0  0  0  0  0  0
   46.7516   32.4449   37.5569 H   0  0  0  0  0  0  0  0  0  0  0  0
  1 11  1  0
  2  1  1  0
  3  2  2  0
  4  3  1  0
  4  6  1  0
  5  4  2  0
  6  7  1  0
  7  1  1  0
  7  8  2  0
  9 14  2  0
 10  9  1  0
 11 10  2  0
 11 12  1  0
 12 13  2  0
 13 14  1  0
 13 15  1  0
 15 16  1  0
 15 18  1  0
 17 15  1  0
 19  3  1  0
  2 20  1  0
  6 21  1  0
  9 22  1  0
 10 23  1  0
 19 24  1  0
 19 25  1  0
 19 26  1  0
M  ISO  7  20  14  21   9  22  14  23  14  24   8  25   8  26   8
M  END
>  <minimizedAffinity>  (1) 
-5.75199175

>  <minimizedRMSD>  (1) 
0.197872251

$$$$
