
     RDKit          3D

 36 38  0  0  0  0  0  0  0  0999 V2000
   46.8840   33.9530   42.0550 N   0  0  0  0  0  0  0  0  0  0  0  0
   46.2320   33.5020   40.9820 C   0  0  0  0  0  0  0  0  0  0  0  0
   46.7360   33.6270   39.7010 C   0  0  0  0  0  0  0  0  0  0  0  0
   47.9640   34.2500   39.6060 C   0  0  0  0  0  0  0  0  0  0  0  0
   48.4580   34.3820   38.4530 O   0  0  0  0  0  0  0  0  0  0  0  0
   48.6460   34.7170   40.6870 N   0  0  0  0  0  0  0  0  0  0  0  0
   48.0860   34.5590   41.9100 C   0  0  0  0  0  0  0  0  0  0  0  0
   48.7740   35.0140   42.8620 O   0  0  0  0  0  0  0  0  0  0  0  0
   45.0880   34.7950   45.1660 C   0  0  0  0  0  0  0  0  0  0  0  0
   45.5210   34.8550   43.8070 C   0  0  0  0  0  0  0  0  0  0  0  0
   46.4650   33.8810   43.4060 C   0  0  0  0  0  0  0  0  0  0  0  0
   46.8880   32.9710   44.3190 N   0  0  0  0  0  0  0  0  0  0  0  0
   46.4520   32.9560   45.5830 C   0  0  0  0  0  0  0  0  0  0  0  0
   45.5580   33.8560   46.0180 N   0  0  0  0  0  0  0  0  0  0  0  0
   46.9850   31.9130   46.5000 C   0  0  0  0  0  0  0  0  0  0  0  0
   47.2450   32.5020   47.8840 C   0  0  0  0  0  0  0  0  0  0  0  0
   46.1780   31.9080   48.7750 C   0  0  0  0  0  0  0  0  0  0  0  0
   45.2170   31.1530   47.9050 C   0  0  0  0  0  0  0  0  0  0  0  0
   46.0650   30.7620   46.7180 C   0  0  0  0  0  0  0  0  0  0  0  0
   45.9790   33.1110   38.5330 C   0  0  0  0  0  0  0  0  0  0  0  0
   45.2570   33.0124   41.1219 H   0  0  0  0  0  0  0  0  0  0  0  0
   49.5611   35.1771   40.5783 H   0  0  0  0  0  0  0  0  0  0  0  0
   44.3545   35.5302   45.5287 H   0  0  0  0  0  0  0  0  0  0  0  0
   45.1414   35.6167   43.1101 H   0  0  0  0  0  0  0  0  0  0  0  0
   47.8998   31.5561   46.0042 H   0  0  0  0  0  0  0  0  0  0  0  0
   48.2465   32.2201   48.2411 H   0  0  0  0  0  0  0  0  0  0  0  0
   47.2086   33.6014   47.8762 H   0  0  0  0  0  0  0  0  0  0  0  0
   46.6380   31.2247   49.5040 H   0  0  0  0  0  0  0  0  0  0  0  0
   45.6529   32.7027   49.3253 H   0  0  0  0  0  0  0  0  0  0  0  0
   44.8295   30.2637   48.4237 H   0  0  0  0  0  0  0  0  0  0  0  0
   44.3301   31.7417   47.6279 H   0  0  0  0  0  0  0  0  0  0  0  0
   45.4352   30.5981   45.8311 H   0  0  0  0  0  0  0  0  0  0  0  0
   46.6132   29.8249   46.8949 H   0  0  0  0  0  0  0  0  0  0  0  0
   45.1177   32.5239   38.8846 H   0  0  0  0  0  0  0  0  0  0  0  0
   45.6233   33.9555   37.9245 H   0  0  0  0  0  0  0  0  0  0  0  0
   46.6350   32.4712   37.9245 H   0  0  0  0  0  0  0  0  0  0  0  0
  1 11  1  0
  2  1  1  0
  3  2  2  0
  4  3  1  0
  4  6  1  0
  5  4  2  0
  6  7  1  0
  7  1  1  0
  7  8  2  0
  9 14  2  0
 10  9  1  0
 11 10  2  0
 11 12  1  0
 12 13  2  0
 13 14  1  0
 13 15  1  0
 15 19  1  0
 15 16  1  0
 16 17  1  0
 18 17  1  0
 19 18  1  0
 20  3  1  0
  2 21  1  0
  6 22  1  0
  9 23  1  0
 10 24  1  0
 15 25  1  0
 16 26  1  0
 16 27  1  0
 17 28  1  0
 17 29  1  0
 18 30  1  0
 18 31  1  0
 19 32  1  0
 19 33  1  0
 20 34  1  0
 20 35  1  0
 20 36  1  0
M  ISO  8  21  14  22   9  23  14  24  14  25  13  26  13  27  13  28  13
M  ISO  8  29  13  30  13  31  13  32  13  33  13  34   8  35   8  36   8
M  END
>  <minimizedAffinity>  (1) 
-5.7052865

>  <minimizedRMSD>  (1) 
1.30202651

$$$$
