
     RDKit          3D

 32 33  0  0  0  0  0  0  0  0999 V2000
   46.6710   34.3670   41.4610 N   0  0  0  0  0  0  0  0  0  0  0  0
   46.1050   33.6880   40.4390 C   0  0  0  0  0  0  0  0  0  0  0  0
   46.7350   33.5880   39.2080 C   0  0  0  0  0  0  0  0  0  0  0  0
   47.9530   34.2190   39.1050 C   0  0  0  0  0  0  0  0  0  0  0  0
   48.5660   34.1560   37.9990 O   0  0  0  0  0  0  0  0  0  0  0  0
   48.5240   34.8990   40.1220 N   0  0  0  0  0  0  0  0  0  0  0  0
   47.8610   34.9650   41.3100 C   0  0  0  0  0  0  0  0  0  0  0  0
   48.4520   35.6150   42.2120 O   0  0  0  0  0  0  0  0  0  0  0  0
   44.6340   35.7520   44.2060 C   0  0  0  0  0  0  0  0  0  0  0  0
   45.1950   35.5680   42.9130 C   0  0  0  0  0  0  0  0  0  0  0  0
   46.1250   34.5350   42.7560 C   0  0  0  0  0  0  0  0  0  0  0  0
   46.4480   33.7610   43.8450 N   0  0  0  0  0  0  0  0  0  0  0  0
   45.8880   33.9810   45.0470 C   0  0  0  0  0  0  0  0  0  0  0  0
   44.9900   34.9580   45.2460 N   0  0  0  0  0  0  0  0  0  0  0  0
   46.3210   33.0710   46.1540 C   0  0  0  0  0  0  0  0  0  0  0  0
   45.3300   33.0530   47.2770 C   0  0  0  0  0  0  0  0  0  0  0  0
   46.4800   31.6810   45.5480 C   0  0  0  0  0  0  0  0  0  0  0  0
   46.1000   32.8390   38.0980 C   0  0  0  0  0  0  0  0  0  0  0  0
   45.1272   33.2061   40.5863 H   0  0  0  0  0  0  0  0  0  0  0  0
   49.4389   35.3568   40.0024 H   0  0  0  0  0  0  0  0  0  0  0  0
   43.8975   36.5532   44.3659 H   0  0  0  0  0  0  0  0  0  0  0  0
   44.9090   36.2127   42.0689 H   0  0  0  0  0  0  0  0  0  0  0  0
   47.2683   33.4244   46.5873 H   0  0  0  0  0  0  0  0  0  0  0  0
   45.8648   33.0627   48.2382 H   0  0  0  0  0  0  0  0  0  0  0  0
   44.6824   33.9395   47.2088 H   0  0  0  0  0  0  0  0  0  0  0  0
   44.7150   32.1435   47.2088 H   0  0  0  0  0  0  0  0  0  0  0  0
   46.5651   30.9372   46.3539 H   0  0  0  0  0  0  0  0  0  0  0  0
   45.6025   31.4494   44.9264 H   0  0  0  0  0  0  0  0  0  0  0  0
   47.3871   31.6536   44.9264 H   0  0  0  0  0  0  0  0  0  0  0  0
   45.4406   32.0612   38.5105 H   0  0  0  0  0  0  0  0  0  0  0  0
   45.5090   33.5307   37.4798 H   0  0  0  0  0  0  0  0  0  0  0  0
   46.8791   32.3691   37.4798 H   0  0  0  0  0  0  0  0  0  0  0  0
  1 11  1  0
  2  1  1  0
  3  2  2  0
  4  3  1  0
  4  6  1  0
  5  4  2  0
  6  7  1  0
  7  1  1  0
  7  8  2  0
  9 14  2  0
 10  9  1  0
 11 10  2  0
 11 12  1  0
 12 13  2  0
 13 14  1  0
 13 15  1  0
 15 16  1  0
 17 15  1  0
 18  3  1  0
  2 19  1  0
  6 20  1  0
  9 21  1  0
 10 22  1  0
 15 23  1  0
 16 24  1  0
 16 25  1  0
 16 26  1  0
 17 27  1  0
 17 28  1  0
 17 29  1  0
 18 30  1  0
 18 31  1  0
 18 32  1  0
M  ISO  8  19  14  20   9  21  14  22  14  23   8  24   8  25   8  26   8
M  ISO  6  27   8  28   8  29   8  30   8  31   8  32   8
M  END
>  <minimizedAffinity>  (1) 
-5.33867979

>  <minimizedRMSD>  (1) 
0.328941584

$$$$
