
     RDKit          3D

 30 32  0  0  0  0  0  0  0  0999 V2000
   46.6420   34.3740   41.4280 N   0  0  0  0  0  0  0  0  0  0  0  0
   46.0840   33.7530   40.3780 C   0  0  0  0  0  0  0  0  0  0  0  0
   46.7270   33.6590   39.1570 C   0  0  0  0  0  0  0  0  0  0  0  0
   47.9750   34.2450   39.0950 C   0  0  0  0  0  0  0  0  0  0  0  0
   48.6170   34.1940   38.0060 O   0  0  0  0  0  0  0  0  0  0  0  0
   48.5570   34.8790   40.1510 N   0  0  0  0  0  0  0  0  0  0  0  0
   47.8730   34.9370   41.3230 C   0  0  0  0  0  0  0  0  0  0  0  0
   48.4750   35.5360   42.2440 O   0  0  0  0  0  0  0  0  0  0  0  0
   44.7890   35.9100   44.2310 C   0  0  0  0  0  0  0  0  0  0  0  0
   45.3650   35.7240   42.9400 C   0  0  0  0  0  0  0  0  0  0  0  0
   46.0860   34.5300   42.7070 C   0  0  0  0  0  0  0  0  0  0  0  0
   46.1790   33.6440   43.7350 N   0  0  0  0  0  0  0  0  0  0  0  0
   45.6260   33.8470   44.9380 C   0  0  0  0  0  0  0  0  0  0  0  0
   44.9280   34.9850   45.1890 N   0  0  0  0  0  0  0  0  0  0  0  0
   45.7810   32.8280   45.9900 C   0  0  0  0  0  0  0  0  0  0  0  0
   46.8890   32.8120   46.9580 C   0  0  0  0  0  0  0  0  0  0  0  0
   47.0250   31.9320   45.7640 C   0  0  0  0  0  0  0  0  0  0  0  0
   46.1010   32.9740   38.0130 C   0  0  0  0  0  0  0  0  0  0  0  0
   45.0856   33.3053   40.4914 H   0  0  0  0  0  0  0  0  0  0  0  0
   49.4914   35.3033   40.0629 H   0  0  0  0  0  0  0  0  0  0  0  0
   44.2214   36.8280   44.4433 H   0  0  0  0  0  0  0  0  0  0  0  0
   45.2524   36.4834   42.1522 H   0  0  0  0  0  0  0  0  0  0  0  0
   44.6942   32.7510   46.1415 H   0  0  0  0  0  0  0  0  0  0  0  0
   47.5358   33.6965   47.0549 H   0  0  0  0  0  0  0  0  0  0  0  0
   46.9473   32.6348   48.0421 H   0  0  0  0  0  0  0  0  0  0  0  0
   46.9492   30.8395   45.8672 H   0  0  0  0  0  0  0  0  0  0  0  0
   47.7662   31.7967   44.9625 H   0  0  0  0  0  0  0  0  0  0  0  0
   45.4018   32.2089   38.3816 H   0  0  0  0  0  0  0  0  0  0  0  0
   45.5539   33.7067   37.4016 H   0  0  0  0  0  0  0  0  0  0  0  0
   46.8798   32.4949   37.4016 H   0  0  0  0  0  0  0  0  0  0  0  0
  1 11  1  0
  2  1  1  0
  3  2  2  0
  4  3  1  0
  4  6  1  0
  5  4  2  0
  6  7  1  0
  7  1  1  0
  7  8  2  0
  9 14  2  0
 10  9  1  0
 11 10  2  0
 11 12  1  0
 12 13  2  0
 13 14  1  0
 13 15  1  0
 15 16  1  0
 17 15  1  0
 17 16  1  0
 18  3  1  0
  2 19  1  0
  6 20  1  0
  9 21  1  0
 10 22  1  0
 15 23  1  0
 16 24  1  0
 16 25  1  0
 17 26  1  0
 17 27  1  0
 18 28  1  0
 18 29  1  0
 18 30  1  0
M  ISO  8  19  14  20   9  21  14  22  14  23  13  24  13  25  13  26  13
M  ISO  4  27  13  28   8  29   8  30   8
M  END
>  <minimizedAffinity>  (1) 
-5.29671812

>  <minimizedRMSD>  (1) 
0.33123228

$$$$
