
     RDKit          3D

 26 27  0  0  0  0  0  0  0  0999 V2000
   46.6100   34.3970   41.5230 N   0  0  0  0  0  0  0  0  0  0  0  0
   46.0350   33.7740   40.4840 C   0  0  0  0  0  0  0  0  0  0  0  0
   46.6710   33.6220   39.2700 C   0  0  0  0  0  0  0  0  0  0  0  0
   47.9400   34.1550   39.2010 C   0  0  0  0  0  0  0  0  0  0  0  0
   48.5830   34.0490   38.1080 O   0  0  0  0  0  0  0  0  0  0  0  0
   48.5420   34.7890   40.2340 N   0  0  0  0  0  0  0  0  0  0  0  0
   47.8570   34.9020   41.4020 C   0  0  0  0  0  0  0  0  0  0  0  0
   48.4820   35.5010   42.3110 O   0  0  0  0  0  0  0  0  0  0  0  0
   44.6680   36.0070   44.2160 C   0  0  0  0  0  0  0  0  0  0  0  0
   45.2450   35.7480   42.9530 C   0  0  0  0  0  0  0  0  0  0  0  0
   46.0570   34.6090   42.8030 C   0  0  0  0  0  0  0  0  0  0  0  0
   46.2460   33.8120   43.8890 N   0  0  0  0  0  0  0  0  0  0  0  0
   45.6740   34.0960   45.0790 C   0  0  0  0  0  0  0  0  0  0  0  0
   44.8930   35.1800   45.2460 N   0  0  0  0  0  0  0  0  0  0  0  0
   45.9570   33.1410   46.1960 C   0  0  0  0  0  0  0  0  0  0  0  0
   46.0160   32.9320   38.1410 C   0  0  0  0  0  0  0  0  0  0  0  0
   45.0192   33.3696   40.6045 H   0  0  0  0  0  0  0  0  0  0  0  0
   49.4921   35.1748   40.1376 H   0  0  0  0  0  0  0  0  0  0  0  0
   44.0304   36.8925   44.3548 H   0  0  0  0  0  0  0  0  0  0  0  0
   45.0631   36.4232   42.1039 H   0  0  0  0  0  0  0  0  0  0  0  0
   45.8064   33.6492   47.1599 H   0  0  0  0  0  0  0  0  0  0  0  0
   45.2752   32.2808   46.1246 H   0  0  0  0  0  0  0  0  0  0  0  0
   46.9974   32.7911   46.1246 H   0  0  0  0  0  0  0  0  0  0  0  0
   45.3073   32.1855   38.5289 H   0  0  0  0  0  0  0  0  0  0  0  0
   45.4749   33.6666   37.5265 H   0  0  0  0  0  0  0  0  0  0  0  0
   46.7777   32.4299   37.5265 H   0  0  0  0  0  0  0  0  0  0  0  0
  1 11  1  0
  2  1  1  0
  3  2  2  0
  4  3  1  0
  4  6  1  0
  5  4  2  0
  6  7  1  0
  7  1  1  0
  7  8  2  0
  9 14  2  0
 10  9  1  0
 11 10  2  0
 11 12  1  0
 12 13  2  0
 13 14  1  0
 13 15  1  0
 16  3  1  0
  2 17  1  0
  6 18  1  0
  9 19  1  0
 10 20  1  0
 15 21  1  0
 15 22  1  0
 15 23  1  0
 16 24  1  0
 16 25  1  0
 16 26  1  0
M  ISO  8  17  14  18   9  19  14  20  14  21   8  22   8  23   8  24   8
M  ISO  2  25   8  26   8
M  END
>  <minimizedAffinity>  (1) 
-5.10610771

>  <minimizedRMSD>  (1) 
0.034308888

$$$$
