
     RDKit          3D

 24 25  0  0  0  0  0  0  0  0999 V2000
   46.6440   34.4090   41.5270 N   0  0  0  0  0  0  0  0  0  0  0  0
   46.0550   33.7820   40.4850 C   0  0  0  0  0  0  0  0  0  0  0  0
   46.6790   33.6290   39.2620 C   0  0  0  0  0  0  0  0  0  0  0  0
   47.9480   34.1660   39.1890 C   0  0  0  0  0  0  0  0  0  0  0  0
   48.5670   34.0550   38.0890 O   0  0  0  0  0  0  0  0  0  0  0  0
   48.5460   34.7950   40.2220 N   0  0  0  0  0  0  0  0  0  0  0  0
   47.8870   34.9150   41.3960 C   0  0  0  0  0  0  0  0  0  0  0  0
   48.5030   35.5080   42.3080 O   0  0  0  0  0  0  0  0  0  0  0  0
   44.6800   35.9790   44.2220 C   0  0  0  0  0  0  0  0  0  0  0  0
   45.2660   35.7380   42.9570 C   0  0  0  0  0  0  0  0  0  0  0  0
   46.0810   34.6080   42.8050 C   0  0  0  0  0  0  0  0  0  0  0  0
   46.2670   33.8000   43.8840 N   0  0  0  0  0  0  0  0  0  0  0  0
   45.6940   34.0590   45.0730 C   0  0  0  0  0  0  0  0  0  0  0  0
   44.9030   35.1390   45.2510 N   0  0  0  0  0  0  0  0  0  0  0  0
   46.0070   32.9260   46.4260 S   0  0  0  0  0  0  0  0  0  0  0  0
   46.0070   32.9370   38.1440 C   0  0  0  0  0  0  0  0  0  0  0  0
   45.0402   33.3781   40.6155 H   0  0  0  0  0  0  0  0  0  0  0  0
   49.4955   35.1800   40.1170 H   0  0  0  0  0  0  0  0  0  0  0  0
   44.0369   36.8597   44.3664 H   0  0  0  0  0  0  0  0  0  0  0  0
   45.0863   36.4208   42.1135 H   0  0  0  0  0  0  0  0  0  0  0  0
   45.8271   33.5772   47.6178 H   0  0  0  0  0  0  0  0  0  0  0  0
   45.2931   32.2018   38.5439 H   0  0  0  0  0  0  0  0  0  0  0  0
   45.4693   33.6725   37.5276 H   0  0  0  0  0  0  0  0  0  0  0  0
   46.7580   32.4211   37.5276 H   0  0  0  0  0  0  0  0  0  0  0  0
  1 11  1  0
  2  1  1  0
  3  2  2  0
  4  3  1  0
  4  6  1  0
  5  4  2  0
  6  7  1  0
  7  1  1  0
  7  8  2  0
  9 14  2  0
 10  9  1  0
 11 10  2  0
 11 12  1  0
 12 13  2  0
 13 14  1  0
 13 15  1  0
 16  3  1  0
  2 17  1  0
  6 18  1  0
  9 19  1  0
 10 20  1  0
 15 21  1  0
 16 22  1  0
 16 23  1  0
 16 24  1  0
M  ISO  8  17  14  18   9  19  14  20  14  21  11  22   8  23   8  24   8
M  END
>  <minimizedAffinity>  (1) 
-5.08456469

>  <minimizedRMSD>  (1) 
0.0529698543

$$$$
