
     RDKit          3D

 35 36  0  0  0  0  0  0  0  0999 V2000
   46.4150   34.0730   42.2690 N   0  0  0  0  0  0  0  0  0  0  0  0
   45.7410   33.6450   41.1930 C   0  0  0  0  0  0  0  0  0  0  0  0
   46.3010   33.6120   39.9410 C   0  0  0  0  0  0  0  0  0  0  0  0
   47.6060   34.0450   39.8480 C   0  0  0  0  0  0  0  0  0  0  0  0
   48.1810   34.0380   38.7190 O   0  0  0  0  0  0  0  0  0  0  0  0
   48.3130   34.4850   40.9270 N   0  0  0  0  0  0  0  0  0  0  0  0
   47.7020   34.4930   42.1340 C   0  0  0  0  0  0  0  0  0  0  0  0
   48.4180   34.9120   43.0800 O   0  0  0  0  0  0  0  0  0  0  0  0
   44.6810   35.3830   45.2470 C   0  0  0  0  0  0  0  0  0  0  0  0
   45.1650   35.2710   43.9170 C   0  0  0  0  0  0  0  0  0  0  0  0
   45.9500   34.1540   43.5980 C   0  0  0  0  0  0  0  0  0  0  0  0
   46.2010   33.2450   44.5810 N   0  0  0  0  0  0  0  0  0  0  0  0
   45.7240   33.3860   45.8300 C   0  0  0  0  0  0  0  0  0  0  0  0
   44.9700   34.4400   46.1730 N   0  0  0  0  0  0  0  0  0  0  0  0
   46.0410   32.3430   46.8690 C   0  0  0  0  0  0  0  0  0  0  0  0
   44.9920   32.3750   47.9530 C   0  0  0  0  0  0  0  0  0  0  0  0
   47.3870   32.5290   47.4860 C   0  0  0  0  0  0  0  0  0  0  0  0
   45.9760   30.9590   46.2160 C   0  0  0  0  0  0  0  0  0  0  0  0
   45.5270   33.1320   38.7720 C   0  0  0  0  0  0  0  0  0  0  0  0
   44.7014   33.3080   41.3179 H   0  0  0  0  0  0  0  0  0  0  0  0
   49.2874   34.8032   40.8261 H   0  0  0  0  0  0  0  0  0  0  0  0
   44.0627   36.2482   45.5283 H   0  0  0  0  0  0  0  0  0  0  0  0
   44.9317   36.0357   43.1615 H   0  0  0  0  0  0  0  0  0  0  0  0
   45.4818   32.3601   48.9378 H   0  0  0  0  0  0  0  0  0  0  0  0
   44.3921   33.2919   47.8557 H   0  0  0  0  0  0  0  0  0  0  0  0
   44.3373   31.4964   47.8557 H   0  0  0  0  0  0  0  0  0  0  0  0
   47.2930   32.5160   48.5819 H   0  0  0  0  0  0  0  0  0  0  0  0
   48.0530   31.7144   47.1655 H   0  0  0  0  0  0  0  0  0  0  0  0
   47.8072   33.4937   47.1655 H   0  0  0  0  0  0  0  0  0  0  0  0
   45.9397   30.1860   46.9978 H   0  0  0  0  0  0  0  0  0  0  0  0
   45.0737   30.8906   45.5906 H   0  0  0  0  0  0  0  0  0  0  0  0
   46.8680   30.8064   45.5906 H   0  0  0  0  0  0  0  0  0  0  0  0
   44.6402   32.5821   39.1201 H   0  0  0  0  0  0  0  0  0  0  0  0
   45.2098   33.9921   38.1641 H   0  0  0  0  0  0  0  0  0  0  0  0
   46.1565   32.4655   38.1641 H   0  0  0  0  0  0  0  0  0  0  0  0
  1 11  1  0
  2  1  1  0
  3  2  2  0
  4  3  1  0
  4  6  1  0
  5  4  2  0
  6  7  1  0
  7  1  1  0
  7  8  2  0
  9 14  2  0
 10  9  1  0
 11 10  2  0
 11 12  1  0
 12 13  2  0
 13 14  1  0
 13 15  1  0
 15 17  1  0
 15 16  1  0
 18 15  1  0
 19  3  1  0
  2 20  1  0
  6 21  1  0
  9 22  1  0
 10 23  1  0
 16 24  1  0
 16 25  1  0
 16 26  1  0
 17 27  1  0
 17 28  1  0
 17 29  1  0
 18 30  1  0
 18 31  1  0
 18 32  1  0
 19 33  1  0
 19 34  1  0
 19 35  1  0
M  ISO  8  20  14  21   9  22  14  23  14  24   8  25   8  26   8  27   8
M  ISO  8  28   8  29   8  30   8  31   8  32   8  33   8  34   8  35   8
M  END
>  <minimizedAffinity>  (1) 
-5.04940462

>  <minimizedRMSD>  (1) 
0.95945853

$$$$
