
     RDKit          3D

 40 43  0  0  0  0  0  0  0  0999 V2000
   46.0430   34.1430   41.8870 N   0  0  0  0  0  0  0  0  0  0  0  0
   45.2180   33.6940   40.9020 C   0  0  0  0  0  0  0  0  0  0  0  0
   45.6670   33.5280   39.6060 C   0  0  0  0  0  0  0  0  0  0  0  0
   46.9820   33.8440   39.3920 C   0  0  0  0  0  0  0  0  0  0  0  0
   47.4310   33.7050   38.2140 O   0  0  0  0  0  0  0  0  0  0  0  0
   47.8020   34.2880   40.3590 N   0  0  0  0  0  0  0  0  0  0  0  0
   47.3340   34.4400   41.6140 C   0  0  0  0  0  0  0  0  0  0  0  0
   48.1450   34.8540   42.4580 O   0  0  0  0  0  0  0  0  0  0  0  0
   44.5080   35.7000   44.8650 C   0  0  0  0  0  0  0  0  0  0  0  0
   44.8770   35.4590   43.5130 C   0  0  0  0  0  0  0  0  0  0  0  0
   45.6980   34.3510   43.2360 C   0  0  0  0  0  0  0  0  0  0  0  0
   46.0840   33.5810   44.2850 N   0  0  0  0  0  0  0  0  0  0  0  0
   45.7210   33.8300   45.5490 C   0  0  0  0  0  0  0  0  0  0  0  0
   44.9430   34.8750   45.8420 N   0  0  0  0  0  0  0  0  0  0  0  0
   46.1760   32.9570   46.6180 C   0  0  0  0  0  0  0  0  0  0  0  0
   45.6250   31.8700   46.8590 O   0  0  0  0  0  0  0  0  0  0  0  0
   47.2350   33.2620   47.4330 O   0  0  0  0  0  0  0  0  0  0  0  0
   44.7470   33.0390   38.5630 C   0  0  0  0  0  0  0  0  0  0  0  0
   43.4640   32.5630   39.1300 C   0  0  0  0  0  0  0  0  0  0  0  0
   43.2410   31.3750   39.7200 N   0  0  0  0  0  0  0  0  0  0  0  0
   42.0400   31.0190   40.2100 C   0  0  0  0  0  0  0  0  0  0  0  0
   40.9430   31.8300   40.1540 N   0  0  0  0  0  0  0  0  0  0  0  0
   41.1570   33.0240   39.5630 C   0  0  0  0  0  0  0  0  0  0  0  0
   40.1200   33.9250   39.4500 C   0  0  0  0  0  0  0  0  0  0  0  0
   40.1740   35.1810   38.8760 C   0  0  0  0  0  0  0  0  0  0  0  0
   41.4360   35.5190   38.3770 C   0  0  0  0  0  0  0  0  0  0  0  0
   42.4960   34.6620   38.4650 C   0  0  0  0  0  0  0  0  0  0  0  0
   42.3810   33.4180   39.0490 C   0  0  0  0  0  0  0  0  0  0  0  0
   44.1710   33.4582   41.1430 H   0  0  0  0  0  0  0  0  0  0  0  0
   48.7839   34.5113   40.1425 H   0  0  0  0  0  0  0  0  0  0  0  0
   43.8679   36.5588   45.1153 H   0  0  0  0  0  0  0  0  0  0  0  0
   44.5299   36.1209   42.7059 H   0  0  0  0  0  0  0  0  0  0  0  0
   47.5065   32.6334   48.1480 H   0  0  0  0  0  0  0  0  0  0  0  0
   45.2281   32.2075   38.0271 H   0  0  0  0  0  0  0  0  0  0  0  0
   44.5275   33.8770   37.8851 H   0  0  0  0  0  0  0  0  0  0  0  0
   41.9368   30.0286   40.6775 H   0  0  0  0  0  0  0  0  0  0  0  0
   39.1483   33.6117   39.8593 H   0  0  0  0  0  0  0  0  0  0  0  0
   39.3049   35.8527   38.8171 H   0  0  0  0  0  0  0  0  0  0  0  0
   41.5787   36.5005   37.9013 H   0  0  0  0  0  0  0  0  0  0  0  0
   43.4695   34.9731   38.0583 H   0  0  0  0  0  0  0  0  0  0  0  0
  1 11  1  0
  2  1  1  0
  3  2  2  0
  4  3  1  0
  4  6  1  0
  5  4  2  0
  6  7  1  0
  7  1  1  0
  7  8  2  0
  9 14  2  0
 10  9  1  0
 11 10  2  0
 11 12  1  0
 12 13  2  0
 13 14  1  0
 13 15  1  0
 15 16  2  0
 15 17  1  0
 18 19  1  0
 18  3  1  0
 19 20  2  0
 20 21  1  0
 22 21  2  0
 23 22  1  0
 24 23  2  0
 25 24  1  0
 26 27  1  0
 26 25  2  0
 27 28  2  0
 28 19  1  0
 28 23  1  0
  2 29  1  0
  6 30  1  0
  9 31  1  0
 10 32  1  0
 17 33  1  0
 18 34  1  0
 18 35  1  0
 21 36  1  0
 24 37  1  0
 25 38  1  0
 26 39  1  0
 27 40  1  0
M  ISO  8  29  14  30   9  31  14  32  14  33   3  34   8  35   8  36  14
M  ISO  4  37  14  38  14  39  14  40  14
M  END
>  <minimizedAffinity>  (1) 
-6.72714567

>  <minimizedRMSD>  (1) 
1.4245137

$$$$
