
     RDKit          3D

 40 43  0  0  0  0  0  0  0  0999 V2000
   46.4160   34.2560   41.6270 N   0  0  0  0  0  0  0  0  0  0  0  0
   45.7300   33.7280   40.6030 C   0  0  0  0  0  0  0  0  0  0  0  0
   46.2500   33.5990   39.3370 C   0  0  0  0  0  0  0  0  0  0  0  0
   47.5360   34.0590   39.2040 C   0  0  0  0  0  0  0  0  0  0  0  0
   48.0830   33.9700   38.0500 O   0  0  0  0  0  0  0  0  0  0  0  0
   48.2610   34.5970   40.2110 N   0  0  0  0  0  0  0  0  0  0  0  0
   47.6920   34.6940   41.4260 C   0  0  0  0  0  0  0  0  0  0  0  0
   48.4060   35.1980   42.3150 O   0  0  0  0  0  0  0  0  0  0  0  0
   44.6360   35.7430   44.5050 C   0  0  0  0  0  0  0  0  0  0  0  0
   45.1050   35.5330   43.1800 C   0  0  0  0  0  0  0  0  0  0  0  0
   45.9740   34.4300   42.9490 C   0  0  0  0  0  0  0  0  0  0  0  0
   46.2860   33.6620   44.0120 N   0  0  0  0  0  0  0  0  0  0  0  0
   45.8290   33.8870   45.2430 C   0  0  0  0  0  0  0  0  0  0  0  0
   45.0090   34.9130   45.5040 N   0  0  0  0  0  0  0  0  0  0  0  0
   46.2230   33.0000   46.3320 C   0  0  0  0  0  0  0  0  0  0  0  0
   45.7280   31.8680   46.4690 O   0  0  0  0  0  0  0  0  0  0  0  0
   47.1590   33.3490   47.2740 O   0  0  0  0  0  0  0  0  0  0  0  0
   45.4600   33.0110   38.2390 C   0  0  0  0  0  0  0  0  0  0  0  0
   44.0520   32.7620   38.6040 C   0  0  0  0  0  0  0  0  0  0  0  0
   43.5460   31.5270   39.0220 C   0  0  0  0  0  0  0  0  0  0  0  0
   42.2250   31.5700   39.2940 N   0  0  0  0  0  0  0  0  0  0  0  0
   41.8540   32.8500   39.0540 C   0  0  0  0  0  0  0  0  0  0  0  0
   40.6250   33.4420   39.1700 C   0  0  0  0  0  0  0  0  0  0  0  0
   40.4750   34.7800   38.8670 C   0  0  0  0  0  0  0  0  0  0  0  0
   41.5830   35.5170   38.4440 C   0  0  0  0  0  0  0  0  0  0  0  0
   42.8460   34.9250   38.3210 C   0  0  0  0  0  0  0  0  0  0  0  0
   42.9470   33.5830   38.6350 C   0  0  0  0  0  0  0  0  0  0  0  0
   44.7019   33.3815   40.7847 H   0  0  0  0  0  0  0  0  0  0  0  0
   49.2245   34.9242   40.0516 H   0  0  0  0  0  0  0  0  0  0  0  0
   43.9644   36.5875   44.7190 H   0  0  0  0  0  0  0  0  0  0  0  0
   44.8059   36.2016   42.3593 H   0  0  0  0  0  0  0  0  0  0  0  0
   47.3952   32.7141   47.9960 H   0  0  0  0  0  0  0  0  0  0  0  0
   45.9206   32.0547   37.9502 H   0  0  0  0  0  0  0  0  0  0  0  0
   45.4598   33.7362   37.4119 H   0  0  0  0  0  0  0  0  0  0  0  0
   44.1588   30.6186   39.1186 H   0  0  0  0  0  0  0  0  0  0  0  0
   41.6271   30.7953   39.6153 H   0  0  0  0  0  0  0  0  0  0  0  0
   39.7587   32.8522   39.5041 H   0  0  0  0  0  0  0  0  0  0  0  0
   39.4904   35.2620   38.9580 H   0  0  0  0  0  0  0  0  0  0  0  0
   41.4613   36.5833   38.2027 H   0  0  0  0  0  0  0  0  0  0  0  0
   43.7205   35.5035   37.9886 H   0  0  0  0  0  0  0  0  0  0  0  0
  1 11  1  0
  2  1  1  0
  3  2  2  0
  4  3  1  0
  4  6  1  0
  5  4  2  0
  6  7  1  0
  7  1  1  0
  7  8  2  0
  9 14  2  0
 10  9  1  0
 11 10  2  0
 11 12  1  0
 12 13  2  0
 13 14  1  0
 13 15  1  0
 15 16  2  0
 15 17  1  0
 18 19  1  0
 18  3  1  0
 19 27  1  0
 19 20  2  0
 20 21  1  0
 22 23  2  0
 22 21  1  0
 24 23  1  0
 25 24  2  0
 26 25  1  0
 26 27  2  0
 27 22  1  0
  2 28  1  0
  6 29  1  0
  9 30  1  0
 10 31  1  0
 17 32  1  0
 18 33  1  0
 18 34  1  0
 20 35  1  0
 21 36  1  0
 23 37  1  0
 24 38  1  0
 25 39  1  0
 26 40  1  0
M  ISO  8  28  14  29   9  30  14  31  14  32   3  33   8  34   8  35  14
M  ISO  5  36   9  37  14  38  14  39  14  40  14
M  END
>  <minimizedAffinity>  (1) 
-6.5966835

>  <minimizedRMSD>  (1) 
3.75189662

$$$$
