
     RDKit          3D

 39 42  0  0  0  0  0  0  0  0999 V2000
   46.6630   34.3590   41.4260 N   0  0  0  0  0  0  0  0  0  0  0  0
   46.0820   33.7390   40.3720 C   0  0  0  0  0  0  0  0  0  0  0  0
   46.6660   33.6430   39.1340 C   0  0  0  0  0  0  0  0  0  0  0  0
   47.9050   34.2370   39.0530 C   0  0  0  0  0  0  0  0  0  0  0  0
   48.5180   34.1970   37.9410 O   0  0  0  0  0  0  0  0  0  0  0  0
   48.5260   34.8700   40.0870 N   0  0  0  0  0  0  0  0  0  0  0  0
   47.8900   34.9250   41.2780 C   0  0  0  0  0  0  0  0  0  0  0  0
   48.4970   35.5130   42.1880 O   0  0  0  0  0  0  0  0  0  0  0  0
   44.6990   35.7330   44.2310 C   0  0  0  0  0  0  0  0  0  0  0  0
   45.2420   35.5690   42.9280 C   0  0  0  0  0  0  0  0  0  0  0  0
   46.1390   34.5020   42.7190 C   0  0  0  0  0  0  0  0  0  0  0  0
   46.4180   33.7050   43.7890 N   0  0  0  0  0  0  0  0  0  0  0  0
   45.8940   33.8820   45.0010 C   0  0  0  0  0  0  0  0  0  0  0  0
   45.0350   34.8930   45.2260 N   0  0  0  0  0  0  0  0  0  0  0  0
   46.2370   32.9930   46.0900 C   0  0  0  0  0  0  0  0  0  0  0  0
   45.8310   31.8180   46.1310 O   0  0  0  0  0  0  0  0  0  0  0  0
   47.0350   33.3970   47.1450 O   0  0  0  0  0  0  0  0  0  0  0  0
   46.0020   32.9660   38.0300 C   0  0  0  0  0  0  0  0  0  0  0  0
   44.6490   32.5720   38.2450 N   0  0  0  0  0  0  0  0  0  0  0  0
   44.3840   31.2430   38.3750 C   0  0  0  0  0  0  0  0  0  0  0  0
   43.0590   31.0230   38.5710 N   0  0  0  0  0  0  0  0  0  0  0  0
   42.4570   32.2130   38.5680 C   0  0  0  0  0  0  0  0  0  0  0  0
   41.1580   32.6500   38.7150 C   0  0  0  0  0  0  0  0  0  0  0  0
   40.9100   33.9830   38.6560 N   0  0  0  0  0  0  0  0  0  0  0  0
   41.9210   34.8630   38.4550 C   0  0  0  0  0  0  0  0  0  0  0  0
   43.1840   34.4550   38.3110 N   0  0  0  0  0  0  0  0  0  0  0  0
   43.4400   33.1390   38.3680 C   0  0  0  0  0  0  0  0  0  0  0  0
   40.0940   31.7150   38.9260 N   0  0  0  0  0  0  0  0  0  0  0  0
   45.0889   33.2882   40.5157 H   0  0  0  0  0  0  0  0  0  0  0  0
   49.4559   35.2955   39.9643 H   0  0  0  0  0  0  0  0  0  0  0  0
   43.9962   36.5560   44.4279 H   0  0  0  0  0  0  0  0  0  0  0  0
   44.9712   36.2522   42.1095 H   0  0  0  0  0  0  0  0  0  0  0  0
   47.2502   32.7627   47.8740 H   0  0  0  0  0  0  0  0  0  0  0  0
   46.5807   32.0599   37.7974 H   0  0  0  0  0  0  0  0  0  0  0  0
   45.9633   33.7057   37.2168 H   0  0  0  0  0  0  0  0  0  0  0  0
   45.1450   30.4502   38.3274 H   0  0  0  0  0  0  0  0  0  0  0  0
   41.6956   35.9387   38.4094 H   0  0  0  0  0  0  0  0  0  0  0  0
   39.1266   32.0516   39.0347 H   0  0  0  0  0  0  0  0  0  0  0  0
   40.2961   30.7059   38.9691 H   0  0  0  0  0  0  0  0  0  0  0  0
  1 11  1  0
  2  1  1  0
  3  2  2  0
  4  3  1  0
  4  6  1  0
  5  4  2  0
  6  7  1  0
  7  1  1  0
  7  8  2  0
  9 14  2  0
 10  9  1  0
 11 10  2  0
 11 12  1  0
 12 13  2  0
 13 14  1  0
 13 15  1  0
 15 16  2  0
 15 17  1  0
 18 19  1  0
 18  3  1  0
 19 27  1  0
 19 20  1  0
 20 21  2  0
 22 21  1  0
 22 23  2  0
 23 28  1  0
 24 23  1  0
 25 24  2  0
 26 27  2  0
 26 25  1  0
 27 22  1  0
  2 29  1  0
  6 30  1  0
  9 31  1  0
 10 32  1  0
 17 33  1  0
 18 34  1  0
 18 35  1  0
 20 36  1  0
 25 37  1  0
 28 38  1  0
 28 39  1  0
M  ISO  8  29  14  30   9  31  14  32  14  33   3  34   8  35   8  36  14
M  ISO  1  37  14
M  END
>  <minimizedAffinity>  (1) 
-6.54728603

>  <minimizedRMSD>  (1) 
3.64946628

$$$$
