
     RDKit          3D

 33 35  0  0  0  0  0  0  0  0999 V2000
   46.6580   34.3230   41.6090 N   0  0  0  0  0  0  0  0  0  0  0  0
   46.0440   33.7120   40.5620 C   0  0  0  0  0  0  0  0  0  0  0  0
   46.6240   33.6300   39.3200 C   0  0  0  0  0  0  0  0  0  0  0  0
   47.8680   34.2100   39.2210 C   0  0  0  0  0  0  0  0  0  0  0  0
   48.4700   34.1720   38.0940 O   0  0  0  0  0  0  0  0  0  0  0  0
   48.4960   34.8220   40.2510 N   0  0  0  0  0  0  0  0  0  0  0  0
   47.8750   34.8740   41.4520 C   0  0  0  0  0  0  0  0  0  0  0  0
   48.5050   35.4490   42.3550 O   0  0  0  0  0  0  0  0  0  0  0  0
   44.7020   35.6710   44.4360 C   0  0  0  0  0  0  0  0  0  0  0  0
   45.2290   35.5170   43.1220 C   0  0  0  0  0  0  0  0  0  0  0  0
   46.1490   34.4580   42.9070 C   0  0  0  0  0  0  0  0  0  0  0  0
   46.4530   33.6730   43.9790 N   0  0  0  0  0  0  0  0  0  0  0  0
   45.9390   33.8480   45.1920 C   0  0  0  0  0  0  0  0  0  0  0  0
   45.0640   34.8430   45.4270 N   0  0  0  0  0  0  0  0  0  0  0  0
   46.3170   32.9620   46.2810 C   0  0  0  0  0  0  0  0  0  0  0  0
   45.8670   31.7870   46.3530 O   0  0  0  0  0  0  0  0  0  0  0  0
   47.1760   33.3390   47.2840 O   0  0  0  0  0  0  0  0  0  0  0  0
   45.9550   32.9710   38.2000 C   0  0  0  0  0  0  0  0  0  0  0  0
   44.4940   33.0630   38.2740 C   0  0  0  0  0  0  0  0  0  0  0  0
   43.7150   31.9340   38.5130 C   0  0  0  0  0  0  0  0  0  0  0  0
   42.4130   32.2970   38.5310 N   0  0  0  0  0  0  0  0  0  0  0  0
   42.3450   33.6200   38.3110 C   0  0  0  0  0  0  0  0  0  0  0  0
   43.6120   34.0730   38.1560 N   0  0  0  0  0  0  0  0  0  0  0  0
   45.0491   33.2682   40.7145 H   0  0  0  0  0  0  0  0  0  0  0  0
   49.4286   35.2402   40.1235 H   0  0  0  0  0  0  0  0  0  0  0  0
   43.9871   36.4814   44.6413 H   0  0  0  0  0  0  0  0  0  0  0  0
   44.9344   36.1926   42.3054 H   0  0  0  0  0  0  0  0  0  0  0  0
   47.4047   32.7010   48.0057 H   0  0  0  0  0  0  0  0  0  0  0  0
   46.2400   31.9086   38.1969 H   0  0  0  0  0  0  0  0  0  0  0  0
   46.2717   33.4826   37.2791 H   0  0  0  0  0  0  0  0  0  0  0  0
   44.0967   30.9133   38.6627 H   0  0  0  0  0  0  0  0  0  0  0  0
   41.4277   34.2253   38.2651 H   0  0  0  0  0  0  0  0  0  0  0  0
   43.8655   35.0544   37.9732 H   0  0  0  0  0  0  0  0  0  0  0  0
  1 11  1  0
  2  1  1  0
  3  2  2  0
  4  3  1  0
  4  6  1  0
  5  4  2  0
  6  7  1  0
  7  1  1  0
  7  8  2  0
  9 14  2  0
 10  9  1  0
 11 10  2  0
 11 12  1  0
 12 13  2  0
 13 14  1  0
 13 15  1  0
 15 16  2  0
 15 17  1  0
 18 19  1  0
 18  3  1  0
 19 20  2  0
 20 21  1  0
 22 21  2  0
 23 19  1  0
 23 22  1  0
  2 24  1  0
  6 25  1  0
  9 26  1  0
 10 27  1  0
 17 28  1  0
 18 29  1  0
 18 30  1  0
 20 31  1  0
 22 32  1  0
 23 33  1  0
M  ISO  8  24  14  25   9  26  14  27  14  28   3  29   8  30   8  31  14
M  ISO  2  32  14  33   9
M  END
>  <minimizedAffinity>  (1) 
-6.09598589

>  <minimizedRMSD>  (1) 
0.760463595

$$$$
