
     RDKit          3D

 36 38  0  0  0  0  0  0  0  0999 V2000
   46.4900   34.2270   41.4800 N   0  0  0  0  0  0  0  0  0  0  0  0
   45.8490   33.6190   40.4660 C   0  0  0  0  0  0  0  0  0  0  0  0
   46.3720   33.4890   39.2090 C   0  0  0  0  0  0  0  0  0  0  0  0
   47.6320   34.0390   39.0600 C   0  0  0  0  0  0  0  0  0  0  0  0
   48.1830   33.9560   37.9210 O   0  0  0  0  0  0  0  0  0  0  0  0
   48.3010   34.6540   40.0510 N   0  0  0  0  0  0  0  0  0  0  0  0
   47.7190   34.7470   41.2760 C   0  0  0  0  0  0  0  0  0  0  0  0
   48.3930   35.3320   42.1580 O   0  0  0  0  0  0  0  0  0  0  0  0
   44.6600   35.6930   44.3350 C   0  0  0  0  0  0  0  0  0  0  0  0
   45.1430   35.4990   43.0080 C   0  0  0  0  0  0  0  0  0  0  0  0
   46.0250   34.4040   42.7900 C   0  0  0  0  0  0  0  0  0  0  0  0
   46.3280   33.6400   43.8680 N   0  0  0  0  0  0  0  0  0  0  0  0
   45.8600   33.8470   45.1000 C   0  0  0  0  0  0  0  0  0  0  0  0
   45.0240   34.8770   45.3330 N   0  0  0  0  0  0  0  0  0  0  0  0
   46.2480   32.9680   46.1890 C   0  0  0  0  0  0  0  0  0  0  0  0
   45.8350   31.7890   46.2640 O   0  0  0  0  0  0  0  0  0  0  0  0
   47.0950   33.3810   47.2040 O   0  0  0  0  0  0  0  0  0  0  0  0
   45.6290   32.8280   38.1300 C   0  0  0  0  0  0  0  0  0  0  0  0
   44.1590   32.9890   38.2260 C   0  0  0  0  0  0  0  0  0  0  0  0
   43.4740   31.7860   38.0010 C   0  0  0  0  0  0  0  0  0  0  0  0
   42.0880   31.7020   38.0410 C   0  0  0  0  0  0  0  0  0  0  0  0
   41.3990   32.8740   38.3150 C   0  0  0  0  0  0  0  0  0  0  0  0
   42.0240   34.0960   38.5460 C   0  0  0  0  0  0  0  0  0  0  0  0
   43.3980   34.1000   38.4900 C   0  0  0  0  0  0  0  0  0  0  0  0
   44.8489   33.2033   40.6583 H   0  0  0  0  0  0  0  0  0  0  0  0
   49.2381   35.0478   39.8849 H   0  0  0  0  0  0  0  0  0  0  0  0
   43.9755   36.5285   44.5434 H   0  0  0  0  0  0  0  0  0  0  0  0
   44.8462   36.1679   42.1867 H   0  0  0  0  0  0  0  0  0  0  0  0
   47.3385   32.7547   47.9310 H   0  0  0  0  0  0  0  0  0  0  0  0
   45.8621   31.7533   38.1571 H   0  0  0  0  0  0  0  0  0  0  0  0
   45.9413   33.3047   37.1892 H   0  0  0  0  0  0  0  0  0  0  0  0
   44.0547   30.8770   37.7853 H   0  0  0  0  0  0  0  0  0  0  0  0
   41.5625   30.7520   37.8639 H   0  0  0  0  0  0  0  0  0  0  0  0
   40.3003   32.8358   38.3517 H   0  0  0  0  0  0  0  0  0  0  0  0
   41.4499   35.0092   38.7617 H   0  0  0  0  0  0  0  0  0  0  0  0
   43.9191   35.0523   38.6677 H   0  0  0  0  0  0  0  0  0  0  0  0
  1 11  1  0
  2  1  1  0
  3  2  2  0
  4  3  1  0
  4  6  1  0
  5  4  2  0
  6  7  1  0
  7  1  1  0
  7  8  2  0
  9 14  2  0
 10  9  1  0
 11 10  2  0
 11 12  1  0
 12 13  2  0
 13 14  1  0
 13 15  1  0
 15 16  2  0
 15 17  1  0
 18 19  1  0
 18  3  1  0
 19 24  2  0
 20 21  2  0
 20 19  1  0
 21 22  1  0
 22 23  2  0
 24 23  1  0
  2 25  1  0
  6 26  1  0
  9 27  1  0
 10 28  1  0
 17 29  1  0
 18 30  1  0
 18 31  1  0
 20 32  1  0
 21 33  1  0
 22 34  1  0
 23 35  1  0
 24 36  1  0
M  ISO  8  25  14  26   9  27  14  28  14  29   3  30   8  31   8  32  14
M  ISO  4  33  14  34  14  35  14  36  14
M  END
>  <minimizedAffinity>  (1) 
-6.07363939

>  <minimizedRMSD>  (1) 
1.9042666

$$$$
