
     RDKit          3D

 27 28  0  0  0  0  0  0  0  0999 V2000
   46.7220   34.3980   41.4120 N   0  0  0  0  0  0  0  0  0  0  0  0
   46.1590   33.7860   40.3460 C   0  0  0  0  0  0  0  0  0  0  0  0
   46.7750   33.7040   39.1240 C   0  0  0  0  0  0  0  0  0  0  0  0
   48.0120   34.2890   39.0620 C   0  0  0  0  0  0  0  0  0  0  0  0
   48.6400   34.2470   37.9500 O   0  0  0  0  0  0  0  0  0  0  0  0
   48.6070   34.9110   40.1130 N   0  0  0  0  0  0  0  0  0  0  0  0
   47.9480   34.9610   41.2960 C   0  0  0  0  0  0  0  0  0  0  0  0
   48.5410   35.5430   42.2230 O   0  0  0  0  0  0  0  0  0  0  0  0
   44.7060   35.7270   44.1900 C   0  0  0  0  0  0  0  0  0  0  0  0
   45.2660   35.5830   42.8920 C   0  0  0  0  0  0  0  0  0  0  0  0
   46.1740   34.5280   42.6970 C   0  0  0  0  0  0  0  0  0  0  0  0
   46.4470   33.7290   43.7620 N   0  0  0  0  0  0  0  0  0  0  0  0
   45.8990   33.8940   44.9780 C   0  0  0  0  0  0  0  0  0  0  0  0
   45.0210   34.9030   45.1910 N   0  0  0  0  0  0  0  0  0  0  0  0
   46.2420   33.0050   46.0620 C   0  0  0  0  0  0  0  0  0  0  0  0
   45.8430   31.8250   46.0950 O   0  0  0  0  0  0  0  0  0  0  0  0
   47.0280   33.3970   47.1290 O   0  0  0  0  0  0  0  0  0  0  0  0
   46.1240   33.0310   37.9860 C   0  0  0  0  0  0  0  0  0  0  0  0
   45.9590   33.8610   36.8750 O   0  0  0  0  0  0  0  0  0  0  0  0
   45.1631   33.3341   40.4644 H   0  0  0  0  0  0  0  0  0  0  0  0
   49.5399   35.3359   40.0127 H   0  0  0  0  0  0  0  0  0  0  0  0
   43.9912   36.5424   44.3751 H   0  0  0  0  0  0  0  0  0  0  0  0
   45.0000   36.2686   42.0739 H   0  0  0  0  0  0  0  0  0  0  0  0
   47.2386   32.7536   47.8514 H   0  0  0  0  0  0  0  0  0  0  0  0
   46.7410   32.1698   37.6900 H   0  0  0  0  0  0  0  0  0  0  0  0
   45.1203   32.7268   38.3178 H   0  0  0  0  0  0  0  0  0  0  0  0
   45.7752   34.7854   37.1781 H   0  0  0  0  0  0  0  0  0  0  0  0
  1 11  1  0
  2  1  1  0
  3  2  2  0
  4  3  1  0
  4  6  1  0
  5  4  2  0
  6  7  1  0
  7  1  1  0
  7  8  2  0
  9 14  2  0
 10  9  1  0
 11 10  2  0
 11 12  1  0
 12 13  2  0
 13 14  1  0
 13 15  1  0
 15 16  2  0
 15 17  1  0
 18  3  1  0
 19 18  1  0
  2 20  1  0
  6 21  1  0
  9 22  1  0
 10 23  1  0
 17 24  1  0
 18 25  1  0
 18 26  1  0
 19 27  1  0
M  ISO  8  20  14  21   9  22  14  23  14  24   3  25   8  26   8  27   3
M  END
>  <minimizedAffinity>  (1) 
-5.99235868

>  <minimizedRMSD>  (1) 
0.120061688

$$$$
