
     RDKit          3D

 33 35  0  0  0  0  0  0  0  0999 V2000
   46.6670   34.3420   41.4820 N   0  0  0  0  0  0  0  0  0  0  0  0
   46.1090   33.6930   40.4440 C   0  0  0  0  0  0  0  0  0  0  0  0
   46.6780   33.5890   39.2100 C   0  0  0  0  0  0  0  0  0  0  0  0
   47.9100   34.2190   39.1000 C   0  0  0  0  0  0  0  0  0  0  0  0
   48.5270   34.1800   37.9800 O   0  0  0  0  0  0  0  0  0  0  0  0
   48.5070   34.8840   40.1170 N   0  0  0  0  0  0  0  0  0  0  0  0
   47.8800   34.9430   41.3140 C   0  0  0  0  0  0  0  0  0  0  0  0
   48.4780   35.5660   42.2080 O   0  0  0  0  0  0  0  0  0  0  0  0
   44.7150   35.7470   44.2750 C   0  0  0  0  0  0  0  0  0  0  0  0
   45.2500   35.5810   42.9620 C   0  0  0  0  0  0  0  0  0  0  0  0
   46.1480   34.4940   42.7780 C   0  0  0  0  0  0  0  0  0  0  0  0
   46.4260   33.7100   43.8350 N   0  0  0  0  0  0  0  0  0  0  0  0
   45.9020   33.8980   45.0550 C   0  0  0  0  0  0  0  0  0  0  0  0
   45.0440   34.9220   45.2700 N   0  0  0  0  0  0  0  0  0  0  0  0
   46.2460   33.0170   46.1450 C   0  0  0  0  0  0  0  0  0  0  0  0
   45.7920   31.8480   46.2080 O   0  0  0  0  0  0  0  0  0  0  0  0
   47.0860   33.4010   47.1700 O   0  0  0  0  0  0  0  0  0  0  0  0
   46.0650   32.8860   38.0940 C   0  0  0  0  0  0  0  0  0  0  0  0
   44.6750   32.5940   38.2920 N   0  0  0  0  0  0  0  0  0  0  0  0
   43.7610   33.5470   38.1920 N   0  0  0  0  0  0  0  0  0  0  0  0
   42.5320   33.0840   38.4090 C   0  0  0  0  0  0  0  0  0  0  0  0
   42.6710   31.7370   38.6660 C   0  0  0  0  0  0  0  0  0  0  0  0
   44.0330   31.4520   38.5870 C   0  0  0  0  0  0  0  0  0  0  0  0
   45.1306   33.2156   40.6014 H   0  0  0  0  0  0  0  0  0  0  0  0
   49.4222   35.3368   39.9816 H   0  0  0  0  0  0  0  0  0  0  0  0
   44.0160   36.5735   44.4705 H   0  0  0  0  0  0  0  0  0  0  0  0
   44.9820   36.2575   42.1371 H   0  0  0  0  0  0  0  0  0  0  0  0
   47.2978   32.7670   47.9003 H   0  0  0  0  0  0  0  0  0  0  0  0
   46.6015   31.9375   37.9439 H   0  0  0  0  0  0  0  0  0  0  0  0
   46.1334   33.5490   37.2189 H   0  0  0  0  0  0  0  0  0  0  0  0
   41.5950   33.6599   38.3876 H   0  0  0  0  0  0  0  0  0  0  0  0
   41.8633   31.0247   38.8901 H   0  0  0  0  0  0  0  0  0  0  0  0
   44.4990   30.4673   38.7392 H   0  0  0  0  0  0  0  0  0  0  0  0
  1 11  1  0
  2  1  1  0
  3  2  2  0
  4  3  1  0
  4  6  1  0
  5  4  2  0
  6  7  1  0
  7  1  1  0
  7  8  2  0
  9 14  2  0
 10  9  1  0
 11 10  2  0
 11 12  1  0
 12 13  2  0
 13 14  1  0
 13 15  1  0
 15 16  2  0
 15 17  1  0
 18 19  1  0
 18  3  1  0
 19 23  1  0
 20 19  1  0
 20 21  2  0
 21 22  1  0
 23 22  2  0
  2 24  1  0
  6 25  1  0
  9 26  1  0
 10 27  1  0
 17 28  1  0
 18 29  1  0
 18 30  1  0
 21 31  1  0
 22 32  1  0
 23 33  1  0
M  ISO  8  24  14  25   9  26  14  27  14  28   3  29   8  30   8  31  14
M  ISO  2  32  14  33  14
M  END
>  <minimizedAffinity>  (1) 
-5.81774092

>  <minimizedRMSD>  (1) 
0.384584278

$$$$
