
     RDKit          3D

 42 44  0  0  0  0  0  0  0  0999 V2000
   46.7210   34.3890   41.4160 N   0  0  0  0  0  0  0  0  0  0  0  0
   46.1700   33.7670   40.3620 C   0  0  0  0  0  0  0  0  0  0  0  0
   46.7740   33.6890   39.1370 C   0  0  0  0  0  0  0  0  0  0  0  0
   48.0050   34.3050   39.0660 C   0  0  0  0  0  0  0  0  0  0  0  0
   48.6460   34.2820   37.9570 O   0  0  0  0  0  0  0  0  0  0  0  0
   48.5930   34.9410   40.1040 N   0  0  0  0  0  0  0  0  0  0  0  0
   47.9370   34.9800   41.2890 C   0  0  0  0  0  0  0  0  0  0  0  0
   48.5300   35.5850   42.2140 O   0  0  0  0  0  0  0  0  0  0  0  0
   44.6960   35.7150   44.1940 C   0  0  0  0  0  0  0  0  0  0  0  0
   45.2580   35.5730   42.8900 C   0  0  0  0  0  0  0  0  0  0  0  0
   46.1740   34.5210   42.7080 C   0  0  0  0  0  0  0  0  0  0  0  0
   46.4520   33.7290   43.7710 N   0  0  0  0  0  0  0  0  0  0  0  0
   45.9080   33.8930   44.9740 C   0  0  0  0  0  0  0  0  0  0  0  0
   45.0270   34.8870   45.1920 N   0  0  0  0  0  0  0  0  0  0  0  0
   46.2560   32.9970   46.0690 C   0  0  0  0  0  0  0  0  0  0  0  0
   45.8550   31.8100   46.0910 O   0  0  0  0  0  0  0  0  0  0  0  0
   47.0370   33.3900   47.1340 O   0  0  0  0  0  0  0  0  0  0  0  0
   46.1540   33.0220   37.9940 C   0  0  0  0  0  0  0  0  0  0  0  0
   46.3200   31.5220   38.0160 C   0  0  0  0  0  0  0  0  0  0  0  0
   45.0930   30.8160   37.4900 C   0  0  0  0  0  0  0  0  0  0  0  0
   45.4210   29.6810   36.5470 C   0  0  0  0  0  0  0  0  0  0  0  0
   46.0510   30.2430   35.3040 C   0  0  0  0  0  0  0  0  0  0  0  0
   47.0660   31.2970   35.6770 C   0  0  0  0  0  0  0  0  0  0  0  0
   47.4810   31.1600   37.1250 C   0  0  0  0  0  0  0  0  0  0  0  0
   45.1839   33.2966   40.4895 H   0  0  0  0  0  0  0  0  0  0  0  0
   49.5163   35.3847   39.9968 H   0  0  0  0  0  0  0  0  0  0  0  0
   43.9744   36.5234   44.3832 H   0  0  0  0  0  0  0  0  0  0  0  0
   44.9883   36.2524   42.0680 H   0  0  0  0  0  0  0  0  0  0  0  0
   47.2485   32.7471   47.8565 H   0  0  0  0  0  0  0  0  0  0  0  0
   46.6120   33.4105   37.0724 H   0  0  0  0  0  0  0  0  0  0  0  0
   45.0751   33.2311   38.0406 H   0  0  0  0  0  0  0  0  0  0  0  0
   46.4864   31.2095   39.0575 H   0  0  0  0  0  0  0  0  0  0  0  0
   44.5295   30.4106   38.3433 H   0  0  0  0  0  0  0  0  0  0  0  0
   44.5070   31.5546   36.9233 H   0  0  0  0  0  0  0  0  0  0  0  0
   46.1221   28.9876   37.0345 H   0  0  0  0  0  0  0  0  0  0  0  0
   44.5006   29.1389   36.2842 H   0  0  0  0  0  0  0  0  0  0  0  0
   45.2720   30.6937   34.6715 H   0  0  0  0  0  0  0  0  0  0  0  0
   46.5531   29.4338   34.7534 H   0  0  0  0  0  0  0  0  0  0  0  0
   47.9531   31.1851   35.0362 H   0  0  0  0  0  0  0  0  0  0  0  0
   46.6110   32.2883   35.5347 H   0  0  0  0  0  0  0  0  0  0  0  0
   47.7853   30.1216   37.3227 H   0  0  0  0  0  0  0  0  0  0  0  0
   48.3254   31.8345   37.3302 H   0  0  0  0  0  0  0  0  0  0  0  0
  1 11  1  0
  2  1  1  0
  3  2  2  0
  4  3  1  0
  4  6  1  0
  5  4  2  0
  6  7  1  0
  7  1  1  0
  7  8  2  0
  9 14  2  0
 10  9  1  0
 11 10  2  0
 11 12  1  0
 12 13  2  0
 13 14  1  0
 13 15  1  0
 15 16  2  0
 15 17  1  0
 18 19  1  0
 18  3  1  0
 20 19  1  0
 21 20  1  0
 22 23  1  0
 22 21  1  0
 23 24  1  0
 24 19  1  0
  2 25  1  0
  6 26  1  0
  9 27  1  0
 10 28  1  0
 17 29  1  0
 18 30  1  0
 18 31  1  0
 19 32  1  0
 20 33  1  0
 20 34  1  0
 21 35  1  0
 21 36  1  0
 22 37  1  0
 22 38  1  0
 23 39  1  0
 23 40  1  0
 24 41  1  0
 24 42  1  0
M  ISO  8  25  14  26   9  27  14  28  14  29   3  30   8  31   8  32  13
M  ISO  8  33  13  34  13  35  13  36  13  37  13  38  13  39  13  40  13
M  ISO  2  41  13  42  13
M  END
>  <minimizedAffinity>  (1) 
-5.76685429

>  <minimizedRMSD>  (1) 
0.574899971

$$$$
