
     RDKit          3D

 34 36  0  0  0  0  0  0  0  0999 V2000
   46.7250   34.3890   41.4120 N   0  0  0  0  0  0  0  0  0  0  0  0
   46.1630   33.7600   40.3530 C   0  0  0  0  0  0  0  0  0  0  0  0
   46.7640   33.6830   39.1250 C   0  0  0  0  0  0  0  0  0  0  0  0
   48.0070   34.3080   39.0480 C   0  0  0  0  0  0  0  0  0  0  0  0
   48.6340   34.2840   37.9430 O   0  0  0  0  0  0  0  0  0  0  0  0
   48.5790   34.9370   40.0880 N   0  0  0  0  0  0  0  0  0  0  0  0
   47.9440   34.9850   41.2840 C   0  0  0  0  0  0  0  0  0  0  0  0
   48.5280   35.5830   42.2030 O   0  0  0  0  0  0  0  0  0  0  0  0
   44.7000   35.7120   44.1890 C   0  0  0  0  0  0  0  0  0  0  0  0
   45.2590   35.5720   42.8870 C   0  0  0  0  0  0  0  0  0  0  0  0
   46.1870   34.5100   42.6930 C   0  0  0  0  0  0  0  0  0  0  0  0
   46.4520   33.7340   43.7660 N   0  0  0  0  0  0  0  0  0  0  0  0
   45.9100   33.8950   44.9750 C   0  0  0  0  0  0  0  0  0  0  0  0
   45.0370   34.8770   45.1930 N   0  0  0  0  0  0  0  0  0  0  0  0
   46.2620   32.9990   46.0630 C   0  0  0  0  0  0  0  0  0  0  0  0
   45.8680   31.8020   46.0840 O   0  0  0  0  0  0  0  0  0  0  0  0
   47.0380   33.3880   47.1270 O   0  0  0  0  0  0  0  0  0  0  0  0
   46.1520   32.9910   37.9930 C   0  0  0  0  0  0  0  0  0  0  0  0
   46.7990   31.7050   37.6250 C   0  0  0  0  0  0  0  0  0  0  0  0
   47.0570   30.6590   38.5100 C   0  0  0  0  0  0  0  0  0  0  0  0
   47.6520   29.4980   38.0810 C   0  0  0  0  0  0  0  0  0  0  0  0
   47.9850   29.3950   36.7810 N   0  0  0  0  0  0  0  0  0  0  0  0
   47.7250   30.4240   35.9390 C   0  0  0  0  0  0  0  0  0  0  0  0
   47.1490   31.5540   36.3370 N   0  0  0  0  0  0  0  0  0  0  0  0
   45.1778   33.2889   40.4852 H   0  0  0  0  0  0  0  0  0  0  0  0
   49.5007   35.3830   39.9762 H   0  0  0  0  0  0  0  0  0  0  0  0
   43.9774   36.5190   44.3802 H   0  0  0  0  0  0  0  0  0  0  0  0
   44.9861   36.2537   42.0680 H   0  0  0  0  0  0  0  0  0  0  0  0
   47.2521   32.7419   47.8459 H   0  0  0  0  0  0  0  0  0  0  0  0
   45.1012   32.7856   38.2450 H   0  0  0  0  0  0  0  0  0  0  0  0
   46.2680   33.6557   37.1243 H   0  0  0  0  0  0  0  0  0  0  0  0
   46.7795   30.7654   39.5691 H   0  0  0  0  0  0  0  0  0  0  0  0
   47.8512   28.6737   38.7816 H   0  0  0  0  0  0  0  0  0  0  0  0
   48.0027   30.3199   34.8797 H   0  0  0  0  0  0  0  0  0  0  0  0
  1 11  1  0
  2  1  1  0
  3  2  2  0
  4  3  1  0
  4  6  1  0
  5  4  2  0
  6  7  1  0
  7  1  1  0
  7  8  2  0
  9 14  2  0
 10  9  1  0
 11 10  2  0
 11 12  1  0
 12 13  2  0
 13 14  1  0
 13 15  1  0
 15 16  2  0
 15 17  1  0
 18  3  1  0
 19 18  1  0
 19 20  2  0
 21 20  1  0
 22 21  2  0
 23 24  2  0
 23 22  1  0
 24 19  1  0
  2 25  1  0
  6 26  1  0
  9 27  1  0
 10 28  1  0
 17 29  1  0
 18 30  1  0
 18 31  1  0
 20 32  1  0
 21 33  1  0
 23 34  1  0
M  ISO  8  25  14  26   9  27  14  28  14  29   3  30   8  31   8  32  14
M  ISO  2  33  14  34  14
M  END
>  <minimizedAffinity>  (1) 
-5.66726446

>  <minimizedRMSD>  (1) 
0.390628576

$$$$
