
     RDKit          3D

 27 28  0  0  0  0  0  0  0  0999 V2000
   46.7070   34.3490   41.4270 N   0  0  0  0  0  0  0  0  0  0  0  0
   46.1500   33.6960   40.3750 C   0  0  0  0  0  0  0  0  0  0  0  0
   46.7360   33.6070   39.1390 C   0  0  0  0  0  0  0  0  0  0  0  0
   47.9560   34.2420   39.0470 C   0  0  0  0  0  0  0  0  0  0  0  0
   48.5730   34.2090   37.9300 O   0  0  0  0  0  0  0  0  0  0  0  0
   48.5430   34.9030   40.0770 N   0  0  0  0  0  0  0  0  0  0  0  0
   47.9050   34.9510   41.2650 C   0  0  0  0  0  0  0  0  0  0  0  0
   48.4960   35.5750   42.1720 O   0  0  0  0  0  0  0  0  0  0  0  0
   44.7090   35.7330   44.1950 C   0  0  0  0  0  0  0  0  0  0  0  0
   45.2650   35.5680   42.9000 C   0  0  0  0  0  0  0  0  0  0  0  0
   46.1780   34.4920   42.7150 C   0  0  0  0  0  0  0  0  0  0  0  0
   46.4420   33.7170   43.7830 N   0  0  0  0  0  0  0  0  0  0  0  0
   45.9050   33.8970   44.9890 C   0  0  0  0  0  0  0  0  0  0  0  0
   45.0380   34.9030   45.2000 N   0  0  0  0  0  0  0  0  0  0  0  0
   46.2460   33.0140   46.0840 C   0  0  0  0  0  0  0  0  0  0  0  0
   45.8330   31.8290   46.1330 O   0  0  0  0  0  0  0  0  0  0  0  0
   47.0370   33.4040   47.1340 O   0  0  0  0  0  0  0  0  0  0  0  0
   46.1020   32.9070   38.0340 C   0  0  0  0  0  0  0  0  0  0  0  0
   44.2850   33.0080   38.2720 S   0  0  0  0  0  0  0  0  0  0  0  0
   45.1737   33.2112   40.5228 H   0  0  0  0  0  0  0  0  0  0  0  0
   49.4582   35.3593   39.9541 H   0  0  0  0  0  0  0  0  0  0  0  0
   43.9983   36.5521   44.3793 H   0  0  0  0  0  0  0  0  0  0  0  0
   45.0013   36.2439   42.0732 H   0  0  0  0  0  0  0  0  0  0  0  0
   47.2441   32.7654   47.8616 H   0  0  0  0  0  0  0  0  0  0  0  0
   46.4202   31.8540   38.0266 H   0  0  0  0  0  0  0  0  0  0  0  0
   46.3892   33.3636   37.0754 H   0  0  0  0  0  0  0  0  0  0  0  0
   44.0001   33.0238   39.6120 H   0  0  0  0  0  0  0  0  0  0  0  0
  1 11  1  0
  2  1  1  0
  3  2  2  0
  4  3  1  0
  4  6  1  0
  5  4  2  0
  6  7  1  0
  7  1  1  0
  7  8  2  0
  9 14  2  0
 10  9  1  0
 11 10  2  0
 11 12  1  0
 12 13  2  0
 13 14  1  0
 13 15  1  0
 15 16  2  0
 15 17  1  0
 18 19  1  0
 18  3  1  0
  2 20  1  0
  6 21  1  0
  9 22  1  0
 10 23  1  0
 17 24  1  0
 18 25  1  0
 18 26  1  0
 19 27  1  0
M  ISO  8  20  14  21   9  22  14  23  14  24   3  25   8  26   8  27  11
M  END
>  <minimizedAffinity>  (1) 
-5.64753437

>  <minimizedRMSD>  (1) 
0.480945498

$$$$
