
     RDKit          3D

 35 37  0  0  0  0  0  0  0  0999 V2000
   46.9360   34.2220   41.1070 N   0  0  0  0  0  0  0  0  0  0  0  0
   46.4970   33.4360   40.1040 C   0  0  0  0  0  0  0  0  0  0  0  0
   47.0910   33.3820   38.8750 C   0  0  0  0  0  0  0  0  0  0  0  0
   48.1860   34.1950   38.7200 C   0  0  0  0  0  0  0  0  0  0  0  0
   48.7930   34.1970   37.5970 O   0  0  0  0  0  0  0  0  0  0  0  0
   48.6530   34.9920   39.6980 N   0  0  0  0  0  0  0  0  0  0  0  0
   48.0230   35.0060   40.9030 C   0  0  0  0  0  0  0  0  0  0  0  0
   48.5110   35.7700   41.7640 O   0  0  0  0  0  0  0  0  0  0  0  0
   44.8800   35.5100   43.8700 C   0  0  0  0  0  0  0  0  0  0  0  0
   45.4410   35.3640   42.5680 C   0  0  0  0  0  0  0  0  0  0  0  0
   46.3980   34.3470   42.3930 C   0  0  0  0  0  0  0  0  0  0  0  0
   46.7040   33.5980   43.4660 N   0  0  0  0  0  0  0  0  0  0  0  0
   46.1700   33.7510   44.6680 C   0  0  0  0  0  0  0  0  0  0  0  0
   45.2500   34.7120   44.8790 N   0  0  0  0  0  0  0  0  0  0  0  0
   46.5630   32.8920   45.7710 C   0  0  0  0  0  0  0  0  0  0  0  0
   46.5270   31.6420   45.6850 O   0  0  0  0  0  0  0  0  0  0  0  0
   47.0020   33.3760   46.9880 O   0  0  0  0  0  0  0  0  0  0  0  0
   46.5880   32.5140   37.8020 C   0  0  0  0  0  0  0  0  0  0  0  0
   46.2010   33.2850   36.6590 N   0  0  0  0  0  0  0  0  0  0  0  0
   44.6430   31.8720   33.8400 N   0  0  0  0  0  0  0  0  0  0  0  0
   45.4260   32.7110   34.5140 N   0  0  0  0  0  0  0  0  0  0  0  0
   45.3850   32.4350   35.8320 C   0  0  0  0  0  0  0  0  0  0  0  0
   44.5360   31.3650   36.0230 C   0  0  0  0  0  0  0  0  0  0  0  0
   44.0860   31.0350   34.7480 C   0  0  0  0  0  0  0  0  0  0  0  0
   45.6142   32.8050   40.2844 H   0  0  0  0  0  0  0  0  0  0  0  0
   49.4791   35.5854   39.5358 H   0  0  0  0  0  0  0  0  0  0  0  0
   44.1287   36.2933   44.0491 H   0  0  0  0  0  0  0  0  0  0  0  0
   45.1392   36.0176   41.7363 H   0  0  0  0  0  0  0  0  0  0  0  0
   47.2582   32.7464   47.7078 H   0  0  0  0  0  0  0  0  0  0  0  0
   47.3793   31.8083   37.5091 H   0  0  0  0  0  0  0  0  0  0  0  0
   45.7067   31.9709   38.1739 H   0  0  0  0  0  0  0  0  0  0  0  0
   46.4581   34.2634   36.4651 H   0  0  0  0  0  0  0  0  0  0  0  0
   44.4896   31.8611   32.8215 H   0  0  0  0  0  0  0  0  0  0  0  0
   44.2724   30.8792   36.9741 H   0  0  0  0  0  0  0  0  0  0  0  0
   43.3857   30.2198   34.5136 H   0  0  0  0  0  0  0  0  0  0  0  0
  1 11  1  0
  2  1  1  0
  3  2  2  0
  4  3  1  0
  4  6  1  0
  5  4  2  0
  6  7  1  0
  7  1  1  0
  7  8  2  0
  9 14  2  0
 10  9  1  0
 11 10  2  0
 11 12  1  0
 12 13  2  0
 13 14  1  0
 13 15  1  0
 15 17  1  0
 16 15  2  0
 18  3  1  0
 19 18  1  0
 20 21  1  0
 20 24  1  0
 21 22  2  0
 22 23  1  0
 22 19  1  0
 24 23  2  0
  2 25  1  0
  6 26  1  0
  9 27  1  0
 10 28  1  0
 17 29  1  0
 18 30  1  0
 18 31  1  0
 19 32  1  0
 20 33  1  0
 23 34  1  0
 24 35  1  0
M  ISO  8  25  14  26   9  27  14  28  14  29   3  30   8  31   8  33   9
M  ISO  2  34  14  35  14
M  END
>  <minimizedAffinity>  (1) 
-6.7639823

>  <minimizedRMSD>  (1) 
0.457237393

$$$$
