
     RDKit          3D

 36 38  0  0  0  0  0  0  0  0999 V2000
   46.5760   34.4000   41.8100 N   0  0  0  0  0  0  0  0  0  0  0  0
   46.0600   33.6410   40.8200 C   0  0  0  0  0  0  0  0  0  0  0  0
   46.7410   33.3940   39.6600 C   0  0  0  0  0  0  0  0  0  0  0  0
   47.9910   33.9750   39.5740 C   0  0  0  0  0  0  0  0  0  0  0  0
   48.7000   33.7990   38.5280 O   0  0  0  0  0  0  0  0  0  0  0  0
   48.5320   34.7410   40.5540 N   0  0  0  0  0  0  0  0  0  0  0  0
   47.8060   34.9530   41.6930 C   0  0  0  0  0  0  0  0  0  0  0  0
   48.3560   35.6630   42.5530 O   0  0  0  0  0  0  0  0  0  0  0  0
   44.5600   36.2340   44.2980 C   0  0  0  0  0  0  0  0  0  0  0  0
   45.2000   35.8900   43.0720 C   0  0  0  0  0  0  0  0  0  0  0  0
   45.9580   34.7110   43.0360 C   0  0  0  0  0  0  0  0  0  0  0  0
   46.0180   33.9960   44.1770 N   0  0  0  0  0  0  0  0  0  0  0  0
   45.4210   34.3210   45.3110 C   0  0  0  0  0  0  0  0  0  0  0  0
   44.6890   35.4370   45.3900 N   0  0  0  0  0  0  0  0  0  0  0  0
   45.5480   33.4790   46.4920 C   0  0  0  0  0  0  0  0  0  0  0  0
   46.4280   32.5980   46.5810 O   0  0  0  0  0  0  0  0  0  0  0  0
   44.7010   33.6040   47.5850 O   0  0  0  0  0  0  0  0  0  0  0  0
   46.1980   32.5760   38.5800 C   0  0  0  0  0  0  0  0  0  0  0  0
   46.2330   33.2990   37.3340 N   0  0  0  0  0  0  0  0  0  0  0  0
   46.5450   32.7190   36.0730 C   0  0  0  0  0  0  0  0  0  0  0  0
   47.8200   32.5600   35.5710 C   0  0  0  0  0  0  0  0  0  0  0  0
   47.8940   31.9730   34.3260 C   0  0  0  0  0  0  0  0  0  0  0  0
   46.8400   31.5600   33.6010 N   0  0  0  0  0  0  0  0  0  0  0  0
   45.6030   31.7400   34.1430 C   0  0  0  0  0  0  0  0  0  0  0  0
   45.4470   32.3140   35.3710 N   0  0  0  0  0  0  0  0  0  0  0  0
   45.0579   33.2065   40.9508 H   0  0  0  0  0  0  0  0  0  0  0  0
   49.4690   35.1538   40.4426 H   0  0  0  0  0  0  0  0  0  0  0  0
   43.9570   37.1519   44.3603 H   0  0  0  0  0  0  0  0  0  0  0  0
   45.1024   36.5292   42.1821 H   0  0  0  0  0  0  0  0  0  0  0  0
   44.8172   33.0138   48.3713 H   0  0  0  0  0  0  0  0  0  0  0  0
   46.7978   31.6589   38.4836 H   0  0  0  0  0  0  0  0  0  0  0  0
   45.1538   32.3226   38.8156 H   0  0  0  0  0  0  0  0  0  0  0  0
   46.0171   34.3058   37.3580 H   0  0  0  0  0  0  0  0  0  0  0  0
   48.7149   32.8792   36.1253 H   0  0  0  0  0  0  0  0  0  0  0  0
   48.8945   31.8313   33.8914 H   0  0  0  0  0  0  0  0  0  0  0  0
   44.7145   31.4169   33.5807 H   0  0  0  0  0  0  0  0  0  0  0  0
  1 11  1  0
  2  1  1  0
  3  2  2  0
  4  3  1  0
  4  6  1  0
  5  4  2  0
  6  7  1  0
  7  1  1  0
  7  8  2  0
  9 14  2  0
 10  9  1  0
 11 10  2  0
 11 12  1  0
 12 13  2  0
 13 14  1  0
 13 15  1  0
 15 16  2  0
 15 17  1  0
 18  3  1  0
 19 18  1  0
 20 19  1  0
 21 20  2  0
 22 21  1  0
 23 24  1  0
 23 22  2  0
 24 25  2  0
 25 20  1  0
  2 26  1  0
  6 27  1  0
  9 28  1  0
 10 29  1  0
 17 30  1  0
 18 31  1  0
 18 32  1  0
 19 33  1  0
 21 34  1  0
 22 35  1  0
 24 36  1  0
M  ISO  8  26  14  27   9  28  14  29  14  30   3  31   8  32   8  34  14
M  ISO  2  35  14  36  14
M  END
>  <minimizedAffinity>  (1) 
-5.96661758

>  <minimizedRMSD>  (1) 
1.50898945

$$$$
