
     RDKit          3D

 31 32  0  0  0  0  0  0  0  0999 V2000
   46.7060   34.3120   41.4080 N   0  0  0  0  0  0  0  0  0  0  0  0
   46.1810   33.6180   40.3920 C   0  0  0  0  0  0  0  0  0  0  0  0
   46.7680   33.5170   39.1600 C   0  0  0  0  0  0  0  0  0  0  0  0
   47.9630   34.1940   39.0370 C   0  0  0  0  0  0  0  0  0  0  0  0
   48.5760   34.1490   37.9150 O   0  0  0  0  0  0  0  0  0  0  0  0
   48.5220   34.9040   40.0400 N   0  0  0  0  0  0  0  0  0  0  0  0
   47.8760   34.9580   41.2390 C   0  0  0  0  0  0  0  0  0  0  0  0
   48.4570   35.6360   42.1170 O   0  0  0  0  0  0  0  0  0  0  0  0
   44.7250   35.7300   44.1740 C   0  0  0  0  0  0  0  0  0  0  0  0
   45.2790   35.5430   42.8750 C   0  0  0  0  0  0  0  0  0  0  0  0
   46.1750   34.4700   42.6990 C   0  0  0  0  0  0  0  0  0  0  0  0
   46.4470   33.6920   43.7690 N   0  0  0  0  0  0  0  0  0  0  0  0
   45.9070   33.8980   44.9710 C   0  0  0  0  0  0  0  0  0  0  0  0
   45.0550   34.8990   45.1910 N   0  0  0  0  0  0  0  0  0  0  0  0
   46.2480   33.0170   46.0820 C   0  0  0  0  0  0  0  0  0  0  0  0
   45.8250   31.8350   46.1330 O   0  0  0  0  0  0  0  0  0  0  0  0
   47.0440   33.4090   47.1360 O   0  0  0  0  0  0  0  0  0  0  0  0
   46.1670   32.7430   38.0570 C   0  0  0  0  0  0  0  0  0  0  0  0
   45.9590   33.6200   36.9190 N   0  0  0  0  0  0  0  0  0  0  0  0
   45.6100   32.7910   35.7880 C   0  0  0  0  0  0  0  0  0  0  0  0
   45.2246   33.0999   40.5559 H   0  0  0  0  0  0  0  0  0  0  0  0
   49.4173   35.3943   39.9022 H   0  0  0  0  0  0  0  0  0  0  0  0
   44.0224   36.5573   44.3527 H   0  0  0  0  0  0  0  0  0  0  0  0
   45.0172   36.2109   42.0411 H   0  0  0  0  0  0  0  0  0  0  0  0
   47.2464   32.7726   47.8668 H   0  0  0  0  0  0  0  0  0  0  0  0
   46.8426   31.9232   37.7715 H   0  0  0  0  0  0  0  0  0  0  0  0
   45.2038   32.3224   38.3815 H   0  0  0  0  0  0  0  0  0  0  0  0
   45.1947   34.2807   37.1196 H   0  0  0  0  0  0  0  0  0  0  0  0
   45.2065   31.8325   36.1466 H   0  0  0  0  0  0  0  0  0  0  0  0
   44.8511   33.3032   35.1783 H   0  0  0  0  0  0  0  0  0  0  0  0
   46.5067   32.6062   35.1783 H   0  0  0  0  0  0  0  0  0  0  0  0
  1 11  1  0
  2  1  1  0
  3  2  2  0
  4  3  1  0
  4  6  1  0
  5  4  2  0
  6  7  1  0
  7  1  1  0
  7  8  2  0
  9 14  2  0
 10  9  1  0
 11 10  2  0
 11 12  1  0
 12 13  2  0
 13 14  1  0
 13 15  1  0
 15 16  2  0
 15 17  1  0
 18  3  1  0
 19 18  1  0
 20 19  1  0
  2 21  1  0
  6 22  1  0
  9 23  1  0
 10 24  1  0
 17 25  1  0
 18 26  1  0
 18 27  1  0
 19 28  1  0
 20 29  1  0
 20 30  1  0
 20 31  1  0
M  ISO  8  21  14  22   9  23  14  24  14  25   3  26   8  27   8  28   5
M  ISO  3  29   8  30   8  31   8
M  END
>  <minimizedAffinity>  (1) 
-5.7860961

>  <minimizedRMSD>  (1) 
0.183715895

$$$$
