
     RDKit          3D

 34 35  0  0  0  0  0  0  0  0999 V2000
   46.7080   34.3330   41.4070 N   0  0  0  0  0  0  0  0  0  0  0  0
   46.1590   33.6370   40.3860 C   0  0  0  0  0  0  0  0  0  0  0  0
   46.7510   33.5380   39.1620 C   0  0  0  0  0  0  0  0  0  0  0  0
   47.9600   34.2040   39.0440 C   0  0  0  0  0  0  0  0  0  0  0  0
   48.5920   34.1670   37.9270 O   0  0  0  0  0  0  0  0  0  0  0  0
   48.5330   34.9100   40.0480 N   0  0  0  0  0  0  0  0  0  0  0  0
   47.8880   34.9660   41.2390 C   0  0  0  0  0  0  0  0  0  0  0  0
   48.4660   35.6320   42.1330 O   0  0  0  0  0  0  0  0  0  0  0  0
   44.7240   35.7380   44.1820 C   0  0  0  0  0  0  0  0  0  0  0  0
   45.2790   35.5580   42.8810 C   0  0  0  0  0  0  0  0  0  0  0  0
   46.1710   34.4930   42.7030 C   0  0  0  0  0  0  0  0  0  0  0  0
   46.4350   33.7210   43.7760 N   0  0  0  0  0  0  0  0  0  0  0  0
   45.9160   33.8970   44.9770 C   0  0  0  0  0  0  0  0  0  0  0  0
   45.0530   34.9080   45.1930 N   0  0  0  0  0  0  0  0  0  0  0  0
   46.2500   33.0210   46.0800 C   0  0  0  0  0  0  0  0  0  0  0  0
   45.8260   31.8370   46.1300 O   0  0  0  0  0  0  0  0  0  0  0  0
   47.0460   33.4050   47.1390 O   0  0  0  0  0  0  0  0  0  0  0  0
   46.1650   32.7880   38.0620 C   0  0  0  0  0  0  0  0  0  0  0  0
   45.9840   33.6170   36.9100 N   0  0  0  0  0  0  0  0  0  0  0  0
   45.5770   32.7530   35.8160 C   0  0  0  0  0  0  0  0  0  0  0  0
   44.7930   31.5640   36.3230 C   0  0  0  0  0  0  0  0  0  0  0  0
   45.1963   33.1305   40.5495 H   0  0  0  0  0  0  0  0  0  0  0  0
   49.4335   35.3908   39.9104 H   0  0  0  0  0  0  0  0  0  0  0  0
   44.0195   36.5631   44.3632 H   0  0  0  0  0  0  0  0  0  0  0  0
   45.0169   36.2292   42.0498 H   0  0  0  0  0  0  0  0  0  0  0  0
   47.2429   32.7647   47.8679 H   0  0  0  0  0  0  0  0  0  0  0  0
   46.8316   31.9525   37.8019 H   0  0  0  0  0  0  0  0  0  0  0  0
   45.1808   32.4138   38.3804 H   0  0  0  0  0  0  0  0  0  0  0  0
   45.2547   34.3209   37.0933 H   0  0  0  0  0  0  0  0  0  0  0  0
   46.4735   32.3939   35.2894 H   0  0  0  0  0  0  0  0  0  0  0  0
   44.9339   33.3307   35.1358 H   0  0  0  0  0  0  0  0  0  0  0  0
   44.7943   31.5660   37.4230 H   0  0  0  0  0  0  0  0  0  0  0  0
   43.7573   31.6248   35.9575 H   0  0  0  0  0  0  0  0  0  0  0  0
   45.2569   30.6360   35.9575 H   0  0  0  0  0  0  0  0  0  0  0  0
  1 11  1  0
  2  1  1  0
  3  2  2  0
  4  3  1  0
  4  6  1  0
  5  4  2  0
  6  7  1  0
  7  1  1  0
  7  8  2  0
  9 14  2  0
 10  9  1  0
 11 10  2  0
 11 12  1  0
 12 13  2  0
 13 14  1  0
 13 15  1  0
 15 16  2  0
 15 17  1  0
 18  3  1  0
 19 18  1  0
 20 21  1  0
 20 19  1  0
  2 22  1  0
  6 23  1  0
  9 24  1  0
 10 25  1  0
 17 26  1  0
 18 27  1  0
 18 28  1  0
 19 29  1  0
 20 30  1  0
 20 31  1  0
 21 32  1  0
 21 33  1  0
 21 34  1  0
M  ISO  8  22  14  23   9  24  14  25  14  26   3  27   8  28   8  29   5
M  ISO  5  30   8  31   8  32   8  33   8  34   8
M  END
>  <minimizedAffinity>  (1) 
-5.69407606

>  <minimizedRMSD>  (1) 
0.171308145

$$$$
