
     RDKit          3D

 38 40  0  0  0  0  0  0  0  0999 V2000
   45.2990   33.9860   41.6230 N   0  0  0  0  0  0  0  0  0  0  0  0
   44.3370   33.5080   40.8290 C   0  0  0  0  0  0  0  0  0  0  0  0
   44.5220   33.2400   39.4790 C   0  0  0  0  0  0  0  0  0  0  0  0
   45.7790   33.5030   39.0090 C   0  0  0  0  0  0  0  0  0  0  0  0
   46.0170   33.2820   37.7900 O   0  0  0  0  0  0  0  0  0  0  0  0
   46.7630   33.9850   39.7870 N   0  0  0  0  0  0  0  0  0  0  0  0
   46.5260   34.2270   41.0950 C   0  0  0  0  0  0  0  0  0  0  0  0
   47.5050   34.6760   41.7390 O   0  0  0  0  0  0  0  0  0  0  0  0
   44.4960   35.8390   44.6930 C   0  0  0  0  0  0  0  0  0  0  0  0
   44.5920   35.5050   43.3090 C   0  0  0  0  0  0  0  0  0  0  0  0
   45.2210   34.2880   42.9830 C   0  0  0  0  0  0  0  0  0  0  0  0
   45.6840   33.5320   43.9970 N   0  0  0  0  0  0  0  0  0  0  0  0
   45.5810   33.8690   45.2730 C   0  0  0  0  0  0  0  0  0  0  0  0
   44.9960   35.0070   45.6440 N   0  0  0  0  0  0  0  0  0  0  0  0
   46.1100   32.9910   46.3080 C   0  0  0  0  0  0  0  0  0  0  0  0
   45.6920   31.7940   46.4340 O   0  0  0  0  0  0  0  0  0  0  0  0
   47.0770   33.3750   47.2040 O   0  0  0  0  0  0  0  0  0  0  0  0
   43.4050   32.7210   38.6580 C   0  0  0  0  0  0  0  0  0  0  0  0
   42.1630   33.0450   39.2810 N   0  0  0  0  0  0  0  0  0  0  0  0
   41.4810   32.3260   40.2940 C   0  0  0  0  0  0  0  0  0  0  0  0
   40.2250   31.8980   39.8530 C   0  0  0  0  0  0  0  0  0  0  0  0
   39.6070   31.2020   40.8890 C   0  0  0  0  0  0  0  0  0  0  0  0
   40.4970   31.2260   41.9240 N   0  0  0  0  0  0  0  0  0  0  0  0
   41.5830   31.8850   41.5600 N   0  0  0  0  0  0  0  0  0  0  0  0
   41.6520   34.2700   38.6780 C   0  0  0  0  0  0  0  0  0  0  0  0
   41.0460   35.0150   39.6340 F   0  0  0  0  0  0  0  0  0  0  0  0
   42.7020   34.8850   38.0550 F   0  0  0  0  0  0  0  0  0  0  0  0
   40.6980   34.0330   37.7080 F   0  0  0  0  0  0  0  0  0  0  0  0
   43.3465   33.3166   41.2674 H   0  0  0  0  0  0  0  0  0  0  0  0
   47.6944   34.1693   39.3877 H   0  0  0  0  0  0  0  0  0  0  0  0
   44.0121   36.7801   44.9933 H   0  0  0  0  0  0  0  0  0  0  0  0
   44.1916   36.1701   42.5297 H   0  0  0  0  0  0  0  0  0  0  0  0
   47.4002   32.7360   47.8877 H   0  0  0  0  0  0  0  0  0  0  0  0
   43.4947   31.6285   38.5664 H   0  0  0  0  0  0  0  0  0  0  0  0
   43.4428   33.1784   37.6583 H   0  0  0  0  0  0  0  0  0  0  0  0
   39.7973   32.0803   38.8561 H   0  0  0  0  0  0  0  0  0  0  0  0
   38.6124   30.7324   40.8761 H   0  0  0  0  0  0  0  0  0  0  0  0
   40.3451   30.7961   42.8476 H   0  0  0  0  0  0  0  0  0  0  0  0
  1 11  1  0
  2  1  1  0
  3  2  2  0
  4  3  1  0
  4  6  1  0
  5  4  2  0
  6  7  1  0
  7  1  1  0
  7  8  2  0
  9 14  2  0
 10  9  1  0
 11 10  2  0
 11 12  1  0
 12 13  2  0
 13 14  1  0
 13 15  1  0
 15 16  2  0
 15 17  1  0
 18 19  1  0
 18  3  1  0
 19 20  1  0
 20 24  2  0
 21 20  1  0
 21 22  2  0
 22 23  1  0
 24 23  1  0
 25 19  1  0
 25 26  1  0
 27 25  1  0
 28 25  1  0
  2 29  1  0
  6 30  1  0
  9 31  1  0
 10 32  1  0
 17 33  1  0
 18 34  1  0
 18 35  1  0
 21 36  1  0
 22 37  1  0
 23 38  1  0
M  ISO  8  29  14  30   9  31  14  32  14  33   3  34   8  35   8  36  14
M  ISO  2  37  14  38   9
M  END
>  <minimizedAffinity>  (1) 
-6.21487856

>  <minimizedRMSD>  (1) 
4.29854012

$$$$
