
     RDKit          3D

 37 39  0  0  0  0  0  0  0  0999 V2000
   46.6280   33.9670   41.6810 N   0  0  0  0  0  0  0  0  0  0  0  0
   46.2160   33.0620   40.7950 C   0  0  0  0  0  0  0  0  0  0  0  0
   46.7870   32.9070   39.5370 C   0  0  0  0  0  0  0  0  0  0  0  0
   47.8200   33.7620   39.2650 C   0  0  0  0  0  0  0  0  0  0  0  0
   48.3820   33.6700   38.1370 O   0  0  0  0  0  0  0  0  0  0  0  0
   48.2520   34.6810   40.1390 N   0  0  0  0  0  0  0  0  0  0  0  0
   47.6620   34.7920   41.3500 C   0  0  0  0  0  0  0  0  0  0  0  0
   48.1310   35.6780   42.1020 O   0  0  0  0  0  0  0  0  0  0  0  0
   44.7240   35.5660   44.3870 C   0  0  0  0  0  0  0  0  0  0  0  0
   45.2520   35.2930   43.0880 C   0  0  0  0  0  0  0  0  0  0  0  0
   46.1300   34.2080   42.9620 C   0  0  0  0  0  0  0  0  0  0  0  0
   46.4050   33.5150   44.0770 N   0  0  0  0  0  0  0  0  0  0  0  0
   45.9070   33.7820   45.2740 C   0  0  0  0  0  0  0  0  0  0  0  0
   45.0730   34.7930   45.4480 N   0  0  0  0  0  0  0  0  0  0  0  0
   46.2700   32.9640   46.4260 C   0  0  0  0  0  0  0  0  0  0  0  0
   45.7230   31.8530   46.6570 O   0  0  0  0  0  0  0  0  0  0  0  0
   47.2300   33.3450   47.3390 O   0  0  0  0  0  0  0  0  0  0  0  0
   46.2650   31.8820   38.6040 C   0  0  0  0  0  0  0  0  0  0  0  0
   45.1310   32.3930   37.9110 N   0  0  0  0  0  0  0  0  0  0  0  0
   43.8530   32.7960   38.3730 C   0  0  0  0  0  0  0  0  0  0  0  0
   43.5310   31.4100   38.7760 C   0  0  0  0  0  0  0  0  0  0  0  0
   41.7610   31.7700   39.4540 S   0  0  0  0  0  0  0  0  0  0  0  0
   41.8740   33.6480   39.0460 C   0  0  0  0  0  0  0  0  0  0  0  0
   43.1670   33.9130   38.4480 N   0  0  0  0  0  0  0  0  0  0  0  0
   45.4430   32.4270   36.4830 C   0  0  0  0  0  0  0  0  0  0  0  0
   45.4190   33.7060   36.0410 F   0  0  0  0  0  0  0  0  0  0  0  0
   46.6350   31.7780   36.3180 F   0  0  0  0  0  0  0  0  0  0  0  0
   44.5150   31.7360   35.7240 F   0  0  0  0  0  0  0  0  0  0  0  0
   45.3804   32.4029   41.0731 H   0  0  0  0  0  0  0  0  0  0  0  0
   49.0337   35.3029   39.8881 H   0  0  0  0  0  0  0  0  0  0  0  0
   44.0302   36.4077   44.5290 H   0  0  0  0  0  0  0  0  0  0  0  0
   44.9798   35.9109   42.2196 H   0  0  0  0  0  0  0  0  0  0  0  0
   47.4440   32.7575   48.1065 H   0  0  0  0  0  0  0  0  0  0  0  0
   47.0476   31.6167   37.8779 H   0  0  0  0  0  0  0  0  0  0  0  0
   45.9700   30.9887   39.1741 H   0  0  0  0  0  0  0  0  0  0  0  0
   44.1114   30.4779   38.7105 H   0  0  0  0  0  0  0  0  0  0  0  0
   41.0887   34.3947   39.2351 H   0  0  0  0  0  0  0  0  0  0  0  0
  1 11  1  0
  2  1  1  0
  3  2  2  0
  4  3  1  0
  4  6  1  0
  5  4  2  0
  6  7  1  0
  7  1  1  0
  7  8  2  0
  9 14  2  0
 10  9  1  0
 11 10  2  0
 11 12  1  0
 12 13  2  0
 13 14  1  0
 13 15  1  0
 15 16  2  0
 15 17  1  0
 18  3  1  0
 19 20  1  0
 19 18  1  0
 20 24  1  0
 20 21  2  0
 21 22  1  0
 23 22  1  0
 24 23  2  0
 25 19  1  0
 26 25  1  0
 27 25  1  0
 28 25  1  0
  2 29  1  0
  6 30  1  0
  9 31  1  0
 10 32  1  0
 17 33  1  0
 18 34  1  0
 18 35  1  0
 21 36  1  0
 23 37  1  0
M  ISO  8  29  14  30   9  31  14  32  14  33   3  34   8  35   8  36  14
M  ISO  1  37  14
M  END
>  <minimizedAffinity>  (1) 
-5.60647964

>  <minimizedRMSD>  (1) 
2.14871836

$$$$
