
     RDKit          3D

 30 31  0  0  1  0  0  0  0  0999 V2000
   47.6320   34.3040   42.0120 C   0  0  1  0  0  0  0  0  0  0  0  0
   45.6000   35.5740   42.8150 C   0  0  0  0  0  0  0  0  0  0  0  0
   46.2350   34.7000   41.8950 C   0  0  0  0  0  0  0  0  0  0  0  0
   45.4610   34.2140   40.8450 C   0  0  0  0  0  0  0  0  0  0  0  0
   44.1590   34.5980   40.7620 N   0  0  0  0  0  0  0  0  0  0  0  0
   43.5810   35.4320   41.6520 C   0  0  0  0  0  0  0  0  0  0  0  0
   44.3160   35.9250   42.6940 N   0  0  0  0  0  0  0  0  0  0  0  0
   48.5530   35.3200   41.4300 C   0  0  0  0  0  0  0  0  0  0  0  0
   47.9430   34.0330   43.4710 C   0  0  0  0  0  0  0  0  0  0  0  0
   47.5770   32.7200   43.8910 N   0  0  0  0  0  0  0  0  0  0  0  0
   47.8930   31.5350   43.3410 C   0  0  0  0  0  0  0  0  0  0  0  0
   47.4610   30.3370   43.8630 C   0  0  0  0  0  0  0  0  0  0  0  0
   46.6710   30.3270   44.9940 C   0  0  0  0  0  0  0  0  0  0  0  0
   46.1820   29.1280   45.5970 N   0  0  0  0  0  0  0  0  0  0  0  0
   46.3610   31.5160   45.5350 N   0  0  0  0  0  0  0  0  0  0  0  0
   46.7930   32.6670   45.0100 C   0  0  0  0  0  0  0  0  0  0  0  0
   46.4040   33.6990   45.6500 O   0  0  0  0  0  0  0  0  0  0  0  0
   47.7928   33.3849   41.4294 H   0  0  0  0  0  0  0  0  0  0  0  0
   46.1840   35.9761   43.6560 H   0  0  0  0  0  0  0  0  0  0  0  0
   45.8938   33.5330   40.0974 H   0  0  0  0  0  0  0  0  0  0  0  0
   42.5236   35.7137   41.5395 H   0  0  0  0  0  0  0  0  0  0  0  0
   49.0518   35.8703   42.2414 H   0  0  0  0  0  0  0  0  0  0  0  0
   49.3091   34.8168   40.8094 H   0  0  0  0  0  0  0  0  0  0  0  0
   47.9782   36.0232   40.8094 H   0  0  0  0  0  0  0  0  0  0  0  0
   49.0243   34.1609   43.6272 H   0  0  0  0  0  0  0  0  0  0  0  0
   47.3514   34.7429   44.0677 H   0  0  0  0  0  0  0  0  0  0  0  0
   48.5215   31.5222   42.4383 H   0  0  0  0  0  0  0  0  0  0  0  0
   47.7448   29.3904   43.3799 H   0  0  0  0  0  0  0  0  0  0  0  0
   45.5951   29.1787   46.4419 H   0  0  0  0  0  0  0  0  0  0  0  0
   46.4163   28.2127   45.1869 H   0  0  0  0  0  0  0  0  0  0  0  0
  1  9  1  0
  3  1  1  0
  3  2  2  0
  4  3  1  0
  5  4  2  0
  5  6  1  0
  6  7  2  0
  7  2  1  0
  8  1  1  0
  9 10  1  0
 10 16  1  0
 11 12  2  0
 11 10  1  0
 12 13  1  0
 13 15  2  0
 13 14  1  0
 16 15  1  0
 16 17  2  0
  1 18  1  6
  2 19  1  0
  4 20  1  0
  6 21  1  0
  8 22  1  0
  8 23  1  0
  8 24  1  0
  9 25  1  0
  9 26  1  0
 11 27  1  0
 12 28  1  0
 14 29  1  0
 14 30  1  0
M  ISO  8  18   8  19  14  20  14  21  14  22   8  23   8  24   8  25   8
M  ISO  3  26   8  27  14  28  14
M  END
>  <minimizedAffinity>  (1) 
-4.10293961

>  <minimizedRMSD>  (1) 
4.4731102

$$$$
