
     RDKit          3D

 30 32  0  0  1  0  0  0  0  0999 V2000
   46.6800   34.9130   42.2740 C   0  0  1  0  0  0  0  0  0  0  0  0
   48.1480   34.9640   42.1280 C   0  0  0  0  0  0  0  0  0  0  0  0
   48.2930   35.0690   40.6190 C   0  0  0  0  0  0  0  0  0  0  0  0
   47.2270   34.1170   40.1260 C   0  0  0  0  0  0  0  0  0  0  0  0
   46.2690   33.8710   41.2540 C   0  0  2  0  0  0  0  0  0  0  0  0
   46.1170   33.3580   45.6720 C   0  0  0  0  0  0  0  0  0  0  0  0
   46.6460   33.5740   44.3910 C   0  0  0  0  0  0  0  0  0  0  0  0
   46.1650   34.6420   43.6120 C   0  0  0  0  0  0  0  0  0  0  0  0
   45.2010   35.4200   44.1430 N   0  0  0  0  0  0  0  0  0  0  0  0
   44.7050   35.1830   45.3960 C   0  0  0  0  0  0  0  0  0  0  0  0
   45.1690   34.1480   46.1560 N   0  0  0  0  0  0  0  0  0  0  0  0
   44.8720   34.0950   40.8640 N   0  0  0  0  0  0  0  0  0  0  0  0
   44.1680   35.2000   40.8560 N   0  0  0  0  0  0  0  0  0  0  0  0
   42.9440   34.9010   40.4200 C   0  0  0  0  0  0  0  0  0  0  0  0
   42.8560   33.5410   40.1350 C   0  0  0  0  0  0  0  0  0  0  0  0
   44.1200   33.0530   40.4330 C   0  0  0  0  0  0  0  0  0  0  0  0
   46.2413   35.9070   42.1024 H   0  0  0  0  0  0  0  0  0  0  0  0
   48.5730   35.8425   42.6356 H   0  0  0  0  0  0  0  0  0  0  0  0
   48.6752   34.1072   42.5729 H   0  0  0  0  0  0  0  0  0  0  0  0
   48.1027   36.0950   40.2709 H   0  0  0  0  0  0  0  0  0  0  0  0
   49.3025   34.8264   40.2555 H   0  0  0  0  0  0  0  0  0  0  0  0
   46.6936   34.5627   39.2734 H   0  0  0  0  0  0  0  0  0  0  0  0
   47.6815   33.1709   39.7969 H   0  0  0  0  0  0  0  0  0  0  0  0
   46.3125   32.8313   41.6104 H   0  0  0  0  0  0  0  0  0  0  0  0
   46.4932   32.5234   46.2819 H   0  0  0  0  0  0  0  0  0  0  0  0
   47.4320   32.9124   43.9980 H   0  0  0  0  0  0  0  0  0  0  0  0
   43.9182   35.8381   45.7983 H   0  0  0  0  0  0  0  0  0  0  0  0
   42.1231   35.6237   40.3025 H   0  0  0  0  0  0  0  0  0  0  0  0
   41.9855   32.9826   39.7602 H   0  0  0  0  0  0  0  0  0  0  0  0
   44.4520   32.0087   40.3368 H   0  0  0  0  0  0  0  0  0  0  0  0
  1  8  1  0
  2  1  1  0
  3  2  1  0
  4  3  1  0
  4  5  1  0
  5  1  1  0
  6 11  2  0
  7  6  1  0
  8  9  1  0
  8  7  2  0
  9 10  2  0
 10 11  1  0
 12  5  1  0
 13 12  1  0
 14 13  2  0
 15 14  1  0
 15 16  2  0
 16 12  1  0
  1 17  1  6
  2 18  1  0
  2 19  1  0
  3 20  1  0
  3 21  1  0
  4 22  1  0
  4 23  1  0
  5 24  1  1
  6 25  1  0
  7 26  1  0
 10 27  1  0
 14 28  1  0
 15 29  1  0
 16 30  1  0
M  ISO  8  17  13  18  13  19  13  20  13  21  13  22  13  23  13  24  13
M  ISO  6  25  14  26  14  27  14  28  14  29  14  30  14
M  END
>  <minimizedAffinity>  (1) 
-4.99068213

>  <minimizedRMSD>  (1) 
4.47070932

$$$$
