
     RDKit          3D

 30 32  0  0  1  0  0  0  0  0999 V2000
   46.2820   33.7290   41.4810 C   0  0  1  0  0  0  0  0  0  0  0  0
   45.3040   33.6020   40.3780 C   0  0  0  0  0  0  0  0  0  0  0  0
   46.2110   33.1790   39.2370 C   0  0  0  0  0  0  0  0  0  0  0  0
   47.4160   34.0680   39.4340 C   0  0  0  0  0  0  0  0  0  0  0  0
   47.4090   34.5430   40.8720 C   0  0  2  0  0  0  0  0  0  0  0  0
   44.7690   36.0920   44.0160 C   0  0  0  0  0  0  0  0  0  0  0  0
   45.2220   35.6080   42.7700 C   0  0  0  0  0  0  0  0  0  0  0  0
   45.7820   34.3130   42.7310 C   0  0  0  0  0  0  0  0  0  0  0  0
   45.8520   33.6140   43.8850 N   0  0  0  0  0  0  0  0  0  0  0  0
   45.4100   34.1030   45.0620 C   0  0  0  0  0  0  0  0  0  0  0  0
   44.8640   35.3550   45.1230 N   0  0  0  0  0  0  0  0  0  0  0  0
   48.7300   34.2140   41.4650 C   0  0  0  0  0  0  0  0  0  0  0  0
   49.4990   34.8820   42.3890 C   0  0  0  0  0  0  0  0  0  0  0  0
   50.6530   34.1510   42.6090 C   0  0  0  0  0  0  0  0  0  0  0  0
   50.5770   33.0690   41.8350 N   0  0  0  0  0  0  0  0  0  0  0  0
   49.4440   33.0950   41.1540 N   0  0  0  0  0  0  0  0  0  0  0  0
   46.5869   32.7307   41.8280 H   0  0  0  0  0  0  0  0  0  0  0  0
   44.5452   32.8362   40.5966 H   0  0  0  0  0  0  0  0  0  0  0  0
   44.7208   34.5136   40.1807 H   0  0  0  0  0  0  0  0  0  0  0  0
   45.7360   33.3627   38.2620 H   0  0  0  0  0  0  0  0  0  0  0  0
   46.4513   32.1056   39.2413 H   0  0  0  0  0  0  0  0  0  0  0  0
   48.3367   33.5011   39.2314 H   0  0  0  0  0  0  0  0  0  0  0  0
   47.3786   34.9250   38.7455 H   0  0  0  0  0  0  0  0  0  0  0  0
   47.2562   35.6220   41.0220 H   0  0  0  0  0  0  0  0  0  0  0  0
   44.3284   37.0982   44.0750 H   0  0  0  0  0  0  0  0  0  0  0  0
   45.1413   36.2198   41.8594 H   0  0  0  0  0  0  0  0  0  0  0  0
   45.4890   33.4934   45.9742 H   0  0  0  0  0  0  0  0  0  0  0  0
   49.2404   35.8361   42.8715 H   0  0  0  0  0  0  0  0  0  0  0  0
   51.4750   34.4127   43.2915 H   0  0  0  0  0  0  0  0  0  0  0  0
   51.2898   32.3278   41.7764 H   0  0  0  0  0  0  0  0  0  0  0  0
  1  8  1  0
  2  1  1  0
  3  4  1  0
  3  2  1  0
  4  5  1  0
  5 12  1  0
  5  1  1  0
  6 11  2  0
  7  6  1  0
  8  7  2  0
  8  9  1  0
  9 10  2  0
 10 11  1  0
 12 13  1  0
 13 14  2  0
 15 14  1  0
 16 12  2  0
 16 15  1  0
  1 17  1  1
  2 18  1  0
  2 19  1  0
  3 20  1  0
  3 21  1  0
  4 22  1  0
  4 23  1  0
  5 24  1  6
  6 25  1  0
  7 26  1  0
 10 27  1  0
 13 28  1  0
 14 29  1  0
 15 30  1  0
M  ISO  8  17  13  18  13  19  13  20  13  21  13  22  13  23  13  24  13
M  ISO  6  25  14  26  14  27  14  28  14  29  14  30   9
M  END
>  <minimizedAffinity>  (1) 
-4.96794128

>  <minimizedRMSD>  (1) 
1.58478796

$$$$
