
     RDKit          3D

 24 25  0  0  1  0  0  0  0  0999 V2000
   47.0700   34.2980   42.3260 C   0  0  1  0  0  0  0  0  0  0  0  0
   46.4440   34.4570   41.0030 C   0  0  0  0  0  0  0  0  0  0  0  0
   47.6580   34.3260   40.0860 C   0  0  0  0  0  0  0  0  0  0  0  0
   48.7100   35.1100   40.8210 C   0  0  0  0  0  0  0  0  0  0  0  0
   48.2850   35.2080   42.2660 C   0  0  2  0  0  0  0  0  0  0  0  0
   44.5100   35.8110   44.6660 C   0  0  0  0  0  0  0  0  0  0  0  0
   45.2890   35.6120   43.5110 C   0  0  0  0  0  0  0  0  0  0  0  0
   46.2300   34.5610   43.4890 C   0  0  0  0  0  0  0  0  0  0  0  0
   46.3230   33.7990   44.5980 N   0  0  0  0  0  0  0  0  0  0  0  0
   45.5580   34.0150   45.7010 C   0  0  0  0  0  0  0  0  0  0  0  0
   44.6560   35.0200   45.7260 N   0  0  0  0  0  0  0  0  0  0  0  0
   49.2630   34.6570   43.0590 O   0  0  0  0  0  0  0  0  0  0  0  0
   47.3106   33.2379   42.4942 H   0  0  0  0  0  0  0  0  0  0  0  0
   45.7044   33.6663   40.8088 H   0  0  0  0  0  0  0  0  0  0  0  0
   45.8815   35.3940   40.8781 H   0  0  0  0  0  0  0  0  0  0  0  0
   47.4570   34.7619   39.0962 H   0  0  0  0  0  0  0  0  0  0  0  0
   47.9472   33.2831   39.8891 H   0  0  0  0  0  0  0  0  0  0  0  0
   49.6791   34.5945   40.7499 H   0  0  0  0  0  0  0  0  0  0  0  0
   48.8185   36.1132   40.3829 H   0  0  0  0  0  0  0  0  0  0  0  0
   48.0975   36.2403   42.5964 H   0  0  0  0  0  0  0  0  0  0  0  0
   43.7737   36.6278   44.6928 H   0  0  0  0  0  0  0  0  0  0  0  0
   45.1658   36.2676   42.6364 H   0  0  0  0  0  0  0  0  0  0  0  0
   45.6747   33.3654   46.5810 H   0  0  0  0  0  0  0  0  0  0  0  0
   49.0286   34.7891   44.0117 H   0  0  0  0  0  0  0  0  0  0  0  0
  1  8  1  0
  2  1  1  0
  3  4  1  0
  3  2  1  0
  4  5  1  0
  5  1  1  0
  5 12  1  0
  6 11  2  0
  7  6  1  0
  8  7  2  0
  8  9  1  0
  9 10  2  0
 10 11  1  0
  1 13  1  1
  2 14  1  0
  2 15  1  0
  3 16  1  0
  3 17  1  0
  4 18  1  0
  4 19  1  0
  5 20  1  1
  6 21  1  0
  7 22  1  0
 10 23  1  0
 12 24  1  0
M  ISO  8  13  13  14  13  15  13  16  13  17  13  18  13  19  13  20  13
M  ISO  4  21  14  22  14  23  14  24   3
M  END
>  <minimizedAffinity>  (1) 
-4.83497524

>  <minimizedRMSD>  (1) 
0.291866452

$$$$
