
     RDKit          3D

 36 38  0  0  1  0  0  0  0  0999 V2000
   45.7950   33.1170   40.4540 C   0  0  1  0  0  0  0  0  0  0  0  0
   45.6680   32.1270   39.3210 C   0  0  0  0  0  0  0  0  0  0  0  0
   47.0850   31.5670   39.2850 C   0  0  0  0  0  0  0  0  0  0  0  0
   47.8980   32.8290   39.4450 C   0  0  0  0  0  0  0  0  0  0  0  0
   47.0010   33.8720   40.0630 C   0  0  2  0  0  0  0  0  0  0  0  0
   42.5090   34.9300   40.0360 C   0  0  0  0  0  0  0  0  0  0  0  0
   43.6160   34.1160   39.7080 C   0  0  0  0  0  0  0  0  0  0  0  0
   44.6070   33.9340   40.6950 C   0  0  0  0  0  0  0  0  0  0  0  0
   44.4520   34.5430   41.9000 N   0  0  0  0  0  0  0  0  0  0  0  0
   43.3740   35.3160   42.1700 C   0  0  0  0  0  0  0  0  0  0  0  0
   42.4020   35.5050   41.2280 N   0  0  0  0  0  0  0  0  0  0  0  0
   47.7150   34.6940   41.0370 C   0  0  0  0  0  0  0  0  0  0  0  0
   48.7930   35.5790   40.5200 C   0  0  0  0  0  0  0  0  0  0  0  0
   49.4320   36.0840   41.8000 C   0  0  0  0  0  0  0  0  0  0  0  0
   49.4900   34.8150   42.6390 C   0  0  0  0  0  0  0  0  0  0  0  0
   48.2780   34.0040   42.2350 C   0  0  0  0  0  0  0  0  0  0  0  0
   45.8871   32.6364   41.4392 H   0  0  0  0  0  0  0  0  0  0  0  0
   44.9275   31.3452   39.5454 H   0  0  0  0  0  0  0  0  0  0  0  0
   45.3202   32.5584   38.3708 H   0  0  0  0  0  0  0  0  0  0  0  0
   47.2628   30.8644   40.1125 H   0  0  0  0  0  0  0  0  0  0  0  0
   47.3206   30.9876   38.3801 H   0  0  0  0  0  0  0  0  0  0  0  0
   48.7604   32.6393   40.1009 H   0  0  0  0  0  0  0  0  0  0  0  0
   48.2761   33.1719   38.4706 H   0  0  0  0  0  0  0  0  0  0  0  0
   46.6637   34.6837   39.4017 H   0  0  0  0  0  0  0  0  0  0  0  0
   41.7188   35.0909   39.2879 H   0  0  0  0  0  0  0  0  0  0  0  0
   43.7019   33.6416   38.7193 H   0  0  0  0  0  0  0  0  0  0  0  0
   43.2796   35.7958   43.1553 H   0  0  0  0  0  0  0  0  0  0  0  0
   46.8483   35.3017   41.3363 H   0  0  0  0  0  0  0  0  0  0  0  0
   49.5138   35.0153   39.9095 H   0  0  0  0  0  0  0  0  0  0  0  0
   48.4288   36.3811   39.8612 H   0  0  0  0  0  0  0  0  0  0  0  0
   50.4382   36.4875   41.6135 H   0  0  0  0  0  0  0  0  0  0  0  0
   48.8832   36.9094   42.2770 H   0  0  0  0  0  0  0  0  0  0  0  0
   50.4137   34.2565   42.4271 H   0  0  0  0  0  0  0  0  0  0  0  0
   49.4893   35.0388   43.7160 H   0  0  0  0  0  0  0  0  0  0  0  0
   47.5394   33.9853   43.0499 H   0  0  0  0  0  0  0  0  0  0  0  0
   48.5419   32.9587   42.0164 H   0  0  0  0  0  0  0  0  0  0  0  0
  1  8  1  0
  2  1  1  0
  3  2  1  0
  3  4  1  0
  4  5  1  0
  5  1  1  0
  5 12  1  0
  6 11  2  0
  7  6  1  0
  7  8  2  0
  8  9  1  0
  9 10  2  0
 11 10  1  0
 12 16  1  0
 13 12  1  0
 13 14  1  0
 14 15  1  0
 16 15  1  0
  1 17  1  1
  2 18  1  0
  2 19  1  0
  3 20  1  0
  3 21  1  0
  4 22  1  0
  4 23  1  0
  5 24  1  6
  6 25  1  0
  7 26  1  0
 10 27  1  0
 12 28  1  0
 13 29  1  0
 13 30  1  0
 14 31  1  0
 14 32  1  0
 15 33  1  0
 15 34  1  0
 16 35  1  0
 16 36  1  0
M  ISO  8  17  13  18  13  19  13  20  13  21  13  22  13  23  13  24  13
M  ISO  8  25  14  26  14  27  14  28  13  29  13  30  13  31  13  32  13
M  ISO  4  33  13  34  13  35  13  36  13
M  END
>  <minimizedAffinity>  (1) 
-4.46517086

>  <minimizedRMSD>  (1) 
3.29410434

$$$$
