
     RDKit          3D

 36 38  0  0  1  0  0  0  0  0999 V2000
   46.6020   33.7180   41.3520 C   0  0  1  0  0  0  0  0  0  0  0  0
   47.7860   33.9030   42.2530 C   0  0  0  0  0  0  0  0  0  0  0  0
   47.0920   34.0100   43.6060 C   0  0  0  0  0  0  0  0  0  0  0  0
   45.9560   34.9470   43.2770 C   0  0  0  0  0  0  0  0  0  0  0  0
   45.6670   34.7960   41.8010 C   0  0  2  0  0  0  0  0  0  0  0  0
   48.2250   34.3300   37.9990 C   0  0  0  0  0  0  0  0  0  0  0  0
   48.0130   34.3510   39.3880 C   0  0  0  0  0  0  0  0  0  0  0  0
   46.8890   33.7260   39.9240 C   0  0  0  0  0  0  0  0  0  0  0  0
   46.0490   33.1240   39.0600 N   0  0  0  0  0  0  0  0  0  0  0  0
   46.2490   33.1010   37.7280 C   0  0  0  0  0  0  0  0  0  0  0  0
   47.3450   33.7090   37.1990 N   0  0  0  0  0  0  0  0  0  0  0  0
   44.3570   34.4340   41.4960 N   0  0  0  0  0  0  0  0  0  0  0  0
   43.7950   33.2390   41.9470 C   0  0  0  0  0  0  0  0  0  0  0  0
   42.9950   32.6360   40.8000 C   0  0  0  0  0  0  0  0  0  0  0  0
   42.0480   33.4790   40.2820 O   0  0  0  0  0  0  0  0  0  0  0  0
   42.1130   34.7680   40.7980 C   0  0  0  0  0  0  0  0  0  0  0  0
   43.5440   35.3260   40.7730 C   0  0  0  0  0  0  0  0  0  0  0  0
   46.1726   32.7096   41.4461 H   0  0  0  0  0  0  0  0  0  0  0  0
   48.4659   33.0392   42.2126 H   0  0  0  0  0  0  0  0  0  0  0  0
   48.4267   34.7599   41.9976 H   0  0  0  0  0  0  0  0  0  0  0  0
   46.7222   33.0322   43.9482 H   0  0  0  0  0  0  0  0  0  0  0  0
   47.7429   34.3573   44.4220 H   0  0  0  0  0  0  0  0  0  0  0  0
   45.0652   34.6807   43.8649 H   0  0  0  0  0  0  0  0  0  0  0  0
   46.2238   35.9862   43.5187 H   0  0  0  0  0  0  0  0  0  0  0  0
   45.8037   35.7646   41.2979 H   0  0  0  0  0  0  0  0  0  0  0  0
   49.1101   34.8214   37.5688 H   0  0  0  0  0  0  0  0  0  0  0  0
   48.7310   34.8585   40.0490 H   0  0  0  0  0  0  0  0  0  0  0  0
   45.5287   32.5924   37.0704 H   0  0  0  0  0  0  0  0  0  0  0  0
   44.5906   32.5441   42.2537 H   0  0  0  0  0  0  0  0  0  0  0  0
   43.1427   33.4250   42.8130 H   0  0  0  0  0  0  0  0  0  0  0  0
   43.6940   32.3638   39.9954 H   0  0  0  0  0  0  0  0  0  0  0  0
   42.4600   31.7650   41.2064 H   0  0  0  0  0  0  0  0  0  0  0  0
   41.4654   35.4240   40.1977 H   0  0  0  0  0  0  0  0  0  0  0  0
   41.7805   34.7318   41.8459 H   0  0  0  0  0  0  0  0  0  0  0  0
   43.8998   35.4016   39.7349 H   0  0  0  0  0  0  0  0  0  0  0  0
   43.5767   36.3304   41.2204 H   0  0  0  0  0  0  0  0  0  0  0  0
  1  5  1  0
  1  2  1  0
  2  3  1  0
  4  3  1  0
  5  4  1  0
  6  7  2  0
  7  8  1  0
  8  1  1  0
  9  8  2  0
 10  9  1  0
 11 10  2  0
 11  6  1  0
 12  5  1  0
 12 13  1  0
 14 13  1  0
 15 16  1  0
 15 14  1  0
 17 16  1  0
 17 12  1  0
  1 18  1  1
  2 19  1  0
  2 20  1  0
  3 21  1  0
  3 22  1  0
  4 23  1  0
  4 24  1  0
  5 25  1  6
  6 26  1  0
  7 27  1  0
 10 28  1  0
 13 29  1  0
 13 30  1  0
 14 31  1  0
 14 32  1  0
 16 33  1  0
 16 34  1  0
 17 35  1  0
 17 36  1  0
M  ISO  8  18  13  19  13  20  13  21  13  22  13  23  13  24  13  25  13
M  ISO  8  26  14  27  14  28  14  29  13  30  13  31  13  32  13  33  13
M  ISO  3  34  13  35  13  36  13
M  END
>  <minimizedAffinity>  (1) 
-4.32851124

>  <minimizedRMSD>  (1) 
6.29205894

$$$$
