
     RDKit          3D

 20 20  0  0  1  0  0  0  0  0999 V2000
   47.1240   34.2240   42.1660 C   0  0  1  0  0  0  0  0  0  0  0  0
   45.4560   35.8100   43.2480 C   0  0  0  0  0  0  0  0  0  0  0  0
   46.2460   34.6320   43.2620 C   0  0  0  0  0  0  0  0  0  0  0  0
   46.1680   33.8290   44.4120 C   0  0  0  0  0  0  0  0  0  0  0  0
   45.3560   34.2180   45.4290 N   0  0  0  0  0  0  0  0  0  0  0  0
   44.6170   35.3470   45.3810 C   0  0  0  0  0  0  0  0  0  0  0  0
   44.6760   36.1390   44.2810 N   0  0  0  0  0  0  0  0  0  0  0  0
   46.4080   34.2070   40.8670 C   0  0  0  0  0  0  0  0  0  0  0  0
   48.3170   35.1700   42.1520 C   0  0  0  0  0  0  0  0  0  0  0  0
   49.2370   34.6590   43.0720 O   0  0  0  0  0  0  0  0  0  0  0  0
   47.4717   33.1923   42.3232 H   0  0  0  0  0  0  0  0  0  0  0  0
   45.4865   36.4673   42.3665 H   0  0  0  0  0  0  0  0  0  0  0  0
   46.7543   32.9013   44.4876 H   0  0  0  0  0  0  0  0  0  0  0  0
   43.9715   35.6228   46.2279 H   0  0  0  0  0  0  0  0  0  0  0  0
   45.3231   34.1812   41.0466 H   0  0  0  0  0  0  0  0  0  0  0  0
   46.6637   35.1115   40.2955 H   0  0  0  0  0  0  0  0  0  0  0  0
   46.7063   33.3157   40.2955 H   0  0  0  0  0  0  0  0  0  0  0  0
   48.7632   35.2047   41.1471 H   0  0  0  0  0  0  0  0  0  0  0  0
   48.0164   36.1947   42.4160 H   0  0  0  0  0  0  0  0  0  0  0  0
   48.9172   34.8367   43.9919 H   0  0  0  0  0  0  0  0  0  0  0  0
  1  3  1  0
  2  3  2  0
  2  7  1  0
  3  4  1  0
  4  5  2  0
  6  5  1  0
  7  6  2  0
  8  1  1  0
  9  1  1  0
  9 10  1  0
  1 11  1  1
  2 12  1  0
  4 13  1  0
  6 14  1  0
  8 15  1  0
  8 16  1  0
  8 17  1  0
  9 18  1  0
  9 19  1  0
 10 20  1  0
M  ISO  8  11   8  12  14  13  14  14  14  15   8  16   8  17   8  18   8
M  ISO  2  19   8  20   3
M  END
>  <minimizedAffinity>  (1) 
-3.6535275

>  <minimizedRMSD>  (1) 
0.34553805

$$$$
