
     RDKit          3D

 32 34  0  0  1  0  0  0  0  0999 V2000
   45.5630   33.5690   41.7370 C   0  0  1  0  0  0  0  0  0  0  0  0
   44.5370   33.7020   40.6990 C   0  0  0  0  0  0  0  0  0  0  0  0
   45.2900   33.1320   39.4890 C   0  0  0  0  0  0  0  0  0  0  0  0
   46.6510   33.7820   39.6420 C   0  0  0  0  0  0  0  0  0  0  0  0
   46.8120   34.1710   41.0800 C   0  0  2  0  0  0  0  0  0  0  0  0
   44.4240   35.9820   44.4290 C   0  0  0  0  0  0  0  0  0  0  0  0
   44.6670   35.4460   43.1450 C   0  0  0  0  0  0  0  0  0  0  0  0
   45.2810   34.1700   43.0290 C   0  0  0  0  0  0  0  0  0  0  0  0
   45.6060   33.5270   44.1770 N   0  0  0  0  0  0  0  0  0  0  0  0
   45.3660   34.0580   45.3980 C   0  0  0  0  0  0  0  0  0  0  0  0
   44.7780   35.2760   45.5200 N   0  0  0  0  0  0  0  0  0  0  0  0
   47.9590   33.4850   41.6310 N   0  0  0  0  0  0  0  0  0  0  0  0
   49.1620   34.2390   41.4910 C   0  0  0  0  0  0  0  0  0  0  0  0
   49.7540   34.9980   42.6160 C   0  0  0  0  0  0  0  0  0  0  0  0
   48.9960   35.7390   41.5270 C   0  0  0  0  0  0  0  0  0  0  0  0
   45.6574   32.5124   42.0280 H   0  0  0  0  0  0  0  0  0  0  0  0
   43.6406   33.1100   40.9355 H   0  0  0  0  0  0  0  0  0  0  0  0
   44.1533   34.7236   40.5612 H   0  0  0  0  0  0  0  0  0  0  0  0
   44.8098   33.4242   38.5435 H   0  0  0  0  0  0  0  0  0  0  0  0
   45.3203   32.0328   39.4584 H   0  0  0  0  0  0  0  0  0  0  0  0
   47.4399   33.0709   39.3559 H   0  0  0  0  0  0  0  0  0  0  0  0
   46.7303   34.6665   38.9928 H   0  0  0  0  0  0  0  0  0  0  0  0
   46.9352   35.2545   41.2246 H   0  0  0  0  0  0  0  0  0  0  0  0
   43.9493   36.9684   44.5371 H   0  0  0  0  0  0  0  0  0  0  0  0
   44.3839   36.0105   42.2444 H   0  0  0  0  0  0  0  0  0  0  0  0
   45.6500   33.4975   46.3009 H   0  0  0  0  0  0  0  0  0  0  0  0
   47.7915   33.3121   42.6325 H   0  0  0  0  0  0  0  0  0  0  0  0
   49.5882   33.4859   40.8118 H   0  0  0  0  0  0  0  0  0  0  0  0
   49.3220   34.9117   43.6239 H   0  0  0  0  0  0  0  0  0  0  0  0
   50.7604   35.0787   43.0525 H   0  0  0  0  0  0  0  0  0  0  0  0
   49.5366   36.3737   40.8094 H   0  0  0  0  0  0  0  0  0  0  0  0
   48.1466   36.4372   41.4959 H   0  0  0  0  0  0  0  0  0  0  0  0
  1  8  1  0
  2  1  1  0
  3  4  1  0
  3  2  1  0
  4  5  1  0
  5 12  1  0
  5  1  1  0
  6 11  2  0
  7  6  1  0
  8  7  2  0
  8  9  1  0
  9 10  2  0
 10 11  1  0
 13 15  1  0
 13 12  1  0
 13 14  1  0
 15 14  1  0
  1 16  1  1
  2 17  1  0
  2 18  1  0
  3 19  1  0
  3 20  1  0
  4 21  1  0
  4 22  1  0
  5 23  1  6
  6 24  1  0
  7 25  1  0
 10 26  1  0
 12 27  1  0
 13 28  1  0
 14 29  1  0
 14 30  1  0
 15 31  1  0
 15 32  1  0
M  ISO  8  16  13  17  13  18  13  19  13  20  13  21  13  22  13  23  13
M  ISO  8  24  14  25  14  26  14  27   5  28  13  29  13  30  13  31  13
M  ISO  1  32  13
M  END
>  <minimizedAffinity>  (1) 
-4.53855896

>  <minimizedRMSD>  (1) 
1.71569169

$$$$
