
     RDKit          3D

 44 46  0  0  1  0  0  0  0  0999 V2000
   46.1550   33.6200   41.2670 C   0  0  1  0  0  0  0  0  0  0  0  0
   45.2140   33.6220   40.1550 C   0  0  0  0  0  0  0  0  0  0  0  0
   46.0910   33.1330   39.0320 C   0  0  0  0  0  0  0  0  0  0  0  0
   47.3610   33.9330   39.2670 C   0  0  0  0  0  0  0  0  0  0  0  0
   47.4000   34.2850   40.7130 C   0  0  2  0  0  0  0  0  0  0  0  0
   44.8040   36.0280   43.8400 C   0  0  0  0  0  0  0  0  0  0  0  0
   45.2180   35.4970   42.5960 C   0  0  0  0  0  0  0  0  0  0  0  0
   45.7220   34.1980   42.5350 C   0  0  0  0  0  0  0  0  0  0  0  0
   45.7750   33.5390   43.6960 N   0  0  0  0  0  0  0  0  0  0  0  0
   45.3890   34.0240   44.8760 C   0  0  0  0  0  0  0  0  0  0  0  0
   44.8940   35.2950   44.9450 N   0  0  0  0  0  0  0  0  0  0  0  0
   48.5660   33.8460   41.3460 N   0  0  0  0  0  0  0  0  0  0  0  0
   48.9610   32.5110   41.3820 C   0  0  0  0  0  0  0  0  0  0  0  0
   49.0930   32.0610   42.8150 C   0  0  0  0  0  0  0  0  0  0  0  0
   49.7180   30.6720   42.7740 C   0  0  0  0  0  0  0  0  0  0  0  0
   51.1990   30.9930   42.5430 C   0  0  0  0  0  0  0  0  0  0  0  0
   51.3930   31.7260   41.2480 C   0  0  0  0  0  0  0  0  0  0  0  0
   50.1820   32.1860   40.5560 C   0  0  0  0  0  0  0  0  0  0  0  0
   49.3280   34.8100   42.0510 C   0  0  0  0  0  0  0  0  0  0  0  0
   48.7860   34.9220   43.3140 F   0  0  0  0  0  0  0  0  0  0  0  0
   49.3480   36.0080   41.4010 F   0  0  0  0  0  0  0  0  0  0  0  0
   50.6490   34.4700   42.2520 F   0  0  0  0  0  0  0  0  0  0  0  0
   46.3064   32.5795   41.5903 H   0  0  0  0  0  0  0  0  0  0  0  0
   44.3725   32.9374   40.3372 H   0  0  0  0  0  0  0  0  0  0  0  0
   44.7384   34.5958   39.9665 H   0  0  0  0  0  0  0  0  0  0  0  0
   45.6497   33.3594   38.0501 H   0  0  0  0  0  0  0  0  0  0  0  0
   46.2429   32.0436   39.0242 H   0  0  0  0  0  0  0  0  0  0  0  0
   48.2412   33.3286   39.0026 H   0  0  0  0  0  0  0  0  0  0  0  0
   47.3713   34.8399   38.6445 H   0  0  0  0  0  0  0  0  0  0  0  0
   47.4142   35.3720   40.8811 H   0  0  0  0  0  0  0  0  0  0  0  0
   44.4058   37.0520   43.8931 H   0  0  0  0  0  0  0  0  0  0  0  0
   45.1429   36.1049   41.6823 H   0  0  0  0  0  0  0  0  0  0  0  0
   45.4682   33.4077   45.7837 H   0  0  0  0  0  0  0  0  0  0  0  0
   48.1643   31.9326   40.8914 H   0  0  0  0  0  0  0  0  0  0  0  0
   49.7406   32.7532   43.3730 H   0  0  0  0  0  0  0  0  0  0  0  0
   48.1155   32.0437   43.3191 H   0  0  0  0  0  0  0  0  0  0  0  0
   49.5686   30.1387   43.7244 H   0  0  0  0  0  0  0  0  0  0  0  0
   49.2831   30.0134   42.0077 H   0  0  0  0  0  0  0  0  0  0  0  0
   51.5648   31.6197   43.3697 H   0  0  0  0  0  0  0  0  0  0  0  0
   51.7605   30.0481   42.4992 H   0  0  0  0  0  0  0  0  0  0  0  0
   52.0126   32.6106   41.4567 H   0  0  0  0  0  0  0  0  0  0  0  0
   51.8494   30.9911   40.5686 H   0  0  0  0  0  0  0  0  0  0  0  0
   50.4510   33.0971   40.0014 H   0  0  0  0  0  0  0  0  0  0  0  0
   49.8743   31.3224   39.9481 H   0  0  0  0  0  0  0  0  0  0  0  0
  1  8  1  0
  2  1  1  0
  3  4  1  0
  3  2  1  0
  4  5  1  0
  5  1  1  0
  5 12  1  0
  6 11  2  0
  7  6  1  0
  8  7  2  0
  8  9  1  0
  9 10  2  0
 10 11  1  0
 12 13  1  0
 12 19  1  0
 13 14  1  0
 15 14  1  0
 16 15  1  0
 17 16  1  0
 18 17  1  0
 18 13  1  0
 19 22  1  0
 19 20  1  0
 21 19  1  0
  1 23  1  1
  2 24  1  0
  2 25  1  0
  3 26  1  0
  3 27  1  0
  4 28  1  0
  4 29  1  0
  5 30  1  6
  6 31  1  0
  7 32  1  0
 10 33  1  0
 13 34  1  0
 14 35  1  0
 14 36  1  0
 15 37  1  0
 15 38  1  0
 16 39  1  0
 16 40  1  0
 17 41  1  0
 17 42  1  0
 18 43  1  0
 18 44  1  0
M  ISO  8  23  13  24  13  25  13  26  13  27  13  28  13  29  13  30  13
M  ISO  8  31  14  32  14  33  14  34  13  35  13  36  13  37  13  38  13
M  ISO  6  39  13  40  13  41  13  42  13  43  13  44  13
M  END
>  <minimizedAffinity>  (1) 
-5.45722532

>  <minimizedRMSD>  (1) 
0.51142174

$$$$
