
     RDKit          3D

 35 37  0  0  1  0  0  0  0  0999 V2000
   46.4250   33.6610   41.2140 C   0  0  1  0  0  0  0  0  0  0  0  0
   45.5230   33.6240   40.0730 C   0  0  0  0  0  0  0  0  0  0  0  0
   46.4660   33.2440   38.9540 C   0  0  0  0  0  0  0  0  0  0  0  0
   47.6950   34.0590   39.2620 C   0  0  0  0  0  0  0  0  0  0  0  0
   47.6340   34.4730   40.6950 C   0  0  2  0  0  0  0  0  0  0  0  0
   44.8480   35.9130   43.8020 C   0  0  0  0  0  0  0  0  0  0  0  0
   45.3340   35.4390   42.5730 C   0  0  0  0  0  0  0  0  0  0  0  0
   45.9230   34.1620   42.4730 C   0  0  0  0  0  0  0  0  0  0  0  0
   45.9770   33.4640   43.6120 N   0  0  0  0  0  0  0  0  0  0  0  0
   45.5170   33.9060   44.7870 C   0  0  0  0  0  0  0  0  0  0  0  0
   44.9450   35.1470   44.8830 N   0  0  0  0  0  0  0  0  0  0  0  0
   48.8000   33.9890   41.3960 N   0  0  0  0  0  0  0  0  0  0  0  0
   49.8580   30.8580   40.3740 N   0  0  0  0  0  0  0  0  0  0  0  0
   49.5070   32.1120   40.1510 N   0  0  0  0  0  0  0  0  0  0  0  0
   49.2090   32.6290   41.3590 C   0  0  0  0  0  0  0  0  0  0  0  0
   49.3890   31.6560   42.3160 C   0  0  0  0  0  0  0  0  0  0  0  0
   49.8090   30.5110   41.6730 C   0  0  0  0  0  0  0  0  0  0  0  0
   49.4680   35.0000   42.1660 C   0  0  0  0  0  0  0  0  0  0  0  0
   48.9050   34.9490   43.4400 F   0  0  0  0  0  0  0  0  0  0  0  0
   49.3800   36.2360   41.6220 F   0  0  0  0  0  0  0  0  0  0  0  0
   50.8100   34.7300   42.3700 F   0  0  0  0  0  0  0  0  0  0  0  0
   46.6512   32.6281   41.5174 H   0  0  0  0  0  0  0  0  0  0  0  0
   44.7351   32.8684   40.2082 H   0  0  0  0  0  0  0  0  0  0  0  0
   44.9795   34.5647   39.9009 H   0  0  0  0  0  0  0  0  0  0  0  0
   46.0468   33.5143   37.9736 H   0  0  0  0  0  0  0  0  0  0  0  0
   46.6628   32.1632   38.8985 H   0  0  0  0  0  0  0  0  0  0  0  0
   48.5966   33.4534   39.0876 H   0  0  0  0  0  0  0  0  0  0  0  0
   47.7353   34.9456   38.6121 H   0  0  0  0  0  0  0  0  0  0  0  0
   47.5704   35.5631   40.8280 H   0  0  0  0  0  0  0  0  0  0  0  0
   44.3904   36.9110   43.8692 H   0  0  0  0  0  0  0  0  0  0  0  0
   45.2542   36.0719   41.6769 H   0  0  0  0  0  0  0  0  0  0  0  0
   45.5983   33.2701   45.6809 H   0  0  0  0  0  0  0  0  0  0  0  0
   50.1416   30.2091   39.6261 H   0  0  0  0  0  0  0  0  0  0  0  0
   49.2271   31.7712   43.3979 H   0  0  0  0  0  0  0  0  0  0  0  0
   50.0494   29.5353   42.1204 H   0  0  0  0  0  0  0  0  0  0  0  0
  1  8  1  0
  2  1  1  0
  3  4  1  0
  3  2  1  0
  4  5  1  0
  5  1  1  0
  5 12  1  0
  6 11  2  0
  7  6  1  0
  8  7  2  0
  8  9  1  0
  9 10  2  0
 10 11  1  0
 12 18  1  0
 13 17  1  0
 14 13  1  0
 14 15  2  0
 15 12  1  0
 15 16  1  0
 17 16  2  0
 18 21  1  0
 18 19  1  0
 20 18  1  0
  1 22  1  1
  2 23  1  0
  2 24  1  0
  3 25  1  0
  3 26  1  0
  4 27  1  0
  4 28  1  0
  5 29  1  6
  6 30  1  0
  7 31  1  0
 10 32  1  0
 13 33  1  0
 16 34  1  0
 17 35  1  0
M  ISO  8  22  13  23  13  24  13  25  13  26  13  27  13  28  13  29  13
M  ISO  6  30  14  31  14  32  14  33   9  34  14  35  14
M  END
>  <minimizedAffinity>  (1) 
-5.44159079

>  <minimizedRMSD>  (1) 
0.199445665

$$$$
