
     RDKit          3D

 35 37  0  0  1  0  0  0  0  0999 V2000
   46.4790   33.6440   41.1140 C   0  0  1  0  0  0  0  0  0  0  0  0
   45.5960   33.5680   39.9600 C   0  0  0  0  0  0  0  0  0  0  0  0
   46.5600   33.1660   38.8690 C   0  0  0  0  0  0  0  0  0  0  0  0
   47.7460   34.0650   39.1640 C   0  0  0  0  0  0  0  0  0  0  0  0
   47.6670   34.4870   40.5880 C   0  0  2  0  0  0  0  0  0  0  0  0
   44.9250   35.9240   43.6850 C   0  0  0  0  0  0  0  0  0  0  0  0
   45.4330   35.4510   42.4630 C   0  0  0  0  0  0  0  0  0  0  0  0
   45.9520   34.1450   42.3600 C   0  0  0  0  0  0  0  0  0  0  0  0
   45.9250   33.4130   43.4850 N   0  0  0  0  0  0  0  0  0  0  0  0
   45.4400   33.8660   44.6550 C   0  0  0  0  0  0  0  0  0  0  0  0
   44.9370   35.1300   44.7520 N   0  0  0  0  0  0  0  0  0  0  0  0
   48.8430   34.0540   41.3050 N   0  0  0  0  0  0  0  0  0  0  0  0
   49.3860   32.7430   41.2460 C   0  0  0  0  0  0  0  0  0  0  0  0
   49.1390   31.5940   41.9900 C   0  0  0  0  0  0  0  0  0  0  0  0
   49.9230   30.5880   41.5440 N   0  0  0  0  0  0  0  0  0  0  0  0
   50.6650   31.0730   40.5300 C   0  0  0  0  0  0  0  0  0  0  0  0
   50.3320   32.3660   40.3640 N   0  0  0  0  0  0  0  0  0  0  0  0
   49.4110   35.0640   42.1500 C   0  0  0  0  0  0  0  0  0  0  0  0
   48.8010   34.9140   43.3920 F   0  0  0  0  0  0  0  0  0  0  0  0
   49.2680   36.3200   41.6620 F   0  0  0  0  0  0  0  0  0  0  0  0
   50.7580   34.8700   42.3950 F   0  0  0  0  0  0  0  0  0  0  0  0
   46.7283   32.6237   41.4410 H   0  0  0  0  0  0  0  0  0  0  0  0
   44.8122   32.8096   40.1031 H   0  0  0  0  0  0  0  0  0  0  0  0
   45.0474   34.4987   39.7531 H   0  0  0  0  0  0  0  0  0  0  0  0
   46.1430   33.3661   37.8710 H   0  0  0  0  0  0  0  0  0  0  0  0
   46.8029   32.0932   38.8592 H   0  0  0  0  0  0  0  0  0  0  0  0
   48.6825   33.5148   38.9902 H   0  0  0  0  0  0  0  0  0  0  0  0
   47.7280   34.9458   38.5053 H   0  0  0  0  0  0  0  0  0  0  0  0
   47.5699   35.5764   40.7051 H   0  0  0  0  0  0  0  0  0  0  0  0
   44.5201   36.9441   43.7585 H   0  0  0  0  0  0  0  0  0  0  0  0
   45.4254   36.1060   41.5793 H   0  0  0  0  0  0  0  0  0  0  0  0
   45.4491   33.2124   45.5397 H   0  0  0  0  0  0  0  0  0  0  0  0
   48.4159   31.5162   42.8153 H   0  0  0  0  0  0  0  0  0  0  0  0
   51.4086   30.5133   39.9437 H   0  0  0  0  0  0  0  0  0  0  0  0
   50.7466   32.9871   39.6546 H   0  0  0  0  0  0  0  0  0  0  0  0
  1  8  1  0
  2  1  1  0
  3  4  1  0
  3  2  1  0
  4  5  1  0
  5  1  1  0
  5 12  1  0
  6 11  2  0
  7  6  1  0
  8  7  2  0
  8  9  1  0
  9 10  2  0
 10 11  1  0
 12 18  1  0
 13 12  1  0
 13 14  2  0
 15 14  1  0
 16 15  2  0
 17 16  1  0
 17 13  1  0
 18 21  1  0
 18 19  1  0
 20 18  1  0
  1 22  1  1
  2 23  1  0
  2 24  1  0
  3 25  1  0
  3 26  1  0
  4 27  1  0
  4 28  1  0
  5 29  1  6
  6 30  1  0
  7 31  1  0
 10 32  1  0
 14 33  1  0
 16 34  1  0
 17 35  1  0
M  ISO  8  22  13  23  13  24  13  25  13  26  13  27  13  28  13  29  13
M  ISO  6  30  14  31  14  32  14  33  14  34  14  35   9
M  END
>  <minimizedAffinity>  (1) 
-5.37020779

>  <minimizedRMSD>  (1) 
0.513659537

$$$$
