
     RDKit          3D

 38 40  0  0  1  0  0  0  0  0999 V2000
   46.2340   33.6280   41.2670 C   0  0  1  0  0  0  0  0  0  0  0  0
   45.2970   33.5500   40.1560 C   0  0  0  0  0  0  0  0  0  0  0  0
   46.1920   33.0870   39.0340 C   0  0  0  0  0  0  0  0  0  0  0  0
   47.4370   33.9330   39.2510 C   0  0  0  0  0  0  0  0  0  0  0  0
   47.4300   34.3950   40.6670 C   0  0  2  0  0  0  0  0  0  0  0  0
   44.8550   36.0360   43.8240 C   0  0  0  0  0  0  0  0  0  0  0  0
   45.2970   35.5020   42.5990 C   0  0  0  0  0  0  0  0  0  0  0  0
   45.7770   34.1930   42.5150 C   0  0  0  0  0  0  0  0  0  0  0  0
   45.7780   33.5200   43.6700 N   0  0  0  0  0  0  0  0  0  0  0  0
   45.3660   34.0010   44.8400 C   0  0  0  0  0  0  0  0  0  0  0  0
   44.8980   35.2770   44.9180 N   0  0  0  0  0  0  0  0  0  0  0  0
   48.6160   33.9610   41.3460 N   0  0  0  0  0  0  0  0  0  0  0  0
   49.2270   32.7040   41.4720 C   0  0  0  0  0  0  0  0  0  0  0  0
   48.8420   32.0810   42.6670 C   0  0  0  0  0  0  0  0  0  0  0  0
   49.3450   30.8130   42.9830 C   0  0  0  0  0  0  0  0  0  0  0  0
   50.2170   30.1630   42.1360 C   0  0  0  0  0  0  0  0  0  0  0  0
   50.6020   30.7680   40.9580 C   0  0  0  0  0  0  0  0  0  0  0  0
   50.0990   32.0090   40.6640 C   0  0  0  0  0  0  0  0  0  0  0  0
   49.2990   35.0000   42.0720 C   0  0  0  0  0  0  0  0  0  0  0  0
   48.6950   35.0510   43.3200 F   0  0  0  0  0  0  0  0  0  0  0  0
   49.2730   36.1960   41.4360 F   0  0  0  0  0  0  0  0  0  0  0  0
   50.6230   34.6980   42.3270 F   0  0  0  0  0  0  0  0  0  0  0  0
   46.4592   32.6102   41.6183 H   0  0  0  0  0  0  0  0  0  0  0  0
   44.4965   32.8227   40.3567 H   0  0  0  0  0  0  0  0  0  0  0  0
   44.7713   34.4936   39.9478 H   0  0  0  0  0  0  0  0  0  0  0  0
   45.7384   33.2883   38.0523 H   0  0  0  0  0  0  0  0  0  0  0  0
   46.3857   32.0042   39.0400 H   0  0  0  0  0  0  0  0  0  0  0  0
   48.3372   33.3311   39.0579 H   0  0  0  0  0  0  0  0  0  0  0  0
   47.4424   34.7931   38.5653 H   0  0  0  0  0  0  0  0  0  0  0  0
   47.3744   35.4902   40.7539 H   0  0  0  0  0  0  0  0  0  0  0  0
   44.4784   37.0681   43.8774 H   0  0  0  0  0  0  0  0  0  0  0  0
   45.2639   36.1255   41.6934 H   0  0  0  0  0  0  0  0  0  0  0  0
   45.4033   33.3704   45.7405 H   0  0  0  0  0  0  0  0  0  0  0  0
   48.1473   32.5863   43.3541 H   0  0  0  0  0  0  0  0  0  0  0  0
   49.0395   30.3280   43.9218 H   0  0  0  0  0  0  0  0  0  0  0  0
   50.6036   29.1672   42.3983 H   0  0  0  0  0  0  0  0  0  0  0  0
   51.2974   30.2658   40.2694 H   0  0  0  0  0  0  0  0  0  0  0  0
   50.4125   32.4804   39.7209 H   0  0  0  0  0  0  0  0  0  0  0  0
  1  8  1  0
  2  1  1  0
  3  4  1  0
  3  2  1  0
  4  5  1  0
  5  1  1  0
  5 12  1  0
  6 11  2  0
  7  6  1  0
  8  7  2  0
  8  9  1  0
  9 10  2  0
 10 11  1  0
 12 13  1  0
 12 19  1  0
 13 14  2  0
 14 15  1  0
 16 15  2  0
 17 16  1  0
 18 17  2  0
 18 13  1  0
 19 22  1  0
 19 20  1  0
 21 19  1  0
  1 23  1  1
  2 24  1  0
  2 25  1  0
  3 26  1  0
  3 27  1  0
  4 28  1  0
  4 29  1  0
  5 30  1  6
  6 31  1  0
  7 32  1  0
 10 33  1  0
 14 34  1  0
 15 35  1  0
 16 36  1  0
 17 37  1  0
 18 38  1  0
M  ISO  8  23  13  24  13  25  13  26  13  27  13  28  13  29  13  30  13
M  ISO  8  31  14  32  14  33  14  34  14  35  14  36  14  37  14  38  14
M  END
>  <minimizedAffinity>  (1) 
-5.35653734

>  <minimizedRMSD>  (1) 
0.689163446

$$$$
