
     RDKit          3D

 43 45  0  0  1  0  0  0  0  0999 V2000
   46.3550   33.6350   41.1820 C   0  0  1  0  0  0  0  0  0  0  0  0
   45.4250   33.5680   40.0370 C   0  0  0  0  0  0  0  0  0  0  0  0
   46.3770   33.0820   38.9510 C   0  0  0  0  0  0  0  0  0  0  0  0
   47.5840   33.9610   39.1940 C   0  0  0  0  0  0  0  0  0  0  0  0
   47.5500   34.3800   40.6280 C   0  0  2  0  0  0  0  0  0  0  0  0
   44.9700   36.0510   43.7230 C   0  0  0  0  0  0  0  0  0  0  0  0
   45.4450   35.5210   42.5080 C   0  0  0  0  0  0  0  0  0  0  0  0
   45.8660   34.1890   42.4210 C   0  0  0  0  0  0  0  0  0  0  0  0
   45.7770   33.4950   43.5580 N   0  0  0  0  0  0  0  0  0  0  0  0
   45.3320   33.9730   44.7180 C   0  0  0  0  0  0  0  0  0  0  0  0
   44.9230   35.2610   44.8100 N   0  0  0  0  0  0  0  0  0  0  0  0
   48.7370   34.0510   41.2800 N   0  0  0  0  0  0  0  0  0  0  0  0
   49.9490   30.0890   41.2750 N   0  0  0  0  0  0  0  0  0  0  0  0
   49.3330   30.6220   42.4650 C   0  0  0  0  0  0  0  0  0  0  0  0
   48.3950   31.7480   42.0090 C   0  0  0  0  0  0  0  0  0  0  0  0
   49.2910   32.7660   41.2780 C   0  0  0  0  0  0  0  0  0  0  0  0
   49.5150   32.1200   39.9250 C   0  0  0  0  0  0  0  0  0  0  0  0
   49.4100   30.6070   40.0570 C   0  0  0  0  0  0  0  0  0  0  0  0
   49.2810   35.0110   42.1750 C   0  0  0  0  0  0  0  0  0  0  0  0
   48.7110   34.7920   43.4110 F   0  0  0  0  0  0  0  0  0  0  0  0
   49.0590   36.2850   41.7410 F   0  0  0  0  0  0  0  0  0  0  0  0
   50.6400   34.9110   42.3820 F   0  0  0  0  0  0  0  0  0  0  0  0
   46.5749   32.6146   41.5291 H   0  0  0  0  0  0  0  0  0  0  0  0
   44.6092   32.8520   40.2151 H   0  0  0  0  0  0  0  0  0  0  0  0
   44.9030   34.5089   39.8084 H   0  0  0  0  0  0  0  0  0  0  0  0
   45.9576   33.2436   37.9470 H   0  0  0  0  0  0  0  0  0  0  0  0
   46.5914   32.0039   38.9916 H   0  0  0  0  0  0  0  0  0  0  0  0
   48.5065   33.3982   38.9885 H   0  0  0  0  0  0  0  0  0  0  0  0
   47.5645   34.8393   38.5321 H   0  0  0  0  0  0  0  0  0  0  0  0
   47.4586   35.4678   40.7635 H   0  0  0  0  0  0  0  0  0  0  0  0
   44.6412   37.0991   43.7822 H   0  0  0  0  0  0  0  0  0  0  0  0
   45.4857   36.1624   41.6153 H   0  0  0  0  0  0  0  0  0  0  0  0
   45.2964   33.3210   45.6032 H   0  0  0  0  0  0  0  0  0  0  0  0
   50.9544   30.3109   41.3040 H   0  0  0  0  0  0  0  0  0  0  0  0
   48.7603   29.8366   42.9798 H   0  0  0  0  0  0  0  0  0  0  0  0
   50.0905   30.9983   43.1683 H   0  0  0  0  0  0  0  0  0  0  0  0
   47.6264   31.3546   41.3275 H   0  0  0  0  0  0  0  0  0  0  0  0
   47.8683   32.2070   42.8587 H   0  0  0  0  0  0  0  0  0  0  0  0
   50.2582   32.9626   41.7636 H   0  0  0  0  0  0  0  0  0  0  0  0
   50.5155   32.3864   39.5534 H   0  0  0  0  0  0  0  0  0  0  0  0
   48.7519   32.4786   39.2185 H   0  0  0  0  0  0  0  0  0  0  0  0
   48.3472   30.3285   40.0035 H   0  0  0  0  0  0  0  0  0  0  0  0
   50.0040   30.1751   39.2381 H   0  0  0  0  0  0  0  0  0  0  0  0
  1  8  1  0
  2  1  1  0
  3  4  1  0
  3  2  1  0
  4  5  1  0
  5  1  1  0
  5 12  1  0
  6 11  2  0
  7  6  1  0
  8  7  2  0
  8  9  1  0
  9 10  2  0
 10 11  1  0
 12 19  1  0
 13 14  1  0
 15 14  1  0
 16 12  1  0
 16 15  1  0
 17 18  1  0
 17 16  1  0
 18 13  1  0
 19 22  1  0
 19 20  1  0
 21 19  1  0
  1 23  1  1
  2 24  1  0
  2 25  1  0
  3 26  1  0
  3 27  1  0
  4 28  1  0
  4 29  1  0
  5 30  1  6
  6 31  1  0
  7 32  1  0
 10 33  1  0
 13 34  1  0
 14 35  1  0
 14 36  1  0
 15 37  1  0
 15 38  1  0
 16 39  1  0
 17 40  1  0
 17 41  1  0
 18 42  1  0
 18 43  1  0
M  ISO  8  23  13  24  13  25  13  26  13  27  13  28  13  29  13  30  13
M  ISO  8  31  14  32  14  33  14  34   5  35  13  36  13  37  13  38  13
M  ISO  5  39  13  40  13  41  13  42  13  43  13
M  END
>  <minimizedAffinity>  (1) 
-5.22584581

>  <minimizedRMSD>  (1) 
0.470166117

$$$$
