
     RDKit          3D

 35 37  0  0  1  0  0  0  0  0999 V2000
   46.3970   33.6380   41.1580 C   0  0  1  0  0  0  0  0  0  0  0  0
   45.4890   33.5830   40.0230 C   0  0  0  0  0  0  0  0  0  0  0  0
   46.4360   33.1660   38.9140 C   0  0  0  0  0  0  0  0  0  0  0  0
   47.6540   34.0190   39.1960 C   0  0  0  0  0  0  0  0  0  0  0  0
   47.5970   34.4510   40.6220 C   0  0  2  0  0  0  0  0  0  0  0  0
   44.9330   35.9280   43.7750 C   0  0  0  0  0  0  0  0  0  0  0  0
   45.4050   35.4500   42.5410 C   0  0  0  0  0  0  0  0  0  0  0  0
   45.9050   34.1400   42.4200 C   0  0  0  0  0  0  0  0  0  0  0  0
   45.8920   33.4140   43.5440 N   0  0  0  0  0  0  0  0  0  0  0  0
   45.4430   33.8640   44.7260 C   0  0  0  0  0  0  0  0  0  0  0  0
   44.9590   35.1330   44.8390 N   0  0  0  0  0  0  0  0  0  0  0  0
   48.7780   33.9880   41.3210 N   0  0  0  0  0  0  0  0  0  0  0  0
   49.2460   32.6590   41.2640 C   0  0  0  0  0  0  0  0  0  0  0  0
   49.8900   31.9450   40.3410 C   0  0  0  0  0  0  0  0  0  0  0  0
   50.2120   30.6380   40.6090 C   0  0  0  0  0  0  0  0  0  0  0  0
   49.8510   30.1160   41.8350 C   0  0  0  0  0  0  0  0  0  0  0  0
   48.9790   31.5490   42.7250 S   0  0  0  0  0  0  0  0  0  0  0  0
   49.4030   35.0020   42.1220 C   0  0  0  0  0  0  0  0  0  0  0  0
   48.7900   34.9360   43.3720 F   0  0  0  0  0  0  0  0  0  0  0  0
   49.3200   36.2450   41.5850 F   0  0  0  0  0  0  0  0  0  0  0  0
   50.7390   34.7520   42.3760 F   0  0  0  0  0  0  0  0  0  0  0  0
   46.6289   32.6090   41.4701 H   0  0  0  0  0  0  0  0  0  0  0  0
   44.6945   32.8380   40.1771 H   0  0  0  0  0  0  0  0  0  0  0  0
   44.9489   34.5214   39.8288 H   0  0  0  0  0  0  0  0  0  0  0  0
   46.0132   33.3896   37.9234 H   0  0  0  0  0  0  0  0  0  0  0  0
   46.6473   32.0866   38.8964 H   0  0  0  0  0  0  0  0  0  0  0  0
   48.5683   33.4332   39.0202 H   0  0  0  0  0  0  0  0  0  0  0  0
   47.6669   34.8961   38.5323 H   0  0  0  0  0  0  0  0  0  0  0  0
   47.5229   35.5417   40.7439 H   0  0  0  0  0  0  0  0  0  0  0  0
   44.5445   36.9536   43.8595 H   0  0  0  0  0  0  0  0  0  0  0  0
   45.3835   36.1073   41.6592 H   0  0  0  0  0  0  0  0  0  0  0  0
   45.4657   33.2059   45.6071 H   0  0  0  0  0  0  0  0  0  0  0  0
   50.1603   32.3980   39.3757 H   0  0  0  0  0  0  0  0  0  0  0  0
   50.7431   30.0233   39.8673 H   0  0  0  0  0  0  0  0  0  0  0  0
   50.0287   29.0980   42.2119 H   0  0  0  0  0  0  0  0  0  0  0  0
  1  8  1  0
  2  1  1  0
  3  4  1  0
  3  2  1  0
  4  5  1  0
  5  1  1  0
  5 12  1  0
  6 11  2  0
  7  6  1  0
  8  7  2  0
  8  9  1  0
  9 10  2  0
 10 11  1  0
 12 18  1  0
 13 12  1  0
 13 17  1  0
 14 15  1  0
 14 13  2  0
 15 16  2  0
 16 17  1  0
 18 21  1  0
 18 19  1  0
 20 18  1  0
  1 22  1  1
  2 23  1  0
  2 24  1  0
  3 25  1  0
  3 26  1  0
  4 27  1  0
  4 28  1  0
  5 29  1  6
  6 30  1  0
  7 31  1  0
 10 32  1  0
 14 33  1  0
 15 34  1  0
 16 35  1  0
M  ISO  8  22  13  23  13  24  13  25  13  26  13  27  13  28  13  29  13
M  ISO  6  30  14  31  14  32  14  33  14  34  14  35  14
M  END
>  <minimizedAffinity>  (1) 
-5.16691971

>  <minimizedRMSD>  (1) 
0.374681741

$$$$
