
     RDKit          3D

 26 28  0  0  0  0  0  0  0  0999 V2000
   44.5360   33.7110   40.5730 N   0  0  0  0  0  0  0  0  0  0  0  0
   45.6410   33.3410   39.9040 N   0  0  0  0  0  0  0  0  0  0  0  0
   45.2480   33.0690   38.6120 C   0  0  0  0  0  0  0  0  0  0  0  0
   43.8530   33.3080   38.5960 C   0  0  0  0  0  0  0  0  0  0  0  0
   43.4020   33.7200   39.8900 C   0  0  0  0  0  0  0  0  0  0  0  0
   44.5000   35.5230   42.1750 C   0  0  0  0  0  0  0  0  0  0  0  0
   44.6710   34.1450   41.9010 C   0  0  0  0  0  0  0  0  0  0  0  0
   44.9900   33.2620   42.9710 C   0  0  0  0  0  0  0  0  0  0  0  0
   45.1140   33.8030   44.2370 N   0  0  0  0  0  0  0  0  0  0  0  0
   44.9330   35.1420   44.4380 C   0  0  0  0  0  0  0  0  0  0  0  0
   44.6270   36.0120   43.4230 N   0  0  0  0  0  0  0  0  0  0  0  0
   41.9980   33.9290   39.9890 C   0  0  0  0  0  0  0  0  0  0  0  0
   41.1780   34.6780   39.1970 C   0  0  0  0  0  0  0  0  0  0  0  0
   39.8570   34.9870   39.3410 C   0  0  0  0  0  0  0  0  0  0  0  0
   39.2540   34.4670   40.4570 C   0  0  0  0  0  0  0  0  0  0  0  0
   40.0370   33.7100   41.2820 C   0  0  0  0  0  0  0  0  0  0  0  0
   41.3140   33.4750   41.0410 N   0  0  0  0  0  0  0  0  0  0  0  0
   45.8805   32.7381   37.7751 H   0  0  0  0  0  0  0  0  0  0  0  0
   43.2067   33.1932   37.7133 H   0  0  0  0  0  0  0  0  0  0  0  0
   44.2580   36.2095   41.3503 H   0  0  0  0  0  0  0  0  0  0  0  0
   45.1330   32.1854   42.7963 H   0  0  0  0  0  0  0  0  0  0  0  0
   45.0372   35.5397   45.4583 H   0  0  0  0  0  0  0  0  0  0  0  0
   41.6574   35.0992   38.3010 H   0  0  0  0  0  0  0  0  0  0  0  0
   39.3145   35.6089   38.6137 H   0  0  0  0  0  0  0  0  0  0  0  0
   38.1920   34.6502   40.6774 H   0  0  0  0  0  0  0  0  0  0  0  0
   39.5840   33.2775   42.1863 H   0  0  0  0  0  0  0  0  0  0  0  0
  1  7  1  0
  2  1  1  0
  3  2  2  0
  4  3  1  0
  4  5  2  0
  5 12  1  0
  5  1  1  0
  6 11  2  0
  7  6  1  0
  7  8  2  0
  8  9  1  0
  9 10  2  0
 11 10  1  0
 12 17  2  0
 13 14  2  0
 13 12  1  0
 14 15  1  0
 15 16  2  0
 17 16  1  0
  3 18  1  0
  4 19  1  0
  6 20  1  0
  8 21  1  0
 10 22  1  0
 13 23  1  0
 14 24  1  0
 15 25  1  0
 16 26  1  0
M  ISO  8  18  14  19  14  20  14  21  14  22  14  23  14  24  14  25  14
M  ISO  1  26  14
M  END
>  <minimizedAffinity>  (1) 
-4.44334888

>  <minimizedRMSD>  (1) 
2.55325556

$$$$
