
     RDKit          3D

 24 25  0  0  0  0  0  0  0  0999 V2000
   44.4440   34.0450   41.6240 N   0  0  0  0  0  0  0  0  0  0  0  0
   45.1200   33.1180   40.9510 N   0  0  0  0  0  0  0  0  0  0  0  0
   44.6840   33.1880   39.6390 C   0  0  0  0  0  0  0  0  0  0  0  0
   43.7170   34.2170   39.6170 C   0  0  0  0  0  0  0  0  0  0  0  0
   43.5620   34.7690   40.9100 C   0  0  0  0  0  0  0  0  0  0  0  0
   44.3510   35.4750   43.5600 C   0  0  0  0  0  0  0  0  0  0  0  0
   44.6920   34.2230   42.9980 C   0  0  0  0  0  0  0  0  0  0  0  0
   45.2500   33.2240   43.8200 C   0  0  0  0  0  0  0  0  0  0  0  0
   45.4330   33.5250   45.1510 N   0  0  0  0  0  0  0  0  0  0  0  0
   45.0880   34.7420   45.6460 C   0  0  0  0  0  0  0  0  0  0  0  0
   44.5490   35.7190   44.8640 N   0  0  0  0  0  0  0  0  0  0  0  0
   42.6320   35.7640   41.1650 N   0  0  0  0  0  0  0  0  0  0  0  0
   41.2430   35.5380   41.3030 C   0  0  0  0  0  0  0  0  0  0  0  0
   40.8390   34.4090   41.8380 N   0  0  0  0  0  0  0  0  0  0  0  0
   40.2080   36.4540   40.9010 N   0  0  0  0  0  0  0  0  0  0  0  0
   39.8490   34.1840   41.9670 H   0  0  0  0  0  0  0  0  0  0  0  0
   45.0200   32.5719   38.7920 H   0  0  0  0  0  0  0  0  0  0  0  0
   43.1642   34.5422   38.7233 H   0  0  0  0  0  0  0  0  0  0  0  0
   43.9182   36.2581   42.9202 H   0  0  0  0  0  0  0  0  0  0  0  0
   45.5289   32.2406   43.4137 H   0  0  0  0  0  0  0  0  0  0  0  0
   45.2493   34.9458   46.7149 H   0  0  0  0  0  0  0  0  0  0  0  0
   42.9746   36.7307   41.2602 H   0  0  0  0  0  0  0  0  0  0  0  0
   39.2181   36.2057   41.0400 H   0  0  0  0  0  0  0  0  0  0  0  0
   40.4573   37.3577   40.4744 H   0  0  0  0  0  0  0  0  0  0  0  0
  1  7  1  0
  2  1  1  0
  3  2  2  0
  4  3  1  0
  4  5  2  0
  5 12  1  0
  5  1  1  0
  6 11  2  0
  7  6  1  0
  7  8  2  0
  8  9  1  0
  9 10  2  0
 11 10  1  0
 12 13  1  0
 13 14  2  0
 14 16  1  0
 15 13  1  0
  3 17  1  0
  4 18  1  0
  6 19  1  0
  8 20  1  0
 10 21  1  0
 12 22  1  0
 15 23  1  0
 15 24  1  0
M  ISO  5  17  14  18  14  19  14  20  14  21  14
M  END
>  <minimizedAffinity>  (1) 
-4.19222641

>  <minimizedRMSD>  (1) 
1.03055084

$$$$
