
     RDKit          3D

 18 19  0  0  0  0  0  0  0  0999 V2000
   44.2950   35.6180   43.0610 C   0  0  0  0  0  0  0  0  0  0  0  0
   44.3500   34.3560   42.4730 C   0  0  0  0  0  0  0  0  0  0  0  0
   44.8560   33.2700   43.2130 C   0  0  0  0  0  0  0  0  0  0  0  0
   45.2730   33.5160   44.4900 N   0  0  0  0  0  0  0  0  0  0  0  0
   45.2010   34.7600   45.0220 C   0  0  0  0  0  0  0  0  0  0  0  0
   44.7160   35.8140   44.3170 N   0  0  0  0  0  0  0  0  0  0  0  0
   43.8820   34.2420   41.1470 N   0  0  0  0  0  0  0  0  0  0  0  0
   44.6620   33.7360   40.2050 N   0  0  0  0  0  0  0  0  0  0  0  0
   43.9630   33.7410   39.0220 C   0  0  0  0  0  0  0  0  0  0  0  0
   42.7060   34.2930   39.3480 C   0  0  0  0  0  0  0  0  0  0  0  0
   42.6610   34.6130   40.7220 C   0  0  0  0  0  0  0  0  0  0  0  0
   41.2350   35.3120   41.5120 S   0  0  0  0  0  0  0  0  0  0  0  0
   43.8994   36.4670   42.4842 H   0  0  0  0  0  0  0  0  0  0  0  0
   44.9133   32.2610   42.7786 H   0  0  0  0  0  0  0  0  0  0  0  0
   45.5452   34.9205   46.0543 H   0  0  0  0  0  0  0  0  0  0  0  0
   44.3075   33.3916   38.0375 H   0  0  0  0  0  0  0  0  0  0  0  0
   41.8824   34.4507   38.6361 H   0  0  0  0  0  0  0  0  0  0  0  0
   41.3844   35.2388   42.8719 H   0  0  0  0  0  0  0  0  0  0  0  0
  1  6  2  0
  2  1  1  0
  2  3  2  0
  3  4  1  0
  4  5  2  0
  6  5  1  0
  7  2  1  0
  8  7  1  0
  9 10  1  0
  9  8  2  0
 10 11  2  0
 11  7  1  0
 11 12  1  0
  1 13  1  0
  3 14  1  0
  5 15  1  0
  9 16  1  0
 10 17  1  0
 12 18  1  0
M  ISO  6  13  14  14  14  15  14  16  14  17  14  18  11
M  END
>  <minimizedAffinity>  (1) 
-3.25461125

>  <minimizedRMSD>  (1) 
0.767640233

$$$$
