
     RDKit          3D

 36 38  0  0  0  0  0  0  0  0999 V2000
   43.0970   35.5850   41.2750 C   0  0  0  0  0  0  0  0  0  0  0  0
   42.9620   34.6490   40.2430 C   0  0  0  0  0  0  0  0  0  0  0  0
   44.0600   33.8260   39.9130 C   0  0  0  0  0  0  0  0  0  0  0  0
   45.2150   33.9860   40.6290 N   0  0  0  0  0  0  0  0  0  0  0  0
   45.3010   34.9040   41.6210 C   0  0  0  0  0  0  0  0  0  0  0  0
   44.2570   35.7000   41.9480 N   0  0  0  0  0  0  0  0  0  0  0  0
   41.7180   34.5910   39.5910 N   0  0  0  0  0  0  0  0  0  0  0  0
   41.6130   35.0060   38.3430 N   0  0  0  0  0  0  0  0  0  0  0  0
   40.2990   34.8360   37.9650 C   0  0  0  0  0  0  0  0  0  0  0  0
   39.6570   34.2890   39.0910 C   0  0  0  0  0  0  0  0  0  0  0  0
   40.5810   34.1340   40.1420 C   0  0  0  0  0  0  0  0  0  0  0  0
   40.1320   33.5720   41.4400 C   0  0  0  0  0  0  0  0  0  0  0  0
   40.8840   32.4470   41.8150 F   0  0  0  0  0  0  0  0  0  0  0  0
   38.8440   32.9830   41.2700 F   0  0  0  0  0  0  0  0  0  0  0  0
   39.9420   34.4750   42.4360 F   0  0  0  0  0  0  0  0  0  0  0  0
   46.5720   35.0690   42.3970 C   0  0  0  0  0  0  0  0  0  0  0  0
   47.7070   35.0540   41.4250 C   0  0  0  0  0  0  0  0  0  0  0  0
   48.9990   35.0270   42.2420 C   0  0  0  0  0  0  0  0  0  0  0  0
   49.1350   33.6550   42.8190 C   0  0  0  0  0  0  0  0  0  0  0  0
   47.8320   33.0650   43.2760 C   0  0  0  0  0  0  0  0  0  0  0  0
   46.7310   34.0460   43.4800 C   0  0  0  0  0  0  0  0  0  0  0  0
   42.2475   36.2323   41.5383 H   0  0  0  0  0  0  0  0  0  0  0  0
   43.9896   33.0807   39.1070 H   0  0  0  0  0  0  0  0  0  0  0  0
   39.8482   35.0766   36.9909 H   0  0  0  0  0  0  0  0  0  0  0  0
   38.5911   34.0220   39.1426 H   0  0  0  0  0  0  0  0  0  0  0  0
   46.5513   36.0307   42.9306 H   0  0  0  0  0  0  0  0  0  0  0  0
   47.6771   35.9561   40.7962 H   0  0  0  0  0  0  0  0  0  0  0  0
   47.6440   34.1774   40.7634 H   0  0  0  0  0  0  0  0  0  0  0  0
   49.8589   35.2487   41.5929 H   0  0  0  0  0  0  0  0  0  0  0  0
   48.9691   35.7828   43.0407 H   0  0  0  0  0  0  0  0  0  0  0  0
   49.5654   32.9955   42.0510 H   0  0  0  0  0  0  0  0  0  0  0  0
   49.7803   33.7397   43.7058 H   0  0  0  0  0  0  0  0  0  0  0  0
   47.5038   32.3370   42.5195 H   0  0  0  0  0  0  0  0  0  0  0  0
   48.0281   32.6158   44.2608 H   0  0  0  0  0  0  0  0  0  0  0  0
   46.9212   34.5780   44.4239 H   0  0  0  0  0  0  0  0  0  0  0  0
   45.8000   33.4601   43.4821 H   0  0  0  0  0  0  0  0  0  0  0  0
  1  6  2  0
  2  1  1  0
  3  2  2  0
  3  4  1  0
  4  5  2  0
  5  6  1  0
  5 16  1  0
  7 11  1  0
  7  2  1  0
  8  7  1  0
  9  8  2  0
  9 10  1  0
 10 11  2  0
 11 12  1  0
 12 13  1  0
 12 15  1  0
 14 12  1  0
 16 21  1  0
 17 18  1  0
 17 16  1  0
 18 19  1  0
 19 20  1  0
 20 21  1  0
  1 22  1  0
  3 23  1  0
  9 24  1  0
 10 25  1  0
 16 26  1  0
 17 27  1  0
 17 28  1  0
 18 29  1  0
 18 30  1  0
 19 31  1  0
 19 32  1  0
 20 33  1  0
 20 34  1  0
 21 35  1  0
 21 36  1  0
M  ISO  8  22  14  23  14  24  14  25  14  26  13  27  13  28  13  29  13
M  ISO  7  30  13  31  13  32  13  33  13  34  13  35  13  36  13
M  END
>  <minimizedAffinity>  (1) 
-6.11553192

>  <minimizedRMSD>  (1) 
2.83563948

$$$$
