
     RDKit          3D

 27 29  0  0  0  0  0  0  0  0999 V2000
   42.8560   35.2780   40.6890 C   0  0  0  0  0  0  0  0  0  0  0  0
   42.5100   34.2880   39.7790 C   0  0  0  0  0  0  0  0  0  0  0  0
   43.4710   33.3110   39.4600 C   0  0  0  0  0  0  0  0  0  0  0  0
   44.7080   33.3850   40.0660 N   0  0  0  0  0  0  0  0  0  0  0  0
   44.9830   34.3730   40.9430 C   0  0  0  0  0  0  0  0  0  0  0  0
   44.0710   35.3260   41.2660 N   0  0  0  0  0  0  0  0  0  0  0  0
   46.2620   34.4460   41.5670 N   0  0  0  0  0  0  0  0  0  0  0  0
   47.3890   34.5060   40.8310 C   0  0  0  0  0  0  0  0  0  0  0  0
   48.4310   34.5670   41.7430 C   0  0  0  0  0  0  0  0  0  0  0  0
   47.9220   34.5430   42.9790 N   0  0  0  0  0  0  0  0  0  0  0  0
   46.5650   34.4660   42.8790 C   0  0  0  0  0  0  0  0  0  0  0  0
   41.2250   34.3330   39.2440 N   0  0  0  0  0  0  0  0  0  0  0  0
   41.0400   34.8080   38.0100 N   0  0  0  0  0  0  0  0  0  0  0  0
   39.6890   34.7390   37.7380 C   0  0  0  0  0  0  0  0  0  0  0  0
   39.1070   34.1890   38.9040 C   0  0  0  0  0  0  0  0  0  0  0  0
   40.1090   33.9350   39.8600 C   0  0  0  0  0  0  0  0  0  0  0  0
   39.7310   33.3520   41.1740 C   0  0  0  0  0  0  0  0  0  0  0  0
   40.3660   32.1200   41.4040 F   0  0  0  0  0  0  0  0  0  0  0  0
   38.3730   32.9380   41.1330 F   0  0  0  0  0  0  0  0  0  0  0  0
   39.7730   34.2060   42.2270 F   0  0  0  0  0  0  0  0  0  0  0  0
   42.1134   36.0476   40.9466 H   0  0  0  0  0  0  0  0  0  0  0  0
   43.2414   32.5076   38.7446 H   0  0  0  0  0  0  0  0  0  0  0  0
   47.4662   34.5065   39.7337 H   0  0  0  0  0  0  0  0  0  0  0  0
   49.5002   34.6255   41.4913 H   0  0  0  0  0  0  0  0  0  0  0  0
   45.8504   34.4274   43.7143 H   0  0  0  0  0  0  0  0  0  0  0  0
   39.1758   35.0453   36.8145 H   0  0  0  0  0  0  0  0  0  0  0  0
   38.0341   33.9899   39.0428 H   0  0  0  0  0  0  0  0  0  0  0  0
  1  6  2  0
  2  1  1  0
  3  2  2  0
  3  4  1  0
  4  5  2  0
  5  6  1  0
  5  7  1  0
  7 11  1  0
  8  7  1  0
  8  9  2  0
  9 10  1  0
 11 10  2  0
 12  2  1  0
 12 16  1  0
 13 12  1  0
 14 13  2  0
 14 15  1  0
 15 16  2  0
 16 17  1  0
 17 18  1  0
 17 20  1  0
 19 17  1  0
  1 21  1  0
  3 22  1  0
  8 23  1  0
  9 24  1  0
 11 25  1  0
 14 26  1  0
 15 27  1  0
M  ISO  7  21  14  22  14  23  14  24  14  25  14  26  14  27  14
M  END
>  <minimizedAffinity>  (1) 
-5.51508617

>  <minimizedRMSD>  (1) 
2.93283653

$$$$
