
     RDKit          3D

 21 22  0  0  0  0  0  0  0  0999 V2000
   42.8310   34.4090   40.2280 N   0  0  0  0  0  0  0  0  0  0  0  0
   43.3760   33.9760   39.1080 N   0  0  0  0  0  0  0  0  0  0  0  0
   42.4630   34.1730   38.0960 C   0  0  0  0  0  0  0  0  0  0  0  0
   41.3370   34.7570   38.7230 C   0  0  0  0  0  0  0  0  0  0  0  0
   41.5810   34.9080   40.1000 C   0  0  0  0  0  0  0  0  0  0  0  0
   43.8850   35.5360   42.0500 C   0  0  0  0  0  0  0  0  0  0  0  0
   43.5390   34.3330   41.4280 C   0  0  0  0  0  0  0  0  0  0  0  0
   43.9210   33.1260   42.0430 C   0  0  0  0  0  0  0  0  0  0  0  0
   44.6150   33.1890   43.2230 N   0  0  0  0  0  0  0  0  0  0  0  0
   44.9250   34.3820   43.7820 C   0  0  0  0  0  0  0  0  0  0  0  0
   44.5660   35.5600   43.2070 N   0  0  0  0  0  0  0  0  0  0  0  0
   45.6300   34.4470   44.9810 O   0  0  0  0  0  0  0  0  0  0  0  0
   40.5380   35.5010   40.9590 C   0  0  0  0  0  0  0  0  0  0  0  0
   40.2110   34.6610   42.0400 F   0  0  0  0  0  0  0  0  0  0  0  0
   39.3070   35.5300   40.2680 F   0  0  0  0  0  0  0  0  0  0  0  0
   40.7310   36.7930   41.3230 F   0  0  0  0  0  0  0  0  0  0  0  0
   42.5832   33.9290   37.0302 H   0  0  0  0  0  0  0  0  0  0  0  0
   40.4090   35.0494   38.2099 H   0  0  0  0  0  0  0  0  0  0  0  0
   43.5922   36.4865   41.5801 H   0  0  0  0  0  0  0  0  0  0  0  0
   43.6689   32.1567   41.5880 H   0  0  0  0  0  0  0  0  0  0  0  0
   45.8501   35.3265   45.3788 H   0  0  0  0  0  0  0  0  0  0  0  0
  1  7  1  0
  2  1  1  0
  3  4  1  0
  3  2  2  0
  4  5  2  0
  5  1  1  0
  5 13  1  0
  6 11  2  0
  7  8  2  0
  7  6  1  0
  8  9  1  0
  9 10  2  0
 10 12  1  0
 11 10  1  0
 13 16  1  0
 13 14  1  0
 15 13  1  0
  3 17  1  0
  4 18  1  0
  6 19  1  0
  8 20  1  0
 12 21  1  0
M  ISO  5  17  14  18  14  19  14  20  14  21   3
M  END
>  <minimizedAffinity>  (1) 
-4.39466763

>  <minimizedRMSD>  (1) 
0.355175912

$$$$
