
     RDKit          3D

 38 40  0  0  0  0  0  0  0  0999 V2000
   42.7010   35.5240   41.1200 C   0  0  0  0  0  0  0  0  0  0  0  0
   42.5900   34.5820   40.1030 C   0  0  0  0  0  0  0  0  0  0  0  0
   43.7030   33.7790   39.8210 C   0  0  0  0  0  0  0  0  0  0  0  0
   44.8420   33.9580   40.5530 N   0  0  0  0  0  0  0  0  0  0  0  0
   44.8970   34.9010   41.5440 C   0  0  0  0  0  0  0  0  0  0  0  0
   43.8350   35.6870   41.8340 N   0  0  0  0  0  0  0  0  0  0  0  0
   41.3610   34.5060   39.4310 N   0  0  0  0  0  0  0  0  0  0  0  0
   41.2610   34.9420   38.1980 N   0  0  0  0  0  0  0  0  0  0  0  0
   39.9620   34.7470   37.7900 C   0  0  0  0  0  0  0  0  0  0  0  0
   39.3190   34.1590   38.8950 C   0  0  0  0  0  0  0  0  0  0  0  0
   40.2290   34.0090   39.9440 C   0  0  0  0  0  0  0  0  0  0  0  0
   39.7810   33.4110   41.2240 C   0  0  0  0  0  0  0  0  0  0  0  0
   40.3610   32.1530   41.4730 F   0  0  0  0  0  0  0  0  0  0  0  0
   38.4120   33.0270   41.1270 F   0  0  0  0  0  0  0  0  0  0  0  0
   39.7880   34.2230   42.3110 F   0  0  0  0  0  0  0  0  0  0  0  0
   46.1940   34.9800   42.2520 C   0  0  0  0  0  0  0  0  0  0  0  0
   47.0610   33.8600   41.7690 C   0  0  0  0  0  0  0  0  0  0  0  0
   48.1930   34.2560   40.9990 N   0  0  0  0  0  0  0  0  0  0  0  0
   48.8480   35.4510   41.4280 C   0  0  0  0  0  0  0  0  0  0  0  0
   49.6890   35.0320   42.6310 C   0  0  0  0  0  0  0  0  0  0  0  0
   50.2240   33.7030   42.1340 C   0  0  0  0  0  0  0  0  0  0  0  0
   49.1880   33.1840   41.1660 C   0  0  0  0  0  0  0  0  0  0  0  0
   41.8333   36.1593   41.3510 H   0  0  0  0  0  0  0  0  0  0  0  0
   43.6603   33.0198   39.0261 H   0  0  0  0  0  0  0  0  0  0  0  0
   39.5219   34.9963   36.8132 H   0  0  0  0  0  0  0  0  0  0  0  0
   38.2602   33.8624   38.9277 H   0  0  0  0  0  0  0  0  0  0  0  0
   46.6774   35.9443   42.0365 H   0  0  0  0  0  0  0  0  0  0  0  0
   46.0390   34.8985   43.3380 H   0  0  0  0  0  0  0  0  0  0  0  0
   47.4242   33.3076   42.6482 H   0  0  0  0  0  0  0  0  0  0  0  0
   46.4326   33.2557   41.0983 H   0  0  0  0  0  0  0  0  0  0  0  0
   49.4895   35.8486   40.6278 H   0  0  0  0  0  0  0  0  0  0  0  0
   48.1314   36.2459   41.6822 H   0  0  0  0  0  0  0  0  0  0  0  0
   50.4994   35.7484   42.8310 H   0  0  0  0  0  0  0  0  0  0  0  0
   49.1401   34.9817   43.5829 H   0  0  0  0  0  0  0  0  0  0  0  0
   51.1888   33.8438   41.6247 H   0  0  0  0  0  0  0  0  0  0  0  0
   50.3965   32.9989   42.9613 H   0  0  0  0  0  0  0  0  0  0  0  0
   48.7084   32.2810   41.5717 H   0  0  0  0  0  0  0  0  0  0  0  0
   49.6455   32.9142   40.2027 H   0  0  0  0  0  0  0  0  0  0  0  0
  1  6  2  0
  2  1  1  0
  3  2  2  0
  3  4  1  0
  4  5  2  0
  5  6  1  0
  5 16  1  0
  7 11  1  0
  7  2  1  0
  8  7  1  0
  9  8  2  0
  9 10  1  0
 10 11  2  0
 11 12  1  0
 12 13  1  0
 12 15  1  0
 14 12  1  0
 17 16  1  0
 18 22  1  0
 18 19  1  0
 18 17  1  0
 19 20  1  0
 21 20  1  0
 22 21  1  0
  1 23  1  0
  3 24  1  0
  9 25  1  0
 10 26  1  0
 16 27  1  0
 16 28  1  0
 17 29  1  0
 17 30  1  0
 19 31  1  0
 19 32  1  0
 20 33  1  0
 20 34  1  0
 21 35  1  0
 21 36  1  0
 22 37  1  0
 22 38  1  0
M  ISO  8  23  14  24  14  25  14  26  14  27   8  28   8  29   8  30   8
M  ISO  8  31  13  32  13  33  13  34  13  35  13  36  13  37  13  38  13
M  END
>  <minimizedAffinity>  (1) 
-5.80247498

>  <minimizedRMSD>  (1) 
3.29340768

$$$$
