
     RDKit          3D

 46 48  0  0  1  0  0  0  0  0999 V2000
   42.3160   34.8730   40.8220 C   0  0  0  0  0  0  0  0  0  0  0  0
   42.4230   34.4080   39.5290 C   0  0  0  0  0  0  0  0  0  0  0  0
   43.1470   33.2390   39.3090 C   0  0  0  0  0  0  0  0  0  0  0  0
   43.7250   32.5850   40.3470 N   0  0  0  0  0  0  0  0  0  0  0  0
   43.6000   33.0670   41.5910 C   0  0  0  0  0  0  0  0  0  0  0  0
   42.8890   34.2250   41.8410 N   0  0  0  0  0  0  0  0  0  0  0  0
   41.7900   35.1450   38.5220 N   0  0  0  0  0  0  0  0  0  0  0  0
   42.4760   36.0360   37.8220 N   0  0  0  0  0  0  0  0  0  0  0  0
   41.6050   36.6000   36.9150 C   0  0  0  0  0  0  0  0  0  0  0  0
   40.3610   35.9660   37.1440 C   0  0  0  0  0  0  0  0  0  0  0  0
   40.4880   35.0370   38.1730 C   0  0  0  0  0  0  0  0  0  0  0  0
   39.3070   34.2410   38.5920 C   0  0  0  0  0  0  0  0  0  0  0  0
   39.5920   32.8700   38.6780 F   0  0  0  0  0  0  0  0  0  0  0  0
   38.3460   34.2150   37.5370 F   0  0  0  0  0  0  0  0  0  0  0  0
   38.6120   34.7190   39.6390 F   0  0  0  0  0  0  0  0  0  0  0  0
   44.1840   32.3810   42.7910 C   0  0  0  0  0  0  0  0  0  0  0  0
   45.2650   33.2710   43.3130 C   0  0  2  0  0  0  0  0  0  0  0  0
   44.7480   34.3370   44.0650 N   0  0  0  0  0  0  0  0  0  0  0  0
   45.1420   34.4340   45.4270 C   0  0  0  0  0  0  0  0  0  0  0  0
   46.0780   33.7340   45.9910 N   0  0  0  0  0  0  0  0  0  0  0  0
   44.4530   35.3660   46.2790 N   0  0  0  0  0  0  0  0  0  0  0  0
   46.5810   33.0360   45.4560 H   0  0  0  0  0  0  0  0  0  0  0  0
   46.4020   33.3750   42.5900 N   0  0  0  0  0  0  0  0  0  0  0  0
   46.9080   34.6520   42.2180 C   0  0  0  0  0  0  0  0  0  0  0  0
   48.3260   34.7400   42.7370 C   0  0  0  0  0  0  0  0  0  0  0  0
   49.1080   33.6530   42.4220 O   0  0  0  0  0  0  0  0  0  0  0  0
   48.5580   32.4290   42.7410 C   0  0  0  0  0  0  0  0  0  0  0  0
   47.1550   32.2680   42.1610 C   0  0  0  0  0  0  0  0  0  0  0  0
   41.7485   35.7945   41.0190 H   0  0  0  0  0  0  0  0  0  0  0  0
   43.2507   32.8439   38.2877 H   0  0  0  0  0  0  0  0  0  0  0  0
   41.8294   37.3782   36.1707 H   0  0  0  0  0  0  0  0  0  0  0  0
   39.4330   36.1757   36.5919 H   0  0  0  0  0  0  0  0  0  0  0  0
   43.4095   32.2356   43.5585 H   0  0  0  0  0  0  0  0  0  0  0  0
   44.5820   31.3906   42.5250 H   0  0  0  0  0  0  0  0  0  0  0  0
   45.8248   32.7323   44.0917 H   0  0  0  0  0  0  0  0  0  0  0  0
   44.1061   35.0244   43.6450 H   0  0  0  0  0  0  0  0  0  0  0  0
   44.7212   35.4536   47.2696 H   0  0  0  0  0  0  0  0  0  0  0  0
   43.6914   35.9457   45.8985 H   0  0  0  0  0  0  0  0  0  0  0  0
   46.9004   34.7560   41.1230 H   0  0  0  0  0  0  0  0  0  0  0  0
   46.2872   35.4560   42.6401 H   0  0  0  0  0  0  0  0  0  0  0  0
   48.7951   35.6385   42.3096 H   0  0  0  0  0  0  0  0  0  0  0  0
   48.2604   34.7761   43.8344 H   0  0  0  0  0  0  0  0  0  0  0  0
   49.2027   31.6336   42.3389 H   0  0  0  0  0  0  0  0  0  0  0  0
   48.4841   32.3630   43.8365 H   0  0  0  0  0  0  0  0  0  0  0  0
   46.6994   31.3364   42.5279 H   0  0  0  0  0  0  0  0  0  0  0  0
   47.1882   32.2184   41.0626 H   0  0  0  0  0  0  0  0  0  0  0  0
  1  6  2  0
  2  1  1  0
  3  2  2  0
  3  4  1  0
  4  5  2  0
  5  6  1  0
  5 16  1  0
  7  2  1  0
  8  7  1  0
  9 10  1  0
  9  8  2  0
 10 11  2  0
 11  7  1  0
 11 12  1  0
 12 13  1  0
 12 15  1  0
 14 12  1  0
 16 17  1  0
 17 18  1  0
 18 19  1  0
 19 20  2  0
 19 21  1  0
 22 20  1  0
 23 17  1  0
 24 23  1  0
 24 25  1  0
 26 25  1  0
 26 27  1  0
 28 23  1  0
 28 27  1  0
  1 29  1  0
  3 30  1  0
  9 31  1  0
 10 32  1  0
 16 33  1  0
 16 34  1  0
 17 35  1  1
 18 36  1  0
 21 37  1  0
 21 38  1  0
 24 39  1  0
 24 40  1  0
 25 41  1  0
 25 42  1  0
 27 43  1  0
 27 44  1  0
 28 45  1  0
 28 46  1  0
M  ISO  8  29  14  30  14  31  14  32  14  33   8  34   8  35   8  39  13
M  ISO  7  40  13  41  13  42  13  43  13  44  13  45  13  46  13
M  END
>  <minimizedAffinity>  (1) 
-6.10482407

>  <minimizedRMSD>  (1) 
2.85256791

$$$$
