
     RDKit          3D

 40 42  0  0  1  0  0  0  0  0999 V2000
   42.7190   35.3840   40.7450 C   0  0  0  0  0  0  0  0  0  0  0  0
   42.5390   34.0300   40.5670 C   0  0  0  0  0  0  0  0  0  0  0  0
   43.4430   33.1640   41.1690 C   0  0  0  0  0  0  0  0  0  0  0  0
   44.4700   33.6510   41.9080 N   0  0  0  0  0  0  0  0  0  0  0  0
   44.6180   34.9730   42.0610 C   0  0  0  0  0  0  0  0  0  0  0  0
   43.7340   35.8600   41.4740 N   0  0  0  0  0  0  0  0  0  0  0  0
   41.4490   33.6190   39.7920 N   0  0  0  0  0  0  0  0  0  0  0  0
   41.5050   33.7030   38.4710 N   0  0  0  0  0  0  0  0  0  0  0  0
   40.3050   33.2360   37.9810 C   0  0  0  0  0  0  0  0  0  0  0  0
   39.5490   32.8740   39.1210 C   0  0  0  0  0  0  0  0  0  0  0  0
   40.2900   33.1230   40.2680 C   0  0  0  0  0  0  0  0  0  0  0  0
   39.6970   32.8160   41.6010 C   0  0  0  0  0  0  0  0  0  0  0  0
   40.2380   31.6500   42.1710 F   0  0  0  0  0  0  0  0  0  0  0  0
   38.3460   32.3860   41.4390 F   0  0  0  0  0  0  0  0  0  0  0  0
   39.6020   33.8460   42.4610 F   0  0  0  0  0  0  0  0  0  0  0  0
   45.7030   35.6030   42.8890 C   0  0  0  0  0  0  0  0  0  0  0  0
   46.8500   34.6470   42.8840 C   0  0  2  0  0  0  0  0  0  0  0  0
   47.2850   34.3720   41.5760 N   0  0  0  0  0  0  0  0  0  0  0  0
   48.3920   35.1150   41.0860 C   0  0  0  0  0  0  0  0  0  0  0  0
   49.1510   35.8880   41.8000 N   0  0  0  0  0  0  0  0  0  0  0  0
   48.7040   35.0280   39.6870 N   0  0  0  0  0  0  0  0  0  0  0  0
   48.9610   36.0130   42.7870 H   0  0  0  0  0  0  0  0  0  0  0  0
   46.9330   33.6540   43.8810 C   0  0  0  0  0  0  0  0  0  0  0  0
   47.4640   32.4230   43.4780 C   0  0  0  0  0  0  0  0  0  0  0  0
   47.4880   31.5370   44.5620 C   0  0  0  0  0  0  0  0  0  0  0  0
   46.9520   32.3120   45.5940 C   0  0  0  0  0  0  0  0  0  0  0  0
   46.6590   33.4910   45.1540 O   0  0  0  0  0  0  0  0  0  0  0  0
   42.0139   36.0876   40.2783 H   0  0  0  0  0  0  0  0  0  0  0  0
   43.3250   32.0774   41.0455 H   0  0  0  0  0  0  0  0  0  0  0  0
   39.9994   33.1606   36.9270 H   0  0  0  0  0  0  0  0  0  0  0  0
   38.5305   32.4590   39.1013 H   0  0  0  0  0  0  0  0  0  0  0  0
   46.0074   36.5640   42.4487 H   0  0  0  0  0  0  0  0  0  0  0  0
   45.3561   35.8024   43.9136 H   0  0  0  0  0  0  0  0  0  0  0  0
   47.6875   35.1914   43.3447 H   0  0  0  0  0  0  0  0  0  0  0  0
   46.8194   33.6597   40.9957 H   0  0  0  0  0  0  0  0  0  0  0  0
   49.5010   35.5557   39.3033 H   0  0  0  0  0  0  0  0  0  0  0  0
   48.1308   34.4379   39.0672 H   0  0  0  0  0  0  0  0  0  0  0  0
   47.8108   32.1869   42.4611 H   0  0  0  0  0  0  0  0  0  0  0  0
   47.8396   30.4952   44.5933 H   0  0  0  0  0  0  0  0  0  0  0  0
   46.8017   31.9689   46.6283 H   0  0  0  0  0  0  0  0  0  0  0  0
  1  6  2  0
  2  1  1  0
  2  3  2  0
  3  4  1  0
  4  5  2  0
  5 16  1  0
  6  5  1  0
  7 11  1  0
  7  2  1  0
  8  7  1  0
  9  8  2  0
  9 10  1  0
 10 11  2  0
 11 12  1  0
 12 13  1  0
 12 15  1  0
 14 12  1  0
 17 16  1  0
 17 23  1  0
 18 17  1  0
 19 18  1  0
 19 20  2  0
 20 22  1  0
 21 19  1  0
 23 27  1  0
 24 23  2  0
 24 25  1  0
 25 26  2  0
 27 26  1  0
  1 28  1  0
  3 29  1  0
  9 30  1  0
 10 31  1  0
 16 32  1  0
 16 33  1  0
 17 34  1  1
 18 35  1  0
 21 36  1  0
 21 37  1  0
 24 38  1  0
 25 39  1  0
 26 40  1  0
M  ISO  8  28  14  29  14  30  14  31  14  32   8  33   8  34   8  38  14
M  ISO  2  39  14  40  14
M  END
>  <minimizedAffinity>  (1) 
-5.97158861

>  <minimizedRMSD>  (1) 
2.62441325

$$$$
