
     RDKit          3D

 48 50  0  0  1  0  0  0  0  0999 V2000
   45.8160   34.1850   43.3930 C   0  0  0  0  0  0  0  0  0  0  0  0
   42.7910   35.3110   41.6270 C   0  0  0  0  0  0  0  0  0  0  0  0
   42.8870   34.6830   40.3950 C   0  0  0  0  0  0  0  0  0  0  0  0
   43.9930   33.8770   40.1520 C   0  0  0  0  0  0  0  0  0  0  0  0
   44.9440   33.7190   41.1030 N   0  0  0  0  0  0  0  0  0  0  0  0
   44.8210   34.3390   42.2820 C   0  0  0  0  0  0  0  0  0  0  0  0
   43.7360   35.1490   42.5590 N   0  0  0  0  0  0  0  0  0  0  0  0
   41.8500   34.9080   39.4840 N   0  0  0  0  0  0  0  0  0  0  0  0
   42.0920   35.5510   38.3520 N   0  0  0  0  0  0  0  0  0  0  0  0
   40.9000   35.6320   37.6640 C   0  0  0  0  0  0  0  0  0  0  0  0
   39.9480   34.9870   38.4840 C   0  0  0  0  0  0  0  0  0  0  0  0
   40.5650   34.5270   39.6460 C   0  0  0  0  0  0  0  0  0  0  0  0
   39.7570   33.8080   40.6650 C   0  0  0  0  0  0  0  0  0  0  0  0
   39.9540   32.4170   40.6130 F   0  0  0  0  0  0  0  0  0  0  0  0
   38.3760   33.8590   40.3090 F   0  0  0  0  0  0  0  0  0  0  0  0
   39.7830   34.3150   41.9100 F   0  0  0  0  0  0  0  0  0  0  0  0
   45.5270   32.8740   44.0520 C   0  0  2  0  0  0  0  0  0  0  0  0
   44.3700   32.2640   43.5380 N   0  0  0  0  0  0  0  0  0  0  0  0
   44.5590   31.1740   42.6360 C   0  0  0  0  0  0  0  0  0  0  0  0
   45.6840   30.5750   42.3980 N   0  0  0  0  0  0  0  0  0  0  0  0
   43.4190   30.6850   41.9020 N   0  0  0  0  0  0  0  0  0  0  0  0
   46.5290   30.8870   42.8670 H   0  0  0  0  0  0  0  0  0  0  0  0
   45.9010   32.7560   45.3510 N   0  0  0  0  0  0  0  0  0  0  0  0
   45.5340   33.7450   46.2980 C   0  0  0  0  0  0  0  0  0  0  0  0
   45.1090   33.0210   47.5810 C   0  0  0  0  0  0  0  0  0  0  0  0
   46.3410   32.3800   48.1840 C   0  0  0  0  0  0  0  0  0  0  0  0
   47.3680   32.0580   47.0980 C   0  0  0  0  0  0  0  0  0  0  0  0
   46.6640   31.6690   45.8150 C   0  0  0  0  0  0  0  0  0  0  0  0
   45.7053   35.0056   44.1172 H   0  0  0  0  0  0  0  0  0  0  0  0
   46.8460   34.2151   43.0079 H   0  0  0  0  0  0  0  0  0  0  0  0
   41.9237   35.9528   41.8413 H   0  0  0  0  0  0  0  0  0  0  0  0
   44.0962   33.3656   39.1836 H   0  0  0  0  0  0  0  0  0  0  0  0
   40.7270   36.1000   36.6837 H   0  0  0  0  0  0  0  0  0  0  0  0
   38.8817   34.8661   38.2423 H   0  0  0  0  0  0  0  0  0  0  0  0
   46.2707   32.1279   43.7353 H   0  0  0  0  0  0  0  0  0  0  0  0
   43.4284   32.5887   43.8003 H   0  0  0  0  0  0  0  0  0  0  0  0
   43.5280   29.8995   41.2447 H   0  0  0  0  0  0  0  0  0  0  0  0
   42.4953   31.1210   42.0348 H   0  0  0  0  0  0  0  0  0  0  0  0
   46.3908   34.4031   46.5046 H   0  0  0  0  0  0  0  0  0  0  0  0
   44.7105   34.3638   45.9119 H   0  0  0  0  0  0  0  0  0  0  0  0
   44.6771   33.7416   48.2911 H   0  0  0  0  0  0  0  0  0  0  0  0
   44.3507   32.2566   47.3561 H   0  0  0  0  0  0  0  0  0  0  0  0
   46.7894   33.0728   48.9113 H   0  0  0  0  0  0  0  0  0  0  0  0
   46.0459   31.4441   48.6809 H   0  0  0  0  0  0  0  0  0  0  0  0
   47.9942   32.9437   46.9153 H   0  0  0  0  0  0  0  0  0  0  0  0
   47.9953   31.2189   47.4331 H   0  0  0  0  0  0  0  0  0  0  0  0
   46.0023   30.8112   46.0054 H   0  0  0  0  0  0  0  0  0  0  0  0
   47.4109   31.3943   45.0555 H   0  0  0  0  0  0  0  0  0  0  0  0
  1 17  1  0
  2  7  2  0
  3  2  1  0
  4  3  2  0
  4  5  1  0
  5  6  2  0
  6  7  1  0
  6  1  1  0
  8 12  1  0
  8  3  1  0
  9  8  1  0
 10  9  2  0
 10 11  1  0
 11 12  2  0
 12 13  1  0
 13 16  1  0
 14 13  1  0
 15 13  1  0
 17 23  1  0
 18 17  1  0
 19 18  1  0
 20 19  2  0
 20 22  1  0
 21 19  1  0
 23 28  1  0
 23 24  1  0
 24 25  1  0
 25 26  1  0
 27 26  1  0
 28 27  1  0
  1 29  1  0
  1 30  1  0
  2 31  1  0
  4 32  1  0
 10 33  1  0
 11 34  1  0
 17 35  1  6
 18 36  1  0
 21 37  1  0
 21 38  1  0
 24 39  1  0
 24 40  1  0
 25 41  1  0
 25 42  1  0
 26 43  1  0
 26 44  1  0
 27 45  1  0
 27 46  1  0
 28 47  1  0
 28 48  1  0
M  ISO  8  29   8  30   8  31  14  32  14  33  14  34  14  35   8  39  13
M  ISO  8  40  13  41  13  42  13  43  13  44  13  45  13  46  13  47  13
M  ISO  1  48  13
M  END
>  <minimizedAffinity>  (1) 
-5.7504344

>  <minimizedRMSD>  (1) 
1.26157987

$$$$
