
     RDKit          3D

 39 41  0  0  1  0  0  0  0  0999 V2000
   42.9090   35.3720   41.1070 C   0  0  0  0  0  0  0  0  0  0  0  0
   42.7220   34.4940   40.0620 C   0  0  0  0  0  0  0  0  0  0  0  0
   43.8020   33.7300   39.6430 C   0  0  0  0  0  0  0  0  0  0  0  0
   45.0060   33.8520   40.2520 N   0  0  0  0  0  0  0  0  0  0  0  0
   45.1560   34.7140   41.2650 C   0  0  0  0  0  0  0  0  0  0  0  0
   44.1000   35.4910   41.7060 N   0  0  0  0  0  0  0  0  0  0  0  0
   41.4420   34.4340   39.4960 N   0  0  0  0  0  0  0  0  0  0  0  0
   41.2460   34.8600   38.2570 N   0  0  0  0  0  0  0  0  0  0  0  0
   39.9090   34.6890   37.9720 C   0  0  0  0  0  0  0  0  0  0  0  0
   39.3500   34.1330   39.1390 C   0  0  0  0  0  0  0  0  0  0  0  0
   40.3330   33.9700   40.1130 C   0  0  0  0  0  0  0  0  0  0  0  0
   39.9740   33.3960   41.4340 C   0  0  0  0  0  0  0  0  0  0  0  0
   40.7720   32.2990   41.7810 F   0  0  0  0  0  0  0  0  0  0  0  0
   38.7070   32.7470   41.3480 F   0  0  0  0  0  0  0  0  0  0  0  0
   39.8070   34.2850   42.4370 F   0  0  0  0  0  0  0  0  0  0  0  0
   46.4430   34.8880   42.0210 C   0  0  0  0  0  0  0  0  0  0  0  0
   46.6020   33.6760   42.8780 C   0  0  2  0  0  0  0  0  0  0  0  0
   46.4830   32.4900   42.1380 N   0  0  0  0  0  0  0  0  0  0  0  0
   47.6510   31.6950   41.9850 C   0  0  0  0  0  0  0  0  0  0  0  0
   48.7690   31.8710   42.6250 N   0  0  0  0  0  0  0  0  0  0  0  0
   47.6280   30.6090   41.0410 N   0  0  0  0  0  0  0  0  0  0  0  0
   48.8550   32.6350   43.2850 H   0  0  0  0  0  0  0  0  0  0  0  0
   46.1740   33.7380   44.1780 N   0  0  0  0  0  0  0  0  0  0  0  0
   45.2260   34.4200   44.8340 C   0  0  0  0  0  0  0  0  0  0  0  0
   45.2230   34.0990   46.1600 N   0  0  0  0  0  0  0  0  0  0  0  0
   46.2170   33.1780   46.3160 C   0  0  0  0  0  0  0  0  0  0  0  0
   46.7770   32.9780   45.1010 N   0  0  0  0  0  0  0  0  0  0  0  0
   42.0651   35.9857   41.4551 H   0  0  0  0  0  0  0  0  0  0  0  0
   43.6797   33.0208   38.8111 H   0  0  0  0  0  0  0  0  0  0  0  0
   39.3894   34.9342   37.0340 H   0  0  0  0  0  0  0  0  0  0  0  0
   38.2902   33.8659   39.2636 H   0  0  0  0  0  0  0  0  0  0  0  0
   47.2867   34.9704   41.3200 H   0  0  0  0  0  0  0  0  0  0  0  0
   46.4247   35.8042   42.6295 H   0  0  0  0  0  0  0  0  0  0  0  0
   47.6545   33.6514   43.1969 H   0  0  0  0  0  0  0  0  0  0  0  0
   45.5844   32.2066   41.7220 H   0  0  0  0  0  0  0  0  0  0  0  0
   48.4630   30.0196   40.9136 H   0  0  0  0  0  0  0  0  0  0  0  0
   46.7765   30.4211   40.4928 H   0  0  0  0  0  0  0  0  0  0  0  0
   44.5412   35.1425   44.3660 H   0  0  0  0  0  0  0  0  0  0  0  0
   46.5093   32.6882   47.2565 H   0  0  0  0  0  0  0  0  0  0  0  0
  1  6  2  0
  2  1  1  0
  3  2  2  0
  3  4  1  0
  4  5  2  0
  5  6  1  0
  5 16  1  0
  7  2  1  0
  7 11  1  0
  8  7  1  0
  9  8  2  0
  9 10  1  0
 10 11  2  0
 11 12  1  0
 12 13  1  0
 12 15  1  0
 14 12  1  0
 16 17  1  0
 17 23  1  0
 18 17  1  0
 19 18  1  0
 19 20  2  0
 20 22  1  0
 21 19  1  0
 23 24  1  0
 23 27  1  0
 24 25  2  0
 25 26  1  0
 27 26  2  0
  1 28  1  0
  3 29  1  0
  9 30  1  0
 10 31  1  0
 16 32  1  0
 16 33  1  0
 17 34  1  1
 18 35  1  0
 21 36  1  0
 21 37  1  0
 24 38  1  0
 26 39  1  0
M  ISO  8  28  14  29  14  30  14  31  14  32   8  33   8  34   8  38  14
M  ISO  1  39  14
M  END
>  <minimizedAffinity>  (1) 
-5.57779932

>  <minimizedRMSD>  (1) 
1.79416132

$$$$
