
     RDKit          3D

 40 42  0  0  1  0  0  0  0  0999 V2000
   42.5980   35.4270   41.3500 C   0  0  0  0  0  0  0  0  0  0  0  0
   42.6480   34.7720   40.1370 C   0  0  0  0  0  0  0  0  0  0  0  0
   43.8090   34.0570   39.8190 C   0  0  0  0  0  0  0  0  0  0  0  0
   44.8310   34.0520   40.7320 N   0  0  0  0  0  0  0  0  0  0  0  0
   44.7240   34.7250   41.9260 C   0  0  0  0  0  0  0  0  0  0  0  0
   43.6040   35.4080   42.2220 N   0  0  0  0  0  0  0  0  0  0  0  0
   41.5330   34.8630   39.3020 N   0  0  0  0  0  0  0  0  0  0  0  0
   41.6290   35.4570   38.1210 N   0  0  0  0  0  0  0  0  0  0  0  0
   40.3950   35.4020   37.5220 C   0  0  0  0  0  0  0  0  0  0  0  0
   39.5740   34.7250   38.4520 C   0  0  0  0  0  0  0  0  0  0  0  0
   40.3080   34.3920   39.5700 C   0  0  0  0  0  0  0  0  0  0  0  0
   39.6490   33.6680   40.6940 C   0  0  0  0  0  0  0  0  0  0  0  0
   39.9710   32.2930   40.7140 F   0  0  0  0  0  0  0  0  0  0  0  0
   38.2470   33.5810   40.4530 F   0  0  0  0  0  0  0  0  0  0  0  0
   39.7170   34.2590   41.9130 F   0  0  0  0  0  0  0  0  0  0  0  0
   45.9600   34.5760   42.7190 C   0  0  0  0  0  0  0  0  0  0  0  0
   45.9360   33.1030   43.2270 C   0  0  1  0  0  0  0  0  0  0  0  0
   44.6400   32.6180   43.4540 N   0  0  0  0  0  0  0  0  0  0  0  0
   44.0230   31.6570   42.6620 C   0  0  0  0  0  0  0  0  0  0  0  0
   44.5970   30.9880   41.7500 N   0  0  0  0  0  0  0  0  0  0  0  0
   42.6280   31.3700   42.8310 N   0  0  0  0  0  0  0  0  0  0  0  0
   45.5860   31.1690   41.5310 H   0  0  0  0  0  0  0  0  0  0  0  0
   47.1290   32.3900   43.1320 C   0  0  0  0  0  0  0  0  0  0  0  0
   48.2750   32.3930   42.3990 C   0  0  0  0  0  0  0  0  0  0  0  0
   49.2420   31.4680   42.6430 C   0  0  0  0  0  0  0  0  0  0  0  0
   49.0860   30.5270   43.6190 C   0  0  0  0  0  0  0  0  0  0  0  0
   47.3910   30.9560   44.3000 S   0  0  0  0  0  0  0  0  0  0  0  0
   41.6882   35.9890   41.6078 H   0  0  0  0  0  0  0  0  0  0  0  0
   43.8981   33.5158   38.8655 H   0  0  0  0  0  0  0  0  0  0  0  0
   40.1086   35.7974   36.5363 H   0  0  0  0  0  0  0  0  0  0  0  0
   38.5078   34.4977   38.3054 H   0  0  0  0  0  0  0  0  0  0  0  0
   46.8459   34.7546   42.0919 H   0  0  0  0  0  0  0  0  0  0  0  0
   46.0102   35.2986   43.5469 H   0  0  0  0  0  0  0  0  0  0  0  0
   46.1633   32.7234   44.2341 H   0  0  0  0  0  0  0  0  0  0  0  0
   44.1143   32.9963   44.2549 H   0  0  0  0  0  0  0  0  0  0  0  0
   42.1739   30.6572   42.2423 H   0  0  0  0  0  0  0  0  0  0  0  0
   42.0803   31.8767   43.5410 H   0  0  0  0  0  0  0  0  0  0  0  0
   48.4198   33.1440   41.6084 H   0  0  0  0  0  0  0  0  0  0  0  0
   50.1645   31.4786   42.0440 H   0  0  0  0  0  0  0  0  0  0  0  0
   49.7744   29.7259   43.9263 H   0  0  0  0  0  0  0  0  0  0  0  0
  1  6  2  0
  2  1  1  0
  3  2  2  0
  3  4  1  0
  4  5  2  0
  5  6  1  0
  5 16  1  0
  7 11  1  0
  7  2  1  0
  8  7  1  0
  9  8  2  0
  9 10  1  0
 10 11  2  0
 11 12  1  0
 12 13  1  0
 12 15  1  0
 14 12  1  0
 16 17  1  0
 17 18  1  0
 19 21  1  0
 19 18  1  0
 20 19  2  0
 22 20  1  0
 23 17  1  0
 23 27  1  0
 24 25  1  0
 24 23  2  0
 25 26  2  0
 26 27  1  0
  1 28  1  0
  3 29  1  0
  9 30  1  0
 10 31  1  0
 16 32  1  0
 16 33  1  0
 17 34  1  1
 18 35  1  0
 21 36  1  0
 21 37  1  0
 24 38  1  0
 25 39  1  0
 26 40  1  0
M  ISO  8  28  14  29  14  30  14  31  14  32   8  33   8  34   8  38  14
M  ISO  2  39  14  40  14
M  END
>  <minimizedAffinity>  (1) 
-5.51079178

>  <minimizedRMSD>  (1) 
1.25135529

$$$$
