
     RDKit          3D

 34 35  0  0  1  0  0  0  0  0999 V2000
   45.7000   34.3990   42.3850 C   0  0  1  0  0  0  0  0  0  0  0  0
   44.7070   35.3740   44.5290 C   0  0  0  0  0  0  0  0  0  0  0  0
   45.4200   34.3920   43.8200 C   0  0  0  0  0  0  0  0  0  0  0  0
   45.9170   33.3010   44.5650 C   0  0  0  0  0  0  0  0  0  0  0  0
   45.6780   33.2660   45.9100 N   0  0  0  0  0  0  0  0  0  0  0  0
   44.9930   34.2260   46.5490 C   0  0  0  0  0  0  0  0  0  0  0  0
   44.5040   35.2890   45.8430 N   0  0  0  0  0  0  0  0  0  0  0  0
   44.4780   34.8700   41.6240 C   0  0  0  0  0  0  0  0  0  0  0  0
   46.8640   35.3540   42.1440 C   0  0  0  0  0  0  0  0  0  0  0  0
   47.8000   34.8480   41.1940 N   0  0  0  0  0  0  0  0  0  0  0  0
   47.9200   33.4390   41.2910 C   0  0  0  0  0  0  0  0  0  0  0  0
   49.2520   32.9180   41.6650 C   0  0  0  0  0  0  0  0  0  0  0  0
   50.1990   33.8250   42.3440 C   0  0  0  0  0  0  0  0  0  0  0  0
   49.7540   35.2550   42.4570 C   0  0  0  0  0  0  0  0  0  0  0  0
   49.0010   35.6040   41.2030 C   0  0  0  0  0  0  0  0  0  0  0  0
   45.9549   33.3872   42.0367 H   0  0  0  0  0  0  0  0  0  0  0  0
   44.3042   36.2393   43.9822 H   0  0  0  0  0  0  0  0  0  0  0  0
   46.4842   32.4967   44.0737 H   0  0  0  0  0  0  0  0  0  0  0  0
   44.8260   34.1581   47.6341 H   0  0  0  0  0  0  0  0  0  0  0  0
   43.6960   35.1714   42.3365 H   0  0  0  0  0  0  0  0  0  0  0  0
   44.7483   35.7284   40.9914 H   0  0  0  0  0  0  0  0  0  0  0  0
   44.1023   34.0523   40.9914 H   0  0  0  0  0  0  0  0  0  0  0  0
   46.4650   36.3090   41.7715 H   0  0  0  0  0  0  0  0  0  0  0  0
   47.3942   35.4814   43.0993 H   0  0  0  0  0  0  0  0  0  0  0  0
   47.2005   33.0929   42.0477 H   0  0  0  0  0  0  0  0  0  0  0  0
   47.7313   33.0586   40.2763 H   0  0  0  0  0  0  0  0  0  0  0  0
   49.0888   32.0597   42.3333 H   0  0  0  0  0  0  0  0  0  0  0  0
   49.7347   32.6975   40.7015 H   0  0  0  0  0  0  0  0  0  0  0  0
   50.3670   33.4406   43.3609 H   0  0  0  0  0  0  0  0  0  0  0  0
   51.1053   33.8383   41.7207 H   0  0  0  0  0  0  0  0  0  0  0  0
   49.0986   35.3746   43.3323 H   0  0  0  0  0  0  0  0  0  0  0  0
   50.6227   35.9185   42.5801 H   0  0  0  0  0  0  0  0  0  0  0  0
   49.6076   35.3535   40.3202 H   0  0  0  0  0  0  0  0  0  0  0  0
   48.7776   36.6807   41.1758 H   0  0  0  0  0  0  0  0  0  0  0  0
  1  3  1  0
  2  7  2  0
  3  2  1  0
  3  4  2  0
  4  5  1  0
  5  6  2  0
  7  6  1  0
  8  1  1  0
  9  1  1  0
 10 15  1  0
 10 11  1  0
 10  9  1  0
 11 12  1  0
 12 13  1  0
 13 14  1  0
 15 14  1  0
  1 16  1  6
  2 17  1  0
  4 18  1  0
  6 19  1  0
  8 20  1  0
  8 21  1  0
  8 22  1  0
  9 23  1  0
  9 24  1  0
 11 25  1  0
 11 26  1  0
 12 27  1  0
 12 28  1  0
 13 29  1  0
 13 30  1  0
 14 31  1  0
 14 32  1  0
 15 33  1  0
 15 34  1  0
M  ISO  8  16   8  17  14  18  14  19  14  20   8  21   8  22   8  23   8
M  ISO  8  24   8  25  13  26  13  27  13  28  13  29  13  30  13  31  13
M  ISO  3  32  13  33  13  34  13
M  END
>  <minimizedAffinity>  (1) 
-4.47502947

>  <minimizedRMSD>  (1) 
1.54413366

$$$$
