
     RDKit          3D

 43 46  0  0  1  0  0  0  0  0999 V2000
   44.0660   35.8290   42.2310 C   0  0  0  0  0  0  0  0  0  0  0  0
   43.4790   35.4390   41.0030 C   0  0  0  0  0  0  0  0  0  0  0  0
   43.7280   34.1440   40.5360 C   0  0  0  0  0  0  0  0  0  0  0  0
   44.5200   33.3240   41.2840 N   0  0  0  0  0  0  0  0  0  0  0  0
   45.0640   33.7050   42.4360 C   0  0  0  0  0  0  0  0  0  0  0  0
   44.8460   34.9710   42.9340 N   0  0  0  0  0  0  0  0  0  0  0  0
   45.8720   32.7760   43.1300 N   0  0  0  0  0  0  0  0  0  0  0  0
   46.6780   31.8540   42.5140 C   0  0  0  0  0  0  0  0  0  0  0  0
   47.3300   31.1110   43.3750 N   0  0  0  0  0  0  0  0  0  0  0  0
   46.9790   31.5130   44.6300 C   0  0  0  0  0  0  0  0  0  0  0  0
   47.3510   31.0920   45.8630 C   0  0  0  0  0  0  0  0  0  0  0  0
   48.1640   30.1650   45.9690 O   0  0  0  0  0  0  0  0  0  0  0  0
   46.8180   31.7060   46.9380 N   0  0  0  0  0  0  0  0  0  0  0  0
   45.9260   32.7230   46.7480 C   0  0  0  0  0  0  0  0  0  0  0  0
   45.4160   33.3080   47.9360 N   0  0  0  0  0  0  0  0  0  0  0  0
   45.5390   33.1600   45.5120 N   0  0  0  0  0  0  0  0  0  0  0  0
   46.0840   32.5370   44.4360 C   0  0  0  0  0  0  0  0  0  0  0  0
   47.1980   31.2880   48.2530 C   0  0  2  0  0  0  0  0  0  0  0  0
   45.9640   31.1210   49.1070 C   0  0  0  0  0  0  0  0  0  0  0  0
   48.2670   32.1170   48.8820 C   0  0  0  0  0  0  0  0  0  0  0  0
   49.3240   31.4000   49.5940 C   0  0  0  0  0  0  0  0  0  0  0  0
   49.3420   30.0670   49.9680 C   0  0  0  0  0  0  0  0  0  0  0  0
   50.4070   29.5010   50.6410 C   0  0  0  0  0  0  0  0  0  0  0  0
   51.5180   30.2660   50.9700 C   0  0  0  0  0  0  0  0  0  0  0  0
   51.5490   31.6140   50.6140 C   0  0  0  0  0  0  0  0  0  0  0  0
   50.4640   32.1290   49.9470 C   0  0  0  0  0  0  0  0  0  0  0  0
   43.8868   36.8421   42.6202 H   0  0  0  0  0  0  0  0  0  0  0  0
   42.8455   36.1342   40.4326 H   0  0  0  0  0  0  0  0  0  0  0  0
   43.2947   33.7952   39.5870 H   0  0  0  0  0  0  0  0  0  0  0  0
   46.7674   31.7496   41.4226 H   0  0  0  0  0  0  0  0  0  0  0  0
   44.7380   34.0813   47.8793 H   0  0  0  0  0  0  0  0  0  0  0  0
   45.7238   32.9593   48.8550 H   0  0  0  0  0  0  0  0  0  0  0  0
   47.6857   30.3062   48.1619 H   0  0  0  0  0  0  0  0  0  0  0  0
   46.2456   31.1591   50.1697 H   0  0  0  0  0  0  0  0  0  0  0  0
   45.2533   31.9311   48.8867 H   0  0  0  0  0  0  0  0  0  0  0  0
   45.4942   30.1511   48.8867 H   0  0  0  0  0  0  0  0  0  0  0  0
   48.7434   32.7064   48.0848 H   0  0  0  0  0  0  0  0  0  0  0  0
   47.7541   32.7124   49.6517 H   0  0  0  0  0  0  0  0  0  0  0  0
   48.4762   29.4355   49.7200 H   0  0  0  0  0  0  0  0  0  0  0  0
   50.3748   28.4370   50.9182 H   0  0  0  0  0  0  0  0  0  0  0  0
   52.3652   29.8134   51.5061 H   0  0  0  0  0  0  0  0  0  0  0  0
   52.4155   32.2455   50.8597 H   0  0  0  0  0  0  0  0  0  0  0  0
   50.4942   33.1932   49.6702 H   0  0  0  0  0  0  0  0  0  0  0  0
  1  6  2  0
  2  1  1  0
  3  2  2  0
  3  4  1  0
  4  5  2  0
  5  6  1  0
  5  7  1  0
  7 17  1  0
  8  7  1  0
  8  9  2  0
  9 10  1  0
 10 11  1  0
 11 12  2  0
 11 13  1  0
 13 18  1  0
 14 13  1  0
 14 15  1  0
 16 14  2  0
 17 10  2  0
 17 16  1  0
 18 20  1  0
 18 19  1  0
 20 21  1  0
 21 26  1  0
 21 22  2  0
 22 23  1  0
 23 24  2  0
 25 24  1  0
 26 25  2  0
  1 27  1  0
  2 28  1  0
  3 29  1  0
  8 30  1  0
 15 31  1  0
 15 32  1  0
 18 33  1  6
 19 34  1  0
 19 35  1  0
 19 36  1  0
 20 37  1  0
 20 38  1  0
 22 39  1  0
 23 40  1  0
 24 41  1  0
 25 42  1  0
 26 43  1  0
M  ISO  8  27  14  28  14  29  14  30  14  33   8  34   8  35   8  36   8
M  ISO  7  37   8  38   8  39  14  40  14  41  14  42  14  43  14
M  END
>  <minimizedAffinity>  (1) 
-6.0233283

>  <minimizedRMSD>  (1) 
1.26996255

$$$$
