
     RDKit          3D

 43 46  0  0  1  0  0  0  0  0999 V2000
   44.2470   35.9890   42.5930 C   0  0  0  0  0  0  0  0  0  0  0  0
   43.6570   35.6800   41.3650 C   0  0  0  0  0  0  0  0  0  0  0  0
   43.8680   34.3940   40.8170 C   0  0  0  0  0  0  0  0  0  0  0  0
   44.6420   33.5180   41.5180 N   0  0  0  0  0  0  0  0  0  0  0  0
   45.1990   33.8410   42.7000 C   0  0  0  0  0  0  0  0  0  0  0  0
   45.0090   35.0740   43.2500 N   0  0  0  0  0  0  0  0  0  0  0  0
   45.9830   32.8350   43.3330 N   0  0  0  0  0  0  0  0  0  0  0  0
   46.7400   31.9180   42.6770 C   0  0  0  0  0  0  0  0  0  0  0  0
   47.3630   31.1070   43.5030 N   0  0  0  0  0  0  0  0  0  0  0  0
   47.0310   31.4680   44.7770 C   0  0  0  0  0  0  0  0  0  0  0  0
   47.3930   30.9670   45.9800 C   0  0  0  0  0  0  0  0  0  0  0  0
   48.1600   30.0060   46.0380 O   0  0  0  0  0  0  0  0  0  0  0  0
   46.8830   31.5590   47.0900 N   0  0  0  0  0  0  0  0  0  0  0  0
   46.0400   32.6180   46.9520 C   0  0  0  0  0  0  0  0  0  0  0  0
   45.5630   33.1770   48.1680 N   0  0  0  0  0  0  0  0  0  0  0  0
   45.6620   33.1400   45.7430 N   0  0  0  0  0  0  0  0  0  0  0  0
   46.1750   32.5420   44.6310 C   0  0  0  0  0  0  0  0  0  0  0  0
   47.2430   31.0560   48.3710 C   0  0  2  0  0  0  0  0  0  0  0  0
   46.0320   30.9870   49.2620 C   0  0  0  0  0  0  0  0  0  0  0  0
   48.4020   31.7590   49.0180 C   0  0  0  0  0  0  0  0  0  0  0  0
   49.3550   30.7980   49.6380 C   0  0  0  0  0  0  0  0  0  0  0  0
   50.2160   31.1940   50.6280 C   0  0  0  0  0  0  0  0  0  0  0  0
   51.1510   30.4340   51.2980 C   0  0  0  0  0  0  0  0  0  0  0  0
   51.1910   29.1010   50.8870 C   0  0  0  0  0  0  0  0  0  0  0  0
   50.3610   28.6160   49.8980 C   0  0  0  0  0  0  0  0  0  0  0  0
   49.4520   29.4540   49.2790 C   0  0  0  0  0  0  0  0  0  0  0  0
   44.0933   36.9849   43.0341 H   0  0  0  0  0  0  0  0  0  0  0  0
   43.0411   36.4218   40.8355 H   0  0  0  0  0  0  0  0  0  0  0  0
   43.4208   34.1088   39.8534 H   0  0  0  0  0  0  0  0  0  0  0  0
   46.8223   31.8605   41.5816 H   0  0  0  0  0  0  0  0  0  0  0  0
   44.9204   33.9817   48.1477 H   0  0  0  0  0  0  0  0  0  0  0  0
   45.8598   32.7776   49.0698 H   0  0  0  0  0  0  0  0  0  0  0  0
   47.6195   30.0350   48.2101 H   0  0  0  0  0  0  0  0  0  0  0  0
   46.3499   31.0051   50.3149 H   0  0  0  0  0  0  0  0  0  0  0  0
   45.3794   31.8494   49.0612 H   0  0  0  0  0  0  0  0  0  0  0  0
   45.4816   30.0560   49.0612 H   0  0  0  0  0  0  0  0  0  0  0  0
   48.9340   32.3455   48.2545 H   0  0  0  0  0  0  0  0  0  0  0  0
   48.0072   32.4097   49.8122 H   0  0  0  0  0  0  0  0  0  0  0  0
   50.1532   32.2512   50.9254 H   0  0  0  0  0  0  0  0  0  0  0  0
   51.8048   30.8406   52.0836 H   0  0  0  0  0  0  0  0  0  0  0  0
   51.9062   28.4163   51.3663 H   0  0  0  0  0  0  0  0  0  0  0  0
   50.4224   27.5587   49.6006 H   0  0  0  0  0  0  0  0  0  0  0  0
   48.7957   29.0547   48.4918 H   0  0  0  0  0  0  0  0  0  0  0  0
  1  6  2  0
  2  1  1  0
  3  2  2  0
  3  4  1  0
  4  5  2  0
  5  6  1  0
  5  7  1  0
  7 17  1  0
  8  7  1  0
  8  9  2  0
  9 10  1  0
 10 11  1  0
 11 12  2  0
 11 13  1  0
 13 18  1  0
 14 13  1  0
 14 15  1  0
 16 14  2  0
 17 10  2  0
 17 16  1  0
 18 20  1  0
 18 19  1  0
 20 21  1  0
 21 22  2  0
 22 23  1  0
 24 23  2  0
 25 24  1  0
 26 21  1  0
 26 25  2  0
  1 27  1  0
  2 28  1  0
  3 29  1  0
  8 30  1  0
 15 31  1  0
 15 32  1  0
 18 33  1  6
 19 34  1  0
 19 35  1  0
 19 36  1  0
 20 37  1  0
 20 38  1  0
 22 39  1  0
 23 40  1  0
 24 41  1  0
 25 42  1  0
 26 43  1  0
M  ISO  8  27  14  28  14  29  14  30  14  33   8  34   8  35   8  36   8
M  ISO  7  37   8  38   8  39  14  40  14  41  14  42  14  43  14
M  END
>  <minimizedAffinity>  (1) 
-5.98167801

>  <minimizedRMSD>  (1) 
1.6041429

$$$$
