
     RDKit          3D

 46 49  0  0  1  0  0  0  0  0999 V2000
   44.2800   35.9040   42.5160 C   0  0  0  0  0  0  0  0  0  0  0  0
   43.5970   35.6180   41.3240 C   0  0  0  0  0  0  0  0  0  0  0  0
   43.6340   34.2900   40.8420 C   0  0  0  0  0  0  0  0  0  0  0  0
   44.3280   33.3600   41.5590 N   0  0  0  0  0  0  0  0  0  0  0  0
   44.9690   33.6560   42.6870 C   0  0  0  0  0  0  0  0  0  0  0  0
   44.9530   34.9400   43.1850 N   0  0  0  0  0  0  0  0  0  0  0  0
   45.6560   32.6160   43.3470 N   0  0  0  0  0  0  0  0  0  0  0  0
   46.2790   31.5800   42.6980 C   0  0  0  0  0  0  0  0  0  0  0  0
   46.8480   30.7420   43.5370 N   0  0  0  0  0  0  0  0  0  0  0  0
   46.6260   31.1920   44.8040 C   0  0  0  0  0  0  0  0  0  0  0  0
   46.9830   30.7210   46.0230 C   0  0  0  0  0  0  0  0  0  0  0  0
   47.6450   29.6770   46.0960 O   0  0  0  0  0  0  0  0  0  0  0  0
   46.6010   31.4110   47.1150 N   0  0  0  0  0  0  0  0  0  0  0  0
   45.8740   32.5530   46.9590 C   0  0  0  0  0  0  0  0  0  0  0  0
   45.5170   33.2140   48.1640 N   0  0  0  0  0  0  0  0  0  0  0  0
   45.5020   33.0450   45.7360 N   0  0  0  0  0  0  0  0  0  0  0  0
   45.8910   32.3440   44.6450 C   0  0  0  0  0  0  0  0  0  0  0  0
   46.9670   30.9380   48.4110 C   0  0  2  0  0  0  0  0  0  0  0  0
   45.7640   30.9600   49.3270 C   0  0  0  0  0  0  0  0  0  0  0  0
   48.1810   31.5900   48.9980 C   0  0  0  0  0  0  0  0  0  0  0  0
   49.0390   30.6900   49.8230 C   0  0  0  0  0  0  0  0  0  0  0  0
   49.7300   29.6240   49.0100 C   0  0  0  0  0  0  0  0  0  0  0  0
   50.7990   29.1490   49.9950 C   0  0  0  0  0  0  0  0  0  0  0  0
   51.1190   30.3610   50.8430 C   0  0  0  0  0  0  0  0  0  0  0  0
   50.2270   31.4720   50.3400 C   0  0  0  0  0  0  0  0  0  0  0  0
   44.2679   36.9297   42.9132 H   0  0  0  0  0  0  0  0  0  0  0  0
   43.0498   36.4031   40.7816 H   0  0  0  0  0  0  0  0  0  0  0  0
   43.1161   34.0132   39.9119 H   0  0  0  0  0  0  0  0  0  0  0  0
   46.3001   31.4639   41.6043 H   0  0  0  0  0  0  0  0  0  0  0  0
   44.9672   34.0843   48.1306 H   0  0  0  0  0  0  0  0  0  0  0  0
   45.8079   32.8231   49.0715 H   0  0  0  0  0  0  0  0  0  0  0  0
   47.2899   29.8933   48.2911 H   0  0  0  0  0  0  0  0  0  0  0  0
   46.1004   30.9538   50.3743 H   0  0  0  0  0  0  0  0  0  0  0  0
   45.1747   31.8691   49.1365 H   0  0  0  0  0  0  0  0  0  0  0  0
   45.1418   30.0731   49.1365 H   0  0  0  0  0  0  0  0  0  0  0  0
   48.7920   31.9819   48.1715 H   0  0  0  0  0  0  0  0  0  0  0  0
   47.8133   32.3739   49.6765 H   0  0  0  0  0  0  0  0  0  0  0  0
   48.3624   30.2717   50.5827 H   0  0  0  0  0  0  0  0  0  0  0  0
   49.0397   28.8110   48.7407 H   0  0  0  0  0  0  0  0  0  0  0  0
   50.1271   29.9761   48.0465 H   0  0  0  0  0  0  0  0  0  0  0  0
   50.4119   28.3312   50.6205 H   0  0  0  0  0  0  0  0  0  0  0  0
   51.6896   28.7587   49.4807 H   0  0  0  0  0  0  0  0  0  0  0  0
   50.9082   30.1522   51.9022 H   0  0  0  0  0  0  0  0  0  0  0  0
   52.1819   30.6342   50.7684 H   0  0  0  0  0  0  0  0  0  0  0  0
   50.7123   32.0449   49.5361 H   0  0  0  0  0  0  0  0  0  0  0  0
   49.9733   32.2245   51.1011 H   0  0  0  0  0  0  0  0  0  0  0  0
  1  6  2  0
  2  1  1  0
  3  2  2  0
  3  4  1  0
  4  5  2  0
  5  6  1  0
  5  7  1  0
  7 17  1  0
  8  7  1  0
  8  9  2  0
  9 10  1  0
 10 11  1  0
 11 12  2  0
 11 13  1  0
 13 18  1  0
 14 13  1  0
 14 15  1  0
 16 14  2  0
 17 10  2  0
 17 16  1  0
 18 20  1  0
 18 19  1  0
 20 21  1  0
 21 25  1  0
 22 21  1  0
 22 23  1  0
 23 24  1  0
 25 24  1  0
  1 26  1  0
  2 27  1  0
  3 28  1  0
  8 29  1  0
 15 30  1  0
 15 31  1  0
 18 32  1  6
 19 33  1  0
 19 34  1  0
 19 35  1  0
 20 36  1  0
 20 37  1  0
 21 38  1  0
 22 39  1  0
 22 40  1  0
 23 41  1  0
 23 42  1  0
 24 43  1  0
 24 44  1  0
 25 45  1  0
 25 46  1  0
M  ISO  8  26  14  27  14  28  14  29  14  32   8  33   8  34   8  35   8
M  ISO  8  36   8  37   8  38  13  39  13  40  13  41  13  42  13  43  13
M  ISO  3  44  13  45  13  46  13
M  END
>  <minimizedAffinity>  (1) 
-5.85267782

>  <minimizedRMSD>  (1) 
0.772172272

$$$$
