
     RDKit          3D

 48 51  0  0  1  0  0  0  0  0999 V2000
   44.7940   36.0920   42.8260 C   0  0  0  0  0  0  0  0  0  0  0  0
   44.0510   35.9500   41.6520 C   0  0  0  0  0  0  0  0  0  0  0  0
   43.8630   34.6570   41.1690 C   0  0  0  0  0  0  0  0  0  0  0  0
   44.3990   33.6010   41.8420 N   0  0  0  0  0  0  0  0  0  0  0  0
   45.1090   33.7720   42.9690 C   0  0  0  0  0  0  0  0  0  0  0  0
   45.3170   35.0260   43.4790 N   0  0  0  0  0  0  0  0  0  0  0  0
   45.6220   32.6060   43.5930 N   0  0  0  0  0  0  0  0  0  0  0  0
   46.0400   31.5040   42.9210 C   0  0  0  0  0  0  0  0  0  0  0  0
   46.4710   30.5560   43.7310 N   0  0  0  0  0  0  0  0  0  0  0  0
   46.3450   31.0190   45.0120 C   0  0  0  0  0  0  0  0  0  0  0  0
   46.6360   30.4600   46.2090 C   0  0  0  0  0  0  0  0  0  0  0  0
   47.1030   29.3260   46.2650 O   0  0  0  0  0  0  0  0  0  0  0  0
   46.3960   31.1870   47.3190 N   0  0  0  0  0  0  0  0  0  0  0  0
   45.8730   32.4500   47.2030 C   0  0  0  0  0  0  0  0  0  0  0  0
   45.6600   33.1400   48.4230 N   0  0  0  0  0  0  0  0  0  0  0  0
   45.5770   33.0190   45.9910 N   0  0  0  0  0  0  0  0  0  0  0  0
   45.8220   32.2820   44.8860 C   0  0  0  0  0  0  0  0  0  0  0  0
   46.6870   30.6350   48.6110 C   0  0  2  0  0  0  0  0  0  0  0  0
   45.4670   30.7330   49.4890 C   0  0  0  0  0  0  0  0  0  0  0  0
   47.9280   31.1720   49.2480 C   0  0  0  0  0  0  0  0  0  0  0  0
   48.9950   30.2630   49.4020 N   0  0  0  0  0  0  0  0  0  0  0  0
   49.7580   30.3580   50.6140 C   0  0  0  0  0  0  0  0  0  0  0  0
   50.9520   31.2590   50.2630 C   0  0  0  0  0  0  0  0  0  0  0  0
   51.9240   30.4620   49.4170 C   0  0  0  0  0  0  0  0  0  0  0  0
   51.1710   29.4900   48.5300 C   0  0  0  0  0  0  0  0  0  0  0  0
   49.7500   29.9390   48.2410 C   0  0  0  0  0  0  0  0  0  0  0  0
   44.9598   37.1003   43.2332 H   0  0  0  0  0  0  0  0  0  0  0  0
   43.6316   36.8230   41.1304 H   0  0  0  0  0  0  0  0  0  0  0  0
   43.2845   34.4896   40.2485 H   0  0  0  0  0  0  0  0  0  0  0  0
   46.0216   31.4114   41.8251 H   0  0  0  0  0  0  0  0  0  0  0  0
   45.2698   34.0932   48.4142 H   0  0  0  0  0  0  0  0  0  0  0  0
   45.8955   32.6881   49.3181 H   0  0  0  0  0  0  0  0  0  0  0  0
   46.9270   29.5710   48.4682 H   0  0  0  0  0  0  0  0  0  0  0  0
   45.7726   30.7085   50.5454 H   0  0  0  0  0  0  0  0  0  0  0  0
   44.9406   31.6763   49.2814 H   0  0  0  0  0  0  0  0  0  0  0  0
   44.7968   29.8858   49.2814 H   0  0  0  0  0  0  0  0  0  0  0  0
   48.2868   32.0084   48.6302 H   0  0  0  0  0  0  0  0  0  0  0  0
   47.6343   31.4552   50.2695 H   0  0  0  0  0  0  0  0  0  0  0  0
   49.1554   30.8097   51.4158 H   0  0  0  0  0  0  0  0  0  0  0  0
   50.0785   29.3710   50.9787 H   0  0  0  0  0  0  0  0  0  0  0  0
   50.6018   32.1359   49.6988 H   0  0  0  0  0  0  0  0  0  0  0  0
   51.4475   31.6030   51.1828 H   0  0  0  0  0  0  0  0  0  0  0  0
   52.5076   31.1505   48.7882 H   0  0  0  0  0  0  0  0  0  0  0  0
   52.5964   29.8968   50.0791 H   0  0  0  0  0  0  0  0  0  0  0  0
   51.7104   29.3940   47.5761 H   0  0  0  0  0  0  0  0  0  0  0  0
   51.1135   28.5300   49.0639 H   0  0  0  0  0  0  0  0  0  0  0  0
   49.7936   30.8302   47.5977 H   0  0  0  0  0  0  0  0  0  0  0  0
   49.2416   29.0909   47.7590 H   0  0  0  0  0  0  0  0  0  0  0  0
  1  6  2  0
  2  1  1  0
  3  2  2  0
  3  4  1  0
  4  5  2  0
  5  6  1  0
  5  7  1  0
  7 17  1  0
  8  7  1  0
  8  9  2  0
  9 10  1  0
 10 11  1  0
 11 12  2  0
 11 13  1  0
 13 18  1  0
 14 13  1  0
 14 15  1  0
 16 14  2  0
 17 10  2  0
 17 16  1  0
 18 20  1  0
 18 19  1  0
 20 21  1  0
 21 22  1  0
 23 22  1  0
 24 23  1  0
 25 24  1  0
 26 25  1  0
 26 21  1  0
  1 27  1  0
  2 28  1  0
  3 29  1  0
  8 30  1  0
 15 31  1  0
 15 32  1  0
 18 33  1  6
 19 34  1  0
 19 35  1  0
 19 36  1  0
 20 37  1  0
 20 38  1  0
 22 39  1  0
 22 40  1  0
 23 41  1  0
 23 42  1  0
 24 43  1  0
 24 44  1  0
 25 45  1  0
 25 46  1  0
 26 47  1  0
 26 48  1  0
M  ISO  8  27  14  28  14  29  14  30  14  33   8  34   8  35   8  36   8
M  ISO  8  37   8  38   8  39  13  40  13  41  13  42  13  43  13  44  13
M  ISO  4  45  13  46  13  47  13  48  13
M  END
>  <minimizedAffinity>  (1) 
-5.72150946

>  <minimizedRMSD>  (1) 
0.8977229

$$$$
