
     RDKit          3D

 40 43  0  0  1  0  0  0  0  0999 V2000
   44.3400   35.9810   42.6570 C   0  0  0  0  0  0  0  0  0  0  0  0
   43.6190   35.7270   41.4650 C   0  0  0  0  0  0  0  0  0  0  0  0
   43.6310   34.4220   40.9780 C   0  0  0  0  0  0  0  0  0  0  0  0
   44.3210   33.4650   41.6530 N   0  0  0  0  0  0  0  0  0  0  0  0
   44.9970   33.7330   42.7840 C   0  0  0  0  0  0  0  0  0  0  0  0
   45.0140   34.9930   43.2990 N   0  0  0  0  0  0  0  0  0  0  0  0
   45.6770   32.6470   43.3970 N   0  0  0  0  0  0  0  0  0  0  0  0
   46.2530   31.6180   42.7250 C   0  0  0  0  0  0  0  0  0  0  0  0
   46.8120   30.7500   43.5380 N   0  0  0  0  0  0  0  0  0  0  0  0
   46.6180   31.1860   44.8170 C   0  0  0  0  0  0  0  0  0  0  0  0
   46.9840   30.6720   46.0190 C   0  0  0  0  0  0  0  0  0  0  0  0
   47.6160   29.6100   46.0550 O   0  0  0  0  0  0  0  0  0  0  0  0
   46.6330   31.3590   47.1350 N   0  0  0  0  0  0  0  0  0  0  0  0
   45.9410   32.5130   47.0120 C   0  0  0  0  0  0  0  0  0  0  0  0
   45.6220   33.1630   48.2350 N   0  0  0  0  0  0  0  0  0  0  0  0
   45.5620   33.0470   45.8080 N   0  0  0  0  0  0  0  0  0  0  0  0
   45.9120   32.3630   44.6900 C   0  0  0  0  0  0  0  0  0  0  0  0
   47.0060   30.8300   48.4020 C   0  0  2  0  0  0  0  0  0  0  0  0
   45.8270   30.8680   49.3390 C   0  0  0  0  0  0  0  0  0  0  0  0
   48.2290   31.4370   49.0060 C   0  0  0  0  0  0  0  0  0  0  0  0
   49.1350   30.4740   49.6220 C   0  0  0  0  0  0  0  0  0  0  0  0
   49.8950   30.3740   50.7870 C   0  0  0  0  0  0  0  0  0  0  0  0
   50.6320   29.2320   50.9540 C   0  0  0  0  0  0  0  0  0  0  0  0
   50.6460   28.2270   50.0520 C   0  0  0  0  0  0  0  0  0  0  0  0
   49.4610   28.8920   48.7040 S   0  0  0  0  0  0  0  0  0  0  0  0
   44.3542   36.9999   43.0712 H   0  0  0  0  0  0  0  0  0  0  0  0
   43.0720   36.5273   40.9450 H   0  0  0  0  0  0  0  0  0  0  0  0
   43.0873   34.1684   40.0560 H   0  0  0  0  0  0  0  0  0  0  0  0
   46.2520   31.5220   41.6292 H   0  0  0  0  0  0  0  0  0  0  0  0
   45.0957   34.0484   48.2257 H   0  0  0  0  0  0  0  0  0  0  0  0
   45.9171   32.7487   49.1306 H   0  0  0  0  0  0  0  0  0  0  0  0
   47.2995   29.7847   48.2251 H   0  0  0  0  0  0  0  0  0  0  0  0
   46.1848   30.8565   50.3791 H   0  0  0  0  0  0  0  0  0  0  0  0
   45.2466   31.7853   49.1610 H   0  0  0  0  0  0  0  0  0  0  0  0
   45.1887   29.9900   49.1610 H   0  0  0  0  0  0  0  0  0  0  0  0
   48.7773   31.9681   48.2139 H   0  0  0  0  0  0  0  0  0  0  0  0
   47.8854   32.1051   49.8095 H   0  0  0  0  0  0  0  0  0  0  0  0
   49.9021   31.1771   51.5387 H   0  0  0  0  0  0  0  0  0  0  0  0
   51.2405   29.1285   51.8645 H   0  0  0  0  0  0  0  0  0  0  0  0
   51.1953   27.2745   50.0837 H   0  0  0  0  0  0  0  0  0  0  0  0
  1  6  2  0
  2  1  1  0
  3  2  2  0
  3  4  1  0
  4  5  2  0
  5  6  1  0
  5  7  1  0
  7 17  1  0
  8  7  1  0
  8  9  2  0
  9 10  1  0
 10 11  1  0
 11 12  2  0
 11 13  1  0
 13 18  1  0
 14 13  1  0
 14 15  1  0
 16 14  2  0
 17 10  2  0
 17 16  1  0
 18 20  1  0
 18 19  1  0
 20 21  1  0
 21 22  2  0
 22 23  1  0
 24 23  2  0
 25 21  1  0
 25 24  1  0
  1 26  1  0
  2 27  1  0
  3 28  1  0
  8 29  1  0
 15 30  1  0
 15 31  1  0
 18 32  1  6
 19 33  1  0
 19 34  1  0
 19 35  1  0
 20 36  1  0
 20 37  1  0
 22 38  1  0
 23 39  1  0
 24 40  1  0
M  ISO  8  26  14  27  14  28  14  29  14  32   8  33   8  34   8  35   8
M  ISO  5  36   8  37   8  38  14  39  14  40  14
M  END
>  <minimizedAffinity>  (1) 
-5.70650816

>  <minimizedRMSD>  (1) 
1.49038935

$$$$
