
     RDKit          3D

 41 44  0  0  1  0  0  0  0  0999 V2000
   45.4250   36.0490   42.6110 C   0  0  0  0  0  0  0  0  0  0  0  0
   44.2460   36.1840   41.8440 C   0  0  0  0  0  0  0  0  0  0  0  0
   43.4130   35.0560   41.6950 C   0  0  0  0  0  0  0  0  0  0  0  0
   43.7820   33.8910   42.2970 N   0  0  0  0  0  0  0  0  0  0  0  0
   44.9010   33.7850   43.0190 C   0  0  0  0  0  0  0  0  0  0  0  0
   45.7430   34.8640   43.1880 N   0  0  0  0  0  0  0  0  0  0  0  0
   45.1870   32.5230   43.5950 N   0  0  0  0  0  0  0  0  0  0  0  0
   44.8790   31.3300   43.0150 C   0  0  0  0  0  0  0  0  0  0  0  0
   45.2540   30.3080   43.7520 N   0  0  0  0  0  0  0  0  0  0  0  0
   45.8420   30.7970   44.8820 C   0  0  0  0  0  0  0  0  0  0  0  0
   46.3970   30.1860   45.9560 C   0  0  0  0  0  0  0  0  0  0  0  0
   46.4200   28.9480   46.0140 O   0  0  0  0  0  0  0  0  0  0  0  0
   46.9100   30.9730   46.9350 N   0  0  0  0  0  0  0  0  0  0  0  0
   46.8490   32.3110   46.8060 C   0  0  0  0  0  0  0  0  0  0  0  0
   47.3940   33.0610   47.8850 N   0  0  0  0  0  0  0  0  0  0  0  0
   46.2930   32.9530   45.7280 N   0  0  0  0  0  0  0  0  0  0  0  0
   45.7790   32.1630   44.7450 C   0  0  0  0  0  0  0  0  0  0  0  0
   47.5060   30.3600   48.0760 C   0  0  2  0  0  0  0  0  0  0  0  0
   46.8140   30.8410   49.3370 C   0  0  0  0  0  0  0  0  0  0  0  0
   48.9840   30.3770   48.1260 C   0  0  0  0  0  0  0  0  0  0  0  0
   49.7030   30.6730   49.3280 C   0  0  0  0  0  0  0  0  0  0  0  0
   49.9990   29.6530   50.2420 C   0  0  0  0  0  0  0  0  0  0  0  0
   50.6930   29.8810   51.4270 C   0  0  0  0  0  0  0  0  0  0  0  0
   51.0690   31.1570   51.6440 N   0  0  0  0  0  0  0  0  0  0  0  0
   50.7850   32.1420   50.7650 C   0  0  0  0  0  0  0  0  0  0  0  0
   50.1160   31.9450   49.6160 N   0  0  0  0  0  0  0  0  0  0  0  0
   46.0917   36.9142   42.7413 H   0  0  0  0  0  0  0  0  0  0  0  0
   43.9847   37.1442   41.3752 H   0  0  0  0  0  0  0  0  0  0  0  0
   42.4860   35.1155   41.1058 H   0  0  0  0  0  0  0  0  0  0  0  0
   44.3747   31.2327   42.0423 H   0  0  0  0  0  0  0  0  0  0  0  0
   47.3817   34.0905   47.8546 H   0  0  0  0  0  0  0  0  0  0  0  0
   47.8009   32.5745   48.6966 H   0  0  0  0  0  0  0  0  0  0  0  0
   47.3277   29.2785   47.9834 H   0  0  0  0  0  0  0  0  0  0  0  0
   47.3547   30.4651   50.2181 H   0  0  0  0  0  0  0  0  0  0  0  0
   46.8053   31.9408   49.3537 H   0  0  0  0  0  0  0  0  0  0  0  0
   45.7801   30.4659   49.3537 H   0  0  0  0  0  0  0  0  0  0  0  0
   49.3134   29.3762   47.8098 H   0  0  0  0  0  0  0  0  0  0  0  0
   49.2244   31.2458   47.4957 H   0  0  0  0  0  0  0  0  0  0  0  0
   49.6690   28.6288   50.0135 H   0  0  0  0  0  0  0  0  0  0  0  0
   50.9194   29.0736   52.1389 H   0  0  0  0  0  0  0  0  0  0  0  0
   51.1198   33.1625   51.0026 H   0  0  0  0  0  0  0  0  0  0  0  0
  1  6  2  0
  2  1  1  0
  3  2  2  0
  3  4  1  0
  4  5  2  0
  5  6  1  0
  5  7  1  0
  7 17  1  0
  8  7  1  0
  8  9  2  0
  9 10  1  0
 10 11  1  0
 11 12  2  0
 11 13  1  0
 13 18  1  0
 14 13  1  0
 14 15  1  0
 16 14  2  0
 17 10  2  0
 17 16  1  0
 18 20  1  0
 18 19  1  0
 20 21  1  0
 21 26  1  0
 21 22  2  0
 22 23  1  0
 23 24  2  0
 25 24  1  0
 26 25  2  0
  1 27  1  0
  2 28  1  0
  3 29  1  0
  8 30  1  0
 15 31  1  0
 15 32  1  0
 18 33  1  6
 19 34  1  0
 19 35  1  0
 19 36  1  0
 20 37  1  0
 20 38  1  0
 22 39  1  0
 23 40  1  0
 25 41  1  0
M  ISO  8  27  14  28  14  29  14  30  14  33   8  34   8  35   8  36   8
M  ISO  5  37   8  38   8  39  14  40  14  41  14
M  END
>  <minimizedAffinity>  (1) 
-5.6051445

>  <minimizedRMSD>  (1) 
2.1870141

$$$$
