
     RDKit          3D

 40 43  0  0  1  0  0  0  0  0999 V2000
   44.1950   35.8340   42.4340 C   0  0  0  0  0  0  0  0  0  0  0  0
   43.6130   35.4790   41.2000 C   0  0  0  0  0  0  0  0  0  0  0  0
   43.8470   34.1780   40.7000 C   0  0  0  0  0  0  0  0  0  0  0  0
   44.6250   33.3360   41.4390 N   0  0  0  0  0  0  0  0  0  0  0  0
   45.1650   33.6910   42.6030 C   0  0  0  0  0  0  0  0  0  0  0  0
   44.9590   34.9510   43.1200 N   0  0  0  0  0  0  0  0  0  0  0  0
   45.9560   32.7310   43.2800 N   0  0  0  0  0  0  0  0  0  0  0  0
   46.7330   31.8030   42.6470 C   0  0  0  0  0  0  0  0  0  0  0  0
   47.3690   31.0300   43.4960 N   0  0  0  0  0  0  0  0  0  0  0  0
   47.0320   31.4230   44.7600 C   0  0  0  0  0  0  0  0  0  0  0  0
   47.3980   30.9740   45.9830 C   0  0  0  0  0  0  0  0  0  0  0  0
   48.1880   30.0240   46.0800 O   0  0  0  0  0  0  0  0  0  0  0  0
   46.8720   31.5980   47.0810 N   0  0  0  0  0  0  0  0  0  0  0  0
   46.0170   32.6270   46.8940 C   0  0  0  0  0  0  0  0  0  0  0  0
   45.5280   33.2160   48.0910 N   0  0  0  0  0  0  0  0  0  0  0  0
   45.6370   33.0940   45.6690 N   0  0  0  0  0  0  0  0  0  0  0  0
   46.1620   32.4720   44.5820 C   0  0  0  0  0  0  0  0  0  0  0  0
   47.2460   31.1370   48.3730 C   0  0  2  0  0  0  0  0  0  0  0  0
   46.0290   31.0450   49.2540 C   0  0  0  0  0  0  0  0  0  0  0  0
   48.3690   31.8940   49.0100 C   0  0  0  0  0  0  0  0  0  0  0  0
   49.3220   31.0350   49.6720 N   0  0  0  0  0  0  0  0  0  0  0  0
   49.4070   29.7140   49.3560 C   0  0  0  0  0  0  0  0  0  0  0  0
   50.3860   29.1470   50.1310 C   0  0  0  0  0  0  0  0  0  0  0  0
   50.8960   30.1180   50.9170 N   0  0  0  0  0  0  0  0  0  0  0  0
   50.2440   31.2510   50.6280 C   0  0  0  0  0  0  0  0  0  0  0  0
   44.0265   36.8405   42.8446 H   0  0  0  0  0  0  0  0  0  0  0  0
   42.9932   36.1956   40.6411 H   0  0  0  0  0  0  0  0  0  0  0  0
   43.4141   33.8537   39.7422 H   0  0  0  0  0  0  0  0  0  0  0  0
   46.8160   31.7139   41.5538 H   0  0  0  0  0  0  0  0  0  0  0  0
   44.8704   34.0074   48.0443 H   0  0  0  0  0  0  0  0  0  0  0  0
   45.8311   32.8516   49.0055 H   0  0  0  0  0  0  0  0  0  0  0  0
   47.6669   30.1296   48.2390 H   0  0  0  0  0  0  0  0  0  0  0  0
   46.3378   31.0683   50.3095 H   0  0  0  0  0  0  0  0  0  0  0  0
   45.3622   31.8953   49.0482 H   0  0  0  0  0  0  0  0  0  0  0  0
   45.4976   30.1041   49.0482 H   0  0  0  0  0  0  0  0  0  0  0  0
   48.8940   32.4651   48.2301 H   0  0  0  0  0  0  0  0  0  0  0  0
   47.9311   32.5521   49.7750 H   0  0  0  0  0  0  0  0  0  0  0  0
   48.7949   29.1905   48.6068 H   0  0  0  0  0  0  0  0  0  0  0  0
   50.6986   28.0925   50.1148 H   0  0  0  0  0  0  0  0  0  0  0  0
   50.4354   32.2232   51.1056 H   0  0  0  0  0  0  0  0  0  0  0  0
  1  6  2  0
  2  1  1  0
  3  2  2  0
  3  4  1  0
  4  5  2  0
  5  6  1  0
  5  7  1  0
  7 17  1  0
  8  7  1  0
  8  9  2  0
  9 10  1  0
 10 11  1  0
 11 12  2  0
 11 13  1  0
 13 18  1  0
 14 13  1  0
 14 15  1  0
 16 14  2  0
 17 10  2  0
 17 16  1  0
 18 20  1  0
 18 19  1  0
 20 21  1  0
 21 25  1  0
 22 21  1  0
 22 23  2  0
 23 24  1  0
 25 24  2  0
  1 26  1  0
  2 27  1  0
  3 28  1  0
  8 29  1  0
 15 30  1  0
 15 31  1  0
 18 32  1  6
 19 33  1  0
 19 34  1  0
 19 35  1  0
 20 36  1  0
 20 37  1  0
 22 38  1  0
 23 39  1  0
 25 40  1  0
M  ISO  8  26  14  27  14  28  14  29  14  32   8  33   8  34   8  35   8
M  ISO  5  36   8  37   8  38  14  39  14  40  14
M  END
>  <minimizedAffinity>  (1) 
-5.59942579

>  <minimizedRMSD>  (1) 
1.34151685

$$$$
