
     RDKit          3D

 34 36  0  0  1  0  0  0  0  0999 V2000
   44.4940   35.9320   42.6530 C   0  0  0  0  0  0  0  0  0  0  0  0
   43.7790   35.7020   41.4750 C   0  0  0  0  0  0  0  0  0  0  0  0
   43.6750   34.3770   40.9970 C   0  0  0  0  0  0  0  0  0  0  0  0
   44.2860   33.3920   41.7230 N   0  0  0  0  0  0  0  0  0  0  0  0
   44.9600   33.6240   42.8390 C   0  0  0  0  0  0  0  0  0  0  0  0
   45.0720   34.9010   43.3180 N   0  0  0  0  0  0  0  0  0  0  0  0
   45.5480   32.5230   43.5010 N   0  0  0  0  0  0  0  0  0  0  0  0
   46.0430   31.4200   42.8520 C   0  0  0  0  0  0  0  0  0  0  0  0
   46.5360   30.5360   43.6950 N   0  0  0  0  0  0  0  0  0  0  0  0
   46.3850   31.0260   44.9570 C   0  0  0  0  0  0  0  0  0  0  0  0
   46.7170   30.5270   46.1710 C   0  0  0  0  0  0  0  0  0  0  0  0
   47.2650   29.4220   46.2530 O   0  0  0  0  0  0  0  0  0  0  0  0
   46.4300   31.2710   47.2650 N   0  0  0  0  0  0  0  0  0  0  0  0
   45.8250   32.4820   47.1070 C   0  0  0  0  0  0  0  0  0  0  0  0
   45.5680   33.1910   48.3100 N   0  0  0  0  0  0  0  0  0  0  0  0
   45.4840   33.0000   45.8860 N   0  0  0  0  0  0  0  0  0  0  0  0
   45.7740   32.2480   44.7900 C   0  0  0  0  0  0  0  0  0  0  0  0
   46.7670   30.7750   48.5600 C   0  0  2  0  0  0  0  0  0  0  0  0
   45.5710   30.8880   49.4820 C   0  0  0  0  0  0  0  0  0  0  0  0
   48.0310   31.3380   49.1390 C   0  0  0  0  0  0  0  0  0  0  0  0
   48.6100   30.4360   50.0580 O   0  0  0  0  0  0  0  0  0  0  0  0
   44.5888   36.9559   43.0437 H   0  0  0  0  0  0  0  0  0  0  0  0
   43.3075   36.5343   40.9319 H   0  0  0  0  0  0  0  0  0  0  0  0
   43.1226   34.1457   40.0743 H   0  0  0  0  0  0  0  0  0  0  0  0
   46.0297   31.2897   41.7598 H   0  0  0  0  0  0  0  0  0  0  0  0
   45.1131   34.1145   48.2764 H   0  0  0  0  0  0  0  0  0  0  0  0
   45.8364   32.7818   49.2163 H   0  0  0  0  0  0  0  0  0  0  0  0
   47.0119   29.7090   48.4432 H   0  0  0  0  0  0  0  0  0  0  0  0
   45.9100   30.8560   50.5280 H   0  0  0  0  0  0  0  0  0  0  0  0
   45.0516   31.8392   49.2939 H   0  0  0  0  0  0  0  0  0  0  0  0
   44.8826   30.0509   49.2939 H   0  0  0  0  0  0  0  0  0  0  0  0
   48.7453   31.5308   48.3250 H   0  0  0  0  0  0  0  0  0  0  0  0
   47.7897   32.2719   49.6679 H   0  0  0  0  0  0  0  0  0  0  0  0
   48.4171   30.7365   50.9814 H   0  0  0  0  0  0  0  0  0  0  0  0
  1  6  2  0
  2  1  1  0
  3  2  2  0
  3  4  1  0
  4  5  2  0
  5  6  1  0
  5  7  1  0
  7 17  1  0
  8  7  1  0
  8  9  2  0
  9 10  1  0
 10 11  1  0
 11 12  2  0
 11 13  1  0
 13 18  1  0
 14 13  1  0
 14 15  1  0
 16 14  2  0
 17 10  2  0
 17 16  1  0
 18 20  1  0
 18 19  1  0
 20 21  1  0
  1 22  1  0
  2 23  1  0
  3 24  1  0
  8 25  1  0
 15 26  1  0
 15 27  1  0
 18 28  1  6
 19 29  1  0
 19 30  1  0
 19 31  1  0
 20 32  1  0
 20 33  1  0
 21 34  1  0
M  ISO  8  22  14  23  14  24  14  25  14  28   8  29   8  30   8  31   8
M  ISO  3  32   8  33   8  34   3
M  END
>  <minimizedAffinity>  (1) 
-5.4138999

>  <minimizedRMSD>  (1) 
0.125350207

$$$$
