
     RDKit          3D

 35 37  0  0  1  0  0  0  0  0999 V2000
   44.4540   35.9490   42.6200 C   0  0  0  0  0  0  0  0  0  0  0  0
   43.7430   35.7000   41.4210 C   0  0  0  0  0  0  0  0  0  0  0  0
   43.6990   34.3870   40.9540 C   0  0  0  0  0  0  0  0  0  0  0  0
   44.3370   33.4150   41.6650 N   0  0  0  0  0  0  0  0  0  0  0  0
   45.0030   33.6680   42.7920 C   0  0  0  0  0  0  0  0  0  0  0  0
   45.0670   34.9410   43.2790 N   0  0  0  0  0  0  0  0  0  0  0  0
   45.6300   32.5850   43.4510 N   0  0  0  0  0  0  0  0  0  0  0  0
   46.1850   31.5150   42.8020 C   0  0  0  0  0  0  0  0  0  0  0  0
   46.7060   30.6450   43.6370 N   0  0  0  0  0  0  0  0  0  0  0  0
   46.5130   31.1120   44.9040 C   0  0  0  0  0  0  0  0  0  0  0  0
   46.8470   30.6190   46.1200 C   0  0  0  0  0  0  0  0  0  0  0  0
   47.4460   29.5370   46.2010 O   0  0  0  0  0  0  0  0  0  0  0  0
   46.5110   31.3310   47.2140 N   0  0  0  0  0  0  0  0  0  0  0  0
   45.8520   32.5160   47.0620 C   0  0  0  0  0  0  0  0  0  0  0  0
   45.5380   33.1980   48.2670 N   0  0  0  0  0  0  0  0  0  0  0  0
   45.5060   33.0340   45.8440 N   0  0  0  0  0  0  0  0  0  0  0  0
   45.8490   32.3050   44.7420 C   0  0  0  0  0  0  0  0  0  0  0  0
   46.8510   30.8380   48.5130 C   0  0  2  0  0  0  0  0  0  0  0  0
   45.6530   30.9150   49.4260 C   0  0  0  0  0  0  0  0  0  0  0  0
   48.0930   31.4380   49.1030 C   0  0  0  0  0  0  0  0  0  0  0  0
   48.7120   30.4300   49.9580 N   0  0  0  0  0  0  0  0  0  0  0  0
   44.5078   36.9727   43.0188 H   0  0  0  0  0  0  0  0  0  0  0  0
   43.2426   36.5145   40.8767 H   0  0  0  0  0  0  0  0  0  0  0  0
   43.1589   34.1400   40.0281 H   0  0  0  0  0  0  0  0  0  0  0  0
   46.1937   31.3974   41.7083 H   0  0  0  0  0  0  0  0  0  0  0  0
   45.0408   34.0995   48.2340 H   0  0  0  0  0  0  0  0  0  0  0  0
   45.8074   32.7913   49.1742 H   0  0  0  0  0  0  0  0  0  0  0  0
   47.1227   29.7789   48.3925 H   0  0  0  0  0  0  0  0  0  0  0  0
   45.9883   30.8935   50.4734 H   0  0  0  0  0  0  0  0  0  0  0  0
   45.1061   31.8501   49.2352 H   0  0  0  0  0  0  0  0  0  0  0  0
   44.9909   30.0576   49.2352 H   0  0  0  0  0  0  0  0  0  0  0  0
   48.7877   31.7255   48.3000 H   0  0  0  0  0  0  0  0  0  0  0  0
   47.8459   32.3375   49.6860 H   0  0  0  0  0  0  0  0  0  0  0  0
   48.5599   30.6776   50.9462 H   0  0  0  0  0  0  0  0  0  0  0  0
   48.2898   29.5104   49.7656 H   0  0  0  0  0  0  0  0  0  0  0  0
  1  6  2  0
  2  1  1  0
  3  2  2  0
  3  4  1  0
  4  5  2  0
  5  6  1  0
  5  7  1  0
  7 17  1  0
  8  7  1  0
  8  9  2  0
  9 10  1  0
 10 11  1  0
 11 12  2  0
 11 13  1  0
 13 18  1  0
 14 13  1  0
 14 15  1  0
 16 14  2  0
 17 10  2  0
 17 16  1  0
 18 20  1  0
 18 19  1  0
 20 21  1  0
  1 22  1  0
  2 23  1  0
  3 24  1  0
  8 25  1  0
 15 26  1  0
 15 27  1  0
 18 28  1  6
 19 29  1  0
 19 30  1  0
 19 31  1  0
 20 32  1  0
 20 33  1  0
 21 34  1  0
 21 35  1  0
M  ISO  8  22  14  23  14  24  14  25  14  28   8  29   8  30   8  31   8
M  ISO  4  32   8  33   8  34   5  35   5
M  END
>  <minimizedAffinity>  (1) 
-5.42784929

>  <minimizedRMSD>  (1) 
0.206139699

$$$$
