
     RDKit          3D

 42 45  0  0  1  0  0  0  0  0999 V2000
   44.4660   35.9780   42.6260 C   0  0  0  0  0  0  0  0  0  0  0  0
   43.7710   35.7410   41.4270 C   0  0  0  0  0  0  0  0  0  0  0  0
   43.7230   34.4260   40.9390 C   0  0  0  0  0  0  0  0  0  0  0  0
   44.3510   33.4520   41.6550 N   0  0  0  0  0  0  0  0  0  0  0  0
   45.0040   33.6930   42.7870 C   0  0  0  0  0  0  0  0  0  0  0  0
   45.0640   34.9580   43.2790 N   0  0  0  0  0  0  0  0  0  0  0  0
   45.6200   32.5990   43.4450 N   0  0  0  0  0  0  0  0  0  0  0  0
   46.1630   31.5290   42.7960 C   0  0  0  0  0  0  0  0  0  0  0  0
   46.6730   30.6480   43.6290 N   0  0  0  0  0  0  0  0  0  0  0  0
   46.4770   31.1240   44.8990 C   0  0  0  0  0  0  0  0  0  0  0  0
   46.8050   30.6160   46.1000 C   0  0  0  0  0  0  0  0  0  0  0  0
   47.3960   29.5200   46.1950 O   0  0  0  0  0  0  0  0  0  0  0  0
   46.4820   31.3130   47.2020 N   0  0  0  0  0  0  0  0  0  0  0  0
   45.8380   32.5030   47.0530 C   0  0  0  0  0  0  0  0  0  0  0  0
   45.5180   33.2070   48.2540 N   0  0  0  0  0  0  0  0  0  0  0  0
   45.4940   33.0400   45.8410 N   0  0  0  0  0  0  0  0  0  0  0  0
   45.8300   32.3180   44.7390 C   0  0  0  0  0  0  0  0  0  0  0  0
   46.8060   30.8190   48.5150 C   0  0  2  0  0  0  0  0  0  0  0  0
   45.6070   30.9590   49.4220 C   0  0  0  0  0  0  0  0  0  0  0  0
   48.0690   31.3760   49.0800 C   0  0  0  0  0  0  0  0  0  0  0  0
   48.6690   30.3540   49.9260 N   0  0  0  0  0  0  0  0  0  0  0  0
   49.8950   30.8320   50.4910 C   0  0  0  0  0  0  0  0  0  0  0  0
   50.7270   31.9400   50.5180 C   0  0  0  0  0  0  0  0  0  0  0  0
   51.7980   31.6130   51.3490 C   0  0  0  0  0  0  0  0  0  0  0  0
   51.6030   30.3590   51.7930 N   0  0  0  0  0  0  0  0  0  0  0  0
   50.4680   29.8850   51.2850 N   0  0  0  0  0  0  0  0  0  0  0  0
   44.5230   36.9980   43.0338 H   0  0  0  0  0  0  0  0  0  0  0  0
   43.2788   36.5630   40.8867 H   0  0  0  0  0  0  0  0  0  0  0  0
   43.1932   34.1885   40.0047 H   0  0  0  0  0  0  0  0  0  0  0  0
   46.1732   31.4160   41.7019 H   0  0  0  0  0  0  0  0  0  0  0  0
   45.0307   34.1131   48.2055 H   0  0  0  0  0  0  0  0  0  0  0  0
   45.7746   32.8085   49.1685 H   0  0  0  0  0  0  0  0  0  0  0  0
   47.0343   29.7467   48.4255 H   0  0  0  0  0  0  0  0  0  0  0  0
   45.9346   30.9207   50.4714 H   0  0  0  0  0  0  0  0  0  0  0  0
   45.1106   31.9212   49.2277 H   0  0  0  0  0  0  0  0  0  0  0  0
   44.9023   30.1370   49.2277 H   0  0  0  0  0  0  0  0  0  0  0  0
   48.7592   31.6391   48.2648 H   0  0  0  0  0  0  0  0  0  0  0  0
   47.8598   32.2838   49.6650 H   0  0  0  0  0  0  0  0  0  0  0  0
   48.2686   29.4200   50.0942 H   0  0  0  0  0  0  0  0  0  0  0  0
   50.5727   32.8913   49.9877 H   0  0  0  0  0  0  0  0  0  0  0  0
   52.6494   32.2640   51.5967 H   0  0  0  0  0  0  0  0  0  0  0  0
   52.2328   29.8461   52.4264 H   0  0  0  0  0  0  0  0  0  0  0  0
  1  6  2  0
  2  1  1  0
  3  2  2  0
  3  4  1  0
  4  5  2  0
  5  6  1  0
  5  7  1  0
  7 17  1  0
  8  7  1  0
  8  9  2  0
  9 10  1  0
 10 11  1  0
 11 12  2  0
 11 13  1  0
 13 18  1  0
 14 13  1  0
 14 15  1  0
 16 14  2  0
 17 10  2  0
 17 16  1  0
 18 20  1  0
 18 19  1  0
 20 21  1  0
 21 22  1  0
 22 23  1  0
 22 26  2  0
 23 24  2  0
 24 25  1  0
 26 25  1  0
  1 27  1  0
  2 28  1  0
  3 29  1  0
  8 30  1  0
 15 31  1  0
 15 32  1  0
 18 33  1  6
 19 34  1  0
 19 35  1  0
 19 36  1  0
 20 37  1  0
 20 38  1  0
 21 39  1  0
 23 40  1  0
 24 41  1  0
 25 42  1  0
M  ISO  8  27  14  28  14  29  14  30  14  33   8  34   8  35   8  36   8
M  ISO  5  37   8  38   8  40  14  41  14  42   9
M  END
>  <minimizedAffinity>  (1) 
-6.42130947

>  <minimizedRMSD>  (1) 
0.0893280357

$$$$
