
     RDKit          3D

 45 48  0  0  1  0  0  0  0  0999 V2000
   44.5320   35.9590   42.6710 C   0  0  0  0  0  0  0  0  0  0  0  0
   43.8030   35.7330   41.4740 C   0  0  0  0  0  0  0  0  0  0  0  0
   43.7000   34.4280   41.0190 C   0  0  0  0  0  0  0  0  0  0  0  0
   44.2960   33.4300   41.7330 N   0  0  0  0  0  0  0  0  0  0  0  0
   44.9740   33.6480   42.8500 C   0  0  0  0  0  0  0  0  0  0  0  0
   45.0990   34.9290   43.3350 N   0  0  0  0  0  0  0  0  0  0  0  0
   45.5540   32.5540   43.5200 N   0  0  0  0  0  0  0  0  0  0  0  0
   46.0590   31.4510   42.8730 C   0  0  0  0  0  0  0  0  0  0  0  0
   46.5470   30.5660   43.7130 N   0  0  0  0  0  0  0  0  0  0  0  0
   46.3810   31.0600   44.9770 C   0  0  0  0  0  0  0  0  0  0  0  0
   46.7030   30.5560   46.1820 C   0  0  0  0  0  0  0  0  0  0  0  0
   47.2590   29.4420   46.2790 O   0  0  0  0  0  0  0  0  0  0  0  0
   46.4140   31.2810   47.2860 N   0  0  0  0  0  0  0  0  0  0  0  0
   45.8100   32.4840   47.1270 C   0  0  0  0  0  0  0  0  0  0  0  0
   45.5290   33.2080   48.3210 N   0  0  0  0  0  0  0  0  0  0  0  0
   45.4710   33.0220   45.9160 N   0  0  0  0  0  0  0  0  0  0  0  0
   45.7730   32.2720   44.8120 C   0  0  0  0  0  0  0  0  0  0  0  0
   46.7390   30.7830   48.5930 C   0  0  2  0  0  0  0  0  0  0  0  0
   45.5390   30.9220   49.4960 C   0  0  0  0  0  0  0  0  0  0  0  0
   48.0070   31.3320   49.1550 C   0  0  0  0  0  0  0  0  0  0  0  0
   48.6900   30.2560   49.8560 N   0  0  0  0  0  0  0  0  0  0  0  0
   49.8830   30.5680   50.5670 C   0  0  0  0  0  0  0  0  0  0  0  0
   50.4890   29.6630   51.4130 C   0  0  0  0  0  0  0  0  0  0  0  0
   51.6460   29.9000   52.1330 C   0  0  0  0  0  0  0  0  0  0  0  0
   52.2210   31.1650   51.9670 C   0  0  0  0  0  0  0  0  0  0  0  0
   51.6460   32.0980   51.1290 C   0  0  0  0  0  0  0  0  0  0  0  0
   50.4900   31.8000   50.4390 C   0  0  0  0  0  0  0  0  0  0  0  0
   44.6359   36.9823   43.0610 H   0  0  0  0  0  0  0  0  0  0  0  0
   43.3360   36.5650   40.9265 H   0  0  0  0  0  0  0  0  0  0  0  0
   43.1461   34.2004   40.0963 H   0  0  0  0  0  0  0  0  0  0  0  0
   46.0550   31.3242   41.7803 H   0  0  0  0  0  0  0  0  0  0  0  0
   45.0710   34.1291   48.2690 H   0  0  0  0  0  0  0  0  0  0  0  0
   45.7838   32.8104   49.2364 H   0  0  0  0  0  0  0  0  0  0  0  0
   46.9675   29.7105   48.5063 H   0  0  0  0  0  0  0  0  0  0  0  0
   45.8641   30.8843   50.5462 H   0  0  0  0  0  0  0  0  0  0  0  0
   45.0422   31.8837   49.3002 H   0  0  0  0  0  0  0  0  0  0  0  0
   44.8355   30.0993   49.3002 H   0  0  0  0  0  0  0  0  0  0  0  0
   48.6431   31.7105   48.3413 H   0  0  0  0  0  0  0  0  0  0  0  0
   47.7921   32.1618   49.8444 H   0  0  0  0  0  0  0  0  0  0  0  0
   48.3205   29.2947   49.8384 H   0  0  0  0  0  0  0  0  0  0  0  0
   50.0156   28.6763   51.5238 H   0  0  0  0  0  0  0  0  0  0  0  0
   52.0871   29.1407   52.7955 H   0  0  0  0  0  0  0  0  0  0  0  0
   53.1427   31.4185   52.5113 H   0  0  0  0  0  0  0  0  0  0  0  0
   52.1131   33.0868   51.0104 H   0  0  0  0  0  0  0  0  0  0  0  0
   50.0449   32.5566   49.7761 H   0  0  0  0  0  0  0  0  0  0  0  0
  1  6  2  0
  2  1  1  0
  3  2  2  0
  3  4  1  0
  4  5  2  0
  5  6  1  0
  5  7  1  0
  7 17  1  0
  8  7  1  0
  8  9  2  0
  9 10  1  0
 10 11  1  0
 11 12  2  0
 11 13  1  0
 13 18  1  0
 14 13  1  0
 14 15  1  0
 16 14  2  0
 17 10  2  0
 17 16  1  0
 18 20  1  0
 18 19  1  0
 20 21  1  0
 21 22  1  0
 22 23  2  0
 23 24  1  0
 25 24  2  0
 26 25  1  0
 27 22  1  0
 27 26  2  0
  1 28  1  0
  2 29  1  0
  3 30  1  0
  8 31  1  0
 15 32  1  0
 15 33  1  0
 18 34  1  6
 19 35  1  0
 19 36  1  0
 19 37  1  0
 20 38  1  0
 20 39  1  0
 21 40  1  0
 23 41  1  0
 24 42  1  0
 25 43  1  0
 26 44  1  0
 27 45  1  0
M  ISO  8  28  14  29  14  30  14  31  14  34   8  35   8  36   8  37   8
M  ISO  7  38   8  39   8  41  14  42  14  43  14  44  14  45  14
M  END
>  <minimizedAffinity>  (1) 
-6.3751092

>  <minimizedRMSD>  (1) 
0.292277902

$$$$
