
     RDKit          3D

 42 45  0  0  1  0  0  0  0  0999 V2000
   44.4920   35.9370   42.6780 C   0  0  0  0  0  0  0  0  0  0  0  0
   43.7810   35.6980   41.4690 C   0  0  0  0  0  0  0  0  0  0  0  0
   43.7190   34.3930   41.0090 C   0  0  0  0  0  0  0  0  0  0  0  0
   44.3340   33.4220   41.7290 N   0  0  0  0  0  0  0  0  0  0  0  0
   44.9970   33.6530   42.8570 C   0  0  0  0  0  0  0  0  0  0  0  0
   45.0780   34.9240   43.3390 N   0  0  0  0  0  0  0  0  0  0  0  0
   45.5970   32.5620   43.5180 N   0  0  0  0  0  0  0  0  0  0  0  0
   46.1290   31.4670   42.8770 C   0  0  0  0  0  0  0  0  0  0  0  0
   46.6250   30.5950   43.7150 N   0  0  0  0  0  0  0  0  0  0  0  0
   46.4440   31.0790   44.9830 C   0  0  0  0  0  0  0  0  0  0  0  0
   46.7700   30.5750   46.2010 C   0  0  0  0  0  0  0  0  0  0  0  0
   47.3400   29.4830   46.2940 O   0  0  0  0  0  0  0  0  0  0  0  0
   46.4600   31.2890   47.2890 N   0  0  0  0  0  0  0  0  0  0  0  0
   45.8290   32.4960   47.1360 C   0  0  0  0  0  0  0  0  0  0  0  0
   45.5320   33.2040   48.3240 N   0  0  0  0  0  0  0  0  0  0  0  0
   45.4900   33.0220   45.9160 N   0  0  0  0  0  0  0  0  0  0  0  0
   45.8150   32.2780   44.8110 C   0  0  0  0  0  0  0  0  0  0  0  0
   46.7820   30.7990   48.5890 C   0  0  2  0  0  0  0  0  0  0  0  0
   45.5820   30.9280   49.5060 C   0  0  0  0  0  0  0  0  0  0  0  0
   48.0470   31.3690   49.1610 C   0  0  0  0  0  0  0  0  0  0  0  0
   48.7580   30.3250   49.8640 N   0  0  0  0  0  0  0  0  0  0  0  0
   49.8480   30.2940   50.7470 C   0  0  0  0  0  0  0  0  0  0  0  0
   50.5520   29.3260   51.4740 C   0  0  0  0  0  0  0  0  0  0  0  0
   51.5320   30.0240   52.1470 C   0  0  0  0  0  0  0  0  0  0  0  0
   51.4090   31.3590   51.8260 C   0  0  0  0  0  0  0  0  0  0  0  0
   50.3980   31.4560   50.9970 O   0  0  0  0  0  0  0  0  0  0  0  0
   44.5628   36.9603   43.0754 H   0  0  0  0  0  0  0  0  0  0  0  0
   43.2982   36.5196   40.9197 H   0  0  0  0  0  0  0  0  0  0  0  0
   43.1827   34.1494   40.0800 H   0  0  0  0  0  0  0  0  0  0  0  0
   46.1361   31.3399   41.7844 H   0  0  0  0  0  0  0  0  0  0  0  0
   45.0583   34.1173   48.2745 H   0  0  0  0  0  0  0  0  0  0  0  0
   45.7894   32.8063   49.2386 H   0  0  0  0  0  0  0  0  0  0  0  0
   47.0132   29.7281   48.4903 H   0  0  0  0  0  0  0  0  0  0  0  0
   45.9155   30.8921   50.5536 H   0  0  0  0  0  0  0  0  0  0  0  0
   45.0758   31.8857   49.3149 H   0  0  0  0  0  0  0  0  0  0  0  0
   44.8838   30.0997   49.3149 H   0  0  0  0  0  0  0  0  0  0  0  0
   48.6759   31.7603   48.3478 H   0  0  0  0  0  0  0  0  0  0  0  0
   47.8052   32.1867   49.8559 H   0  0  0  0  0  0  0  0  0  0  0  0
   48.3764   29.3876   49.6725 H   0  0  0  0  0  0  0  0  0  0  0  0
   50.3637   28.2426   51.5020 H   0  0  0  0  0  0  0  0  0  0  0  0
   52.2829   29.5903   52.8237 H   0  0  0  0  0  0  0  0  0  0  0  0
   52.0375   32.1833   52.1942 H   0  0  0  0  0  0  0  0  0  0  0  0
  1  6  2  0
  2  1  1  0
  3  2  2  0
  3  4  1  0
  4  5  2  0
  5  6  1  0
  5  7  1  0
  7 17  1  0
  8  7  1  0
  8  9  2  0
  9 10  1  0
 10 11  1  0
 11 12  2  0
 11 13  1  0
 13 18  1  0
 14 13  1  0
 14 15  1  0
 16 14  2  0
 17 10  2  0
 17 16  1  0
 18 20  1  0
 18 19  1  0
 20 21  1  0
 21 22  1  0
 22 26  1  0
 22 23  2  0
 23 24  1  0
 25 24  2  0
 26 25  1  0
  1 27  1  0
  2 28  1  0
  3 29  1  0
  8 30  1  0
 15 31  1  0
 15 32  1  0
 18 33  1  6
 19 34  1  0
 19 35  1  0
 19 36  1  0
 20 37  1  0
 20 38  1  0
 21 39  1  0
 23 40  1  0
 24 41  1  0
 25 42  1  0
M  ISO  8  27  14  28  14  29  14  30  14  33   8  34   8  35   8  36   8
M  ISO  5  37   8  38   8  40  14  41  14  42  14
M  END
>  <minimizedAffinity>  (1) 
-6.21567297

>  <minimizedRMSD>  (1) 
1.61031067

$$$$
