
     RDKit          3D

 37 38  0  0  1  0  0  0  0  0999 V2000
   48.2180   33.0780   42.1610 N   0  0  0  0  0  0  0  0  0  0  0  0
   48.6150   31.7340   42.2050 C   0  0  0  0  0  0  0  0  0  0  0  0
   49.9970   31.4680   41.7110 C   0  0  0  0  0  0  0  0  0  0  0  0
   50.9980   32.5150   41.9510 C   0  0  0  0  0  0  0  0  0  0  0  0
   50.4350   33.8630   42.2780 C   0  0  0  0  0  0  0  0  0  0  0  0
   49.1100   33.9990   41.5840 C   0  0  2  0  0  0  0  0  0  0  0  0
   48.7310   35.4220   41.5570 C   0  0  0  0  0  0  0  0  0  0  0  0
   49.5620   36.2710   42.2380 F   0  0  0  0  0  0  0  0  0  0  0  0
   48.8010   35.8430   40.2200 F   0  0  0  0  0  0  0  0  0  0  0  0
   47.3940   35.6260   41.9060 F   0  0  0  0  0  0  0  0  0  0  0  0
   47.7720   33.4880   43.4520 C   0  0  0  0  0  0  0  0  0  0  0  0
   46.5430   32.7470   43.9450 C   0  0  1  0  0  0  0  0  0  0  0  0
   46.5430   33.0500   46.4830 C   0  0  0  0  0  0  0  0  0  0  0  0
   46.7940   32.2900   45.3130 C   0  0  0  0  0  0  0  0  0  0  0  0
   47.3320   31.0160   45.4890 C   0  0  0  0  0  0  0  0  0  0  0  0
   47.5920   30.5580   46.7370 N   0  0  0  0  0  0  0  0  0  0  0  0
   47.3430   31.3060   47.8360 C   0  0  0  0  0  0  0  0  0  0  0  0
   46.8110   32.5690   47.7000 N   0  0  0  0  0  0  0  0  0  0  0  0
   45.3770   33.7170   43.9260 C   0  0  0  0  0  0  0  0  0  0  0  0
   48.5549   31.3945   43.2496 H   0  0  0  0  0  0  0  0  0  0  0  0
   47.9375   31.1913   41.5294 H   0  0  0  0  0  0  0  0  0  0  0  0
   49.9370   31.3075   40.6244 H   0  0  0  0  0  0  0  0  0  0  0  0
   50.3463   30.5980   42.2865 H   0  0  0  0  0  0  0  0  0  0  0  0
   51.6310   32.1960   42.7921 H   0  0  0  0  0  0  0  0  0  0  0  0
   51.5527   32.6330   41.0085 H   0  0  0  0  0  0  0  0  0  0  0  0
   50.2970   33.9551   43.3654 H   0  0  0  0  0  0  0  0  0  0  0  0
   51.1225   34.6535   41.9427 H   0  0  0  0  0  0  0  0  0  0  0  0
   49.1219   33.7240   40.5190 H   0  0  0  0  0  0  0  0  0  0  0  0
   48.5885   33.3194   44.1696 H   0  0  0  0  0  0  0  0  0  0  0  0
   47.4922   34.5487   43.3698 H   0  0  0  0  0  0  0  0  0  0  0  0
   46.3165   31.8784   43.3092 H   0  0  0  0  0  0  0  0  0  0  0  0
   46.1175   34.0597   46.3864 H   0  0  0  0  0  0  0  0  0  0  0  0
   47.5452   30.3831   44.6150 H   0  0  0  0  0  0  0  0  0  0  0  0
   47.5650   30.9063   48.8365 H   0  0  0  0  0  0  0  0  0  0  0  0
   45.0852   33.9598   44.9584 H   0  0  0  0  0  0  0  0  0  0  0  0
   45.6745   34.6378   43.4029 H   0  0  0  0  0  0  0  0  0  0  0  0
   44.5257   33.2569   43.4029 H   0  0  0  0  0  0  0  0  0  0  0  0
  1  2  1  0
  1 11  1  0
  3  4  1  0
  3  2  1  0
  4  5  1  0
  6  1  1  0
  6  5  1  0
  7  6  1  0
  7 10  1  0
  7  8  1  0
  9  7  1  0
 11 12  1  0
 12 14  1  0
 13 18  2  0
 14 15  2  0
 14 13  1  0
 15 16  1  0
 16 17  2  0
 18 17  1  0
 19 12  1  0
  2 20  1  0
  2 21  1  0
  3 22  1  0
  3 23  1  0
  4 24  1  0
  4 25  1  0
  5 26  1  0
  5 27  1  0
  6 28  1  6
 11 29  1  0
 11 30  1  0
 12 31  1  6
 13 32  1  0
 15 33  1  0
 17 34  1  0
 19 35  1  0
 19 36  1  0
 19 37  1  0
M  ISO  8  20  13  21  13  22  13  23  13  24  13  25  13  26  13  27  13
M  ISO  8  28  13  29   8  30   8  31   8  32  14  33  14  34  14  35   8
M  ISO  2  36   8  37   8
M  END
>  <minimizedAffinity>  (1) 
-5.13864136

>  <minimizedRMSD>  (1) 
2.55435157

$$$$
