
     RDKit          3D

 39 41  0  0  1  0  0  0  0  0999 V2000
   44.4810   35.9640   42.6330 C   0  0  0  0  0  0  0  0  0  0  0  0
   43.7600   35.7300   41.4360 C   0  0  0  0  0  0  0  0  0  0  0  0
   43.6930   34.4220   40.9730 C   0  0  0  0  0  0  0  0  0  0  0  0
   44.3180   33.4400   41.6820 N   0  0  0  0  0  0  0  0  0  0  0  0
   44.9900   33.6650   42.7990 C   0  0  0  0  0  0  0  0  0  0  0  0
   45.0780   34.9460   43.2900 N   0  0  0  0  0  0  0  0  0  0  0  0
   45.6050   32.5940   43.4690 N   0  0  0  0  0  0  0  0  0  0  0  0
   46.1570   31.5170   42.8140 C   0  0  0  0  0  0  0  0  0  0  0  0
   46.6740   30.6430   43.6470 N   0  0  0  0  0  0  0  0  0  0  0  0
   46.4800   31.1190   44.9200 C   0  0  0  0  0  0  0  0  0  0  0  0
   46.8140   30.6170   46.1220 C   0  0  0  0  0  0  0  0  0  0  0  0
   47.4120   29.5230   46.2090 O   0  0  0  0  0  0  0  0  0  0  0  0
   46.4910   31.3130   47.2250 N   0  0  0  0  0  0  0  0  0  0  0  0
   45.8400   32.4990   47.0720 C   0  0  0  0  0  0  0  0  0  0  0  0
   45.5210   33.2020   48.2730 N   0  0  0  0  0  0  0  0  0  0  0  0
   45.4850   33.0390   45.8590 N   0  0  0  0  0  0  0  0  0  0  0  0
   45.8260   32.3070   44.7560 C   0  0  0  0  0  0  0  0  0  0  0  0
   46.8260   30.8220   48.5300 C   0  0  2  0  0  0  0  0  0  0  0  0
   45.6320   30.9210   49.4350 C   0  0  0  0  0  0  0  0  0  0  0  0
   48.0740   31.4210   49.1050 C   0  0  0  0  0  0  0  0  0  0  0  0
   48.7380   30.4020   49.9030 N   0  0  0  0  0  0  0  0  0  0  0  0
   49.9240   30.8280   50.5560 C   0  0  0  0  0  0  0  0  0  0  0  0
   50.4960   30.0400   51.6160 N   0  0  0  0  0  0  0  0  0  0  0  0
   50.5330   31.8840   50.2660 O   0  0  0  0  0  0  0  0  0  0  0  0
   44.5554   36.9864   43.0318 H   0  0  0  0  0  0  0  0  0  0  0  0
   43.2717   36.5531   40.8937 H   0  0  0  0  0  0  0  0  0  0  0  0
   43.1448   34.1829   40.0498 H   0  0  0  0  0  0  0  0  0  0  0  0
   46.1644   31.4015   41.7201 H   0  0  0  0  0  0  0  0  0  0  0  0
   45.0287   34.1055   48.2256 H   0  0  0  0  0  0  0  0  0  0  0  0
   45.7832   32.8057   49.1868 H   0  0  0  0  0  0  0  0  0  0  0  0
   47.0846   29.7576   48.4295 H   0  0  0  0  0  0  0  0  0  0  0  0
   45.9634   30.8935   50.4835 H   0  0  0  0  0  0  0  0  0  0  0  0
   45.1032   31.8661   49.2422 H   0  0  0  0  0  0  0  0  0  0  0  0
   44.9547   30.0759   49.2422 H   0  0  0  0  0  0  0  0  0  0  0  0
   48.7384   31.7499   48.2924 H   0  0  0  0  0  0  0  0  0  0  0  0
   47.8261   32.2923   49.7290 H   0  0  0  0  0  0  0  0  0  0  0  0
   48.3743   29.4421   49.9879 H   0  0  0  0  0  0  0  0  0  0  0  0
   51.3569   30.3555   52.0853 H   0  0  0  0  0  0  0  0  0  0  0  0
   50.0444   29.1606   51.9052 H   0  0  0  0  0  0  0  0  0  0  0  0
  1  6  2  0
  2  1  1  0
  3  2  2  0
  3  4  1  0
  4  5  2  0
  5  6  1  0
  5  7  1  0
  7 17  1  0
  8  7  1  0
  8  9  2  0
  9 10  1  0
 10 11  1  0
 11 12  2  0
 11 13  1  0
 13 18  1  0
 14 13  1  0
 14 15  1  0
 16 14  2  0
 17 10  2  0
 17 16  1  0
 18 20  1  0
 18 19  1  0
 20 21  1  0
 21 22  1  0
 22 23  1  0
 24 22  2  0
  1 25  1  0
  2 26  1  0
  3 27  1  0
  8 28  1  0
 15 29  1  0
 15 30  1  0
 18 31  1  6
 19 32  1  0
 19 33  1  0
 19 34  1  0
 20 35  1  0
 20 36  1  0
 21 37  1  0
 23 38  1  0
 23 39  1  0
M  ISO  8  25  14  26  14  27  14  28  14  31   8  32   8  33   8  34   8
M  ISO  2  35   8  36   8
M  END
>  <minimizedAffinity>  (1) 
-6.09458637

>  <minimizedRMSD>  (1) 
0.0420172177

$$$$
