
     RDKit          3D

 38 40  0  0  1  0  0  0  0  0999 V2000
   44.4820   35.9520   42.6500 C   0  0  0  0  0  0  0  0  0  0  0  0
   43.7570   35.7170   41.4600 C   0  0  0  0  0  0  0  0  0  0  0  0
   43.6910   34.4000   40.9980 C   0  0  0  0  0  0  0  0  0  0  0  0
   44.3200   33.4230   41.7080 N   0  0  0  0  0  0  0  0  0  0  0  0
   44.9980   33.6720   42.8290 C   0  0  0  0  0  0  0  0  0  0  0  0
   45.0840   34.9420   43.3110 N   0  0  0  0  0  0  0  0  0  0  0  0
   45.6140   32.5820   43.4870 N   0  0  0  0  0  0  0  0  0  0  0  0
   46.1560   31.5010   42.8350 C   0  0  0  0  0  0  0  0  0  0  0  0
   46.6630   30.6300   43.6700 N   0  0  0  0  0  0  0  0  0  0  0  0
   46.4760   31.1040   44.9380 C   0  0  0  0  0  0  0  0  0  0  0  0
   46.8070   30.6010   46.1410 C   0  0  0  0  0  0  0  0  0  0  0  0
   47.3960   29.5040   46.2340 O   0  0  0  0  0  0  0  0  0  0  0  0
   46.4890   31.3050   47.2440 N   0  0  0  0  0  0  0  0  0  0  0  0
   45.8480   32.4920   47.0950 C   0  0  0  0  0  0  0  0  0  0  0  0
   45.5350   33.1980   48.2920 N   0  0  0  0  0  0  0  0  0  0  0  0
   45.4980   33.0290   45.8820 N   0  0  0  0  0  0  0  0  0  0  0  0
   45.8310   32.2990   44.7780 C   0  0  0  0  0  0  0  0  0  0  0  0
   46.8200   30.8080   48.5530 C   0  0  2  0  0  0  0  0  0  0  0  0
   45.6270   30.9230   49.4570 C   0  0  0  0  0  0  0  0  0  0  0  0
   48.0760   31.3890   49.1200 C   0  0  0  0  0  0  0  0  0  0  0  0
   48.6790   30.3950   49.9950 N   0  0  0  0  0  0  0  0  0  0  0  0
   50.0270   30.5590   50.4570 C   0  0  0  0  0  0  0  0  0  0  0  0
   51.0060   29.9020   50.0160 O   0  0  0  0  0  0  0  0  0  0  0  0
   50.3790   31.4670   51.4460 O   0  0  0  0  0  0  0  0  0  0  0  0
   44.5567   36.9763   43.0441 H   0  0  0  0  0  0  0  0  0  0  0  0
   43.2642   36.5382   40.9189 H   0  0  0  0  0  0  0  0  0  0  0  0
   43.1407   34.1567   40.0771 H   0  0  0  0  0  0  0  0  0  0  0  0
   46.1630   31.3817   41.7415 H   0  0  0  0  0  0  0  0  0  0  0  0
   45.0488   34.1047   48.2430 H   0  0  0  0  0  0  0  0  0  0  0  0
   45.7949   32.8018   49.2065 H   0  0  0  0  0  0  0  0  0  0  0  0
   47.0637   29.7395   48.4587 H   0  0  0  0  0  0  0  0  0  0  0  0
   45.9572   30.8912   50.5058 H   0  0  0  0  0  0  0  0  0  0  0  0
   45.1110   31.8751   49.2638 H   0  0  0  0  0  0  0  0  0  0  0  0
   44.9386   30.0870   49.2638 H   0  0  0  0  0  0  0  0  0  0  0  0
   48.7716   31.6399   48.3056 H   0  0  0  0  0  0  0  0  0  0  0  0
   47.8510   32.3065   49.6836 H   0  0  0  0  0  0  0  0  0  0  0  0
   48.1351   29.5695   50.2841 H   0  0  0  0  0  0  0  0  0  0  0  0
   51.3233   31.5452   51.7328 H   0  0  0  0  0  0  0  0  0  0  0  0
  1  6  2  0
  2  1  1  0
  3  2  2  0
  3  4  1  0
  4  5  2  0
  5  6  1  0
  5  7  1  0
  7 17  1  0
  8  7  1  0
  8  9  2  0
  9 10  1  0
 10 11  1  0
 11 12  2  0
 11 13  1  0
 13 18  1  0
 14 13  1  0
 14 15  1  0
 16 14  2  0
 17 10  2  0
 17 16  1  0
 18 20  1  0
 18 19  1  0
 20 21  1  0
 21 22  1  0
 22 24  1  0
 23 22  2  0
  1 25  1  0
  2 26  1  0
  3 27  1  0
  8 28  1  0
 15 29  1  0
 15 30  1  0
 18 31  1  6
 19 32  1  0
 19 33  1  0
 19 34  1  0
 20 35  1  0
 20 36  1  0
 21 37  1  0
 24 38  1  0
M  ISO  8  25  14  26  14  27  14  28  14  31   8  32   8  33   8  34   8
M  ISO  3  35   8  36   8  38   3
M  END
>  <minimizedAffinity>  (1) 
-6.08922195

>  <minimizedRMSD>  (1) 
0.16772455

$$$$
