
     RDKit          3D

 41 44  0  0  1  0  0  0  0  0999 V2000
   44.6940   36.1340   42.8000 C   0  0  0  0  0  0  0  0  0  0  0  0
   44.0090   35.9400   41.5720 C   0  0  0  0  0  0  0  0  0  0  0  0
   43.9480   34.6380   41.0610 C   0  0  0  0  0  0  0  0  0  0  0  0
   44.5440   33.6440   41.7640 N   0  0  0  0  0  0  0  0  0  0  0  0
   45.1860   33.8310   42.9160 C   0  0  0  0  0  0  0  0  0  0  0  0
   45.2590   35.0910   43.4350 N   0  0  0  0  0  0  0  0  0  0  0  0
   45.7710   32.7280   43.5560 N   0  0  0  0  0  0  0  0  0  0  0  0
   46.3330   31.6720   42.8820 C   0  0  0  0  0  0  0  0  0  0  0  0
   46.8180   30.7650   43.7080 N   0  0  0  0  0  0  0  0  0  0  0  0
   46.5900   31.1960   44.9830 C   0  0  0  0  0  0  0  0  0  0  0  0
   46.8860   30.6470   46.1850 C   0  0  0  0  0  0  0  0  0  0  0  0
   47.4690   29.5530   46.2550 O   0  0  0  0  0  0  0  0  0  0  0  0
   46.5260   31.3190   47.2910 N   0  0  0  0  0  0  0  0  0  0  0  0
   45.8840   32.5240   47.1600 C   0  0  0  0  0  0  0  0  0  0  0  0
   45.5430   33.1810   48.3800 N   0  0  0  0  0  0  0  0  0  0  0  0
   45.5780   33.0940   45.9640 N   0  0  0  0  0  0  0  0  0  0  0  0
   45.9480   32.3990   44.8420 C   0  0  0  0  0  0  0  0  0  0  0  0
   46.8200   30.7790   48.5780 C   0  0  2  0  0  0  0  0  0  0  0  0
   45.6090   30.9150   49.4870 C   0  0  0  0  0  0  0  0  0  0  0  0
   48.0640   31.3100   49.2190 C   0  0  0  0  0  0  0  0  0  0  0  0
   48.7320   30.2160   49.9090 N   0  0  0  0  0  0  0  0  0  0  0  0
   49.9000   30.3530   50.6970 C   0  0  0  0  0  0  0  0  0  0  0  0
   50.2840   31.6890   50.2050 C   0  0  0  0  0  0  0  0  0  0  0  0
   51.8730   31.9530   51.2260 S   0  0  0  0  0  0  0  0  0  0  0  0
   51.6760   30.2500   52.0690 C   0  0  0  0  0  0  0  0  0  0  0  0
   50.6290   29.7310   51.5970 N   0  0  0  0  0  0  0  0  0  0  0  0
   44.7633   37.1421   43.2347 H   0  0  0  0  0  0  0  0  0  0  0  0
   43.5426   36.7828   41.0407 H   0  0  0  0  0  0  0  0  0  0  0  0
   43.4300   34.4271   40.1138 H   0  0  0  0  0  0  0  0  0  0  0  0
   46.3739   31.5920   41.7857 H   0  0  0  0  0  0  0  0  0  0  0  0
   45.0592   34.0900   48.3576 H   0  0  0  0  0  0  0  0  0  0  0  0
   45.7807   32.7462   49.2830 H   0  0  0  0  0  0  0  0  0  0  0  0
   47.0421   29.7137   48.4177 H   0  0  0  0  0  0  0  0  0  0  0  0
   45.9331   30.8786   50.5375 H   0  0  0  0  0  0  0  0  0  0  0  0
   45.1091   31.8749   49.2906 H   0  0  0  0  0  0  0  0  0  0  0  0
   44.9086   30.0899   49.2906 H   0  0  0  0  0  0  0  0  0  0  0  0
   48.7305   31.7245   48.4483 H   0  0  0  0  0  0  0  0  0  0  0  0
   47.8089   32.1062   49.9338 H   0  0  0  0  0  0  0  0  0  0  0  0
   48.3254   29.2741   49.8172 H   0  0  0  0  0  0  0  0  0  0  0  0
   49.7968   32.3419   49.4658 H   0  0  0  0  0  0  0  0  0  0  0  0
   52.3465   29.8080   52.8207 H   0  0  0  0  0  0  0  0  0  0  0  0
  1  6  2  0
  2  1  1  0
  3  2  2  0
  3  4  1  0
  4  5  2  0
  5  6  1  0
  5  7  1  0
  7 17  1  0
  8  7  1  0
  8  9  2  0
  9 10  1  0
 10 11  1  0
 11 12  2  0
 11 13  1  0
 13 18  1  0
 14 13  1  0
 14 15  1  0
 16 14  2  0
 17 10  2  0
 17 16  1  0
 18 20  1  0
 18 19  1  0
 20 21  1  0
 21 22  1  0
 22 26  1  0
 23 22  2  0
 23 24  1  0
 24 25  1  0
 26 25  2  0
  1 27  1  0
  2 28  1  0
  3 29  1  0
  8 30  1  0
 15 31  1  0
 15 32  1  0
 18 33  1  6
 19 34  1  0
 19 35  1  0
 19 36  1  0
 20 37  1  0
 20 38  1  0
 21 39  1  0
 23 40  1  0
 25 41  1  0
M  ISO  8  27  14  28  14  29  14  30  14  33   8  34   8  35   8  36   8
M  ISO  4  37   8  38   8  40  14  41  14
M  END
>  <minimizedAffinity>  (1) 
-6.06358099

>  <minimizedRMSD>  (1) 
1.6632359

$$$$
