
     RDKit          3D

 41 43  0  0  1  0  0  0  0  0999 V2000
   44.4990   35.9780   42.7000 C   0  0  0  0  0  0  0  0  0  0  0  0
   43.7690   35.7280   41.4960 C   0  0  0  0  0  0  0  0  0  0  0  0
   43.7030   34.4220   41.0200 C   0  0  0  0  0  0  0  0  0  0  0  0
   44.3350   33.4330   41.7150 N   0  0  0  0  0  0  0  0  0  0  0  0
   45.0140   33.6780   42.8380 C   0  0  0  0  0  0  0  0  0  0  0  0
   45.0960   34.9460   43.3290 N   0  0  0  0  0  0  0  0  0  0  0  0
   45.6400   32.5960   43.4920 N   0  0  0  0  0  0  0  0  0  0  0  0
   46.1980   31.5210   42.8370 C   0  0  0  0  0  0  0  0  0  0  0  0
   46.7190   30.6550   43.6580 N   0  0  0  0  0  0  0  0  0  0  0  0
   46.5310   31.1150   44.9360 C   0  0  0  0  0  0  0  0  0  0  0  0
   46.8700   30.6140   46.1390 C   0  0  0  0  0  0  0  0  0  0  0  0
   47.4690   29.5340   46.2150 O   0  0  0  0  0  0  0  0  0  0  0  0
   46.5380   31.3180   47.2490 N   0  0  0  0  0  0  0  0  0  0  0  0
   45.8810   32.4950   47.0990 C   0  0  0  0  0  0  0  0  0  0  0  0
   45.5650   33.1830   48.3100 N   0  0  0  0  0  0  0  0  0  0  0  0
   45.5280   33.0230   45.8910 N   0  0  0  0  0  0  0  0  0  0  0  0
   45.8640   32.3110   44.7850 C   0  0  0  0  0  0  0  0  0  0  0  0
   46.8860   30.8060   48.5260 C   0  0  2  0  0  0  0  0  0  0  0  0
   45.7060   30.9460   49.4790 C   0  0  0  0  0  0  0  0  0  0  0  0
   48.1420   31.3630   49.1050 C   0  0  0  0  0  0  0  0  0  0  0  0
   48.7030   30.3530   50.0040 N   0  0  0  0  0  0  0  0  0  0  0  0
   50.0250   30.8090   50.4210 C   0  0  0  0  0  0  0  0  0  0  0  0
   50.3740   32.1200   49.7350 C   0  0  0  0  0  0  0  0  0  0  0  0
   44.5723   36.9974   43.1068 H   0  0  0  0  0  0  0  0  0  0  0  0
   43.2713   36.5488   40.9587 H   0  0  0  0  0  0  0  0  0  0  0  0
   43.1498   34.1909   40.0977 H   0  0  0  0  0  0  0  0  0  0  0  0
   46.2031   31.4067   41.7430 H   0  0  0  0  0  0  0  0  0  0  0  0
   45.0665   34.0837   48.2756 H   0  0  0  0  0  0  0  0  0  0  0  0
   45.8356   32.7785   49.2178 H   0  0  0  0  0  0  0  0  0  0  0  0
   47.1149   29.7402   48.3788 H   0  0  0  0  0  0  0  0  0  0  0  0
   46.0663   30.9033   50.5174 H   0  0  0  0  0  0  0  0  0  0  0  0
   45.2056   31.9098   49.3039 H   0  0  0  0  0  0  0  0  0  0  0  0
   44.9940   30.1260   49.3039 H   0  0  0  0  0  0  0  0  0  0  0  0
   48.8579   31.5879   48.3007 H   0  0  0  0  0  0  0  0  0  0  0  0
   47.9343   32.2940   49.6528 H   0  0  0  0  0  0  0  0  0  0  0  0
   48.0952   30.2415   50.8280 H   0  0  0  0  0  0  0  0  0  0  0  0
   50.0301   30.9576   51.5109 H   0  0  0  0  0  0  0  0  0  0  0  0
   50.7696   30.0497   50.1397 H   0  0  0  0  0  0  0  0  0  0  0  0
   50.5786   32.8884   50.4950 H   0  0  0  0  0  0  0  0  0  0  0  0
   51.2659   31.9790   49.1068 H   0  0  0  0  0  0  0  0  0  0  0  0
   49.5301   32.4411   49.1068 H   0  0  0  0  0  0  0  0  0  0  0  0
  1  6  2  0
  2  1  1  0
  3  2  2  0
  3  4  1  0
  4  5  2  0
  5  6  1  0
  5  7  1  0
  7 17  1  0
  8  7  1  0
  8  9  2  0
  9 10  1  0
 10 11  1  0
 11 12  2  0
 11 13  1  0
 13 18  1  0
 14 13  1  0
 14 15  1  0
 16 14  2  0
 17 10  2  0
 17 16  1  0
 18 20  1  0
 18 19  1  0
 20 21  1  0
 21 22  1  0
 23 22  1  0
  1 24  1  0
  2 25  1  0
  3 26  1  0
  8 27  1  0
 15 28  1  0
 15 29  1  0
 18 30  1  6
 19 31  1  0
 19 32  1  0
 19 33  1  0
 20 34  1  0
 20 35  1  0
 21 36  1  0
 22 37  1  0
 22 38  1  0
 23 39  1  0
 23 40  1  0
 23 41  1  0
M  ISO  8  24  14  25  14  26  14  27  14  30   8  31   8  32   8  33   8
M  ISO  8  34   8  35   8  36   5  37   8  38   8  39   8  40   8  41   8
M  END
>  <minimizedAffinity>  (1) 
-5.53883362

>  <minimizedRMSD>  (1) 
0.24666889

$$$$
