
     RDKit          3D

 38 40  0  0  1  0  0  0  0  0999 V2000
   44.4520   35.9520   42.6280 C   0  0  0  0  0  0  0  0  0  0  0  0
   43.7480   35.7050   41.4150 C   0  0  0  0  0  0  0  0  0  0  0  0
   43.7180   34.4010   40.9490 C   0  0  0  0  0  0  0  0  0  0  0  0
   44.3540   33.4290   41.6610 N   0  0  0  0  0  0  0  0  0  0  0  0
   45.0060   33.6710   42.7880 C   0  0  0  0  0  0  0  0  0  0  0  0
   45.0600   34.9450   43.2830 N   0  0  0  0  0  0  0  0  0  0  0  0
   45.6320   32.5980   43.4500 N   0  0  0  0  0  0  0  0  0  0  0  0
   46.1930   31.5250   42.7960 C   0  0  0  0  0  0  0  0  0  0  0  0
   46.7150   30.6550   43.6360 N   0  0  0  0  0  0  0  0  0  0  0  0
   46.5170   31.1250   44.9010 C   0  0  0  0  0  0  0  0  0  0  0  0
   46.8510   30.6290   46.1040 C   0  0  0  0  0  0  0  0  0  0  0  0
   47.4570   29.5420   46.1970 O   0  0  0  0  0  0  0  0  0  0  0  0
   46.5190   31.3300   47.2120 N   0  0  0  0  0  0  0  0  0  0  0  0
   45.8620   32.5060   47.0590 C   0  0  0  0  0  0  0  0  0  0  0  0
   45.5400   33.1990   48.2560 N   0  0  0  0  0  0  0  0  0  0  0  0
   45.5080   33.0350   45.8380 N   0  0  0  0  0  0  0  0  0  0  0  0
   45.8520   32.3160   44.7400 C   0  0  0  0  0  0  0  0  0  0  0  0
   46.8590   30.8320   48.5150 C   0  0  2  0  0  0  0  0  0  0  0  0
   45.6450   30.9130   49.4230 C   0  0  0  0  0  0  0  0  0  0  0  0
   48.0900   31.4340   49.1000 C   0  0  0  0  0  0  0  0  0  0  0  0
   48.7140   30.4370   49.9580 N   0  0  0  0  0  0  0  0  0  0  0  0
   50.0220   30.9820   50.3340 C   0  0  0  0  0  0  0  0  0  0  0  0
   44.4994   36.9736   43.0330 H   0  0  0  0  0  0  0  0  0  0  0  0
   43.2474   36.5184   40.8692 H   0  0  0  0  0  0  0  0  0  0  0  0
   43.1882   34.1537   40.0173 H   0  0  0  0  0  0  0  0  0  0  0  0
   46.2042   31.4078   41.7023 H   0  0  0  0  0  0  0  0  0  0  0  0
   45.0409   34.0989   48.2117 H   0  0  0  0  0  0  0  0  0  0  0  0
   45.8055   32.8017   49.1684 H   0  0  0  0  0  0  0  0  0  0  0  0
   47.1359   29.7731   48.4055 H   0  0  0  0  0  0  0  0  0  0  0  0
   45.9707   30.8913   50.4735 H   0  0  0  0  0  0  0  0  0  0  0  0
   45.1021   31.8494   49.2267 H   0  0  0  0  0  0  0  0  0  0  0  0
   44.9826   30.0571   49.2267 H   0  0  0  0  0  0  0  0  0  0  0  0
   48.7835   31.7213   48.2959 H   0  0  0  0  0  0  0  0  0  0  0  0
   47.8369   32.3334   49.6805 H   0  0  0  0  0  0  0  0  0  0  0  0
   48.1387   30.2780   50.7975 H   0  0  0  0  0  0  0  0  0  0  0  0
   50.1036   31.0160   51.4304 H   0  0  0  0  0  0  0  0  0  0  0  0
   50.8173   30.3404   49.9268 H   0  0  0  0  0  0  0  0  0  0  0  0
   50.1265   31.9985   49.9268 H   0  0  0  0  0  0  0  0  0  0  0  0
  1  6  2  0
  2  1  1  0
  3  2  2  0
  3  4  1  0
  4  5  2  0
  5  6  1  0
  5  7  1  0
  7 17  1  0
  8  7  1  0
  8  9  2  0
  9 10  1  0
 10 11  1  0
 11 12  2  0
 11 13  1  0
 13 18  1  0
 14 13  1  0
 14 15  1  0
 16 14  2  0
 17 10  2  0
 17 16  1  0
 18 20  1  0
 18 19  1  0
 20 21  1  0
 21 22  1  0
  1 23  1  0
  2 24  1  0
  3 25  1  0
  8 26  1  0
 15 27  1  0
 15 28  1  0
 18 29  1  6
 19 30  1  0
 19 31  1  0
 19 32  1  0
 20 33  1  0
 20 34  1  0
 21 35  1  0
 22 36  1  0
 22 37  1  0
 22 38  1  0
M  ISO  8  23  14  24  14  25  14  26  14  29   8  30   8  31   8  32   8
M  ISO  6  33   8  34   8  35   5  36   8  37   8  38   8
M  END
>  <minimizedAffinity>  (1) 
-5.46798134

>  <minimizedRMSD>  (1) 
0.047836151

$$$$
