
     RDKit          3D

 39 42  0  0  1  0  0  0  0  0999 V2000
   46.9450   34.2750   42.2520 C   0  0  1  0  0  0  0  0  0  0  0  0
   46.2830   34.4490   40.9390 C   0  0  1  0  0  0  0  0  0  0  0  0
   47.4950   34.1940   40.0280 C   0  0  0  0  0  0  0  0  0  0  0  0
   48.4870   35.1740   40.6640 C   0  0  0  0  0  0  0  0  0  0  0  0
   48.2020   35.0930   42.1450 C   0  0  0  0  0  0  0  0  0  0  0  0
   45.2680   33.4640   40.5780 C   0  0  0  0  0  0  0  0  0  0  0  0
   45.5430   32.1200   40.3610 C   0  0  0  0  0  0  0  0  0  0  0  0
   44.6420   31.1550   40.0470 C   0  0  0  0  0  0  0  0  0  0  0  0
   43.2970   31.4920   39.9170 C   0  0  0  0  0  0  0  0  0  0  0  0
   42.9370   32.8080   40.1160 C   0  0  0  0  0  0  0  0  0  0  0  0
   41.6100   33.1550   39.9820 C   0  0  0  0  0  0  0  0  0  0  0  0
   41.1960   34.4570   40.1610 C   0  0  0  0  0  0  0  0  0  0  0  0
   42.1450   35.4130   40.4800 C   0  0  0  0  0  0  0  0  0  0  0  0
   43.4570   35.0100   40.6000 C   0  0  0  0  0  0  0  0  0  0  0  0
   43.9190   33.7230   40.4310 C   0  0  0  0  0  0  0  0  0  0  0  0
   44.5710   35.8780   44.6970 C   0  0  0  0  0  0  0  0  0  0  0  0
   45.3170   35.6460   43.5320 C   0  0  0  0  0  0  0  0  0  0  0  0
   46.1660   34.5520   43.4500 C   0  0  0  0  0  0  0  0  0  0  0  0
   46.2320   33.7480   44.5230 N   0  0  0  0  0  0  0  0  0  0  0  0
   45.5060   33.9770   45.6490 C   0  0  0  0  0  0  0  0  0  0  0  0
   44.6770   35.0460   45.7260 N   0  0  0  0  0  0  0  0  0  0  0  0
   47.1289   33.2038   42.4216 H   0  0  0  0  0  0  0  0  0  0  0  0
   45.7434   35.4064   40.8921 H   0  0  0  0  0  0  0  0  0  0  0  0
   47.2820   34.4462   38.9787 H   0  0  0  0  0  0  0  0  0  0  0  0
   47.8331   33.1487   39.9739 H   0  0  0  0  0  0  0  0  0  0  0  0
   49.5229   34.8720   40.4504 H   0  0  0  0  0  0  0  0  0  0  0  0
   48.3753   36.1956   40.2719 H   0  0  0  0  0  0  0  0  0  0  0  0
   49.0314   34.5991   42.6724 H   0  0  0  0  0  0  0  0  0  0  0  0
   48.0890   36.0879   42.6003 H   0  0  0  0  0  0  0  0  0  0  0  0
   46.5936   31.8073   40.4526 H   0  0  0  0  0  0  0  0  0  0  0  0
   44.9710   30.1162   39.8965 H   0  0  0  0  0  0  0  0  0  0  0  0
   42.5444   30.7310   39.6631 H   0  0  0  0  0  0  0  0  0  0  0  0
   40.8705   32.3812   39.7284 H   0  0  0  0  0  0  0  0  0  0  0  0
   40.1360   34.7304   40.0529 H   0  0  0  0  0  0  0  0  0  0  0  0
   41.8598   36.4643   40.6333 H   0  0  0  0  0  0  0  0  0  0  0  0
   44.1991   35.7817   40.8523 H   0  0  0  0  0  0  0  0  0  0  0  0
   43.8997   36.7473   44.7578 H   0  0  0  0  0  0  0  0  0  0  0  0
   45.2283   36.3350   42.6791 H   0  0  0  0  0  0  0  0  0  0  0  0
   45.5920   33.2898   46.5036 H   0  0  0  0  0  0  0  0  0  0  0  0
  1 18  1  0
  2  1  1  0
  3  4  1  0
  3  2  1  0
  4  5  1  0
  5  1  1  0
  6  2  1  0
  7  6  2  0
  8  7  1  0
  9  8  2  0
  9 10  1  0
 10 15  2  0
 11 10  1  0
 11 12  2  0
 12 13  1  0
 13 14  2  0
 15  6  1  0
 15 14  1  0
 16 21  2  0
 17 16  1  0
 18 17  2  0
 18 19  1  0
 19 20  2  0
 20 21  1  0
  1 22  1  1
  2 23  1  1
  3 24  1  0
  3 25  1  0
  4 26  1  0
  4 27  1  0
  5 28  1  0
  5 29  1  0
  7 30  1  0
  8 31  1  0
  9 32  1  0
 11 33  1  0
 12 34  1  0
 13 35  1  0
 14 36  1  0
 16 37  1  0
 17 38  1  0
 20 39  1  0
M  ISO  8  22  13  23  13  24  13  25  13  26  13  27  13  28  13  29  13
M  ISO  8  30  14  31  14  32  14  33  14  34  14  35  14  36  14  37  14
M  ISO  2  38  14  39  14
M  END
>  <minimizedAffinity>  (1) 
-6.12933969

>  <minimizedRMSD>  (1) 
0.856765091

$$$$
