
     RDKit          3D

 36 38  0  0  1  0  0  0  0  0999 V2000
   46.8430   34.1010   42.5290 C   0  0  1  0  0  0  0  0  0  0  0  0
   46.3770   34.7530   41.3030 C   0  0  1  0  0  0  0  0  0  0  0  0
   47.4950   34.3740   40.3430 C   0  0  0  0  0  0  0  0  0  0  0  0
   48.7130   34.7050   41.1960 C   0  0  0  0  0  0  0  0  0  0  0  0
   48.2860   34.5710   42.6380 C   0  0  0  0  0  0  0  0  0  0  0  0
   44.5260   35.6860   45.0720 C   0  0  0  0  0  0  0  0  0  0  0  0
   45.2400   35.4690   43.8850 C   0  0  0  0  0  0  0  0  0  0  0  0
   46.0860   34.3710   43.7520 C   0  0  0  0  0  0  0  0  0  0  0  0
   46.1800   33.5440   44.8070 N   0  0  0  0  0  0  0  0  0  0  0  0
   45.4770   33.7660   45.9630 C   0  0  0  0  0  0  0  0  0  0  0  0
   44.6530   34.8400   46.0850 N   0  0  0  0  0  0  0  0  0  0  0  0
   42.7420   33.3600   39.4920 C   0  0  0  0  0  0  0  0  0  0  0  0
   42.8090   34.5610   40.1900 C   0  0  0  0  0  0  0  0  0  0  0  0
   43.9620   35.0350   40.7830 C   0  0  0  0  0  0  0  0  0  0  0  0
   45.1310   34.2840   40.6880 C   0  0  0  0  0  0  0  0  0  0  0  0
   45.1150   33.0670   39.9940 C   0  0  0  0  0  0  0  0  0  0  0  0
   43.9260   32.6580   39.4280 C   0  0  0  0  0  0  0  0  0  0  0  0
   41.2710   32.7760   38.7480 S   0  0  0  0  0  0  0  0  0  0  0  0
   41.6810   31.8230   37.6460 O   0  0  0  0  0  0  0  0  0  0  0  0
   40.5520   33.9200   38.0930 O   0  0  0  0  0  0  0  0  0  0  0  0
   46.7119   33.0119   42.4474 H   0  0  0  0  0  0  0  0  0  0  0  0
   46.1652   35.8093   41.5251 H   0  0  0  0  0  0  0  0  0  0  0  0
   47.4651   34.9790   39.4248 H   0  0  0  0  0  0  0  0  0  0  0  0
   47.4567   33.3365   39.9795 H   0  0  0  0  0  0  0  0  0  0  0  0
   49.5309   34.0030   40.9766 H   0  0  0  0  0  0  0  0  0  0  0  0
   49.0776   35.7212   40.9854 H   0  0  0  0  0  0  0  0  0  0  0  0
   48.3481   35.5375   43.1595 H   0  0  0  0  0  0  0  0  0  0  0  0
   48.9220   33.8835   43.2149 H   0  0  0  0  0  0  0  0  0  0  0  0
   43.8610   36.5575   45.1628 H   0  0  0  0  0  0  0  0  0  0  0  0
   45.1305   36.1749   43.0485 H   0  0  0  0  0  0  0  0  0  0  0  0
   45.5814   33.0647   46.8040 H   0  0  0  0  0  0  0  0  0  0  0  0
   41.8940   35.1658   40.2741 H   0  0  0  0  0  0  0  0  0  0  0  0
   43.9575   35.9931   41.3234 H   0  0  0  0  0  0  0  0  0  0  0  0
   46.0248   32.4554   39.9033 H   0  0  0  0  0  0  0  0  0  0  0  0
   43.9224   31.7011   38.8856 H   0  0  0  0  0  0  0  0  0  0  0  0
   40.4670   32.1841   39.6862 H   0  0  0  0  0  0  0  0  0  0  0  0
  1  5  1  0
  1  8  1  0
  2  1  1  0
  3  4  1  0
  3  2  1  0
  4  5  1  0
  6 11  2  0
  7  6  1  0
  8  7  2  0
  8  9  1  0
  9 10  2  0
 10 11  1  0
 12 13  2  0
 13 14  1  0
 15 14  2  0
 15  2  1  0
 16 15  1  0
 17 12  1  0
 17 16  2  0
 18 12  1  0
 19 18  2  0
 20 18  2  0
  1 21  1  6
  2 22  1  1
  3 23  1  0
  3 24  1  0
  4 25  1  0
  4 26  1  0
  5 27  1  0
  5 28  1  0
  6 29  1  0
  7 30  1  0
 10 31  1  0
 13 32  1  0
 14 33  1  0
 16 34  1  0
 17 35  1  0
 18 36  1  0
M  ISO  8  21  13  22  13  23  13  24  13  25  13  26  13  27  13  28  13
M  ISO  8  29  14  30  14  31  14  32  14  33  14  34  14  35  14  36  11
M  END
>  <minimizedAffinity>  (1) 
-5.53158665

>  <minimizedRMSD>  (1) 
1.7278707

$$$$
