
     RDKit          3D

 33 35  0  0  1  0  0  0  0  0999 V2000
   46.7750   34.1770   42.3420 C   0  0  1  0  0  0  0  0  0  0  0  0
   46.1110   34.4870   41.0610 C   0  0  1  0  0  0  0  0  0  0  0  0
   47.2590   34.1800   40.0910 C   0  0  0  0  0  0  0  0  0  0  0  0
   48.3980   34.9050   40.7670 C   0  0  0  0  0  0  0  0  0  0  0  0
   48.0830   34.9440   42.2410 C   0  0  0  0  0  0  0  0  0  0  0  0
   44.5280   35.9140   44.8480 C   0  0  0  0  0  0  0  0  0  0  0  0
   45.2080   35.6800   43.6320 C   0  0  0  0  0  0  0  0  0  0  0  0
   46.0120   34.5280   43.5570 C   0  0  0  0  0  0  0  0  0  0  0  0
   46.0780   33.7300   44.6420 N   0  0  0  0  0  0  0  0  0  0  0  0
   45.4190   33.9730   45.7940 C   0  0  0  0  0  0  0  0  0  0  0  0
   44.6440   35.0690   45.8900 N   0  0  0  0  0  0  0  0  0  0  0  0
   44.9840   33.6560   40.7160 N   0  0  0  0  0  0  0  0  0  0  0  0
   45.1040   32.3350   40.5890 C   0  0  0  0  0  0  0  0  0  0  0  0
   44.0460   31.5110   40.2600 C   0  0  0  0  0  0  0  0  0  0  0  0
   42.8400   32.1920   40.0710 C   0  0  0  0  0  0  0  0  0  0  0  0
   41.8030   31.5170   39.7630 O   0  0  0  0  0  0  0  0  0  0  0  0
   42.6890   33.5200   40.1910 N   0  0  0  0  0  0  0  0  0  0  0  0
   43.7750   34.2520   40.5160 C   0  0  0  0  0  0  0  0  0  0  0  0
   43.5750   35.4850   40.6150 O   0  0  0  0  0  0  0  0  0  0  0  0
   46.8956   33.0911   42.4696 H   0  0  0  0  0  0  0  0  0  0  0  0
   45.6828   35.5002   41.0647 H   0  0  0  0  0  0  0  0  0  0  0  0
   47.0604   34.5837   39.0872 H   0  0  0  0  0  0  0  0  0  0  0  0
   47.4376   33.1082   39.9196 H   0  0  0  0  0  0  0  0  0  0  0  0
   49.3423   34.3671   40.5966 H   0  0  0  0  0  0  0  0  0  0  0  0
   48.5110   35.9218   40.3628 H   0  0  0  0  0  0  0  0  0  0  0  0
   48.8741   34.4518   42.8257 H   0  0  0  0  0  0  0  0  0  0  0  0
   48.0125   35.9674   42.6382 H   0  0  0  0  0  0  0  0  0  0  0  0
   43.8905   36.8051   44.9457 H   0  0  0  0  0  0  0  0  0  0  0  0
   45.1129   36.3693   42.7800 H   0  0  0  0  0  0  0  0  0  0  0  0
   45.5142   33.2829   46.6453 H   0  0  0  0  0  0  0  0  0  0  0  0
   46.0917   31.8798   40.7539 H   0  0  0  0  0  0  0  0  0  0  0  0
   44.1431   30.4202   40.1563 H   0  0  0  0  0  0  0  0  0  0  0  0
   41.7732   33.9664   40.0398 H   0  0  0  0  0  0  0  0  0  0  0  0
  1  8  1  0
  2  1  1  0
  3  4  1  0
  3  2  1  0
  4  5  1  0
  5  1  1  0
  6 11  2  0
  7  6  1  0
  8  7  2  0
  8  9  1  0
  9 10  2  0
 10 11  1  0
 12  2  1  0
 13 12  1  0
 14 13  2  0
 15 17  1  0
 15 14  1  0
 16 15  2  0
 17 18  1  0
 18 19  2  0
 18 12  1  0
  1 20  1  6
  2 21  1  1
  3 22  1  0
  3 23  1  0
  4 24  1  0
  4 25  1  0
  5 26  1  0
  5 27  1  0
  6 28  1  0
  7 29  1  0
 10 30  1  0
 13 31  1  0
 14 32  1  0
 17 33  1  0
M  ISO  8  20  13  21  13  22  13  23  13  24  13  25  13  26  13  27  13
M  ISO  6  28  14  29  14  30  14  31  14  32  14  33   9
M  END
>  <minimizedAffinity>  (1) 
-5.36740065

>  <minimizedRMSD>  (1) 
1.15302289

$$$$
