
     RDKit          3D

 31 33  0  0  1  0  0  0  0  0999 V2000
   46.8650   34.2260   42.3070 C   0  0  1  0  0  0  0  0  0  0  0  0
   46.2350   34.5340   41.0070 C   0  0  1  0  0  0  0  0  0  0  0  0
   47.3890   34.2180   40.0590 C   0  0  0  0  0  0  0  0  0  0  0  0
   48.5490   34.8780   40.7760 C   0  0  0  0  0  0  0  0  0  0  0  0
   48.1810   34.9840   42.2450 C   0  0  0  0  0  0  0  0  0  0  0  0
   44.5350   35.9500   44.7370 C   0  0  0  0  0  0  0  0  0  0  0  0
   45.2680   35.6690   43.5750 C   0  0  0  0  0  0  0  0  0  0  0  0
   46.0850   34.5480   43.4970 C   0  0  0  0  0  0  0  0  0  0  0  0
   46.1250   33.7630   44.5920 N   0  0  0  0  0  0  0  0  0  0  0  0
   45.4240   34.0200   45.7180 C   0  0  0  0  0  0  0  0  0  0  0  0
   44.6320   35.1120   45.7860 N   0  0  0  0  0  0  0  0  0  0  0  0
   45.0340   33.7440   40.6820 C   0  0  0  0  0  0  0  0  0  0  0  0
   43.8270   34.3330   40.3720 C   0  0  0  0  0  0  0  0  0  0  0  0
   42.7390   33.5210   40.0770 C   0  0  0  0  0  0  0  0  0  0  0  0
   42.8460   32.1800   40.0910 N   0  0  0  0  0  0  0  0  0  0  0  0
   44.0350   31.6020   40.3950 C   0  0  0  0  0  0  0  0  0  0  0  0
   45.0750   32.3870   40.6780 N   0  0  0  0  0  0  0  0  0  0  0  0
   46.9768   33.1387   42.4303 H   0  0  0  0  0  0  0  0  0  0  0  0
   45.8389   35.5594   40.9654 H   0  0  0  0  0  0  0  0  0  0  0  0
   47.2261   34.6594   39.0647 H   0  0  0  0  0  0  0  0  0  0  0  0
   47.5312   33.1449   39.8633 H   0  0  0  0  0  0  0  0  0  0  0  0
   49.4573   34.2684   40.6600 H   0  0  0  0  0  0  0  0  0  0  0  0
   48.7466   35.8747   40.3546 H   0  0  0  0  0  0  0  0  0  0  0  0
   48.9433   34.5108   42.8814 H   0  0  0  0  0  0  0  0  0  0  0  0
   48.1088   36.0204   42.6065 H   0  0  0  0  0  0  0  0  0  0  0  0
   43.8914   36.8405   44.7904 H   0  0  0  0  0  0  0  0  0  0  0  0
   45.1950   36.3468   42.7117 H   0  0  0  0  0  0  0  0  0  0  0  0
   45.4983   33.3399   46.5794 H   0  0  0  0  0  0  0  0  0  0  0  0
   43.7268   35.4283   40.3584 H   0  0  0  0  0  0  0  0  0  0  0  0
   41.7724   33.9830   39.8274 H   0  0  0  0  0  0  0  0  0  0  0  0
   44.1391   30.5070   40.4078 H   0  0  0  0  0  0  0  0  0  0  0  0
  1  8  1  0
  2  1  1  0
  3  4  1  0
  3  2  1  0
  4  5  1  0
  5  1  1  0
  6 11  2  0
  7  6  1  0
  8  7  2  0
  8  9  1  0
  9 10  2  0
 10 11  1  0
 12  2  1  0
 13 12  2  0
 14 15  2  0
 14 13  1  0
 15 16  1  0
 16 17  2  0
 17 12  1  0
  1 18  1  6
  2 19  1  1
  3 20  1  0
  3 21  1  0
  4 22  1  0
  4 23  1  0
  5 24  1  0
  5 25  1  0
  6 26  1  0
  7 27  1  0
 10 28  1  0
 13 29  1  0
 14 30  1  0
 16 31  1  0
M  ISO  8  18  13  19  13  20  13  21  13  22  13  23  13  24  13  25  13
M  ISO  6  26  14  27  14  28  14  29  14  30  14  31  14
M  END
>  <minimizedAffinity>  (1) 
-5.07363605

>  <minimizedRMSD>  (1) 
0.980369925

$$$$
