
     RDKit          3D

 28 30  0  0  1  0  0  0  0  0999 V2000
   47.0270   34.3400   42.2000 C   0  0  1  0  0  0  0  0  0  0  0  0
   46.3280   34.4100   40.8870 C   0  0  1  0  0  0  0  0  0  0  0  0
   47.5060   34.2070   39.9420 C   0  0  0  0  0  0  0  0  0  0  0  0
   48.5710   35.0760   40.5830 C   0  0  0  0  0  0  0  0  0  0  0  0
   48.1860   35.3000   42.0220 C   0  0  0  0  0  0  0  0  0  0  0  0
   44.5600   35.9700   44.5570 C   0  0  0  0  0  0  0  0  0  0  0  0
   45.3420   35.7250   43.4190 C   0  0  0  0  0  0  0  0  0  0  0  0
   46.2000   34.6330   43.3700 C   0  0  0  0  0  0  0  0  0  0  0  0
   46.2480   33.8320   44.4500 N   0  0  0  0  0  0  0  0  0  0  0  0
   45.4820   34.0770   45.5600 C   0  0  0  0  0  0  0  0  0  0  0  0
   44.6420   35.1520   45.5980 N   0  0  0  0  0  0  0  0  0  0  0  0
   45.3770   33.2760   40.6800 C   0  0  0  0  0  0  0  0  0  0  0  0
   45.6060   31.9600   40.8230 N   0  0  0  0  0  0  0  0  0  0  0  0
   44.5110   31.3230   40.5460 O   0  0  0  0  0  0  0  0  0  0  0  0
   43.5900   32.1930   40.2320 C   0  0  0  0  0  0  0  0  0  0  0  0
   44.0950   33.4490   40.3040 N   0  0  0  0  0  0  0  0  0  0  0  0
   47.3422   33.3121   42.4324 H   0  0  0  0  0  0  0  0  0  0  0  0
   45.7351   35.3287   40.7666 H   0  0  0  0  0  0  0  0  0  0  0  0
   47.2673   34.5508   38.9247 H   0  0  0  0  0  0  0  0  0  0  0  0
   47.8033   33.1550   39.8201 H   0  0  0  0  0  0  0  0  0  0  0  0
   49.5462   34.5697   40.5321 H   0  0  0  0  0  0  0  0  0  0  0  0
   48.6484   36.0375   40.0543 H   0  0  0  0  0  0  0  0  0  0  0  0
   49.0162   35.0520   42.6996 H   0  0  0  0  0  0  0  0  0  0  0  0
   47.9313   36.3451   42.2520 H   0  0  0  0  0  0  0  0  0  0  0  0
   43.8822   36.8359   44.5862 H   0  0  0  0  0  0  0  0  0  0  0  0
   45.2755   36.4042   42.5563 H   0  0  0  0  0  0  0  0  0  0  0  0
   45.5448   33.4023   46.4265 H   0  0  0  0  0  0  0  0  0  0  0  0
   42.5563   31.9437   39.9504 H   0  0  0  0  0  0  0  0  0  0  0  0
  1  8  1  0
  2  1  1  0
  3  4  1  0
  3  2  1  0
  4  5  1  0
  5  1  1  0
  6 11  2  0
  7  6  1  0
  8  7  2  0
  8  9  1  0
  9 10  2  0
 10 11  1  0
 12 13  2  0
 12  2  1  0
 14 13  1  0
 15 16  2  0
 15 14  1  0
 16 12  1  0
  1 17  1  1
  2 18  1  6
  3 19  1  0
  3 20  1  0
  4 21  1  0
  4 22  1  0
  5 23  1  0
  5 24  1  0
  6 25  1  0
  7 26  1  0
 10 27  1  0
 15 28  1  0
M  ISO  8  17  13  18  13  19  13  20  13  21  13  22  13  23  13  24  13
M  ISO  4  25  14  26  14  27  14  28  14
M  END
>  <minimizedAffinity>  (1) 
-4.82202816

>  <minimizedRMSD>  (1) 
0.60072875

$$$$
