
     RDKit          3D

 41 43  0  0  1  0  0  0  0  0999 V2000
   46.0060   34.4370   40.9690 C   0  0  0  0  0  0  0  0  0  0  0  0
   47.0910   33.7930   40.3110 N   0  0  0  0  0  0  0  0  0  0  0  0
   46.6270   32.5920   39.7220 C   0  0  0  0  0  0  0  0  0  0  0  0
   47.3980   31.3780   40.1170 C   0  0  0  0  0  0  0  0  0  0  0  0
   47.9380   31.3420   41.4870 C   0  0  0  0  0  0  0  0  0  0  0  0
   48.0160   32.6690   42.1620 C   0  0  0  0  0  0  0  0  0  0  0  0
   48.2330   33.7370   41.1240 C   0  0  2  0  0  0  0  0  0  0  0  0
   48.4340   35.0120   41.9210 C   0  0  0  0  0  0  0  0  0  0  0  0
   49.8900   35.1960   42.4130 C   0  0  0  0  0  0  0  0  0  0  0  0
   49.2340   36.1440   41.4620 C   0  0  0  0  0  0  0  0  0  0  0  0
   45.1420   33.4990   41.8020 C   0  0  1  0  0  0  0  0  0  0  0  0
   44.4550   35.3970   43.3730 C   0  0  0  0  0  0  0  0  0  0  0  0
   44.9830   34.1050   43.1350 C   0  0  0  0  0  0  0  0  0  0  0  0
   45.3920   33.3660   44.2430 C   0  0  0  0  0  0  0  0  0  0  0  0
   45.2740   33.8930   45.4850 N   0  0  0  0  0  0  0  0  0  0  0  0
   44.7640   35.1320   45.6810 C   0  0  0  0  0  0  0  0  0  0  0  0
   44.3490   35.8930   44.6100 N   0  0  0  0  0  0  0  0  0  0  0  0
   43.8000   33.3870   41.1240 C   0  0  0  0  0  0  0  0  0  0  0  0
   45.3689   34.9078   40.2058 H   0  0  0  0  0  0  0  0  0  0  0  0
   46.4442   35.1679   41.6645 H   0  0  0  0  0  0  0  0  0  0  0  0
   46.6877   32.6983   38.6288 H   0  0  0  0  0  0  0  0  0  0  0  0
   45.5977   32.4423   40.0799 H   0  0  0  0  0  0  0  0  0  0  0  0
   46.7322   30.5102   40.0004 H   0  0  0  0  0  0  0  0  0  0  0  0
   48.2822   31.3772   39.4626 H   0  0  0  0  0  0  0  0  0  0  0  0
   47.2935   30.6874   42.0920 H   0  0  0  0  0  0  0  0  0  0  0  0
   48.9717   30.9752   41.4035 H   0  0  0  0  0  0  0  0  0  0  0  0
   47.0770   32.8641   42.7007 H   0  0  0  0  0  0  0  0  0  0  0  0
   48.8513   32.6724   42.8777 H   0  0  0  0  0  0  0  0  0  0  0  0
   49.0932   33.5591   40.4619 H   0  0  0  0  0  0  0  0  0  0  0  0
   47.4081   34.9714   42.3158 H   0  0  0  0  0  0  0  0  0  0  0  0
   50.0935   35.4992   43.4506 H   0  0  0  0  0  0  0  0  0  0  0  0
   50.8071   34.5887   42.4214 H   0  0  0  0  0  0  0  0  0  0  0  0
   49.5704   36.1797   40.4153 H   0  0  0  0  0  0  0  0  0  0  0  0
   49.0783   37.2329   41.4627 H   0  0  0  0  0  0  0  0  0  0  0  0
   45.5934   32.5005   41.8979 H   0  0  0  0  0  0  0  0  0  0  0  0
   44.1241   36.0073   42.5197 H   0  0  0  0  0  0  0  0  0  0  0  0
   45.8097   32.3572   44.1094 H   0  0  0  0  0  0  0  0  0  0  0  0
   44.6805   35.5335   46.7017 H   0  0  0  0  0  0  0  0  0  0  0  0
   43.0089   33.3210   41.8854 H   0  0  0  0  0  0  0  0  0  0  0  0
   43.6313   34.2742   40.4960 H   0  0  0  0  0  0  0  0  0  0  0  0
   43.7807   32.4841   40.4960 H   0  0  0  0  0  0  0  0  0  0  0  0
  1 11  1  0
  2  1  1  0
  2  7  1  0
  3  4  1  0
  3  2  1  0
  4  5  1  0
  5  6  1  0
  7  8  1  0
  7  6  1  0
  8  9  1  0
 10  8  1  0
 10  9  1  0
 11 13  1  0
 12 17  2  0
 13 12  1  0
 13 14  2  0
 14 15  1  0
 15 16  2  0
 17 16  1  0
 18 11  1  0
  1 19  1  0
  1 20  1  0
  3 21  1  0
  3 22  1  0
  4 23  1  0
  4 24  1  0
  5 25  1  0
  5 26  1  0
  6 27  1  0
  6 28  1  0
  7 29  1  6
  8 30  1  0
  9 31  1  0
  9 32  1  0
 10 33  1  0
 10 34  1  0
 11 35  1  1
 12 36  1  0
 14 37  1  0
 16 38  1  0
 18 39  1  0
 18 40  1  0
 18 41  1  0
M  ISO  8  19   8  20   8  21  13  22  13  23  13  24  13  25  13  26  13
M  ISO  8  27  13  28  13  29  13  30  13  31  13  32  13  33  13  34  13
M  ISO  7  35   8  36  14  37  14  38  14  39   8  40   8  41   8
M  END
>  <minimizedAffinity>  (1) 
-4.59867144

>  <minimizedRMSD>  (1) 
2.00694442

$$$$
