
     RDKit          3D

 39 41  0  0  1  0  0  0  0  0999 V2000
   44.8220   35.8110   44.1450 C   0  0  0  0  0  0  0  0  0  0  0  0
   45.6130   35.6710   42.9890 C   0  0  0  0  0  0  0  0  0  0  0  0
   46.5930   34.6460   42.9630 C   0  0  0  0  0  0  0  0  0  0  0  0
   46.6810   33.8830   44.0640 N   0  0  0  0  0  0  0  0  0  0  0  0
   45.9220   34.0220   45.1650 C   0  0  0  0  0  0  0  0  0  0  0  0
   44.9830   35.0010   45.1950 N   0  0  0  0  0  0  0  0  0  0  0  0
   46.0570   33.1820   46.3100 N   0  0  0  0  0  0  0  0  0  0  0  0
   46.9630   32.1890   46.5040 C   0  0  0  0  0  0  0  0  0  0  0  0
   46.9400   31.4880   47.6700 C   0  0  0  0  0  0  0  0  0  0  0  0
   47.9720   30.4080   47.8090 C   0  0  0  0  0  0  0  0  0  0  0  0
   46.0140   31.7630   48.6690 C   0  0  0  0  0  0  0  0  0  0  0  0
   46.0320   31.0880   49.7320 O   0  0  0  0  0  0  0  0  0  0  0  0
   45.1400   32.7540   48.4300 N   0  0  0  0  0  0  0  0  0  0  0  0
   45.1450   33.4570   47.2860 C   0  0  0  0  0  0  0  0  0  0  0  0
   44.2670   34.3710   47.1780 O   0  0  0  0  0  0  0  0  0  0  0  0
   47.4700   34.4150   41.8140 C   0  0  1  0  0  0  0  0  0  0  0  0
   46.8040   34.2800   40.5100 C   0  0  1  0  0  0  0  0  0  0  0  0
   48.0050   34.2580   39.5810 C   0  0  0  0  0  0  0  0  0  0  0  0
   48.8590   35.3790   40.1670 C   0  0  0  0  0  0  0  0  0  0  0  0
   48.4150   35.5880   41.5770 C   0  0  0  0  0  0  0  0  0  0  0  0
   46.1260   32.9000   40.5150 C   0  0  0  0  0  0  0  0  0  0  0  0
   46.8050   32.0130   41.3050 F   0  0  0  0  0  0  0  0  0  0  0  0
   46.0400   32.5160   39.1940 F   0  0  0  0  0  0  0  0  0  0  0  0
   44.8360   33.0180   40.9920 F   0  0  0  0  0  0  0  0  0  0  0  0
   44.0579   36.6013   44.1844 H   0  0  0  0  0  0  0  0  0  0  0  0
   45.4745   36.3401   42.1270 H   0  0  0  0  0  0  0  0  0  0  0  0
   47.7064   31.9543   45.7279 H   0  0  0  0  0  0  0  0  0  0  0  0
   48.1578   30.2135   48.8756 H   0  0  0  0  0  0  0  0  0  0  0  0
   47.6081   29.4888   47.3267 H   0  0  0  0  0  0  0  0  0  0  0  0
   48.9068   30.7298   47.3267 H   0  0  0  0  0  0  0  0  0  0  0  0
   44.4404   32.9832   49.1503 H   0  0  0  0  0  0  0  0  0  0  0  0
   47.9577   33.4727   42.1043 H   0  0  0  0  0  0  0  0  0  0  0  0
   46.0562   35.0439   40.2508 H   0  0  0  0  0  0  0  0  0  0  0  0
   47.7144   34.4744   38.5424 H   0  0  0  0  0  0  0  0  0  0  0  0
   48.5149   33.2848   39.5280 H   0  0  0  0  0  0  0  0  0  0  0  0
   49.9210   35.0930   40.1457 H   0  0  0  0  0  0  0  0  0  0  0  0
   48.7417   36.3030   39.5819 H   0  0  0  0  0  0  0  0  0  0  0  0
   49.2688   35.5546   42.2698 H   0  0  0  0  0  0  0  0  0  0  0  0
   47.9421   36.5672   41.7429 H   0  0  0  0  0  0  0  0  0  0  0  0
  1  6  2  0
  2  1  1  0
  3  2  2  0
  3  4  1  0
  4  5  2  0
  5  6  1  0
  5  7  1  0
  7  8  1  0
  7 14  1  0
  8  9  2  0
  9 10  1  0
  9 11  1  0
 11 12  2  0
 13 11  1  0
 14 13  1  0
 15 14  2  0
 16  3  1  0
 17 21  1  0
 17 16  1  0
 18 19  1  0
 18 17  1  0
 19 20  1  0
 20 16  1  0
 21 24  1  0
 21 22  1  0
 23 21  1  0
  1 25  1  0
  2 26  1  0
  8 27  1  0
 10 28  1  0
 10 29  1  0
 10 30  1  0
 13 31  1  0
 16 32  1  1
 17 33  1  6
 18 34  1  0
 18 35  1  0
 19 36  1  0
 19 37  1  0
 20 38  1  0
 20 39  1  0
M  ISO  8  25  14  26  14  27  14  28   8  29   8  30   8  31   9  32  13
M  ISO  7  33  13  34  13  35  13  36  13  37  13  38  13  39  13
M  END
>  <minimizedAffinity>  (1) 
-7.00865555

>  <minimizedRMSD>  (1) 
0.644525468

$$$$
