
     RDKit          3D

 37 40  0  0  1  0  0  0  0  0999 V2000
   44.5840   35.9820   44.4640 C   0  0  0  0  0  0  0  0  0  0  0  0
   45.4010   35.7910   43.3360 C   0  0  0  0  0  0  0  0  0  0  0  0
   46.2840   34.6790   43.3230 C   0  0  0  0  0  0  0  0  0  0  0  0
   46.2670   33.8890   44.4090 N   0  0  0  0  0  0  0  0  0  0  0  0
   45.4770   34.0840   45.4870 C   0  0  0  0  0  0  0  0  0  0  0  0
   44.6290   35.1440   45.5060 N   0  0  0  0  0  0  0  0  0  0  0  0
   45.6340   33.1100   46.5230 N   0  0  0  0  0  0  0  0  0  0  0  0
   45.1970   33.1440   47.7930 C   0  0  0  0  0  0  0  0  0  0  0  0
   45.5790   32.0120   48.3900 N   0  0  0  0  0  0  0  0  0  0  0  0
   46.2530   31.2790   47.4860 C   0  0  0  0  0  0  0  0  0  0  0  0
   46.8660   30.0340   47.5600 C   0  0  0  0  0  0  0  0  0  0  0  0
   47.4780   29.5480   46.4640 N   0  0  0  0  0  0  0  0  0  0  0  0
   47.5100   30.2360   45.2980 C   0  0  0  0  0  0  0  0  0  0  0  0
   46.9290   31.4450   45.1820 N   0  0  0  0  0  0  0  0  0  0  0  0
   46.3020   31.9680   46.2730 C   0  0  0  0  0  0  0  0  0  0  0  0
   47.1740   34.3960   42.1950 C   0  0  1  0  0  0  0  0  0  0  0  0
   46.5360   34.3190   40.8730 C   0  0  1  0  0  0  0  0  0  0  0  0
   47.7580   34.2330   39.9740 C   0  0  0  0  0  0  0  0  0  0  0  0
   48.6840   35.2650   40.6060 C   0  0  0  0  0  0  0  0  0  0  0  0
   48.2230   35.4840   42.0080 C   0  0  0  0  0  0  0  0  0  0  0  0
   45.7690   32.9900   40.8440 C   0  0  0  0  0  0  0  0  0  0  0  0
   46.3470   32.0630   41.6690 F   0  0  0  0  0  0  0  0  0  0  0  0
   45.7300   32.6020   39.5210 F   0  0  0  0  0  0  0  0  0  0  0  0
   44.4720   33.2010   41.2560 F   0  0  0  0  0  0  0  0  0  0  0  0
   43.8936   36.8380   44.4905 H   0  0  0  0  0  0  0  0  0  0  0  0
   45.3573   36.4859   42.4844 H   0  0  0  0  0  0  0  0  0  0  0  0
   44.6254   33.9602   48.2589 H   0  0  0  0  0  0  0  0  0  0  0  0
   46.8514   29.4568   48.4963 H   0  0  0  0  0  0  0  0  0  0  0  0
   48.0211   29.7981   44.4279 H   0  0  0  0  0  0  0  0  0  0  0  0
   47.5789   33.4149   42.4840 H   0  0  0  0  0  0  0  0  0  0  0  0
   45.8460   35.1321   40.6031 H   0  0  0  0  0  0  0  0  0  0  0  0
   47.5108   34.4994   38.9358 H   0  0  0  0  0  0  0  0  0  0  0  0
   48.1931   33.2248   39.9094 H   0  0  0  0  0  0  0  0  0  0  0  0
   49.7186   34.8914   40.6051 H   0  0  0  0  0  0  0  0  0  0  0  0
   48.6581   36.2070   40.0386 H   0  0  0  0  0  0  0  0  0  0  0  0
   49.0518   35.3614   42.7208 H   0  0  0  0  0  0  0  0  0  0  0  0
   47.8337   36.4976   42.1840 H   0  0  0  0  0  0  0  0  0  0  0  0
  1  6  2  0
  2  1  1  0
  3  2  2  0
  3  4  1  0
  4  5  2  0
  5  6  1  0
  5  7  1  0
  7  8  1  0
  8  9  2  0
 10 11  2  0
 10  9  1  0
 12 11  1  0
 13 12  2  0
 14 13  1  0
 14 15  2  0
 15  7  1  0
 15 10  1  0
 16  3  1  0
 17 16  1  0
 18 19  1  0
 18 17  1  0
 19 20  1  0
 20 16  1  0
 21 17  1  0
 21 24  1  0
 21 22  1  0
 23 21  1  0
  1 25  1  0
  2 26  1  0
  8 27  1  0
 11 28  1  0
 13 29  1  0
 16 30  1  1
 17 31  1  6
 18 32  1  0
 18 33  1  0
 19 34  1  0
 19 35  1  0
 20 36  1  0
 20 37  1  0
M  ISO  8  25  14  26  14  27  14  28  14  29  14  30  13  31  13  32  13
M  ISO  5  33  13  34  13  35  13  36  13  37  13
M  END
>  <minimizedAffinity>  (1) 
-6.67423582

>  <minimizedRMSD>  (1) 
0.126857817

$$$$
