
     RDKit          3D

 33 35  0  0  1  0  0  0  0  0999 V2000
   47.1370   34.3620   42.0950 C   0  0  1  0  0  0  0  0  0  0  0  0
   46.4770   34.3270   40.7820 C   0  0  1  0  0  0  0  0  0  0  0  0
   47.6700   34.1930   39.8600 C   0  0  0  0  0  0  0  0  0  0  0  0
   48.6280   35.2090   40.4620 C   0  0  0  0  0  0  0  0  0  0  0  0
   48.2180   35.4170   41.8950 C   0  0  0  0  0  0  0  0  0  0  0  0
   44.5720   35.9540   44.3900 C   0  0  0  0  0  0  0  0  0  0  0  0
   45.3540   35.7370   43.2420 C   0  0  0  0  0  0  0  0  0  0  0  0
   46.2830   34.6640   43.2390 C   0  0  0  0  0  0  0  0  0  0  0  0
   46.3390   33.9280   44.3600 N   0  0  0  0  0  0  0  0  0  0  0  0
   45.5910   34.1380   45.4570 C   0  0  0  0  0  0  0  0  0  0  0  0
   44.7030   35.1550   45.4740 N   0  0  0  0  0  0  0  0  0  0  0  0
   45.7350   33.2740   46.6240 C   0  0  0  0  0  0  0  0  0  0  0  0
   46.7540   32.3690   46.8310 C   0  0  0  0  0  0  0  0  0  0  0  0
   46.5240   31.7660   48.0340 N   0  0  0  0  0  0  0  0  0  0  0  0
   45.3880   32.3080   48.5250 C   0  0  0  0  0  0  0  0  0  0  0  0
   44.8960   33.2290   47.6750 N   0  0  0  0  0  0  0  0  0  0  0  0
   45.6430   33.0290   40.7520 C   0  0  0  0  0  0  0  0  0  0  0  0
   46.1890   32.0770   41.5560 F   0  0  0  0  0  0  0  0  0  0  0  0
   45.5680   32.6620   39.4190 F   0  0  0  0  0  0  0  0  0  0  0  0
   44.3560   33.2940   41.1840 F   0  0  0  0  0  0  0  0  0  0  0  0
   47.5075   33.3633   42.3693 H   0  0  0  0  0  0  0  0  0  0  0  0
   45.8237   35.1765   40.5338 H   0  0  0  0  0  0  0  0  0  0  0  0
   47.4086   34.4512   38.8232 H   0  0  0  0  0  0  0  0  0  0  0  0
   48.0772   33.1732   39.7958 H   0  0  0  0  0  0  0  0  0  0  0  0
   49.6586   34.8271   40.4171 H   0  0  0  0  0  0  0  0  0  0  0  0
   48.5907   36.1568   39.9050 H   0  0  0  0  0  0  0  0  0  0  0  0
   49.0647   35.2506   42.5772 H   0  0  0  0  0  0  0  0  0  0  0  0
   47.8714   36.4398   42.1041 H   0  0  0  0  0  0  0  0  0  0  0  0
   43.8469   36.7810   44.4071 H   0  0  0  0  0  0  0  0  0  0  0  0
   45.2477   36.3875   42.3614 H   0  0  0  0  0  0  0  0  0  0  0  0
   47.5965   32.1696   46.1525 H   0  0  0  0  0  0  0  0  0  0  0  0
   44.9286   32.0346   49.4863 H   0  0  0  0  0  0  0  0  0  0  0  0
   44.0423   33.7906   47.8043 H   0  0  0  0  0  0  0  0  0  0  0  0
  1  8  1  0
  2  1  1  0
  3  4  1  0
  3  2  1  0
  4  5  1  0
  5  1  1  0
  6 11  2  0
  7  6  1  0
  8  7  2  0
  8  9  1  0
  9 10  2  0
 10 11  1  0
 10 12  1  0
 12 13  2  0
 12 16  1  0
 13 14  1  0
 14 15  2  0
 16 15  1  0
 17  2  1  0
 17 20  1  0
 17 18  1  0
 19 17  1  0
  1 21  1  1
  2 22  1  6
  3 23  1  0
  3 24  1  0
  4 25  1  0
  4 26  1  0
  5 27  1  0
  5 28  1  0
  6 29  1  0
  7 30  1  0
 13 31  1  0
 15 32  1  0
 16 33  1  0
M  ISO  8  21  13  22  13  23  13  24  13  25  13  26  13  27  13  28  13
M  ISO  5  29  14  30  14  31  14  32  14  33   9
M  END
>  <minimizedAffinity>  (1) 
-6.42446709

>  <minimizedRMSD>  (1) 
0.447553754

$$$$
