
     RDKit          3D

 33 35  0  0  1  0  0  0  0  0999 V2000
   47.0400   34.3020   42.2220 C   0  0  1  0  0  0  0  0  0  0  0  0
   46.3490   34.3080   40.9280 C   0  0  1  0  0  0  0  0  0  0  0  0
   47.5180   34.1890   39.9730 C   0  0  0  0  0  0  0  0  0  0  0  0
   48.5120   35.1700   40.5890 C   0  0  0  0  0  0  0  0  0  0  0  0
   48.1290   35.3470   42.0300 C   0  0  0  0  0  0  0  0  0  0  0  0
   44.5460   35.8490   44.6230 C   0  0  0  0  0  0  0  0  0  0  0  0
   45.2970   35.6520   43.4550 C   0  0  0  0  0  0  0  0  0  0  0  0
   46.2190   34.5770   43.3990 C   0  0  0  0  0  0  0  0  0  0  0  0
   46.3010   33.8140   44.4980 N   0  0  0  0  0  0  0  0  0  0  0  0
   45.5760   34.0060   45.6180 C   0  0  0  0  0  0  0  0  0  0  0  0
   44.6940   35.0310   45.6810 N   0  0  0  0  0  0  0  0  0  0  0  0
   45.8310   33.0630   46.6710 N   0  0  0  0  0  0  0  0  0  0  0  0
   45.2140   32.6800   47.8110 C   0  0  0  0  0  0  0  0  0  0  0  0
   46.0040   31.6890   48.4000 C   0  0  0  0  0  0  0  0  0  0  0  0
   47.0890   31.4850   47.6100 N   0  0  0  0  0  0  0  0  0  0  0  0
   46.9560   32.3310   46.5730 C   0  0  0  0  0  0  0  0  0  0  0  0
   45.5060   33.0200   40.8810 C   0  0  0  0  0  0  0  0  0  0  0  0
   46.0630   32.0380   41.6420 F   0  0  0  0  0  0  0  0  0  0  0  0
   45.3960   32.6860   39.5470 F   0  0  0  0  0  0  0  0  0  0  0  0
   44.2310   33.2820   41.3590 F   0  0  0  0  0  0  0  0  0  0  0  0
   47.4048   33.2908   42.4552 H   0  0  0  0  0  0  0  0  0  0  0  0
   45.6969   35.1694   40.7210 H   0  0  0  0  0  0  0  0  0  0  0  0
   47.2362   34.4892   38.9529 H   0  0  0  0  0  0  0  0  0  0  0  0
   47.9060   33.1656   39.8629 H   0  0  0  0  0  0  0  0  0  0  0  0
   49.5328   34.7664   40.5175 H   0  0  0  0  0  0  0  0  0  0  0  0
   48.4886   36.1333   40.0584 H   0  0  0  0  0  0  0  0  0  0  0  0
   48.9846   35.1537   42.6937 H   0  0  0  0  0  0  0  0  0  0  0  0
   47.7986   36.3684   42.2698 H   0  0  0  0  0  0  0  0  0  0  0  0
   43.8284   36.6811   44.6747 H   0  0  0  0  0  0  0  0  0  0  0  0
   45.1720   36.3236   42.5929 H   0  0  0  0  0  0  0  0  0  0  0  0
   44.2652   33.0753   48.2028 H   0  0  0  0  0  0  0  0  0  0  0  0
   45.7844   31.1645   49.3417 H   0  0  0  0  0  0  0  0  0  0  0  0
   47.6775   32.4143   45.7469 H   0  0  0  0  0  0  0  0  0  0  0  0
  1  8  1  0
  2  1  1  0
  3  4  1  0
  3  2  1  0
  4  5  1  0
  5  1  1  0
  6 11  2  0
  7  6  1  0
  8  7  2  0
  8  9  1  0
  9 10  2  0
 10 11  1  0
 10 12  1  0
 12 13  1  0
 13 14  2  0
 15 14  1  0
 16 12  1  0
 16 15  2  0
 17  2  1  0
 17 20  1  0
 17 18  1  0
 19 17  1  0
  1 21  1  1
  2 22  1  6
  3 23  1  0
  3 24  1  0
  4 25  1  0
  4 26  1  0
  5 27  1  0
  5 28  1  0
  6 29  1  0
  7 30  1  0
 13 31  1  0
 14 32  1  0
 16 33  1  0
M  ISO  8  21  13  22  13  23  13  24  13  25  13  26  13  27  13  28  13
M  ISO  5  29  14  30  14  31  14  32  14  33  14
M  END
>  <minimizedAffinity>  (1) 
-6.2039094

>  <minimizedRMSD>  (1) 
0.199498013

$$$$
