
     RDKit          3D

 33 35  0  0  1  0  0  0  0  0999 V2000
   47.3770   34.3960   42.0900 C   0  0  1  0  0  0  0  0  0  0  0  0
   46.7340   34.3460   40.7690 C   0  0  1  0  0  0  0  0  0  0  0  0
   47.9490   34.3460   39.8600 C   0  0  0  0  0  0  0  0  0  0  0  0
   48.8160   35.4170   40.5150 C   0  0  0  0  0  0  0  0  0  0  0  0
   48.3640   35.5470   41.9320 C   0  0  0  0  0  0  0  0  0  0  0  0
   44.6470   35.6770   44.3920 C   0  0  0  0  0  0  0  0  0  0  0  0
   45.4540   35.5610   43.2450 C   0  0  0  0  0  0  0  0  0  0  0  0
   46.4870   34.5910   43.2320 C   0  0  0  0  0  0  0  0  0  0  0  0
   46.6120   33.8460   44.3420 N   0  0  0  0  0  0  0  0  0  0  0  0
   45.8340   33.9620   45.4390 C   0  0  0  0  0  0  0  0  0  0  0  0
   44.8440   34.8920   45.4520 N   0  0  0  0  0  0  0  0  0  0  0  0
   46.0180   33.1230   46.6180 C   0  0  0  0  0  0  0  0  0  0  0  0
   46.9350   32.2270   47.1270 C   0  0  0  0  0  0  0  0  0  0  0  0
   46.4330   31.8000   48.3450 C   0  0  0  0  0  0  0  0  0  0  0  0
   45.2430   32.4290   48.5500 N   0  0  0  0  0  0  0  0  0  0  0  0
   45.0020   33.2120   47.5240 N   0  0  0  0  0  0  0  0  0  0  0  0
   46.0260   32.9850   40.6890 C   0  0  0  0  0  0  0  0  0  0  0  0
   46.6080   32.0690   41.5090 F   0  0  0  0  0  0  0  0  0  0  0  0
   46.0390   32.6350   39.3500 F   0  0  0  0  0  0  0  0  0  0  0  0
   44.6980   33.1350   41.0590 F   0  0  0  0  0  0  0  0  0  0  0  0
   47.8303   33.4256   42.3405 H   0  0  0  0  0  0  0  0  0  0  0  0
   46.0091   35.1405   40.5382 H   0  0  0  0  0  0  0  0  0  0  0  0
   47.6802   34.6209   38.8294 H   0  0  0  0  0  0  0  0  0  0  0  0
   48.4398   33.3661   39.7659 H   0  0  0  0  0  0  0  0  0  0  0  0
   49.8738   35.1168   40.4831 H   0  0  0  0  0  0  0  0  0  0  0  0
   48.7182   36.3759   39.9849 H   0  0  0  0  0  0  0  0  0  0  0  0
   49.2097   35.4396   42.6272 H   0  0  0  0  0  0  0  0  0  0  0  0
   47.9209   36.5288   42.1550 H   0  0  0  0  0  0  0  0  0  0  0  0
   43.8419   36.4262   44.4146 H   0  0  0  0  0  0  0  0  0  0  0  0
   45.2860   36.2116   42.3741 H   0  0  0  0  0  0  0  0  0  0  0  0
   47.8792   31.9134   46.6578 H   0  0  0  0  0  0  0  0  0  0  0  0
   46.9109   31.0804   49.0260 H   0  0  0  0  0  0  0  0  0  0  0  0
   44.6339   32.3105   49.3721 H   0  0  0  0  0  0  0  0  0  0  0  0
  1  8  1  0
  2  1  1  0
  3  4  1  0
  3  2  1  0
  4  5  1  0
  5  1  1  0
  6 11  2  0
  7  6  1  0
  8  7  2  0
  8  9  1  0
  9 10  2  0
 10 11  1  0
 10 12  1  0
 12 13  1  0
 12 16  2  0
 13 14  2  0
 14 15  1  0
 16 15  1  0
 17  2  1  0
 17 20  1  0
 17 18  1  0
 19 17  1  0
  1 21  1  1
  2 22  1  6
  3 23  1  0
  3 24  1  0
  4 25  1  0
  4 26  1  0
  5 27  1  0
  5 28  1  0
  6 29  1  0
  7 30  1  0
 13 31  1  0
 14 32  1  0
 15 33  1  0
M  ISO  8  21  13  22  13  23  13  24  13  25  13  26  13  27  13  28  13
M  ISO  5  29  14  30  14  31  14  32  14  33   9
M  END
>  <minimizedAffinity>  (1) 
-6.14461946

>  <minimizedRMSD>  (1) 
0.487128019

$$$$
