
     RDKit          3D

 33 35  0  0  1  0  0  0  0  0999 V2000
   47.0240   34.2930   42.2320 C   0  0  1  0  0  0  0  0  0  0  0  0
   46.3280   34.3210   40.9380 C   0  0  1  0  0  0  0  0  0  0  0  0
   47.4990   34.1870   39.9830 C   0  0  0  0  0  0  0  0  0  0  0  0
   48.5080   35.1440   40.6060 C   0  0  0  0  0  0  0  0  0  0  0  0
   48.1230   35.3270   42.0410 C   0  0  0  0  0  0  0  0  0  0  0  0
   44.6100   35.8770   44.6900 C   0  0  0  0  0  0  0  0  0  0  0  0
   45.3550   35.7010   43.5060 C   0  0  0  0  0  0  0  0  0  0  0  0
   46.2070   34.5700   43.4130 C   0  0  0  0  0  0  0  0  0  0  0  0
   46.2270   33.7560   44.4780 N   0  0  0  0  0  0  0  0  0  0  0  0
   45.5150   33.9290   45.6020 C   0  0  0  0  0  0  0  0  0  0  0  0
   44.6960   35.0090   45.7020 N   0  0  0  0  0  0  0  0  0  0  0  0
   45.6180   32.9520   46.7290 C   0  0  0  0  0  0  0  0  0  0  0  0
   47.0760   32.6500   47.1970 C   0  0  0  0  0  0  0  0  0  0  0  0
   46.2000   31.6180   46.5290 C   0  0  0  0  0  0  0  0  0  0  0  0
   45.4690   33.0410   40.8870 C   0  0  0  0  0  0  0  0  0  0  0  0
   46.0300   32.0390   41.6190 F   0  0  0  0  0  0  0  0  0  0  0  0
   45.3270   32.7500   39.5420 F   0  0  0  0  0  0  0  0  0  0  0  0
   44.2150   33.3150   41.3780 F   0  0  0  0  0  0  0  0  0  0  0  0
   47.3783   33.2767   42.4592 H   0  0  0  0  0  0  0  0  0  0  0  0
   45.6879   35.1923   40.7354 H   0  0  0  0  0  0  0  0  0  0  0  0
   47.2249   34.4989   38.9644 H   0  0  0  0  0  0  0  0  0  0  0  0
   47.8686   33.1574   39.8673 H   0  0  0  0  0  0  0  0  0  0  0  0
   49.5204   34.7189   40.5394 H   0  0  0  0  0  0  0  0  0  0  0  0
   48.5069   36.1085   40.0771 H   0  0  0  0  0  0  0  0  0  0  0  0
   48.9747   35.1272   42.7079 H   0  0  0  0  0  0  0  0  0  0  0  0
   47.8011   36.3520   42.2773 H   0  0  0  0  0  0  0  0  0  0  0  0
   43.9438   36.7474   44.7825 H   0  0  0  0  0  0  0  0  0  0  0  0
   45.2779   36.4204   42.6774 H   0  0  0  0  0  0  0  0  0  0  0  0
   44.6695   33.2889   47.1727 H   0  0  0  0  0  0  0  0  0  0  0  0
   47.9343   33.0832   46.6626 H   0  0  0  0  0  0  0  0  0  0  0  0
   47.6391   32.7239   48.1390 H   0  0  0  0  0  0  0  0  0  0  0  0
   45.8206   30.7687   47.1162 H   0  0  0  0  0  0  0  0  0  0  0  0
   46.3271   30.9699   45.6493 H   0  0  0  0  0  0  0  0  0  0  0  0
  1  8  1  0
  2  1  1  0
  3  4  1  0
  3  2  1  0
  4  5  1  0
  5  1  1  0
  6 11  2  0
  7  6  1  0
  8  7  2  0
  8  9  1  0
  9 10  2  0
 10 11  1  0
 10 12  1  0
 12 13  1  0
 14 12  1  0
 14 13  1  0
 15  2  1  0
 15 18  1  0
 15 16  1  0
 17 15  1  0
  1 19  1  1
  2 20  1  6
  3 21  1  0
  3 22  1  0
  4 23  1  0
  4 24  1  0
  5 25  1  0
  5 26  1  0
  6 27  1  0
  7 28  1  0
 12 29  1  0
 13 30  1  0
 13 31  1  0
 14 32  1  0
 14 33  1  0
M  ISO  8  19  13  20  13  21  13  22  13  23  13  24  13  25  13  26  13
M  ISO  7  27  14  28  14  29  13  30  13  31  13  32  13  33  13
M  END
>  <minimizedAffinity>  (1) 
-5.38550043

>  <minimizedRMSD>  (1) 
0.161503851

$$$$
