
     RDKit          3D

 32 33  0  0  1  0  0  0  0  0999 V2000
   47.0840   34.3300   42.1750 C   0  0  1  0  0  0  0  0  0  0  0  0
   46.4070   34.3180   40.8690 C   0  0  1  0  0  0  0  0  0  0  0  0
   47.5860   34.1970   39.9300 C   0  0  0  0  0  0  0  0  0  0  0  0
   48.5740   35.1890   40.5470 C   0  0  0  0  0  0  0  0  0  0  0  0
   48.1710   35.3770   41.9760 C   0  0  0  0  0  0  0  0  0  0  0  0
   44.5870   35.9400   44.5340 C   0  0  0  0  0  0  0  0  0  0  0  0
   45.3590   35.7340   43.3760 C   0  0  0  0  0  0  0  0  0  0  0  0
   46.2420   34.6250   43.3330 C   0  0  0  0  0  0  0  0  0  0  0  0
   46.2670   33.8460   44.4250 N   0  0  0  0  0  0  0  0  0  0  0  0
   45.5270   34.0490   45.5270 C   0  0  0  0  0  0  0  0  0  0  0  0
   44.6820   35.1020   45.5820 N   0  0  0  0  0  0  0  0  0  0  0  0
   45.5760   33.1690   46.7250 C   0  0  0  0  0  0  0  0  0  0  0  0
   46.9300   32.5630   46.9340 C   0  0  0  0  0  0  0  0  0  0  0  0
   45.5800   33.0230   40.8320 C   0  0  0  0  0  0  0  0  0  0  0  0
   46.1390   32.0460   41.6010 F   0  0  0  0  0  0  0  0  0  0  0  0
   45.4670   32.6860   39.4970 F   0  0  0  0  0  0  0  0  0  0  0  0
   44.3020   33.2830   41.3010 F   0  0  0  0  0  0  0  0  0  0  0  0
   47.4511   33.3256   42.4329 H   0  0  0  0  0  0  0  0  0  0  0  0
   45.7516   35.1719   40.6424 H   0  0  0  0  0  0  0  0  0  0  0  0
   47.3137   34.4870   38.9044 H   0  0  0  0  0  0  0  0  0  0  0  0
   47.9794   33.1741   39.8352 H   0  0  0  0  0  0  0  0  0  0  0  0
   49.5965   34.7870   40.4927 H   0  0  0  0  0  0  0  0  0  0  0  0
   48.5584   36.1465   40.0057 H   0  0  0  0  0  0  0  0  0  0  0  0
   49.0201   35.1966   42.6517 H   0  0  0  0  0  0  0  0  0  0  0  0
   47.8289   36.3992   42.1955 H   0  0  0  0  0  0  0  0  0  0  0  0
   43.8979   36.7960   44.5830 H   0  0  0  0  0  0  0  0  0  0  0  0
   45.2792   36.4202   42.5200 H   0  0  0  0  0  0  0  0  0  0  0  0
   45.3151   33.7650   47.6119 H   0  0  0  0  0  0  0  0  0  0  0  0
   44.8618   32.3474   46.5669 H   0  0  0  0  0  0  0  0  0  0  0  0
   47.1293   32.4738   48.0121 H   0  0  0  0  0  0  0  0  0  0  0  0
   46.9605   31.5653   46.4717 H   0  0  0  0  0  0  0  0  0  0  0  0
   47.6943   33.2049   46.4717 H   0  0  0  0  0  0  0  0  0  0  0  0
  1  8  1  0
  2  1  1  0
  3  4  1  0
  3  2  1  0
  4  5  1  0
  5  1  1  0
  6 11  2  0
  7  6  1  0
  8  7  2  0
  8  9  1  0
  9 10  2  0
 10 11  1  0
 10 12  1  0
 12 13  1  0
 14  2  1  0
 14 17  1  0
 14 15  1  0
 16 14  1  0
  1 18  1  1
  2 19  1  6
  3 20  1  0
  3 21  1  0
  4 22  1  0
  4 23  1  0
  5 24  1  0
  5 25  1  0
  6 26  1  0
  7 27  1  0
 12 28  1  0
 12 29  1  0
 13 30  1  0
 13 31  1  0
 13 32  1  0
M  ISO  8  18  13  19  13  20  13  21  13  22  13  23  13  24  13  25  13
M  ISO  7  26  14  27  14  28   8  29   8  30   8  31   8  32   8
M  END
>  <minimizedAffinity>  (1) 
-5.20282984

>  <minimizedRMSD>  (1) 
0.12894024

$$$$
