
     RDKit          3D

 29 30  0  0  1  0  0  0  0  0999 V2000
   47.0580   34.3030   42.2090 C   0  0  1  0  0  0  0  0  0  0  0  0
   46.3620   34.3180   40.9140 C   0  0  1  0  0  0  0  0  0  0  0  0
   47.5340   34.1990   39.9590 C   0  0  0  0  0  0  0  0  0  0  0  0
   48.5240   35.1720   40.5730 C   0  0  0  0  0  0  0  0  0  0  0  0
   48.1350   35.3660   42.0120 C   0  0  0  0  0  0  0  0  0  0  0  0
   44.5830   35.8450   44.6350 C   0  0  0  0  0  0  0  0  0  0  0  0
   45.3320   35.6710   43.4560 C   0  0  0  0  0  0  0  0  0  0  0  0
   46.2310   34.5760   43.3860 C   0  0  0  0  0  0  0  0  0  0  0  0
   46.2940   33.7860   44.4700 N   0  0  0  0  0  0  0  0  0  0  0  0
   45.5690   33.9650   45.5970 C   0  0  0  0  0  0  0  0  0  0  0  0
   44.7030   35.0140   45.6690 N   0  0  0  0  0  0  0  0  0  0  0  0
   45.7100   33.0330   46.7430 C   0  0  0  0  0  0  0  0  0  0  0  0
   45.5190   33.0270   40.8640 C   0  0  0  0  0  0  0  0  0  0  0  0
   46.0810   32.0400   41.6140 F   0  0  0  0  0  0  0  0  0  0  0  0
   45.3970   32.7140   39.5170 F   0  0  0  0  0  0  0  0  0  0  0  0
   44.2470   33.2830   41.3410 F   0  0  0  0  0  0  0  0  0  0  0  0
   47.4330   33.2954   42.4414 H   0  0  0  0  0  0  0  0  0  0  0  0
   45.7101   35.1803   40.7103 H   0  0  0  0  0  0  0  0  0  0  0  0
   47.2536   34.5009   38.9391 H   0  0  0  0  0  0  0  0  0  0  0  0
   47.9208   33.1752   39.8487 H   0  0  0  0  0  0  0  0  0  0  0  0
   49.5422   34.7604   40.5116 H   0  0  0  0  0  0  0  0  0  0  0  0
   48.5082   36.1314   40.0351 H   0  0  0  0  0  0  0  0  0  0  0  0
   48.9905   35.1941   42.6817 H   0  0  0  0  0  0  0  0  0  0  0  0
   47.7915   36.3859   42.2398 H   0  0  0  0  0  0  0  0  0  0  0  0
   43.8807   36.6888   44.7042 H   0  0  0  0  0  0  0  0  0  0  0  0
   45.2230   36.3663   42.6106 H   0  0  0  0  0  0  0  0  0  0  0  0
   45.6250   33.5946   47.6850 H   0  0  0  0  0  0  0  0  0  0  0  0
   44.9167   32.2724   46.6968 H   0  0  0  0  0  0  0  0  0  0  0  0
   46.6928   32.5411   46.6968 H   0  0  0  0  0  0  0  0  0  0  0  0
  1  8  1  0
  2  1  1  0
  3  4  1  0
  3  2  1  0
  4  5  1  0
  5  1  1  0
  6 11  2  0
  7  6  1  0
  8  7  2  0
  8  9  1  0
  9 10  2  0
 10 11  1  0
 10 12  1  0
 13  2  1  0
 13 16  1  0
 13 14  1  0
 15 13  1  0
  1 17  1  1
  2 18  1  6
  3 19  1  0
  3 20  1  0
  4 21  1  0
  4 22  1  0
  5 23  1  0
  5 24  1  0
  6 25  1  0
  7 26  1  0
 12 27  1  0
 12 28  1  0
 12 29  1  0
M  ISO  8  17  13  18  13  19  13  20  13  21  13  22  13  23  13  24  13
M  ISO  5  25  14  26  14  27   8  28   8  29   8
M  END
>  <minimizedAffinity>  (1) 
-5.11329699

>  <minimizedRMSD>  (1) 
0.132761613

$$$$
