
     RDKit          3D

 23 23  0  0  0  0  0  0  0  0999 V2000
   45.7340   34.4810   42.6670 C   0  0  0  0  0  0  0  0  0  0  0  0
   45.2390   34.3140   45.0830 C   0  0  0  0  0  0  0  0  0  0  0  0
   46.0110   33.8520   43.9800 C   0  0  0  0  0  0  0  0  0  0  0  0
   46.9460   32.8550   44.2340 C   0  0  0  0  0  0  0  0  0  0  0  0
   47.0710   32.3850   45.4940 N   0  0  0  0  0  0  0  0  0  0  0  0
   46.3200   32.8490   46.5170 C   0  0  0  0  0  0  0  0  0  0  0  0
   45.4120   33.8050   46.3140 N   0  0  0  0  0  0  0  0  0  0  0  0
   45.6440   35.9750   42.8320 C   0  0  0  0  0  0  0  0  0  0  0  0
   44.3990   33.9860   42.1620 C   0  0  0  0  0  0  0  0  0  0  0  0
   46.8420   34.1130   41.6980 C   0  0  0  0  0  0  0  0  0  0  0  0
   48.1960   35.2840   41.7270 S   0  0  0  0  0  0  0  0  0  0  0  0
   44.4876   35.1016   44.9246 H   0  0  0  0  0  0  0  0  0  0  0  0
   47.5730   32.4560   43.4230 H   0  0  0  0  0  0  0  0  0  0  0  0
   46.4586   32.4346   47.5265 H   0  0  0  0  0  0  0  0  0  0  0  0
   45.6289   36.2254   43.9030 H   0  0  0  0  0  0  0  0  0  0  0  0
   46.5152   36.4495   42.3568 H   0  0  0  0  0  0  0  0  0  0  0  0
   44.7221   36.3415   42.3568 H   0  0  0  0  0  0  0  0  0  0  0  0
   43.7499   33.7453   43.0169 H   0  0  0  0  0  0  0  0  0  0  0  0
   43.9253   34.7682   41.5507 H   0  0  0  0  0  0  0  0  0  0  0  0
   44.5498   33.0840   41.5507 H   0  0  0  0  0  0  0  0  0  0  0  0
   46.4248   34.0815   40.6807 H   0  0  0  0  0  0  0  0  0  0  0  0
   47.2405   33.1340   42.0025 H   0  0  0  0  0  0  0  0  0  0  0  0
   48.5255   35.5690   43.0259 H   0  0  0  0  0  0  0  0  0  0  0  0
  1  8  1  0
  1  3  1  0
  2  7  2  0
  3  4  2  0
  3  2  1  0
  4  5  1  0
  5  6  2  0
  7  6  1  0
  9  1  1  0
 10 11  1  0
 10  1  1  0
  2 12  1  0
  4 13  1  0
  6 14  1  0
  8 15  1  0
  8 16  1  0
  8 17  1  0
  9 18  1  0
  9 19  1  0
  9 20  1  0
 10 21  1  0
 10 22  1  0
 11 23  1  0
M  ISO  8  12  14  13  14  14  14  15   8  16   8  17   8  18   8  19   8
M  ISO  4  20   8  21   8  22   8  23  11
M  END
>  <minimizedAffinity>  (1) 
-3.1134367

>  <minimizedRMSD>  (1) 
0.73821485

$$$$
