
     RDKit          3D

 46 47  0  0  1  0  0  0  0  0999 V2000
   46.1790   33.9420   42.4570 N   0  0  0  0  0  0  0  0  0  0  0  0
   44.8140   33.5560   42.3480 C   0  0  0  0  0  0  0  0  0  0  0  0
   44.5880   32.3230   41.5330 C   0  0  0  0  0  0  0  0  0  0  0  0
   45.6340   31.2810   41.5570 C   0  0  0  0  0  0  0  0  0  0  0  0
   46.9810   31.7850   42.0280 C   0  0  0  0  0  0  0  0  0  0  0  0
   47.0750   33.2250   41.6620 C   0  0  2  0  0  0  0  0  0  0  0  0
   48.4470   33.6660   41.4450 C   0  0  0  0  0  0  0  0  0  0  0  0
   49.3470   32.8640   40.5640 C   0  0  0  0  0  0  0  0  0  0  0  0
   49.1950   33.9200   42.7770 C   0  0  0  0  0  0  0  0  0  0  0  0
   48.3820   35.0640   40.8250 C   0  0  0  0  0  0  0  0  0  0  0  0
   46.5370   34.0490   43.8160 C   0  0  0  0  0  0  0  0  0  0  0  0
   45.4670   33.5770   44.7870 C   0  0  1  0  0  0  0  0  0  0  0  0
   46.8070   32.9340   46.8750 C   0  0  0  0  0  0  0  0  0  0  0  0
   46.0860   32.6040   45.6990 C   0  0  0  0  0  0  0  0  0  0  0  0
   45.9810   31.2530   45.3870 C   0  0  0  0  0  0  0  0  0  0  0  0
   46.5520   30.3260   46.1890 N   0  0  0  0  0  0  0  0  0  0  0  0
   47.2340   30.6720   47.3050 C   0  0  0  0  0  0  0  0  0  0  0  0
   47.3580   31.9970   47.6450 N   0  0  0  0  0  0  0  0  0  0  0  0
   44.9860   34.7760   45.5750 C   0  0  0  0  0  0  0  0  0  0  0  0
   44.4247   33.3759   43.3609 H   0  0  0  0  0  0  0  0  0  0  0  0
   44.2944   34.3760   41.8307 H   0  0  0  0  0  0  0  0  0  0  0  0
   44.4639   32.6393   40.4868 H   0  0  0  0  0  0  0  0  0  0  0  0
   43.7098   31.8448   41.9914 H   0  0  0  0  0  0  0  0  0  0  0  0
   45.3080   30.4766   42.2328 H   0  0  0  0  0  0  0  0  0  0  0  0
   45.7644   30.9312   40.5223 H   0  0  0  0  0  0  0  0  0  0  0  0
   47.0647   31.6688   43.1186 H   0  0  0  0  0  0  0  0  0  0  0  0
   47.7941   31.2126   41.5576 H   0  0  0  0  0  0  0  0  0  0  0  0
   46.7153   33.4548   40.6482 H   0  0  0  0  0  0  0  0  0  0  0  0
   50.0249   32.2599   41.1850 H   0  0  0  0  0  0  0  0  0  0  0  0
   48.7421   32.2001   39.9290 H   0  0  0  0  0  0  0  0  0  0  0  0
   49.9371   33.5411   39.9290 H   0  0  0  0  0  0  0  0  0  0  0  0
   48.5275   33.6933   43.6214 H   0  0  0  0  0  0  0  0  0  0  0  0
   50.0832   33.2731   42.8279 H   0  0  0  0  0  0  0  0  0  0  0  0
   49.5056   34.9740   42.8279 H   0  0  0  0  0  0  0  0  0  0  0  0
   48.3469   35.8185   41.6247 H   0  0  0  0  0  0  0  0  0  0  0  0
   49.2734   35.2308   40.2024 H   0  0  0  0  0  0  0  0  0  0  0  0
   47.4790   35.1474   40.2024 H   0  0  0  0  0  0  0  0  0  0  0  0
   47.4419   33.4460   43.9817 H   0  0  0  0  0  0  0  0  0  0  0  0
   46.6919   35.1195   44.0161 H   0  0  0  0  0  0  0  0  0  0  0  0
   44.6198   33.1140   44.2598 H   0  0  0  0  0  0  0  0  0  0  0  0
   46.9140   33.9914   47.1586 H   0  0  0  0  0  0  0  0  0  0  0  0
   45.4329   30.9380   44.4868 H   0  0  0  0  0  0  0  0  0  0  0  0
   47.6876   29.8950   47.9378 H   0  0  0  0  0  0  0  0  0  0  0  0
   45.0705   34.5653   46.6513 H   0  0  0  0  0  0  0  0  0  0  0  0
   45.6025   35.6515   45.3232 H   0  0  0  0  0  0  0  0  0  0  0  0
   43.9353   34.9827   45.3232 H   0  0  0  0  0  0  0  0  0  0  0  0
  1 11  1  0
  2  1  1  0
  3  4  1  0
  3  2  1  0
  4  5  1  0
  6  5  1  0
  6  1  1  0
  7  6  1  0
  7  9  1  0
  8  7  1  0
 10  7  1  0
 11 12  1  0
 12 19  1  0
 12 14  1  0
 13 18  2  0
 14 13  1  0
 15 14  2  0
 15 16  1  0
 16 17  2  0
 17 18  1  0
  2 20  1  0
  2 21  1  0
  3 22  1  0
  3 23  1  0
  4 24  1  0
  4 25  1  0
  5 26  1  0
  5 27  1  0
  6 28  1  6
  8 29  1  0
  8 30  1  0
  8 31  1  0
  9 32  1  0
  9 33  1  0
  9 34  1  0
 10 35  1  0
 10 36  1  0
 10 37  1  0
 11 38  1  0
 11 39  1  0
 12 40  1  6
 13 41  1  0
 15 42  1  0
 17 43  1  0
 19 44  1  0
 19 45  1  0
 19 46  1  0
M  ISO  8  20  13  21  13  22  13  23  13  24  13  25  13  26  13  27  13
M  ISO  8  28  13  29   8  30   8  31   8  32   8  33   8  34   8  35   8
M  ISO  8  36   8  37   8  38   8  39   8  40   8  41  14  42  14  43  14
M  ISO  3  44   8  45   8  46   8
M  END
>  <minimizedAffinity>  (1) 
-4.00478077

>  <minimizedRMSD>  (1) 
3.6854291

$$$$
