
     RDKit          3D

 48 50  0  0  1  0  0  0  0  0999 V2000
   42.7420   34.3810   40.5530 C   0  0  2  0  0  0  0  0  0  0  0  0
   42.5190   35.0480   39.2270 C   0  0  0  0  0  0  0  0  0  0  0  0
   41.0610   35.0670   38.8140 C   0  0  0  0  0  0  0  0  0  0  0  0
   40.1040   35.6860   39.7550 C   0  0  0  0  0  0  0  0  0  0  0  0
   40.8950   35.8930   41.0570 C   0  0  0  0  0  0  0  0  0  0  0  0
   41.4620   34.5220   41.3100 C   0  0  1  0  0  0  0  0  0  0  0  0
   40.5180   33.4600   41.2420 N   0  0  0  0  0  0  0  0  0  0  0  0
   39.2450   33.4750   40.8060 C   0  0  0  0  0  0  0  0  0  0  0  0
   38.3810   32.4340   40.7550 C   0  0  0  0  0  0  0  0  0  0  0  0
   38.8820   31.2130   41.2080 C   0  0  0  0  0  0  0  0  0  0  0  0
   38.1090   30.2210   41.1760 O   0  0  0  0  0  0  0  0  0  0  0  0
   40.1670   31.1850   41.6500 N   0  0  0  0  0  0  0  0  0  0  0  0
   40.9680   32.2650   41.6710 C   0  0  0  0  0  0  0  0  0  0  0  0
   42.0990   31.9510   42.1260 O   0  0  0  0  0  0  0  0  0  0  0  0
   43.8250   35.0490   41.3550 C   0  0  0  0  0  0  0  0  0  0  0  0
   44.9350   34.2370   41.8640 C   0  0  0  0  0  0  0  0  0  0  0  0
   45.6070   33.1020   43.9550 C   0  0  0  0  0  0  0  0  0  0  0  0
   45.0480   34.2340   43.3210 C   0  0  0  0  0  0  0  0  0  0  0  0
   44.6390   35.2460   44.1460 C   0  0  0  0  0  0  0  0  0  0  0  0
   44.7710   35.1460   45.4900 N   0  0  0  0  0  0  0  0  0  0  0  0
   45.3100   34.0450   46.0530 C   0  0  0  0  0  0  0  0  0  0  0  0
   45.7260   33.0280   45.2880 N   0  0  0  0  0  0  0  0  0  0  0  0
   44.8870   32.8240   41.3460 C   0  0  0  0  0  0  0  0  0  0  0  0
   46.2560   34.7690   41.2820 C   0  0  0  0  0  0  0  0  0  0  0  0
   43.0452   33.3368   40.3867 H   0  0  0  0  0  0  0  0  0  0  0  0
   42.8792   36.0854   39.2910 H   0  0  0  0  0  0  0  0  0  0  0  0
   43.0689   34.4696   38.4700 H   0  0  0  0  0  0  0  0  0  0  0  0
   40.9928   35.6155   37.8630 H   0  0  0  0  0  0  0  0  0  0  0  0
   40.7656   34.0087   38.7618 H   0  0  0  0  0  0  0  0  0  0  0  0
   39.7467   36.6498   39.3634 H   0  0  0  0  0  0  0  0  0  0  0  0
   39.2148   35.0572   39.9099 H   0  0  0  0  0  0  0  0  0  0  0  0
   41.6948   36.6363   40.9232 H   0  0  0  0  0  0  0  0  0  0  0  0
   40.2837   36.2766   41.8872 H   0  0  0  0  0  0  0  0  0  0  0  0
   41.7315   34.4192   42.3715 H   0  0  0  0  0  0  0  0  0  0  0  0
   38.8629   34.4433   40.4506 H   0  0  0  0  0  0  0  0  0  0  0  0
   37.3523   32.5434   40.3812 H   0  0  0  0  0  0  0  0  0  0  0  0
   40.5475   30.2890   41.9867 H   0  0  0  0  0  0  0  0  0  0  0  0
   44.2632   35.8307   40.7171 H   0  0  0  0  0  0  0  0  0  0  0  0
   43.3083   35.3899   42.2643 H   0  0  0  0  0  0  0  0  0  0  0  0
   45.9536   32.2594   43.3386 H   0  0  0  0  0  0  0  0  0  0  0  0
   44.1964   36.1543   43.7111 H   0  0  0  0  0  0  0  0  0  0  0  0
   45.4083   33.9824   47.1468 H   0  0  0  0  0  0  0  0  0  0  0  0
   44.8632   32.1233   42.1936 H   0  0  0  0  0  0  0  0  0  0  0  0
   43.9837   32.6887   40.7330 H   0  0  0  0  0  0  0  0  0  0  0  0
   45.7790   32.6277   40.7330 H   0  0  0  0  0  0  0  0  0  0  0  0
   46.9348   35.0424   42.1033 H   0  0  0  0  0  0  0  0  0  0  0  0
   46.7244   33.9894   40.6633 H   0  0  0  0  0  0  0  0  0  0  0  0
   46.0534   35.6556   40.6633 H   0  0  0  0  0  0  0  0  0  0  0  0
  1  6  1  0
  1 15  1  0
  2  1  1  0
  3  2  1  0
  3  4  1  0
  4  5  1  0
  5  6  1  0
  7  6  1  0
  7 13  1  0
  8  7  1  0
  9  8  2  0
  9 10  1  0
 10 12  1  0
 11 10  2  0
 12 13  1  0
 13 14  2  0
 15 16  1  0
 16 18  1  0
 17 22  2  0
 18 17  1  0
 18 19  2  0
 19 20  1  0
 20 21  2  0
 22 21  1  0
 23 16  1  0
 24 16  1  0
  1 25  1  6
  2 26  1  0
  2 27  1  0
  3 28  1  0
  3 29  1  0
  4 30  1  0
  4 31  1  0
  5 32  1  0
  5 33  1  0
  6 34  1  1
  8 35  1  0
  9 36  1  0
 12 37  1  0
 15 38  1  0
 15 39  1  0
 17 40  1  0
 19 41  1  0
 21 42  1  0
 23 43  1  0
 23 44  1  0
 23 45  1  0
 24 46  1  0
 24 47  1  0
 24 48  1  0
M  ISO  8  25  13  26  13  27  13  28  13  29  13  30  13  31  13  32  13
M  ISO  8  33  13  34  13  35  14  36  14  37   9  38   8  39   8  40  14
M  ISO  8  41  14  42  14  43   8  44   8  45   8  46   8  47   8  48   8
M  END
>  <minimizedAffinity>  (1) 
-6.24183512

>  <minimizedRMSD>  (1) 
0.507029831

$$$$
