
     RDKit          3D

 54 56  0  0  1  0  0  0  0  0999 V2000
   42.6770   34.4930   40.2730 C   0  0  2  0  0  0  0  0  0  0  0  0
   42.2180   35.2680   39.0790 C   0  0  0  0  0  0  0  0  0  0  0  0
   40.7240   35.3530   38.9340 C   0  0  0  0  0  0  0  0  0  0  0  0
   39.9390   35.8370   40.0800 C   0  0  0  0  0  0  0  0  0  0  0  0
   40.9180   35.8530   41.2560 C   0  0  0  0  0  0  0  0  0  0  0  0
   41.5430   34.4760   41.2470 C   0  0  1  0  0  0  0  0  0  0  0  0
   40.5730   33.3680   41.1930 C   0  0  0  0  0  0  0  0  0  0  0  0
   39.2430   33.6350   40.5740 C   0  0  0  0  0  0  0  0  0  0  0  0
   38.3560   32.4270   40.7940 C   0  0  0  0  0  0  0  0  0  0  0  0
   38.9380   31.1790   40.1750 C   0  0  0  0  0  0  0  0  0  0  0  0
   40.3690   30.9590   40.5480 C   0  0  0  0  0  0  0  0  0  0  0  0
   41.1230   32.2420   40.2840 C   0  0  0  0  0  0  0  0  0  0  0  0
   43.8770   35.1060   40.9440 C   0  0  0  0  0  0  0  0  0  0  0  0
   44.8130   34.2440   41.6530 C   0  0  0  0  0  0  0  0  0  0  0  0
   45.4030   33.3840   43.8920 C   0  0  0  0  0  0  0  0  0  0  0  0
   44.8660   34.4270   43.0980 C   0  0  0  0  0  0  0  0  0  0  0  0
   44.4260   35.5340   43.7710 C   0  0  0  0  0  0  0  0  0  0  0  0
   44.5160   35.5920   45.1210 N   0  0  0  0  0  0  0  0  0  0  0  0
   45.0320   34.5820   45.8430 C   0  0  0  0  0  0  0  0  0  0  0  0
   45.4660   33.4970   45.2270 N   0  0  0  0  0  0  0  0  0  0  0  0
   44.5840   32.7890   41.3340 C   0  0  0  0  0  0  0  0  0  0  0  0
   46.2310   34.4620   41.0910 C   0  0  0  0  0  0  0  0  0  0  0  0
   42.9726   33.4860   39.9436 H   0  0  0  0  0  0  0  0  0  0  0  0
   42.6152   36.2907   39.1585 H   0  0  0  0  0  0  0  0  0  0  0  0
   42.5907   34.7325   38.1934 H   0  0  0  0  0  0  0  0  0  0  0  0
   40.5165   36.0264   38.0893 H   0  0  0  0  0  0  0  0  0  0  0  0
   40.4035   34.3084   38.8069 H   0  0  0  0  0  0  0  0  0  0  0  0
   39.5538   36.8486   39.8845 H   0  0  0  0  0  0  0  0  0  0  0  0
   39.0654   35.1991   40.2798 H   0  0  0  0  0  0  0  0  0  0  0  0
   41.6846   36.6289   41.1132 H   0  0  0  0  0  0  0  0  0  0  0  0
   40.4213   36.0807   42.2107 H   0  0  0  0  0  0  0  0  0  0  0  0
   41.9904   34.2330   42.2221 H   0  0  0  0  0  0  0  0  0  0  0  0
   40.4385   33.1427   42.2613 H   0  0  0  0  0  0  0  0  0  0  0  0
   39.3654   33.8133   39.4955 H   0  0  0  0  0  0  0  0  0  0  0  0
   38.7868   34.5246   41.0329 H   0  0  0  0  0  0  0  0  0  0  0  0
   38.2378   32.2652   41.8756 H   0  0  0  0  0  0  0  0  0  0  0  0
   37.3865   32.6248   40.3135 H   0  0  0  0  0  0  0  0  0  0  0  0
   38.8696   31.2651   39.0805 H   0  0  0  0  0  0  0  0  0  0  0  0
   38.3619   30.3222   40.5544 H   0  0  0  0  0  0  0  0  0  0  0  0
   40.4408   30.6963   41.6138 H   0  0  0  0  0  0  0  0  0  0  0  0
   40.7960   30.1361   39.9560 H   0  0  0  0  0  0  0  0  0  0  0  0
   42.1911   32.0888   40.4976 H   0  0  0  0  0  0  0  0  0  0  0  0
   40.9942   32.5295   39.2301 H   0  0  0  0  0  0  0  0  0  0  0  0
   44.4495   35.6286   40.1635 H   0  0  0  0  0  0  0  0  0  0  0  0
   43.4419   35.7292   41.7392 H   0  0  0  0  0  0  0  0  0  0  0  0
   45.7734   32.4688   43.4070 H   0  0  0  0  0  0  0  0  0  0  0  0
   43.9976   36.3800   43.2135 H   0  0  0  0  0  0  0  0  0  0  0  0
   45.0923   34.6586   46.9387 H   0  0  0  0  0  0  0  0  0  0  0  0
   44.4942   32.2182   42.2700 H   0  0  0  0  0  0  0  0  0  0  0  0
   43.6581   32.6831   40.7496 H   0  0  0  0  0  0  0  0  0  0  0  0
   45.4326   32.4038   40.7496 H   0  0  0  0  0  0  0  0  0  0  0  0
   46.9423   34.5714   41.9229 H   0  0  0  0  0  0  0  0  0  0  0  0
   46.5180   33.5974   40.4744 H   0  0  0  0  0  0  0  0  0  0  0  0
   46.2450   35.3729   40.4744 H   0  0  0  0  0  0  0  0  0  0  0  0
  1 13  1  0
  1  6  1  0
  2  1  1  0
  3  2  1  0
  3  4  1  0
  4  5  1  0
  6  5  1  0
  7  6  1  0
  8  9  1  0
  8  7  1  0
 10 11  1  0
 10  9  1  0
 12 11  1  0
 12  7  1  0
 13 14  1  0
 14 16  1  0
 15 20  2  0
 16 17  2  0
 16 15  1  0
 17 18  1  0
 18 19  2  0
 20 19  1  0
 21 14  1  0
 22 14  1  0
  1 23  1  6
  2 24  1  0
  2 25  1  0
  3 26  1  0
  3 27  1  0
  4 28  1  0
  4 29  1  0
  5 30  1  0
  5 31  1  0
  6 32  1  1
  7 33  1  0
  8 34  1  0
  8 35  1  0
  9 36  1  0
  9 37  1  0
 10 38  1  0
 10 39  1  0
 11 40  1  0
 11 41  1  0
 12 42  1  0
 12 43  1  0
 13 44  1  0
 13 45  1  0
 15 46  1  0
 17 47  1  0
 19 48  1  0
 21 49  1  0
 21 50  1  0
 21 51  1  0
 22 52  1  0
 22 53  1  0
 22 54  1  0
M  ISO  8  23  13  24  13  25  13  26  13  27  13  28  13  29  13  30  13
M  ISO  8  31  13  32  13  33  13  34  13  35  13  36  13  37  13  38  13
M  ISO  8  39  13  40  13  41  13  42  13  43  13  44   8  45   8  46  14
M  ISO  8  47  14  48  14  49   8  50   8  51   8  52   8  53   8  54   8
M  END
>  <minimizedAffinity>  (1) 
-6.16362333

>  <minimizedRMSD>  (1) 
0.468991339

$$$$
