
     RDKit          3D

 48 50  0  0  1  0  0  0  0  0999 V2000
   42.7280   34.4720   40.1800 C   0  0  2  0  0  0  0  0  0  0  0  0
   42.2630   35.3450   39.0550 C   0  0  0  0  0  0  0  0  0  0  0  0
   40.7620   35.3210   38.8570 C   0  0  0  0  0  0  0  0  0  0  0  0
   39.9200   35.6740   40.0120 C   0  0  0  0  0  0  0  0  0  0  0  0
   40.8520   35.6620   41.2310 C   0  0  0  0  0  0  0  0  0  0  0  0
   41.5780   34.3310   41.1110 C   0  0  1  0  0  0  0  0  0  0  0  0
   40.6620   33.2280   40.9770 C   0  0  0  0  0  0  0  0  0  0  0  0
   39.3690   32.9890   41.4010 C   0  0  0  0  0  0  0  0  0  0  0  0
   38.6430   31.8620   41.1980 C   0  0  0  0  0  0  0  0  0  0  0  0
   39.1890   30.8260   40.5130 C   0  0  0  0  0  0  0  0  0  0  0  0
   40.4660   30.9810   40.0580 C   0  0  0  0  0  0  0  0  0  0  0  0
   41.1910   32.1310   40.2720 C   0  0  0  0  0  0  0  0  0  0  0  0
   43.8560   35.0930   40.9640 C   0  0  0  0  0  0  0  0  0  0  0  0
   44.8220   34.2120   41.6380 C   0  0  0  0  0  0  0  0  0  0  0  0
   45.4150   33.3750   43.8910 C   0  0  0  0  0  0  0  0  0  0  0  0
   44.8750   34.4110   43.0880 C   0  0  0  0  0  0  0  0  0  0  0  0
   44.4310   35.5190   43.7530 C   0  0  0  0  0  0  0  0  0  0  0  0
   44.5100   35.5980   45.1040 N   0  0  0  0  0  0  0  0  0  0  0  0
   45.0270   34.5930   45.8300 C   0  0  0  0  0  0  0  0  0  0  0  0
   45.4730   33.4970   45.2250 N   0  0  0  0  0  0  0  0  0  0  0  0
   44.5730   32.7580   41.3290 C   0  0  0  0  0  0  0  0  0  0  0  0
   46.2240   34.4720   41.0700 C   0  0  0  0  0  0  0  0  0  0  0  0
   43.0837   33.5191   39.7612 H   0  0  0  0  0  0  0  0  0  0  0  0
   42.5704   36.3798   39.2665 H   0  0  0  0  0  0  0  0  0  0  0  0
   42.7188   34.9565   38.1323 H   0  0  0  0  0  0  0  0  0  0  0  0
   40.5247   36.0272   38.0477 H   0  0  0  0  0  0  0  0  0  0  0  0
   40.5231   34.2681   38.6464 H   0  0  0  0  0  0  0  0  0  0  0  0
   39.4821   36.6737   39.8750 H   0  0  0  0  0  0  0  0  0  0  0  0
   39.0856   34.9677   40.1345 H   0  0  0  0  0  0  0  0  0  0  0  0
   41.5615   36.5016   41.1915 H   0  0  0  0  0  0  0  0  0  0  0  0
   40.3125   35.7710   42.1834 H   0  0  0  0  0  0  0  0  0  0  0  0
   42.0742   34.0330   42.0464 H   0  0  0  0  0  0  0  0  0  0  0  0
   38.8772   33.7974   41.9618 H   0  0  0  0  0  0  0  0  0  0  0  0
   37.6166   31.7880   41.5867 H   0  0  0  0  0  0  0  0  0  0  0  0
   38.6253   29.8990   40.3318 H   0  0  0  0  0  0  0  0  0  0  0  0
   40.9332   30.1564   39.4996 H   0  0  0  0  0  0  0  0  0  0  0  0
   42.2166   32.1947   39.8795 H   0  0  0  0  0  0  0  0  0  0  0  0
   44.4262   35.7230   40.2655 H   0  0  0  0  0  0  0  0  0  0  0  0
   43.3496   35.6128   41.7907 H   0  0  0  0  0  0  0  0  0  0  0  0
   45.7916   32.4586   43.4132 H   0  0  0  0  0  0  0  0  0  0  0  0
   44.0037   36.3582   43.1845 H   0  0  0  0  0  0  0  0  0  0  0  0
   45.0812   34.6772   46.9254 H   0  0  0  0  0  0  0  0  0  0  0  0
   44.4765   32.1947   42.2689 H   0  0  0  0  0  0  0  0  0  0  0  0
   43.6451   32.6607   40.7463 H   0  0  0  0  0  0  0  0  0  0  0  0
   45.4156   32.3575   40.7463 H   0  0  0  0  0  0  0  0  0  0  0  0
   46.9363   34.6041   41.8978 H   0  0  0  0  0  0  0  0  0  0  0  0
   46.5340   33.6160   40.4526 H   0  0  0  0  0  0  0  0  0  0  0  0
   46.2065   35.3822   40.4526 H   0  0  0  0  0  0  0  0  0  0  0  0
  1 13  1  0
  1  6  1  0
  2  1  1  0
  3  2  1  0
  3  4  1  0
  4  5  1  0
  6  5  1  0
  7  6  1  0
  7  8  2  0
  9  8  1  0
 10  9  2  0
 11 12  2  0
 11 10  1  0
 12  7  1  0
 13 14  1  0
 14 16  1  0
 15 20  2  0
 16 17  2  0
 16 15  1  0
 17 18  1  0
 18 19  2  0
 20 19  1  0
 21 14  1  0
 22 14  1  0
  1 23  1  6
  2 24  1  0
  2 25  1  0
  3 26  1  0
  3 27  1  0
  4 28  1  0
  4 29  1  0
  5 30  1  0
  5 31  1  0
  6 32  1  1
  8 33  1  0
  9 34  1  0
 10 35  1  0
 11 36  1  0
 12 37  1  0
 13 38  1  0
 13 39  1  0
 15 40  1  0
 17 41  1  0
 19 42  1  0
 21 43  1  0
 21 44  1  0
 21 45  1  0
 22 46  1  0
 22 47  1  0
 22 48  1  0
M  ISO  8  23  13  24  13  25  13  26  13  27  13  28  13  29  13  30  13
M  ISO  8  31  13  32  13  33  14  34  14  35  14  36  14  37  14  38   8
M  ISO  8  39   8  40  14  41  14  42  14  43   8  44   8  45   8  46   8
M  ISO  2  47   8  48   8
M  END
>  <minimizedAffinity>  (1) 
-6.02600288

>  <minimizedRMSD>  (1) 
0.648516595

$$$$
