
     RDKit          3D

 51 53  0  0  1  0  0  0  0  0999 V2000
   42.6070   34.4490   40.2640 C   0  0  2  0  0  0  0  0  0  0  0  0
   42.0680   35.1520   39.0650 C   0  0  0  0  0  0  0  0  0  0  0  0
   40.5230   35.1470   39.0840 C   0  0  0  0  0  0  0  0  0  0  0  0
   39.9690   35.9940   40.1830 C   0  0  0  0  0  0  0  0  0  0  0  0
   41.0140   35.9990   41.2970 C   0  0  0  0  0  0  0  0  0  0  0  0
   41.5670   34.6000   41.3610 C   0  0  1  0  0  0  0  0  0  0  0  0
   40.5430   33.6470   41.4080 N   0  0  0  0  0  0  0  0  0  0  0  0
   41.1160   32.3230   41.5590 C   0  0  0  0  0  0  0  0  0  0  0  0
   40.5640   31.3750   40.4860 C   0  0  0  0  0  0  0  0  0  0  0  0
   39.1980   31.2710   40.5530 O   0  0  0  0  0  0  0  0  0  0  0  0
   38.5880   32.4920   40.8140 C   0  0  0  0  0  0  0  0  0  0  0  0
   39.5700   33.5960   40.3820 C   0  0  0  0  0  0  0  0  0  0  0  0
   43.8850   35.0320   40.7850 C   0  0  0  0  0  0  0  0  0  0  0  0
   44.8380   34.1760   41.5010 C   0  0  0  0  0  0  0  0  0  0  0  0
   45.3680   33.4050   43.7910 C   0  0  0  0  0  0  0  0  0  0  0  0
   44.8800   34.4180   42.9430 C   0  0  0  0  0  0  0  0  0  0  0  0
   44.4690   35.5700   43.5590 C   0  0  0  0  0  0  0  0  0  0  0  0
   44.5310   35.7120   44.8980 N   0  0  0  0  0  0  0  0  0  0  0  0
   45.0110   34.7010   45.6770 C   0  0  0  0  0  0  0  0  0  0  0  0
   45.4210   33.5660   45.1210 N   0  0  0  0  0  0  0  0  0  0  0  0
   44.6130   32.7120   41.2350 C   0  0  0  0  0  0  0  0  0  0  0  0
   46.2520   34.4040   40.9320 C   0  0  0  0  0  0  0  0  0  0  0  0
   42.8164   33.4082   39.9761 H   0  0  0  0  0  0  0  0  0  0  0  0
   42.4205   34.6411   38.1569 H   0  0  0  0  0  0  0  0  0  0  0  0
   42.4206   36.1939   39.0750 H   0  0  0  0  0  0  0  0  0  0  0  0
   40.1557   35.5315   38.1211 H   0  0  0  0  0  0  0  0  0  0  0  0
   40.1909   34.1124   39.2551 H   0  0  0  0  0  0  0  0  0  0  0  0
   39.7940   37.0182   39.8218 H   0  0  0  0  0  0  0  0  0  0  0  0
   39.0071   35.5995   40.5423 H   0  0  0  0  0  0  0  0  0  0  0  0
   41.8156   36.7156   41.0646 H   0  0  0  0  0  0  0  0  0  0  0  0
   40.5730   36.2999   42.2587 H   0  0  0  0  0  0  0  0  0  0  0  0
   42.1010   34.4081   42.3033 H   0  0  0  0  0  0  0  0  0  0  0  0
   42.2094   32.3877   41.4576 H   0  0  0  0  0  0  0  0  0  0  0  0
   40.8507   31.9308   42.5519 H   0  0  0  0  0  0  0  0  0  0  0  0
   41.0047   30.3776   40.6311 H   0  0  0  0  0  0  0  0  0  0  0  0
   40.8281   31.7839   39.4995 H   0  0  0  0  0  0  0  0  0  0  0  0
   37.6524   32.5753   40.2416 H   0  0  0  0  0  0  0  0  0  0  0  0
   38.3435   32.5846   41.8825 H   0  0  0  0  0  0  0  0  0  0  0  0
   40.0373   33.3419   39.4191 H   0  0  0  0  0  0  0  0  0  0  0  0
   39.0663   34.5641   40.2436 H   0  0  0  0  0  0  0  0  0  0  0  0
   44.4202   35.4505   39.9199 H   0  0  0  0  0  0  0  0  0  0  0  0
   43.5470   35.7390   41.5569 H   0  0  0  0  0  0  0  0  0  0  0  0
   45.7143   32.4581   43.3512 H   0  0  0  0  0  0  0  0  0  0  0  0
   44.0798   36.3975   42.9477 H   0  0  0  0  0  0  0  0  0  0  0  0
   45.0589   34.8254   46.7689 H   0  0  0  0  0  0  0  0  0  0  0  0
   44.5303   32.1741   42.1910 H   0  0  0  0  0  0  0  0  0  0  0  0
   43.6844   32.5823   40.6598 H   0  0  0  0  0  0  0  0  0  0  0  0
   45.4598   32.3095   40.6598 H   0  0  0  0  0  0  0  0  0  0  0  0
   46.9664   34.5192   41.7604 H   0  0  0  0  0  0  0  0  0  0  0  0
   46.5424   33.5411   40.3147 H   0  0  0  0  0  0  0  0  0  0  0  0
   46.2564   35.3145   40.3147 H   0  0  0  0  0  0  0  0  0  0  0  0
  1 13  1  0
  1  6  1  0
  2  3  1  0
  2  1  1  0
  3  4  1  0
  4  5  1  0
  5  6  1  0
  6  7  1  0
  7  8  1  0
  9 10  1  0
  9  8  1  0
 10 11  1  0
 12 11  1  0
 12  7  1  0
 13 14  1  0
 14 16  1  0
 15 20  2  0
 16 17  2  0
 16 15  1  0
 17 18  1  0
 18 19  2  0
 20 19  1  0
 21 14  1  0
 22 14  1  0
  1 23  1  6
  2 24  1  0
  2 25  1  0
  3 26  1  0
  3 27  1  0
  4 28  1  0
  4 29  1  0
  5 30  1  0
  5 31  1  0
  6 32  1  1
  8 33  1  0
  8 34  1  0
  9 35  1  0
  9 36  1  0
 11 37  1  0
 11 38  1  0
 12 39  1  0
 12 40  1  0
 13 41  1  0
 13 42  1  0
 15 43  1  0
 17 44  1  0
 19 45  1  0
 21 46  1  0
 21 47  1  0
 21 48  1  0
 22 49  1  0
 22 50  1  0
 22 51  1  0
M  ISO  8  23  13  24  13  25  13  26  13  27  13  28  13  29  13  30  13
M  ISO  8  31  13  32  13  33  13  34  13  35  13  36  13  37  13  38  13
M  ISO  8  39  13  40  13  41   8  42   8  43  14  44  14  45  14  46   8
M  ISO  5  47   8  48   8  49   8  50   8  51   8
M  END
>  <minimizedAffinity>  (1) 
-5.94361639

>  <minimizedRMSD>  (1) 
0.846506059

$$$$
