
     RDKit          3D

 44 46  0  0  1  0  0  0  0  0999 V2000
   43.9090   35.1130   40.9420 C   0  0  0  0  0  0  0  0  0  0  0  0
   42.7460   34.4980   40.2200 C   0  0  2  0  0  0  0  0  0  0  0  0
   42.2080   35.3670   39.1250 C   0  0  0  0  0  0  0  0  0  0  0  0
   40.6970   35.2870   38.9900 C   0  0  0  0  0  0  0  0  0  0  0  0
   39.9300   35.6980   40.1790 C   0  0  0  0  0  0  0  0  0  0  0  0
   40.9000   35.6310   41.3590 C   0  0  0  0  0  0  0  0  0  0  0  0
   41.6180   34.3350   41.2010 C   0  0  1  0  0  0  0  0  0  0  0  0
   40.7950   33.1950   40.9530 N   0  0  0  0  0  0  0  0  0  0  0  0
   40.8020   32.1370   40.1200 C   0  0  0  0  0  0  0  0  0  0  0  0
   39.7020   31.3970   40.4020 N   0  0  0  0  0  0  0  0  0  0  0  0
   39.0200   31.9870   41.3990 C   0  0  0  0  0  0  0  0  0  0  0  0
   39.7190   33.0910   41.7150 N   0  0  0  0  0  0  0  0  0  0  0  0
   44.8360   34.2390   41.6510 C   0  0  0  0  0  0  0  0  0  0  0  0
   45.4190   33.3760   43.8890 C   0  0  0  0  0  0  0  0  0  0  0  0
   44.8810   34.4170   43.0960 C   0  0  0  0  0  0  0  0  0  0  0  0
   44.4380   35.5200   43.7670 C   0  0  0  0  0  0  0  0  0  0  0  0
   44.5220   35.5850   45.1180 N   0  0  0  0  0  0  0  0  0  0  0  0
   45.0430   34.5690   45.8400 C   0  0  0  0  0  0  0  0  0  0  0  0
   45.4860   33.4740   45.2230 N   0  0  0  0  0  0  0  0  0  0  0  0
   44.6220   32.7840   41.3210 C   0  0  0  0  0  0  0  0  0  0  0  0
   46.2700   34.4560   41.0950 C   0  0  0  0  0  0  0  0  0  0  0  0
   43.4962   35.8148   41.6816 H   0  0  0  0  0  0  0  0  0  0  0  0
   44.5187   35.5529   40.1391 H   0  0  0  0  0  0  0  0  0  0  0  0
   43.1047   33.5520   39.7882 H   0  0  0  0  0  0  0  0  0  0  0  0
   42.4860   36.4100   39.3370 H   0  0  0  0  0  0  0  0  0  0  0  0
   42.6416   35.0098   38.1793 H   0  0  0  0  0  0  0  0  0  0  0  0
   40.3970   35.9346   38.1530 H   0  0  0  0  0  0  0  0  0  0  0  0
   40.4642   34.2233   38.8341 H   0  0  0  0  0  0  0  0  0  0  0  0
   39.5531   36.7238   40.0534 H   0  0  0  0  0  0  0  0  0  0  0  0
   39.0596   35.0447   40.3391 H   0  0  0  0  0  0  0  0  0  0  0  0
   41.6088   36.4715   41.3240 H   0  0  0  0  0  0  0  0  0  0  0  0
   40.3778   35.6967   42.3249 H   0  0  0  0  0  0  0  0  0  0  0  0
   42.0399   34.0890   42.1866 H   0  0  0  0  0  0  0  0  0  0  0  0
   41.5592   31.9148   39.3537 H   0  0  0  0  0  0  0  0  0  0  0  0
   38.0842   31.6387   41.8605 H   0  0  0  0  0  0  0  0  0  0  0  0
   45.7911   32.4646   43.3982 H   0  0  0  0  0  0  0  0  0  0  0  0
   44.0091   36.3635   43.2062 H   0  0  0  0  0  0  0  0  0  0  0  0
   45.1015   34.6454   46.9358 H   0  0  0  0  0  0  0  0  0  0  0  0
   44.5369   32.2054   42.2526 H   0  0  0  0  0  0  0  0  0  0  0  0
   43.6979   32.6731   40.7348 H   0  0  0  0  0  0  0  0  0  0  0  0
   45.4750   32.4117   40.7348 H   0  0  0  0  0  0  0  0  0  0  0  0
   46.9756   34.5628   41.9321 H   0  0  0  0  0  0  0  0  0  0  0  0
   46.5594   33.5914   40.4796 H   0  0  0  0  0  0  0  0  0  0  0  0
   46.2906   35.3675   40.4796 H   0  0  0  0  0  0  0  0  0  0  0  0
  1 13  1  0
  2  1  1  0
  2  7  1  0
  3  2  1  0
  4  3  1  0
  4  5  1  0
  5  6  1  0
  7  6  1  0
  8  7  1  0
  8 12  1  0
  9 10  2  0
  9  8  1  0
 10 11  1  0
 11 12  2  0
 13 15  1  0
 14 19  2  0
 15 16  2  0
 15 14  1  0
 16 17  1  0
 17 18  2  0
 19 18  1  0
 20 13  1  0
 21 13  1  0
  1 22  1  0
  1 23  1  0
  2 24  1  6
  3 25  1  0
  3 26  1  0
  4 27  1  0
  4 28  1  0
  5 29  1  0
  5 30  1  0
  6 31  1  0
  6 32  1  0
  7 33  1  1
  9 34  1  0
 11 35  1  0
 14 36  1  0
 16 37  1  0
 18 38  1  0
 20 39  1  0
 20 40  1  0
 20 41  1  0
 21 42  1  0
 21 43  1  0
 21 44  1  0
M  ISO  8  22   8  23   8  24  13  25  13  26  13  27  13  28  13  29  13
M  ISO  8  30  13  31  13  32  13  33  13  34  14  35  14  36  14  37  14
M  ISO  7  38  14  39   8  40   8  41   8  42   8  43   8  44   8
M  END
>  <minimizedAffinity>  (1) 
-5.79736137

>  <minimizedRMSD>  (1) 
0.303162009

$$$$
