
     RDKit          3D

 45 47  0  0  1  0  0  0  0  0999 V2000
   43.8970   35.0670   40.7900 C   0  0  0  0  0  0  0  0  0  0  0  0
   42.7120   34.4540   40.1050 C   0  0  2  0  0  0  0  0  0  0  0  0
   42.1260   35.3280   39.0360 C   0  0  0  0  0  0  0  0  0  0  0  0
   40.5990   35.1950   38.9880 C   0  0  0  0  0  0  0  0  0  0  0  0
   39.9130   35.7060   40.1950 C   0  0  0  0  0  0  0  0  0  0  0  0
   40.9110   35.5680   41.3450 C   0  0  0  0  0  0  0  0  0  0  0  0
   41.6350   34.2790   41.1530 C   0  0  1  0  0  0  0  0  0  0  0  0
   40.8110   33.1240   40.9930 N   0  0  0  0  0  0  0  0  0  0  0  0
   40.8240   32.0800   40.1460 C   0  0  0  0  0  0  0  0  0  0  0  0
   39.7700   31.2500   40.4680 C   0  0  0  0  0  0  0  0  0  0  0  0
   39.1400   31.8180   41.5110 N   0  0  0  0  0  0  0  0  0  0  0  0
   39.7700   32.9510   41.8270 C   0  0  0  0  0  0  0  0  0  0  0  0
   44.8280   34.1880   41.5070 C   0  0  0  0  0  0  0  0  0  0  0  0
   45.3640   33.4130   43.7910 C   0  0  0  0  0  0  0  0  0  0  0  0
   44.8610   34.4270   42.9520 C   0  0  0  0  0  0  0  0  0  0  0  0
   44.4470   35.5740   43.5700 C   0  0  0  0  0  0  0  0  0  0  0  0
   44.5190   35.7120   44.9080 N   0  0  0  0  0  0  0  0  0  0  0  0
   45.0120   34.7050   45.6880 C   0  0  0  0  0  0  0  0  0  0  0  0
   45.4330   33.5590   45.1270 N   0  0  0  0  0  0  0  0  0  0  0  0
   44.6080   32.7280   41.2270 C   0  0  0  0  0  0  0  0  0  0  0  0
   46.2530   34.4140   40.9600 C   0  0  0  0  0  0  0  0  0  0  0  0
   43.5095   35.7929   41.5200 H   0  0  0  0  0  0  0  0  0  0  0  0
   44.4986   35.4789   39.9663 H   0  0  0  0  0  0  0  0  0  0  0  0
   43.0465   33.5163   39.6373 H   0  0  0  0  0  0  0  0  0  0  0  0
   42.3888   36.3756   39.2446 H   0  0  0  0  0  0  0  0  0  0  0  0
   42.5344   35.0124   38.0646 H   0  0  0  0  0  0  0  0  0  0  0  0
   40.2300   35.7559   38.1167 H   0  0  0  0  0  0  0  0  0  0  0  0
   40.3747   34.1200   38.9252 H   0  0  0  0  0  0  0  0  0  0  0  0
   39.6341   36.7611   40.0569 H   0  0  0  0  0  0  0  0  0  0  0  0
   38.9886   35.1453   40.3977 H   0  0  0  0  0  0  0  0  0  0  0  0
   41.6235   36.4059   41.3274 H   0  0  0  0  0  0  0  0  0  0  0  0
   40.3915   35.5816   42.3145 H   0  0  0  0  0  0  0  0  0  0  0  0
   42.1294   34.0375   42.1055 H   0  0  0  0  0  0  0  0  0  0  0  0
   41.5498   31.9159   39.3359 H   0  0  0  0  0  0  0  0  0  0  0  0
   39.4984   30.3080   39.9691 H   0  0  0  0  0  0  0  0  0  0  0  0
   39.4837   33.6345   42.6399 H   0  0  0  0  0  0  0  0  0  0  0  0
   45.7114   32.4720   43.3396 H   0  0  0  0  0  0  0  0  0  0  0  0
   44.0475   36.3999   42.9631 H   0  0  0  0  0  0  0  0  0  0  0  0
   45.0646   34.8327   46.7793 H   0  0  0  0  0  0  0  0  0  0  0  0
   44.5255   32.1807   42.1776 H   0  0  0  0  0  0  0  0  0  0  0  0
   43.6806   32.6011   40.6492 H   0  0  0  0  0  0  0  0  0  0  0  0
   45.4568   32.3335   40.6492 H   0  0  0  0  0  0  0  0  0  0  0  0
   46.9547   34.5253   41.7998 H   0  0  0  0  0  0  0  0  0  0  0  0
   46.5508   33.5519   40.3451 H   0  0  0  0  0  0  0  0  0  0  0  0
   46.2694   35.3260   40.3451 H   0  0  0  0  0  0  0  0  0  0  0  0
  1 13  1  0
  2  1  1  0
  2  7  1  0
  3  2  1  0
  4  3  1  0
  4  5  1  0
  5  6  1  0
  7  6  1  0
  8  7  1  0
  8 12  1  0
  9 10  2  0
  9  8  1  0
 10 11  1  0
 11 12  2  0
 13 15  1  0
 14 19  2  0
 15 16  2  0
 15 14  1  0
 16 17  1  0
 17 18  2  0
 19 18  1  0
 20 13  1  0
 21 13  1  0
  1 22  1  0
  1 23  1  0
  2 24  1  6
  3 25  1  0
  3 26  1  0
  4 27  1  0
  4 28  1  0
  5 29  1  0
  5 30  1  0
  6 31  1  0
  6 32  1  0
  7 33  1  1
  9 34  1  0
 10 35  1  0
 12 36  1  0
 14 37  1  0
 16 38  1  0
 18 39  1  0
 20 40  1  0
 20 41  1  0
 20 42  1  0
 21 43  1  0
 21 44  1  0
 21 45  1  0
M  ISO  8  22   8  23   8  24  13  25  13  26  13  27  13  28  13  29  13
M  ISO  8  30  13  31  13  32  13  33  13  34  14  35  14  36  14  37  14
M  ISO  8  38  14  39  14  40   8  41   8  42   8  43   8  44   8  45   8
M  END
>  <minimizedAffinity>  (1) 
-5.78420353

>  <minimizedRMSD>  (1) 
0.475899816

$$$$
