
     RDKit          3D

 50 52  0  0  1  0  0  0  0  0999 V2000
   42.7590   34.4730   40.1650 C   0  0  2  0  0  0  0  0  0  0  0  0
   42.3150   35.3460   39.0310 C   0  0  0  0  0  0  0  0  0  0  0  0
   40.8070   35.2150   38.7980 C   0  0  0  0  0  0  0  0  0  0  0  0
   40.0390   35.8270   39.9030 C   0  0  0  0  0  0  0  0  0  0  0  0
   40.8680   35.6800   41.1820 C   0  0  0  0  0  0  0  0  0  0  0  0
   41.5630   34.3430   41.0910 C   0  0  1  0  0  0  0  0  0  0  0  0
   40.6250   33.3500   40.7010 N   0  0  0  0  0  0  0  0  0  0  0  0
   41.1410   32.0580   40.3850 C   0  0  0  0  0  0  0  0  0  0  0  0
   39.9720   31.0890   40.5200 C   0  0  0  0  0  0  0  0  0  0  0  0
   38.9580   31.8770   41.3030 C   0  0  0  0  0  0  0  0  0  0  0  0
   39.8040   33.0250   41.8540 C   0  0  0  0  0  0  0  0  0  0  0  0
   43.8670   35.0650   40.9730 C   0  0  0  0  0  0  0  0  0  0  0  0
   44.8290   34.1910   41.6430 C   0  0  0  0  0  0  0  0  0  0  0  0
   45.4180   33.3310   43.8900 C   0  0  0  0  0  0  0  0  0  0  0  0
   44.8870   34.3690   43.0930 C   0  0  0  0  0  0  0  0  0  0  0  0
   44.4580   35.4860   43.7600 C   0  0  0  0  0  0  0  0  0  0  0  0
   44.5410   35.5810   45.1030 N   0  0  0  0  0  0  0  0  0  0  0  0
   45.0610   34.5530   45.8370 C   0  0  0  0  0  0  0  0  0  0  0  0
   45.4930   33.4420   45.2270 N   0  0  0  0  0  0  0  0  0  0  0  0
   44.6110   32.7380   41.3220 C   0  0  0  0  0  0  0  0  0  0  0  0
   46.2400   34.4570   41.0760 C   0  0  0  0  0  0  0  0  0  0  0  0
   43.1229   33.5233   39.7460 H   0  0  0  0  0  0  0  0  0  0  0  0
   42.5530   36.3934   39.2683 H   0  0  0  0  0  0  0  0  0  0  0  0
   42.8403   35.0298   38.1177 H   0  0  0  0  0  0  0  0  0  0  0  0
   40.5445   35.7195   37.8564 H   0  0  0  0  0  0  0  0  0  0  0  0
   40.5542   34.1456   38.7493 H   0  0  0  0  0  0  0  0  0  0  0  0
   39.8618   36.8918   39.6915 H   0  0  0  0  0  0  0  0  0  0  0  0
   39.0639   35.3306   40.0162 H   0  0  0  0  0  0  0  0  0  0  0  0
   41.6093   36.4898   41.2495 H   0  0  0  0  0  0  0  0  0  0  0  0
   40.2316   35.7374   42.0774 H   0  0  0  0  0  0  0  0  0  0  0  0
   41.9569   34.0208   42.0662 H   0  0  0  0  0  0  0  0  0  0  0  0
   41.5311   32.0442   39.3566 H   0  0  0  0  0  0  0  0  0  0  0  0
   41.9696   31.7825   41.0540 H   0  0  0  0  0  0  0  0  0  0  0  0
   39.5763   30.8089   39.5326 H   0  0  0  0  0  0  0  0  0  0  0  0
   40.2512   30.1429   41.0068 H   0  0  0  0  0  0  0  0  0  0  0  0
   38.1530   32.2501   40.6528 H   0  0  0  0  0  0  0  0  0  0  0  0
   38.4452   31.2913   42.0802 H   0  0  0  0  0  0  0  0  0  0  0  0
   40.4178   32.6999   42.7070 H   0  0  0  0  0  0  0  0  0  0  0  0
   39.2181   33.8706   42.2435 H   0  0  0  0  0  0  0  0  0  0  0  0
   44.4436   35.7122   40.2958 H   0  0  0  0  0  0  0  0  0  0  0  0
   43.3406   35.5501   41.8082 H   0  0  0  0  0  0  0  0  0  0  0  0
   45.7781   32.4114   43.4056 H   0  0  0  0  0  0  0  0  0  0  0  0
   44.0361   36.3249   43.1871 H   0  0  0  0  0  0  0  0  0  0  0  0
   45.1250   34.6380   46.9318 H   0  0  0  0  0  0  0  0  0  0  0  0
   44.5250   32.1648   42.2569 H   0  0  0  0  0  0  0  0  0  0  0  0
   43.6861   32.6265   40.7371 H   0  0  0  0  0  0  0  0  0  0  0  0
   45.4625   32.3599   40.7371 H   0  0  0  0  0  0  0  0  0  0  0  0
   46.9494   34.5907   41.9059 H   0  0  0  0  0  0  0  0  0  0  0  0
   46.5544   33.6023   40.4590 H   0  0  0  0  0  0  0  0  0  0  0  0
   46.2216   35.3675   40.4590 H   0  0  0  0  0  0  0  0  0  0  0  0
  1 12  1  0
  1  6  1  0
  2  1  1  0
  3  2  1  0
  3  4  1  0
  4  5  1  0
  6  5  1  0
  7  8  1  0
  7  6  1  0
  7 11  1  0
  8  9  1  0
  9 10  1  0
 10 11  1  0
 12 13  1  0
 13 15  1  0
 14 19  2  0
 15 16  2  0
 15 14  1  0
 16 17  1  0
 17 18  2  0
 19 18  1  0
 20 13  1  0
 21 13  1  0
  1 22  1  6
  2 23  1  0
  2 24  1  0
  3 25  1  0
  3 26  1  0
  4 27  1  0
  4 28  1  0
  5 29  1  0
  5 30  1  0
  6 31  1  1
  8 32  1  0
  8 33  1  0
  9 34  1  0
  9 35  1  0
 10 36  1  0
 10 37  1  0
 11 38  1  0
 11 39  1  0
 12 40  1  0
 12 41  1  0
 14 42  1  0
 16 43  1  0
 18 44  1  0
 20 45  1  0
 20 46  1  0
 20 47  1  0
 21 48  1  0
 21 49  1  0
 21 50  1  0
M  ISO  8  22  13  23  13  24  13  25  13  26  13  27  13  28  13  29  13
M  ISO  8  30  13  31  13  32  13  33  13  34  13  35  13  36  13  37  13
M  ISO  8  38  13  39  13  40   8  41   8  42  14  43  14  44  14  45   8
M  ISO  5  46   8  47   8  48   8  49   8  50   8
M  END
>  <minimizedAffinity>  (1) 
-5.70473862

>  <minimizedRMSD>  (1) 
0.731739342

$$$$
