
     RDKit          3D

 50 51  0  0  1  0  0  0  0  0999 V2000
   43.4800   34.4770   41.5310 C   0  0  0  0  0  0  0  0  0  0  0  0
   42.8190   34.0170   40.2890 C   0  0  2  0  0  0  0  0  0  0  0  0
   42.6640   35.1630   39.3090 C   0  0  0  0  0  0  0  0  0  0  0  0
   41.3620   35.0920   38.5360 C   0  0  0  0  0  0  0  0  0  0  0  0
   40.1520   35.2330   39.4060 C   0  0  0  0  0  0  0  0  0  0  0  0
   40.5520   34.6680   40.7550 C   0  0  0  0  0  0  0  0  0  0  0  0
   41.4890   33.4820   40.5290 C   0  0  2  0  0  0  0  0  0  0  0  0
   40.9880   32.2160   41.0390 C   0  0  0  0  0  0  0  0  0  0  0  0
   40.3080   31.3510   39.9670 C   0  0  0  0  0  0  0  0  0  0  0  0
   41.6990   31.4310   42.0590 C   0  0  0  0  0  0  0  0  0  0  0  0
   39.7070   32.6010   41.8630 C   0  0  0  0  0  0  0  0  0  0  0  0
   44.7750   33.9130   41.9160 C   0  0  0  0  0  0  0  0  0  0  0  0
   45.5970   32.8200   43.9920 C   0  0  0  0  0  0  0  0  0  0  0  0
   45.0110   33.9490   43.3650 C   0  0  0  0  0  0  0  0  0  0  0  0
   44.6890   35.0000   44.1860 C   0  0  0  0  0  0  0  0  0  0  0  0
   44.9160   34.9570   45.5090 N   0  0  0  0  0  0  0  0  0  0  0  0
   45.4830   33.8520   46.0820 C   0  0  0  0  0  0  0  0  0  0  0  0
   45.8180   32.7980   45.3260 N   0  0  0  0  0  0  0  0  0  0  0  0
   44.9700   32.5160   41.4190 C   0  0  0  0  0  0  0  0  0  0  0  0
   45.8970   34.7240   41.2600 C   0  0  0  0  0  0  0  0  0  0  0  0
   42.7841   34.2710   42.3576 H   0  0  0  0  0  0  0  0  0  0  0  0
   43.7124   35.5316   41.3216 H   0  0  0  0  0  0  0  0  0  0  0  0
   43.4659   33.2250   39.8836 H   0  0  0  0  0  0  0  0  0  0  0  0
   42.6922   36.1107   39.8668 H   0  0  0  0  0  0  0  0  0  0  0  0
   43.4881   35.0969   38.5835 H   0  0  0  0  0  0  0  0  0  0  0  0
   41.3531   35.9011   37.7908 H   0  0  0  0  0  0  0  0  0  0  0  0
   41.3137   34.0982   38.0670 H   0  0  0  0  0  0  0  0  0  0  0  0
   39.8691   36.2917   39.5017 H   0  0  0  0  0  0  0  0  0  0  0  0
   39.2838   34.7050   38.9847 H   0  0  0  0  0  0  0  0  0  0  0  0
   41.0685   35.4415   41.3423 H   0  0  0  0  0  0  0  0  0  0  0  0
   39.6576   34.3405   41.3052 H   0  0  0  0  0  0  0  0  0  0  0  0
   41.5973   32.7881   39.6824 H   0  0  0  0  0  0  0  0  0  0  0  0
   39.6984   30.5756   40.4539 H   0  0  0  0  0  0  0  0  0  0  0  0
   39.6632   31.9841   39.3397 H   0  0  0  0  0  0  0  0  0  0  0  0
   41.0754   30.8739   39.3397 H   0  0  0  0  0  0  0  0  0  0  0  0
   41.3933   31.7685   43.0603 H   0  0  0  0  0  0  0  0  0  0  0  0
   41.4521   30.3657   41.9398 H   0  0  0  0  0  0  0  0  0  0  0  0
   42.7835   31.5716   41.9398 H   0  0  0  0  0  0  0  0  0  0  0  0
   39.9290   32.5343   42.9383 H   0  0  0  0  0  0  0  0  0  0  0  0
   39.4061   33.6293   41.6138 H   0  0  0  0  0  0  0  0  0  0  0  0
   38.8890   31.9090   41.6138 H   0  0  0  0  0  0  0  0  0  0  0  0
   45.8765   31.9476   43.3831 H   0  0  0  0  0  0  0  0  0  0  0  0
   44.2332   35.9010   43.7495 H   0  0  0  0  0  0  0  0  0  0  0  0
   45.6644   33.8287   47.1667 H   0  0  0  0  0  0  0  0  0  0  0  0
   45.0655   31.8322   42.2753 H   0  0  0  0  0  0  0  0  0  0  0  0
   44.1045   32.2200   40.8081 H   0  0  0  0  0  0  0  0  0  0  0  0
   45.8835   32.4683   40.8081 H   0  0  0  0  0  0  0  0  0  0  0  0
   46.5255   35.1783   42.0402 H   0  0  0  0  0  0  0  0  0  0  0  0
   46.5117   34.0601   40.6344 H   0  0  0  0  0  0  0  0  0  0  0  0
   45.4594   35.5159   40.6344 H   0  0  0  0  0  0  0  0  0  0  0  0
  1 12  1  0
  2  7  1  0
  2  1  1  0
  3  2  1  0
  4  3  1  0
  4  5  1  0
  5  6  1  0
  7  6  1  0
  7  8  1  0
  8 11  1  0
  8 10  1  0
  9  8  1  0
 12 14  1  0
 13 18  2  0
 14 13  1  0
 14 15  2  0
 15 16  1  0
 16 17  2  0
 18 17  1  0
 19 12  1  0
 20 12  1  0
  1 21  1  0
  1 22  1  0
  2 23  1  6
  3 24  1  0
  3 25  1  0
  4 26  1  0
  4 27  1  0
  5 28  1  0
  5 29  1  0
  6 30  1  0
  6 31  1  0
  7 32  1  6
  9 33  1  0
  9 34  1  0
  9 35  1  0
 10 36  1  0
 10 37  1  0
 10 38  1  0
 11 39  1  0
 11 40  1  0
 11 41  1  0
 13 42  1  0
 15 43  1  0
 17 44  1  0
 19 45  1  0
 19 46  1  0
 19 47  1  0
 20 48  1  0
 20 49  1  0
 20 50  1  0
M  ISO  8  21   8  22   8  23  13  24  13  25  13  26  13  27  13  28  13
M  ISO  8  29  13  30  13  31  13  32  13  33   8  34   8  35   8  36   8
M  ISO  8  37   8  38   8  39   8  40   8  41   8  42  14  43  14  44  14
M  ISO  6  45   8  46   8  47   8  48   8  49   8  50   8
M  END
>  <minimizedAffinity>  (1) 
-4.84460592

>  <minimizedRMSD>  (1) 
1.14833426

$$$$
