
     RDKit          3D

 53 56  0  0  1  0  0  0  0  0999 V2000
   44.9640   34.4820   41.8170 C   0  0  1  0  0  0  0  0  0  0  0  0
   45.4830   33.4450   44.0080 C   0  0  0  0  0  0  0  0  0  0  0  0
   44.9600   34.5330   43.2770 C   0  0  0  0  0  0  0  0  0  0  0  0
   44.4940   35.5530   44.0290 C   0  0  0  0  0  0  0  0  0  0  0  0
   44.5340   35.5140   45.3760 N   0  0  0  0  0  0  0  0  0  0  0  0
   45.0370   34.4640   46.0350 C   0  0  0  0  0  0  0  0  0  0  0  0
   45.5120   33.4290   45.3460 N   0  0  0  0  0  0  0  0  0  0  0  0
   44.9700   33.0450   41.3700 C   0  0  0  0  0  0  0  0  0  0  0  0
   43.9110   35.2300   41.1580 C   0  0  0  0  0  0  0  0  0  0  0  0
   42.7800   34.4790   40.4990 C   0  0  2  0  0  0  0  0  0  0  0  0
   42.3090   35.1790   39.2500 C   0  0  0  0  0  0  0  0  0  0  0  0
   40.8080   35.0020   39.0480 C   0  0  0  0  0  0  0  0  0  0  0  0
   39.9830   35.6360   40.0940 C   0  0  0  0  0  0  0  0  0  0  0  0
   40.8960   35.8180   41.3200 C   0  0  0  0  0  0  0  0  0  0  0  0
   41.6100   34.5060   41.4390 C   0  0  1  0  0  0  0  0  0  0  0  0
   40.5440   33.0850   41.2220 S   0  0  0  0  0  0  0  0  0  0  0  0
   46.3550   34.9480   41.3550 C   0  0  0  0  0  0  0  0  0  0  0  0
   47.1040   34.0350   40.5800 N   0  0  0  0  0  0  0  0  0  0  0  0
   46.6960   33.5060   39.3860 C   0  0  0  0  0  0  0  0  0  0  0  0
   47.5950   32.6770   38.8370 N   0  0  0  0  0  0  0  0  0  0  0  0
   48.6570   32.6290   39.6690 C   0  0  0  0  0  0  0  0  0  0  0  0
   49.8650   31.9660   39.6340 C   0  0  0  0  0  0  0  0  0  0  0  0
   50.0940   31.2270   38.6530 O   0  0  0  0  0  0  0  0  0  0  0  0
   50.7730   32.1020   40.6160 N   0  0  0  0  0  0  0  0  0  0  0  0
   50.3940   32.9240   41.6040 C   0  0  0  0  0  0  0  0  0  0  0  0
   51.2970   33.1280   42.6880 N   0  0  0  0  0  0  0  0  0  0  0  0
   49.2400   33.6010   41.7060 N   0  0  0  0  0  0  0  0  0  0  0  0
   48.3350   33.4620   40.7240 C   0  0  0  0  0  0  0  0  0  0  0  0
   45.8810   32.5792   43.4585 H   0  0  0  0  0  0  0  0  0  0  0  0
   44.0713   36.4376   43.5303 H   0  0  0  0  0  0  0  0  0  0  0  0
   45.0578   34.4561   47.1348 H   0  0  0  0  0  0  0  0  0  0  0  0
   44.9727   32.3868   42.2514 H   0  0  0  0  0  0  0  0  0  0  0  0
   44.0727   32.8452   40.7659 H   0  0  0  0  0  0  0  0  0  0  0  0
   45.8690   32.8527   40.7659 H   0  0  0  0  0  0  0  0  0  0  0  0
   43.4617   35.8890   41.9155 H   0  0  0  0  0  0  0  0  0  0  0  0
   44.4239   35.7224   40.3187 H   0  0  0  0  0  0  0  0  0  0  0  0
   43.1340   33.4660   40.2569 H   0  0  0  0  0  0  0  0  0  0  0  0
   42.5351   36.2522   39.3338 H   0  0  0  0  0  0  0  0  0  0  0  0
   42.8297   34.7377   38.3874 H   0  0  0  0  0  0  0  0  0  0  0  0
   40.5352   35.4427   38.0778 H   0  0  0  0  0  0  0  0  0  0  0  0
   40.6058   33.9217   39.0943 H   0  0  0  0  0  0  0  0  0  0  0  0
   39.6136   36.6123   39.7470 H   0  0  0  0  0  0  0  0  0  0  0  0
   39.1067   35.0178   40.3388 H   0  0  0  0  0  0  0  0  0  0  0  0
   41.6104   36.6384   41.1570 H   0  0  0  0  0  0  0  0  0  0  0  0
   40.3356   36.0788   42.2299 H   0  0  0  0  0  0  0  0  0  0  0  0
   41.9761   34.4265   42.4732 H   0  0  0  0  0  0  0  0  0  0  0  0
   40.1780   32.5971   42.4487 H   0  0  0  0  0  0  0  0  0  0  0  0
   46.2191   35.8607   40.7562 H   0  0  0  0  0  0  0  0  0  0  0  0
   46.9352   35.0875   42.2790 H   0  0  0  0  0  0  0  0  0  0  0  0
   45.7259   33.7381   38.9223 H   0  0  0  0  0  0  0  0  0  0  0  0
   51.6813   31.6164   40.6095 H   0  0  0  0  0  0  0  0  0  0  0  0
   51.0372   33.7535   43.4639 H   0  0  0  0  0  0  0  0  0  0  0  0
   52.2093   32.6499   42.6953 H   0  0  0  0  0  0  0  0  0  0  0  0
  1  9  1  6
  1  3  1  0
  2  7  2  0
  3  2  1  0
  3  4  2  0
  4  5  1  0
  5  6  2  0
  7  6  1  0
  8  1  1  0
 10  9  1  0
 10 15  1  0
 11 10  1  0
 12 11  1  0
 12 13  1  0
 13 14  1  0
 14 15  1  0
 16 15  1  0
 17  1  1  0
 18 28  1  0
 18 17  1  0
 19 18  1  0
 20 19  2  0
 20 21  1  0
 21 28  2  0
 22 21  1  0
 22 24  1  0
 23 22  2  0
 24 25  1  0
 25 27  2  0
 25 26  1  0
 28 27  1  0
  2 29  1  0
  4 30  1  0
  6 31  1  0
  8 32  1  0
  8 33  1  0
  8 34  1  0
  9 35  1  0
  9 36  1  0
 10 37  1  6
 11 38  1  0
 11 39  1  0
 12 40  1  0
 12 41  1  0
 13 42  1  0
 13 43  1  0
 14 44  1  0
 14 45  1  0
 15 46  1  1
 16 47  1  0
 17 48  1  0
 17 49  1  0
 19 50  1  0
 24 51  1  0
 26 52  1  0
 26 53  1  0
M  ISO  8  29  14  30  14  31  14  32   8  33   8  34   8  35   8  36   8
M  ISO  8  37  13  38  13  39  13  40  13  41  13  42  13  43  13  44  13
M  ISO  7  45  13  46  13  47  11  48   8  49   8  50  14  51   9
M  END
>  <minimizedAffinity>  (1) 
-6.77314568

>  <minimizedRMSD>  (1) 
2.52912998

$$$$
