
     RDKit          3D

 55 58  0  0  1  0  0  0  0  0999 V2000
   44.2830   33.7480   40.9020 C   0  0  1  0  0  0  0  0  0  0  0  0
   44.8380   33.5100   43.3340 C   0  0  0  0  0  0  0  0  0  0  0  0
   44.5290   34.3390   42.2300 C   0  0  0  0  0  0  0  0  0  0  0  0
   44.4940   35.6640   42.5080 C   0  0  0  0  0  0  0  0  0  0  0  0
   44.7380   36.1330   43.7520 N   0  0  0  0  0  0  0  0  0  0  0  0
   45.0270   35.3130   44.7670 C   0  0  0  0  0  0  0  0  0  0  0  0
   45.0750   33.9950   44.5520 N   0  0  0  0  0  0  0  0  0  0  0  0
   44.0870   32.2640   41.0910 C   0  0  0  0  0  0  0  0  0  0  0  0
   43.2150   34.3660   40.1570 C   0  0  0  0  0  0  0  0  0  0  0  0
   41.9160   33.6040   39.9890 C   0  0  2  0  0  0  0  0  0  0  0  0
   41.2570   33.9140   38.6680 C   0  0  0  0  0  0  0  0  0  0  0  0
   39.7420   33.9030   38.7880 C   0  0  0  0  0  0  0  0  0  0  0  0
   39.2010   34.9710   39.6780 C   0  0  0  0  0  0  0  0  0  0  0  0
   40.3500   35.3850   40.5970 C   0  0  0  0  0  0  0  0  0  0  0  0
   40.9640   34.1010   41.0420 C   0  0  1  0  0  0  0  0  0  0  0  0
   39.7690   32.8550   41.5080 S   0  0  0  0  0  0  0  0  0  0  0  0
   45.6210   33.7820   40.1520 C   0  0  0  0  0  0  0  0  0  0  0  0
   46.7710   33.1550   40.7340 C   0  0  0  0  0  0  0  0  0  0  0  0
   46.8690   31.7780   40.7160 C   0  0  0  0  0  0  0  0  0  0  0  0
   47.9590   31.0390   41.1660 C   0  0  0  0  0  0  0  0  0  0  0  0
   49.0730   31.7080   41.6900 C   0  0  0  0  0  0  0  0  0  0  0  0
   49.0240   33.0810   41.7340 C   0  0  0  0  0  0  0  0  0  0  0  0
   50.1030   33.7260   42.2950 C   0  0  0  0  0  0  0  0  0  0  0  0
   50.0850   35.1230   42.4130 C   0  0  0  0  0  0  0  0  0  0  0  0
   48.9960   35.8510   41.9710 C   0  0  0  0  0  0  0  0  0  0  0  0
   47.9810   35.1020   41.4290 C   0  0  0  0  0  0  0  0  0  0  0  0
   47.9030   33.7310   41.2670 C   0  0  0  0  0  0  0  0  0  0  0  0
   44.8844   32.4217   43.1806 H   0  0  0  0  0  0  0  0  0  0  0  0
   44.2614   36.3756   41.7021 H   0  0  0  0  0  0  0  0  0  0  0  0
   45.2235   35.7193   45.7701 H   0  0  0  0  0  0  0  0  0  0  0  0
   44.0564   32.0322   42.1659 H   0  0  0  0  0  0  0  0  0  0  0  0
   43.1404   31.9566   40.6225 H   0  0  0  0  0  0  0  0  0  0  0  0
   44.9213   31.7214   40.6225 H   0  0  0  0  0  0  0  0  0  0  0  0
   42.9730   35.3132   40.6612 H   0  0  0  0  0  0  0  0  0  0  0  0
   43.6126   34.4494   39.1348 H   0  0  0  0  0  0  0  0  0  0  0  0
   42.1361   32.5283   40.0560 H   0  0  0  0  0  0  0  0  0  0  0  0
   41.5630   33.1585   37.9294 H   0  0  0  0  0  0  0  0  0  0  0  0
   41.5719   34.9193   38.3515 H   0  0  0  0  0  0  0  0  0  0  0  0
   39.3135   34.0382   37.7839 H   0  0  0  0  0  0  0  0  0  0  0  0
   39.4632   32.9389   39.2383 H   0  0  0  0  0  0  0  0  0  0  0  0
   38.8628   35.8301   39.0801 H   0  0  0  0  0  0  0  0  0  0  0  0
   38.3366   34.6111   40.2553 H   0  0  0  0  0  0  0  0  0  0  0  0
   41.0831   35.9958   40.0497 H   0  0  0  0  0  0  0  0  0  0  0  0
   40.0045   35.9954   41.4443 H   0  0  0  0  0  0  0  0  0  0  0  0
   41.5237   34.3090   41.9658 H   0  0  0  0  0  0  0  0  0  0  0  0
   39.6968   32.7797   42.8740 H   0  0  0  0  0  0  0  0  0  0  0  0
   45.4537   33.3017   39.1766 H   0  0  0  0  0  0  0  0  0  0  0  0
   45.8853   34.8497   40.1422 H   0  0  0  0  0  0  0  0  0  0  0  0
   46.0131   31.2176   40.3118 H   0  0  0  0  0  0  0  0  0  0  0  0
   47.9461   29.9405   41.1108 H   0  0  0  0  0  0  0  0  0  0  0  0
   49.9528   31.1559   42.0522 H   0  0  0  0  0  0  0  0  0  0  0  0
   50.9716   33.1505   42.6476 H   0  0  0  0  0  0  0  0  0  0  0  0
   50.9442   35.6439   42.8608 H   0  0  0  0  0  0  0  0  0  0  0  0
   48.9465   36.9472   42.0477 H   0  0  0  0  0  0  0  0  0  0  0  0
   47.1091   35.6714   41.0746 H   0  0  0  0  0  0  0  0  0  0  0  0
  1 17  1  6
  1  8  1  0
  1  3  1  0
  2  7  2  0
  3  4  2  0
  3  2  1  0
  4  5  1  0
  5  6  2  0
  7  6  1  0
  9  1  1  0
 10  9  1  0
 10 15  1  0
 11 12  1  0
 11 10  1  0
 12 13  1  0
 13 14  1  0
 14 15  1  0
 15 16  1  0
 17 18  1  0
 18 27  1  0
 19 18  2  0
 19 20  1  0
 20 21  2  0
 21 22  1  0
 22 23  2  0
 23 24  1  0
 25 24  2  0
 26 25  1  0
 27 26  2  0
 27 22  1  0
  2 28  1  0
  4 29  1  0
  6 30  1  0
  8 31  1  0
  8 32  1  0
  8 33  1  0
  9 34  1  0
  9 35  1  0
 10 36  1  1
 11 37  1  0
 11 38  1  0
 12 39  1  0
 12 40  1  0
 13 41  1  0
 13 42  1  0
 14 43  1  0
 14 44  1  0
 15 45  1  1
 16 46  1  0
 17 47  1  0
 17 48  1  0
 19 49  1  0
 20 50  1  0
 21 51  1  0
 23 52  1  0
 24 53  1  0
 25 54  1  0
 26 55  1  0
M  ISO  8  28  14  29  14  30  14  31   8  32   8  33   8  34   8  35   8
M  ISO  8  36  13  37  13  38  13  39  13  40  13  41  13  42  13  43  13
M  ISO  8  44  13  45  13  46  11  47   8  48   8  49  14  50  14  51  14
M  ISO  4  52  14  53  14  54  14  55  14
M  END
>  <minimizedAffinity>  (1) 
-6.67114782

>  <minimizedRMSD>  (1) 
2.63760471

$$$$
