
     RDKit          3D

 50 53  0  0  1  0  0  0  0  0999 V2000
   45.0660   34.4580   41.8380 C   0  0  1  0  0  0  0  0  0  0  0  0
   45.5430   33.4460   44.0510 C   0  0  0  0  0  0  0  0  0  0  0  0
   45.0230   34.5210   43.3000 C   0  0  0  0  0  0  0  0  0  0  0  0
   44.5180   35.5420   44.0360 C   0  0  0  0  0  0  0  0  0  0  0  0
   44.5260   35.5060   45.3850 N   0  0  0  0  0  0  0  0  0  0  0  0
   45.0280   34.4680   46.0610 C   0  0  0  0  0  0  0  0  0  0  0  0
   45.5400   33.4330   45.3860 N   0  0  0  0  0  0  0  0  0  0  0  0
   45.0720   33.0210   41.4060 C   0  0  0  0  0  0  0  0  0  0  0  0
   44.0260   35.2130   41.1400 C   0  0  0  0  0  0  0  0  0  0  0  0
   42.8900   34.4580   40.5010 C   0  0  2  0  0  0  0  0  0  0  0  0
   42.4510   35.1230   39.2210 C   0  0  0  0  0  0  0  0  0  0  0  0
   40.9470   34.9640   39.0020 C   0  0  0  0  0  0  0  0  0  0  0  0
   40.1210   35.6640   40.0180 C   0  0  0  0  0  0  0  0  0  0  0  0
   41.0180   35.8600   41.2460 C   0  0  0  0  0  0  0  0  0  0  0  0
   41.7080   34.5390   41.4140 C   0  0  1  0  0  0  0  0  0  0  0  0
   40.6160   33.1230   41.2330 S   0  0  0  0  0  0  0  0  0  0  0  0
   46.4600   34.9380   41.4080 C   0  0  0  0  0  0  0  0  0  0  0  0
   47.2620   34.0380   40.6900 N   0  0  0  0  0  0  0  0  0  0  0  0
   47.0430   33.5390   39.4360 C   0  0  0  0  0  0  0  0  0  0  0  0
   48.0200   32.6920   39.0040 N   0  0  0  0  0  0  0  0  0  0  0  0
   48.9340   32.6200   40.0120 C   0  0  0  0  0  0  0  0  0  0  0  0
   50.1050   31.9240   40.1100 C   0  0  0  0  0  0  0  0  0  0  0  0
   50.8200   32.0480   41.2440 N   0  0  0  0  0  0  0  0  0  0  0  0
   50.3800   32.8480   42.2600 C   0  0  0  0  0  0  0  0  0  0  0  0
   49.2200   33.5020   42.0920 N   0  0  0  0  0  0  0  0  0  0  0  0
   48.4480   33.4320   40.9940 C   0  0  0  0  0  0  0  0  0  0  0  0
   45.9678   32.5842   43.5154 H   0  0  0  0  0  0  0  0  0  0  0  0
   44.0932   36.4174   43.5229 H   0  0  0  0  0  0  0  0  0  0  0  0
   45.0202   34.4650   47.1610 H   0  0  0  0  0  0  0  0  0  0  0  0
   45.0747   32.3713   42.2936 H   0  0  0  0  0  0  0  0  0  0  0  0
   44.1747   32.8154   40.8038 H   0  0  0  0  0  0  0  0  0  0  0  0
   45.9710   32.8229   40.8038 H   0  0  0  0  0  0  0  0  0  0  0  0
   43.5837   35.9063   41.8705 H   0  0  0  0  0  0  0  0  0  0  0  0
   44.5533   35.6716   40.2905 H   0  0  0  0  0  0  0  0  0  0  0  0
   43.2279   33.4289   40.3092 H   0  0  0  0  0  0  0  0  0  0  0  0
   42.6947   36.1945   39.2717 H   0  0  0  0  0  0  0  0  0  0  0  0
   42.9772   34.6442   38.3820 H   0  0  0  0  0  0  0  0  0  0  0  0
   40.6953   35.3685   38.0105 H   0  0  0  0  0  0  0  0  0  0  0  0
   40.7205   33.8908   39.0859 H   0  0  0  0  0  0  0  0  0  0  0  0
   39.7874   36.6383   39.6313 H   0  0  0  0  0  0  0  0  0  0  0  0
   39.2219   35.0825   40.2700 H   0  0  0  0  0  0  0  0  0  0  0  0
   41.7496   36.6624   41.0703 H   0  0  0  0  0  0  0  0  0  0  0  0
   40.4488   36.1541   42.1402 H   0  0  0  0  0  0  0  0  0  0  0  0
   42.0590   34.4899   42.4554 H   0  0  0  0  0  0  0  0  0  0  0  0
   40.2591   32.6602   42.4721 H   0  0  0  0  0  0  0  0  0  0  0  0
   46.3219   35.8301   40.7795 H   0  0  0  0  0  0  0  0  0  0  0  0
   47.0017   35.1058   42.3505 H   0  0  0  0  0  0  0  0  0  0  0  0
   46.1606   33.7970   38.8319 H   0  0  0  0  0  0  0  0  0  0  0  0
   50.4533   31.2818   39.2876 H   0  0  0  0  0  0  0  0  0  0  0  0
   50.9596   32.9532   43.1890 H   0  0  0  0  0  0  0  0  0  0  0  0
  1  9  1  6
  1  3  1  0
  2  7  2  0
  3  4  2  0
  3  2  1  0
  4  5  1  0
  5  6  2  0
  7  6  1  0
  8  1  1  0
 10  9  1  0
 10 15  1  0
 11 10  1  0
 12 11  1  0
 12 13  1  0
 13 14  1  0
 14 15  1  0
 16 15  1  0
 17  1  1  0
 18 26  1  0
 18 17  1  0
 19 18  1  0
 20 19  2  0
 20 21  1  0
 21 22  2  0
 21 26  1  0
 22 23  1  0
 23 24  2  0
 25 24  1  0
 26 25  2  0
  2 27  1  0
  4 28  1  0
  6 29  1  0
  8 30  1  0
  8 31  1  0
  8 32  1  0
  9 33  1  0
  9 34  1  0
 10 35  1  6
 11 36  1  0
 11 37  1  0
 12 38  1  0
 12 39  1  0
 13 40  1  0
 13 41  1  0
 14 42  1  0
 14 43  1  0
 15 44  1  1
 16 45  1  0
 17 46  1  0
 17 47  1  0
 19 48  1  0
 22 49  1  0
 24 50  1  0
M  ISO  8  27  14  28  14  29  14  30   8  31   8  32   8  33   8  34   8
M  ISO  8  35  13  36  13  37  13  38  13  39  13  40  13  41  13  42  13
M  ISO  8  43  13  44  13  45  11  46   8  47   8  48  14  49  14  50  14
M  END
>  <minimizedAffinity>  (1) 
-6.07551765

>  <minimizedRMSD>  (1) 
1.78400338

$$$$
