
     RDKit          3D

 49 51  0  0  1  0  0  0  0  0999 V2000
   45.0970   33.5800   41.8420 C   0  0  1  0  0  0  0  0  0  0  0  0
   45.3340   33.5600   44.3130 C   0  0  0  0  0  0  0  0  0  0  0  0
   44.9330   34.2390   43.1440 C   0  0  0  0  0  0  0  0  0  0  0  0
   44.4210   35.4820   43.3610 C   0  0  0  0  0  0  0  0  0  0  0  0
   44.3180   35.9950   44.6010 N   0  0  0  0  0  0  0  0  0  0  0  0
   44.7120   35.3150   45.6830 C   0  0  0  0  0  0  0  0  0  0  0  0
   45.2200   34.0940   45.5330 N   0  0  0  0  0  0  0  0  0  0  0  0
   44.6250   32.1640   41.9610 C   0  0  0  0  0  0  0  0  0  0  0  0
   44.4540   34.2770   40.7310 C   0  0  0  0  0  0  0  0  0  0  0  0
   43.1950   33.6760   40.1380 C   0  0  2  0  0  0  0  0  0  0  0  0
   42.9410   34.1880   38.7470 C   0  0  0  0  0  0  0  0  0  0  0  0
   41.4500   34.3310   38.4660 C   0  0  0  0  0  0  0  0  0  0  0  0
   40.7680   35.3400   39.3130 C   0  0  0  0  0  0  0  0  0  0  0  0
   41.6610   35.5460   40.5430 C   0  0  0  0  0  0  0  0  0  0  0  0
   42.0390   34.1570   40.9570 C   0  0  1  0  0  0  0  0  0  0  0  0
   40.6700   32.9940   40.9310 S   0  0  0  0  0  0  0  0  0  0  0  0
   46.6010   33.4440   41.5980 C   0  0  0  0  0  0  0  0  0  0  0  0
   47.1470   33.6090   40.3270 N   0  0  0  0  0  0  0  0  0  0  0  0
   46.7380   32.7800   39.3160 C   0  0  0  0  0  0  0  0  0  0  0  0
   47.1920   32.8580   37.9980 C   0  0  0  0  0  0  0  0  0  0  0  0
   48.1220   33.8290   37.6490 C   0  0  0  0  0  0  0  0  0  0  0  0
   48.5600   33.9400   36.4850 O   0  0  0  0  0  0  0  0  0  0  0  0
   48.5280   34.6460   38.6320 N   0  0  0  0  0  0  0  0  0  0  0  0
   48.0420   34.5050   39.8770 C   0  0  0  0  0  0  0  0  0  0  0  0
   48.5190   35.3480   40.6670 O   0  0  0  0  0  0  0  0  0  0  0  0
   45.7580   32.5495   44.2170 H   0  0  0  0  0  0  0  0  0  0  0  0
   44.0836   36.0811   42.5024 H   0  0  0  0  0  0  0  0  0  0  0  0
   44.6174   35.7594   46.6848 H   0  0  0  0  0  0  0  0  0  0  0  0
   44.5355   31.8954   43.0240 H   0  0  0  0  0  0  0  0  0  0  0  0
   43.6443   32.0622   41.4732 H   0  0  0  0  0  0  0  0  0  0  0  0
   45.3484   31.4941   41.4732 H   0  0  0  0  0  0  0  0  0  0  0  0
   44.1977   35.2866   41.0845 H   0  0  0  0  0  0  0  0  0  0  0  0
   45.1901   34.2248   39.9152 H   0  0  0  0  0  0  0  0  0  0  0  0
   43.3097   32.5821   40.1239 H   0  0  0  0  0  0  0  0  0  0  0  0
   43.4214   35.1712   38.6351 H   0  0  0  0  0  0  0  0  0  0  0  0
   43.3582   33.4637   38.0320 H   0  0  0  0  0  0  0  0  0  0  0  0
   41.3233   34.6217   37.4127 H   0  0  0  0  0  0  0  0  0  0  0  0
   40.9891   33.3593   38.6970 H   0  0  0  0  0  0  0  0  0  0  0  0
   40.6547   36.2854   38.7622 H   0  0  0  0  0  0  0  0  0  0  0  0
   39.7614   35.0038   39.6022 H   0  0  0  0  0  0  0  0  0  0  0  0
   42.5544   36.1327   40.2830 H   0  0  0  0  0  0  0  0  0  0  0  0
   41.1533   36.1020   41.3449 H   0  0  0  0  0  0  0  0  0  0  0  0
   42.3435   34.2093   42.0127 H   0  0  0  0  0  0  0  0  0  0  0  0
   40.3078   32.6863   42.2159 H   0  0  0  0  0  0  0  0  0  0  0  0
   47.0896   34.1872   42.2453 H   0  0  0  0  0  0  0  0  0  0  0  0
   46.7788   32.3768   41.7967 H   0  0  0  0  0  0  0  0  0  0  0  0
   46.0017   31.9997   39.5592 H   0  0  0  0  0  0  0  0  0  0  0  0
   46.8155   32.1548   37.2405 H   0  0  0  0  0  0  0  0  0  0  0  0
   49.2162   35.3857   38.4316 H   0  0  0  0  0  0  0  0  0  0  0  0
  1  9  1  6
  1  8  1  0
  1  3  1  0
  2  7  2  0
  3  4  2  0
  3  2  1  0
  4  5  1  0
  5  6  2  0
  7  6  1  0
 10  9  1  0
 10 15  1  0
 11 10  1  0
 12 11  1  0
 12 13  1  0
 13 14  1  0
 14 15  1  0
 16 15  1  0
 17  1  1  0
 18 17  1  0
 19 18  1  0
 20 19  2  0
 21 20  1  0
 21 23  1  0
 22 21  2  0
 23 24  1  0
 24 18  1  0
 24 25  2  0
  2 26  1  0
  4 27  1  0
  6 28  1  0
  8 29  1  0
  8 30  1  0
  8 31  1  0
  9 32  1  0
  9 33  1  0
 10 34  1  6
 11 35  1  0
 11 36  1  0
 12 37  1  0
 12 38  1  0
 13 39  1  0
 13 40  1  0
 14 41  1  0
 14 42  1  0
 15 43  1  1
 16 44  1  0
 17 45  1  0
 17 46  1  0
 19 47  1  0
 20 48  1  0
 23 49  1  0
M  ISO  8  26  14  27  14  28  14  29   8  30   8  31   8  32   8  33   8
M  ISO  8  34  13  35  13  36  13  37  13  38  13  39  13  40  13  41  13
M  ISO  8  42  13  43  13  44  11  45   8  46   8  47  14  48  14  49   9
M  END
>  <minimizedAffinity>  (1) 
-5.92678022

>  <minimizedRMSD>  (1) 
1.04771125

$$$$
