
     RDKit          3D

 49 51  0  0  1  0  0  0  0  0999 V2000
   45.1040   34.1130   41.8520 C   0  0  1  0  0  0  0  0  0  0  0  0
   45.4630   33.4090   44.1990 C   0  0  0  0  0  0  0  0  0  0  0  0
   45.0040   34.3830   43.2830 C   0  0  0  0  0  0  0  0  0  0  0  0
   44.5010   35.5070   43.8500 C   0  0  0  0  0  0  0  0  0  0  0  0
   44.4550   35.6560   45.1880 N   0  0  0  0  0  0  0  0  0  0  0  0
   44.8980   34.7130   46.0250 C   0  0  0  0  0  0  0  0  0  0  0  0
   45.4040   33.5840   45.5230 N   0  0  0  0  0  0  0  0  0  0  0  0
   44.8890   32.6530   41.5960 C   0  0  0  0  0  0  0  0  0  0  0  0
   44.2530   34.9300   41.0010 C   0  0  0  0  0  0  0  0  0  0  0  0
   43.0140   34.3030   40.4020 C   0  0  2  0  0  0  0  0  0  0  0  0
   42.5680   35.0520   39.1720 C   0  0  0  0  0  0  0  0  0  0  0  0
   41.0450   35.0340   39.0410 C   0  0  0  0  0  0  0  0  0  0  0  0
   40.3450   35.7680   40.1260 C   0  0  0  0  0  0  0  0  0  0  0  0
   41.3260   35.8370   41.3000 C   0  0  0  0  0  0  0  0  0  0  0  0
   41.9010   34.4610   41.3900 C   0  0  1  0  0  0  0  0  0  0  0  0
   40.6700   33.1640   41.2410 S   0  0  0  0  0  0  0  0  0  0  0  0
   46.5870   34.2790   41.4680 C   0  0  0  0  0  0  0  0  0  0  0  0
   46.9090   34.0260   40.0730 C   0  0  0  0  0  0  0  0  0  0  0  0
   48.0130   34.5710   39.4500 C   0  0  0  0  0  0  0  0  0  0  0  0
   48.3560   34.3890   38.1370 C   0  0  0  0  0  0  0  0  0  0  0  0
   47.5660   33.6030   37.3250 C   0  0  0  0  0  0  0  0  0  0  0  0
   46.4430   33.0240   37.8770 C   0  0  0  0  0  0  0  0  0  0  0  0
   46.1620   33.2540   39.2070 C   0  0  0  0  0  0  0  0  0  0  0  0
   45.8847   32.4715   43.8075 H   0  0  0  0  0  0  0  0  0  0  0  0
   44.1229   36.3135   43.2045 H   0  0  0  0  0  0  0  0  0  0  0  0
   44.8464   34.8650   47.1132 H   0  0  0  0  0  0  0  0  0  0  0  0
   44.8105   32.1202   42.5552 H   0  0  0  0  0  0  0  0  0  0  0  0
   43.9607   32.5141   41.0224 H   0  0  0  0  0  0  0  0  0  0  0  0
   45.7378   32.2524   41.0224 H   0  0  0  0  0  0  0  0  0  0  0  0
   43.9231   35.7901   41.6022 H   0  0  0  0  0  0  0  0  0  0  0  0
   44.8851   35.1600   40.1307 H   0  0  0  0  0  0  0  0  0  0  0  0
   43.2408   33.2555   40.1544 H   0  0  0  0  0  0  0  0  0  0  0  0
   42.9106   36.0949   39.2421 H   0  0  0  0  0  0  0  0  0  0  0  0
   43.0014   34.5623   38.2875 H   0  0  0  0  0  0  0  0  0  0  0  0
   40.7735   35.4936   38.0792 H   0  0  0  0  0  0  0  0  0  0  0  0
   40.7285   33.9826   39.1072 H   0  0  0  0  0  0  0  0  0  0  0  0
   40.0801   36.7817   39.7908 H   0  0  0  0  0  0  0  0  0  0  0  0
   39.4117   35.2619   40.4138 H   0  0  0  0  0  0  0  0  0  0  0  0
   42.1163   36.5763   41.1031 H   0  0  0  0  0  0  0  0  0  0  0  0
   40.8372   36.1475   42.2352 H   0  0  0  0  0  0  0  0  0  0  0  0
   42.3136   34.3442   42.4030 H   0  0  0  0  0  0  0  0  0  0  0  0
   40.2829   32.7561   42.4903 H   0  0  0  0  0  0  0  0  0  0  0  0
   46.8829   35.3125   41.7011 H   0  0  0  0  0  0  0  0  0  0  0  0
   47.1331   33.5179   42.0446 H   0  0  0  0  0  0  0  0  0  0  0  0
   48.6733   35.2053   40.0597 H   0  0  0  0  0  0  0  0  0  0  0  0
   49.2591   34.8684   37.7312 H   0  0  0  0  0  0  0  0  0  0  0  0
   47.8241   33.4426   36.2678 H   0  0  0  0  0  0  0  0  0  0  0  0
   45.7829   32.3898   37.2670 H   0  0  0  0  0  0  0  0  0  0  0  0
   45.2585   32.7779   39.6157 H   0  0  0  0  0  0  0  0  0  0  0  0
  1  9  1  6
  1  3  1  0
  2  7  2  0
  3  4  2  0
  3  2  1  0
  4  5  1  0
  5  6  2  0
  7  6  1  0
  8  1  1  0
 10  9  1  0
 10 15  1  0
 11 10  1  0
 12 11  1  0
 12 13  1  0
 13 14  1  0
 14 15  1  0
 16 15  1  0
 17  1  1  0
 18 17  1  0
 19 18  2  0
 20 19  1  0
 21 22  1  0
 21 20  2  0
 22 23  2  0
 23 18  1  0
  2 24  1  0
  4 25  1  0
  6 26  1  0
  8 27  1  0
  8 28  1  0
  8 29  1  0
  9 30  1  0
  9 31  1  0
 10 32  1  6
 11 33  1  0
 11 34  1  0
 12 35  1  0
 12 36  1  0
 13 37  1  0
 13 38  1  0
 14 39  1  0
 14 40  1  0
 15 41  1  1
 16 42  1  0
 17 43  1  0
 17 44  1  0
 19 45  1  0
 20 46  1  0
 21 47  1  0
 22 48  1  0
 23 49  1  0
M  ISO  8  24  14  25  14  26  14  27   8  28   8  29   8  30   8  31   8
M  ISO  8  32  13  33  13  34  13  35  13  36  13  37  13  38  13  39  13
M  ISO  8  40  13  41  13  42  11  43   8  44   8  45  14  46  14  47  14
M  ISO  2  48  14  49  14
M  END
>  <minimizedAffinity>  (1) 
-5.91151905

>  <minimizedRMSD>  (1) 
0.47390601

$$$$
