
     RDKit          3D

 55 57  0  0  1  0  0  0  0  0999 V2000
   44.8730   34.3910   41.6730 C   0  0  1  0  0  0  0  0  0  0  0  0
   45.4060   33.4760   43.9360 C   0  0  0  0  0  0  0  0  0  0  0  0
   44.8760   34.5250   43.1310 C   0  0  0  0  0  0  0  0  0  0  0  0
   44.4250   35.5980   43.8190 C   0  0  0  0  0  0  0  0  0  0  0  0
   44.4850   35.6470   45.1690 N   0  0  0  0  0  0  0  0  0  0  0  0
   44.9890   34.6440   45.8910 C   0  0  0  0  0  0  0  0  0  0  0  0
   45.4490   33.5590   45.2660 N   0  0  0  0  0  0  0  0  0  0  0  0
   44.7490   32.9040   41.3400 C   0  0  0  0  0  0  0  0  0  0  0  0
   43.8510   35.1330   40.9810 C   0  0  0  0  0  0  0  0  0  0  0  0
   42.6520   34.4340   40.4020 C   0  0  2  0  0  0  0  0  0  0  0  0
   42.1260   35.1510   39.1840 C   0  0  0  0  0  0  0  0  0  0  0  0
   40.6060   35.0290   39.0900 C   0  0  0  0  0  0  0  0  0  0  0  0
   39.8860   35.7120   40.1820 C   0  0  0  0  0  0  0  0  0  0  0  0
   40.8880   35.8600   41.3360 C   0  0  0  0  0  0  0  0  0  0  0  0
   41.5460   34.5220   41.4290 C   0  0  1  0  0  0  0  0  0  0  0  0
   40.4110   33.1450   41.3010 S   0  0  0  0  0  0  0  0  0  0  0  0
   46.2710   34.6820   41.1780 C   0  0  0  0  0  0  0  0  0  0  0  0
   47.1610   33.7300   40.5850 C   0  0  0  0  0  0  0  0  0  0  0  0
   47.3640   33.6590   39.1060 C   0  0  0  0  0  0  0  0  0  0  0  0
   48.7050   32.9730   38.7670 C   0  0  0  0  0  0  0  0  0  0  0  0
   48.9820   31.9510   39.8240 C   0  0  0  0  0  0  0  0  0  0  0  0
   49.3500   32.7060   41.0850 C   0  0  0  0  0  0  0  0  0  0  0  0
   48.5770   33.9910   41.1390 C   0  0  0  0  0  0  0  0  0  0  0  0
   45.7915   32.5700   43.4454 H   0  0  0  0  0  0  0  0  0  0  0  0
   43.9998   36.4500   43.2683 H   0  0  0  0  0  0  0  0  0  0  0  0
   45.0246   34.7112   46.9884 H   0  0  0  0  0  0  0  0  0  0  0  0
   44.7005   32.3223   42.2723 H   0  0  0  0  0  0  0  0  0  0  0  0
   43.8336   32.7346   40.7540 H   0  0  0  0  0  0  0  0  0  0  0  0
   45.6237   32.5853   40.7540 H   0  0  0  0  0  0  0  0  0  0  0  0
   43.4665   35.8774   41.6937 H   0  0  0  0  0  0  0  0  0  0  0  0
   44.3770   35.4979   40.0865 H   0  0  0  0  0  0  0  0  0  0  0  0
   42.9432   33.4067   40.1379 H   0  0  0  0  0  0  0  0  0  0  0  0
   42.3981   36.2149   39.2475 H   0  0  0  0  0  0  0  0  0  0  0  0
   42.5702   34.6921   38.2884 H   0  0  0  0  0  0  0  0  0  0  0  0
   40.2813   35.4656   38.1340 H   0  0  0  0  0  0  0  0  0  0  0  0
   40.3647   33.9586   39.1669 H   0  0  0  0  0  0  0  0  0  0  0  0
   39.5403   36.7018   39.8491 H   0  0  0  0  0  0  0  0  0  0  0  0
   38.9998   35.1400   40.4943 H   0  0  0  0  0  0  0  0  0  0  0  0
   41.6274   36.6429   41.1117 H   0  0  0  0  0  0  0  0  0  0  0  0
   40.4028   36.1556   42.2779 H   0  0  0  0  0  0  0  0  0  0  0  0
   41.9726   34.4378   42.4394 H   0  0  0  0  0  0  0  0  0  0  0  0
   40.0625   32.7222   42.5567 H   0  0  0  0  0  0  0  0  0  0  0  0
   46.1531   35.4764   40.4263 H   0  0  0  0  0  0  0  0  0  0  0  0
   46.7824   34.8505   42.1372 H   0  0  0  0  0  0  0  0  0  0  0  0
   46.6461   32.7927   40.8428 H   0  0  0  0  0  0  0  0  0  0  0  0
   46.5412   33.0836   38.6566 H   0  0  0  0  0  0  0  0  0  0  0  0
   47.3810   34.6827   38.7037 H   0  0  0  0  0  0  0  0  0  0  0  0
   48.6361   32.4841   37.7840 H   0  0  0  0  0  0  0  0  0  0  0  0
   49.5158   33.7156   38.7318 H   0  0  0  0  0  0  0  0  0  0  0  0
   48.0865   31.3367   39.9993 H   0  0  0  0  0  0  0  0  0  0  0  0
   49.7973   31.2795   39.5166 H   0  0  0  0  0  0  0  0  0  0  0  0
   49.1049   32.0929   41.9648 H   0  0  0  0  0  0  0  0  0  0  0  0
   50.4280   32.9251   41.0812 H   0  0  0  0  0  0  0  0  0  0  0  0
   49.0807   34.7538   40.5271 H   0  0  0  0  0  0  0  0  0  0  0  0
   48.5168   34.3530   42.1760 H   0  0  0  0  0  0  0  0  0  0  0  0
  1  9  1  6
  1  3  1  0
  2  7  2  0
  3  4  2  0
  3  2  1  0
  4  5  1  0
  5  6  2  0
  7  6  1  0
  8  1  1  0
 10  9  1  0
 10 15  1  0
 11 10  1  0
 12 11  1  0
 12 13  1  0
 13 14  1  0
 14 15  1  0
 16 15  1  0
 17  1  1  0
 18 23  1  0
 18 17  1  0
 19 18  1  0
 20 19  1  0
 20 21  1  0
 21 22  1  0
 22 23  1  0
  2 24  1  0
  4 25  1  0
  6 26  1  0
  8 27  1  0
  8 28  1  0
  8 29  1  0
  9 30  1  0
  9 31  1  0
 10 32  1  6
 11 33  1  0
 11 34  1  0
 12 35  1  0
 12 36  1  0
 13 37  1  0
 13 38  1  0
 14 39  1  0
 14 40  1  0
 15 41  1  1
 16 42  1  0
 17 43  1  0
 17 44  1  0
 18 45  1  0
 19 46  1  0
 19 47  1  0
 20 48  1  0
 20 49  1  0
 21 50  1  0
 21 51  1  0
 22 52  1  0
 22 53  1  0
 23 54  1  0
 23 55  1  0
M  ISO  8  24  14  25  14  26  14  27   8  28   8  29   8  30   8  31   8
M  ISO  8  32  13  33  13  34  13  35  13  36  13  37  13  38  13  39  13
M  ISO  8  40  13  41  13  42  11  43   8  44   8  45  13  46  13  47  13
M  ISO  8  48  13  49  13  50  13  51  13  52  13  53  13  54  13  55  13
M  END
>  <minimizedAffinity>  (1) 
-5.85975218

>  <minimizedRMSD>  (1) 
1.2072432

$$$$
