
     RDKit          3D

 46 48  0  0  1  0  0  0  0  0999 V2000
   44.0030   35.1570   41.0850 C   0  0  0  0  0  0  0  0  0  0  0  0
   42.8380   34.4640   40.4480 C   0  0  2  0  0  0  0  0  0  0  0  0
   42.3890   35.1780   39.2000 C   0  0  0  0  0  0  0  0  0  0  0  0
   40.8780   35.0450   39.0040 C   0  0  0  0  0  0  0  0  0  0  0  0
   40.0880   35.7420   40.0510 C   0  0  0  0  0  0  0  0  0  0  0  0
   41.0130   35.8960   41.2680 C   0  0  0  0  0  0  0  0  0  0  0  0
   41.6640   34.5520   41.4000 C   0  0  1  0  0  0  0  0  0  0  0  0
   40.5340   33.1820   41.2020 S   0  0  0  0  0  0  0  0  0  0  0  0
   44.9930   34.3860   41.8160 C   0  0  1  0  0  0  0  0  0  0  0  0
   45.4940   33.4040   44.0220 C   0  0  0  0  0  0  0  0  0  0  0  0
   44.9840   34.4650   43.2530 C   0  0  0  0  0  0  0  0  0  0  0  0
   44.5090   35.5120   43.9700 C   0  0  0  0  0  0  0  0  0  0  0  0
   44.5340   35.5130   45.3250 N   0  0  0  0  0  0  0  0  0  0  0  0
   45.0290   34.4810   46.0170 C   0  0  0  0  0  0  0  0  0  0  0  0
   45.5110   33.4220   45.3560 N   0  0  0  0  0  0  0  0  0  0  0  0
   44.9550   32.9290   41.3840 C   0  0  0  0  0  0  0  0  0  0  0  0
   46.4210   34.7430   41.3300 C   0  0  0  0  0  0  0  0  0  0  0  0
   46.9720   33.7730   40.3520 C   0  0  0  0  0  0  0  0  0  0  0  0
   48.0610   34.3420   39.4240 C   0  0  0  0  0  0  0  0  0  0  0  0
   48.4660   33.4760   40.5650 C   0  0  0  0  0  0  0  0  0  0  0  0
   44.5393   35.6819   40.2807 H   0  0  0  0  0  0  0  0  0  0  0  0
   43.5350   35.7744   41.8659 H   0  0  0  0  0  0  0  0  0  0  0  0
   43.1442   33.4336   40.2144 H   0  0  0  0  0  0  0  0  0  0  0  0
   42.6483   36.2438   39.2827 H   0  0  0  0  0  0  0  0  0  0  0  0
   42.8952   34.7233   38.3357 H   0  0  0  0  0  0  0  0  0  0  0  0
   40.6137   35.4713   38.0250 H   0  0  0  0  0  0  0  0  0  0  0  0
   40.6332   33.9745   39.0686 H   0  0  0  0  0  0  0  0  0  0  0  0
   39.7678   36.7305   39.6900 H   0  0  0  0  0  0  0  0  0  0  0  0
   39.1828   35.1732   40.3098 H   0  0  0  0  0  0  0  0  0  0  0  0
   41.7649   36.6792   41.0912 H   0  0  0  0  0  0  0  0  0  0  0  0
   40.4709   36.1953   42.1771 H   0  0  0  0  0  0  0  0  0  0  0  0
   42.0279   34.4624   42.4342 H   0  0  0  0  0  0  0  0  0  0  0  0
   40.1541   32.7215   42.4351 H   0  0  0  0  0  0  0  0  0  0  0  0
   45.8959   32.5220   43.5019 H   0  0  0  0  0  0  0  0  0  0  0  0
   44.0933   36.3816   43.4398 H   0  0  0  0  0  0  0  0  0  0  0  0
   45.0398   34.5025   47.1167 H   0  0  0  0  0  0  0  0  0  0  0  0
   44.9382   32.2830   42.2741 H   0  0  0  0  0  0  0  0  0  0  0  0
   44.0518   32.7483   40.7826 H   0  0  0  0  0  0  0  0  0  0  0  0
   45.8475   32.7015   40.7826 H   0  0  0  0  0  0  0  0  0  0  0  0
   46.3899   35.7354   40.8566 H   0  0  0  0  0  0  0  0  0  0  0  0
   47.0780   34.7224   42.2120 H   0  0  0  0  0  0  0  0  0  0  0  0
   46.0507   33.1879   40.2146 H   0  0  0  0  0  0  0  0  0  0  0  0
   48.1522   33.9677   38.3937 H   0  0  0  0  0  0  0  0  0  0  0  0
   48.3364   35.3518   39.0858 H   0  0  0  0  0  0  0  0  0  0  0  0
   48.9937   33.9152   41.4244 H   0  0  0  0  0  0  0  0  0  0  0  0
   49.0634   32.5575   40.6618 H   0  0  0  0  0  0  0  0  0  0  0  0
  2  1  1  0
  2  7  1  0
  3  2  1  0
  4  3  1  0
  4  5  1  0
  5  6  1  0
  6  7  1  0
  8  7  1  0
  9  1  1  6
  9 11  1  0
 10 15  2  0
 11 12  2  0
 11 10  1  0
 12 13  1  0
 13 14  2  0
 15 14  1  0
 16  9  1  0
 17  9  1  0
 18 20  1  0
 18 17  1  0
 19 18  1  0
 19 20  1  0
  1 21  1  0
  1 22  1  0
  2 23  1  6
  3 24  1  0
  3 25  1  0
  4 26  1  0
  4 27  1  0
  5 28  1  0
  5 29  1  0
  6 30  1  0
  6 31  1  0
  7 32  1  1
  8 33  1  0
 10 34  1  0
 12 35  1  0
 14 36  1  0
 16 37  1  0
 16 38  1  0
 16 39  1  0
 17 40  1  0
 17 41  1  0
 18 42  1  0
 19 43  1  0
 19 44  1  0
 20 45  1  0
 20 46  1  0
M  ISO  8  21   8  22   8  23  13  24  13  25  13  26  13  27  13  28  13
M  ISO  8  29  13  30  13  31  13  32  13  33  11  34  14  35  14  36  14
M  ISO  8  37   8  38   8  39   8  40   8  41   8  42  13  43  13  44  13
M  ISO  2  45  13  46  13
M  END
>  <minimizedAffinity>  (1) 
-5.43300581

>  <minimizedRMSD>  (1) 
0.875493467

$$$$
