
     RDKit          3D

 56 58  0  0  1  0  0  0  0  0999 V2000
   44.7780   34.2550   41.7190 C   0  0  1  0  0  0  0  0  0  0  0  0
   45.4020   33.3660   43.9350 C   0  0  0  0  0  0  0  0  0  0  0  0
   44.8670   34.3790   43.1400 C   0  0  0  0  0  0  0  0  0  0  0  0
   44.4480   35.4580   43.8210 C   0  0  0  0  0  0  0  0  0  0  0  0
   44.5270   35.5780   45.1640 N   0  0  0  0  0  0  0  0  0  0  0  0
   45.0610   34.5520   45.8880 C   0  0  0  0  0  0  0  0  0  0  0  0
   45.4940   33.4520   45.2570 N   0  0  0  0  0  0  0  0  0  0  0  0
   44.6040   32.7820   41.3390 C   0  0  0  0  0  0  0  0  0  0  0  0
   43.8480   35.0690   40.9750 C   0  0  0  0  0  0  0  0  0  0  0  0
   42.5710   34.4300   40.4430 C   0  0  2  0  0  0  0  0  0  0  0  0
   42.1150   35.1630   39.1940 C   0  0  0  0  0  0  0  0  0  0  0  0
   40.5930   35.1260   39.0720 C   0  0  0  0  0  0  0  0  0  0  0  0
   39.8980   35.8650   40.1490 C   0  0  0  0  0  0  0  0  0  0  0  0
   40.9000   35.9920   41.3100 C   0  0  0  0  0  0  0  0  0  0  0  0
   41.4770   34.6330   41.4470 C   0  0  1  0  0  0  0  0  0  0  0  0
   40.2430   33.3290   41.3420 S   0  0  0  0  0  0  0  0  0  0  0  0
   46.2080   34.4690   41.1340 C   0  0  0  0  0  0  0  0  0  0  0  0
   46.9190   35.3200   41.9950 O   0  0  0  0  0  0  0  0  0  0  0  0
   48.2600   35.1660   41.6430 C   0  0  0  0  0  0  0  0  0  0  0  0
   48.4660   34.4340   40.3650 C   0  0  0  0  0  0  0  0  0  0  0  0
   48.9090   33.0160   40.4700 C   0  0  0  0  0  0  0  0  0  0  0  0
   49.8030   32.6690   41.5990 C   0  0  0  0  0  0  0  0  0  0  0  0
   50.2620   33.9540   42.2780 C   0  0  0  0  0  0  0  0  0  0  0  0
   48.9760   34.5760   42.8250 C   0  0  0  0  0  0  0  0  0  0  0  0
   45.7654   32.4515   43.4434 H   0  0  0  0  0  0  0  0  0  0  0  0
   44.0149   36.2934   43.2514 H   0  0  0  0  0  0  0  0  0  0  0  0
   45.1356   34.6274   46.9829 H   0  0  0  0  0  0  0  0  0  0  0  0
   44.5321   32.1737   42.2526 H   0  0  0  0  0  0  0  0  0  0  0  0
   43.6855   32.6624   40.7457 H   0  0  0  0  0  0  0  0  0  0  0  0
   45.4694   32.4517   40.7457 H   0  0  0  0  0  0  0  0  0  0  0  0
   43.5447   35.8963   41.6335 H   0  0  0  0  0  0  0  0  0  0  0  0
   44.4046   35.3438   40.0669 H   0  0  0  0  0  0  0  0  0  0  0  0
   42.7681   33.3667   40.2417 H   0  0  0  0  0  0  0  0  0  0  0  0
   42.4476   36.2101   39.2481 H   0  0  0  0  0  0  0  0  0  0  0  0
   42.5525   34.6687   38.3141 H   0  0  0  0  0  0  0  0  0  0  0  0
   40.3099   35.5698   38.1061 H   0  0  0  0  0  0  0  0  0  0  0  0
   40.2868   34.0725   39.1519 H   0  0  0  0  0  0  0  0  0  0  0  0
   39.5997   36.8624   39.7939 H   0  0  0  0  0  0  0  0  0  0  0  0
   38.9857   35.3391   40.4671 H   0  0  0  0  0  0  0  0  0  0  0  0
   41.6837   36.7256   41.0698 H   0  0  0  0  0  0  0  0  0  0  0  0
   40.4251   36.3422   42.2383 H   0  0  0  0  0  0  0  0  0  0  0  0
   41.9028   34.5640   42.4589 H   0  0  0  0  0  0  0  0  0  0  0  0
   39.8778   32.9431   42.6048 H   0  0  0  0  0  0  0  0  0  0  0  0
   46.7261   33.5017   41.0573 H   0  0  0  0  0  0  0  0  0  0  0  0
   46.1419   34.9169   40.1315 H   0  0  0  0  0  0  0  0  0  0  0  0
   48.6993   36.1484   41.4152 H   0  0  0  0  0  0  0  0  0  0  0  0
   49.2273   34.9791   39.7877 H   0  0  0  0  0  0  0  0  0  0  0  0
   47.4735   34.3924   39.8926 H   0  0  0  0  0  0  0  0  0  0  0  0
   48.0068   32.3929   40.5584 H   0  0  0  0  0  0  0  0  0  0  0  0
   49.5107   32.8388   39.5664 H   0  0  0  0  0  0  0  0  0  0  0  0
   49.2591   32.0433   42.3219 H   0  0  0  0  0  0  0  0  0  0  0  0
   50.6754   32.1123   41.2262 H   0  0  0  0  0  0  0  0  0  0  0  0
   50.9653   33.7330   43.0944 H   0  0  0  0  0  0  0  0  0  0  0  0
   50.7922   34.6265   41.5876 H   0  0  0  0  0  0  0  0  0  0  0  0
   49.2139   35.3613   43.5576 H   0  0  0  0  0  0  0  0  0  0  0  0
   48.3545   33.8266   43.3370 H   0  0  0  0  0  0  0  0  0  0  0  0
  1  9  1  6
  1  3  1  0
  2  7  2  0
  3  4  2  0
  3  2  1  0
  4  5  1  0
  5  6  2  0
  7  6  1  0
  8  1  1  0
 10  9  1  0
 10 15  1  0
 11 10  1  0
 12 11  1  0
 12 13  1  0
 13 14  1  0
 14 15  1  0
 16 15  1  0
 17  1  1  0
 17 18  1  0
 19 18  1  0
 19 24  1  0
 20 21  1  0
 20 19  1  0
 21 22  1  0
 22 23  1  0
 23 24  1  0
  2 25  1  0
  4 26  1  0
  6 27  1  0
  8 28  1  0
  8 29  1  0
  8 30  1  0
  9 31  1  0
  9 32  1  0
 10 33  1  6
 11 34  1  0
 11 35  1  0
 12 36  1  0
 12 37  1  0
 13 38  1  0
 13 39  1  0
 14 40  1  0
 14 41  1  0
 15 42  1  1
 16 43  1  0
 17 44  1  0
 17 45  1  0
 19 46  1  0
 20 47  1  0
 20 48  1  0
 21 49  1  0
 21 50  1  0
 22 51  1  0
 22 52  1  0
 23 53  1  0
 23 54  1  0
 24 55  1  0
 24 56  1  0
M  ISO  8  25  14  26  14  27  14  28   8  29   8  30   8  31   8  32   8
M  ISO  8  33  13  34  13  35  13  36  13  37  13  38  13  39  13  40  13
M  ISO  8  41  13  42  13  43  11  44   8  45   8  46  13  47  13  48  13
M  ISO  8  49  13  50  13  51  13  52  13  53  13  54  13  55  13  56  13
M  END
>  <minimizedAffinity>  (1) 
-6.26307011

>  <minimizedRMSD>  (1) 
0.514986813

$$$$
