
     RDKit          3D

 47 49  0  0  1  0  0  0  0  0999 V2000
   44.5210   33.6790   41.4870 C   0  0  1  0  0  0  0  0  0  0  0  0
   45.2380   33.2470   43.8020 C   0  0  0  0  0  0  0  0  0  0  0  0
   44.6940   34.1000   42.8420 C   0  0  0  0  0  0  0  0  0  0  0  0
   44.3620   35.3140   43.3090 C   0  0  0  0  0  0  0  0  0  0  0  0
   44.5370   35.6860   44.6000 N   0  0  0  0  0  0  0  0  0  0  0  0
   45.0680   34.8200   45.4830 C   0  0  0  0  0  0  0  0  0  0  0  0
   45.4220   33.5810   45.0730 N   0  0  0  0  0  0  0  0  0  0  0  0
   43.9360   32.2700   41.4550 C   0  0  0  0  0  0  0  0  0  0  0  0
   43.7910   34.5260   40.5590 C   0  0  0  0  0  0  0  0  0  0  0  0
   42.3820   34.1460   40.1640 C   0  0  2  0  0  0  0  0  0  0  0  0
   41.9220   35.0290   39.0170 C   0  0  0  0  0  0  0  0  0  0  0  0
   40.4170   35.2610   39.0820 C   0  0  0  0  0  0  0  0  0  0  0  0
   39.9780   36.0210   40.2730 C   0  0  0  0  0  0  0  0  0  0  0  0
   41.1060   35.8950   41.3050 C   0  0  0  0  0  0  0  0  0  0  0  0
   41.4520   34.4470   41.2980 C   0  0  1  0  0  0  0  0  0  0  0  0
   40.0200   33.3660   41.2720 S   0  0  0  0  0  0  0  0  0  0  0  0
   45.9270   33.3740   40.9000 C   0  0  0  0  0  0  0  0  0  0  0  0
   46.6560   34.5720   40.8430 O   0  0  0  0  0  0  0  0  0  0  0  0
   47.8840   34.6290   41.4880 C   0  0  0  0  0  0  0  0  0  0  0  0
   48.7680   35.6850   41.5610 C   0  0  0  0  0  0  0  0  0  0  0  0
   49.8450   35.2600   42.3100 C   0  0  0  0  0  0  0  0  0  0  0  0
   49.5580   33.9360   42.6640 C   0  0  0  0  0  0  0  0  0  0  0  0
   48.3830   33.6170   42.1490 O   0  0  0  0  0  0  0  0  0  0  0  0
   45.5326   32.2353   43.4862 H   0  0  0  0  0  0  0  0  0  0  0  0
   43.9265   36.0425   42.6092 H   0  0  0  0  0  0  0  0  0  0  0  0
   45.2131   35.1183   46.5318 H   0  0  0  0  0  0  0  0  0  0  0  0
   43.7871   31.9114   42.4842 H   0  0  0  0  0  0  0  0  0  0  0  0
   42.9701   32.2859   40.9289 H   0  0  0  0  0  0  0  0  0  0  0  0
   44.6291   31.5971   40.9289 H   0  0  0  0  0  0  0  0  0  0  0  0
   43.7388   35.5274   41.0112 H   0  0  0  0  0  0  0  0  0  0  0  0
   44.3585   34.4354   39.6211 H   0  0  0  0  0  0  0  0  0  0  0  0
   42.3738   33.0801   39.8923 H   0  0  0  0  0  0  0  0  0  0  0  0
   42.1706   34.5401   38.0635 H   0  0  0  0  0  0  0  0  0  0  0  0
   42.4320   36.0006   39.0938 H   0  0  0  0  0  0  0  0  0  0  0  0
   40.1136   35.8191   38.1839 H   0  0  0  0  0  0  0  0  0  0  0  0
   39.9438   34.2699   39.1436 H   0  0  0  0  0  0  0  0  0  0  0  0
   39.8167   37.0774   40.0124 H   0  0  0  0  0  0  0  0  0  0  0  0
   39.0290   35.6302   40.6688 H   0  0  0  0  0  0  0  0  0  0  0  0
   41.9733   36.5042   41.0104 H   0  0  0  0  0  0  0  0  0  0  0  0
   40.8049   36.2500   42.3017 H   0  0  0  0  0  0  0  0  0  0  0  0
   41.9602   34.2370   42.2507 H   0  0  0  0  0  0  0  0  0  0  0  0
   39.6406   33.0796   42.5569 H   0  0  0  0  0  0  0  0  0  0  0  0
   46.4496   32.6521   41.5449 H   0  0  0  0  0  0  0  0  0  0  0  0
   45.8292   32.9444   39.8921 H   0  0  0  0  0  0  0  0  0  0  0  0
   48.6384   36.6787   41.1074 H   0  0  0  0  0  0  0  0  0  0  0  0
   50.7418   35.8397   42.5741 H   0  0  0  0  0  0  0  0  0  0  0  0
   50.1992   33.2757   43.2663 H   0  0  0  0  0  0  0  0  0  0  0  0
  1  9  1  6
  1  3  1  0
  2  7  2  0
  3  4  2  0
  3  2  1  0
  4  5  1  0
  5  6  2  0
  7  6  1  0
  8  1  1  0
 10  9  1  0
 10 15  1  0
 11 12  1  0
 11 10  1  0
 12 13  1  0
 13 14  1  0
 15 14  1  0
 16 15  1  0
 17  1  1  0
 18 17  1  0
 18 19  1  0
 19 20  2  0
 19 23  1  0
 20 21  1  0
 21 22  2  0
 23 22  1  0
  2 24  1  0
  4 25  1  0
  6 26  1  0
  8 27  1  0
  8 28  1  0
  8 29  1  0
  9 30  1  0
  9 31  1  0
 10 32  1  6
 11 33  1  0
 11 34  1  0
 12 35  1  0
 12 36  1  0
 13 37  1  0
 13 38  1  0
 14 39  1  0
 14 40  1  0
 15 41  1  1
 16 42  1  0
 17 43  1  0
 17 44  1  0
 20 45  1  0
 21 46  1  0
 22 47  1  0
M  ISO  8  24  14  25  14  26  14  27   8  28   8  29   8  30   8  31   8
M  ISO  8  32  13  33  13  34  13  35  13  36  13  37  13  38  13  39  13
M  ISO  8  40  13  41  13  42  11  43   8  44   8  45  14  46  14  47  14
M  END
>  <minimizedAffinity>  (1) 
-6.04028225

>  <minimizedRMSD>  (1) 
0.822827935

$$$$
