
     RDKit          3D

 43 44  0  0  1  0  0  0  0  0999 V2000
   44.8370   34.0900   41.5370 C   0  0  1  0  0  0  0  0  0  0  0  0
   45.3950   33.3590   43.8260 C   0  0  0  0  0  0  0  0  0  0  0  0
   44.8990   34.3210   42.9470 C   0  0  0  0  0  0  0  0  0  0  0  0
   44.4900   35.4560   43.5390 C   0  0  0  0  0  0  0  0  0  0  0  0
   44.5450   35.6740   44.8720 N   0  0  0  0  0  0  0  0  0  0  0  0
   45.0420   34.6910   45.6790 C   0  0  0  0  0  0  0  0  0  0  0  0
   45.4650   33.5360   45.1420 N   0  0  0  0  0  0  0  0  0  0  0  0
   44.5450   32.6100   41.2710 C   0  0  0  0  0  0  0  0  0  0  0  0
   43.9860   34.9090   40.7090 C   0  0  0  0  0  0  0  0  0  0  0  0
   42.6590   34.3410   40.2180 C   0  0  2  0  0  0  0  0  0  0  0  0
   42.1450   35.1730   39.0560 C   0  0  0  0  0  0  0  0  0  0  0  0
   40.6190   35.1880   39.0390 C   0  0  0  0  0  0  0  0  0  0  0  0
   40.0130   35.8540   40.2090 C   0  0  0  0  0  0  0  0  0  0  0  0
   41.0960   35.8820   41.2990 C   0  0  0  0  0  0  0  0  0  0  0  0
   41.6390   34.4990   41.3030 C   0  0  1  0  0  0  0  0  0  0  0  0
   40.3640   33.2340   41.1910 S   0  0  0  0  0  0  0  0  0  0  0  0
   46.2890   34.1550   40.9820 C   0  0  0  0  0  0  0  0  0  0  0  0
   46.9940   35.1400   41.6960 O   0  0  0  0  0  0  0  0  0  0  0  0
   48.3730   35.2950   41.5940 C   0  0  0  0  0  0  0  0  0  0  0  0
   49.1160   34.9620   42.5650 O   0  0  0  0  0  0  0  0  0  0  0  0
   49.0310   35.8000   40.4910 O   0  0  0  0  0  0  0  0  0  0  0  0
   45.7467   32.4038   43.4090 H   0  0  0  0  0  0  0  0  0  0  0  0
   44.0862   36.2556   42.9006 H   0  0  0  0  0  0  0  0  0  0  0  0
   45.0956   34.8454   46.7668 H   0  0  0  0  0  0  0  0  0  0  0  0
   44.4402   32.0791   42.2287 H   0  0  0  0  0  0  0  0  0  0  0  0
   43.6114   32.5179   40.6967 H   0  0  0  0  0  0  0  0  0  0  0  0
   45.3737   32.1702   40.6967 H   0  0  0  0  0  0  0  0  0  0  0  0
   43.7539   35.8168   41.2851 H   0  0  0  0  0  0  0  0  0  0  0  0
   44.5701   35.0457   39.7869 H   0  0  0  0  0  0  0  0  0  0  0  0
   42.8118   33.2905   39.9298 H   0  0  0  0  0  0  0  0  0  0  0  0
   42.5155   36.2037   39.1578 H   0  0  0  0  0  0  0  0  0  0  0  0
   42.5056   34.7299   38.1160 H   0  0  0  0  0  0  0  0  0  0  0  0
   40.2881   35.7141   38.1314 H   0  0  0  0  0  0  0  0  0  0  0  0
   40.2896   34.1387   39.0635 H   0  0  0  0  0  0  0  0  0  0  0  0
   39.7083   36.8784   39.9486 H   0  0  0  0  0  0  0  0  0  0  0  0
   39.1146   35.3198   40.5520 H   0  0  0  0  0  0  0  0  0  0  0  0
   41.8823   36.6099   41.0501 H   0  0  0  0  0  0  0  0  0  0  0  0
   40.7010   36.1842   42.2801 H   0  0  0  0  0  0  0  0  0  0  0  0
   42.1244   34.3478   42.2785 H   0  0  0  0  0  0  0  0  0  0  0  0
   39.9834   32.8564   42.4517 H   0  0  0  0  0  0  0  0  0  0  0  0
   46.7802   33.1793   41.1116 H   0  0  0  0  0  0  0  0  0  0  0  0
   46.2730   34.4039   39.9106 H   0  0  0  0  0  0  0  0  0  0  0  0
   50.0178   35.8788   40.4965 H   0  0  0  0  0  0  0  0  0  0  0  0
  1  9  1  6
  1  3  1  0
  2  7  2  0
  3  4  2  0
  3  2  1  0
  4  5  1  0
  5  6  2  0
  7  6  1  0
  8  1  1  0
 10  9  1  0
 10 15  1  0
 11 10  1  0
 12 11  1  0
 12 13  1  0
 13 14  1  0
 14 15  1  0
 16 15  1  0
 17  1  1  0
 17 18  1  0
 19 18  1  0
 19 20  2  0
 21 19  1  0
  2 22  1  0
  4 23  1  0
  6 24  1  0
  8 25  1  0
  8 26  1  0
  8 27  1  0
  9 28  1  0
  9 29  1  0
 10 30  1  6
 11 31  1  0
 11 32  1  0
 12 33  1  0
 12 34  1  0
 13 35  1  0
 13 36  1  0
 14 37  1  0
 14 38  1  0
 15 39  1  1
 16 40  1  0
 17 41  1  0
 17 42  1  0
 21 43  1  0
M  ISO  8  22  14  23  14  24  14  25   8  26   8  27   8  28   8  29   8
M  ISO  8  30  13  31  13  32  13  33  13  34  13  35  13  36  13  37  13
M  ISO  6  38  13  39  13  40  11  41   8  42   8  43   3
M  END
>  <minimizedAffinity>  (1) 
-5.73598099

>  <minimizedRMSD>  (1) 
0.237640351

$$$$
