
     RDKit          3D

 49 50  0  0  1  0  0  0  0  0999 V2000
   44.0240   35.0280   40.9770 C   0  0  0  0  0  0  0  0  0  0  0  0
   42.7590   34.4000   40.4080 C   0  0  2  0  0  0  0  0  0  0  0  0
   42.3170   35.1670   39.1750 C   0  0  0  0  0  0  0  0  0  0  0  0
   40.8050   35.1420   39.0310 C   0  0  0  0  0  0  0  0  0  0  0  0
   40.0830   35.8310   40.1200 C   0  0  0  0  0  0  0  0  0  0  0  0
   41.0690   35.9290   41.2980 C   0  0  0  0  0  0  0  0  0  0  0  0
   41.6490   34.5670   41.4020 C   0  0  1  0  0  0  0  0  0  0  0  0
   40.4250   33.2590   41.2340 S   0  0  0  0  0  0  0  0  0  0  0  0
   44.9110   34.2140   41.7780 C   0  0  1  0  0  0  0  0  0  0  0  0
   45.4480   33.3760   44.0310 C   0  0  0  0  0  0  0  0  0  0  0  0
   44.9370   34.3690   43.1970 C   0  0  0  0  0  0  0  0  0  0  0  0
   44.4800   35.4550   43.8410 C   0  0  0  0  0  0  0  0  0  0  0  0
   44.5030   35.5980   45.1860 N   0  0  0  0  0  0  0  0  0  0  0  0
   45.0150   34.5940   45.9480 C   0  0  0  0  0  0  0  0  0  0  0  0
   45.4860   33.4830   45.3560 N   0  0  0  0  0  0  0  0  0  0  0  0
   44.7240   32.7380   41.4210 C   0  0  0  0  0  0  0  0  0  0  0  0
   46.3670   34.3890   41.2530 C   0  0  0  0  0  0  0  0  0  0  0  0
   47.0410   35.2800   42.0980 O   0  0  0  0  0  0  0  0  0  0  0  0
   48.3500   35.4750   41.6660 C   0  0  0  0  0  0  0  0  0  0  0  0
   49.3820   34.7880   42.5020 C   0  0  0  0  0  0  0  0  0  0  0  0
   48.5270   34.9930   40.2270 C   0  0  0  0  0  0  0  0  0  0  0  0
   44.6105   35.4009   40.1244 H   0  0  0  0  0  0  0  0  0  0  0  0
   43.6491   35.7835   41.6832 H   0  0  0  0  0  0  0  0  0  0  0  0
   42.9649   33.3442   40.1779 H   0  0  0  0  0  0  0  0  0  0  0  0
   42.6529   36.2109   39.2612 H   0  0  0  0  0  0  0  0  0  0  0  0
   42.7613   34.6911   38.2884 H   0  0  0  0  0  0  0  0  0  0  0  0
   40.5407   35.6278   38.0801 H   0  0  0  0  0  0  0  0  0  0  0  0
   40.5007   34.0856   39.0680 H   0  0  0  0  0  0  0  0  0  0  0  0
   39.7751   36.8362   39.7964 H   0  0  0  0  0  0  0  0  0  0  0  0
   39.1727   35.2833   40.4052 H   0  0  0  0  0  0  0  0  0  0  0  0
   41.8530   36.6720   41.0897 H   0  0  0  0  0  0  0  0  0  0  0  0
   40.5813   36.2514   42.2298 H   0  0  0  0  0  0  0  0  0  0  0  0
   42.0562   34.4692   42.4192 H   0  0  0  0  0  0  0  0  0  0  0  0
   40.0319   32.8390   42.4774 H   0  0  0  0  0  0  0  0  0  0  0  0
   45.8397   32.4573   43.5699 H   0  0  0  0  0  0  0  0  0  0  0  0
   44.0626   36.2762   43.2399 H   0  0  0  0  0  0  0  0  0  0  0  0
   45.0434   34.6910   47.0433 H   0  0  0  0  0  0  0  0  0  0  0  0
   44.6488   32.1442   42.3439 H   0  0  0  0  0  0  0  0  0  0  0  0
   43.8034   32.6172   40.8312 H   0  0  0  0  0  0  0  0  0  0  0  0
   45.5854   32.3914   40.8312 H   0  0  0  0  0  0  0  0  0  0  0  0
   46.8809   33.4164   41.2537 H   0  0  0  0  0  0  0  0  0  0  0  0
   46.3521   34.7824   40.2259 H   0  0  0  0  0  0  0  0  0  0  0  0
   48.5092   36.5600   41.7519 H   0  0  0  0  0  0  0  0  0  0  0  0
   49.1524   34.9408   43.5669 H   0  0  0  0  0  0  0  0  0  0  0  0
   49.3787   33.7112   42.2771 H   0  0  0  0  0  0  0  0  0  0  0  0
   50.3741   35.2065   42.2771 H   0  0  0  0  0  0  0  0  0  0  0  0
   48.9062   33.9604   40.2302 H   0  0  0  0  0  0  0  0  0  0  0  0
   47.5580   35.0262   39.7074 H   0  0  0  0  0  0  0  0  0  0  0  0
   49.2442   35.6454   39.7074 H   0  0  0  0  0  0  0  0  0  0  0  0
  2  1  1  0
  2  7  1  0
  3  2  1  0
  4  3  1  0
  4  5  1  0
  5  6  1  0
  6  7  1  0
  8  7  1  0
  9  1  1  6
  9 11  1  0
 10 15  2  0
 11 12  2  0
 11 10  1  0
 12 13  1  0
 13 14  2  0
 15 14  1  0
 16  9  1  0
 17  9  1  0
 17 18  1  0
 19 18  1  0
 19 20  1  0
 21 19  1  0
  1 22  1  0
  1 23  1  0
  2 24  1  6
  3 25  1  0
  3 26  1  0
  4 27  1  0
  4 28  1  0
  5 29  1  0
  5 30  1  0
  6 31  1  0
  6 32  1  0
  7 33  1  1
  8 34  1  0
 10 35  1  0
 12 36  1  0
 14 37  1  0
 16 38  1  0
 16 39  1  0
 16 40  1  0
 17 41  1  0
 17 42  1  0
 19 43  1  0
 20 44  1  0
 20 45  1  0
 20 46  1  0
 21 47  1  0
 21 48  1  0
 21 49  1  0
M  ISO  8  22   8  23   8  24  13  25  13  26  13  27  13  28  13  29  13
M  ISO  8  30  13  31  13  32  13  33  13  34  11  35  14  36  14  37  14
M  ISO  8  38   8  39   8  40   8  41   8  42   8  43   8  44   8  45   8
M  ISO  4  46   8  47   8  48   8  49   8
M  END
>  <minimizedAffinity>  (1) 
-5.71598434

>  <minimizedRMSD>  (1) 
0.453264236

$$$$
