
     RDKit          3D

 19 20  0  0  0  0  0  0  0  0999 V2000
   47.3330   32.3290   47.9590 C   0  0  0  0  0  0  0  0  0  0  0  0
   46.1010   32.0650   47.3400 C   0  0  0  0  0  0  0  0  0  0  0  0
   45.7490   30.7240   47.1050 C   0  0  0  0  0  0  0  0  0  0  0  0
   46.6020   29.7490   47.4810 N   0  0  0  0  0  0  0  0  0  0  0  0
   47.7820   30.0330   48.0750 C   0  0  0  0  0  0  0  0  0  0  0  0
   48.1470   31.3100   48.3130 N   0  0  0  0  0  0  0  0  0  0  0  0
   45.3580   33.1710   47.0250 O   0  0  0  0  0  0  0  0  0  0  0  0
   45.4360   33.8870   45.8450 C   0  0  0  0  0  0  0  0  0  0  0  0
   46.2000   33.5780   44.7510 C   0  0  0  0  0  0  0  0  0  0  0  0
   46.1650   34.3920   43.6600 C   0  0  0  0  0  0  0  0  0  0  0  0
   45.4030   35.4780   43.6420 N   0  0  0  0  0  0  0  0  0  0  0  0
   44.6560   35.7710   44.7290 C   0  0  0  0  0  0  0  0  0  0  0  0
   44.6580   35.0010   45.8210 N   0  0  0  0  0  0  0  0  0  0  0  0
   47.6365   33.3677   48.1563 H   0  0  0  0  0  0  0  0  0  0  0  0
   44.7929   30.4739   46.6220 H   0  0  0  0  0  0  0  0  0  0  0  0
   48.4536   29.2127   48.3683 H   0  0  0  0  0  0  0  0  0  0  0  0
   46.8360   32.6805   44.7537 H   0  0  0  0  0  0  0  0  0  0  0  0
   46.7777   34.1455   42.7803 H   0  0  0  0  0  0  0  0  0  0  0  0
   44.0259   36.6725   44.7145 H   0  0  0  0  0  0  0  0  0  0  0  0
  1  6  2  0
  2  1  1  0
  3  2  2  0
  3  4  1  0
  4  5  2  0
  5  6  1  0
  7  2  1  0
  8  7  1  0
  9  8  2  0
 10  9  1  0
 11 10  2  0
 11 12  1  0
 12 13  2  0
 13  8  1  0
  1 14  1  0
  3 15  1  0
  5 16  1  0
  9 17  1  0
 10 18  1  0
 12 19  1  0
M  ISO  6  14  14  15  14  16  14  17  14  18  14  19  14
M  END
>  <minimizedAffinity>  (1) 
-4.07010126

>  <minimizedRMSD>  (1) 
5.49644518

$$$$
