
     RDKit          3D

 18 19  0  0  0  0  0  0  0  0999 V2000
   44.3710   35.7500   44.2690 C   0  0  0  0  0  0  0  0  0  0  0  0
   44.7110   34.8880   43.2240 C   0  0  0  0  0  0  0  0  0  0  0  0
   45.3350   33.6690   43.5030 C   0  0  0  0  0  0  0  0  0  0  0  0
   45.5880   33.3740   44.8140 N   0  0  0  0  0  0  0  0  0  0  0  0
   45.2550   34.2150   45.8100 C   0  0  0  0  0  0  0  0  0  0  0  0
   44.6510   35.3970   45.5530 N   0  0  0  0  0  0  0  0  0  0  0  0
   44.3790   35.3530   41.9760 O   0  0  0  0  0  0  0  0  0  0  0  0
   43.8540   34.6240   40.9150 C   0  0  0  0  0  0  0  0  0  0  0  0
   42.8500   35.1910   39.9840 C   0  0  0  0  0  0  0  0  0  0  0  0
   42.3980   34.1680   41.0200 C   0  0  0  0  0  0  0  0  0  0  0  0
   43.8789   36.7102   44.0550 H   0  0  0  0  0  0  0  0  0  0  0  0
   45.6123   32.9727   42.6978 H   0  0  0  0  0  0  0  0  0  0  0  0
   45.4778   33.9363   46.8505 H   0  0  0  0  0  0  0  0  0  0  0  0
   44.8328   34.1480   40.7558 H   0  0  0  0  0  0  0  0  0  0  0  0
   42.5438   36.2428   40.0843 H   0  0  0  0  0  0  0  0  0  0  0  0
   42.7697   35.2673   38.8896 H   0  0  0  0  0  0  0  0  0  0  0  0
   42.1103   33.1528   40.7092 H   0  0  0  0  0  0  0  0  0  0  0  0
   41.6377   34.1323   41.8141 H   0  0  0  0  0  0  0  0  0  0  0  0
  1  6  2  0
  2  3  2  0
  2  1  1  0
  3  4  1  0
  4  5  2  0
  6  5  1  0
  7  2  1  0
  8 10  1  0
  8  7  1  0
  9  8  1  0
  9 10  1  0
  1 11  1  0
  3 12  1  0
  5 13  1  0
  8 14  1  0
  9 15  1  0
  9 16  1  0
 10 17  1  0
 10 18  1  0
M  ISO  8  11  14  12  14  13  14  14  13  15  13  16  13  17  13  18  13
M  END
>  <minimizedAffinity>  (1) 
-3.13306952

>  <minimizedRMSD>  (1) 
2.05585146

$$$$
