
     RDKit          3D

 31 32  0  0  0  0  0  0  0  0999 V2000
   47.3920   34.0480   41.1920 C   0  0  0  0  0  0  0  0  0  0  0  0
   48.1170   34.5300   39.9670 C   0  0  0  0  0  0  0  0  0  0  0  0
   47.9030   33.7310   38.7890 N   0  0  0  0  0  0  0  0  0  0  0  0
   48.4080   32.4200   38.9710 C   0  0  0  0  0  0  0  0  0  0  0  0
   49.6930   32.1750   38.1830 C   0  0  0  0  0  0  0  0  0  0  0  0
   49.5500   32.4760   36.7980 N   0  0  0  0  0  0  0  0  0  0  0  0
   48.6800   33.5560   36.4700 C   0  0  0  0  0  0  0  0  0  0  0  0
   48.3160   34.4310   37.6200 C   0  0  0  0  0  0  0  0  0  0  0  0
   46.6020   35.0420   41.7760 O   0  0  0  0  0  0  0  0  0  0  0  0
   45.1570   36.0330   43.3170 C   0  0  0  0  0  0  0  0  0  0  0  0
   46.0300   34.9800   43.0230 C   0  0  0  0  0  0  0  0  0  0  0  0
   46.2300   33.9960   43.9950 C   0  0  0  0  0  0  0  0  0  0  0  0
   45.5670   34.1230   45.1620 N   0  0  0  0  0  0  0  0  0  0  0  0
   44.7410   35.1330   45.4240 C   0  0  0  0  0  0  0  0  0  0  0  0
   44.5230   36.0980   44.5140 N   0  0  0  0  0  0  0  0  0  0  0  0
   48.1341   33.7092   41.9299 H   0  0  0  0  0  0  0  0  0  0  0  0
   46.7238   33.2306   40.8831 H   0  0  0  0  0  0  0  0  0  0  0  0
   47.7817   35.5552   39.7514 H   0  0  0  0  0  0  0  0  0  0  0  0
   49.1910   34.4655   40.1957 H   0  0  0  0  0  0  0  0  0  0  0  0
   48.6151   32.2668   40.0404 H   0  0  0  0  0  0  0  0  0  0  0  0
   47.6491   31.7146   38.6015 H   0  0  0  0  0  0  0  0  0  0  0  0
   50.4893   32.8083   38.6011 H   0  0  0  0  0  0  0  0  0  0  0  0
   49.9388   31.1063   38.2689 H   0  0  0  0  0  0  0  0  0  0  0  0
   50.4843   32.7032   36.4288 H   0  0  0  0  0  0  0  0  0  0  0  0
   49.1760   34.1773   35.7098 H   0  0  0  0  0  0  0  0  0  0  0  0
   47.7427   33.1039   36.1135 H   0  0  0  0  0  0  0  0  0  0  0  0
   49.1937   35.0418   37.8778 H   0  0  0  0  0  0  0  0  0  0  0  0
   47.4536   35.0313   37.2947 H   0  0  0  0  0  0  0  0  0  0  0  0
   44.9825   36.8187   42.5672 H   0  0  0  0  0  0  0  0  0  0  0  0
   46.9054   33.1468   43.8141 H   0  0  0  0  0  0  0  0  0  0  0  0
   44.2304   35.1787   46.3972 H   0  0  0  0  0  0  0  0  0  0  0  0
  1  9  1  0
  2  1  1  0
  3  4  1  0
  3  2  1  0
  5  4  1  0
  6  5  1  0
  7  6  1  0
  7  8  1  0
  8  3  1  0
  9 11  1  0
 10 15  2  0
 11 10  1  0
 11 12  2  0
 12 13  1  0
 13 14  2  0
 15 14  1  0
  1 16  1  0
  1 17  1  0
  2 18  1  0
  2 19  1  0
  4 20  1  0
  4 21  1  0
  5 22  1  0
  5 23  1  0
  6 24  1  0
  7 25  1  0
  7 26  1  0
  8 27  1  0
  8 28  1  0
 10 29  1  0
 12 30  1  0
 14 31  1  0
M  ISO  8  16   8  17   8  18   8  19   8  20  13  21  13  22  13  23  13
M  ISO  8  24   5  25  13  26  13  27  13  28  13  29  14  30  14  31  14
M  END
>  <minimizedAffinity>  (1) 
-4.13630247

>  <minimizedRMSD>  (1) 
2.8741281

$$$$
