
     RDKit          3D

 24 25  0  0  0  0  0  0  0  0999 V2000
   46.3870   35.0910   41.7280 O   0  0  0  0  0  0  0  0  0  0  0  0
   45.1260   36.1800   43.3680 C   0  0  0  0  0  0  0  0  0  0  0  0
   45.8610   35.0570   42.9850 C   0  0  0  0  0  0  0  0  0  0  0  0
   45.9930   34.0120   43.9030 C   0  0  0  0  0  0  0  0  0  0  0  0
   45.4070   34.1480   45.1020 N   0  0  0  0  0  0  0  0  0  0  0  0
   44.7030   35.2360   45.4550 C   0  0  0  0  0  0  0  0  0  0  0  0
   44.5600   36.2510   44.5950 N   0  0  0  0  0  0  0  0  0  0  0  0
   47.5830   34.5410   41.2900 C   0  0  0  0  0  0  0  0  0  0  0  0
   48.7790   35.4580   41.5370 C   0  0  0  0  0  0  0  0  0  0  0  0
   49.5740   34.7830   42.6610 C   0  0  0  0  0  0  0  0  0  0  0  0
   49.3250   33.2890   42.7090 C   0  0  0  0  0  0  0  0  0  0  0  0
   50.6850   33.8720   42.3120 C   0  0  0  0  0  0  0  0  0  0  0  0
   45.0055   37.0169   42.6644 H   0  0  0  0  0  0  0  0  0  0  0  0
   46.5607   33.1045   43.6500 H   0  0  0  0  0  0  0  0  0  0  0  0
   44.2433   35.2927   46.4527 H   0  0  0  0  0  0  0  0  0  0  0  0
   47.5061   34.3461   40.2101 H   0  0  0  0  0  0  0  0  0  0  0  0
   47.7511   33.6151   41.8596 H   0  0  0  0  0  0  0  0  0  0  0  0
   49.3929   35.5454   40.6284 H   0  0  0  0  0  0  0  0  0  0  0  0
   48.4677   36.4778   41.8072 H   0  0  0  0  0  0  0  0  0  0  0  0
   49.5235   35.6382   43.3510 H   0  0  0  0  0  0  0  0  0  0  0  0
   49.2006   32.7775   43.6749 H   0  0  0  0  0  0  0  0  0  0  0  0
   48.6017   32.5946   42.2566 H   0  0  0  0  0  0  0  0  0  0  0  0
   51.0296   33.8007   41.2698 H   0  0  0  0  0  0  0  0  0  0  0  0
   51.7184   33.7389   42.6645 H   0  0  0  0  0  0  0  0  0  0  0  0
  1  3  1  0
  2  7  2  0
  3  2  1  0
  3  4  2  0
  4  5  1  0
  5  6  2  0
  7  6  1  0
  8  9  1  0
  8  1  1  0
  9 10  1  0
 10 11  1  0
 12 10  1  0
 12 11  1  0
  2 13  1  0
  4 14  1  0
  6 15  1  0
  8 16  1  0
  8 17  1  0
  9 18  1  0
  9 19  1  0
 10 20  1  0
 11 21  1  0
 11 22  1  0
 12 23  1  0
 12 24  1  0
M  ISO  8  13  14  14  14  15  14  16   8  17   8  18   8  19   8  20  13
M  ISO  4  21  13  22  13  23  13  24  13
M  END
>  <minimizedAffinity>  (1) 
-4.1087513

>  <minimizedRMSD>  (1) 
0.936470687

$$$$
