
     RDKit          3D

 18 18  0  0  0  0  0  0  0  0999 V2000
   45.1590   36.0850   43.3270 C   0  0  0  0  0  0  0  0  0  0  0  0
   45.9390   34.9550   43.0730 C   0  0  0  0  0  0  0  0  0  0  0  0
   46.0580   33.9910   44.0760 C   0  0  0  0  0  0  0  0  0  0  0  0
   45.4160   34.2000   45.2300 N   0  0  0  0  0  0  0  0  0  0  0  0
   44.6600   35.2900   45.4780 C   0  0  0  0  0  0  0  0  0  0  0  0
   44.5390   36.2320   44.5100 N   0  0  0  0  0  0  0  0  0  0  0  0
   46.5230   34.9080   41.8370 O   0  0  0  0  0  0  0  0  0  0  0  0
   47.7900   34.4420   41.5190 C   0  0  0  0  0  0  0  0  0  0  0  0
   48.8290   35.5520   41.3990 C   0  0  0  0  0  0  0  0  0  0  0  0
   49.1070   35.8810   40.0880 O   0  0  0  0  0  0  0  0  0  0  0  0
   45.0514   36.8598   42.5537 H   0  0  0  0  0  0  0  0  0  0  0  0
   46.6628   33.0853   43.9212 H   0  0  0  0  0  0  0  0  0  0  0  0
   44.1520   35.4120   46.4460 H   0  0  0  0  0  0  0  0  0  0  0  0
   48.1133   33.7449   42.3061 H   0  0  0  0  0  0  0  0  0  0  0  0
   47.7201   33.9538   40.5358 H   0  0  0  0  0  0  0  0  0  0  0  0
   48.4491   36.4469   41.9136 H   0  0  0  0  0  0  0  0  0  0  0  0
   49.7608   35.1859   41.8547 H   0  0  0  0  0  0  0  0  0  0  0  0
   49.7458   36.6370   40.0658 H   0  0  0  0  0  0  0  0  0  0  0  0
  1  6  2  0
  2  1  1  0
  2  3  2  0
  3  4  1  0
  4  5  2  0
  6  5  1  0
  7  2  1  0
  8  7  1  0
  9  8  1  0
 10  9  1  0
  1 11  1  0
  3 12  1  0
  5 13  1  0
  8 14  1  0
  8 15  1  0
  9 16  1  0
  9 17  1  0
 10 18  1  0
M  ISO  8  11  14  12  14  13  14  14   8  15   8  16   8  17   8  18   3
M  END
>  <minimizedAffinity>  (1) 
-3.67317557

>  <minimizedRMSD>  (1) 
0.422430694

$$$$
