
     RDKit          3D

 29 30  0  0  0  0  0  0  0  0999 V2000
   47.3780   34.0150   41.2680 C   0  0  0  0  0  0  0  0  0  0  0  0
   48.8680   34.2150   41.5040 C   0  0  0  0  0  0  0  0  0  0  0  0
   49.5680   32.9930   41.2340 N   0  0  0  0  0  0  0  0  0  0  0  0
   48.7540   31.8420   41.5720 C   0  0  0  0  0  0  0  0  0  0  0  0
   49.4210   31.1620   42.7470 C   0  0  0  0  0  0  0  0  0  0  0  0
   50.8790   31.5160   42.5280 C   0  0  0  0  0  0  0  0  0  0  0  0
   50.7620   32.9380   42.0280 C   0  0  0  0  0  0  0  0  0  0  0  0
   46.6260   35.0410   41.8590 O   0  0  0  0  0  0  0  0  0  0  0  0
   45.1610   36.0570   43.3790 C   0  0  0  0  0  0  0  0  0  0  0  0
   46.0320   34.9890   43.0920 C   0  0  0  0  0  0  0  0  0  0  0  0
   46.2080   34.0020   44.0640 C   0  0  0  0  0  0  0  0  0  0  0  0
   45.5400   34.1180   45.2200 N   0  0  0  0  0  0  0  0  0  0  0  0
   44.7080   35.1420   45.4860 C   0  0  0  0  0  0  0  0  0  0  0  0
   44.5260   36.1060   44.5590 N   0  0  0  0  0  0  0  0  0  0  0  0
   47.1846   34.0072   40.1852 H   0  0  0  0  0  0  0  0  0  0  0  0
   47.0796   33.0593   41.7236 H   0  0  0  0  0  0  0  0  0  0  0  0
   49.2412   35.0055   40.8362 H   0  0  0  0  0  0  0  0  0  0  0  0
   49.0352   34.5070   42.5513 H   0  0  0  0  0  0  0  0  0  0  0  0
   47.7391   32.1643   41.8477 H   0  0  0  0  0  0  0  0  0  0  0  0
   48.6681   31.1557   40.7167 H   0  0  0  0  0  0  0  0  0  0  0  0
   49.0516   31.5618   43.7029 H   0  0  0  0  0  0  0  0  0  0  0  0
   49.2299   30.0801   42.8010 H   0  0  0  0  0  0  0  0  0  0  0  0
   51.4520   31.4639   43.4655 H   0  0  0  0  0  0  0  0  0  0  0  0
   51.4110   30.8385   41.8440 H   0  0  0  0  0  0  0  0  0  0  0  0
   51.6379   33.1990   41.4159 H   0  0  0  0  0  0  0  0  0  0  0  0
   50.7174   33.6515   42.8640 H   0  0  0  0  0  0  0  0  0  0  0  0
   45.0013   36.8515   42.6352 H   0  0  0  0  0  0  0  0  0  0  0  0
   46.8793   33.1492   43.8850 H   0  0  0  0  0  0  0  0  0  0  0  0
   44.1811   35.1928   46.4502 H   0  0  0  0  0  0  0  0  0  0  0  0
  1  2  1  0
  1  8  1  0
  3  2  1  0
  3  4  1  0
  3  7  1  0
  4  5  1  0
  6  5  1  0
  7  6  1  0
  8 10  1  0
  9 14  2  0
 10  9  1  0
 10 11  2  0
 11 12  1  0
 12 13  2  0
 14 13  1  0
  1 15  1  0
  1 16  1  0
  2 17  1  0
  2 18  1  0
  4 19  1  0
  4 20  1  0
  5 21  1  0
  5 22  1  0
  6 23  1  0
  6 24  1  0
  7 25  1  0
  7 26  1  0
  9 27  1  0
 11 28  1  0
 13 29  1  0
M  ISO  8  15   8  16   8  17   8  18   8  19  13  20  13  21  13  22  13
M  ISO  7  23  13  24  13  25  13  26  13  27  14  28  14  29  14
M  END
>  <minimizedAffinity>  (1) 
-3.614537

>  <minimizedRMSD>  (1) 
1.73388648

$$$$
