
     RDKit          3D

 30 31  0  0  0  0  0  0  0  0999 V2000
   46.3500   34.2170   40.7710 C   0  0  0  0  0  0  0  0  0  0  0  0
   47.5750   33.8410   39.9810 C   0  0  0  0  0  0  0  0  0  0  0  0
   47.7160   32.4280   39.9330 N   0  0  0  0  0  0  0  0  0  0  0  0
   48.3900   31.9400   41.1330 C   0  0  0  0  0  0  0  0  0  0  0  0
   49.8340   32.3470   41.0320 C   0  0  0  0  0  0  0  0  0  0  0  0
   50.3940   31.7170   39.9600 O   0  0  0  0  0  0  0  0  0  0  0  0
   49.8040   31.8900   38.7430 C   0  0  0  0  0  0  0  0  0  0  0  0
   48.3090   31.8870   38.7500 C   0  0  0  0  0  0  0  0  0  0  0  0
   46.6640   34.9730   41.9040 O   0  0  0  0  0  0  0  0  0  0  0  0
   45.1790   36.0190   43.3780 C   0  0  0  0  0  0  0  0  0  0  0  0
   46.0520   34.9630   43.1140 C   0  0  0  0  0  0  0  0  0  0  0  0
   46.2220   33.9920   44.1100 C   0  0  0  0  0  0  0  0  0  0  0  0
   45.5340   34.1440   45.2470 N   0  0  0  0  0  0  0  0  0  0  0  0
   44.6960   35.1580   45.4970 C   0  0  0  0  0  0  0  0  0  0  0  0
   44.5280   36.0930   44.5480 N   0  0  0  0  0  0  0  0  0  0  0  0
   45.8378   33.2971   41.0897 H   0  0  0  0  0  0  0  0  0  0  0  0
   45.7057   34.8302   40.1237 H   0  0  0  0  0  0  0  0  0  0  0  0
   47.4804   34.2313   38.9569 H   0  0  0  0  0  0  0  0  0  0  0  0
   48.4616   34.2728   40.4683 H   0  0  0  0  0  0  0  0  0  0  0  0
   47.9346   32.3875   42.0288 H   0  0  0  0  0  0  0  0  0  0  0  0
   48.2984   30.8468   41.2136 H   0  0  0  0  0  0  0  0  0  0  0  0
   49.9025   33.4366   40.8978 H   0  0  0  0  0  0  0  0  0  0  0  0
   50.3671   32.0649   41.9519 H   0  0  0  0  0  0  0  0  0  0  0  0
   50.1421   31.0774   38.0831 H   0  0  0  0  0  0  0  0  0  0  0  0
   50.1039   32.8911   38.3998 H   0  0  0  0  0  0  0  0  0  0  0  0
   47.9612   32.4792   37.8908 H   0  0  0  0  0  0  0  0  0  0  0  0
   48.0002   30.8323   38.7022 H   0  0  0  0  0  0  0  0  0  0  0  0
   45.0231   36.7991   42.6183 H   0  0  0  0  0  0  0  0  0  0  0  0
   46.8967   33.1359   43.9622 H   0  0  0  0  0  0  0  0  0  0  0  0
   44.1592   35.2234   46.4549 H   0  0  0  0  0  0  0  0  0  0  0  0
  1  9  1  0
  2  1  1  0
  3  2  1  0
  3  4  1  0
  5  4  1  0
  6  5  1  0
  7  8  1  0
  7  6  1  0
  8  3  1  0
  9 11  1  0
 10 15  2  0
 11 10  1  0
 11 12  2  0
 12 13  1  0
 13 14  2  0
 15 14  1  0
  1 16  1  0
  1 17  1  0
  2 18  1  0
  2 19  1  0
  4 20  1  0
  4 21  1  0
  5 22  1  0
  5 23  1  0
  7 24  1  0
  7 25  1  0
  8 26  1  0
  8 27  1  0
 10 28  1  0
 12 29  1  0
 14 30  1  0
M  ISO  8  16   8  17   8  18   8  19   8  20  13  21  13  22  13  23  13
M  ISO  7  24  13  25  13  26  13  27  13  28  14  29  14  30  14
M  END
>  <minimizedAffinity>  (1) 
-3.59416676

>  <minimizedRMSD>  (1) 
3.97454786

$$$$
