
     RDKit          3D

 34 36  0  0  0  0  0  0  0  0999 V2000
   47.1380   30.1250   45.2390 C   0  0  0  0  0  0  0  0  0  0  0  0
   45.7830   29.5050   44.8820 C   0  0  0  0  0  0  0  0  0  0  0  0
   45.3950   29.8120   43.5720 O   0  0  0  0  0  0  0  0  0  0  0  0
   44.0430   31.3860   42.5340 C   0  0  0  0  0  0  0  0  0  0  0  0
   44.1340   30.1430   43.1810 C   0  0  0  0  0  0  0  0  0  0  0  0
   42.9550   29.4340   43.3310 C   0  0  0  0  0  0  0  0  0  0  0  0
   41.8020   29.9410   42.8690 N   0  0  0  0  0  0  0  0  0  0  0  0
   41.7320   31.1220   42.2590 C   0  0  0  0  0  0  0  0  0  0  0  0
   42.8480   31.8560   42.0830 N   0  0  0  0  0  0  0  0  0  0  0  0
   46.9160   31.8590   45.6950 S   0  0  0  0  0  0  0  0  0  0  0  0
   47.0430   32.8490   44.2030 C   0  0  0  0  0  0  0  0  0  0  0  0
   47.8580   32.5600   43.1300 C   0  0  0  0  0  0  0  0  0  0  0  0
   47.7950   33.4560   42.0850 C   0  0  0  0  0  0  0  0  0  0  0  0
   47.0070   34.5820   42.0310 C   0  0  0  0  0  0  0  0  0  0  0  0
   46.2070   34.8170   43.1450 C   0  0  0  0  0  0  0  0  0  0  0  0
   45.4070   35.9380   43.1200 C   0  0  0  0  0  0  0  0  0  0  0  0
   44.5740   36.2600   44.1840 C   0  0  0  0  0  0  0  0  0  0  0  0
   44.5750   35.4140   45.2720 C   0  0  0  0  0  0  0  0  0  0  0  0
   45.3810   34.3130   45.2610 C   0  0  0  0  0  0  0  0  0  0  0  0
   46.2150   33.9570   44.2410 C   0  0  0  0  0  0  0  0  0  0  0  0
   47.8101   30.0588   44.3707 H   0  0  0  0  0  0  0  0  0  0  0  0
   47.5750   29.5791   46.0881 H   0  0  0  0  0  0  0  0  0  0  0  0
   45.8544   28.4121   44.9845 H   0  0  0  0  0  0  0  0  0  0  0  0
   45.0283   29.9201   45.5662 H   0  0  0  0  0  0  0  0  0  0  0  0
   44.9515   31.9891   42.3895 H   0  0  0  0  0  0  0  0  0  0  0  0
   42.9632   28.4535   43.8296 H   0  0  0  0  0  0  0  0  0  0  0  0
   40.7633   31.4986   41.8987 H   0  0  0  0  0  0  0  0  0  0  0  0
   48.5127   31.6763   43.1092 H   0  0  0  0  0  0  0  0  0  0  0  0
   48.4341   33.2518   41.2133 H   0  0  0  0  0  0  0  0  0  0  0  0
   47.0091   35.2551   41.1610 H   0  0  0  0  0  0  0  0  0  0  0  0
   45.4282   36.5935   42.2369 H   0  0  0  0  0  0  0  0  0  0  0  0
   43.9374   37.1567   44.1591 H   0  0  0  0  0  0  0  0  0  0  0  0
   43.9329   35.6241   46.1400 H   0  0  0  0  0  0  0  0  0  0  0  0
   45.3566   33.6597   46.1456 H   0  0  0  0  0  0  0  0  0  0  0  0
  1 10  1  0
  2  1  1  0
  3  2  1  0
  4  5  2  0
  5  6  1  0
  5  3  1  0
  7  6  2  0
  8  7  1  0
  9  8  2  0
  9  4  1  0
 11 20  1  0
 11 10  1  0
 12 11  2  0
 13 12  1  0
 14 13  2  0
 14 15  1  0
 15 20  2  0
 16 15  1  0
 16 17  2  0
 17 18  1  0
 19 18  2  0
 20 19  1  0
  1 21  1  0
  1 22  1  0
  2 23  1  0
  2 24  1  0
  4 25  1  0
  6 26  1  0
  8 27  1  0
 12 28  1  0
 13 29  1  0
 14 30  1  0
 16 31  1  0
 17 32  1  0
 18 33  1  0
 19 34  1  0
M  ISO  8  21   8  22   8  23   8  24   8  25  14  26  14  27  14  28  14
M  ISO  6  29  14  30  14  31  14  32  14  33  14  34  14
M  END
>  <minimizedAffinity>  (1) 
-4.22012091

>  <minimizedRMSD>  (1) 
6.03894281

$$$$
