
     RDKit          3D

 32 34  0  0  0  0  0  0  0  0999 V2000
   47.8920   34.6370   41.3250 C   0  0  0  0  0  0  0  0  0  0  0  0
   46.5370   34.1510   40.8150 C   0  0  0  0  0  0  0  0  0  0  0  0
   45.4690   34.7780   41.4470 O   0  0  0  0  0  0  0  0  0  0  0  0
   44.9120   36.1270   43.2610 C   0  0  0  0  0  0  0  0  0  0  0  0
   45.2440   34.8520   42.7820 C   0  0  0  0  0  0  0  0  0  0  0  0
   45.3090   33.8050   43.7120 C   0  0  0  0  0  0  0  0  0  0  0  0
   45.0500   34.0710   45.0150 N   0  0  0  0  0  0  0  0  0  0  0  0
   44.7380   35.2930   45.4340 C   0  0  0  0  0  0  0  0  0  0  0  0
   44.6660   36.3230   44.5710 N   0  0  0  0  0  0  0  0  0  0  0  0
   48.6380   33.3950   42.3900 S   0  0  0  0  0  0  0  0  0  0  0  0
   50.0460   32.6830   41.5180 C   0  0  0  0  0  0  0  0  0  0  0  0
   51.3650   32.7470   41.9160 C   0  0  0  0  0  0  0  0  0  0  0  0
   52.1370   32.1040   41.0180 N   0  0  0  0  0  0  0  0  0  0  0  0
   51.3320   31.6230   40.0380 C   0  0  0  0  0  0  0  0  0  0  0  0
   51.7080   30.9030   38.9220 C   0  0  0  0  0  0  0  0  0  0  0  0
   50.6860   30.5230   38.0640 C   0  0  0  0  0  0  0  0  0  0  0  0
   49.3870   30.8680   38.3470 C   0  0  0  0  0  0  0  0  0  0  0  0
   49.0370   31.5970   39.4850 C   0  0  0  0  0  0  0  0  0  0  0  0
   50.0430   31.9770   40.3410 C   0  0  0  0  0  0  0  0  0  0  0  0
   47.7531   35.5677   41.8946 H   0  0  0  0  0  0  0  0  0  0  0  0
   48.5547   34.8173   40.4658 H   0  0  0  0  0  0  0  0  0  0  0  0
   46.4745   34.3526   39.7354 H   0  0  0  0  0  0  0  0  0  0  0  0
   46.4666   33.0751   41.0329 H   0  0  0  0  0  0  0  0  0  0  0  0
   44.8519   36.9740   42.5618 H   0  0  0  0  0  0  0  0  0  0  0  0
   45.5658   32.7852   43.3894 H   0  0  0  0  0  0  0  0  0  0  0  0
   44.5357   35.4650   46.5015 H   0  0  0  0  0  0  0  0  0  0  0  0
   51.7303   33.2458   42.8258 H   0  0  0  0  0  0  0  0  0  0  0  0
   53.1602   31.9965   41.0672 H   0  0  0  0  0  0  0  0  0  0  0  0
   52.7588   30.6450   38.7240 H   0  0  0  0  0  0  0  0  0  0  0  0
   50.9162   29.9452   37.1567 H   0  0  0  0  0  0  0  0  0  0  0  0
   48.5931   30.5585   37.6513 H   0  0  0  0  0  0  0  0  0  0  0  0
   47.9886   31.8592   39.6902 H   0  0  0  0  0  0  0  0  0  0  0  0
  1 10  1  0
  2  1  1  0
  2  3  1  0
  3  5  1  0
  4  9  2  0
  5  4  1  0
  5  6  2  0
  6  7  1  0
  7  8  2  0
  9  8  1  0
 11 12  2  0
 11 10  1  0
 13 12  1  0
 14 19  2  0
 14 13  1  0
 15 14  1  0
 16 17  1  0
 16 15  2  0
 17 18  2  0
 18 19  1  0
 19 11  1  0
  1 20  1  0
  1 21  1  0
  2 22  1  0
  2 23  1  0
  4 24  1  0
  6 25  1  0
  8 26  1  0
 12 27  1  0
 13 28  1  0
 15 29  1  0
 16 30  1  0
 17 31  1  0
 18 32  1  0
M  ISO  8  20   8  21   8  22   8  23   8  24  14  25  14  26  14  27  14
M  ISO  5  28   9  29  14  30  14  31  14  32  14
M  END
>  <minimizedAffinity>  (1) 
-4.13505793

>  <minimizedRMSD>  (1) 
0.879143775

$$$$
