
     RDKit          3D

 25 26  0  0  0  0  0  0  0  0999 V2000
   45.9410   34.3240   41.1120 C   0  0  0  0  0  0  0  0  0  0  0  0
   47.2350   34.2500   40.3310 C   0  0  0  0  0  0  0  0  0  0  0  0
   48.5650   35.0670   41.2570 S   0  0  0  0  0  0  0  0  0  0  0  0
   49.7450   33.7740   41.6680 C   0  0  0  0  0  0  0  0  0  0  0  0
   49.6100   32.5070   41.1360 C   0  0  0  0  0  0  0  0  0  0  0  0
   50.6900   31.8100   41.6810 C   0  0  0  0  0  0  0  0  0  0  0  0
   51.4180   32.6120   42.4860 N   0  0  0  0  0  0  0  0  0  0  0  0
   50.8310   33.8190   42.4720 N   0  0  0  0  0  0  0  0  0  0  0  0
   46.0230   35.1660   42.2130 O   0  0  0  0  0  0  0  0  0  0  0  0
   44.8370   35.7490   44.1450 C   0  0  0  0  0  0  0  0  0  0  0  0
   45.7250   34.8600   43.4990 C   0  0  0  0  0  0  0  0  0  0  0  0
   46.2020   33.7680   44.2350 C   0  0  0  0  0  0  0  0  0  0  0  0
   45.7930   33.6250   45.5080 N   0  0  0  0  0  0  0  0  0  0  0  0
   44.9600   34.4660   46.1030 C   0  0  0  0  0  0  0  0  0  0  0  0
   44.4760   35.5300   45.4330 N   0  0  0  0  0  0  0  0  0  0  0  0
   45.6833   33.3133   41.4613 H   0  0  0  0  0  0  0  0  0  0  0  0
   45.1721   34.7326   40.4398 H   0  0  0  0  0  0  0  0  0  0  0  0
   47.5008   33.1956   40.1652 H   0  0  0  0  0  0  0  0  0  0  0  0
   47.1032   34.7575   39.3640 H   0  0  0  0  0  0  0  0  0  0  0  0
   48.8366   32.1357   40.4475 H   0  0  0  0  0  0  0  0  0  0  0  0
   50.9165   30.7522   41.4816 H   0  0  0  0  0  0  0  0  0  0  0  0
   52.2636   32.3480   43.0114 H   0  0  0  0  0  0  0  0  0  0  0  0
   44.4385   36.6190   43.6026 H   0  0  0  0  0  0  0  0  0  0  0  0
   46.8953   33.0440   43.7821 H   0  0  0  0  0  0  0  0  0  0  0  0
   44.6624   34.2949   47.1481 H   0  0  0  0  0  0  0  0  0  0  0  0
  1  9  1  0
  2  1  1  0
  2  3  1  0
  3  4  1  0
  4  8  2  0
  5  4  1  0
  5  6  2  0
  6  7  1  0
  8  7  1  0
  9 11  1  0
 10 15  2  0
 11 10  1  0
 11 12  2  0
 12 13  1  0
 13 14  2  0
 15 14  1  0
  1 16  1  0
  1 17  1  0
  2 18  1  0
  2 19  1  0
  5 20  1  0
  6 21  1  0
  7 22  1  0
 10 23  1  0
 12 24  1  0
 14 25  1  0
M  ISO  8  16   8  17   8  18   8  19   8  20  14  21  14  22   9  23  14
M  ISO  2  24  14  25  14
M  END
>  <minimizedAffinity>  (1) 
-3.97320032

>  <minimizedRMSD>  (1) 
1.31560838

$$$$
