
     RDKit          3D

 25 26  0  0  0  0  0  0  0  0999 V2000
   47.3700   34.5440   41.1440 C   0  0  0  0  0  0  0  0  0  0  0  0
   48.6340   35.3860   41.2890 C   0  0  0  0  0  0  0  0  0  0  0  0
   49.7390   34.6610   42.5220 S   0  0  0  0  0  0  0  0  0  0  0  0
   50.1490   33.0300   42.2320 C   0  0  0  0  0  0  0  0  0  0  0  0
   51.2620   32.3310   41.5900 C   0  0  0  0  0  0  0  0  0  0  0  0
   51.1700   30.9730   41.5800 C   0  0  0  0  0  0  0  0  0  0  0  0
   50.0360   30.2940   42.1720 C   0  0  0  0  0  0  0  0  0  0  0  0
   49.0130   31.6620   42.7940 S   0  0  0  0  0  0  0  0  0  0  0  0
   46.2800   35.1800   41.7310 O   0  0  0  0  0  0  0  0  0  0  0  0
   45.0040   36.0600   43.4810 C   0  0  0  0  0  0  0  0  0  0  0  0
   45.8450   35.0340   43.0190 C   0  0  0  0  0  0  0  0  0  0  0  0
   46.1390   33.9980   43.9020 C   0  0  0  0  0  0  0  0  0  0  0  0
   45.6140   34.0270   45.1350 N   0  0  0  0  0  0  0  0  0  0  0  0
   44.8180   35.0040   45.5630 C   0  0  0  0  0  0  0  0  0  0  0  0
   44.5090   36.0240   44.7390 N   0  0  0  0  0  0  0  0  0  0  0  0
   47.1626   34.3867   40.0752 H   0  0  0  0  0  0  0  0  0  0  0  0
   47.5294   33.5805   41.6501 H   0  0  0  0  0  0  0  0  0  0  0  0
   49.1525   35.4307   40.3199 H   0  0  0  0  0  0  0  0  0  0  0  0
   48.3521   36.3980   41.6150 H   0  0  0  0  0  0  0  0  0  0  0  0
   52.1145   32.8659   41.1459 H   0  0  0  0  0  0  0  0  0  0  0  0
   51.9712   30.3807   41.1140 H   0  0  0  0  0  0  0  0  0  0  0  0
   49.8410   29.2130   42.2310 H   0  0  0  0  0  0  0  0  0  0  0  0
   44.7466   36.8974   42.8158 H   0  0  0  0  0  0  0  0  0  0  0  0
   46.7920   33.1687   43.5924 H   0  0  0  0  0  0  0  0  0  0  0  0
   44.4139   34.9787   46.5858 H   0  0  0  0  0  0  0  0  0  0  0  0
  1  2  1  0
  1  9  1  0
  2  3  1  0
  4  3  1  0
  4  8  1  0
  5  4  2  0
  6  5  1  0
  6  7  2  0
  7  8  1  0
  9 11  1  0
 10 15  2  0
 11 10  1  0
 11 12  2  0
 12 13  1  0
 13 14  2  0
 15 14  1  0
  1 16  1  0
  1 17  1  0
  2 18  1  0
  2 19  1  0
  5 20  1  0
  6 21  1  0
  7 22  1  0
 10 23  1  0
 12 24  1  0
 14 25  1  0
M  ISO  8  16   8  17   8  18   8  19   8  20  14  21  14  22  14  23  14
M  ISO  2  24  14  25  14
M  END
>  <minimizedAffinity>  (1) 
-3.83637404

>  <minimizedRMSD>  (1) 
0.88607192

$$$$
