
     RDKit          3D

 27 28  0  0  0  0  0  0  0  0999 V2000
   47.3610   34.5400   41.1400 C   0  0  0  0  0  0  0  0  0  0  0  0
   48.6320   35.3550   41.2160 C   0  0  0  0  0  0  0  0  0  0  0  0
   49.7380   34.7340   42.5020 S   0  0  0  0  0  0  0  0  0  0  0  0
   50.0590   32.9860   42.3130 C   0  0  0  0  0  0  0  0  0  0  0  0
   51.1320   32.4060   41.6550 C   0  0  0  0  0  0  0  0  0  0  0  0
   51.2180   31.0290   41.6090 C   0  0  0  0  0  0  0  0  0  0  0  0
   50.2550   30.2380   42.2060 C   0  0  0  0  0  0  0  0  0  0  0  0
   49.1880   30.8530   42.8590 C   0  0  0  0  0  0  0  0  0  0  0  0
   49.1320   32.1960   42.8870 N   0  0  0  0  0  0  0  0  0  0  0  0
   46.2730   35.1780   41.7330 O   0  0  0  0  0  0  0  0  0  0  0  0
   45.0060   36.0450   43.4720 C   0  0  0  0  0  0  0  0  0  0  0  0
   45.8540   35.0140   43.0160 C   0  0  0  0  0  0  0  0  0  0  0  0
   46.1500   33.9890   43.9010 C   0  0  0  0  0  0  0  0  0  0  0  0
   45.6350   34.0020   45.1420 N   0  0  0  0  0  0  0  0  0  0  0  0
   44.8260   34.9960   45.5580 C   0  0  0  0  0  0  0  0  0  0  0  0
   44.5210   35.9960   44.7360 N   0  0  0  0  0  0  0  0  0  0  0  0
   47.1254   34.3545   40.0817 H   0  0  0  0  0  0  0  0  0  0  0  0
   47.5353   33.6034   41.6900 H   0  0  0  0  0  0  0  0  0  0  0  0
   49.1477   35.3049   40.2457 H   0  0  0  0  0  0  0  0  0  0  0  0
   48.3633   36.3928   41.4624 H   0  0  0  0  0  0  0  0  0  0  0  0
   51.9010   33.0314   41.1781 H   0  0  0  0  0  0  0  0  0  0  0  0
   52.0644   30.5551   41.0902 H   0  0  0  0  0  0  0  0  0  0  0  0
   50.3292   29.1412   42.1666 H   0  0  0  0  0  0  0  0  0  0  0  0
   48.4055   30.2501   43.3429 H   0  0  0  0  0  0  0  0  0  0  0  0
   44.7411   36.8807   42.8076 H   0  0  0  0  0  0  0  0  0  0  0  0
   46.8069   33.1644   43.5871 H   0  0  0  0  0  0  0  0  0  0  0  0
   44.4172   34.9803   46.5791 H   0  0  0  0  0  0  0  0  0  0  0  0
  1  2  1  0
  1 10  1  0
  2  3  1  0
  4  3  1  0
  4  9  1  0
  5  4  2  0
  6  5  1  0
  6  7  2  0
  7  8  1  0
  8  9  2  0
 10 12  1  0
 11 16  2  0
 12 11  1  0
 12 13  2  0
 13 14  1  0
 14 15  2  0
 16 15  1  0
  1 17  1  0
  1 18  1  0
  2 19  1  0
  2 20  1  0
  5 21  1  0
  6 22  1  0
  7 23  1  0
  8 24  1  0
 11 25  1  0
 13 26  1  0
 15 27  1  0
M  ISO  8  17   8  18   8  19   8  20   8  21  14  22  14  23  14  24  14
M  ISO  3  25  14  26  14  27  14
M  END
>  <minimizedAffinity>  (1) 
-3.98758101

>  <minimizedRMSD>  (1) 
1.06562757

$$$$
