
     RDKit          3D

 43 45  0  0  0  0  0  0  0  0999 V2000
   48.5890   35.3600   41.9170 C   0  0  0  0  0  0  0  0  0  0  0  0
   49.7660   34.6550   42.5400 C   0  0  0  0  0  0  0  0  0  0  0  0
   49.5870   32.8640   42.4200 S   0  0  0  0  0  0  0  0  0  0  0  0
   50.3650   32.2070   40.9700 C   0  0  0  0  0  0  0  0  0  0  0  0
   51.6750   31.7670   40.8400 C   0  0  0  0  0  0  0  0  0  0  0  0
   52.1140   31.2860   39.6330 C   0  0  0  0  0  0  0  0  0  0  0  0
   51.2690   31.2320   38.5440 C   0  0  0  0  0  0  0  0  0  0  0  0
   49.9570   31.6790   38.6970 C   0  0  0  0  0  0  0  0  0  0  0  0
   49.5770   32.1430   39.9030 N   0  0  0  0  0  0  0  0  0  0  0  0
   47.3830   35.0490   42.5320 O   0  0  0  0  0  0  0  0  0  0  0  0
   45.1250   35.5790   42.6110 C   0  0  0  0  0  0  0  0  0  0  0  0
   46.1750   34.8980   41.9750 C   0  0  0  0  0  0  0  0  0  0  0  0
   45.8690   34.1520   40.8610 C   0  0  0  0  0  0  0  0  0  0  0  0
   44.5960   34.0850   40.4030 N   0  0  0  0  0  0  0  0  0  0  0  0
   43.5950   34.7510   41.0290 C   0  0  0  0  0  0  0  0  0  0  0  0
   43.8660   35.4830   42.1150 N   0  0  0  0  0  0  0  0  0  0  0  0
   42.1770   34.7230   40.5820 C   0  0  0  0  0  0  0  0  0  0  0  0
   42.0310   35.1750   39.1430 C   0  0  0  0  0  0  0  0  0  0  0  0
   40.7090   34.6620   38.6290 C   0  0  0  0  0  0  0  0  0  0  0  0
   39.6430   35.0410   39.6140 C   0  0  0  0  0  0  0  0  0  0  0  0
   40.0820   36.0720   40.6270 C   0  0  0  0  0  0  0  0  0  0  0  0
   41.3020   35.6530   41.4050 C   0  0  0  0  0  0  0  0  0  0  0  0
   48.5273   35.0703   40.8576 H   0  0  0  0  0  0  0  0  0  0  0  0
   48.7511   36.4412   42.0380 H   0  0  0  0  0  0  0  0  0  0  0  0
   50.6850   34.9601   42.0182 H   0  0  0  0  0  0  0  0  0  0  0  0
   49.8160   34.9310   43.6036 H   0  0  0  0  0  0  0  0  0  0  0  0
   52.3581   31.8039   41.7014 H   0  0  0  0  0  0  0  0  0  0  0  0
   53.1529   30.9389   39.5320 H   0  0  0  0  0  0  0  0  0  0  0  0
   51.6221   30.8451   37.5768 H   0  0  0  0  0  0  0  0  0  0  0  0
   49.2505   31.6533   37.8543 H   0  0  0  0  0  0  0  0  0  0  0  0
   45.3220   36.1869   43.5063 H   0  0  0  0  0  0  0  0  0  0  0  0
   46.6659   33.6043   40.3367 H   0  0  0  0  0  0  0  0  0  0  0  0
   41.8603   33.6765   40.7028 H   0  0  0  0  0  0  0  0  0  0  0  0
   42.0511   36.2736   39.0923 H   0  0  0  0  0  0  0  0  0  0  0  0
   42.8580   34.7838   38.5322 H   0  0  0  0  0  0  0  0  0  0  0  0
   40.4894   35.1141   37.6505 H   0  0  0  0  0  0  0  0  0  0  0  0
   40.7458   33.5689   38.5115 H   0  0  0  0  0  0  0  0  0  0  0  0
   38.7855   35.4465   39.0570 H   0  0  0  0  0  0  0  0  0  0  0  0
   39.3900   34.1298   40.1759 H   0  0  0  0  0  0  0  0  0  0  0  0
   40.3092   37.0089   40.0972 H   0  0  0  0  0  0  0  0  0  0  0  0
   39.2598   36.1954   41.3472 H   0  0  0  0  0  0  0  0  0  0  0  0
   40.9841   35.1322   42.3203 H   0  0  0  0  0  0  0  0  0  0  0  0
   41.8840   36.5518   41.6567 H   0  0  0  0  0  0  0  0  0  0  0  0
  1 10  1  0
  1  2  1  0
  3  2  1  0
  4  3  1  0
  5  4  2  0
  6  5  1  0
  7  8  1  0
  7  6  2  0
  8  9  2  0
  9  4  1  0
 12 10  1  0
 12 11  2  0
 13 12  1  0
 14 13  2  0
 14 15  1  0
 15 16  2  0
 16 11  1  0
 17 15  1  0
 17 22  1  0
 18 17  1  0
 19 18  1  0
 19 20  1  0
 20 21  1  0
 21 22  1  0
  1 23  1  0
  1 24  1  0
  2 25  1  0
  2 26  1  0
  5 27  1  0
  6 28  1  0
  7 29  1  0
  8 30  1  0
 11 31  1  0
 13 32  1  0
 17 33  1  0
 18 34  1  0
 18 35  1  0
 19 36  1  0
 19 37  1  0
 20 38  1  0
 20 39  1  0
 21 40  1  0
 21 41  1  0
 22 42  1  0
 22 43  1  0
M  ISO  8  23   8  24   8  25   8  26   8  27  14  28  14  29  14  30  14
M  ISO  8  31  14  32  14  33  13  34  13  35  13  36  13  37  13  38  13
M  ISO  5  39  13  40  13  41  13  42  13  43  13
M  END
>  <minimizedAffinity>  (1) 
-5.35132122

>  <minimizedRMSD>  (1) 
5.00513411

$$$$
