
     RDKit          3D

 29 30  0  0  0  0  0  0  0  0999 V2000
   47.3970   34.5350   41.1060 C   0  0  0  0  0  0  0  0  0  0  0  0
   48.6410   35.3760   41.2270 C   0  0  0  0  0  0  0  0  0  0  0  0
   49.7390   34.7360   42.5080 S   0  0  0  0  0  0  0  0  0  0  0  0
   50.0520   33.0030   42.3150 C   0  0  0  0  0  0  0  0  0  0  0  0
   51.1210   32.4120   41.6510 C   0  0  0  0  0  0  0  0  0  0  0  0
   51.2100   31.0430   41.5970 C   0  0  0  0  0  0  0  0  0  0  0  0
   50.2470   30.2500   42.1960 C   0  0  0  0  0  0  0  0  0  0  0  0
   49.1850   30.8640   42.8550 C   0  0  0  0  0  0  0  0  0  0  0  0
   49.1480   32.2080   42.8770 N   0  0  0  0  0  0  0  0  0  0  0  0
   46.2850   35.1250   41.6950 O   0  0  0  0  0  0  0  0  0  0  0  0
   45.0230   36.0540   43.4130 C   0  0  0  0  0  0  0  0  0  0  0  0
   45.8510   35.0110   42.9540 C   0  0  0  0  0  0  0  0  0  0  0  0
   46.1250   33.9910   43.8360 C   0  0  0  0  0  0  0  0  0  0  0  0
   45.6140   34.0060   45.0880 N   0  0  0  0  0  0  0  0  0  0  0  0
   44.8190   35.0210   45.5080 C   0  0  0  0  0  0  0  0  0  0  0  0
   44.5380   36.0210   44.6720 N   0  0  0  0  0  0  0  0  0  0  0  0
   44.3320   34.9400   46.8440 N   0  0  0  0  0  0  0  0  0  0  0  0
   47.1848   34.3740   40.0387 H   0  0  0  0  0  0  0  0  0  0  0  0
   47.5863   33.5885   41.6335 H   0  0  0  0  0  0  0  0  0  0  0  0
   49.1723   35.3715   40.2638 H   0  0  0  0  0  0  0  0  0  0  0  0
   48.3445   36.3991   41.5015 H   0  0  0  0  0  0  0  0  0  0  0  0
   51.8897   33.0366   41.1725 H   0  0  0  0  0  0  0  0  0  0  0  0
   52.0546   30.5721   41.0727 H   0  0  0  0  0  0  0  0  0  0  0  0
   50.3192   29.1532   42.1523 H   0  0  0  0  0  0  0  0  0  0  0  0
   48.4000   30.2675   43.3429 H   0  0  0  0  0  0  0  0  0  0  0  0
   44.7724   36.8930   42.7472 H   0  0  0  0  0  0  0  0  0  0  0  0
   46.7661   33.1550   43.5195 H   0  0  0  0  0  0  0  0  0  0  0  0
   43.7238   35.6832   47.2164 H   0  0  0  0  0  0  0  0  0  0  0  0
   44.5880   34.1382   47.4377 H   0  0  0  0  0  0  0  0  0  0  0  0
  1  2  1  0
  1 10  1  0
  2  3  1  0
  4  3  1  0
  4  9  1  0
  5  4  2  0
  6  5  1  0
  6  7  2  0
  7  8  1  0
  8  9  2  0
 10 12  1  0
 11 16  2  0
 12 11  1  0
 12 13  2  0
 13 14  1  0
 14 15  2  0
 15 17  1  0
 16 15  1  0
  1 18  1  0
  1 19  1  0
  2 20  1  0
  2 21  1  0
  5 22  1  0
  6 23  1  0
  7 24  1  0
  8 25  1  0
 11 26  1  0
 13 27  1  0
 17 28  1  0
 17 29  1  0
M  ISO  8  18   8  19   8  20   8  21   8  22  14  23  14  24  14  25  14
M  ISO  2  26  14  27  14
M  END
>  <minimizedAffinity>  (1) 
-4.80033207

>  <minimizedRMSD>  (1) 
0.047779046

$$$$
