
     RDKit          3D

 29 30  0  0  0  0  0  0  0  0999 V2000
   47.2960   34.5790   41.3190 C   0  0  0  0  0  0  0  0  0  0  0  0
   48.6130   35.2920   41.2110 C   0  0  0  0  0  0  0  0  0  0  0  0
   49.7890   34.6670   42.4440 S   0  0  0  0  0  0  0  0  0  0  0  0
   50.1690   32.9580   42.1770 C   0  0  0  0  0  0  0  0  0  0  0  0
   51.2460   32.4290   41.4700 C   0  0  0  0  0  0  0  0  0  0  0  0
   51.3800   31.0660   41.3650 C   0  0  0  0  0  0  0  0  0  0  0  0
   50.4660   30.2240   41.9480 C   0  0  0  0  0  0  0  0  0  0  0  0
   49.3920   30.7670   42.6530 C   0  0  0  0  0  0  0  0  0  0  0  0
   49.3050   32.1100   42.7270 N   0  0  0  0  0  0  0  0  0  0  0  0
   46.4170   35.1420   42.2290 O   0  0  0  0  0  0  0  0  0  0  0  0
   45.0980   35.4590   44.1290 C   0  0  0  0  0  0  0  0  0  0  0  0
   46.1120   34.7250   43.4640 C   0  0  0  0  0  0  0  0  0  0  0  0
   46.6810   33.6650   44.1350 C   0  0  0  0  0  0  0  0  0  0  0  0
   46.2720   33.3530   45.3880 N   0  0  0  0  0  0  0  0  0  0  0  0
   45.3020   34.0700   46.0050 C   0  0  0  0  0  0  0  0  0  0  0  0
   44.7260   35.1070   45.3810 N   0  0  0  0  0  0  0  0  0  0  0  0
   44.8660   33.7300   47.3540 C   0  0  0  0  0  0  0  0  0  0  0  0
   45.1590   32.6140   47.8850 O   0  0  0  0  0  0  0  0  0  0  0  0
   47.4904   33.5404   41.6248 H   0  0  0  0  0  0  0  0  0  0  0  0
   46.8166   34.6508   40.3316 H   0  0  0  0  0  0  0  0  0  0  0  0
   49.0275   35.1329   40.2046 H   0  0  0  0  0  0  0  0  0  0  0  0
   48.4487   36.3643   41.3931 H   0  0  0  0  0  0  0  0  0  0  0  0
   51.9828   33.0968   40.9998 H   0  0  0  0  0  0  0  0  0  0  0  0
   52.2294   30.6445   40.8074 H   0  0  0  0  0  0  0  0  0  0  0  0
   50.5793   29.1334   41.8602 H   0  0  0  0  0  0  0  0  0  0  0  0
   48.6415   30.1212   43.1323 H   0  0  0  0  0  0  0  0  0  0  0  0
   44.6154   36.3116   43.6288 H   0  0  0  0  0  0  0  0  0  0  0  0
   47.4700   33.0701   43.6517 H   0  0  0  0  0  0  0  0  0  0  0  0
   44.2696   34.4567   47.9251 H   0  0  0  0  0  0  0  0  0  0  0  0
  1 10  1  0
  2  1  1  0
  2  3  1  0
  4  3  1  0
  4  9  1  0
  5  4  2  0
  6  5  1  0
  6  7  2  0
  7  8  1  0
  8  9  2  0
 10 12  1  0
 11 16  2  0
 12 11  1  0
 12 13  2  0
 13 14  1  0
 14 15  2  0
 15 17  1  0
 16 15  1  0
 17 18  2  0
  1 19  1  0
  1 20  1  0
  2 21  1  0
  2 22  1  0
  5 23  1  0
  6 24  1  0
  7 25  1  0
  8 26  1  0
 11 27  1  0
 13 28  1  0
 17 29  1  0
M  ISO  8  19   8  20   8  21   8  22   8  23  14  24  14  25  14  26  14
M  ISO  3  27  14  28  14  29   6
M  END
>  <minimizedAffinity>  (1) 
-3.95249486

>  <minimizedRMSD>  (1) 
1.01884425

$$$$
