
     RDKit          3D

 56 59  0  0  1  0  0  0  0  0999 V2000
   46.0040   34.6830   41.5080 C   0  0  0  0  0  0  0  0  0  0  0  0
   46.6890   34.1430   40.4170 N   0  0  0  0  0  0  0  0  0  0  0  0
   46.1160   33.0340   39.9190 C   0  0  0  0  0  0  0  0  0  0  0  0
   47.0600   31.8650   39.8480 C   0  0  0  0  0  0  0  0  0  0  0  0
   48.1300   31.7560   40.8640 C   0  0  0  0  0  0  0  0  0  0  0  0
   48.4430   33.0600   41.5220 C   0  0  0  0  0  0  0  0  0  0  0  0
   48.0930   34.1810   40.5990 C   0  0  2  0  0  0  0  0  0  0  0  0
   48.6200   35.4380   41.1700 C   0  0  0  0  0  0  0  0  0  0  0  0
   49.6060   35.2560   42.2730 C   0  0  0  0  0  0  0  0  0  0  0  0
   44.9190   33.9020   42.0800 C   0  0  1  0  0  0  0  0  0  0  0  0
   45.1770   34.4500   44.5450 C   0  0  0  0  0  0  0  0  0  0  0  0
   45.2440   33.5550   43.4740 C   0  0  0  0  0  0  0  0  0  0  0  0
   45.6440   32.2420   43.7670 C   0  0  0  0  0  0  0  0  0  0  0  0
   45.9400   31.9020   45.0380 N   0  0  0  0  0  0  0  0  0  0  0  0
   45.8600   32.8060   46.0510 C   0  0  0  0  0  0  0  0  0  0  0  0
   45.4690   34.1170   45.8010 N   0  0  0  0  0  0  0  0  0  0  0  0
   43.6140   34.6410   41.9960 C   0  0  0  0  0  0  0  0  0  0  0  0
   42.7720   34.3730   40.8220 C   0  0  0  0  0  0  0  0  0  0  0  0
   42.7840   35.2830   39.7580 C   0  0  0  0  0  0  0  0  0  0  0  0
   42.0660   35.1240   38.6010 C   0  0  0  0  0  0  0  0  0  0  0  0
   41.2660   34.0170   38.4270 C   0  0  0  0  0  0  0  0  0  0  0  0
   41.2210   33.0940   39.4490 C   0  0  0  0  0  0  0  0  0  0  0  0
   40.4210   31.9470   39.3540 C   0  0  0  0  0  0  0  0  0  0  0  0
   40.3270   30.9970   40.3500 C   0  0  0  0  0  0  0  0  0  0  0  0
   41.0790   31.2350   41.4800 C   0  0  0  0  0  0  0  0  0  0  0  0
   41.8700   32.3560   41.5900 C   0  0  0  0  0  0  0  0  0  0  0  0
   41.9560   33.2850   40.5990 C   0  0  0  0  0  0  0  0  0  0  0  0
   45.5811   35.6461   41.1861 H   0  0  0  0  0  0  0  0  0  0  0  0
   46.7569   34.7397   42.3080 H   0  0  0  0  0  0  0  0  0  0  0  0
   45.2664   32.7598   40.5616 H   0  0  0  0  0  0  0  0  0  0  0  0
   45.7971   33.2619   38.8912 H   0  0  0  0  0  0  0  0  0  0  0  0
   46.4510   30.9517   39.9192 H   0  0  0  0  0  0  0  0  0  0  0  0
   47.6021   32.0151   38.9027 H   0  0  0  0  0  0  0  0  0  0  0  0
   47.8090   31.0415   41.6363 H   0  0  0  0  0  0  0  0  0  0  0  0
   49.0415   31.4198   40.3481 H   0  0  0  0  0  0  0  0  0  0  0  0
   47.8582   33.1524   42.4491 H   0  0  0  0  0  0  0  0  0  0  0  0
   49.5163   33.1023   41.7592 H   0  0  0  0  0  0  0  0  0  0  0  0
   48.5490   34.0975   39.6015 H   0  0  0  0  0  0  0  0  0  0  0  0
   49.1095   36.0024   40.3626 H   0  0  0  0  0  0  0  0  0  0  0  0
   47.7593   35.9656   41.6067 H   0  0  0  0  0  0  0  0  0  0  0  0
   49.0939   35.3505   43.2419 H   0  0  0  0  0  0  0  0  0  0  0  0
   50.0628   34.2584   42.1955 H   0  0  0  0  0  0  0  0  0  0  0  0
   50.3889   36.0248   42.1955 H   0  0  0  0  0  0  0  0  0  0  0  0
   44.8045   32.9749   41.4991 H   0  0  0  0  0  0  0  0  0  0  0  0
   44.8664   35.4851   44.3397 H   0  0  0  0  0  0  0  0  0  0  0  0
   45.7157   31.4939   42.9638 H   0  0  0  0  0  0  0  0  0  0  0  0
   46.1068   32.4973   47.0775 H   0  0  0  0  0  0  0  0  0  0  0  0
   43.0282   34.3834   42.8907 H   0  0  0  0  0  0  0  0  0  0  0  0
   43.8906   35.7025   41.9138 H   0  0  0  0  0  0  0  0  0  0  0  0
   43.4092   36.1826   39.8567 H   0  0  0  0  0  0  0  0  0  0  0  0
   42.1293   35.8840   37.8083 H   0  0  0  0  0  0  0  0  0  0  0  0
   40.6835   33.8745   37.5048 H   0  0  0  0  0  0  0  0  0  0  0  0
   39.8360   31.7960   38.4348 H   0  0  0  0  0  0  0  0  0  0  0  0
   39.6913   30.1050   40.2485 H   0  0  0  0  0  0  0  0  0  0  0  0
   41.0464   30.5147   42.3107 H   0  0  0  0  0  0  0  0  0  0  0  0
   42.4528   32.5063   42.5107 H   0  0  0  0  0  0  0  0  0  0  0  0
  1 10  1  0
  2  7  1  0
  2  1  1  0
  3  2  1  0
  4  3  1  0
  4  5  1  0
  5  6  1  0
  7  8  1  0
  7  6  1  0
  8  9  1  0
 10 12  1  0
 11 16  2  0
 12 13  2  0
 12 11  1  0
 13 14  1  0
 14 15  2  0
 16 15  1  0
 17 10  1  0
 18 17  1  0
 19 18  2  0
 20 19  1  0
 21 20  2  0
 21 22  1  0
 22 27  2  0
 23 22  1  0
 23 24  2  0
 24 25  1  0
 25 26  2  0
 27 18  1  0
 27 26  1  0
  1 28  1  0
  1 29  1  0
  3 30  1  0
  3 31  1  0
  4 32  1  0
  4 33  1  0
  5 34  1  0
  5 35  1  0
  6 36  1  0
  6 37  1  0
  7 38  1  6
  8 39  1  0
  8 40  1  0
  9 41  1  0
  9 42  1  0
  9 43  1  0
 10 44  1  6
 11 45  1  0
 13 46  1  0
 15 47  1  0
 17 48  1  0
 17 49  1  0
 19 50  1  0
 20 51  1  0
 21 52  1  0
 23 53  1  0
 24 54  1  0
 25 55  1  0
 26 56  1  0
M  ISO  8  28   8  29   8  30  13  31  13  32  13  33  13  34  13  35  13
M  ISO  8  36  13  37  13  38  13  39   8  40   8  41   8  42   8  43   8
M  ISO  8  44   8  45  14  46  14  47  14  48   8  49   8  50  14  51  14
M  ISO  5  52  14  53  14  54  14  55  14  56  14
M  END
>  <minimizedAffinity>  (1) 
-5.64504576

>  <minimizedRMSD>  (1) 
3.29377222

$$$$
