
     RDKit          3D

 30 31  0  0  0  0  0  0  0  0999 V2000
   47.4540   34.6100   41.0790 C   0  0  0  0  0  0  0  0  0  0  0  0
   48.7290   35.4000   41.1870 C   0  0  0  0  0  0  0  0  0  0  0  0
   49.8010   34.7320   42.4720 S   0  0  0  0  0  0  0  0  0  0  0  0
   50.1150   33.0020   42.2560 C   0  0  0  0  0  0  0  0  0  0  0  0
   51.1710   32.4250   41.5640 C   0  0  0  0  0  0  0  0  0  0  0  0
   51.2530   31.0510   41.5000 C   0  0  0  0  0  0  0  0  0  0  0  0
   50.3020   30.2430   42.1110 C   0  0  0  0  0  0  0  0  0  0  0  0
   49.2570   30.8600   42.7940 C   0  0  0  0  0  0  0  0  0  0  0  0
   49.2180   32.2050   42.8320 N   0  0  0  0  0  0  0  0  0  0  0  0
   46.3950   35.1830   41.7700 O   0  0  0  0  0  0  0  0  0  0  0  0
   45.0430   35.8450   43.5520 C   0  0  0  0  0  0  0  0  0  0  0  0
   45.9950   34.9390   43.0250 C   0  0  0  0  0  0  0  0  0  0  0  0
   46.4100   33.9110   43.8430 C   0  0  0  0  0  0  0  0  0  0  0  0
   45.9190   33.7860   45.0930 N   0  0  0  0  0  0  0  0  0  0  0  0
   45.0080   34.6630   45.5820 C   0  0  0  0  0  0  0  0  0  0  0  0
   44.5890   35.6680   44.8120 N   0  0  0  0  0  0  0  0  0  0  0  0
   44.5720   34.3820   46.9760 C   0  0  0  0  0  0  0  0  0  0  0  0
   47.1784   34.5347   40.0168 H   0  0  0  0  0  0  0  0  0  0  0  0
   47.6418   33.6236   41.5283 H   0  0  0  0  0  0  0  0  0  0  0  0
   49.2575   35.3622   40.2230 H   0  0  0  0  0  0  0  0  0  0  0  0
   48.4752   36.4377   41.4491 H   0  0  0  0  0  0  0  0  0  0  0  0
   51.9295   33.0540   41.0750 H   0  0  0  0  0  0  0  0  0  0  0  0
   52.0871   30.5850   40.9549 H   0  0  0  0  0  0  0  0  0  0  0  0
   50.3726   29.1466   42.0567 H   0  0  0  0  0  0  0  0  0  0  0  0
   48.4801   30.2611   43.2918 H   0  0  0  0  0  0  0  0  0  0  0  0
   44.6770   36.6840   42.9420 H   0  0  0  0  0  0  0  0  0  0  0  0
   47.1490   33.1851   43.4730 H   0  0  0  0  0  0  0  0  0  0  0  0
   45.2815   34.8393   47.6813 H   0  0  0  0  0  0  0  0  0  0  0  0
   43.5695   34.8044   47.1388 H   0  0  0  0  0  0  0  0  0  0  0  0
   44.5426   33.2945   47.1388 H   0  0  0  0  0  0  0  0  0  0  0  0
  1  2  1  0
  1 10  1  0
  2  3  1  0
  4  3  1  0
  4  9  1  0
  5  4  2  0
  6  5  1  0
  6  7  2  0
  7  8  1  0
  8  9  2  0
 10 12  1  0
 11 16  2  0
 12 11  1  0
 12 13  2  0
 13 14  1  0
 14 15  2  0
 15 17  1  0
 16 15  1  0
  1 18  1  0
  1 19  1  0
  2 20  1  0
  2 21  1  0
  5 22  1  0
  6 23  1  0
  7 24  1  0
  8 25  1  0
 11 26  1  0
 13 27  1  0
 17 28  1  0
 17 29  1  0
 17 30  1  0
M  ISO  8  18   8  19   8  20   8  21   8  22  14  23  14  24  14  25  14
M  ISO  5  26  14  27  14  28   8  29   8  30   8
M  END
>  <minimizedAffinity>  (1) 
-3.85441327

>  <minimizedRMSD>  (1) 
0.233259007

$$$$
