
     RDKit          3D

 28 30  0  0  0  0  0  0  0  0999 V2000
   45.6320   33.8390   45.8730 C   0  0  0  0  0  0  0  0  0  0  0  0
   44.7350   34.8520   45.8090 N   0  0  0  0  0  0  0  0  0  0  0  0
   44.8290   35.4230   44.6360 O   0  0  0  0  0  0  0  0  0  0  0  0
   45.7480   34.8380   43.9170 C   0  0  0  0  0  0  0  0  0  0  0  0
   46.2690   33.8290   44.6850 N   0  0  0  0  0  0  0  0  0  0  0  0
   47.5080   31.4120   47.8730 C   0  0  0  0  0  0  0  0  0  0  0  0
   46.6050   31.0710   48.8890 C   0  0  0  0  0  0  0  0  0  0  0  0
   45.3390   31.6810   48.8880 C   0  0  0  0  0  0  0  0  0  0  0  0
   45.0620   32.5670   47.9000 N   0  0  0  0  0  0  0  0  0  0  0  0
   45.9600   32.8760   46.9310 C   0  0  0  0  0  0  0  0  0  0  0  0
   47.1700   32.2990   46.9240 N   0  0  0  0  0  0  0  0  0  0  0  0
   46.0540   35.2880   42.5520 C   0  0  0  0  0  0  0  0  0  0  0  0
   45.1510   34.5540   41.5930 C   0  0  0  0  0  0  0  0  0  0  0  0
   46.0620   33.6830   40.7510 C   0  0  0  0  0  0  0  0  0  0  0  0
   47.3520   34.4620   40.7550 C   0  0  0  0  0  0  0  0  0  0  0  0
   47.4680   34.9790   42.1650 C   0  0  0  0  0  0  0  0  0  0  0  0
   48.5049   30.9475   47.8530 H   0  0  0  0  0  0  0  0  0  0  0  0
   46.8802   30.3443   49.6675 H   0  0  0  0  0  0  0  0  0  0  0  0
   44.5960   31.4469   49.6646 H   0  0  0  0  0  0  0  0  0  0  0  0
   45.9050   36.3772   42.5143 H   0  0  0  0  0  0  0  0  0  0  0  0
   44.4303   33.9328   42.1450 H   0  0  0  0  0  0  0  0  0  0  0  0
   44.5695   35.2507   40.9713 H   0  0  0  0  0  0  0  0  0  0  0  0
   45.6699   33.5683   39.7297 H   0  0  0  0  0  0  0  0  0  0  0  0
   46.1673   32.6578   41.1356 H   0  0  0  0  0  0  0  0  0  0  0  0
   48.2024   33.8095   40.5077 H   0  0  0  0  0  0  0  0  0  0  0  0
   47.3583   35.2699   40.0085 H   0  0  0  0  0  0  0  0  0  0  0  0
   47.8972   34.2138   42.8285 H   0  0  0  0  0  0  0  0  0  0  0  0
   48.1304   35.8537   42.2434 H   0  0  0  0  0  0  0  0  0  0  0  0
  1 10  1  0
  2  1  2  0
  3  2  1  0
  4  3  1  0
  4  5  2  0
  5  1  1  0
  6  7  2  0
  8  7  1  0
  9  8  2  0
 10  9  1  0
 11 10  2  0
 11  6  1  0
 12  4  1  0
 13 12  1  0
 14 15  1  0
 14 13  1  0
 15 16  1  0
 16 12  1  0
  6 17  1  0
  7 18  1  0
  8 19  1  0
 12 20  1  0
 13 21  1  0
 13 22  1  0
 14 23  1  0
 14 24  1  0
 15 25  1  0
 15 26  1  0
 16 27  1  0
 16 28  1  0
M  ISO  8  17  14  18  14  19  14  20  13  21  13  22  13  23  13  24  13
M  ISO  4  25  13  26  13  27  13  28  13
M  END
>  <minimizedAffinity>  (1) 
-5.35928679

>  <minimizedRMSD>  (1) 
6.7071352

$$$$
