
     RDKit          3D

 18 19  0  0  0  0  0  0  0  0999 V2000
   44.4580   35.9030   44.5990 C   0  0  0  0  0  0  0  0  0  0  0  0
   45.0140   36.0980   43.3270 C   0  0  0  0  0  0  0  0  0  0  0  0
   45.9950   35.2140   42.8900 C   0  0  0  0  0  0  0  0  0  0  0  0
   46.3740   34.1970   43.7160 N   0  0  0  0  0  0  0  0  0  0  0  0
   45.8240   34.0290   44.9360 C   0  0  0  0  0  0  0  0  0  0  0  0
   44.8760   34.8800   45.3640 N   0  0  0  0  0  0  0  0  0  0  0  0
   46.2380   32.9360   45.8130 C   0  0  0  0  0  0  0  0  0  0  0  0
   47.0190   31.8470   45.6250 N   0  0  0  0  0  0  0  0  0  0  0  0
   47.0920   31.1560   46.7220 O   0  0  0  0  0  0  0  0  0  0  0  0
   46.3870   31.7370   47.6530 C   0  0  0  0  0  0  0  0  0  0  0  0
   45.8440   32.8520   47.1020 N   0  0  0  0  0  0  0  0  0  0  0  0
   46.2090   31.2810   49.0250 C   0  0  0  0  0  0  0  0  0  0  0  0
   45.0960   31.4330   49.5810 O   0  0  0  0  0  0  0  0  0  0  0  0
   47.2840   30.6850   49.6920 O   0  0  0  0  0  0  0  0  0  0  0  0
   43.6804   36.5865   44.9707 H   0  0  0  0  0  0  0  0  0  0  0  0
   44.6822   36.9307   42.6893 H   0  0  0  0  0  0  0  0  0  0  0  0
   46.4558   35.3327   41.8983 H   0  0  0  0  0  0  0  0  0  0  0  0
   47.1753   30.3711   50.6246 H   0  0  0  0  0  0  0  0  0  0  0  0
  1  6  2  0
  2  1  1  0
  3  2  2  0
  3  4  1  0
  4  5  2  0
  5  6  1  0
  5  7  1  0
  7 11  1  0
  8  7  2  0
  8  9  1  0
  9 10  1  0
 10 12  1  0
 11 10  2  0
 12 13  2  0
 12 14  1  0
  1 15  1  0
  2 16  1  0
  3 17  1  0
 14 18  1  0
M  ISO  4  15  14  16  14  17  14  18   3
M  END
>  <minimizedAffinity>  (1) 
-5.00229311

>  <minimizedRMSD>  (1) 
1.17138743

$$$$
