
     RDKit          3D

 24 25  0  0  0  0  0  0  0  0999 V2000
   44.4790   35.8750   44.4540 C   0  0  0  0  0  0  0  0  0  0  0  0
   44.9700   36.1550   43.1720 C   0  0  0  0  0  0  0  0  0  0  0  0
   45.9910   35.3380   42.7020 C   0  0  0  0  0  0  0  0  0  0  0  0
   46.4330   34.3420   43.5060 N   0  0  0  0  0  0  0  0  0  0  0  0
   45.9460   34.0980   44.7290 C   0  0  0  0  0  0  0  0  0  0  0  0
   44.9650   34.8640   45.2110 N   0  0  0  0  0  0  0  0  0  0  0  0
   46.4740   33.0020   45.5450 C   0  0  0  0  0  0  0  0  0  0  0  0
   47.1000   31.8550   45.2600 N   0  0  0  0  0  0  0  0  0  0  0  0
   47.3720   31.2080   46.3510 O   0  0  0  0  0  0  0  0  0  0  0  0
   46.9480   31.8810   47.3840 C   0  0  0  0  0  0  0  0  0  0  0  0
   46.3860   33.0030   46.8790 N   0  0  0  0  0  0  0  0  0  0  0  0
   46.9980   31.6090   48.8270 C   0  0  0  0  0  0  0  0  0  0  0  0
   45.7100   30.9850   49.3280 C   0  0  0  0  0  0  0  0  0  0  0  0
   48.1480   30.7270   49.2520 C   0  0  0  0  0  0  0  0  0  0  0  0
   43.6694   36.4994   44.8598 H   0  0  0  0  0  0  0  0  0  0  0  0
   44.5671   36.9809   42.5674 H   0  0  0  0  0  0  0  0  0  0  0  0
   46.4279   35.4958   41.7049 H   0  0  0  0  0  0  0  0  0  0  0  0
   47.1472   32.6002   49.2800 H   0  0  0  0  0  0  0  0  0  0  0  0
   45.7069   30.9835   50.4280 H   0  0  0  0  0  0  0  0  0  0  0  0
   44.8528   31.5677   48.9597 H   0  0  0  0  0  0  0  0  0  0  0  0
   45.6360   29.9511   48.9597 H   0  0  0  0  0  0  0  0  0  0  0  0
   48.1956   30.6905   50.3504 H   0  0  0  0  0  0  0  0  0  0  0  0
   47.9964   29.7114   48.8576 H   0  0  0  0  0  0  0  0  0  0  0  0
   49.0896   31.1367   48.8576 H   0  0  0  0  0  0  0  0  0  0  0  0
  1  6  2  0
  2  1  1  0
  3  2  2  0
  3  4  1  0
  4  5  2  0
  5  6  1  0
  5  7  1  0
  7 11  1  0
  8  7  2  0
  8  9  1  0
  9 10  1  0
 10 12  1  0
 11 10  2  0
 12 14  1  0
 12 13  1  0
  1 15  1  0
  2 16  1  0
  3 17  1  0
 12 18  1  0
 13 19  1  0
 13 20  1  0
 13 21  1  0
 14 22  1  0
 14 23  1  0
 14 24  1  0
M  ISO  8  15  14  16  14  17  14  18   8  19   8  20   8  21   8  22   8
M  ISO  2  23   8  24   8
M  END
>  <minimizedAffinity>  (1) 
-4.6961236

>  <minimizedRMSD>  (1) 
1.53721118

$$$$
