
     RDKit          3D

 21 23  0  0  0  0  0  0  0  0999 V2000
   45.9360   33.4020   43.7760 C   0  0  0  0  0  0  0  0  0  0  0  0
   47.2190   32.9840   43.7900 N   0  0  0  0  0  0  0  0  0  0  0  0
   47.4990   32.5060   44.9720 O   0  0  0  0  0  0  0  0  0  0  0  0
   46.4520   32.5870   45.7550 C   0  0  0  0  0  0  0  0  0  0  0  0
   45.4670   33.1450   45.0200 N   0  0  0  0  0  0  0  0  0  0  0  0
   46.3640   32.1690   47.1130 N   0  0  0  0  0  0  0  0  0  0  0  0
   47.1780   31.3240   47.7390 C   0  0  0  0  0  0  0  0  0  0  0  0
   46.7580   31.1840   49.0320 N   0  0  0  0  0  0  0  0  0  0  0  0
   45.6570   31.9780   49.1640 C   0  0  0  0  0  0  0  0  0  0  0  0
   45.4410   32.5680   47.9730 N   0  0  0  0  0  0  0  0  0  0  0  0
   43.8360   35.8210   42.0330 C   0  0  0  0  0  0  0  0  0  0  0  0
   43.6000   35.2000   40.7750 C   0  0  0  0  0  0  0  0  0  0  0  0
   44.1700   33.9530   40.5460 C   0  0  0  0  0  0  0  0  0  0  0  0
   44.9080   33.4200   41.5380 N   0  0  0  0  0  0  0  0  0  0  0  0
   45.1230   34.0130   42.7190 C   0  0  0  0  0  0  0  0  0  0  0  0
   44.5840   35.2250   42.9740 N   0  0  0  0  0  0  0  0  0  0  0  0
   48.0467   30.8204   47.2899 H   0  0  0  0  0  0  0  0  0  0  0  0
   45.0561   32.1118   50.0756 H   0  0  0  0  0  0  0  0  0  0  0  0
   43.3969   36.8085   42.2381 H   0  0  0  0  0  0  0  0  0  0  0  0
   42.9851   35.6917   40.0068 H   0  0  0  0  0  0  0  0  0  0  0  0
   44.0240   33.4232   39.5931 H   0  0  0  0  0  0  0  0  0  0  0  0
  1  2  2  0
  1  5  1  0
  2  3  1  0
  3  4  1  0
  4  6  1  0
  5  4  2  0
  6  7  1  0
  6 10  1  0
  7  8  2  0
  8  9  1  0
 10  9  2  0
 11 16  2  0
 12 11  1  0
 13 12  2  0
 13 14  1  0
 14 15  2  0
 15 16  1  0
 15  1  1  0
  7 17  1  0
  9 18  1  0
 11 19  1  0
 12 20  1  0
 13 21  1  0
M  ISO  5  17  14  18  14  19  14  20  14  21  14
M  END
>  <minimizedAffinity>  (1) 
-4.16051483

>  <minimizedRMSD>  (1) 
3.0332458

$$$$
