
     RDKit          3D

 24 26  0  0  0  0  0  0  0  0999 V2000
   43.8920   35.3730   42.1190 C   0  0  0  0  0  0  0  0  0  0  0  0
   44.6790   36.4070   42.4960 N   0  0  0  0  0  0  0  0  0  0  0  0
   45.5820   35.9800   43.3390 O   0  0  0  0  0  0  0  0  0  0  0  0
   45.4270   34.6990   43.5400 C   0  0  0  0  0  0  0  0  0  0  0  0
   44.3780   34.3030   42.7880 N   0  0  0  0  0  0  0  0  0  0  0  0
   40.4410   35.3970   40.9360 C   0  0  0  0  0  0  0  0  0  0  0  0
   40.5620   35.1730   39.5470 C   0  0  0  0  0  0  0  0  0  0  0  0
   41.8540   35.0160   39.0400 C   0  0  0  0  0  0  0  0  0  0  0  0
   42.9020   35.0840   39.8850 N   0  0  0  0  0  0  0  0  0  0  0  0
   42.7430   35.2990   41.2050 C   0  0  0  0  0  0  0  0  0  0  0  0
   41.5210   35.4560   41.7340 N   0  0  0  0  0  0  0  0  0  0  0  0
   46.2280   33.8370   44.4100 C   0  0  0  0  0  0  0  0  0  0  0  0
   47.2920   33.3620   43.9900 O   0  0  0  0  0  0  0  0  0  0  0  0
   45.7430   33.5630   45.7570 C   0  0  0  0  0  0  0  0  0  0  0  0
   46.1530   32.4710   46.5310 C   0  0  0  0  0  0  0  0  0  0  0  0
   45.4540   32.6010   47.7130 C   0  0  0  0  0  0  0  0  0  0  0  0
   44.6720   33.6950   47.6650 N   0  0  0  0  0  0  0  0  0  0  0  0
   44.8650   34.2640   46.4670 N   0  0  0  0  0  0  0  0  0  0  0  0
   39.4406   35.5261   41.3747 H   0  0  0  0  0  0  0  0  0  0  0  0
   39.6784   35.1243   38.8936 H   0  0  0  0  0  0  0  0  0  0  0  0
   42.0140   34.8393   37.9661 H   0  0  0  0  0  0  0  0  0  0  0  0
   46.8721   31.6848   46.2576 H   0  0  0  0  0  0  0  0  0  0  0  0
   45.5253   31.9125   48.5680 H   0  0  0  0  0  0  0  0  0  0  0  0
   44.0437   34.0316   48.4086 H   0  0  0  0  0  0  0  0  0  0  0  0
  1  2  2  0
  1  5  1  0
  2  3  1  0
  3  4  1  0
  4 12  1  0
  5  4  2  0
  6 11  2  0
  7  6  1  0
  8  7  2  0
  8  9  1  0
  9 10  2  0
 10 11  1  0
 10  1  1  0
 12 14  1  0
 13 12  2  0
 14 18  2  0
 14 15  1  0
 15 16  2  0
 17 16  1  0
 18 17  1  0
  6 19  1  0
  7 20  1  0
  8 21  1  0
 15 22  1  0
 16 23  1  0
 17 24  1  0
M  ISO  6  19  14  20  14  21  14  22  14  23  14  24   9
M  END
>  <minimizedAffinity>  (1) 
-5.53567457

>  <minimizedRMSD>  (1) 
5.30805731

$$$$
