
     RDKit          3D

 26 28  0  0  0  0  0  0  0  0999 V2000
   46.5970   32.8690   45.4960 C   0  0  0  0  0  0  0  0  0  0  0  0
   47.1630   31.7370   45.0660 N   0  0  0  0  0  0  0  0  0  0  0  0
   47.5300   31.0060   46.0780 O   0  0  0  0  0  0  0  0  0  0  0  0
   47.2250   31.6220   47.2030 C   0  0  0  0  0  0  0  0  0  0  0  0
   46.6350   32.8000   46.8510 N   0  0  0  0  0  0  0  0  0  0  0  0
   44.5160   35.7810   44.7830 C   0  0  0  0  0  0  0  0  0  0  0  0
   44.9020   36.1540   43.4780 C   0  0  0  0  0  0  0  0  0  0  0  0
   45.8860   35.3830   42.8540 C   0  0  0  0  0  0  0  0  0  0  0  0
   46.4260   34.3330   43.5060 N   0  0  0  0  0  0  0  0  0  0  0  0
   46.0270   34.0060   44.7660 C   0  0  0  0  0  0  0  0  0  0  0  0
   45.0720   34.7250   45.4130 N   0  0  0  0  0  0  0  0  0  0  0  0
   47.4550   31.1660   48.5750 C   0  0  0  0  0  0  0  0  0  0  0  0
   46.4790   31.1120   49.3330 O   0  0  0  0  0  0  0  0  0  0  0  0
   48.7740   30.7810   49.0650 C   0  0  0  0  0  0  0  0  0  0  0  0
   49.5830   31.8170   49.5130 C   0  0  0  0  0  0  0  0  0  0  0  0
   50.8420   31.4430   49.9780 C   0  0  0  0  0  0  0  0  0  0  0  0
   51.2610   30.1160   49.9950 C   0  0  0  0  0  0  0  0  0  0  0  0
   50.4110   29.1360   49.5370 C   0  0  0  0  0  0  0  0  0  0  0  0
   49.1950   29.5040   49.0880 N   0  0  0  0  0  0  0  0  0  0  0  0
   43.7416   36.3663   45.3004 H   0  0  0  0  0  0  0  0  0  0  0  0
   44.4462   37.0178   42.9719 H   0  0  0  0  0  0  0  0  0  0  0  0
   46.2189   35.6312   41.8354 H   0  0  0  0  0  0  0  0  0  0  0  0
   49.2511   32.8657   49.5015 H   0  0  0  0  0  0  0  0  0  0  0  0
   51.5272   32.2220   50.3436 H   0  0  0  0  0  0  0  0  0  0  0  0
   52.2610   29.8535   50.3706 H   0  0  0  0  0  0  0  0  0  0  0  0
   50.7162   28.0792   49.5373 H   0  0  0  0  0  0  0  0  0  0  0  0
  1  5  1  0
  2  1  2  0
  2  3  1  0
  3  4  1  0
  4 12  1  0
  5  4  2  0
  6 11  2  0
  7  6  1  0
  8  7  2  0
  8  9  1  0
  9 10  2  0
 10 11  1  0
 10  1  1  0
 12 14  1  0
 12 13  2  0
 14 19  1  0
 14 15  2  0
 15 16  1  0
 16 17  2  0
 18 17  1  0
 19 18  2  0
  6 20  1  0
  7 21  1  0
  8 22  1  0
 15 23  1  0
 16 24  1  0
 17 25  1  0
 18 26  1  0
M  ISO  7  20  14  21  14  22  14  23  14  24  14  25  14  26  14
M  END
>  <minimizedAffinity>  (1) 
-5.17988157

>  <minimizedRMSD>  (1) 
3.72605681

$$$$
