
     RDKit          3D

 47 49  0  0  1  0  0  0  0  0999 V2000
   46.3410   35.1480   41.8510 C   0  0  0  0  0  0  0  0  0  0  0  0
   46.8450   34.4390   40.7670 N   0  0  0  0  0  0  0  0  0  0  0  0
   46.1110   33.3540   40.4020 C   0  0  0  0  0  0  0  0  0  0  0  0
   46.7950   32.0050   40.4740 C   0  0  0  0  0  0  0  0  0  0  0  0
   48.0160   31.8990   41.2760 C   0  0  0  0  0  0  0  0  0  0  0  0
   48.5350   33.1980   41.8130 C   0  0  0  0  0  0  0  0  0  0  0  0
   48.2390   34.2630   40.8070 C   0  0  2  0  0  0  0  0  0  0  0  0
   48.9810   35.4840   41.2140 C   0  0  0  0  0  0  0  0  0  0  0  0
   49.8560   35.3130   42.4140 C   0  0  0  0  0  0  0  0  0  0  0  0
   45.0250   34.7400   42.3340 C   0  0  1  0  0  0  0  0  0  0  0  0
   44.5740   35.3250   44.7790 C   0  0  0  0  0  0  0  0  0  0  0  0
   45.0950   34.4600   43.7790 C   0  0  0  0  0  0  0  0  0  0  0  0
   45.7130   33.2670   44.1840 C   0  0  0  0  0  0  0  0  0  0  0  0
   45.7890   32.9900   45.5000 N   0  0  0  0  0  0  0  0  0  0  0  0
   45.2840   33.8310   46.4370 C   0  0  0  0  0  0  0  0  0  0  0  0
   44.6710   35.0110   46.0750 N   0  0  0  0  0  0  0  0  0  0  0  0
   43.9980   35.7960   42.0450 C   0  0  0  0  0  0  0  0  0  0  0  0
   42.9750   35.3770   41.0460 C   0  0  0  0  0  0  0  0  0  0  0  0
   41.6960   35.0800   41.4000 C   0  0  0  0  0  0  0  0  0  0  0  0
   41.0880   34.7510   40.2310 N   0  0  0  0  0  0  0  0  0  0  0  0
   41.9660   34.8460   39.2210 C   0  0  0  0  0  0  0  0  0  0  0  0
   43.1630   35.2400   39.7090 N   0  0  0  0  0  0  0  0  0  0  0  0
   46.2777   36.2067   41.5591 H   0  0  0  0  0  0  0  0  0  0  0  0
   47.0340   34.9471   42.6813 H   0  0  0  0  0  0  0  0  0  0  0  0
   45.7876   33.5069   39.3618 H   0  0  0  0  0  0  0  0  0  0  0  0
   45.2955   33.3002   41.1382 H   0  0  0  0  0  0  0  0  0  0  0  0
   46.0681   31.2905   40.8876 H   0  0  0  0  0  0  0  0  0  0  0  0
   47.1233   31.8061   39.4431 H   0  0  0  0  0  0  0  0  0  0  0  0
   47.8078   31.2359   42.1287 H   0  0  0  0  0  0  0  0  0  0  0  0
   48.7943   31.5118   40.6019 H   0  0  0  0  0  0  0  0  0  0  0  0
   48.0370   33.4344   42.7649 H   0  0  0  0  0  0  0  0  0  0  0  0
   49.6181   33.1322   41.9934 H   0  0  0  0  0  0  0  0  0  0  0  0
   48.5650   34.0031   39.7891 H   0  0  0  0  0  0  0  0  0  0  0  0
   49.6138   35.7974   40.3706 H   0  0  0  0  0  0  0  0  0  0  0  0
   48.2220   36.2318   41.4873 H   0  0  0  0  0  0  0  0  0  0  0  0
   49.2536   35.4307   43.3268 H   0  0  0  0  0  0  0  0  0  0  0  0
   50.3069   34.3098   42.3991 H   0  0  0  0  0  0  0  0  0  0  0  0
   50.6514   36.0727   42.3991 H   0  0  0  0  0  0  0  0  0  0  0  0
   44.7194   33.8246   41.8061 H   0  0  0  0  0  0  0  0  0  0  0  0
   44.0848   36.2647   44.4830 H   0  0  0  0  0  0  0  0  0  0  0  0
   46.1278   32.5707   43.4403 H   0  0  0  0  0  0  0  0  0  0  0  0
   45.3650   33.5671   47.5018 H   0  0  0  0  0  0  0  0  0  0  0  0
   43.4839   36.0472   42.9845 H   0  0  0  0  0  0  0  0  0  0  0  0
   44.5327   36.6568   41.6169 H   0  0  0  0  0  0  0  0  0  0  0  0
   41.2534   35.1014   42.4068 H   0  0  0  0  0  0  0  0  0  0  0  0
   41.7464   34.6365   38.1637 H   0  0  0  0  0  0  0  0  0  0  0  0
   44.0317   35.4016   39.1797 H   0  0  0  0  0  0  0  0  0  0  0  0
  1 10  1  0
  2  7  1  0
  2  1  1  0
  3  4  1  0
  3  2  1  0
  4  5  1  0
  5  6  1  0
  7  8  1  0
  7  6  1  0
  8  9  1  0
 10 12  1  0
 11 16  2  0
 12 13  2  0
 12 11  1  0
 13 14  1  0
 14 15  2  0
 16 15  1  0
 17 10  1  0
 18 19  2  0
 18 17  1  0
 20 19  1  0
 21 22  1  0
 21 20  2  0
 22 18  1  0
  1 23  1  0
  1 24  1  0
  3 25  1  0
  3 26  1  0
  4 27  1  0
  4 28  1  0
  5 29  1  0
  5 30  1  0
  6 31  1  0
  6 32  1  0
  7 33  1  6
  8 34  1  0
  8 35  1  0
  9 36  1  0
  9 37  1  0
  9 38  1  0
 10 39  1  6
 11 40  1  0
 13 41  1  0
 15 42  1  0
 17 43  1  0
 17 44  1  0
 19 45  1  0
 21 46  1  0
 22 47  1  0
M  ISO  8  23   8  24   8  25  13  26  13  27  13  28  13  29  13  30  13
M  ISO  8  31  13  32  13  33  13  34   8  35   8  36   8  37   8  38   8
M  ISO  8  39   8  40  14  41  14  42  14  43   8  44   8  45  14  46  14
M  ISO  1  47   9
M  END
>  <minimizedAffinity>  (1) 
-5.28378534

>  <minimizedRMSD>  (1) 
2.77410769

$$$$
