
     RDKit          3D

 24 26  0  0  0  0  0  0  0  0999 V2000
   43.3710   33.7150   41.6410 C   0  0  0  0  0  0  0  0  0  0  0  0
   43.8730   32.4750   41.5980 N   0  0  0  0  0  0  0  0  0  0  0  0
   45.0090   32.4440   42.2490 O   0  0  0  0  0  0  0  0  0  0  0  0
   45.2760   33.6420   42.7280 C   0  0  0  0  0  0  0  0  0  0  0  0
   44.2550   34.4650   42.3570 N   0  0  0  0  0  0  0  0  0  0  0  0
   40.6670   36.1040   41.0360 C   0  0  0  0  0  0  0  0  0  0  0  0
   39.8450   35.4230   40.0860 C   0  0  0  0  0  0  0  0  0  0  0  0
   40.2480   34.1330   39.6680 C   0  0  0  0  0  0  0  0  0  0  0  0
   41.3860   33.6210   40.1890 N   0  0  0  0  0  0  0  0  0  0  0  0
   42.1390   34.3100   41.0930 C   0  0  0  0  0  0  0  0  0  0  0  0
   41.7830   35.5310   41.5090 N   0  0  0  0  0  0  0  0  0  0  0  0
   46.4620   33.9720   43.5070 C   0  0  0  0  0  0  0  0  0  0  0  0
   46.4150   33.8190   44.7550 O   0  0  0  0  0  0  0  0  0  0  0  0
   47.6940   34.4700   42.9040 C   0  0  0  0  0  0  0  0  0  0  0  0
   47.6930   35.2150   41.7410 C   0  0  0  0  0  0  0  0  0  0  0  0
   49.0090   35.4860   41.5040 N   0  0  0  0  0  0  0  0  0  0  0  0
   49.7430   34.9250   42.4840 C   0  0  0  0  0  0  0  0  0  0  0  0
   48.9500   34.2940   43.3560 N   0  0  0  0  0  0  0  0  0  0  0  0
   40.3814   37.1081   41.3826 H   0  0  0  0  0  0  0  0  0  0  0  0
   38.9285   35.8869   39.6925 H   0  0  0  0  0  0  0  0  0  0  0  0
   39.6526   33.5626   38.9399 H   0  0  0  0  0  0  0  0  0  0  0  0
   46.8245   35.5216   41.1396 H   0  0  0  0  0  0  0  0  0  0  0  0
   50.8393   34.9784   42.5566 H   0  0  0  0  0  0  0  0  0  0  0  0
   49.2401   33.7793   44.1997 H   0  0  0  0  0  0  0  0  0  0  0  0
  1  5  1  0
  2  1  2  0
  2  3  1  0
  3  4  1  0
  4 12  1  0
  5  4  2  0
  6 11  2  0
  7  6  1  0
  8  7  2  0
  8  9  1  0
  9 10  2  0
 10 11  1  0
 10  1  1  0
 12 13  2  0
 14 18  1  0
 14 12  1  0
 15 14  2  0
 16 15  1  0
 16 17  2  0
 17 18  1  0
  6 19  1  0
  7 20  1  0
  8 21  1  0
 15 22  1  0
 17 23  1  0
 18 24  1  0
M  ISO  6  19  14  20  14  21  14  22  14  23  14  24   9
M  END
>  <minimizedAffinity>  (1) 
-4.86261892

>  <minimizedRMSD>  (1) 
7.13764238

$$$$
