
     RDKit          3D

 25 27  0  0  0  0  0  0  0  0999 V2000
   43.9560   34.4510   40.7490 C   0  0  0  0  0  0  0  0  0  0  0  0
   44.8610   33.8310   39.9820 N   0  0  0  0  0  0  0  0  0  0  0  0
   45.9890   33.7190   40.6340 O   0  0  0  0  0  0  0  0  0  0  0  0
   45.8690   34.2450   41.8160 C   0  0  0  0  0  0  0  0  0  0  0  0
   44.6060   34.7050   41.9020 N   0  0  0  0  0  0  0  0  0  0  0  0
   40.9810   35.5670   38.9540 C   0  0  0  0  0  0  0  0  0  0  0  0
   39.9690   35.5260   39.9360 C   0  0  0  0  0  0  0  0  0  0  0  0
   40.3280   35.1100   41.2200 C   0  0  0  0  0  0  0  0  0  0  0  0
   41.6100   34.7690   41.4600 N   0  0  0  0  0  0  0  0  0  0  0  0
   42.5540   34.8200   40.4970 C   0  0  0  0  0  0  0  0  0  0  0  0
   42.2530   35.2180   39.2360 N   0  0  0  0  0  0  0  0  0  0  0  0
   46.8920   34.3250   42.8500 C   0  0  0  0  0  0  0  0  0  0  0  0
   47.9300   34.9620   42.6530 O   0  0  0  0  0  0  0  0  0  0  0  0
   46.6650   33.6410   44.1180 C   0  0  0  0  0  0  0  0  0  0  0  0
   45.8010   34.1440   45.0650 C   0  0  0  0  0  0  0  0  0  0  0  0
   45.5380   33.5470   46.2910 C   0  0  0  0  0  0  0  0  0  0  0  0
   46.2020   32.3860   46.5280 N   0  0  0  0  0  0  0  0  0  0  0  0
   47.0540   31.8630   45.6270 C   0  0  0  0  0  0  0  0  0  0  0  0
   47.2770   32.4910   44.4360 N   0  0  0  0  0  0  0  0  0  0  0  0
   40.7267   35.8913   37.9341 H   0  0  0  0  0  0  0  0  0  0  0  0
   38.9336   35.8116   39.6988 H   0  0  0  0  0  0  0  0  0  0  0  0
   39.5770   35.0614   42.0223 H   0  0  0  0  0  0  0  0  0  0  0  0
   45.2821   35.0860   44.8339 H   0  0  0  0  0  0  0  0  0  0  0  0
   44.8399   33.9843   47.0200 H   0  0  0  0  0  0  0  0  0  0  0  0
   47.5753   30.9210   45.8525 H   0  0  0  0  0  0  0  0  0  0  0  0
  1  5  1  0
  2  3  1  0
  2  1  2  0
  3  4  1  0
  4  5  2  0
  4 12  1  0
  6 11  2  0
  6  7  1  0
  7  8  2  0
  8  9  1  0
 10  1  1  0
 10  9  2  0
 11 10  1  0
 12 14  1  0
 13 12  2  0
 14 19  1  0
 14 15  2  0
 15 16  1  0
 16 17  2  0
 18 17  1  0
 19 18  2  0
  6 20  1  0
  7 21  1  0
  8 22  1  0
 15 23  1  0
 16 24  1  0
 18 25  1  0
M  ISO  6  20  14  21  14  22  14  23  14  24  14  25  14
M  END
>  <minimizedAffinity>  (1) 
-4.75364113

>  <minimizedRMSD>  (1) 
6.5348115

$$$$
