
     RDKit          3D

 29 31  0  0  0  0  0  0  0  0999 V2000
   46.4740   33.0190   45.7240 C   0  0  0  0  0  0  0  0  0  0  0  0
   46.7020   33.0120   47.0420 N   0  0  0  0  0  0  0  0  0  0  0  0
   47.1400   31.8390   47.4150 O   0  0  0  0  0  0  0  0  0  0  0  0
   47.2110   31.0490   46.3670 C   0  0  0  0  0  0  0  0  0  0  0  0
   46.7980   31.7780   45.3100 N   0  0  0  0  0  0  0  0  0  0  0  0
   44.4880   35.8300   44.5120 C   0  0  0  0  0  0  0  0  0  0  0  0
   45.0070   36.0740   43.2120 C   0  0  0  0  0  0  0  0  0  0  0  0
   46.0470   35.2450   42.7840 C   0  0  0  0  0  0  0  0  0  0  0  0
   46.5120   34.2700   43.5920 N   0  0  0  0  0  0  0  0  0  0  0  0
   45.9860   34.0720   44.8280 C   0  0  0  0  0  0  0  0  0  0  0  0
   44.9740   34.8500   45.2900 N   0  0  0  0  0  0  0  0  0  0  0  0
   47.6510   29.6530   46.3460 C   0  0  0  0  0  0  0  0  0  0  0  0
   48.8400   29.3960   46.1240 O   0  0  0  0  0  0  0  0  0  0  0  0
   46.5370   28.7780   46.6080 N   0  0  0  0  0  0  0  0  0  0  0  0
   45.1080   28.9550   46.8810 C   0  0  0  0  0  0  0  0  0  0  0  0
   44.9370   27.8990   47.9740 C   0  0  0  0  0  0  0  0  0  0  0  0
   45.5970   26.7130   47.3170 C   0  0  0  0  0  0  0  0  0  0  0  0
   46.7850   27.3490   46.6280 C   0  0  0  0  0  0  0  0  0  0  0  0
   43.6685   36.4591   44.8898 H   0  0  0  0  0  0  0  0  0  0  0  0
   44.6093   36.8766   42.5735 H   0  0  0  0  0  0  0  0  0  0  0  0
   46.4875   35.3876   41.7862 H   0  0  0  0  0  0  0  0  0  0  0  0
   44.8809   29.9671   47.2470 H   0  0  0  0  0  0  0  0  0  0  0  0
   44.4443   28.8450   46.0107 H   0  0  0  0  0  0  0  0  0  0  0  0
   45.4523   28.1880   48.9019 H   0  0  0  0  0  0  0  0  0  0  0  0
   43.8965   27.7287   48.2876 H   0  0  0  0  0  0  0  0  0  0  0  0
   45.9187   25.9716   48.0632 H   0  0  0  0  0  0  0  0  0  0  0  0
   44.9342   26.1610   46.6344 H   0  0  0  0  0  0  0  0  0  0  0  0
   46.8781   26.9656   45.6012 H   0  0  0  0  0  0  0  0  0  0  0  0
   47.7212   27.1164   47.1567 H   0  0  0  0  0  0  0  0  0  0  0  0
  1  2  2  0
  2  3  1  0
  4  3  1  0
  5  1  1  0
  5  4  2  0
  6 11  2  0
  7  6  1  0
  8  7  2  0
  8  9  1  0
  9 10  2  0
 10 11  1  0
 10  1  1  0
 12  4  1  0
 12 14  1  0
 13 12  2  0
 14 18  1  0
 14 15  1  0
 15 16  1  0
 17 16  1  0
 18 17  1  0
  6 19  1  0
  7 20  1  0
  8 21  1  0
 15 22  1  0
 15 23  1  0
 16 24  1  0
 16 25  1  0
 17 26  1  0
 17 27  1  0
 18 28  1  0
 18 29  1  0
M  ISO  8  19  14  20  14  21  14  22  13  23  13  24  13  25  13  26  13
M  ISO  3  27  13  28  13  29  13
M  END
>  <minimizedAffinity>  (1) 
-4.57690048

>  <minimizedRMSD>  (1) 
4.07834101

$$$$
