
     RDKit          3D

 23 25  0  0  0  0  0  0  0  0999 V2000
   44.0950   33.3910   40.6630 C   0  0  0  0  0  0  0  0  0  0  0  0
   44.5860   32.1310   40.6000 N   0  0  0  0  0  0  0  0  0  0  0  0
   45.8720   32.1770   40.3320 O   0  0  0  0  0  0  0  0  0  0  0  0
   46.2540   33.4090   40.2150 C   0  0  0  0  0  0  0  0  0  0  0  0
   45.1650   34.1630   40.4180 N   0  0  0  0  0  0  0  0  0  0  0  0
   41.3560   35.7430   41.1470 C   0  0  0  0  0  0  0  0  0  0  0  0
   40.2370   34.9180   41.3780 C   0  0  0  0  0  0  0  0  0  0  0  0
   40.4570   33.5390   41.3660 C   0  0  0  0  0  0  0  0  0  0  0  0
   41.7010   33.0650   41.1360 N   0  0  0  0  0  0  0  0  0  0  0  0
   42.7460   33.8810   40.9180 C   0  0  0  0  0  0  0  0  0  0  0  0
   42.5770   35.2190   40.9220 N   0  0  0  0  0  0  0  0  0  0  0  0
   47.5870   33.9020   39.9230 C   0  0  0  0  0  0  0  0  0  0  0  0
   47.8680   34.3090   38.7920 O   0  0  0  0  0  0  0  0  0  0  0  0
   48.6740   33.9510   40.9320 C   0  0  0  0  0  0  0  0  0  0  0  0
   49.4560   32.8040   41.0830 C   0  0  0  0  0  0  0  0  0  0  0  0
   50.6270   33.3540   42.4120 S   0  0  0  0  0  0  0  0  0  0  0  0
   49.8130   35.0670   42.5060 C   0  0  0  0  0  0  0  0  0  0  0  0
   48.8760   35.0390   41.6420 N   0  0  0  0  0  0  0  0  0  0  0  0
   41.2303   36.8358   41.1504 H   0  0  0  0  0  0  0  0  0  0  0  0
   39.2376   35.3403   41.5592 H   0  0  0  0  0  0  0  0  0  0  0  0
   39.6232   32.8436   41.5426 H   0  0  0  0  0  0  0  0  0  0  0  0
   49.3944   31.8393   40.5580 H   0  0  0  0  0  0  0  0  0  0  0  0
   50.0903   35.9035   43.1643 H   0  0  0  0  0  0  0  0  0  0  0  0
  1 10  1  0
  2  1  2  0
  3  2  1  0
  4  3  1  0
  4  5  2  0
  5  1  1  0
  6  7  2  0
  8  7  1  0
  9  8  2  0
 10 11  2  0
 10  9  1  0
 11  6  1  0
 12  4  1  0
 12 14  1  0
 13 12  2  0
 14 15  2  0
 14 18  1  0
 15 16  1  0
 16 17  1  0
 18 17  2  0
  6 19  1  0
  7 20  1  0
  8 21  1  0
 15 22  1  0
 17 23  1  0
M  ISO  5  19  14  20  14  21  14  22  14  23  14
M  END
>  <minimizedAffinity>  (1) 
-4.17775011

>  <minimizedRMSD>  (1) 
8.17420483

$$$$
