
     RDKit          3D

 34 36  0  0  0  0  0  0  0  0999 V2000
   40.6190   36.1790   41.0460 C   0  0  0  0  0  0  0  0  0  0  0  0
   39.8640   35.4800   40.0960 C   0  0  0  0  0  0  0  0  0  0  0  0
   40.2770   34.2000   39.6870 C   0  0  0  0  0  0  0  0  0  0  0  0
   41.3990   33.7350   40.2570 N   0  0  0  0  0  0  0  0  0  0  0  0
   42.1170   34.3990   41.1600 C   0  0  0  0  0  0  0  0  0  0  0  0
   41.7180   35.6060   41.5390 N   0  0  0  0  0  0  0  0  0  0  0  0
   39.5480   33.4100   38.7050 C   0  0  0  0  0  0  0  0  0  0  0  0
   38.5500   33.8980   37.9130 C   0  0  0  0  0  0  0  0  0  0  0  0
   37.8510   33.1580   36.9790 C   0  0  0  0  0  0  0  0  0  0  0  0
   38.1960   31.8220   36.8430 C   0  0  0  0  0  0  0  0  0  0  0  0
   39.1960   31.2920   37.6220 C   0  0  0  0  0  0  0  0  0  0  0  0
   39.8680   32.0890   38.5510 C   0  0  0  0  0  0  0  0  0  0  0  0
   43.3420   33.8560   41.7630 C   0  0  0  0  0  0  0  0  0  0  0  0
   43.6520   32.6310   42.2340 N   0  0  0  0  0  0  0  0  0  0  0  0
   44.8770   32.6300   42.6800 O   0  0  0  0  0  0  0  0  0  0  0  0
   45.4030   33.8190   42.5250 C   0  0  0  0  0  0  0  0  0  0  0  0
   44.4540   34.5920   41.9530 N   0  0  0  0  0  0  0  0  0  0  0  0
   46.7470   34.1800   42.9100 C   0  0  0  0  0  0  0  0  0  0  0  0
   47.2760   33.7640   43.9260 O   0  0  0  0  0  0  0  0  0  0  0  0
   47.3560   35.0510   41.9900 N   0  0  0  0  0  0  0  0  0  0  0  0
   48.7410   35.2130   42.2500 C   0  0  0  0  0  0  0  0  0  0  0  0
   49.6180   34.7620   43.0280 N   0  0  0  0  0  0  0  0  0  0  0  0
   49.5770   36.1180   41.5130 N   0  0  0  0  0  0  0  0  0  0  0  0
   49.4910   33.9590   43.6370 H   0  0  0  0  0  0  0  0  0  0  0  0
   40.3117   37.1813   41.3792 H   0  0  0  0  0  0  0  0  0  0  0  0
   38.9537   35.9296   39.6726 H   0  0  0  0  0  0  0  0  0  0  0  0
   38.2822   34.9588   38.0265 H   0  0  0  0  0  0  0  0  0  0  0  0
   37.0546   33.6095   36.3692 H   0  0  0  0  0  0  0  0  0  0  0  0
   37.6706   31.1882   36.1135 H   0  0  0  0  0  0  0  0  0  0  0  0
   39.4692   30.2321   37.5130 H   0  0  0  0  0  0  0  0  0  0  0  0
   40.6656   31.6486   39.1674 H   0  0  0  0  0  0  0  0  0  0  0  0
   46.8561   35.5162   41.2189 H   0  0  0  0  0  0  0  0  0  0  0  0
   50.5779   36.1974   41.7427 H   0  0  0  0  0  0  0  0  0  0  0  0
   49.1759   36.6879   40.7546 H   0  0  0  0  0  0  0  0  0  0  0  0
  1  6  2  0
  2  1  1  0
  3  2  2  0
  3  4  1  0
  4  5  2  0
  5  6  1  0
  5 13  1  0
  7  3  1  0
  8  7  2  0
  9  8  1  0
 10  9  2  0
 10 11  1  0
 11 12  2  0
 12  7  1  0
 13 17  1  0
 13 14  2  0
 14 15  1  0
 16 15  1  0
 16 18  1  0
 17 16  2  0
 18 19  2  0
 20 21  1  0
 20 18  1  0
 21 22  2  0
 22 24  1  0
 23 21  1  0
  1 25  1  0
  2 26  1  0
  8 27  1  0
  9 28  1  0
 10 29  1  0
 11 30  1  0
 12 31  1  0
 20 32  1  0
 23 33  1  0
 23 34  1  0
M  ISO  7  25  14  26  14  27  14  28  14  29  14  30  14  31  14
M  END
>  <minimizedAffinity>  (1) 
-6.56472111

>  <minimizedRMSD>  (1) 
0.196723074

$$$$
