
     RDKit          3D

 33 34  0  0  0  0  0  0  0  0999 V2000
   43.3360   33.7970   41.7350 C   0  0  0  0  0  0  0  0  0  0  0  0
   43.6350   32.5920   42.2740 N   0  0  0  0  0  0  0  0  0  0  0  0
   44.8530   32.6170   42.7470 O   0  0  0  0  0  0  0  0  0  0  0  0
   45.3780   33.7980   42.5410 C   0  0  0  0  0  0  0  0  0  0  0  0
   44.4370   34.5380   41.9110 N   0  0  0  0  0  0  0  0  0  0  0  0
   46.7160   34.1920   42.9320 C   0  0  0  0  0  0  0  0  0  0  0  0
   47.2590   33.7680   43.9370 O   0  0  0  0  0  0  0  0  0  0  0  0
   47.2960   35.1000   42.0320 N   0  0  0  0  0  0  0  0  0  0  0  0
   48.6920   35.2460   42.2510 C   0  0  0  0  0  0  0  0  0  0  0  0
   49.5760   34.8110   43.0360 N   0  0  0  0  0  0  0  0  0  0  0  0
   49.5280   36.0930   41.4450 N   0  0  0  0  0  0  0  0  0  0  0  0
   49.4670   33.9780   43.6060 H   0  0  0  0  0  0  0  0  0  0  0  0
   40.6140   36.0710   40.9050 C   0  0  0  0  0  0  0  0  0  0  0  0
   39.8530   35.3260   39.9670 C   0  0  0  0  0  0  0  0  0  0  0  0
   40.2870   34.0120   39.6130 C   0  0  0  0  0  0  0  0  0  0  0  0
   41.4170   33.5610   40.2070 N   0  0  0  0  0  0  0  0  0  0  0  0
   42.1140   34.2810   41.0860 C   0  0  0  0  0  0  0  0  0  0  0  0
   41.7040   35.5010   41.4100 N   0  0  0  0  0  0  0  0  0  0  0  0
   39.5000   33.2470   38.6460 C   0  0  0  0  0  0  0  0  0  0  0  0
   38.3760   32.4920   39.3600 C   0  0  0  0  0  0  0  0  0  0  0  0
   38.8370   34.2150   37.7030 C   0  0  0  0  0  0  0  0  0  0  0  0
   46.7719   35.6006   41.3002 H   0  0  0  0  0  0  0  0  0  0  0  0
   50.5357   36.1636   41.6460 H   0  0  0  0  0  0  0  0  0  0  0  0
   49.1194   36.6294   40.6664 H   0  0  0  0  0  0  0  0  0  0  0  0
   40.3123   37.0856   41.2042 H   0  0  0  0  0  0  0  0  0  0  0  0
   38.9435   35.7536   39.5197 H   0  0  0  0  0  0  0  0  0  0  0  0
   40.1650   32.5442   38.1227 H   0  0  0  0  0  0  0  0  0  0  0  0
   38.5083   32.5809   40.4484 H   0  0  0  0  0  0  0  0  0  0  0  0
   37.4052   32.9218   39.0723 H   0  0  0  0  0  0  0  0  0  0  0  0
   38.4068   31.4307   39.0723 H   0  0  0  0  0  0  0  0  0  0  0  0
   38.3084   34.9868   38.2817 H   0  0  0  0  0  0  0  0  0  0  0  0
   39.6001   34.6903   37.0691 H   0  0  0  0  0  0  0  0  0  0  0  0
   38.1181   33.6753   37.0691 H   0  0  0  0  0  0  0  0  0  0  0  0
  1  5  1  0
  1  2  2  0
  2  3  1  0
  4  3  1  0
  4  6  1  0
  5  4  2  0
  6  7  2  0
  8  9  1  0
  8  6  1  0
  9 10  2  0
 10 12  1  0
 11  9  1  0
 13 18  2  0
 14 13  1  0
 15 14  2  0
 15 16  1  0
 16 17  2  0
 17 18  1  0
 17  1  1  0
 19 20  1  0
 19 15  1  0
 21 19  1  0
  8 22  1  0
 11 23  1  0
 11 24  1  0
 13 25  1  0
 14 26  1  0
 19 27  1  0
 20 28  1  0
 20 29  1  0
 20 30  1  0
 21 31  1  0
 21 32  1  0
 21 33  1  0
M  ISO  8  25  14  26  14  27   8  28   8  29   8  30   8  31   8  32   8
M  ISO  1  33   8
M  END
>  <minimizedAffinity>  (1) 
-5.85717535

>  <minimizedRMSD>  (1) 
0.208745077

$$$$
