
     RDKit          3D

 44 47  0  0  1  0  0  0  0  0999 V2000
   40.8030   35.9260   40.9920 C   0  0  0  0  0  0  0  0  0  0  0  0
   40.2420   35.2750   39.8660 C   0  0  0  0  0  0  0  0  0  0  0  0
   40.8600   34.1120   39.3850 C   0  0  0  0  0  0  0  0  0  0  0  0
   41.9530   33.6480   39.9950 N   0  0  0  0  0  0  0  0  0  0  0  0
   42.4690   34.2940   41.0740 C   0  0  0  0  0  0  0  0  0  0  0  0
   41.9040   35.4210   41.5710 N   0  0  0  0  0  0  0  0  0  0  0  0
   40.3000   33.4130   38.2290 C   0  0  2  0  0  0  0  0  0  0  0  0
   39.0990   34.0070   37.6270 C   0  0  0  0  0  0  0  0  0  0  0  0
   37.9240   33.3320   38.3170 C   0  0  0  0  0  0  0  0  0  0  0  0
   38.4250   31.9520   38.6500 C   0  0  0  0  0  0  0  0  0  0  0  0
   39.9090   31.9850   38.4740 C   0  0  1  0  0  0  0  0  0  0  0  0
   40.4230   31.0580   37.4780 C   0  0  0  0  0  0  0  0  0  0  0  0
   39.9300   30.1340   36.6460 C   0  0  0  0  0  0  0  0  0  0  0  0
   40.7280   29.4190   35.8120 C   0  0  0  0  0  0  0  0  0  0  0  0
   42.1160   29.7110   35.8770 C   0  0  0  0  0  0  0  0  0  0  0  0
   42.2490   31.0690   37.1960 S   0  0  0  0  0  0  0  0  0  0  0  0
   43.6620   33.8130   41.7830 C   0  0  0  0  0  0  0  0  0  0  0  0
   43.9020   32.6700   42.4560 N   0  0  0  0  0  0  0  0  0  0  0  0
   45.1170   32.6730   42.9300 O   0  0  0  0  0  0  0  0  0  0  0  0
   45.7140   33.8000   42.5930 C   0  0  0  0  0  0  0  0  0  0  0  0
   44.8030   34.5100   41.8750 N   0  0  0  0  0  0  0  0  0  0  0  0
   47.0650   34.1470   42.9440 C   0  0  0  0  0  0  0  0  0  0  0  0
   47.6960   33.6020   43.8170 O   0  0  0  0  0  0  0  0  0  0  0  0
   47.5520   35.1870   42.1560 N   0  0  0  0  0  0  0  0  0  0  0  0
   48.9500   35.4120   42.3230 C   0  0  0  0  0  0  0  0  0  0  0  0
   49.8740   34.9410   43.0490 N   0  0  0  0  0  0  0  0  0  0  0  0
   49.7090   36.3670   41.5810 N   0  0  0  0  0  0  0  0  0  0  0  0
   49.8680   33.9670   43.3620 H   0  0  0  0  0  0  0  0  0  0  0  0
   40.3390   36.8405   41.3899 H   0  0  0  0  0  0  0  0  0  0  0  0
   39.3399   35.6737   39.3789 H   0  0  0  0  0  0  0  0  0  0  0  0
   41.1637   33.4989   37.5533 H   0  0  0  0  0  0  0  0  0  0  0  0
   39.0769   35.0925   37.8036 H   0  0  0  0  0  0  0  0  0  0  0  0
   39.0726   33.8596   36.5372 H   0  0  0  0  0  0  0  0  0  0  0  0
   37.6455   33.8758   39.2317 H   0  0  0  0  0  0  0  0  0  0  0  0
   37.0242   33.3092   37.6846 H   0  0  0  0  0  0  0  0  0  0  0  0
   38.1712   31.6962   39.6893 H   0  0  0  0  0  0  0  0  0  0  0  0
   37.9642   31.1939   37.9996 H   0  0  0  0  0  0  0  0  0  0  0  0
   40.3864   31.6169   39.3941 H   0  0  0  0  0  0  0  0  0  0  0  0
   38.8459   29.9478   36.6372 H   0  0  0  0  0  0  0  0  0  0  0  0
   40.3235   28.6592   35.1271 H   0  0  0  0  0  0  0  0  0  0  0  0
   42.9297   29.2538   35.2949 H   0  0  0  0  0  0  0  0  0  0  0  0
   46.9616   35.7382   41.5168 H   0  0  0  0  0  0  0  0  0  0  0  0
   50.7181   36.4727   41.7583 H   0  0  0  0  0  0  0  0  0  0  0  0
   49.2474   36.9502   40.8685 H   0  0  0  0  0  0  0  0  0  0  0  0
  1  6  2  0
  2  1  1  0
  3  2  2  0
  3  4  1  0
  4  5  2  0
  5  6  1  0
  5 17  1  0
  7 11  1  0
  7  3  1  0
  8  7  1  0
  8  9  1  0
  9 10  1  0
 11 10  1  0
 12 11  1  0
 13 12  2  0
 14 15  2  0
 14 13  1  0
 15 16  1  0
 16 12  1  0
 17 21  1  0
 17 18  2  0
 18 19  1  0
 20 19  1  0
 20 22  1  0
 21 20  2  0
 22 23  2  0
 24 25  1  0
 24 22  1  0
 25 26  2  0
 26 28  1  0
 27 25  1  0
  1 29  1  0
  2 30  1  0
  7 31  1  6
  8 32  1  0
  8 33  1  0
  9 34  1  0
  9 35  1  0
 10 36  1  0
 10 37  1  0
 11 38  1  1
 13 39  1  0
 14 40  1  0
 15 41  1  0
 24 42  1  0
 27 43  1  0
 27 44  1  0
M  ISO  8  29  14  30  14  31  13  32  13  33  13  34  13  35  13  36  13
M  ISO  5  37  13  38  13  39  14  40  14  41  14
M  END
>  <minimizedAffinity>  (1) 
-6.66596603

>  <minimizedRMSD>  (1) 
0.701172292

$$$$
