
     RDKit          3D

 40 42  0  0  1  0  0  0  0  0999 V2000
   40.6180   35.8340   41.1900 C   0  0  0  0  0  0  0  0  0  0  0  0
   40.1370   35.3070   39.9660 C   0  0  0  0  0  0  0  0  0  0  0  0
   40.8500   34.2740   39.3560 C   0  0  0  0  0  0  0  0  0  0  0  0
   41.9520   33.8310   39.9550 N   0  0  0  0  0  0  0  0  0  0  0  0
   42.3980   34.3380   41.1170 C   0  0  0  0  0  0  0  0  0  0  0  0
   41.7390   35.3350   41.7350 N   0  0  0  0  0  0  0  0  0  0  0  0
   40.3790   33.7020   38.0930 C   0  0  2  0  0  0  0  0  0  0  0  0
   39.2280   34.3720   37.4680 C   0  0  0  0  0  0  0  0  0  0  0  0
   37.9940   33.6590   37.9960 C   0  0  0  0  0  0  0  0  0  0  0  0
   38.4440   32.2440   38.2380 C   0  0  0  0  0  0  0  0  0  0  0  0
   39.9470   32.2740   38.1410 C   0  0  2  0  0  0  0  0  0  0  0  0
   40.6450   31.4280   39.1090 C   0  0  0  0  0  0  0  0  0  0  0  0
   41.6900   30.7690   38.8060 O   0  0  0  0  0  0  0  0  0  0  0  0
   40.1440   31.3500   40.3920 O   0  0  0  0  0  0  0  0  0  0  0  0
   43.6080   33.8460   41.7900 C   0  0  0  0  0  0  0  0  0  0  0  0
   43.8850   32.6710   42.3860 N   0  0  0  0  0  0  0  0  0  0  0  0
   45.1040   32.6770   42.8580 O   0  0  0  0  0  0  0  0  0  0  0  0
   45.6640   33.8430   42.5910 C   0  0  0  0  0  0  0  0  0  0  0  0
   44.7250   34.5760   41.9210 N   0  0  0  0  0  0  0  0  0  0  0  0
   47.0050   34.2070   42.9620 C   0  0  0  0  0  0  0  0  0  0  0  0
   47.6060   33.7300   43.8920 O   0  0  0  0  0  0  0  0  0  0  0  0
   47.5270   35.1800   42.1140 N   0  0  0  0  0  0  0  0  0  0  0  0
   48.9230   35.4040   42.3060 C   0  0  0  0  0  0  0  0  0  0  0  0
   49.8360   34.9380   43.0390 N   0  0  0  0  0  0  0  0  0  0  0  0
   49.6920   36.3630   41.5780 N   0  0  0  0  0  0  0  0  0  0  0  0
   49.7980   33.9980   43.4340 H   0  0  0  0  0  0  0  0  0  0  0  0
   40.0753   36.6487   41.6918 H   0  0  0  0  0  0  0  0  0  0  0  0
   39.2201   35.7040   39.5058 H   0  0  0  0  0  0  0  0  0  0  0  0
   41.3040   33.8384   37.5136 H   0  0  0  0  0  0  0  0  0  0  0  0
   39.2819   34.2833   36.3729 H   0  0  0  0  0  0  0  0  0  0  0  0
   39.2072   35.4456   37.7065 H   0  0  0  0  0  0  0  0  0  0  0  0
   37.6496   34.1219   38.9325 H   0  0  0  0  0  0  0  0  0  0  0  0
   37.1499   33.7125   37.2927 H   0  0  0  0  0  0  0  0  0  0  0  0
   38.1305   31.9070   39.2371 H   0  0  0  0  0  0  0  0  0  0  0  0
   38.0033   31.5469   37.5101 H   0  0  0  0  0  0  0  0  0  0  0  0
   40.2592   31.7900   37.2038 H   0  0  0  0  0  0  0  0  0  0  0  0
   40.5971   30.7848   41.0668 H   0  0  0  0  0  0  0  0  0  0  0  0
   46.9621   35.6872   41.4179 H   0  0  0  0  0  0  0  0  0  0  0  0
   50.6981   36.4698   41.7709 H   0  0  0  0  0  0  0  0  0  0  0  0
   49.2403   36.9476   40.8603 H   0  0  0  0  0  0  0  0  0  0  0  0
  1  6  2  0
  2  1  1  0
  3  4  1  0
  3  2  2  0
  4  5  2  0
  5  6  1  0
  5 15  1  0
  7 11  1  0
  7  3  1  0
  8  9  1  0
  8  7  1  0
  9 10  1  0
 11 10  1  0
 11 12  1  0
 12 14  1  0
 13 12  2  0
 15 19  1  0
 15 16  2  0
 16 17  1  0
 18 17  1  0
 18 20  1  0
 19 18  2  0
 20 21  2  0
 22 23  1  0
 22 20  1  0
 23 24  2  0
 24 26  1  0
 25 23  1  0
  1 27  1  0
  2 28  1  0
  7 29  1  6
  8 30  1  0
  8 31  1  0
  9 32  1  0
  9 33  1  0
 10 34  1  0
 10 35  1  0
 11 36  1  6
 14 37  1  0
 22 38  1  0
 25 39  1  0
 25 40  1  0
M  ISO  8  27  14  28  14  29  13  30  13  31  13  32  13  33  13  34  13
M  ISO  3  35  13  36  13  37   3
M  END
>  <minimizedAffinity>  (1) 
-6.46862793

>  <minimizedRMSD>  (1) 
0.405608326

$$$$
