
     RDKit          3D

 40 42  0  0  1  0  0  0  0  0999 V2000
   40.8030   35.9540   40.9520 C   0  0  0  0  0  0  0  0  0  0  0  0
   40.2430   35.2870   39.8590 C   0  0  0  0  0  0  0  0  0  0  0  0
   40.8390   34.0900   39.4050 C   0  0  0  0  0  0  0  0  0  0  0  0
   41.9220   33.6290   40.0360 N   0  0  0  0  0  0  0  0  0  0  0  0
   42.4400   34.3050   41.0980 C   0  0  0  0  0  0  0  0  0  0  0  0
   41.8890   35.4570   41.5550 N   0  0  0  0  0  0  0  0  0  0  0  0
   40.2580   33.3700   38.2720 C   0  0  2  0  0  0  0  0  0  0  0  0
   39.0480   33.9590   37.6770 C   0  0  0  0  0  0  0  0  0  0  0  0
   37.8680   33.3280   38.4010 C   0  0  0  0  0  0  0  0  0  0  0  0
   38.3500   31.9530   38.7740 C   0  0  0  0  0  0  0  0  0  0  0  0
   39.8310   31.9630   38.5700 C   0  0  1  0  0  0  0  0  0  0  0  0
   40.2810   30.9790   37.5260 C   0  0  0  0  0  0  0  0  0  0  0  0
   39.3360   30.7570   36.5510 F   0  0  0  0  0  0  0  0  0  0  0  0
   41.4730   31.4130   37.0240 F   0  0  0  0  0  0  0  0  0  0  0  0
   40.4720   29.7580   38.1790 F   0  0  0  0  0  0  0  0  0  0  0  0
   43.6410   33.8210   41.8200 C   0  0  0  0  0  0  0  0  0  0  0  0
   43.8940   32.6920   42.4800 N   0  0  0  0  0  0  0  0  0  0  0  0
   45.1110   32.7100   42.9610 O   0  0  0  0  0  0  0  0  0  0  0  0
   45.6900   33.8490   42.6300 C   0  0  0  0  0  0  0  0  0  0  0  0
   44.7720   34.5480   41.9150 N   0  0  0  0  0  0  0  0  0  0  0  0
   47.0350   34.2130   42.9900 C   0  0  0  0  0  0  0  0  0  0  0  0
   47.6360   33.7090   43.9160 O   0  0  0  0  0  0  0  0  0  0  0  0
   47.5530   35.1990   42.1580 N   0  0  0  0  0  0  0  0  0  0  0  0
   48.9390   35.3960   42.3290 C   0  0  0  0  0  0  0  0  0  0  0  0
   49.8790   34.9380   43.0380 N   0  0  0  0  0  0  0  0  0  0  0  0
   49.7200   36.3580   41.5930 N   0  0  0  0  0  0  0  0  0  0  0  0
   49.7890   34.1240   43.6070 H   0  0  0  0  0  0  0  0  0  0  0  0
   40.3507   36.8880   41.3167 H   0  0  0  0  0  0  0  0  0  0  0  0
   39.3496   35.6892   39.3589 H   0  0  0  0  0  0  0  0  0  0  0  0
   41.1153   33.4247   37.5849 H   0  0  0  0  0  0  0  0  0  0  0  0
   39.0446   35.0496   37.8208 H   0  0  0  0  0  0  0  0  0  0  0  0
   39.0013   33.7701   36.5943 H   0  0  0  0  0  0  0  0  0  0  0  0
   37.6082   33.9065   39.2998 H   0  0  0  0  0  0  0  0  0  0  0  0
   36.9609   33.3001   37.7794 H   0  0  0  0  0  0  0  0  0  0  0  0
   38.1110   31.7370   39.8258 H   0  0  0  0  0  0  0  0  0  0  0  0
   37.8654   31.1778   38.1623 H   0  0  0  0  0  0  0  0  0  0  0  0
   40.3268   31.6257   39.4922 H   0  0  0  0  0  0  0  0  0  0  0  0
   46.9828   35.7313   41.4854 H   0  0  0  0  0  0  0  0  0  0  0  0
   50.7305   36.4461   41.7720 H   0  0  0  0  0  0  0  0  0  0  0  0
   49.2677   36.9574   40.8880 H   0  0  0  0  0  0  0  0  0  0  0  0
  1  6  2  0
  2  1  1  0
  3  2  2  0
  3  4  1  0
  4  5  2  0
  5  6  1  0
  5 16  1  0
  7 11  1  0
  7  3  1  0
  8  7  1  0
  8  9  1  0
  9 10  1  0
 11 10  1  0
 12 15  1  0
 12 11  1  0
 13 12  1  0
 14 12  1  0
 16 20  1  0
 16 17  2  0
 17 18  1  0
 19 18  1  0
 19 21  1  0
 20 19  2  0
 21 22  2  0
 23 24  1  0
 23 21  1  0
 24 25  2  0
 25 27  1  0
 26 24  1  0
  1 28  1  0
  2 29  1  0
  7 30  1  6
  8 31  1  0
  8 32  1  0
  9 33  1  0
  9 34  1  0
 10 35  1  0
 10 36  1  0
 11 37  1  1
 23 38  1  0
 26 39  1  0
 26 40  1  0
M  ISO  8  28  14  29  14  30  13  31  13  32  13  33  13  34  13  35  13
M  ISO  2  36  13  37  13
M  END
>  <minimizedAffinity>  (1) 
-6.43801689

>  <minimizedRMSD>  (1) 
0.651401997

$$$$
