
     RDKit          3D

 44 47  0  0  1  0  0  0  0  0999 V2000
   40.7790   35.9400   41.0130 C   0  0  0  0  0  0  0  0  0  0  0  0
   40.2420   35.3230   39.8760 C   0  0  0  0  0  0  0  0  0  0  0  0
   40.8610   34.1750   39.3610 C   0  0  0  0  0  0  0  0  0  0  0  0
   41.9550   33.6920   39.9700 N   0  0  0  0  0  0  0  0  0  0  0  0
   42.4500   34.3160   41.0740 C   0  0  0  0  0  0  0  0  0  0  0  0
   41.8740   35.4280   41.5940 N   0  0  0  0  0  0  0  0  0  0  0  0
   40.3050   33.5110   38.1820 C   0  0  2  0  0  0  0  0  0  0  0  0
   39.0750   34.0860   37.6280 C   0  0  0  0  0  0  0  0  0  0  0  0
   37.9230   33.3580   38.3000 C   0  0  0  0  0  0  0  0  0  0  0  0
   38.4630   31.9790   38.5580 C   0  0  0  0  0  0  0  0  0  0  0  0
   39.9430   32.0680   38.3840 C   0  0  1  0  0  0  0  0  0  0  0  0
   40.4840   31.2130   37.2900 C   0  0  0  0  0  0  0  0  0  0  0  0
   39.9590   29.8810   36.9790 C   0  0  0  0  0  0  0  0  0  0  0  0
   41.2240   29.9310   37.7440 C   0  0  0  0  0  0  0  0  0  0  0  0
   43.6500   33.8160   41.7780 C   0  0  0  0  0  0  0  0  0  0  0  0
   43.8940   32.6660   42.4300 N   0  0  0  0  0  0  0  0  0  0  0  0
   45.1130   32.6670   42.9010 O   0  0  0  0  0  0  0  0  0  0  0  0
   45.7040   33.8030   42.5800 C   0  0  0  0  0  0  0  0  0  0  0  0
   44.7880   34.5280   41.8740 N   0  0  0  0  0  0  0  0  0  0  0  0
   47.0550   34.1500   42.9340 C   0  0  0  0  0  0  0  0  0  0  0  0
   47.6760   33.6230   43.8250 O   0  0  0  0  0  0  0  0  0  0  0  0
   47.5530   35.1670   42.1230 N   0  0  0  0  0  0  0  0  0  0  0  0
   48.9520   35.4010   42.3090 C   0  0  0  0  0  0  0  0  0  0  0  0
   49.8680   34.9320   43.0360 N   0  0  0  0  0  0  0  0  0  0  0  0
   49.7090   36.3710   41.5880 N   0  0  0  0  0  0  0  0  0  0  0  0
   49.8540   33.9650   43.3750 H   0  0  0  0  0  0  0  0  0  0  0  0
   40.3043   36.8414   41.4280 H   0  0  0  0  0  0  0  0  0  0  0  0
   39.3440   35.7347   39.3921 H   0  0  0  0  0  0  0  0  0  0  0  0
   41.1553   33.6509   37.4983 H   0  0  0  0  0  0  0  0  0  0  0  0
   39.0252   35.1626   37.8480 H   0  0  0  0  0  0  0  0  0  0  0  0
   39.0371   33.9708   36.5347 H   0  0  0  0  0  0  0  0  0  0  0  0
   37.6458   33.8518   39.2430 H   0  0  0  0  0  0  0  0  0  0  0  0
   37.0126   33.3468   37.6828 H   0  0  0  0  0  0  0  0  0  0  0  0
   38.2186   31.6599   39.5819 H   0  0  0  0  0  0  0  0  0  0  0  0
   38.0235   31.2427   37.8690 H   0  0  0  0  0  0  0  0  0  0  0  0
   40.4125   31.6706   39.2960 H   0  0  0  0  0  0  0  0  0  0  0  0
   40.6698   32.1009   36.6679 H   0  0  0  0  0  0  0  0  0  0  0  0
   39.0411   29.5328   37.4751 H   0  0  0  0  0  0  0  0  0  0  0  0
   39.6588   29.3850   36.0442 H   0  0  0  0  0  0  0  0  0  0  0  0
   42.1725   29.6391   37.2695 H   0  0  0  0  0  0  0  0  0  0  0  0
   41.5864   29.5241   38.6996 H   0  0  0  0  0  0  0  0  0  0  0  0
   46.9729   35.6968   41.4569 H   0  0  0  0  0  0  0  0  0  0  0  0
   50.7154   36.4830   41.7767 H   0  0  0  0  0  0  0  0  0  0  0  0
   49.2494   36.9596   40.8786 H   0  0  0  0  0  0  0  0  0  0  0  0
  1  6  2  0
  2  1  1  0
  3  2  2  0
  3  4  1  0
  4  5  2  0
  5  6  1  0
  5 15  1  0
  7 11  1  0
  7  3  1  0
  8  7  1  0
  8  9  1  0
  9 10  1  0
 11 10  1  0
 12 14  1  0
 12 11  1  0
 13 12  1  0
 13 14  1  0
 15 19  1  0
 15 16  2  0
 16 17  1  0
 18 17  1  0
 18 20  1  0
 19 18  2  0
 20 21  2  0
 22 23  1  0
 22 20  1  0
 23 24  2  0
 24 26  1  0
 25 23  1  0
  1 27  1  0
  2 28  1  0
  7 29  1  6
  8 30  1  0
  8 31  1  0
  9 32  1  0
  9 33  1  0
 10 34  1  0
 10 35  1  0
 11 36  1  1
 12 37  1  0
 13 38  1  0
 13 39  1  0
 14 40  1  0
 14 41  1  0
 22 42  1  0
 25 43  1  0
 25 44  1  0
M  ISO  8  27  14  28  14  29  13  30  13  31  13  32  13  33  13  34  13
M  ISO  7  35  13  36  13  37  13  38  13  39  13  40  13  41  13
M  END
>  <minimizedAffinity>  (1) 
-6.33664608

>  <minimizedRMSD>  (1) 
0.503702044

$$$$
