
     RDKit          3D

 33 35  0  0  1  0  0  0  0  0999 V2000
   45.1670   33.1290   41.8390 C   0  0  1  0  0  0  0  0  0  0  0  0
   45.3300   33.8730   40.5290 C   0  0  0  0  0  0  0  0  0  0  0  0
   46.3750   32.9760   41.0660 C   0  0  1  0  0  0  0  0  0  0  0  0
   45.0420   33.9200   43.0810 C   0  0  0  0  0  0  0  0  0  0  0  0
   45.4900   33.3190   44.2660 C   0  0  0  0  0  0  0  0  0  0  0  0
   45.4000   34.0140   45.4630 C   0  0  0  0  0  0  0  0  0  0  0  0
   44.8760   35.2560   45.4200 N   0  0  0  0  0  0  0  0  0  0  0  0
   44.4490   35.8240   44.2790 C   0  0  0  0  0  0  0  0  0  0  0  0
   44.5350   35.1530   43.1270 N   0  0  0  0  0  0  0  0  0  0  0  0
   47.7170   33.5540   41.2420 C   0  0  0  0  0  0  0  0  0  0  0  0
   48.3850   33.1120   42.5530 C   0  0  0  0  0  0  0  0  0  0  0  0
   49.8080   33.6060   42.5310 C   0  0  0  0  0  0  0  0  0  0  0  0
   49.8510   35.1250   42.5260 C   0  0  0  0  0  0  0  0  0  0  0  0
   48.9180   35.7400   41.5150 C   0  0  0  0  0  0  0  0  0  0  0  0
   47.5840   35.0840   41.4110 C   0  0  0  0  0  0  0  0  0  0  0  0
   44.4804   32.3949   42.2858 H   0  0  0  0  0  0  0  0  0  0  0  0
   45.4812   34.9625   40.5228 H   0  0  0  0  0  0  0  0  0  0  0  0
   44.7637   33.9555   39.5896 H   0  0  0  0  0  0  0  0  0  0  0  0
   46.9075   32.0454   40.8200 H   0  0  0  0  0  0  0  0  0  0  0  0
   45.9102   32.3026   44.2465 H   0  0  0  0  0  0  0  0  0  0  0  0
   45.7423   33.5700   46.4094 H   0  0  0  0  0  0  0  0  0  0  0  0
   44.0291   36.8406   44.2938 H   0  0  0  0  0  0  0  0  0  0  0  0
   48.3013   33.2325   40.3672 H   0  0  0  0  0  0  0  0  0  0  0  0
   47.8508   33.5465   43.4108 H   0  0  0  0  0  0  0  0  0  0  0  0
   48.3589   32.0165   42.6485 H   0  0  0  0  0  0  0  0  0  0  0  0
   50.3332   33.2331   43.4227 H   0  0  0  0  0  0  0  0  0  0  0  0
   50.2959   33.2361   41.6172 H   0  0  0  0  0  0  0  0  0  0  0  0
   49.5705   35.4864   43.5264 H   0  0  0  0  0  0  0  0  0  0  0  0
   50.8738   35.4230   42.2520 H   0  0  0  0  0  0  0  0  0  0  0  0
   48.7603   36.7928   41.7919 H   0  0  0  0  0  0  0  0  0  0  0  0
   49.4003   35.6149   40.5343 H   0  0  0  0  0  0  0  0  0  0  0  0
   47.0506   35.4947   40.5410 H   0  0  0  0  0  0  0  0  0  0  0  0
   47.0289   35.2817   42.3398 H   0  0  0  0  0  0  0  0  0  0  0  0
  1  4  1  0
  2  3  1  0
  2  1  1  0
  3 10  1  0
  3  1  1  0
  4  9  1  0
  4  5  2  0
  5  6  1  0
  7  6  2  0
  8  7  1  0
  9  8  2  0
 10 15  1  0
 10 11  1  0
 12 11  1  0
 13 12  1  0
 14 13  1  0
 15 14  1  0
  1 16  1  6
  2 17  1  0
  2 18  1  0
  3 19  1  6
  5 20  1  0
  6 21  1  0
  8 22  1  0
 10 23  1  0
 11 24  1  0
 11 25  1  0
 12 26  1  0
 12 27  1  0
 13 28  1  0
 13 29  1  0
 14 30  1  0
 14 31  1  0
 15 32  1  0
 15 33  1  0
M  ISO  8  16  13  17  13  18  13  19  13  20  14  21  14  22  14  23  13
M  ISO  8  24  13  25  13  26  13  27  13  28  13  29  13  30  13  31  13
M  ISO  2  32  13  33  13
M  END
>  <minimizedAffinity>  (1) 
-4.96925783

>  <minimizedRMSD>  (1) 
2.95824575

$$$$
