
     RDKit          3D

 26 28  0  0  1  0  0  0  0  0999 V2000
   44.4340   35.1500   43.6750 C   0  0  1  0  0  0  0  0  0  0  0  0
   45.0570   36.3130   42.9480 C   0  0  0  0  0  0  0  0  0  0  0  0
   44.4540   35.1940   42.2060 C   0  0  2  0  0  0  0  0  0  0  0  0
   45.3060   34.2280   44.4340 C   0  0  0  0  0  0  0  0  0  0  0  0
   46.1960   33.4160   43.6870 C   0  0  0  0  0  0  0  0  0  0  0  0
   47.0440   32.5310   44.3670 C   0  0  0  0  0  0  0  0  0  0  0  0
   46.9680   32.4980   45.7200 N   0  0  0  0  0  0  0  0  0  0  0  0
   46.0950   33.2990   46.4000 C   0  0  0  0  0  0  0  0  0  0  0  0
   45.2790   34.1490   45.7570 N   0  0  0  0  0  0  0  0  0  0  0  0
   43.2150   35.2940   41.4230 C   0  0  0  0  0  0  0  0  0  0  0  0
   43.2630   35.0740   40.0630 C   0  0  0  0  0  0  0  0  0  0  0  0
   42.1190   35.1600   39.3010 C   0  0  0  0  0  0  0  0  0  0  0  0
   40.9060   35.4670   39.8770 C   0  0  0  0  0  0  0  0  0  0  0  0
   40.8970   35.6810   41.2420 C   0  0  0  0  0  0  0  0  0  0  0  0
   42.0160   35.5940   41.9730 N   0  0  0  0  0  0  0  0  0  0  0  0
   43.6439   35.0113   44.4277 H   0  0  0  0  0  0  0  0  0  0  0  0
   44.5664   37.2975   42.9578 H   0  0  0  0  0  0  0  0  0  0  0  0
   46.0400   36.8066   42.9578 H   0  0  0  0  0  0  0  0  0  0  0  0
   44.8228   34.5357   41.4057 H   0  0  0  0  0  0  0  0  0  0  0  0
   46.2208   33.4795   42.5891 H   0  0  0  0  0  0  0  0  0  0  0  0
   47.7474   31.8851   43.8211 H   0  0  0  0  0  0  0  0  0  0  0  0
   46.0600   33.2463   47.4982 H   0  0  0  0  0  0  0  0  0  0  0  0
   44.2217   34.8280   39.5830 H   0  0  0  0  0  0  0  0  0  0  0  0
   42.1747   34.9810   38.2171 H   0  0  0  0  0  0  0  0  0  0  0  0
   39.9864   35.5385   39.2776 H   0  0  0  0  0  0  0  0  0  0  0  0
   39.9482   35.9287   41.7403 H   0  0  0  0  0  0  0  0  0  0  0  0
  1  4  1  0
  2  1  1  0
  3  2  1  0
  3  1  1  0
  4  9  2  0
  5  6  2  0
  5  4  1  0
  6  7  1  0
  7  8  2  0
  9  8  1  0
 10 15  1  0
 10  3  1  0
 11 10  2  0
 12 13  2  0
 12 11  1  0
 13 14  1  0
 14 15  2  0
  1 16  1  1
  2 17  1  0
  2 18  1  0
  3 19  1  6
  5 20  1  0
  6 21  1  0
  8 22  1  0
 11 23  1  0
 12 24  1  0
 13 25  1  0
 14 26  1  0
M  ISO  8  16  13  17  13  18  13  19  13  20  14  21  14  22  14  23  14
M  ISO  3  24  14  25  14  26  14
M  END
>  <minimizedAffinity>  (1) 
-4.55564928

>  <minimizedRMSD>  (1) 
1.6000737

$$$$
