
     RDKit          3D

 29 31  0  0  1  0  0  0  0  0999 V2000
   44.7510   34.2910   43.4490 C   0  0  1  0  0  0  0  0  0  0  0  0
   45.1670   35.7250   43.2040 C   0  0  0  0  0  0  0  0  0  0  0  0
   45.2890   34.7000   42.1490 C   0  0  1  0  0  0  0  0  0  0  0  0
   45.5610   33.4600   44.3960 C   0  0  0  0  0  0  0  0  0  0  0  0
   46.1890   32.2820   43.9020 C   0  0  0  0  0  0  0  0  0  0  0  0
   46.9510   31.5470   44.8080 C   0  0  0  0  0  0  0  0  0  0  0  0
   47.0560   31.9800   46.0980 N   0  0  0  0  0  0  0  0  0  0  0  0
   46.4300   33.1190   46.5140 C   0  0  0  0  0  0  0  0  0  0  0  0
   45.6920   33.8470   45.6730 N   0  0  0  0  0  0  0  0  0  0  0  0
   46.6360   34.3790   41.7670 N   0  0  0  0  0  0  0  0  0  0  0  0
   47.5350   35.4610   42.0490 C   0  0  0  0  0  0  0  0  0  0  0  0
   48.8060   35.1400   41.2660 C   0  0  0  0  0  0  0  0  0  0  0  0
   48.2860   34.3380   40.0900 C   0  0  0  0  0  0  0  0  0  0  0  0
   46.8240   34.1790   40.3580 C   0  0  0  0  0  0  0  0  0  0  0  0
   43.8366   33.7715   43.7713 H   0  0  0  0  0  0  0  0  0  0  0  0
   44.4067   36.5157   43.1223 H   0  0  0  0  0  0  0  0  0  0  0  0
   45.8497   36.4385   43.6886 H   0  0  0  0  0  0  0  0  0  0  0  0
   44.9151   34.5530   41.1250 H   0  0  0  0  0  0  0  0  0  0  0  0
   46.0780   31.9666   42.8540 H   0  0  0  0  0  0  0  0  0  0  0  0
   47.4624   30.6276   44.4869 H   0  0  0  0  0  0  0  0  0  0  0  0
   46.5353   33.4427   47.5600 H   0  0  0  0  0  0  0  0  0  0  0  0
   47.1059   36.4165   41.7130 H   0  0  0  0  0  0  0  0  0  0  0  0
   47.7307   35.5626   43.1267 H   0  0  0  0  0  0  0  0  0  0  0  0
   49.3054   36.0599   40.9278 H   0  0  0  0  0  0  0  0  0  0  0  0
   49.5580   34.6009   41.8608 H   0  0  0  0  0  0  0  0  0  0  0  0
   48.7805   33.3567   40.0403 H   0  0  0  0  0  0  0  0  0  0  0  0
   48.4819   34.8340   39.1279 H   0  0  0  0  0  0  0  0  0  0  0  0
   46.2514   34.9268   39.7897 H   0  0  0  0  0  0  0  0  0  0  0  0
   46.4726   33.1830   40.0506 H   0  0  0  0  0  0  0  0  0  0  0  0
  1  4  1  0
  2  1  1  0
  3  2  1  0
  3  1  1  0
  4  9  1  0
  5  4  2  0
  5  6  1  0
  6  7  2  0
  7  8  1  0
  9  8  2  0
 10 11  1  0
 10  3  1  0
 12 11  1  0
 13 14  1  0
 13 12  1  0
 14 10  1  0
  1 15  1  6
  2 16  1  0
  2 17  1  0
  3 18  1  6
  5 19  1  0
  6 20  1  0
  8 21  1  0
 11 22  1  0
 11 23  1  0
 12 24  1  0
 12 25  1  0
 13 26  1  0
 13 27  1  0
 14 28  1  0
 14 29  1  0
M  ISO  8  15  13  16  13  17  13  18  13  19  14  20  14  21  14  22  13
M  ISO  7  23  13  24  13  25  13  26  13  27  13  28  13  29  13
M  END
>  <minimizedAffinity>  (1) 
-3.96687269

>  <minimizedRMSD>  (1) 
1.61537504

$$$$
