
     RDKit          3D

 30 32  0  0  1  0  0  0  0  0999 V2000
   46.7180   33.3630   44.5520 C   0  0  1  0  0  0  0  0  0  0  0  0
   45.7470   32.1980   44.5200 C   0  0  0  0  0  0  0  0  0  0  0  0
   47.0980   32.0540   45.0920 C   0  0  2  0  0  0  0  0  0  0  0  0
   47.2960   33.8160   43.2380 C   0  0  0  0  0  0  0  0  0  0  0  0
   48.6920   33.6670   43.0190 C   0  0  0  0  0  0  0  0  0  0  0  0
   49.1990   34.0780   41.7930 C   0  0  0  0  0  0  0  0  0  0  0  0
   48.3390   34.5960   40.8750 N   0  0  0  0  0  0  0  0  0  0  0  0
   47.0030   34.7190   41.1320 C   0  0  0  0  0  0  0  0  0  0  0  0
   46.4870   34.3350   42.2960 N   0  0  0  0  0  0  0  0  0  0  0  0
   47.1800   31.7190   46.4580 N   0  0  0  0  0  0  0  0  0  0  0  0
   46.7280   30.4300   46.8520 C   0  0  0  0  0  0  0  0  0  0  0  0
   47.0740   30.2530   48.3290 C   0  0  0  0  0  0  0  0  0  0  0  0
   46.4730   31.1770   49.1420 O   0  0  0  0  0  0  0  0  0  0  0  0
   45.9900   32.2900   48.4780 C   0  0  0  0  0  0  0  0  0  0  0  0
   46.8950   32.7710   47.3840 C   0  0  0  0  0  0  0  0  0  0  0  0
   46.7157   34.3890   44.9486 H   0  0  0  0  0  0  0  0  0  0  0  0
   44.8645   32.1946   45.1767 H   0  0  0  0  0  0  0  0  0  0  0  0
   45.1641   31.6824   43.7426 H   0  0  0  0  0  0  0  0  0  0  0  0
   47.9991   31.4470   44.9201 H   0  0  0  0  0  0  0  0  0  0  0  0
   49.3478   33.2413   43.7928 H   0  0  0  0  0  0  0  0  0  0  0  0
   50.2721   33.9867   41.5693 H   0  0  0  0  0  0  0  0  0  0  0  0
   46.3419   35.1434   40.3621 H   0  0  0  0  0  0  0  0  0  0  0  0
   45.6399   30.3539   46.7096 H   0  0  0  0  0  0  0  0  0  0  0  0
   47.2094   29.6488   46.2453 H   0  0  0  0  0  0  0  0  0  0  0  0
   46.7530   29.2493   48.6447 H   0  0  0  0  0  0  0  0  0  0  0  0
   48.1608   30.3914   48.4273 H   0  0  0  0  0  0  0  0  0  0  0  0
   45.0145   32.0368   48.0372 H   0  0  0  0  0  0  0  0  0  0  0  0
   45.9149   33.1013   49.2170 H   0  0  0  0  0  0  0  0  0  0  0  0
   47.8373   33.1266   47.8263 H   0  0  0  0  0  0  0  0  0  0  0  0
   46.3917   33.5871   46.8448 H   0  0  0  0  0  0  0  0  0  0  0  0
  1  3  1  0
  2  1  1  0
  2  3  1  0
  3 10  1  0
  4  1  1  0
  5  4  2  0
  6  5  1  0
  7  8  1  0
  7  6  2  0
  8  9  2  0
  9  4  1  0
 10 11  1  0
 10 15  1  0
 11 12  1  0
 12 13  1  0
 14 13  1  0
 15 14  1  0
  1 16  1  1
  2 17  1  0
  2 18  1  0
  3 19  1  6
  5 20  1  0
  6 21  1  0
  8 22  1  0
 11 23  1  0
 11 24  1  0
 12 25  1  0
 12 26  1  0
 14 27  1  0
 14 28  1  0
 15 29  1  0
 15 30  1  0
M  ISO  8  16  13  17  13  18  13  19  13  20  14  21  14  22  14  23  13
M  ISO  7  24  13  25  13  26  13  27  13  28  13  29  13  30  13
M  END
>  <minimizedAffinity>  (1) 
-3.74637318

>  <minimizedRMSD>  (1) 
6.85990572

$$$$
