
     RDKit          3D

 18 19  0  0  1  0  0  0  0  0999 V2000
   45.5410   33.7640   44.5950 C   0  0  0  0  0  0  0  0  0  0  0  0
   46.3340   32.8040   43.9120 C   0  0  0  0  0  0  0  0  0  0  0  0
   47.1190   31.9270   44.6530 C   0  0  0  0  0  0  0  0  0  0  0  0
   47.0890   32.0310   46.0120 N   0  0  0  0  0  0  0  0  0  0  0  0
   46.3160   32.9660   46.6360 C   0  0  0  0  0  0  0  0  0  0  0  0
   45.5470   33.8260   45.9180 N   0  0  0  0  0  0  0  0  0  0  0  0
   44.7100   34.6980   43.8000 C   0  0  1  0  0  0  0  0  0  0  0  0
   44.8270   36.1770   44.0540 C   0  0  0  0  0  0  0  0  0  0  0  0
   45.3120   35.5840   42.7950 C   0  0  1  0  0  0  0  0  0  0  0  0
   46.6990   35.5880   42.6490 O   0  0  0  0  0  0  0  0  0  0  0  0
   46.3275   32.7548   42.8131 H   0  0  0  0  0  0  0  0  0  0  0  0
   47.7459   31.1714   44.1569 H   0  0  0  0  0  0  0  0  0  0  0  0
   46.3152   33.0245   47.7344 H   0  0  0  0  0  0  0  0  0  0  0  0
   43.8970   33.9572   43.7836 H   0  0  0  0  0  0  0  0  0  0  0  0
   43.9275   36.8101   44.0561 H   0  0  0  0  0  0  0  0  0  0  0  0
   45.2655   36.8036   44.8446 H   0  0  0  0  0  0  0  0  0  0  0  0
   45.1207   35.7322   41.7219 H   0  0  0  0  0  0  0  0  0  0  0  0
   47.1249   35.5892   43.5427 H   0  0  0  0  0  0  0  0  0  0  0  0
  1  6  1  0
  2  1  2  0
  2  3  1  0
  3  4  2  0
  4  5  1  0
  6  5  2  0
  7  8  1  0
  7  1  1  0
  9  7  1  0
  9  8  1  0
 10  9  1  0
  2 11  1  0
  3 12  1  0
  5 13  1  0
  7 14  1  6
  8 15  1  0
  8 16  1  0
  9 17  1  6
 10 18  1  0
M  ISO  8  11  14  12  14  13  14  14  13  15  13  16  13  17  13  18   3
M  END
>  <minimizedAffinity>  (1) 
-3.06757307

>  <minimizedRMSD>  (1) 
0.385470659

$$$$
