
     RDKit          3D

 19 20  0  0  1  0  0  0  0  0999 V2000
   44.9380   34.4080   43.5870 C   0  0  1  0  0  0  0  0  0  0  0  0
   45.0280   35.9070   43.7020 C   0  0  0  0  0  0  0  0  0  0  0  0
   45.5990   35.2040   42.5440 C   0  0  1  0  0  0  0  0  0  0  0  0
   45.6810   33.5550   44.5290 C   0  0  0  0  0  0  0  0  0  0  0  0
   46.3460   32.4280   43.9770 C   0  0  0  0  0  0  0  0  0  0  0  0
   47.0350   31.5880   44.8620 C   0  0  0  0  0  0  0  0  0  0  0  0
   47.0270   31.8970   46.1930 N   0  0  0  0  0  0  0  0  0  0  0  0
   46.3700   32.9970   46.6640 C   0  0  0  0  0  0  0  0  0  0  0  0
   45.6990   33.8190   45.8230 N   0  0  0  0  0  0  0  0  0  0  0  0
   47.0180   35.2170   42.3550 N   0  0  0  0  0  0  0  0  0  0  0  0
   44.1381   33.6529   43.5820 H   0  0  0  0  0  0  0  0  0  0  0  0
   44.1260   36.5252   43.5831 H   0  0  0  0  0  0  0  0  0  0  0  0
   45.4086   36.6129   44.4549 H   0  0  0  0  0  0  0  0  0  0  0  0
   45.4767   35.2476   41.4517 H   0  0  0  0  0  0  0  0  0  0  0  0
   46.3212   32.2225   42.8967 H   0  0  0  0  0  0  0  0  0  0  0  0
   47.5700   30.7002   44.4937 H   0  0  0  0  0  0  0  0  0  0  0  0
   46.3859   33.2186   47.7413 H   0  0  0  0  0  0  0  0  0  0  0  0
   47.4865   35.2213   43.2723 H   0  0  0  0  0  0  0  0  0  0  0  0
   47.3019   34.3786   41.8284 H   0  0  0  0  0  0  0  0  0  0  0  0
  1  2  1  0
  1  4  1  0
  3  1  1  0
  3  2  1  0
  4  9  1  0
  5  4  2  0
  5  6  1  0
  6  7  2  0
  7  8  1  0
  9  8  2  0
 10  3  1  0
  1 11  1  6
  2 12  1  0
  2 13  1  0
  3 14  1  6
  5 15  1  0
  6 16  1  0
  8 17  1  0
 10 18  1  0
 10 19  1  0
M  ISO  8  11  13  12  13  13  13  14  13  15  14  16  14  17  14  18   5
M  ISO  1  19   5
M  END
>  <minimizedAffinity>  (1) 
-3.01709223

>  <minimizedRMSD>  (1) 
0.737779379

$$$$
