
     RDKit          3D

 33 35  0  0  1  0  0  0  0  0999 V2000
   45.1490   34.2260   43.0760 C   0  0  1  0  0  0  0  0  0  0  0  0
   45.4470   35.7050   43.0790 C   0  0  0  0  0  0  0  0  0  0  0  0
   46.2020   34.7820   42.2200 C   0  0  1  0  0  0  0  0  0  0  0  0
   45.4460   33.4430   44.2960 C   0  0  0  0  0  0  0  0  0  0  0  0
   45.7150   32.0590   44.1190 C   0  0  0  0  0  0  0  0  0  0  0  0
   46.0270   31.2720   45.2170 C   0  0  0  0  0  0  0  0  0  0  0  0
   46.0390   31.8750   46.4230 N   0  0  0  0  0  0  0  0  0  0  0  0
   45.7780   33.1880   46.5720 C   0  0  0  0  0  0  0  0  0  0  0  0
   45.4800   33.9670   45.5130 N   0  0  0  0  0  0  0  0  0  0  0  0
   47.9050   34.4790   42.7730 S   0  0  0  0  0  0  0  0  0  0  0  0
   49.2200   32.9950   38.8210 N   0  0  0  0  0  0  0  0  0  0  0  0
   47.9540   33.6990   39.0140 C   0  0  0  0  0  0  0  0  0  0  0  0
   48.1730   34.6890   40.1170 C   0  0  0  0  0  0  0  0  0  0  0  0
   48.9290   34.1790   41.2890 C   0  0  0  0  0  0  0  0  0  0  0  0
   49.3510   32.7620   41.2580 C   0  0  0  0  0  0  0  0  0  0  0  0
   49.3190   32.0800   39.9320 C   0  0  0  0  0  0  0  0  0  0  0  0
   44.2795   33.5793   42.8869 H   0  0  0  0  0  0  0  0  0  0  0  0
   44.7324   36.4138   42.6351 H   0  0  0  0  0  0  0  0  0  0  0  0
   45.7050   36.4510   43.8451 H   0  0  0  0  0  0  0  0  0  0  0  0
   46.4170   34.7220   41.1429 H   0  0  0  0  0  0  0  0  0  0  0  0
   45.6758   31.6134   43.1140 H   0  0  0  0  0  0  0  0  0  0  0  0
   46.2550   30.2013   45.1089 H   0  0  0  0  0  0  0  0  0  0  0  0
   45.8086   33.6332   47.5774 H   0  0  0  0  0  0  0  0  0  0  0  0
   49.2144   32.4802   37.9289 H   0  0  0  0  0  0  0  0  0  0  0  0
   47.6657   34.2201   38.0892 H   0  0  0  0  0  0  0  0  0  0  0  0
   47.1466   32.9966   39.2686 H   0  0  0  0  0  0  0  0  0  0  0  0
   48.7271   35.5434   39.7012 H   0  0  0  0  0  0  0  0  0  0  0  0
   47.1728   34.9515   40.4920 H   0  0  0  0  0  0  0  0  0  0  0  0
   49.8827   34.7272   41.2869 H   0  0  0  0  0  0  0  0  0  0  0  0
   50.3844   32.7142   41.6320 H   0  0  0  0  0  0  0  0  0  0  0  0
   48.6127   32.2281   41.8743 H   0  0  0  0  0  0  0  0  0  0  0  0
   48.4502   31.4057   39.9072 H   0  0  0  0  0  0  0  0  0  0  0  0
   50.2692   31.5367   39.8225 H   0  0  0  0  0  0  0  0  0  0  0  0
  1  2  1  0
  1  4  1  0
  3 10  1  0
  3  1  1  0
  3  2  1  0
  4  9  1  0
  5  4  2  0
  5  6  1  0
  6  7  2  0
  7  8  1  0
  9  8  2  0
 11 12  1  0
 11 16  1  0
 12 13  1  0
 13 14  1  0
 14 10  1  0
 15 14  1  0
 16 15  1  0
  1 17  1  6
  2 18  1  0
  2 19  1  0
  3 20  1  6
  5 21  1  0
  6 22  1  0
  8 23  1  0
 11 24  1  0
 12 25  1  0
 12 26  1  0
 13 27  1  0
 13 28  1  0
 14 29  1  0
 15 30  1  0
 15 31  1  0
 16 32  1  0
 16 33  1  0
M  ISO  8  17  13  18  13  19  13  20  13  21  14  22  14  23  14  24   5
M  ISO  8  25  13  26  13  27  13  28  13  29  13  30  13  31  13  32  13
M  ISO  1  33  13
M  END
>  <minimizedAffinity>  (1) 
-4.23087835

>  <minimizedRMSD>  (1) 
1.28122592

$$$$
