
     RDKit          3D

 30 31  0  0  1  0  0  0  0  0999 V2000
   44.6660   34.7080   43.4460 C   0  0  1  0  0  0  0  0  0  0  0  0
   45.0300   36.1590   43.6110 C   0  0  0  0  0  0  0  0  0  0  0  0
   45.4410   35.4080   42.4150 C   0  0  1  0  0  0  0  0  0  0  0  0
   45.2730   33.7130   44.3580 C   0  0  0  0  0  0  0  0  0  0  0  0
   45.4520   32.4050   43.8360 C   0  0  0  0  0  0  0  0  0  0  0  0
   46.0690   31.4310   44.6060 C   0  0  0  0  0  0  0  0  0  0  0  0
   46.4550   31.7840   45.8490 N   0  0  0  0  0  0  0  0  0  0  0  0
   46.2530   33.0240   46.3360 C   0  0  0  0  0  0  0  0  0  0  0  0
   45.6660   33.9840   45.5940 N   0  0  0  0  0  0  0  0  0  0  0  0
   47.2090   35.0150   42.3550 S   0  0  0  0  0  0  0  0  0  0  0  0
   47.6890   34.1000   40.8920 C   0  0  0  0  0  0  0  0  0  0  0  0
   46.4830   33.6690   40.1050 C   0  0  0  0  0  0  0  0  0  0  0  0
   48.5160   35.0390   40.0200 C   0  0  0  0  0  0  0  0  0  0  0  0
   48.5780   32.9180   41.1780 C   0  0  0  0  0  0  0  0  0  0  0  0
   43.7444   34.1077   43.4278 H   0  0  0  0  0  0  0  0  0  0  0  0
   44.2542   36.9352   43.5365 H   0  0  0  0  0  0  0  0  0  0  0  0
   45.5470   36.7544   44.3779 H   0  0  0  0  0  0  0  0  0  0  0  0
   45.3180   35.5421   41.3302 H   0  0  0  0  0  0  0  0  0  0  0  0
   45.1015   32.1645   42.8215 H   0  0  0  0  0  0  0  0  0  0  0  0
   46.2364   30.4147   44.2199 H   0  0  0  0  0  0  0  0  0  0  0  0
   46.5742   33.2580   47.3617 H   0  0  0  0  0  0  0  0  0  0  0  0
   45.6775   33.3811   40.7966 H   0  0  0  0  0  0  0  0  0  0  0  0
   46.1422   34.5010   39.4712 H   0  0  0  0  0  0  0  0  0  0  0  0
   46.7467   32.8095   39.4712 H   0  0  0  0  0  0  0  0  0  0  0  0
   49.1067   35.7097   40.6612 H   0  0  0  0  0  0  0  0  0  0  0  0
   49.1929   34.4486   39.3849 H   0  0  0  0  0  0  0  0  0  0  0  0
   47.8449   35.6359   39.3849 H   0  0  0  0  0  0  0  0  0  0  0  0
   48.6760   32.7877   42.2658 H   0  0  0  0  0  0  0  0  0  0  0  0
   48.1358   32.0118   40.7385 H   0  0  0  0  0  0  0  0  0  0  0  0
   49.5714   33.0915   40.7385 H   0  0  0  0  0  0  0  0  0  0  0  0
  1  2  1  0
  1  4  1  0
  3  1  1  0
  3  2  1  0
  4  9  1  0
  5  4  2  0
  5  6  1  0
  6  7  2  0
  7  8  1  0
  9  8  2  0
 10  3  1  0
 11 14  1  0
 11 10  1  0
 12 11  1  0
 13 11  1  0
  1 15  1  6
  2 16  1  0
  2 17  1  0
  3 18  1  6
  5 19  1  0
  6 20  1  0
  8 21  1  0
 12 22  1  0
 12 23  1  0
 12 24  1  0
 13 25  1  0
 13 26  1  0
 13 27  1  0
 14 28  1  0
 14 29  1  0
 14 30  1  0
M  ISO  8  15  13  16  13  17  13  18  13  19  14  20  14  21  14  22   8
M  ISO  8  23   8  24   8  25   8  26   8  27   8  28   8  29   8  30   8
M  END
>  <minimizedAffinity>  (1) 
-3.66541266

>  <minimizedRMSD>  (1) 
0.151605234

$$$$
