
     RDKit          3D

 38 40  0  0  1  0  0  0  0  0999 V2000
   44.9640   32.7890   40.2240 C   0  0  1  0  0  0  0  0  0  0  0  0
   45.2040   32.7770   38.7340 C   0  0  0  0  0  0  0  0  0  0  0  0
   45.1260   34.1960   40.7420 C   0  0  0  0  0  0  0  0  0  0  0  0
   46.3630   34.3300   41.4890 N   0  0  0  0  0  0  0  0  0  0  0  0
   47.4120   34.7020   40.7000 C   0  0  0  0  0  0  0  0  0  0  0  0
   48.6770   34.8890   41.1870 C   0  0  0  0  0  0  0  0  0  0  0  0
   48.8800   34.6880   42.5410 C   0  0  0  0  0  0  0  0  0  0  0  0
   50.1730   34.8710   43.0840 N   0  0  0  0  0  0  0  0  0  0  0  0
   47.8400   34.3270   43.2800 N   0  0  0  0  0  0  0  0  0  0  0  0
   46.6040   34.1450   42.7980 C   0  0  0  0  0  0  0  0  0  0  0  0
   45.5810   33.8050   43.4410 O   0  0  0  0  0  0  0  0  0  0  0  0
   43.4090   32.0430   40.7060 S   0  0  0  0  0  0  0  0  0  0  0  0
   40.6450   32.4540   40.5860 C   0  0  1  0  0  0  0  0  0  0  0  0
   41.2320   33.6850   41.1860 C   0  0  0  0  0  0  0  0  0  0  0  0
   41.9680   32.9660   40.1550 C   0  0  1  0  0  0  0  0  0  0  0  0
   40.5380   31.2070   41.3950 C   0  0  0  0  0  0  0  0  0  0  0  0
   40.3300   30.0130   40.6750 C   0  0  0  0  0  0  0  0  0  0  0  0
   40.2140   28.8240   41.3720 C   0  0  0  0  0  0  0  0  0  0  0  0
   40.3080   28.8740   42.7220 N   0  0  0  0  0  0  0  0  0  0  0  0
   40.5080   30.0430   43.3820 C   0  0  0  0  0  0  0  0  0  0  0  0
   40.6240   31.2070   42.7290 N   0  0  0  0  0  0  0  0  0  0  0  0
   45.7229   32.1479   40.6963 H   0  0  0  0  0  0  0  0  0  0  0  0
   46.2849   32.7230   38.5371 H   0  0  0  0  0  0  0  0  0  0  0  0
   44.7062   31.9026   38.2894 H   0  0  0  0  0  0  0  0  0  0  0  0
   44.7959   33.6967   38.2894 H   0  0  0  0  0  0  0  0  0  0  0  0
   45.1404   34.8940   39.8919 H   0  0  0  0  0  0  0  0  0  0  0  0
   44.2832   34.4251   41.4108 H   0  0  0  0  0  0  0  0  0  0  0  0
   47.2331   34.8584   39.6260 H   0  0  0  0  0  0  0  0  0  0  0  0
   49.5033   35.1885   40.5256 H   0  0  0  0  0  0  0  0  0  0  0  0
   50.3344   34.7239   44.0906 H   0  0  0  0  0  0  0  0  0  0  0  0
   50.9533   35.1514   42.4729 H   0  0  0  0  0  0  0  0  0  0  0  0
   39.7041   32.1946   40.0787 H   0  0  0  0  0  0  0  0  0  0  0  0
   40.7924   34.6681   40.9620 H   0  0  0  0  0  0  0  0  0  0  0  0
   41.4567   34.0171   42.2103 H   0  0  0  0  0  0  0  0  0  0  0  0
   42.4109   33.2373   39.1853 H   0  0  0  0  0  0  0  0  0  0  0  0
   40.2611   30.0267   39.5772 H   0  0  0  0  0  0  0  0  0  0  0  0
   40.0510   27.8707   40.8479 H   0  0  0  0  0  0  0  0  0  0  0  0
   40.5765   30.0345   44.4798 H   0  0  0  0  0  0  0  0  0  0  0  0
  1 12  1  0
  1  3  1  0
  2  1  1  0
  3  4  1  0
  4 10  1  0
  5  6  2  0
  5  4  1  0
  6  7  1  0
  7  8  1  0
  7  9  2  0
 10  9  1  0
 10 11  2  0
 13 14  1  0
 13 16  1  0
 15 13  1  0
 15 12  1  0
 15 14  1  0
 16 21  2  0
 17 18  2  0
 17 16  1  0
 18 19  1  0
 19 20  2  0
 21 20  1  0
  1 22  1  1
  2 23  1  0
  2 24  1  0
  2 25  1  0
  3 26  1  0
  3 27  1  0
  5 28  1  0
  6 29  1  0
  8 30  1  0
  8 31  1  0
 13 32  1  6
 14 33  1  0
 14 34  1  0
 15 35  1  6
 17 36  1  0
 18 37  1  0
 20 38  1  0
M  ISO  8  22   8  23   8  24   8  25   8  26   8  27   8  28  14  29  14
M  ISO  7  32  13  33  13  34  13  35  13  36  14  37  14  38  14
M  END
>  <minimizedAffinity>  (1) 
-4.54058552

>  <minimizedRMSD>  (1) 
5.49329424

$$$$
