
     RDKit          3D

 34 35  0  0  1  0  0  0  0  0999 V2000
   47.2260   30.1810   45.6710 S   0  0  0  0  0  0  0  0  0  0  0  0
   47.2350   30.4840   42.8900 C   0  0  1  0  0  0  0  0  0  0  0  0
   48.5940   30.0070   43.2710 C   0  0  0  0  0  0  0  0  0  0  0  0
   47.4280   29.5310   44.0080 C   0  0  1  0  0  0  0  0  0  0  0  0
   46.8430   31.8970   43.1610 C   0  0  0  0  0  0  0  0  0  0  0  0
   45.4640   32.1750   43.2610 C   0  0  0  0  0  0  0  0  0  0  0  0
   45.0590   33.4640   43.5010 C   0  0  0  0  0  0  0  0  0  0  0  0
   45.9950   34.4160   43.6320 N   0  0  0  0  0  0  0  0  0  0  0  0
   47.3180   34.1290   43.5310 C   0  0  0  0  0  0  0  0  0  0  0  0
   47.7400   32.8790   43.2970 N   0  0  0  0  0  0  0  0  0  0  0  0
   45.5350   30.1290   46.2600 C   0  0  1  0  0  0  0  0  0  0  0  0
   44.8080   28.8460   45.8840 C   0  0  0  0  0  0  0  0  0  0  0  0
   45.4140   30.3230   47.7530 C   0  0  0  0  0  0  0  0  0  0  0  0
   44.5700   31.4810   47.9830 N   0  0  0  0  0  0  0  0  0  0  0  0
   45.2450   32.7250   47.9020 C   0  0  0  0  0  0  0  0  0  0  0  0
   46.4950   32.9690   48.0900 N   0  0  0  0  0  0  0  0  0  0  0  0
   44.5890   33.9540   47.5790 N   0  0  0  0  0  0  0  0  0  0  0  0
   47.1110   32.1670   48.3350 H   0  0  0  0  0  0  0  0  0  0  0  0
   46.6330   30.4962   41.9695 H   0  0  0  0  0  0  0  0  0  0  0  0
   49.1415   29.3216   42.6073 H   0  0  0  0  0  0  0  0  0  0  0  0
   49.5394   30.4971   43.5468 H   0  0  0  0  0  0  0  0  0  0  0  0
   47.0147   28.5423   44.2562 H   0  0  0  0  0  0  0  0  0  0  0  0
   44.7232   31.3697   43.1482 H   0  0  0  0  0  0  0  0  0  0  0  0
   43.9904   33.7112   43.5841 H   0  0  0  0  0  0  0  0  0  0  0  0
   48.0564   34.9366   43.6432 H   0  0  0  0  0  0  0  0  0  0  0  0
   45.0569   30.9778   45.7492 H   0  0  0  0  0  0  0  0  0  0  0  0
   44.5065   28.3140   46.7983 H   0  0  0  0  0  0  0  0  0  0  0  0
   43.9146   29.0911   45.2909 H   0  0  0  0  0  0  0  0  0  0  0  0
   45.4774   28.2056   45.2909 H   0  0  0  0  0  0  0  0  0  0  0  0
   44.9594   29.4319   48.2105 H   0  0  0  0  0  0  0  0  0  0  0  0
   46.4064   30.4756   48.2023 H   0  0  0  0  0  0  0  0  0  0  0  0
   43.5635   31.4053   48.1882 H   0  0  0  0  0  0  0  0  0  0  0  0
   45.1293   34.8298   47.5339 H   0  0  0  0  0  0  0  0  0  0  0  0
   43.5763   33.9634   47.3914 H   0  0  0  0  0  0  0  0  0  0  0  0
  1 11  1  0
  2  5  1  0
  2  3  1  0
  2  4  1  0
  3  4  1  0
  4  1  1  0
  5  6  2  0
  5 10  1  0
  6  7  1  0
  7  8  2  0
  9  8  1  0
 10  9  2  0
 11 13  1  0
 12 11  1  0
 13 14  1  0
 15 14  1  0
 15 16  2  0
 16 18  1  0
 17 15  1  0
  2 19  1  6
  3 20  1  0
  3 21  1  0
  4 22  1  6
  6 23  1  0
  7 24  1  0
  9 25  1  0
 11 26  1  6
 12 27  1  0
 12 28  1  0
 12 29  1  0
 13 30  1  0
 13 31  1  0
 14 32  1  0
 17 33  1  0
 17 34  1  0
M  ISO  8  19  13  20  13  21  13  22  13  23  14  24  14  25  14  26   8
M  ISO  5  27   8  28   8  29   8  30   8  31   8
M  END
>  <minimizedAffinity>  (1) 
-4.02299404

>  <minimizedRMSD>  (1) 
7.11792517

$$$$
