
     RDKit          3D

 34 36  0  0  1  0  0  0  0  0999 V2000
   45.1260   35.3580   44.1690 C   0  0  1  0  0  0  0  0  0  0  0  0
   45.1390   36.4710   43.1770 C   0  0  0  0  0  0  0  0  0  0  0  0
   44.0010   35.5620   43.2240 C   0  0  1  0  0  0  0  0  0  0  0  0
   46.0630   34.2100   43.9920 C   0  0  0  0  0  0  0  0  0  0  0  0
   45.7120   33.0040   44.6290 C   0  0  0  0  0  0  0  0  0  0  0  0
   46.5400   31.9120   44.5130 C   0  0  0  0  0  0  0  0  0  0  0  0
   47.6680   32.0550   43.7790 N   0  0  0  0  0  0  0  0  0  0  0  0
   47.9880   33.2270   43.1730 C   0  0  0  0  0  0  0  0  0  0  0  0
   47.1920   34.2980   43.2770 N   0  0  0  0  0  0  0  0  0  0  0  0
   43.8710   34.3980   41.8600 S   0  0  0  0  0  0  0  0  0  0  0  0
   42.3540   34.5590   40.9230 C   0  0  1  0  0  0  0  0  0  0  0  0
   41.2750   35.3470   41.6520 C   0  0  0  0  0  0  0  0  0  0  0  0
   42.5710   35.1550   39.5520 C   0  0  0  0  0  0  0  0  0  0  0  0
   42.1630   34.1180   38.5300 C   0  0  0  0  0  0  0  0  0  0  0  0
   40.7300   33.9450   38.1730 C   0  0  0  0  0  0  0  0  0  0  0  0
   41.5060   32.8600   38.9390 C   0  0  0  0  0  0  0  0  0  0  0  0
   45.2197   35.2698   45.2614 H   0  0  0  0  0  0  0  0  0  0  0  0
   45.8330   36.4381   42.3242 H   0  0  0  0  0  0  0  0  0  0  0  0
   45.2628   37.5623   43.2376 H   0  0  0  0  0  0  0  0  0  0  0  0
   42.9135   35.6815   43.3381 H   0  0  0  0  0  0  0  0  0  0  0  0
   44.7833   32.9360   45.2145 H   0  0  0  0  0  0  0  0  0  0  0  0
   46.2942   30.9565   44.9994 H   0  0  0  0  0  0  0  0  0  0  0  0
   48.9163   33.2975   42.5871 H   0  0  0  0  0  0  0  0  0  0  0  0
   41.9992   33.5246   40.8038 H   0  0  0  0  0  0  0  0  0  0  0  0
   41.4162   35.2439   42.7380 H   0  0  0  0  0  0  0  0  0  0  0  0
   41.3442   36.4086   41.3724 H   0  0  0  0  0  0  0  0  0  0  0  0
   40.2848   34.9580   41.3724 H   0  0  0  0  0  0  0  0  0  0  0  0
   41.9553   36.0590   39.4348 H   0  0  0  0  0  0  0  0  0  0  0  0
   43.6260   35.4353   39.4164 H   0  0  0  0  0  0  0  0  0  0  0  0
   43.0755   34.3442   37.9589 H   0  0  0  0  0  0  0  0  0  0  0  0
   39.9562   34.5376   38.6830 H   0  0  0  0  0  0  0  0  0  0  0  0
   40.1398   33.9838   37.2456 H   0  0  0  0  0  0  0  0  0  0  0  0
   41.7674   31.9135   38.4432 H   0  0  0  0  0  0  0  0  0  0  0  0
   41.3682   32.3207   39.8878 H   0  0  0  0  0  0  0  0  0  0  0  0
  2  3  1  0
  2  1  1  0
  3  1  1  0
  4  1  1  0
  4  5  2  0
  6  5  1  0
  7  6  2  0
  8  9  2  0
  8  7  1  0
  9  4  1  0
 10  3  1  0
 11 12  1  0
 11 10  1  0
 13 11  1  0
 14 16  1  0
 14 13  1  0
 15 14  1  0
 15 16  1  0
  1 17  1  1
  2 18  1  0
  2 19  1  0
  3 20  1  1
  5 21  1  0
  6 22  1  0
  8 23  1  0
 11 24  1  6
 12 25  1  0
 12 26  1  0
 12 27  1  0
 13 28  1  0
 13 29  1  0
 14 30  1  0
 15 31  1  0
 15 32  1  0
 16 33  1  0
 16 34  1  0
M  ISO  8  17  13  18  13  19  13  20  13  21  14  22  14  23  14  24   8
M  ISO  8  25   8  26   8  27   8  28   8  29   8  30  13  31  13  32  13
M  ISO  2  33  13  34  13
M  END
>  <minimizedAffinity>  (1) 
-3.78183532

>  <minimizedRMSD>  (1) 
5.72022057

$$$$
