
     RDKit          3D

 40 43  0  0  1  0  0  0  0  0999 V2000
   45.8610   32.0740   41.8160 C   0  0  1  0  0  0  0  0  0  0  0  0
   45.7580   30.6880   42.4410 C   0  0  0  0  0  0  0  0  0  0  0  0
   46.2790   31.9190   40.3820 C   0  0  0  0  0  0  0  0  0  0  0  0
   47.4620   32.6790   40.0490 N   0  0  0  0  0  0  0  0  0  0  0  0
   50.2390   35.1900   42.7980 N   0  0  0  0  0  0  0  0  0  0  0  0
   49.2050   35.8960   42.3020 C   0  0  0  0  0  0  0  0  0  0  0  0
   48.4550   35.0900   41.5180 N   0  0  0  0  0  0  0  0  0  0  0  0
   49.0360   33.8620   41.5280 C   0  0  0  0  0  0  0  0  0  0  0  0
   48.6290   32.7100   40.8710 C   0  0  0  0  0  0  0  0  0  0  0  0
   49.4010   31.6260   41.0600 N   0  0  0  0  0  0  0  0  0  0  0  0
   50.4830   31.7140   41.8470 C   0  0  0  0  0  0  0  0  0  0  0  0
   50.9010   32.8260   42.4980 N   0  0  0  0  0  0  0  0  0  0  0  0
   50.1440   33.9400   42.3280 C   0  0  0  0  0  0  0  0  0  0  0  0
   44.3840   33.0740   42.0240 S   0  0  0  0  0  0  0  0  0  0  0  0
   43.1440   34.9750   40.3680 C   0  0  1  0  0  0  0  0  0  0  0  0
   43.6480   35.7190   41.5320 C   0  0  0  0  0  0  0  0  0  0  0  0
   44.4100   34.5820   41.0780 C   0  0  1  0  0  0  0  0  0  0  0  0
   41.9350   34.0920   40.4810 C   0  0  0  0  0  0  0  0  0  0  0  0
   41.7970   33.1200   39.4880 C   0  0  0  0  0  0  0  0  0  0  0  0
   40.6940   32.2950   39.5320 C   0  0  0  0  0  0  0  0  0  0  0  0
   39.8030   32.4720   40.5380 N   0  0  0  0  0  0  0  0  0  0  0  0
   39.9690   33.4310   41.4920 C   0  0  0  0  0  0  0  0  0  0  0  0
   41.0300   34.2450   41.4720 N   0  0  0  0  0  0  0  0  0  0  0  0
   46.6298   32.6469   42.3551 H   0  0  0  0  0  0  0  0  0  0  0  0
   45.7647   30.7787   43.5372 H   0  0  0  0  0  0  0  0  0  0  0  0
   44.8218   30.2090   42.1185 H   0  0  0  0  0  0  0  0  0  0  0  0
   46.6131   30.0759   42.1185 H   0  0  0  0  0  0  0  0  0  0  0  0
   46.4813   30.8550   40.1898 H   0  0  0  0  0  0  0  0  0  0  0  0
   45.4577   32.3024   39.7587 H   0  0  0  0  0  0  0  0  0  0  0  0
   47.4634   33.2252   39.1758 H   0  0  0  0  0  0  0  0  0  0  0  0
   50.9721   35.5479   43.4268 H   0  0  0  0  0  0  0  0  0  0  0  0
   49.0031   36.9585   42.5028 H   0  0  0  0  0  0  0  0  0  0  0  0
   51.0847   30.8022   41.9754 H   0  0  0  0  0  0  0  0  0  0  0  0
   42.8529   35.2386   39.3405 H   0  0  0  0  0  0  0  0  0  0  0  0
   44.0513   36.7334   41.3962 H   0  0  0  0  0  0  0  0  0  0  0  0
   43.2136   36.0118   42.4993 H   0  0  0  0  0  0  0  0  0  0  0  0
   45.4615   34.4280   40.7940 H   0  0  0  0  0  0  0  0  0  0  0  0
   42.5487   33.0156   38.6918 H   0  0  0  0  0  0  0  0  0  0  0  0
   40.5409   31.5147   38.7720 H   0  0  0  0  0  0  0  0  0  0  0  0
   39.2194   33.5371   42.2901 H   0  0  0  0  0  0  0  0  0  0  0  0
  1 14  1  0
  1  2  1  0
  3  1  1  0
  4  3  1  0
  4  9  1  0
  6  5  1  0
  7  8  1  0
  7  6  2  0
  8 13  2  0
  9 10  2  0
  9  8  1  0
 10 11  1  0
 11 12  2  0
 13 12  1  0
 13  5  1  0
 15 18  1  0
 15 17  1  0
 15 16  1  0
 17 16  1  0
 17 14  1  0
 18 23  2  0
 19 20  2  0
 19 18  1  0
 20 21  1  0
 21 22  2  0
 23 22  1  0
  1 24  1  1
  2 25  1  0
  2 26  1  0
  2 27  1  0
  3 28  1  0
  3 29  1  0
  4 30  1  0
  5 31  1  0
  6 32  1  0
 11 33  1  0
 15 34  1  6
 16 35  1  0
 16 36  1  0
 17 37  1  6
 19 38  1  0
 20 39  1  0
 22 40  1  0
M  ISO  8  24   8  25   8  26   8  27   8  28   8  29   8  31   9  32  14
M  ISO  8  33  14  34  13  35  13  36  13  37  13  38  14  39  14  40  14
M  END
>  <minimizedAffinity>  (1) 
-4.66582918

>  <minimizedRMSD>  (1) 
4.57084179

$$$$
