
     RDKit          3D

 34 36  0  0  1  0  0  0  0  0999 V2000
   44.6670   33.2390   41.1030 S   0  0  0  0  0  0  0  0  0  0  0  0
   46.7000   34.9720   41.9650 C   0  0  1  0  0  0  0  0  0  0  0  0
   47.3830   33.7900   41.4120 C   0  0  0  0  0  0  0  0  0  0  0  0
   46.1390   34.1980   40.8050 C   0  0  1  0  0  0  0  0  0  0  0  0
   46.0160   34.9000   43.3010 C   0  0  0  0  0  0  0  0  0  0  0  0
   45.1260   35.9400   43.5780 C   0  0  0  0  0  0  0  0  0  0  0  0
   44.4840   35.9450   44.8000 C   0  0  0  0  0  0  0  0  0  0  0  0
   44.7570   34.9340   45.6640 N   0  0  0  0  0  0  0  0  0  0  0  0
   45.6320   33.9370   45.3600 C   0  0  0  0  0  0  0  0  0  0  0  0
   46.2650   33.9090   44.1850 N   0  0  0  0  0  0  0  0  0  0  0  0
   43.2080   33.9120   40.2930 C   0  0  1  0  0  0  0  0  0  0  0  0
   42.8210   35.2930   40.7920 C   0  0  0  0  0  0  0  0  0  0  0  0
   43.3140   33.9490   38.7920 C   0  0  0  0  0  0  0  0  0  0  0  0
   43.9540   32.7640   38.2610 N   0  0  0  0  0  0  0  0  0  0  0  0
   45.0920   32.7590   37.4040 C   0  0  0  0  0  0  0  0  0  0  0  0
   46.2980   33.2960   37.2230 N   0  0  0  0  0  0  0  0  0  0  0  0
   46.8370   32.8020   36.1590 O   0  0  0  0  0  0  0  0  0  0  0  0
   46.0510   31.9340   35.5870 C   0  0  0  0  0  0  0  0  0  0  0  0
   44.9420   31.9010   36.3720 N   0  0  0  0  0  0  0  0  0  0  0  0
   46.9793   36.0174   42.1626 H   0  0  0  0  0  0  0  0  0  0  0  0
   48.3254   33.9153   40.8587 H   0  0  0  0  0  0  0  0  0  0  0  0
   47.7517   32.8475   41.8429 H   0  0  0  0  0  0  0  0  0  0  0  0
   45.8291   34.4297   39.7753 H   0  0  0  0  0  0  0  0  0  0  0  0
   44.9412   36.7353   42.8408 H   0  0  0  0  0  0  0  0  0  0  0  0
   43.7741   36.7424   45.0652 H   0  0  0  0  0  0  0  0  0  0  0  0
   45.8209   33.1407   46.0950 H   0  0  0  0  0  0  0  0  0  0  0  0
   42.4143   33.2025   40.5698 H   0  0  0  0  0  0  0  0  0  0  0  0
   42.8195   35.2983   41.8920 H   0  0  0  0  0  0  0  0  0  0  0  0
   43.5464   36.0329   40.4227 H   0  0  0  0  0  0  0  0  0  0  0  0
   41.8167   35.5482   40.4227 H   0  0  0  0  0  0  0  0  0  0  0  0
   42.3024   34.0262   38.3670 H   0  0  0  0  0  0  0  0  0  0  0  0
   43.9301   34.8180   38.5177 H   0  0  0  0  0  0  0  0  0  0  0  0
   43.5547   31.8517   38.5238 H   0  0  0  0  0  0  0  0  0  0  0  0
   46.2428   31.3558   34.6711 H   0  0  0  0  0  0  0  0  0  0  0  0
  2  5  1  0
  3  2  1  0
  4  1  1  0
  4  3  1  0
  4  2  1  0
  5  6  2  0
  5 10  1  0
  6  7  1  0
  7  8  2  0
  9  8  1  0
 10  9  2  0
 11 12  1  0
 11  1  1  0
 13 11  1  0
 14 13  1  0
 15 14  1  0
 16 15  2  0
 17 16  1  0
 18 17  1  0
 18 19  2  0
 19 15  1  0
  2 20  1  6
  3 21  1  0
  3 22  1  0
  4 23  1  6
  6 24  1  0
  7 25  1  0
  9 26  1  0
 11 27  1  6
 12 28  1  0
 12 29  1  0
 12 30  1  0
 13 31  1  0
 13 32  1  0
 14 33  1  0
 18 34  1  0
M  ISO  8  20  13  21  13  22  13  23  13  24  14  25  14  26  14  27   8
M  ISO  6  28   8  29   8  30   8  31   8  32   8  34  14
M  END
>  <minimizedAffinity>  (1) 
-4.39478922

>  <minimizedRMSD>  (1) 
4.40494061

$$$$
