
     RDKit          3D

 44 46  0  0  1  0  0  0  0  0999 V2000
   48.1420   31.7290   42.9360 C   0  0  1  0  0  0  0  0  0  0  0  0
   49.1150   30.6030   43.2040 C   0  0  0  0  0  0  0  0  0  0  0  0
   47.0020   31.6700   43.8960 C   0  0  0  0  0  0  0  0  0  0  0  0
   46.8410   32.8780   44.6610 N   0  0  0  0  0  0  0  0  0  0  0  0
   46.4290   32.1760   48.7140 N   0  0  0  0  0  0  0  0  0  0  0  0
   47.2960   31.2620   48.0060 C   0  0  0  0  0  0  0  0  0  0  0  0
   47.0080   31.2430   46.5110 C   0  0  0  0  0  0  0  0  0  0  0  0
   46.9170   32.6880   46.0790 C   0  0  0  0  0  0  0  0  0  0  0  0
   45.5820   33.1900   46.6510 C   0  0  0  0  0  0  0  0  0  0  0  0
   45.2580   32.4450   47.9100 C   0  0  0  0  0  0  0  0  0  0  0  0
   48.9260   33.3480   42.8540 S   0  0  0  0  0  0  0  0  0  0  0  0
   47.6440   34.7070   40.7590 C   0  0  1  0  0  0  0  0  0  0  0  0
   48.8520   35.4890   41.0740 C   0  0  0  0  0  0  0  0  0  0  0  0
   48.9150   34.0530   41.2190 C   0  0  1  0  0  0  0  0  0  0  0  0
   46.4530   34.7330   41.6720 C   0  0  0  0  0  0  0  0  0  0  0  0
   45.4350   33.8320   41.3570 C   0  0  0  0  0  0  0  0  0  0  0  0
   44.3040   33.8270   42.1560 C   0  0  0  0  0  0  0  0  0  0  0  0
   44.2540   34.6950   43.1920 N   0  0  0  0  0  0  0  0  0  0  0  0
   45.2620   35.5570   43.4670 C   0  0  0  0  0  0  0  0  0  0  0  0
   46.3670   35.5850   42.7140 N   0  0  0  0  0  0  0  0  0  0  0  0
   47.7323   31.5794   41.9262 H   0  0  0  0  0  0  0  0  0  0  0  0
   49.2308   30.4690   44.2897 H   0  0  0  0  0  0  0  0  0  0  0  0
   48.7315   29.6732   42.7587 H   0  0  0  0  0  0  0  0  0  0  0  0
   50.0906   30.8476   42.7587 H   0  0  0  0  0  0  0  0  0  0  0  0
   46.0768   31.4895   43.3291 H   0  0  0  0  0  0  0  0  0  0  0  0
   47.2161   30.8590   44.6076 H   0  0  0  0  0  0  0  0  0  0  0  0
   47.5815   33.5378   44.3831 H   0  0  0  0  0  0  0  0  0  0  0  0
   46.1422   31.7544   49.6090 H   0  0  0  0  0  0  0  0  0  0  0  0
   48.3403   31.5703   48.1624 H   0  0  0  0  0  0  0  0  0  0  0  0
   47.1160   30.2505   48.3990 H   0  0  0  0  0  0  0  0  0  0  0  0
   47.8217   30.7349   45.9727 H   0  0  0  0  0  0  0  0  0  0  0  0
   46.0774   30.6999   46.2897 H   0  0  0  0  0  0  0  0  0  0  0  0
   47.8209   33.2095   46.4269 H   0  0  0  0  0  0  0  0  0  0  0  0
   45.6604   34.2647   46.8723 H   0  0  0  0  0  0  0  0  0  0  0  0
   44.7839   33.0212   45.9131 H   0  0  0  0  0  0  0  0  0  0  0  0
   44.5536   33.0461   48.5037 H   0  0  0  0  0  0  0  0  0  0  0  0
   44.8225   31.4770   47.6215 H   0  0  0  0  0  0  0  0  0  0  0  0
   46.9730   34.6204   39.8916 H   0  0  0  0  0  0  0  0  0  0  0  0
   49.4101   35.9794   40.2628 H   0  0  0  0  0  0  0  0  0  0  0  0
   49.0634   36.3366   41.7424 H   0  0  0  0  0  0  0  0  0  0  0  0
   49.5841   33.2705   40.8317 H   0  0  0  0  0  0  0  0  0  0  0  0
   45.5280   33.1474   40.5011 H   0  0  0  0  0  0  0  0  0  0  0  0
   43.4710   33.1376   41.9541 H   0  0  0  0  0  0  0  0  0  0  0  0
   45.1705   36.2436   44.3215 H   0  0  0  0  0  0  0  0  0  0  0  0
  1  2  1  0
  1  3  1  0
  3  4  1  0
  4  8  1  0
  6  5  1  0
  7  6  1  0
  8  7  1  0
  8  9  1  0
  9 10  1  0
 10  5  1  0
 11  1  1  0
 12 13  1  0
 12 14  1  0
 12 15  1  0
 13 14  1  0
 14 11  1  0
 15 20  1  0
 16 15  2  0
 16 17  1  0
 17 18  2  0
 18 19  1  0
 20 19  2  0
  1 21  1  6
  2 22  1  0
  2 23  1  0
  2 24  1  0
  3 25  1  0
  3 26  1  0
  4 27  1  0
  5 28  1  0
  6 29  1  0
  6 30  1  0
  7 31  1  0
  7 32  1  0
  8 33  1  0
  9 34  1  0
  9 35  1  0
 10 36  1  0
 10 37  1  0
 12 38  1  6
 13 39  1  0
 13 40  1  0
 14 41  1  6
 16 42  1  0
 17 43  1  0
 19 44  1  0
M  ISO  8  21   8  22   8  23   8  24   8  25   8  26   8  27   5  28   5
M  ISO  8  29  13  30  13  31  13  32  13  33  13  34  13  35  13  36  13
M  ISO  8  37  13  38  13  39  13  40  13  41  13  42  14  43  14  44  14
M  END
>  <minimizedAffinity>  (1) 
-4.3767271

>  <minimizedRMSD>  (1) 
6.58646297

$$$$
