
     RDKit          3D

 31 32  0  0  1  0  0  0  0  0999 V2000
   44.6380   33.9010   42.6880 C   0  0  1  0  0  0  0  0  0  0  0  0
   44.4230   35.3470   42.5200 C   0  0  0  0  0  0  0  0  0  0  0  0
   45.5050   34.7330   41.7860 C   0  0  1  0  0  0  0  0  0  0  0  0
   45.2090   33.3530   43.9670 C   0  0  0  0  0  0  0  0  0  0  0  0
   45.6260   32.0220   43.9090 C   0  0  0  0  0  0  0  0  0  0  0  0
   46.1410   31.4530   45.0640 C   0  0  0  0  0  0  0  0  0  0  0  0
   46.2080   32.2270   46.1790 N   0  0  0  0  0  0  0  0  0  0  0  0
   45.7910   33.5200   46.1890 C   0  0  0  0  0  0  0  0  0  0  0  0
   45.2900   34.0940   45.0920 N   0  0  0  0  0  0  0  0  0  0  0  0
   47.1820   35.0170   42.3070 S   0  0  0  0  0  0  0  0  0  0  0  0
   48.4040   34.5510   41.0780 C   0  0  1  0  0  0  0  0  0  0  0  0
   49.3110   33.4080   41.5310 C   0  0  0  0  0  0  0  0  0  0  0  0
   47.8180   34.1940   39.7460 C   0  0  0  0  0  0  0  0  0  0  0  0
   48.6400   34.6160   38.6350 N   0  0  0  0  0  0  0  0  0  0  0  0
   48.2680   34.4740   37.2710 C   0  0  0  0  0  0  0  0  0  0  0  0
   48.7820   33.5910   36.5370 O   0  0  0  0  0  0  0  0  0  0  0  0
   44.0151   33.0004   42.5836 H   0  0  0  0  0  0  0  0  0  0  0  0
   43.5342   35.7061   41.9805 H   0  0  0  0  0  0  0  0  0  0  0  0
   44.3545   36.1968   43.2151 H   0  0  0  0  0  0  0  0  0  0  0  0
   45.7952   34.7095   40.7252 H   0  0  0  0  0  0  0  0  0  0  0  0
   45.5485   31.4431   42.9769 H   0  0  0  0  0  0  0  0  0  0  0  0
   46.4845   30.4081   45.0772 H   0  0  0  0  0  0  0  0  0  0  0  0
   45.8674   34.1048   47.1175 H   0  0  0  0  0  0  0  0  0  0  0  0
   49.0054   35.4647   40.9619 H   0  0  0  0  0  0  0  0  0  0  0  0
   49.3375   33.3746   42.6302 H   0  0  0  0  0  0  0  0  0  0  0  0
   48.9207   32.4550   41.1445 H   0  0  0  0  0  0  0  0  0  0  0  0
   50.3278   33.5715   41.1445 H   0  0  0  0  0  0  0  0  0  0  0  0
   47.6976   33.1017   39.6977 H   0  0  0  0  0  0  0  0  0  0  0  0
   46.8547   34.7181   39.6597 H   0  0  0  0  0  0  0  0  0  0  0  0
   49.5520   35.0463   38.8448 H   0  0  0  0  0  0  0  0  0  0  0  0
   47.5128   35.1521   36.8469 H   0  0  0  0  0  0  0  0  0  0  0  0
  1  4  1  0
  2  1  1  0
  3 10  1  0
  3  2  1  0
  3  1  1  0
  4  9  1  0
  5  4  2  0
  5  6  1  0
  6  7  2  0
  7  8  1  0
  9  8  2  0
 11 12  1  0
 11 10  1  0
 13 11  1  0
 14 13  1  0
 15 14  1  0
 16 15  2  0
  1 17  1  6
  2 18  1  0
  2 19  1  0
  3 20  1  6
  5 21  1  0
  6 22  1  0
  8 23  1  0
 11 24  1  6
 12 25  1  0
 12 26  1  0
 12 27  1  0
 13 28  1  0
 13 29  1  0
 14 30  1  0
 15 31  1  0
M  ISO  8  17  13  18  13  19  13  20  13  21  14  22  14  23  14  24   8
M  ISO  6  25   8  26   8  27   8  28   8  29   8  31   6
M  END
>  <minimizedAffinity>  (1) 
-4.10826349

>  <minimizedRMSD>  (1) 
1.14026046

$$$$
