
     RDKit          3D

 42 44  0  0  1  0  0  0  0  0999 V2000
   47.6470   34.7490   42.6970 S   0  0  0  0  0  0  0  0  0  0  0  0
   44.9310   34.4330   43.3250 C   0  0  1  0  0  0  0  0  0  0  0  0
   45.2050   35.8750   43.4330 C   0  0  0  0  0  0  0  0  0  0  0  0
   45.9270   35.1220   42.4350 C   0  0  1  0  0  0  0  0  0  0  0  0
   45.4150   33.4800   44.3800 C   0  0  0  0  0  0  0  0  0  0  0  0
   45.5340   32.1480   43.9830 C   0  0  0  0  0  0  0  0  0  0  0  0
   45.9570   31.2230   44.9140 C   0  0  0  0  0  0  0  0  0  0  0  0
   46.2360   31.6620   46.1730 N   0  0  0  0  0  0  0  0  0  0  0  0
   46.1090   32.9700   46.5210 C   0  0  0  0  0  0  0  0  0  0  0  0
   45.7000   33.8860   45.6370 N   0  0  0  0  0  0  0  0  0  0  0  0
   48.4160   33.9140   41.3020 C   0  0  1  0  0  0  0  0  0  0  0  0
   48.0680   32.4420   41.2080 C   0  0  0  0  0  0  0  0  0  0  0  0
   48.1610   34.6010   39.9890 C   0  0  0  0  0  0  0  0  0  0  0  0
   48.5550   33.7860   38.8640 N   0  0  0  0  0  0  0  0  0  0  0  0
   47.9820   34.1390   37.6140 C   0  0  0  0  0  0  0  0  0  0  0  0
   46.6790   33.3330   37.4970 C   0  0  0  0  0  0  0  0  0  0  0  0
   47.2600   31.9260   37.6470 C   0  0  0  0  0  0  0  0  0  0  0  0
   48.4410   31.9820   36.6990 C   0  0  0  0  0  0  0  0  0  0  0  0
   48.7800   33.4360   36.5110 C   0  0  0  0  0  0  0  0  0  0  0  0
   44.0315   33.8158   43.1839 H   0  0  0  0  0  0  0  0  0  0  0  0
   44.4390   36.5995   43.1195 H   0  0  0  0  0  0  0  0  0  0  0  0
   45.5056   36.5374   44.2581 H   0  0  0  0  0  0  0  0  0  0  0  0
   46.0757   35.2330   41.3508 H   0  0  0  0  0  0  0  0  0  0  0  0
   45.2964   31.8432   42.9531 H   0  0  0  0  0  0  0  0  0  0  0  0
   46.0660   30.1613   44.6478 H   0  0  0  0  0  0  0  0  0  0  0  0
   46.3472   33.2806   47.5490 H   0  0  0  0  0  0  0  0  0  0  0  0
   49.4942   33.9794   41.5101 H   0  0  0  0  0  0  0  0  0  0  0  0
   47.9690   32.0233   42.2204 H   0  0  0  0  0  0  0  0  0  0  0  0
   47.1172   32.3238   40.6677 H   0  0  0  0  0  0  0  0  0  0  0  0
   48.8653   31.9105   40.6677 H   0  0  0  0  0  0  0  0  0  0  0  0
   47.0867   34.8227   39.9074 H   0  0  0  0  0  0  0  0  0  0  0  0
   48.7614   35.5224   39.9666 H   0  0  0  0  0  0  0  0  0  0  0  0
   49.5789   33.8492   38.7713 H   0  0  0  0  0  0  0  0  0  0  0  0
   47.9140   35.2343   37.5389 H   0  0  0  0  0  0  0  0  0  0  0  0
   45.9695   33.5752   38.3020 H   0  0  0  0  0  0  0  0  0  0  0  0
   46.0916   33.5095   36.5839 H   0  0  0  0  0  0  0  0  0  0  0  0
   47.5836   31.7333   38.6805 H   0  0  0  0  0  0  0  0  0  0  0  0
   46.5450   31.1203   37.4244 H   0  0  0  0  0  0  0  0  0  0  0  0
   49.2990   31.4461   37.1310 H   0  0  0  0  0  0  0  0  0  0  0  0
   48.1978   31.5062   35.7375 H   0  0  0  0  0  0  0  0  0  0  0  0
   49.8592   33.6070   36.6376 H   0  0  0  0  0  0  0  0  0  0  0  0
   48.5336   33.8051   35.5045 H   0  0  0  0  0  0  0  0  0  0  0  0
  2  3  1  0
  2  5  1  0
  4  1  1  0
  4  2  1  0
  4  3  1  0
  5 10  1  0
  6  5  2  0
  6  7  1  0
  7  8  2  0
  8  9  1  0
 10  9  2  0
 11  1  1  0
 12 11  1  0
 13 11  1  0
 14 13  1  0
 15 14  1  0
 16 15  1  0
 16 17  1  0
 18 17  1  0
 19 18  1  0
 19 15  1  0
  2 20  1  6
  3 21  1  0
  3 22  1  0
  4 23  1  6
  6 24  1  0
  7 25  1  0
  9 26  1  0
 11 27  1  1
 12 28  1  0
 12 29  1  0
 12 30  1  0
 13 31  1  0
 13 32  1  0
 14 33  1  0
 15 34  1  0
 16 35  1  0
 16 36  1  0
 17 37  1  0
 17 38  1  0
 18 39  1  0
 18 40  1  0
 19 41  1  0
 19 42  1  0
M  ISO  8  20  13  21  13  22  13  23  13  24  14  25  14  26  14  27   8
M  ISO  8  28   8  29   8  30   8  31   8  32   8  33   5  34  13  35  13
M  ISO  7  36  13  37  13  38  13  39  13  40  13  41  13  42  13
M  END
>  <minimizedAffinity>  (1) 
-4.03491688

>  <minimizedRMSD>  (1) 
0.411969066

$$$$
