
     RDKit          3D

 41 42  0  0  1  0  0  0  0  0999 V2000
   44.8350   34.4260   43.0800 C   0  0  1  0  0  0  0  0  0  0  0  0
   45.0550   35.8800   43.1170 C   0  0  0  0  0  0  0  0  0  0  0  0
   45.8010   35.1030   42.1530 C   0  0  1  0  0  0  0  0  0  0  0  0
   45.3540   33.5430   44.1790 C   0  0  0  0  0  0  0  0  0  0  0  0
   45.4600   32.1870   43.8570 C   0  0  0  0  0  0  0  0  0  0  0  0
   45.9140   31.3190   44.8340 C   0  0  0  0  0  0  0  0  0  0  0  0
   46.2300   31.8370   46.0530 N   0  0  0  0  0  0  0  0  0  0  0  0
   46.1120   33.1630   46.3230 C   0  0  0  0  0  0  0  0  0  0  0  0
   45.6770   34.0250   45.3990 N   0  0  0  0  0  0  0  0  0  0  0  0
   47.5350   34.8040   42.4330 S   0  0  0  0  0  0  0  0  0  0  0  0
   48.3130   33.8290   41.1400 C   0  0  1  0  0  0  0  0  0  0  0  0
   47.9540   32.3560   41.1880 C   0  0  0  0  0  0  0  0  0  0  0  0
   48.0310   34.3600   39.7570 C   0  0  0  0  0  0  0  0  0  0  0  0
   46.9490   33.6410   39.1140 N   0  0  0  0  0  0  0  0  0  0  0  0
   47.3360   33.4050   37.7380 C   0  0  0  0  0  0  0  0  0  0  0  0
   48.2780   34.5070   37.3040 C   0  0  0  0  0  0  0  0  0  0  0  0
   48.1100   32.0980   37.5790 C   0  0  0  0  0  0  0  0  0  0  0  0
   46.1270   33.3000   36.8300 C   0  0  0  0  0  0  0  0  0  0  0  0
   43.9583   33.7702   42.9731 H   0  0  0  0  0  0  0  0  0  0  0  0
   44.2620   36.5598   42.7721 H   0  0  0  0  0  0  0  0  0  0  0  0
   45.3334   36.5932   43.9069 H   0  0  0  0  0  0  0  0  0  0  0  0
   45.9421   35.1646   41.0638 H   0  0  0  0  0  0  0  0  0  0  0  0
   45.1902   31.8205   42.8556 H   0  0  0  0  0  0  0  0  0  0  0  0
   46.0166   30.2426   44.6321 H   0  0  0  0  0  0  0  0  0  0  0  0
   46.3800   33.5350   47.3229 H   0  0  0  0  0  0  0  0  0  0  0  0
   49.3889   33.9248   41.3481 H   0  0  0  0  0  0  0  0  0  0  0  0
   47.8750   32.0318   42.2362 H   0  0  0  0  0  0  0  0  0  0  0  0
   46.9907   32.1967   40.6813 H   0  0  0  0  0  0  0  0  0  0  0  0
   48.7359   31.7713   40.6813 H   0  0  0  0  0  0  0  0  0  0  0  0
   47.7567   35.4226   39.8328 H   0  0  0  0  0  0  0  0  0  0  0  0
   48.9380   34.2279   39.1488 H   0  0  0  0  0  0  0  0  0  0  0  0
   46.7905   32.7431   39.5931 H   0  0  0  0  0  0  0  0  0  0  0  0
   48.6995   35.0001   38.1924 H   0  0  0  0  0  0  0  0  0  0  0  0
   49.0923   34.0774   36.7021 H   0  0  0  0  0  0  0  0  0  0  0  0
   47.7269   35.2446   36.7021 H   0  0  0  0  0  0  0  0  0  0  0  0
   48.3508   31.6913   38.5723 H   0  0  0  0  0  0  0  0  0  0  0  0
   47.4955   31.3730   37.0251 H   0  0  0  0  0  0  0  0  0  0  0  0
   49.0411   32.2883   37.0251 H   0  0  0  0  0  0  0  0  0  0  0  0
   45.2155   33.2208   37.4407 H   0  0  0  0  0  0  0  0  0  0  0  0
   46.0663   34.1963   36.1951 H   0  0  0  0  0  0  0  0  0  0  0  0
   46.2217   32.4067   36.1951 H   0  0  0  0  0  0  0  0  0  0  0  0
  1  2  1  0
  1  4  1  0
  3 10  1  0
  3  1  1  0
  3  2  1  0
  4  9  1  0
  5  4  2  0
  5  6  1  0
  6  7  2  0
  7  8  1  0
  9  8  2  0
 11 12  1  0
 11 10  1  0
 13 11  1  0
 14 13  1  0
 15 14  1  0
 16 15  1  0
 17 15  1  0
 18 15  1  0
  1 19  1  6
  2 20  1  0
  2 21  1  0
  3 22  1  6
  5 23  1  0
  6 24  1  0
  8 25  1  0
 11 26  1  1
 12 27  1  0
 12 28  1  0
 12 29  1  0
 13 30  1  0
 13 31  1  0
 14 32  1  0
 16 33  1  0
 16 34  1  0
 16 35  1  0
 17 36  1  0
 17 37  1  0
 17 38  1  0
 18 39  1  0
 18 40  1  0
 18 41  1  0
M  ISO  8  19  13  20  13  21  13  22  13  23  14  24  14  25  14  26   8
M  ISO  8  27   8  28   8  29   8  30   8  31   8  32   5  33   8  34   8
M  ISO  7  35   8  36   8  37   8  38   8  39   8  40   8  41   8
M  END
>  <minimizedAffinity>  (1) 
-3.95182562

>  <minimizedRMSD>  (1) 
1.02711201

$$$$
