
     RDKit          3D

 35 36  0  0  1  0  0  0  0  0999 V2000
   44.9450   34.3520   43.1830 C   0  0  1  0  0  0  0  0  0  0  0  0
   45.1570   35.8080   43.2380 C   0  0  0  0  0  0  0  0  0  0  0  0
   45.9710   35.0380   42.3260 C   0  0  1  0  0  0  0  0  0  0  0  0
   45.3950   33.4720   44.3180 C   0  0  0  0  0  0  0  0  0  0  0  0
   45.5710   32.1240   43.9940 C   0  0  0  0  0  0  0  0  0  0  0  0
   45.9610   31.2580   44.9990 C   0  0  0  0  0  0  0  0  0  0  0  0
   46.1510   31.7730   46.2480 N   0  0  0  0  0  0  0  0  0  0  0  0
   45.9690   33.0910   46.5150 C   0  0  0  0  0  0  0  0  0  0  0  0
   45.5930   33.9500   45.5650 N   0  0  0  0  0  0  0  0  0  0  0  0
   47.6830   34.7510   42.7220 S   0  0  0  0  0  0  0  0  0  0  0  0
   48.5550   33.7920   41.4770 C   0  0  1  0  0  0  0  0  0  0  0  0
   48.4710   32.2930   41.7020 C   0  0  0  0  0  0  0  0  0  0  0  0
   48.1430   34.1220   40.0700 C   0  0  0  0  0  0  0  0  0  0  0  0
   48.8170   33.2910   39.0970 N   0  0  0  0  0  0  0  0  0  0  0  0
   48.2110   33.4470   37.5110 S   0  0  0  0  0  0  0  0  0  0  0  0
   46.5210   32.9050   37.4940 C   0  0  0  0  0  0  0  0  0  0  0  0
   48.3000   34.9000   37.1380 O   0  0  0  0  0  0  0  0  0  0  0  0
   49.0040   32.5870   36.5690 O   0  0  0  0  0  0  0  0  0  0  0  0
   44.0816   33.6919   43.0134 H   0  0  0  0  0  0  0  0  0  0  0  0
   44.3869   36.4856   42.8409 H   0  0  0  0  0  0  0  0  0  0  0  0
   45.3776   36.5198   44.0471 H   0  0  0  0  0  0  0  0  0  0  0  0
   46.1863   35.1021   41.2492 H   0  0  0  0  0  0  0  0  0  0  0  0
   45.4040   31.7622   42.9687 H   0  0  0  0  0  0  0  0  0  0  0  0
   46.1133   30.1873   44.7977 H   0  0  0  0  0  0  0  0  0  0  0  0
   46.1352   33.4600   47.5379 H   0  0  0  0  0  0  0  0  0  0  0  0
   49.6056   34.0940   41.5999 H   0  0  0  0  0  0  0  0  0  0  0  0
   48.4593   32.0844   42.7820 H   0  0  0  0  0  0  0  0  0  0  0  0
   47.5497   31.9045   41.2435 H   0  0  0  0  0  0  0  0  0  0  0  0
   49.3431   31.8040   41.2435 H   0  0  0  0  0  0  0  0  0  0  0  0
   47.0576   33.9718   39.9737 H   0  0  0  0  0  0  0  0  0  0  0  0
   48.4201   35.1680   39.8723 H   0  0  0  0  0  0  0  0  0  0  0  0
   49.8148   33.5466   39.0888 H   0  0  0  0  0  0  0  0  0  0  0  0
   46.1624   32.7900   38.5275 H   0  0  0  0  0  0  0  0  0  0  0  0
   45.9023   33.6498   36.9720 H   0  0  0  0  0  0  0  0  0  0  0  0
   46.4509   31.9393   36.9720 H   0  0  0  0  0  0  0  0  0  0  0  0
  1  2  1  0
  1  4  1  0
  3 10  1  0
  3  1  1  0
  3  2  1  0
  4  9  1  0
  5  4  2  0
  5  6  1  0
  6  7  2  0
  7  8  1  0
  9  8  2  0
 11 12  1  0
 11 10  1  0
 13 11  1  0
 14 13  1  0
 15 14  1  0
 16 15  1  0
 17 15  2  0
 18 15  2  0
  1 19  1  6
  2 20  1  0
  2 21  1  0
  3 22  1  6
  5 23  1  0
  6 24  1  0
  8 25  1  0
 11 26  1  6
 12 27  1  0
 12 28  1  0
 12 29  1  0
 13 30  1  0
 13 31  1  0
 14 32  1  0
 16 33  1  0
 16 34  1  0
 16 35  1  0
M  ISO  8  19  13  20  13  21  13  22  13  23  14  24  14  25  14  26   8
M  ISO  8  27   8  28   8  29   8  30   8  31   8  32   5  33   8  34   8
M  ISO  1  35   8
M  END
>  <minimizedAffinity>  (1) 
-3.87531757

>  <minimizedRMSD>  (1) 
0.728107095

$$$$
