
     RDKit          3D

 32 33  0  0  1  0  0  0  0  0999 V2000
   44.8950   34.4120   43.2540 C   0  0  1  0  0  0  0  0  0  0  0  0
   45.1720   35.8570   43.3080 C   0  0  0  0  0  0  0  0  0  0  0  0
   45.8740   35.0660   42.3240 C   0  0  1  0  0  0  0  0  0  0  0  0
   45.3940   33.4970   44.3380 C   0  0  0  0  0  0  0  0  0  0  0  0
   45.5340   32.1580   43.9660 C   0  0  0  0  0  0  0  0  0  0  0  0
   45.9660   31.2580   44.9240 C   0  0  0  0  0  0  0  0  0  0  0  0
   46.2270   31.7390   46.1690 N   0  0  0  0  0  0  0  0  0  0  0  0
   46.0790   33.0450   46.4900 C   0  0  0  0  0  0  0  0  0  0  0  0
   45.6640   33.9360   45.5860 N   0  0  0  0  0  0  0  0  0  0  0  0
   47.6000   34.7030   42.5820 S   0  0  0  0  0  0  0  0  0  0  0  0
   48.3680   33.8620   41.1920 C   0  0  1  0  0  0  0  0  0  0  0  0
   48.0460   32.3760   41.1330 C   0  0  0  0  0  0  0  0  0  0  0  0
   48.0650   34.4880   39.8640 C   0  0  0  0  0  0  0  0  0  0  0  0
   48.7440   33.8060   38.7720 N   0  0  0  0  0  0  0  0  0  0  0  0
   48.3900   34.4740   37.5340 C   0  0  0  0  0  0  0  0  0  0  0  0
   43.9938   33.7903   43.1482 H   0  0  0  0  0  0  0  0  0  0  0  0
   44.4015   36.5718   42.9833 H   0  0  0  0  0  0  0  0  0  0  0  0
   45.4882   36.5476   44.1037 H   0  0  0  0  0  0  0  0  0  0  0  0
   46.0023   35.1354   41.2337 H   0  0  0  0  0  0  0  0  0  0  0  0
   45.3074   31.8286   42.9412 H   0  0  0  0  0  0  0  0  0  0  0  0
   46.0938   30.1914   44.6871 H   0  0  0  0  0  0  0  0  0  0  0  0
   46.3045   33.3787   47.5136 H   0  0  0  0  0  0  0  0  0  0  0  0
   49.4446   33.9785   41.3854 H   0  0  0  0  0  0  0  0  0  0  0  0
   47.9599   31.9786   42.1551 H   0  0  0  0  0  0  0  0  0  0  0  0
   47.0949   32.2278   40.6006 H   0  0  0  0  0  0  0  0  0  0  0  0
   48.8504   31.8474   40.6006 H   0  0  0  0  0  0  0  0  0  0  0  0
   46.9797   34.4440   39.6900 H   0  0  0  0  0  0  0  0  0  0  0  0
   48.4221   35.5281   39.8893 H   0  0  0  0  0  0  0  0  0  0  0  0
   49.7633   33.8497   38.9132 H   0  0  0  0  0  0  0  0  0  0  0  0
   47.8861   35.4249   37.7616 H   0  0  0  0  0  0  0  0  0  0  0  0
   49.3013   34.6724   36.9508 H   0  0  0  0  0  0  0  0  0  0  0  0
   47.7141   33.8313   36.9508 H   0  0  0  0  0  0  0  0  0  0  0  0
  1  2  1  0
  1  4  1  0
  3 10  1  0
  3  1  1  0
  3  2  1  0
  4  9  1  0
  5  4  2  0
  5  6  1  0
  6  7  2  0
  7  8  1  0
  9  8  2  0
 11 10  1  0
 12 11  1  0
 13 11  1  0
 14 13  1  0
 15 14  1  0
  1 16  1  6
  2 17  1  0
  2 18  1  0
  3 19  1  6
  5 20  1  0
  6 21  1  0
  8 22  1  0
 11 23  1  1
 12 24  1  0
 12 25  1  0
 12 26  1  0
 13 27  1  0
 13 28  1  0
 14 29  1  0
 15 30  1  0
 15 31  1  0
 15 32  1  0
M  ISO  8  16  13  17  13  18  13  19  13  20  14  21  14  22  14  23   8
M  ISO  8  24   8  25   8  26   8  27   8  28   8  29   5  30   8  31   8
M  ISO  1  32   8
M  END
>  <minimizedAffinity>  (1) 
-3.68464279

>  <minimizedRMSD>  (1) 
0.179544762

$$$$
