
     RDKit          3D

 50 54  0  0  1  0  0  0  0  0999 V2000
   47.3000   35.1510   41.5480 C   0  0  1  0  0  0  0  0  0  0  0  0
   48.7340   35.3450   41.6900 C   0  0  0  0  0  0  0  0  0  0  0  0
   48.2670   34.8130   40.4320 C   0  0  1  0  0  0  0  0  0  0  0  0
   46.5820   34.0300   42.2630 C   0  0  0  0  0  0  0  0  0  0  0  0
   45.3460   33.6920   41.7240 C   0  0  0  0  0  0  0  0  0  0  0  0
   44.6410   32.6860   42.3660 C   0  0  0  0  0  0  0  0  0  0  0  0
   45.1850   32.0890   43.4770 N   0  0  0  0  0  0  0  0  0  0  0  0
   46.4080   32.4690   43.9560 C   0  0  0  0  0  0  0  0  0  0  0  0
   47.1150   33.4330   43.3640 N   0  0  0  0  0  0  0  0  0  0  0  0
   46.8670   31.7750   45.1140 N   0  0  0  0  0  0  0  0  0  0  0  0
   47.7620   30.7480   45.1620 C   0  0  0  0  0  0  0  0  0  0  0  0
   47.9280   30.3660   46.4630 N   0  0  0  0  0  0  0  0  0  0  0  0
   47.1400   31.1520   47.2090 C   0  0  0  0  0  0  0  0  0  0  0  0
   46.8540   31.2770   48.5540 C   0  0  0  0  0  0  0  0  0  0  0  0
   45.9910   32.1870   49.0410 N   0  0  0  0  0  0  0  0  0  0  0  0
   45.3500   33.0430   48.1920 C   0  0  0  0  0  0  0  0  0  0  0  0
   45.6010   32.9540   46.8730 N   0  0  0  0  0  0  0  0  0  0  0  0
   46.4650   32.0430   46.3880 C   0  0  0  0  0  0  0  0  0  0  0  0
   47.4900   30.4150   49.4800 N   0  0  0  0  0  0  0  0  0  0  0  0
   48.4900   33.1020   40.0500 S   0  0  0  0  0  0  0  0  0  0  0  0
   47.8920   32.6280   38.4170 C   0  0  1  0  0  0  0  0  0  0  0  0
   48.0010   31.1460   38.1320 C   0  0  0  0  0  0  0  0  0  0  0  0
   46.4750   33.1000   38.1830 C   0  0  0  0  0  0  0  0  0  0  0  0
   46.2760   33.6010   36.8690 N   0  0  0  0  0  0  0  0  0  0  0  0
   45.4930   32.6620   36.1230 C   0  0  0  0  0  0  0  0  0  0  0  0
   45.6550   32.4060   34.7940 C   0  0  0  0  0  0  0  0  0  0  0  0
   44.7820   31.4390   34.2880 C   0  0  0  0  0  0  0  0  0  0  0  0
   43.8690   30.8210   35.0460 N   0  0  0  0  0  0  0  0  0  0  0  0
   43.7420   31.1070   36.3740 C   0  0  0  0  0  0  0  0  0  0  0  0
   44.5680   32.0450   36.9220 N   0  0  0  0  0  0  0  0  0  0  0  0
   46.4148   35.7914   41.6757 H   0  0  0  0  0  0  0  0  0  0  0  0
   49.1410   36.3662   41.7283 H   0  0  0  0  0  0  0  0  0  0  0  0
   49.4766   35.0081   42.4283 H   0  0  0  0  0  0  0  0  0  0  0  0
   48.4097   35.0978   39.3791 H   0  0  0  0  0  0  0  0  0  0  0  0
   44.9473   34.1978   40.8323 H   0  0  0  0  0  0  0  0  0  0  0  0
   43.6570   32.3693   41.9900 H   0  0  0  0  0  0  0  0  0  0  0  0
   48.2682   30.2998   44.2943 H   0  0  0  0  0  0  0  0  0  0  0  0
   44.6421   33.7909   48.5788 H   0  0  0  0  0  0  0  0  0  0  0  0
   47.2850   30.4984   50.4859 H   0  0  0  0  0  0  0  0  0  0  0  0
   48.1577   29.7046   49.1476 H   0  0  0  0  0  0  0  0  0  0  0  0
   48.5630   33.1365   37.7091 H   0  0  0  0  0  0  0  0  0  0  0  0
   48.0417   30.5921   39.0815 H   0  0  0  0  0  0  0  0  0  0  0  0
   47.1245   30.8184   37.5537 H   0  0  0  0  0  0  0  0  0  0  0  0
   48.9160   30.9502   37.5537 H   0  0  0  0  0  0  0  0  0  0  0  0
   45.7907   32.2541   38.3449 H   0  0  0  0  0  0  0  0  0  0  0  0
   46.2774   33.9222   38.8865 H   0  0  0  0  0  0  0  0  0  0  0  0
   46.6370   34.4964   36.5100 H   0  0  0  0  0  0  0  0  0  0  0  0
   46.4071   32.9159   34.1740 H   0  0  0  0  0  0  0  0  0  0  0  0
   44.8483   31.1750   33.2222 H   0  0  0  0  0  0  0  0  0  0  0  0
   42.9898   30.5924   36.9899 H   0  0  0  0  0  0  0  0  0  0  0  0
  1  2  1  0
  1  4  1  0
  3  1  1  0
  3  2  1  0
  4  9  1  0
  5  4  2  0
  5  6  1  0
  6  7  2  0
  7  8  1  0
  8 10  1  0
  9  8  2  0
 10 11  1  0
 10 18  1  0
 11 12  2  0
 12 13  1  0
 13 14  2  0
 14 15  1  0
 14 19  1  0
 16 15  2  0
 17 16  1  0
 18 17  2  0
 18 13  1  0
 20  3  1  0
 21 20  1  0
 22 21  1  0
 23 21  1  0
 24 23  1  0
 25 24  1  0
 25 30  1  0
 26 25  2  0
 27 26  1  0
 27 28  2  0
 28 29  1  0
 29 30  2  0
  1 31  1  6
  2 32  1  0
  2 33  1  0
  3 34  1  6
  5 35  1  0
  6 36  1  0
 11 37  1  0
 16 38  1  0
 19 39  1  0
 19 40  1  0
 21 41  1  6
 22 42  1  0
 22 43  1  0
 22 44  1  0
 23 45  1  0
 23 46  1  0
 24 47  1  0
 26 48  1  0
 27 49  1  0
 29 50  1  0
M  ISO  8  31  13  32  13  33  13  34  13  35  14  36  14  37  14  38  14
M  ISO  8  41   8  42   8  43   8  44   8  45   8  46   8  48  14  49  14
M  ISO  1  50  14
M  END
>  <minimizedAffinity>  (1) 
-5.79978085

>  <minimizedRMSD>  (1) 
3.33606339

$$$$
