
     RDKit          3D

 51 54  0  0  1  0  0  0  0  0999 V2000
   44.9790   34.1970   43.2260 C   0  0  1  0  0  0  0  0  0  0  0  0
   45.2670   35.5540   43.6630 C   0  0  0  0  0  0  0  0  0  0  0  0
   46.0450   35.0450   42.5590 C   0  0  1  0  0  0  0  0  0  0  0  0
   45.4060   33.0030   44.0540 C   0  0  0  0  0  0  0  0  0  0  0  0
   45.3680   31.7870   43.3780 C   0  0  0  0  0  0  0  0  0  0  0  0
   45.7250   30.6590   44.0980 C   0  0  0  0  0  0  0  0  0  0  0  0
   46.0900   30.7920   45.4150 N   0  0  0  0  0  0  0  0  0  0  0  0
   46.1060   32.0190   46.0200 C   0  0  0  0  0  0  0  0  0  0  0  0
   45.7700   33.1280   45.3600 N   0  0  0  0  0  0  0  0  0  0  0  0
   46.4940   32.0900   47.3860 N   0  0  0  0  0  0  0  0  0  0  0  0
   45.6050   32.6060   48.4090 C   0  0  0  0  0  0  0  0  0  0  0  0
   45.2080   31.4050   49.2680 C   0  0  0  0  0  0  0  0  0  0  0  0
   46.2250   30.4000   49.2240 N   0  0  0  0  0  0  0  0  0  0  0  0
   47.5740   30.9140   49.1400 C   0  0  0  0  0  0  0  0  0  0  0  0
   47.8050   31.6470   47.8190 C   0  0  0  0  0  0  0  0  0  0  0  0
   47.7280   34.5630   42.7940 S   0  0  0  0  0  0  0  0  0  0  0  0
   48.5550   34.0200   41.2910 C   0  0  1  0  0  0  0  0  0  0  0  0
   48.9460   32.5580   41.2980 C   0  0  0  0  0  0  0  0  0  0  0  0
   47.7360   34.3320   40.0570 C   0  0  0  0  0  0  0  0  0  0  0  0
   48.5390   34.6570   38.9330 N   0  0  0  0  0  0  0  0  0  0  0  0
   48.1070   33.8810   37.8090 C   0  0  0  0  0  0  0  0  0  0  0  0
   48.9010   33.5300   36.7620 C   0  0  0  0  0  0  0  0  0  0  0  0
   48.2770   32.7620   35.7870 C   0  0  0  0  0  0  0  0  0  0  0  0
   46.9880   32.3980   35.8780 N   0  0  0  0  0  0  0  0  0  0  0  0
   46.2220   32.7700   36.9450 C   0  0  0  0  0  0  0  0  0  0  0  0
   46.8010   33.5280   37.9280 N   0  0  0  0  0  0  0  0  0  0  0  0
   44.0725   33.6577   42.9138 H   0  0  0  0  0  0  0  0  0  0  0  0
   44.5280   36.3487   43.4833 H   0  0  0  0  0  0  0  0  0  0  0  0
   45.5285   35.9992   44.6343 H   0  0  0  0  0  0  0  0  0  0  0  0
   46.2643   35.4086   41.5443 H   0  0  0  0  0  0  0  0  0  0  0  0
   45.0685   31.7247   42.3214 H   0  0  0  0  0  0  0  0  0  0  0  0
   45.7162   29.6681   43.6204 H   0  0  0  0  0  0  0  0  0  0  0  0
   46.1230   33.3590   49.0211 H   0  0  0  0  0  0  0  0  0  0  0  0
   44.7237   33.0943   47.9676 H   0  0  0  0  0  0  0  0  0  0  0  0
   45.0690   31.7341   50.3084 H   0  0  0  0  0  0  0  0  0  0  0  0
   44.2716   30.9812   48.8762 H   0  0  0  0  0  0  0  0  0  0  0  0
   46.1508   29.8298   50.0786 H   0  0  0  0  0  0  0  0  0  0  0  0
   47.7443   31.6126   49.9725 H   0  0  0  0  0  0  0  0  0  0  0  0
   48.2735   30.0669   49.1952 H   0  0  0  0  0  0  0  0  0  0  0  0
   48.2462   30.9677   47.0747 H   0  0  0  0  0  0  0  0  0  0  0  0
   48.5017   32.4900   47.9371 H   0  0  0  0  0  0  0  0  0  0  0  0
   49.4907   34.5975   41.2600 H   0  0  0  0  0  0  0  0  0  0  0  0
   49.0395   32.2084   42.3368 H   0  0  0  0  0  0  0  0  0  0  0  0
   48.1737   31.9694   40.7812 H   0  0  0  0  0  0  0  0  0  0  0  0
   49.9090   32.4335   40.7812 H   0  0  0  0  0  0  0  0  0  0  0  0
   47.1240   33.4521   39.8094 H   0  0  0  0  0  0  0  0  0  0  0  0
   47.1138   35.2100   40.2851 H   0  0  0  0  0  0  0  0  0  0  0  0
   49.3090   35.3411   38.9264 H   0  0  0  0  0  0  0  0  0  0  0  0
   49.9567   33.8312   36.6926 H   0  0  0  0  0  0  0  0  0  0  0  0
   48.8590   32.4412   34.9104 H   0  0  0  0  0  0  0  0  0  0  0  0
   45.1663   32.4686   37.0136 H   0  0  0  0  0  0  0  0  0  0  0  0
  1  2  1  0
  1  4  1  0
  3 16  1  0
  3  1  1  0
  3  2  1  0
  4  9  1  0
  5  4  2  0
  5  6  1  0
  6  7  2  0
  7  8  1  0
  8 10  1  0
  9  8  2  0
 10 15  1  0
 10 11  1  0
 11 12  1  0
 13 12  1  0
 14 13  1  0
 15 14  1  0
 17 18  1  0
 17 16  1  0
 19 17  1  0
 20 19  1  0
 21 26  1  0
 21 20  1  0
 22 21  2  0
 23 24  2  0
 23 22  1  0
 24 25  1  0
 25 26  2  0
  1 27  1  6
  2 28  1  0
  2 29  1  0
  3 30  1  6
  5 31  1  0
  6 32  1  0
 11 33  1  0
 11 34  1  0
 12 35  1  0
 12 36  1  0
 13 37  1  0
 14 38  1  0
 14 39  1  0
 15 40  1  0
 15 41  1  0
 17 42  1  6
 18 43  1  0
 18 44  1  0
 18 45  1  0
 19 46  1  0
 19 47  1  0
 20 48  1  0
 22 49  1  0
 23 50  1  0
 25 51  1  0
M  ISO  8  27  13  28  13  29  13  30  13  31  14  32  14  33  13  34  13
M  ISO  8  35  13  36  13  37   5  38  13  39  13  40  13  41  13  42   8
M  ISO  8  43   8  44   8  45   8  46   8  47   8  49  14  50  14  51  14
M  END
>  <minimizedAffinity>  (1) 
-5.74650335

>  <minimizedRMSD>  (1) 
0.887143254

$$$$
