
     RDKit          3D

 40 42  0  0  1  0  0  0  0  0999 V2000
   48.4480   34.0030   41.2550 C   0  0  1  0  0  0  0  0  0  0  0  0
   48.6860   32.5110   41.3650 C   0  0  0  0  0  0  0  0  0  0  0  0
   47.6870   34.3150   39.9870 C   0  0  0  0  0  0  0  0  0  0  0  0
   48.5380   34.5930   38.8860 N   0  0  0  0  0  0  0  0  0  0  0  0
   48.1010   33.8340   37.7510 C   0  0  0  0  0  0  0  0  0  0  0  0
   48.8990   33.4810   36.7050 C   0  0  0  0  0  0  0  0  0  0  0  0
   48.2670   32.7240   35.7160 C   0  0  0  0  0  0  0  0  0  0  0  0
   46.9640   32.3800   35.8110 N   0  0  0  0  0  0  0  0  0  0  0  0
   46.2020   32.7540   36.8730 C   0  0  0  0  0  0  0  0  0  0  0  0
   46.7770   33.4940   37.8600 N   0  0  0  0  0  0  0  0  0  0  0  0
   47.6580   34.7210   42.7010 S   0  0  0  0  0  0  0  0  0  0  0  0
   44.9180   34.3880   43.2200 C   0  0  1  0  0  0  0  0  0  0  0  0
   45.2130   35.7810   43.5240 C   0  0  0  0  0  0  0  0  0  0  0  0
   45.9670   35.1720   42.4550 C   0  0  1  0  0  0  0  0  0  0  0  0
   45.3700   33.2850   44.1550 C   0  0  0  0  0  0  0  0  0  0  0  0
   45.3800   32.0140   43.5760 C   0  0  0  0  0  0  0  0  0  0  0  0
   45.7630   30.9570   44.3970 C   0  0  0  0  0  0  0  0  0  0  0  0
   46.1030   31.2130   45.7010 N   0  0  0  0  0  0  0  0  0  0  0  0
   46.0710   32.4870   46.2010 C   0  0  0  0  0  0  0  0  0  0  0  0
   45.7100   33.5260   45.4510 N   0  0  0  0  0  0  0  0  0  0  0  0
   46.4510   32.6390   47.5960 C   0  0  0  0  0  0  0  0  0  0  0  0
   47.6300   32.4000   47.9600 O   0  0  0  0  0  0  0  0  0  0  0  0
   45.4900   33.0540   48.5140 O   0  0  0  0  0  0  0  0  0  0  0  0
   49.4379   34.4803   41.2069 H   0  0  0  0  0  0  0  0  0  0  0  0
   48.7317   32.2242   42.4260 H   0  0  0  0  0  0  0  0  0  0  0  0
   47.8626   31.9712   40.8744 H   0  0  0  0  0  0  0  0  0  0  0  0
   49.6365   32.2542   40.8744 H   0  0  0  0  0  0  0  0  0  0  0  0
   47.0571   33.4495   39.7338 H   0  0  0  0  0  0  0  0  0  0  0  0
   47.0867   35.2172   40.1760 H   0  0  0  0  0  0  0  0  0  0  0  0
   49.3415   35.2373   38.9001 H   0  0  0  0  0  0  0  0  0  0  0  0
   49.9587   33.7697   36.6440 H   0  0  0  0  0  0  0  0  0  0  0  0
   48.8446   32.3998   34.8378 H   0  0  0  0  0  0  0  0  0  0  0  0
   45.1425   32.4645   36.9333 H   0  0  0  0  0  0  0  0  0  0  0  0
   44.0087   33.8195   42.9748 H   0  0  0  0  0  0  0  0  0  0  0  0
   44.4687   36.5558   43.2882 H   0  0  0  0  0  0  0  0  0  0  0  0
   45.4950   36.3140   44.4440 H   0  0  0  0  0  0  0  0  0  0  0  0
   46.1621   35.4374   41.4055 H   0  0  0  0  0  0  0  0  0  0  0  0
   45.0994   31.8561   42.5242 H   0  0  0  0  0  0  0  0  0  0  0  0
   45.7926   29.9296   44.0050 H   0  0  0  0  0  0  0  0  0  0  0  0
   45.7311   33.1628   49.4680 H   0  0  0  0  0  0  0  0  0  0  0  0
  1  2  1  0
  1 11  1  0
  3  1  1  0
  4  3  1  0
  5 10  1  0
  5  4  1  0
  6  5  2  0
  7  8  2  0
  7  6  1  0
  8  9  1  0
  9 10  2  0
 12 13  1  0
 12 15  1  0
 14 11  1  0
 14 12  1  0
 14 13  1  0
 15 20  1  0
 16 15  2  0
 16 17  1  0
 17 18  2  0
 18 19  1  0
 19 21  1  0
 20 19  2  0
 21 22  2  0
 21 23  1  0
  1 24  1  6
  2 25  1  0
  2 26  1  0
  2 27  1  0
  3 28  1  0
  3 29  1  0
  4 30  1  0
  6 31  1  0
  7 32  1  0
  9 33  1  0
 12 34  1  6
 13 35  1  0
 13 36  1  0
 14 37  1  6
 16 38  1  0
 17 39  1  0
 23 40  1  0
M  ISO  8  24   8  25   8  26   8  27   8  28   8  29   8  31  14  32  14
M  ISO  8  33  14  34  13  35  13  36  13  37  13  38  14  39  14  40   3
M  END
>  <minimizedAffinity>  (1) 
-5.03305435

>  <minimizedRMSD>  (1) 
0.491224676

$$$$
