
     RDKit          3D

 23 23  0  0  0  0  0  0  0  0999 V2000
   46.7790   34.7490   41.9040 C   0  0  0  0  0  0  0  0  0  0  0  0
   46.1120   34.7730   43.2150 C   0  0  0  0  0  0  0  0  0  0  0  0
   45.2350   35.8660   43.3520 C   0  0  0  0  0  0  0  0  0  0  0  0
   44.5310   36.0210   44.5620 C   0  0  0  0  0  0  0  0  0  0  0  0
   44.7340   35.1090   45.5330 N   0  0  0  0  0  0  0  0  0  0  0  0
   45.5950   34.0630   45.3620 C   0  0  0  0  0  0  0  0  0  0  0  0
   46.2640   33.9040   44.2290 N   0  0  0  0  0  0  0  0  0  0  0  0
   48.1530   35.4060   41.9880 C   0  0  0  0  0  0  0  0  0  0  0  0
   48.9980   34.5980   42.8390 N   0  0  0  0  0  0  0  0  0  0  0  0
   49.9460   33.7910   42.1640 C   0  0  0  0  0  0  0  0  0  0  0  0
   49.8350   33.2760   40.9940 N   0  0  0  0  0  0  0  0  0  0  0  0
   51.2260   33.3920   42.6760 N   0  0  0  0  0  0  0  0  0  0  0  0
   48.9890   33.4280   40.4260 H   0  0  0  0  0  0  0  0  0  0  0  0
   46.1618   35.2939   41.1745 H   0  0  0  0  0  0  0  0  0  0  0  0
   46.9052   33.7024   41.5897 H   0  0  0  0  0  0  0  0  0  0  0  0
   45.1023   36.5848   42.5300 H   0  0  0  0  0  0  0  0  0  0  0  0
   43.8365   36.8611   44.7099 H   0  0  0  0  0  0  0  0  0  0  0  0
   45.7358   33.3398   46.1788 H   0  0  0  0  0  0  0  0  0  0  0  0
   48.5944   35.4724   40.9826 H   0  0  0  0  0  0  0  0  0  0  0  0
   48.0604   36.4203   42.4034 H   0  0  0  0  0  0  0  0  0  0  0  0
   48.9160   34.6087   43.8657 H   0  0  0  0  0  0  0  0  0  0  0  0
   51.8474   32.8009   42.1055 H   0  0  0  0  0  0  0  0  0  0  0  0
   51.5233   33.6967   43.6139 H   0  0  0  0  0  0  0  0  0  0  0  0
  1  8  1  0
  1  2  1  0
  2  3  2  0
  2  7  1  0
  3  4  1  0
  4  5  2  0
  6  5  1  0
  7  6  2  0
  8  9  1  0
 10 12  1  0
 10  9  1  0
 11 10  2  0
 13 11  1  0
  1 14  1  0
  1 15  1  0
  3 16  1  0
  4 17  1  0
  6 18  1  0
  8 19  1  0
  8 20  1  0
  9 21  1  0
 12 22  1  0
 12 23  1  0
M  ISO  7  14   8  15   8  16  14  17  14  18  14  19   8  20   8
M  END
>  <minimizedAffinity>  (1) 
-4.58677292

>  <minimizedRMSD>  (1) 
2.7912519

$$$$
