
     RDKit          3D

 23 24  0  0  0  0  0  0  0  0999 V2000
   44.7120   34.7070   41.2700 C   0  0  0  0  0  0  0  0  0  0  0  0
   44.8750   34.6090   42.7270 C   0  0  0  0  0  0  0  0  0  0  0  0
   44.4430   35.7810   43.3810 C   0  0  0  0  0  0  0  0  0  0  0  0
   44.5350   35.8420   44.7820 C   0  0  0  0  0  0  0  0  0  0  0  0
   45.0340   34.7710   45.4370 N   0  0  0  0  0  0  0  0  0  0  0  0
   45.4440   33.6490   44.7570 C   0  0  0  0  0  0  0  0  0  0  0  0
   45.3540   33.5970   43.4310 N   0  0  0  0  0  0  0  0  0  0  0  0
   43.5060   33.9130   40.7930 C   0  0  0  0  0  0  0  0  0  0  0  0
   42.6900   34.6430   39.8190 C   0  0  0  0  0  0  0  0  0  0  0  0
   41.4190   35.1230   40.1600 C   0  0  0  0  0  0  0  0  0  0  0  0
   40.8840   35.7520   39.0980 N   0  0  0  0  0  0  0  0  0  0  0  0
   41.7940   35.6810   38.0870 C   0  0  0  0  0  0  0  0  0  0  0  0
   42.8770   35.0070   38.5410 N   0  0  0  0  0  0  0  0  0  0  0  0
   44.5767   35.7635   40.9951 H   0  0  0  0  0  0  0  0  0  0  0  0
   45.6115   34.2919   40.7919 H   0  0  0  0  0  0  0  0  0  0  0  0
   44.0425   36.6295   42.8069 H   0  0  0  0  0  0  0  0  0  0  0  0
   44.2093   36.7380   45.3307 H   0  0  0  0  0  0  0  0  0  0  0  0
   45.8485   32.7899   45.3122 H   0  0  0  0  0  0  0  0  0  0  0  0
   43.8611   32.9826   40.3259 H   0  0  0  0  0  0  0  0  0  0  0  0
   42.8733   33.7156   41.6709 H   0  0  0  0  0  0  0  0  0  0  0  0
   40.9351   35.0044   41.1407 H   0  0  0  0  0  0  0  0  0  0  0  0
   41.6705   36.0988   37.0769 H   0  0  0  0  0  0  0  0  0  0  0  0
   43.7209   34.8035   37.9866 H   0  0  0  0  0  0  0  0  0  0  0  0
  1  2  1  0
  2  3  2  0
  2  7  1  0
  3  4  1  0
  4  5  2  0
  6  5  1  0
  7  6  2  0
  8  1  1  0
  9 10  2  0
  9  8  1  0
 11 10  1  0
 12 13  1  0
 12 11  2  0
 13  9  1  0
  1 14  1  0
  1 15  1  0
  3 16  1  0
  4 17  1  0
  6 18  1  0
  8 19  1  0
  8 20  1  0
 10 21  1  0
 12 22  1  0
 13 23  1  0
M  ISO  8  14   8  15   8  16  14  17  14  18  14  19   8  20   8  21  14
M  ISO  2  22  14  23   9
M  END
>  <minimizedAffinity>  (1) 
-3.94310403

>  <minimizedRMSD>  (1) 
5.60875607

$$$$
