
     RDKit          3D

 41 42  0  0  1  0  0  0  0  0999 V2000
   46.4900   34.8980   41.5000 N   0  0  0  0  0  0  0  0  0  0  0  0
   45.5070   34.1380   40.9610 C   0  0  0  0  0  0  0  0  0  0  0  0
   45.9790   32.9160   40.1980 C   0  0  0  0  0  0  0  0  0  0  0  0
   47.3010   32.3620   40.5240 C   0  0  0  0  0  0  0  0  0  0  0  0
   48.1460   33.2510   41.3770 C   0  0  0  0  0  0  0  0  0  0  0  0
   47.8110   34.6770   41.0690 C   0  0  2  0  0  0  0  0  0  0  0  0
   46.3850   35.0550   42.8830 C   0  0  0  0  0  0  0  0  0  0  0  0
   45.1740   34.5760   43.5190 C   0  0  1  0  0  0  0  0  0  0  0  0
   45.5280   33.8450   45.9330 C   0  0  0  0  0  0  0  0  0  0  0  0
   45.5000   33.5750   44.5380 C   0  0  0  0  0  0  0  0  0  0  0  0
   45.7900   32.2680   44.1140 C   0  0  0  0  0  0  0  0  0  0  0  0
   46.0800   31.3310   45.0360 N   0  0  0  0  0  0  0  0  0  0  0  0
   46.1000   31.6160   46.3610 C   0  0  0  0  0  0  0  0  0  0  0  0
   45.8190   32.8960   46.8190 N   0  0  0  0  0  0  0  0  0  0  0  0
   44.4120   35.7290   44.1180 C   0  0  0  0  0  0  0  0  0  0  0  0
   45.1210   37.3350   43.5990 S   0  0  0  0  0  0  0  0  0  0  0  0
   48.8270   35.5270   41.7320 C   0  0  0  0  0  0  0  0  0  0  0  0
   49.9250   34.7810   42.4160 C   0  0  0  0  0  0  0  0  0  0  0  0
   44.8538   33.7975   41.7779 H   0  0  0  0  0  0  0  0  0  0  0  0
   44.9959   34.7773   40.2262 H   0  0  0  0  0  0  0  0  0  0  0  0
   45.9910   33.1822   39.1308 H   0  0  0  0  0  0  0  0  0  0  0  0
   45.2725   32.1241   40.4872 H   0  0  0  0  0  0  0  0  0  0  0  0
   47.1543   31.4110   41.0569 H   0  0  0  0  0  0  0  0  0  0  0  0
   47.8353   32.2392   39.5704 H   0  0  0  0  0  0  0  0  0  0  0  0
   47.9444   33.0450   42.4386 H   0  0  0  0  0  0  0  0  0  0  0  0
   49.2103   33.0646   41.1709 H   0  0  0  0  0  0  0  0  0  0  0  0
   47.8436   34.9246   39.9977 H   0  0  0  0  0  0  0  0  0  0  0  0
   47.2311   34.5216   43.3407 H   0  0  0  0  0  0  0  0  0  0  0  0
   46.3746   36.1433   43.0424 H   0  0  0  0  0  0  0  0  0  0  0  0
   44.5349   34.0983   42.7617 H   0  0  0  0  0  0  0  0  0  0  0  0
   45.3040   34.8616   46.2883 H   0  0  0  0  0  0  0  0  0  0  0  0
   45.7803   32.0136   43.0439 H   0  0  0  0  0  0  0  0  0  0  0  0
   46.3422   30.8223   47.0831 H   0  0  0  0  0  0  0  0  0  0  0  0
   43.3641   35.6763   43.7877 H   0  0  0  0  0  0  0  0  0  0  0  0
   44.4784   35.6576   45.2137 H   0  0  0  0  0  0  0  0  0  0  0  0
   45.4458   38.0706   44.7082 H   0  0  0  0  0  0  0  0  0  0  0  0
   49.2798   36.1762   40.9681 H   0  0  0  0  0  0  0  0  0  0  0  0
   48.2964   36.0830   42.5190 H   0  0  0  0  0  0  0  0  0  0  0  0
   49.8017   34.8648   43.5058 H   0  0  0  0  0  0  0  0  0  0  0  0
   49.8863   33.7214   42.1230 H   0  0  0  0  0  0  0  0  0  0  0  0
   50.8958   35.2072   42.1230 H   0  0  0  0  0  0  0  0  0  0  0  0
  1  7  1  0
  2  1  1  0
  3  4  1  0
  3  2  1  0
  4  5  1  0
  6  5  1  0
  6  1  1  0
  6 17  1  0
  7  8  1  0
  8 15  1  0
  8 10  1  0
  9 14  2  0
 10  9  1  0
 11 10  2  0
 11 12  1  0
 12 13  2  0
 13 14  1  0
 16 15  1  0
 17 18  1  0
  2 19  1  0
  2 20  1  0
  3 21  1  0
  3 22  1  0
  4 23  1  0
  4 24  1  0
  5 25  1  0
  5 26  1  0
  6 27  1  6
  7 28  1  0
  7 29  1  0
  8 30  1  6
  9 31  1  0
 11 32  1  0
 13 33  1  0
 15 34  1  0
 15 35  1  0
 16 36  1  0
 17 37  1  0
 17 38  1  0
 18 39  1  0
 18 40  1  0
 18 41  1  0
M  ISO  8  19  13  20  13  21  13  22  13  23  13  24  13  25  13  26  13
M  ISO  8  27  13  28   8  29   8  30   8  31  14  32  14  33  14  34   8
M  ISO  7  35   8  36  11  37   8  38   8  39   8  40   8  41   8
M  END
>  <minimizedAffinity>  (1) 
-4.17502737

>  <minimizedRMSD>  (1) 
0.311434567

$$$$
