
     RDKit          3D

 26 27  0  0  0  0  0  0  0  0999 V2000
   47.3680   34.8210   40.9940 C   0  0  0  0  0  0  0  0  0  0  0  0
   48.2110   33.7350   40.5770 N   0  0  0  0  0  0  0  0  0  0  0  0
   48.1180   32.9170   39.5060 C   0  0  0  0  0  0  0  0  0  0  0  0
   49.1200   31.9850   39.4380 C   0  0  0  0  0  0  0  0  0  0  0  0
   49.8610   32.2590   40.5370 N   0  0  0  0  0  0  0  0  0  0  0  0
   49.3260   33.2820   41.1990 C   0  0  0  0  0  0  0  0  0  0  0  0
   49.9410   33.7980   42.4550 C   0  0  0  0  0  0  0  0  0  0  0  0
   49.0590   33.6450   43.5190 F   0  0  0  0  0  0  0  0  0  0  0  0
   50.3140   35.1090   42.3860 F   0  0  0  0  0  0  0  0  0  0  0  0
   51.0770   33.0870   42.7990 F   0  0  0  0  0  0  0  0  0  0  0  0
   45.9590   34.3680   41.3090 C   0  0  0  0  0  0  0  0  0  0  0  0
   45.6370   34.5110   42.7270 C   0  0  0  0  0  0  0  0  0  0  0  0
   45.0380   35.7360   43.0220 C   0  0  0  0  0  0  0  0  0  0  0  0
   44.6550   36.0600   44.3270 C   0  0  0  0  0  0  0  0  0  0  0  0
   44.8990   35.1220   45.2690 N   0  0  0  0  0  0  0  0  0  0  0  0
   45.4850   33.9300   44.9630 C   0  0  0  0  0  0  0  0  0  0  0  0
   45.8380   33.6550   43.7000 N   0  0  0  0  0  0  0  0  0  0  0  0
   47.3273   35.5670   40.1866 H   0  0  0  0  0  0  0  0  0  0  0  0
   47.7976   35.2458   41.9132 H   0  0  0  0  0  0  0  0  0  0  0  0
   47.3139   32.9921   38.7591 H   0  0  0  0  0  0  0  0  0  0  0  0
   49.2822   31.2064   38.6780 H   0  0  0  0  0  0  0  0  0  0  0  0
   45.2527   34.9740   40.7225 H   0  0  0  0  0  0  0  0  0  0  0  0
   45.8817   33.3014   41.0512 H   0  0  0  0  0  0  0  0  0  0  0  0
   44.8638   36.4604   42.2128 H   0  0  0  0  0  0  0  0  0  0  0  0
   44.1825   37.0225   44.5728 H   0  0  0  0  0  0  0  0  0  0  0  0
   45.6689   33.1906   45.7564 H   0  0  0  0  0  0  0  0  0  0  0  0
  1 11  1  0
  2  1  1  0
  2  6  1  0
  3  2  1  0
  4  3  2  0
  4  5  1  0
  5  6  2  0
  6  7  1  0
  7 10  1  0
  7  8  1  0
  9  7  1  0
 11 12  1  0
 12 13  2  0
 12 17  1  0
 13 14  1  0
 14 15  2  0
 16 15  1  0
 17 16  2  0
  1 18  1  0
  1 19  1  0
  3 20  1  0
  4 21  1  0
 11 22  1  0
 11 23  1  0
 13 24  1  0
 14 25  1  0
 16 26  1  0
M  ISO  8  18   8  19   8  20  14  21  14  22   8  23   8  24  14  25  14
M  ISO  1  26  14
M  END
>  <minimizedAffinity>  (1) 
-4.408885

>  <minimizedRMSD>  (1) 
1.61904442

$$$$
