
     RDKit          3D

 29 30  0  0  0  0  0  0  0  0999 V2000
   47.7040   34.9660   41.6540 C   0  0  0  0  0  0  0  0  0  0  0  0
   48.1580   34.0650   40.6420 N   0  0  0  0  0  0  0  0  0  0  0  0
   47.8960   34.0310   39.3330 C   0  0  0  0  0  0  0  0  0  0  0  0
   48.5340   32.9890   38.6830 C   0  0  0  0  0  0  0  0  0  0  0  0
   49.2310   32.3530   39.6780 N   0  0  0  0  0  0  0  0  0  0  0  0
   48.9930   33.0010   40.8120 C   0  0  0  0  0  0  0  0  0  0  0  0
   49.5550   32.6470   42.1640 C   0  0  0  0  0  0  0  0  0  0  0  0
   50.9160   33.2450   42.3440 C   0  0  0  0  0  0  0  0  0  0  0  0
   46.2000   34.9580   41.8000 C   0  0  0  0  0  0  0  0  0  0  0  0
   45.7830   34.8340   43.1950 C   0  0  0  0  0  0  0  0  0  0  0  0
   44.9540   35.8970   43.6150 C   0  0  0  0  0  0  0  0  0  0  0  0
   44.4710   35.9300   44.9150 C   0  0  0  0  0  0  0  0  0  0  0  0
   44.8140   34.9290   45.7470 N   0  0  0  0  0  0  0  0  0  0  0  0
   45.6280   33.9050   45.2990 C   0  0  0  0  0  0  0  0  0  0  0  0
   46.0940   33.8750   44.0410 N   0  0  0  0  0  0  0  0  0  0  0  0
   48.0280   35.9840   41.3918 H   0  0  0  0  0  0  0  0  0  0  0  0
   48.1356   34.6396   42.6117 H   0  0  0  0  0  0  0  0  0  0  0  0
   47.2420   34.7549   38.8249 H   0  0  0  0  0  0  0  0  0  0  0  0
   48.4917   32.7306   37.6146 H   0  0  0  0  0  0  0  0  0  0  0  0
   48.8846   33.0329   42.9461 H   0  0  0  0  0  0  0  0  0  0  0  0
   49.6368   31.5525   42.2377 H   0  0  0  0  0  0  0  0  0  0  0  0
   51.1351   33.3413   43.4176 H   0  0  0  0  0  0  0  0  0  0  0  0
   51.6676   32.5942   41.8733 H   0  0  0  0  0  0  0  0  0  0  0  0
   50.9450   34.2388   41.8733 H   0  0  0  0  0  0  0  0  0  0  0  0
   45.7992   35.8978   41.3924 H   0  0  0  0  0  0  0  0  0  0  0  0
   45.8115   34.0870   41.2520 H   0  0  0  0  0  0  0  0  0  0  0  0
   44.6909   36.6999   42.9106 H   0  0  0  0  0  0  0  0  0  0  0  0
   43.8250   36.7521   45.2568 H   0  0  0  0  0  0  0  0  0  0  0  0
   45.9004   33.0946   45.9912 H   0  0  0  0  0  0  0  0  0  0  0  0
  1  9  1  0
  2  6  1  0
  2  1  1  0
  3  2  1  0
  4  3  2  0
  4  5  1  0
  5  6  2  0
  6  7  1  0
  7  8  1  0
  9 10  1  0
 10 11  2  0
 10 15  1  0
 11 12  1  0
 12 13  2  0
 14 13  1  0
 15 14  2  0
  1 16  1  0
  1 17  1  0
  3 18  1  0
  4 19  1  0
  7 20  1  0
  7 21  1  0
  8 22  1  0
  8 23  1  0
  8 24  1  0
  9 25  1  0
  9 26  1  0
 11 27  1  0
 12 28  1  0
 14 29  1  0
M  ISO  8  16   8  17   8  18  14  19  14  20   8  21   8  22   8  23   8
M  ISO  6  24   8  25   8  26   8  27  14  28  14  29  14
M  END
>  <minimizedAffinity>  (1) 
-4.20107222

>  <minimizedRMSD>  (1) 
1.98709667

$$$$
