
     RDKit          3D

 41 44  0  0  0  0  0  0  0  0999 V2000
   44.6640   33.5370   41.7290 C   0  0  0  0  0  0  0  0  0  0  0  0
   44.8010   34.0080   43.0930 C   0  0  0  0  0  0  0  0  0  0  0  0
   44.3690   35.3290   43.2880 C   0  0  0  0  0  0  0  0  0  0  0  0
   44.4320   35.9110   44.5340 C   0  0  0  0  0  0  0  0  0  0  0  0
   44.9140   35.1820   45.5450 N   0  0  0  0  0  0  0  0  0  0  0  0
   45.3340   33.8890   45.3420 C   0  0  0  0  0  0  0  0  0  0  0  0
   45.2740   33.3050   44.1050 N   0  0  0  0  0  0  0  0  0  0  0  0
   45.8570   33.0610   46.3790 N   0  0  0  0  0  0  0  0  0  0  0  0
   45.2070   33.1660   47.5540 C   0  0  0  0  0  0  0  0  0  0  0  0
   45.6510   32.3930   48.6230 C   0  0  0  0  0  0  0  0  0  0  0  0
   46.7350   31.5860   48.3480 C   0  0  0  0  0  0  0  0  0  0  0  0
   47.2350   30.7710   49.3990 N   0  0  0  0  0  0  0  0  0  0  0  0
   47.3850   31.4850   47.1610 N   0  0  0  0  0  0  0  0  0  0  0  0
   46.9130   32.2570   46.1570 C   0  0  0  0  0  0  0  0  0  0  0  0
   47.3950   32.2910   44.9870 O   0  0  0  0  0  0  0  0  0  0  0  0
   45.6510   34.1910   40.7840 C   0  0  0  0  0  0  0  0  0  0  0  0
   46.8520   33.4310   40.6560 N   0  0  0  0  0  0  0  0  0  0  0  0
   47.1190   32.3170   39.9690 C   0  0  0  0  0  0  0  0  0  0  0  0
   48.4190   31.9000   40.1060 C   0  0  0  0  0  0  0  0  0  0  0  0
   48.9780   32.8330   40.9350 N   0  0  0  0  0  0  0  0  0  0  0  0
   48.0190   33.7310   41.2450 C   0  0  0  0  0  0  0  0  0  0  0  0
   48.3910   34.8530   42.1610 C   0  0  0  0  0  0  0  0  0  0  0  0
   49.8440   35.0960   42.4980 C   0  0  0  0  0  0  0  0  0  0  0  0
   49.1130   36.0270   41.5870 C   0  0  0  0  0  0  0  0  0  0  0  0
   44.8294   32.4496   41.7137 H   0  0  0  0  0  0  0  0  0  0  0  0
   43.6520   33.7988   41.3866 H   0  0  0  0  0  0  0  0  0  0  0  0
   43.9763   35.9049   42.4370 H   0  0  0  0  0  0  0  0  0  0  0  0
   44.0953   36.9461   44.6928 H   0  0  0  0  0  0  0  0  0  0  0  0
   44.3484   33.8444   47.6658 H   0  0  0  0  0  0  0  0  0  0  0  0
   45.1730   32.4235   49.6132 H   0  0  0  0  0  0  0  0  0  0  0  0
   48.0433   30.1547   49.2327 H   0  0  0  0  0  0  0  0  0  0  0  0
   46.7891   30.7965   50.3271 H   0  0  0  0  0  0  0  0  0  0  0  0
   45.1838   34.2866   39.7928 H   0  0  0  0  0  0  0  0  0  0  0  0
   45.9145   35.1762   41.1961 H   0  0  0  0  0  0  0  0  0  0  0  0
   46.3736   31.7885   39.3566 H   0  0  0  0  0  0  0  0  0  0  0  0
   48.8998   31.0199   39.6541 H   0  0  0  0  0  0  0  0  0  0  0  0
   47.4761   34.7025   42.7529 H   0  0  0  0  0  0  0  0  0  0  0  0
   50.1280   35.4239   43.5089 H   0  0  0  0  0  0  0  0  0  0  0  0
   50.7698   34.5057   42.4312 H   0  0  0  0  0  0  0  0  0  0  0  0
   49.3578   36.0489   40.5148 H   0  0  0  0  0  0  0  0  0  0  0  0
   48.9347   37.1123   41.5717 H   0  0  0  0  0  0  0  0  0  0  0  0
  1  2  1  0
  2  3  2  0
  2  7  1  0
  3  4  1  0
  4  5  2  0
  6  5  1  0
  6  8  1  0
  7  6  2  0
  8  9  1  0
  9 10  2  0
 11 10  1  0
 11 12  1  0
 13 11  2  0
 14  8  1  0
 14 13  1  0
 15 14  2  0
 16  1  1  0
 17 16  1  0
 17 21  1  0
 18 19  2  0
 18 17  1  0
 19 20  1  0
 20 21  2  0
 21 22  1  0
 22 23  1  0
 24 22  1  0
 24 23  1  0
  1 25  1  0
  1 26  1  0
  3 27  1  0
  4 28  1  0
  9 29  1  0
 10 30  1  0
 12 31  1  0
 12 32  1  0
 16 33  1  0
 16 34  1  0
 18 35  1  0
 19 36  1  0
 22 37  1  0
 23 38  1  0
 23 39  1  0
 24 40  1  0
 24 41  1  0
M  ISO  8  25   8  26   8  27  14  28  14  29  14  30  14  33   8  34   8
M  ISO  7  35  14  36  14  37  13  38  13  39  13  40  13  41  13
M  END
>  <minimizedAffinity>  (1) 
-6.79521036

>  <minimizedRMSD>  (1) 
1.59830344

$$$$
