
     RDKit          3D

 43 47  0  0  0  0  0  0  0  0999 V2000
   44.6730   33.5150   41.5880 C   0  0  0  0  0  0  0  0  0  0  0  0
   44.7840   34.0080   42.9460 C   0  0  0  0  0  0  0  0  0  0  0  0
   44.4280   35.3380   43.1160 C   0  0  0  0  0  0  0  0  0  0  0  0
   44.4750   35.9510   44.3460 C   0  0  0  0  0  0  0  0  0  0  0  0
   44.8800   35.2150   45.3830 N   0  0  0  0  0  0  0  0  0  0  0  0
   45.2350   33.8930   45.2160 C   0  0  0  0  0  0  0  0  0  0  0  0
   45.1760   33.3150   43.9810 N   0  0  0  0  0  0  0  0  0  0  0  0
   45.6630   33.1380   46.3440 N   0  0  0  0  0  0  0  0  0  0  0  0
   45.2680   33.3790   47.6080 C   0  0  0  0  0  0  0  0  0  0  0  0
   45.8760   32.4730   48.3720 N   0  0  0  0  0  0  0  0  0  0  0  0
   46.6410   31.6760   47.5970 C   0  0  0  0  0  0  0  0  0  0  0  0
   47.4750   30.5970   47.8120 C   0  0  0  0  0  0  0  0  0  0  0  0
   48.1430   29.9610   46.8250 N   0  0  0  0  0  0  0  0  0  0  0  0
   47.9910   30.4000   45.5640 C   0  0  0  0  0  0  0  0  0  0  0  0
   47.1880   31.4470   45.3110 N   0  0  0  0  0  0  0  0  0  0  0  0
   46.5110   32.0930   46.2920 C   0  0  0  0  0  0  0  0  0  0  0  0
   47.6420   30.1260   49.1440 N   0  0  0  0  0  0  0  0  0  0  0  0
   45.6770   34.1590   40.6570 C   0  0  0  0  0  0  0  0  0  0  0  0
   46.8840   33.4060   40.5780 N   0  0  0  0  0  0  0  0  0  0  0  0
   47.1780   32.2800   39.9120 C   0  0  0  0  0  0  0  0  0  0  0  0
   48.4730   31.8700   40.0940 C   0  0  0  0  0  0  0  0  0  0  0  0
   48.9900   32.8080   40.9200 N   0  0  0  0  0  0  0  0  0  0  0  0
   48.0320   33.7150   41.2000 C   0  0  0  0  0  0  0  0  0  0  0  0
   48.3690   34.8500   42.1180 C   0  0  0  0  0  0  0  0  0  0  0  0
   49.8120   35.1030   42.4860 C   0  0  0  0  0  0  0  0  0  0  0  0
   49.1030   36.0200   41.5440 C   0  0  0  0  0  0  0  0  0  0  0  0
   44.8414   32.4280   41.5919 H   0  0  0  0  0  0  0  0  0  0  0  0
   43.6666   33.7655   41.2213 H   0  0  0  0  0  0  0  0  0  0  0  0
   44.0987   35.9188   42.2418 H   0  0  0  0  0  0  0  0  0  0  0  0
   44.1901   37.0062   44.4703 H   0  0  0  0  0  0  0  0  0  0  0  0
   44.5792   34.1682   47.9437 H   0  0  0  0  0  0  0  0  0  0  0  0
   48.5234   29.9027   44.7399 H   0  0  0  0  0  0  0  0  0  0  0  0
   48.2584   29.3227   49.3327 H   0  0  0  0  0  0  0  0  0  0  0  0
   47.1465   30.5883   49.9197 H   0  0  0  0  0  0  0  0  0  0  0  0
   45.2357   34.2308   39.6520 H   0  0  0  0  0  0  0  0  0  0  0  0
   45.9210   35.1555   41.0537 H   0  0  0  0  0  0  0  0  0  0  0  0
   46.4539   31.7405   39.2838 H   0  0  0  0  0  0  0  0  0  0  0  0
   48.9733   30.9873   39.6691 H   0  0  0  0  0  0  0  0  0  0  0  0
   47.4410   34.7040   42.6902 H   0  0  0  0  0  0  0  0  0  0  0  0
   50.0701   35.4459   43.4988 H   0  0  0  0  0  0  0  0  0  0  0  0
   50.7404   34.5141   42.4499 H   0  0  0  0  0  0  0  0  0  0  0  0
   49.3743   36.0274   40.4780 H   0  0  0  0  0  0  0  0  0  0  0  0
   48.9230   37.1046   41.5086 H   0  0  0  0  0  0  0  0  0  0  0  0
  1  2  1  0
  2  3  2  0
  2  7  1  0
  3  4  1  0
  4  5  2  0
  6  5  1  0
  6  8  1  0
  7  6  2  0
  8  9  1  0
  9 10  2  0
 11 12  2  0
 11 10  1  0
 12 17  1  0
 13 12  1  0
 14 13  2  0
 15 14  1  0
 15 16  2  0
 16  8  1  0
 16 11  1  0
 18  1  1  0
 19 18  1  0
 19 23  1  0
 20 21  2  0
 20 19  1  0
 21 22  1  0
 22 23  2  0
 23 24  1  0
 24 25  1  0
 26 24  1  0
 26 25  1  0
  1 27  1  0
  1 28  1  0
  3 29  1  0
  4 30  1  0
  9 31  1  0
 14 32  1  0
 17 33  1  0
 17 34  1  0
 18 35  1  0
 18 36  1  0
 20 37  1  0
 21 38  1  0
 24 39  1  0
 25 40  1  0
 25 41  1  0
 26 42  1  0
 26 43  1  0
M  ISO  8  27   8  28   8  29  14  30  14  31  14  32  14  35   8  36   8
M  ISO  7  37  14  38  14  39  13  40  13  41  13  42  13  43  13
M  END
>  <minimizedAffinity>  (1) 
-6.43507814

>  <minimizedRMSD>  (1) 
1.56388104

$$$$
