
     RDKit          3D

 40 43  0  0  0  0  0  0  0  0999 V2000
   45.9670   34.5850   41.8220 C   0  0  0  0  0  0  0  0  0  0  0  0
   45.6130   34.6560   43.2270 C   0  0  0  0  0  0  0  0  0  0  0  0
   44.8250   35.7660   43.5660 C   0  0  0  0  0  0  0  0  0  0  0  0
   44.4030   35.9620   44.8620 C   0  0  0  0  0  0  0  0  0  0  0  0
   44.7660   35.0660   45.7860 N   0  0  0  0  0  0  0  0  0  0  0  0
   45.5380   33.9820   45.4480 C   0  0  0  0  0  0  0  0  0  0  0  0
   45.9490   33.8030   44.1550 N   0  0  0  0  0  0  0  0  0  0  0  0
   45.9460   32.9890   46.4460 C   0  0  0  0  0  0  0  0  0  0  0  0
   45.2170   32.9410   47.6290 C   0  0  0  0  0  0  0  0  0  0  0  0
   45.5520   32.0180   48.6230 C   0  0  0  0  0  0  0  0  0  0  0  0
   46.6180   31.1650   48.3980 C   0  0  0  0  0  0  0  0  0  0  0  0
   47.3270   31.2260   47.2240 C   0  0  0  0  0  0  0  0  0  0  0  0
   47.0040   32.1320   46.2390 C   0  0  0  0  0  0  0  0  0  0  0  0
   47.4450   34.8130   41.5950 C   0  0  0  0  0  0  0  0  0  0  0  0
   47.9570   34.0090   40.5410 N   0  0  0  0  0  0  0  0  0  0  0  0
   47.6480   33.9570   39.2310 C   0  0  0  0  0  0  0  0  0  0  0  0
   48.3970   33.0270   38.5410 C   0  0  0  0  0  0  0  0  0  0  0  0
   49.1960   32.4940   39.4890 N   0  0  0  0  0  0  0  0  0  0  0  0
   48.9230   33.0890   40.6690 C   0  0  0  0  0  0  0  0  0  0  0  0
   49.6880   32.6380   41.8900 C   0  0  0  0  0  0  0  0  0  0  0  0
   51.1580   32.3180   41.7560 C   0  0  0  0  0  0  0  0  0  0  0  0
   50.7190   33.5750   42.4340 C   0  0  0  0  0  0  0  0  0  0  0  0
   45.6988   33.5895   41.4386 H   0  0  0  0  0  0  0  0  0  0  0  0
   45.4171   35.3778   41.2938 H   0  0  0  0  0  0  0  0  0  0  0  0
   44.5407   36.4887   42.7869 H   0  0  0  0  0  0  0  0  0  0  0  0
   43.7845   36.8314   45.1298 H   0  0  0  0  0  0  0  0  0  0  0  0
   44.3745   33.6313   47.7827 H   0  0  0  0  0  0  0  0  0  0  0  0
   44.9817   31.9706   49.5624 H   0  0  0  0  0  0  0  0  0  0  0  0
   46.9001   30.4310   49.1672 H   0  0  0  0  0  0  0  0  0  0  0  0
   48.1701   30.5371   47.0672 H   0  0  0  0  0  0  0  0  0  0  0  0
   47.5808   32.1707   45.3032 H   0  0  0  0  0  0  0  0  0  0  0  0
   47.6054   35.8716   41.3429 H   0  0  0  0  0  0  0  0  0  0  0  0
   47.9749   34.5364   42.5184 H   0  0  0  0  0  0  0  0  0  0  0  0
   46.8799   34.5891   38.7614 H   0  0  0  0  0  0  0  0  0  0  0  0
   48.3534   32.7783   37.4704 H   0  0  0  0  0  0  0  0  0  0  0  0
   48.8167   32.1003   42.2923 H   0  0  0  0  0  0  0  0  0  0  0  0
   51.5995   31.5001   42.3443 H   0  0  0  0  0  0  0  0  0  0  0  0
   51.8303   32.0775   40.9193 H   0  0  0  0  0  0  0  0  0  0  0  0
   50.8869   34.5473   41.9478 H   0  0  0  0  0  0  0  0  0  0  0  0
   50.9086   34.0307   43.4171 H   0  0  0  0  0  0  0  0  0  0  0  0
  1  2  1  0
  2  3  2  0
  2  7  1  0
  3  4  1  0
  4  5  2  0
  6  5  1  0
  6  8  1  0
  7  6  2  0
  8  9  2  0
  9 10  1  0
 11 10  2  0
 12 11  1  0
 13  8  1  0
 13 12  2  0
 14  1  1  0
 15 19  1  0
 15 14  1  0
 16 15  1  0
 17 16  2  0
 17 18  1  0
 18 19  2  0
 19 20  1  0
 20 22  1  0
 21 20  1  0
 21 22  1  0
  1 23  1  0
  1 24  1  0
  3 25  1  0
  4 26  1  0
  9 27  1  0
 10 28  1  0
 11 29  1  0
 12 30  1  0
 13 31  1  0
 14 32  1  0
 14 33  1  0
 16 34  1  0
 17 35  1  0
 20 36  1  0
 21 37  1  0
 21 38  1  0
 22 39  1  0
 22 40  1  0
M  ISO  8  23   8  24   8  25  14  26  14  27  14  28  14  29  14  30  14
M  ISO  8  31  14  32   8  33   8  34  14  35  14  36  13  37  13  38  13
M  ISO  2  39  13  40  13
M  END
>  <minimizedAffinity>  (1) 
-5.89010143

>  <minimizedRMSD>  (1) 
0.315428406

$$$$
