
     RDKit          3D

 36 39  0  0  0  0  0  0  0  0999 V2000
   47.5690   34.8290   41.6380 C   0  0  0  0  0  0  0  0  0  0  0  0
   48.0160   34.0200   40.5570 N   0  0  0  0  0  0  0  0  0  0  0  0
   47.6570   33.9950   39.2660 C   0  0  0  0  0  0  0  0  0  0  0  0
   48.3350   33.0570   38.5340 C   0  0  0  0  0  0  0  0  0  0  0  0
   49.1570   32.4790   39.4400 N   0  0  0  0  0  0  0  0  0  0  0  0
   48.9540   33.0650   40.6400 C   0  0  0  0  0  0  0  0  0  0  0  0
   49.7480   32.5860   41.8100 C   0  0  0  0  0  0  0  0  0  0  0  0
   51.2200   32.2920   41.6460 C   0  0  0  0  0  0  0  0  0  0  0  0
   50.7720   33.5020   42.3960 C   0  0  0  0  0  0  0  0  0  0  0  0
   46.0640   34.7640   41.8100 C   0  0  0  0  0  0  0  0  0  0  0  0
   45.6740   34.7620   43.2040 C   0  0  0  0  0  0  0  0  0  0  0  0
   44.8750   35.8370   43.5970 C   0  0  0  0  0  0  0  0  0  0  0  0
   44.4270   35.9660   44.8930 C   0  0  0  0  0  0  0  0  0  0  0  0
   44.7810   35.0250   45.7720 N   0  0  0  0  0  0  0  0  0  0  0  0
   45.5720   33.9620   45.3810 C   0  0  0  0  0  0  0  0  0  0  0  0
   45.9930   33.8690   44.0970 N   0  0  0  0  0  0  0  0  0  0  0  0
   45.9320   32.9500   46.3990 C   0  0  0  0  0  0  0  0  0  0  0  0
   46.9400   32.0430   46.2000 C   0  0  0  0  0  0  0  0  0  0  0  0
   46.9380   31.0790   47.7320 S   0  0  0  0  0  0  0  0  0  0  0  0
   45.4850   32.1330   48.4250 C   0  0  0  0  0  0  0  0  0  0  0  0
   45.3100   32.8570   47.5590 N   0  0  0  0  0  0  0  0  0  0  0  0
   47.8599   35.8722   41.4452 H   0  0  0  0  0  0  0  0  0  0  0  0
   48.0336   34.4511   42.5607 H   0  0  0  0  0  0  0  0  0  0  0  0
   46.8940   34.6613   38.8372 H   0  0  0  0  0  0  0  0  0  0  0  0
   48.2350   32.8277   37.4628 H   0  0  0  0  0  0  0  0  0  0  0  0
   48.8852   32.0207   42.1922 H   0  0  0  0  0  0  0  0  0  0  0  0
   51.6765   31.4481   42.1839 H   0  0  0  0  0  0  0  0  0  0  0  0
   51.8878   32.1070   40.7917 H   0  0  0  0  0  0  0  0  0  0  0  0
   50.9240   34.5020   41.9637 H   0  0  0  0  0  0  0  0  0  0  0  0
   50.9650   33.9040   43.4015 H   0  0  0  0  0  0  0  0  0  0  0  0
   45.6127   35.6376   41.3169 H   0  0  0  0  0  0  0  0  0  0  0  0
   45.7121   33.8245   41.3589 H   0  0  0  0  0  0  0  0  0  0  0  0
   44.5966   36.5990   42.8542 H   0  0  0  0  0  0  0  0  0  0  0  0
   43.7980   36.8166   45.1943 H   0  0  0  0  0  0  0  0  0  0  0  0
   47.5924   31.9286   45.3218 H   0  0  0  0  0  0  0  0  0  0  0  0
   44.9648   32.0586   49.3914 H   0  0  0  0  0  0  0  0  0  0  0  0
  1 10  1  0
  2  6  1  0
  2  1  1  0
  3  2  1  0
  4  3  2  0
  4  5  1  0
  5  6  2  0
  6  7  1  0
  7  9  1  0
  8  7  1  0
  8  9  1  0
 10 11  1  0
 11 12  2  0
 11 16  1  0
 12 13  1  0
 13 14  2  0
 15 14  1  0
 15 17  1  0
 16 15  2  0
 17 21  1  0
 18 17  2  0
 18 19  1  0
 19 20  1  0
 21 20  2  0
  1 22  1  0
  1 23  1  0
  3 24  1  0
  4 25  1  0
  7 26  1  0
  8 27  1  0
  8 28  1  0
  9 29  1  0
  9 30  1  0
 10 31  1  0
 10 32  1  0
 12 33  1  0
 13 34  1  0
 18 35  1  0
 20 36  1  0
M  ISO  8  22   8  23   8  24  14  25  14  26  13  27  13  28  13  29  13
M  ISO  7  30  13  31   8  32   8  33  14  34  14  35  14  36  14
M  END
>  <minimizedAffinity>  (1) 
-5.50134754

>  <minimizedRMSD>  (1) 
0.320778936

$$$$
