
     RDKit          3D

 37 40  0  0  0  0  0  0  0  0999 V2000
   47.6600   34.8330   41.7010 C   0  0  0  0  0  0  0  0  0  0  0  0
   48.0550   34.0190   40.6050 N   0  0  0  0  0  0  0  0  0  0  0  0
   47.6570   34.0070   39.3190 C   0  0  0  0  0  0  0  0  0  0  0  0
   48.2970   33.0580   38.5660 C   0  0  0  0  0  0  0  0  0  0  0  0
   49.1280   32.4610   39.4460 N   0  0  0  0  0  0  0  0  0  0  0  0
   48.9730   33.0430   40.6500 C   0  0  0  0  0  0  0  0  0  0  0  0
   49.7910   32.5250   41.8050 C   0  0  0  0  0  0  0  0  0  0  0  0
   51.2650   32.2680   41.6090 C   0  0  0  0  0  0  0  0  0  0  0  0
   50.8060   33.4530   42.3960 C   0  0  0  0  0  0  0  0  0  0  0  0
   46.1580   34.8990   41.8490 C   0  0  0  0  0  0  0  0  0  0  0  0
   45.7360   34.8540   43.2410 C   0  0  0  0  0  0  0  0  0  0  0  0
   44.8880   35.9080   43.6160 C   0  0  0  0  0  0  0  0  0  0  0  0
   44.4120   35.9760   44.9060 C   0  0  0  0  0  0  0  0  0  0  0  0
   44.7690   35.0320   45.7800 N   0  0  0  0  0  0  0  0  0  0  0  0
   45.6050   34.0030   45.3920 C   0  0  0  0  0  0  0  0  0  0  0  0
   46.0870   33.9230   44.1110 N   0  0  0  0  0  0  0  0  0  0  0  0
   46.0260   32.9440   46.3100 C   0  0  0  0  0  0  0  0  0  0  0  0
   45.3780   32.7390   47.5250 C   0  0  0  0  0  0  0  0  0  0  0  0
   46.0380   31.6660   48.1230 C   0  0  0  0  0  0  0  0  0  0  0  0
   47.0250   31.2620   47.3000 N   0  0  0  0  0  0  0  0  0  0  0  0
   47.0190   32.0340   46.2040 N   0  0  0  0  0  0  0  0  0  0  0  0
   48.0458   35.8510   41.5436 H   0  0  0  0  0  0  0  0  0  0  0  0
   48.0711   34.3873   42.6188 H   0  0  0  0  0  0  0  0  0  0  0  0
   46.8955   34.6896   38.9140 H   0  0  0  0  0  0  0  0  0  0  0  0
   48.1648   32.8353   37.4969 H   0  0  0  0  0  0  0  0  0  0  0  0
   48.9503   31.9253   42.1840 H   0  0  0  0  0  0  0  0  0  0  0  0
   51.7491   31.4222   42.1191 H   0  0  0  0  0  0  0  0  0  0  0  0
   51.9206   32.1172   40.7387 H   0  0  0  0  0  0  0  0  0  0  0  0
   50.9286   34.4656   41.9843 H   0  0  0  0  0  0  0  0  0  0  0  0
   51.0085   33.8369   43.4067 H   0  0  0  0  0  0  0  0  0  0  0  0
   45.7997   35.8377   41.4012 H   0  0  0  0  0  0  0  0  0  0  0  0
   45.7316   34.0218   41.3404 H   0  0  0  0  0  0  0  0  0  0  0  0
   44.6049   36.6767   42.8819 H   0  0  0  0  0  0  0  0  0  0  0  0
   43.7468   36.7967   45.2124 H   0  0  0  0  0  0  0  0  0  0  0  0
   44.5250   33.3044   47.9284 H   0  0  0  0  0  0  0  0  0  0  0  0
   45.7941   31.2245   49.1006 H   0  0  0  0  0  0  0  0  0  0  0  0
   47.6777   30.4865   47.4829 H   0  0  0  0  0  0  0  0  0  0  0  0
  1 10  1  0
  2  6  1  0
  2  1  1  0
  3  2  1  0
  4  3  2  0
  4  5  1  0
  5  6  2  0
  6  7  1  0
  7  9  1  0
  8  7  1  0
  8  9  1  0
 10 11  1  0
 11 12  2  0
 11 16  1  0
 12 13  1  0
 13 14  2  0
 15 14  1  0
 15 17  1  0
 16 15  2  0
 17 18  1  0
 18 19  2  0
 20 19  1  0
 21 17  2  0
 21 20  1  0
  1 22  1  0
  1 23  1  0
  3 24  1  0
  4 25  1  0
  7 26  1  0
  8 27  1  0
  8 28  1  0
  9 29  1  0
  9 30  1  0
 10 31  1  0
 10 32  1  0
 12 33  1  0
 13 34  1  0
 18 35  1  0
 19 36  1  0
 20 37  1  0
M  ISO  8  22   8  23   8  24  14  25  14  26  13  27  13  28  13  29  13
M  ISO  8  30  13  31   8  32   8  33  14  34  14  35  14  36  14  37   9
M  END
>  <minimizedAffinity>  (1) 
-5.44893599

>  <minimizedRMSD>  (1) 
0.304456353

$$$$
