
     RDKit          3D

 32 34  0  0  0  0  0  0  0  0999 V2000
   47.6500   34.8490   41.6780 C   0  0  0  0  0  0  0  0  0  0  0  0
   48.0510   34.0210   40.5810 N   0  0  0  0  0  0  0  0  0  0  0  0
   47.6490   34.0070   39.3060 C   0  0  0  0  0  0  0  0  0  0  0  0
   48.2930   33.0470   38.5600 C   0  0  0  0  0  0  0  0  0  0  0  0
   49.1370   32.4470   39.4530 N   0  0  0  0  0  0  0  0  0  0  0  0
   48.9710   33.0490   40.6540 C   0  0  0  0  0  0  0  0  0  0  0  0
   49.7810   32.5500   41.8070 C   0  0  0  0  0  0  0  0  0  0  0  0
   51.2550   32.2790   41.6170 C   0  0  0  0  0  0  0  0  0  0  0  0
   50.8020   33.4660   42.3980 C   0  0  0  0  0  0  0  0  0  0  0  0
   46.1460   34.9040   41.8260 C   0  0  0  0  0  0  0  0  0  0  0  0
   45.7260   34.8490   43.2150 C   0  0  0  0  0  0  0  0  0  0  0  0
   44.9070   35.9120   43.6280 C   0  0  0  0  0  0  0  0  0  0  0  0
   44.4270   35.9950   44.9160 C   0  0  0  0  0  0  0  0  0  0  0  0
   44.7710   35.0240   45.7650 N   0  0  0  0  0  0  0  0  0  0  0  0
   45.5720   33.9880   45.3600 C   0  0  0  0  0  0  0  0  0  0  0  0
   46.0370   33.9230   44.0770 N   0  0  0  0  0  0  0  0  0  0  0  0
   45.9400   32.9330   46.2970 C   0  0  0  0  0  0  0  0  0  0  0  0
   45.3550   32.8370   47.4140 O   0  0  0  0  0  0  0  0  0  0  0  0
   48.0279   35.8683   41.5102 H   0  0  0  0  0  0  0  0  0  0  0  0
   48.0666   34.4169   42.5998 H   0  0  0  0  0  0  0  0  0  0  0  0
   46.8873   34.6879   38.8984 H   0  0  0  0  0  0  0  0  0  0  0  0
   48.1598   32.8158   37.4929 H   0  0  0  0  0  0  0  0  0  0  0  0
   48.9307   31.9658   42.1886 H   0  0  0  0  0  0  0  0  0  0  0  0
   51.7298   31.4300   42.1307 H   0  0  0  0  0  0  0  0  0  0  0  0
   51.9134   32.1210   40.7501 H   0  0  0  0  0  0  0  0  0  0  0  0
   50.9354   34.4768   41.9851 H   0  0  0  0  0  0  0  0  0  0  0  0
   51.0039   33.8489   43.4092 H   0  0  0  0  0  0  0  0  0  0  0  0
   45.7812   35.8425   41.3831 H   0  0  0  0  0  0  0  0  0  0  0  0
   45.7253   34.0269   41.3125 H   0  0  0  0  0  0  0  0  0  0  0  0
   44.6423   36.6977   42.9051 H   0  0  0  0  0  0  0  0  0  0  0  0
   43.7846   36.8297   45.2332 H   0  0  0  0  0  0  0  0  0  0  0  0
   46.7310   32.2165   46.0306 H   0  0  0  0  0  0  0  0  0  0  0  0
  1 10  1  0
  2  6  1  0
  2  1  1  0
  3  2  1  0
  4  3  2  0
  4  5  1  0
  5  6  2  0
  6  7  1  0
  7  9  1  0
  8  7  1  0
  8  9  1  0
 10 11  1  0
 11 12  2  0
 11 16  1  0
 12 13  1  0
 13 14  2  0
 15 14  1  0
 15 17  1  0
 16 15  2  0
 17 18  2  0
  1 19  1  0
  1 20  1  0
  3 21  1  0
  4 22  1  0
  7 23  1  0
  8 24  1  0
  8 25  1  0
  9 26  1  0
  9 27  1  0
 10 28  1  0
 10 29  1  0
 12 30  1  0
 13 31  1  0
 17 32  1  0
M  ISO  8  19   8  20   8  21  14  22  14  23  13  24  13  25  13  26  13
M  ISO  6  27  13  28   8  29   8  30  14  31  14  32   6
M  END
>  <minimizedAffinity>  (1) 
-4.81885004

>  <minimizedRMSD>  (1) 
0.106097385

$$$$
