
     RDKit          3D

 45 49  0  0  0  0  0  0  0  0999 V2000
   46.1390   34.8770   41.8200 C   0  0  0  0  0  0  0  0  0  0  0  0
   45.6980   34.8720   43.1960 C   0  0  0  0  0  0  0  0  0  0  0  0
   44.9250   35.9730   43.5920 C   0  0  0  0  0  0  0  0  0  0  0  0
   44.4280   36.1100   44.8700 C   0  0  0  0  0  0  0  0  0  0  0  0
   44.7260   35.1200   45.7370 N   0  0  0  0  0  0  0  0  0  0  0  0
   45.4850   34.0450   45.3420 C   0  0  0  0  0  0  0  0  0  0  0  0
   45.9530   33.9530   44.0710 N   0  0  0  0  0  0  0  0  0  0  0  0
   45.6700   33.1550   46.3650 O   0  0  0  0  0  0  0  0  0  0  0  0
   46.1810   31.8900   46.3060 C   0  0  0  0  0  0  0  0  0  0  0  0
   45.9850   30.7690   45.4980 C   0  0  0  0  0  0  0  0  0  0  0  0
   46.7750   29.7530   45.8930 N   0  0  0  0  0  0  0  0  0  0  0  0
   47.4820   30.1970   46.9490 C   0  0  0  0  0  0  0  0  0  0  0  0
   48.4350   29.5440   47.7230 C   0  0  0  0  0  0  0  0  0  0  0  0
   49.0690   30.1610   48.7800 C   0  0  0  0  0  0  0  0  0  0  0  0
   48.7350   31.4680   49.0670 C   0  0  0  0  0  0  0  0  0  0  0  0
   47.7950   32.1370   48.3180 C   0  0  0  0  0  0  0  0  0  0  0  0
   47.1500   31.5200   47.2450 C   0  0  0  0  0  0  0  0  0  0  0  0
   47.6370   34.8200   41.6930 C   0  0  0  0  0  0  0  0  0  0  0  0
   48.0720   34.0070   40.6140 N   0  0  0  0  0  0  0  0  0  0  0  0
   47.7310   34.0020   39.3270 C   0  0  0  0  0  0  0  0  0  0  0  0
   48.3920   33.0530   38.6010 C   0  0  0  0  0  0  0  0  0  0  0  0
   49.1930   32.4420   39.5200 N   0  0  0  0  0  0  0  0  0  0  0  0
   48.9790   33.0350   40.7170 C   0  0  0  0  0  0  0  0  0  0  0  0
   49.7480   32.5020   41.8900 C   0  0  0  0  0  0  0  0  0  0  0  0
   51.1440   31.9810   41.7070 C   0  0  0  0  0  0  0  0  0  0  0  0
   50.9230   33.3180   42.3640 C   0  0  0  0  0  0  0  0  0  0  0  0
   45.7085   34.0033   41.3088 H   0  0  0  0  0  0  0  0  0  0  0  0
   45.8014   35.8199   41.3651 H   0  0  0  0  0  0  0  0  0  0  0  0
   44.7067   36.7583   42.8533 H   0  0  0  0  0  0  0  0  0  0  0  0
   43.8218   36.9785   45.1669 H   0  0  0  0  0  0  0  0  0  0  0  0
   45.2813   30.7221   44.6539 H   0  0  0  0  0  0  0  0  0  0  0  0
   46.8282   28.8160   45.4687 H   0  0  0  0  0  0  0  0  0  0  0  0
   48.6912   28.5013   47.4840 H   0  0  0  0  0  0  0  0  0  0  0  0
   49.8209   29.6256   49.3783 H   0  0  0  0  0  0  0  0  0  0  0  0
   49.2268   31.9822   49.9059 H   0  0  0  0  0  0  0  0  0  0  0  0
   47.5468   33.1787   48.5696 H   0  0  0  0  0  0  0  0  0  0  0  0
   48.0146   35.8413   41.5367 H   0  0  0  0  0  0  0  0  0  0  0  0
   48.0288   34.3744   42.6192 H   0  0  0  0  0  0  0  0  0  0  0  0
   46.9923   34.6918   38.8929 H   0  0  0  0  0  0  0  0  0  0  0  0
   48.3000   32.8331   37.5271 H   0  0  0  0  0  0  0  0  0  0  0  0
   48.8355   32.0830   42.3391 H   0  0  0  0  0  0  0  0  0  0  0  0
   51.4944   31.1263   42.3043 H   0  0  0  0  0  0  0  0  0  0  0  0
   51.7341   31.6246   40.8498 H   0  0  0  0  0  0  0  0  0  0  0  0
   51.1995   34.2430   41.8368 H   0  0  0  0  0  0  0  0  0  0  0  0
   51.2194   33.7751   43.3196 H   0  0  0  0  0  0  0  0  0  0  0  0
  1  2  1  0
  2  3  2  0
  2  7  1  0
  3  4  1  0
  4  5  2  0
  6  5  1  0
  6  8  1  0
  7  6  2  0
  9  8  1  0
  9 17  1  0
 10 11  1  0
 10  9  2  0
 11 12  1  0
 12 17  2  0
 12 13  1  0
 13 14  2  0
 14 15  1  0
 16 15  2  0
 17 16  1  0
 18  1  1  0
 19 23  1  0
 19 18  1  0
 20 19  1  0
 21 20  2  0
 21 22  1  0
 22 23  2  0
 23 24  1  0
 24 26  1  0
 25 24  1  0
 25 26  1  0
  1 27  1  0
  1 28  1  0
  3 29  1  0
  4 30  1  0
 10 31  1  0
 11 32  1  0
 13 33  1  0
 14 34  1  0
 15 35  1  0
 16 36  1  0
 18 37  1  0
 18 38  1  0
 20 39  1  0
 21 40  1  0
 24 41  1  0
 25 42  1  0
 25 43  1  0
 26 44  1  0
 26 45  1  0
M  ISO  8  27   8  28   8  29  14  30  14  31  14  32   9  33  14  34  14
M  ISO  8  35  14  36  14  37   8  38   8  39  14  40  14  41  13  42  13
M  ISO  3  43  13  44  13  45  13
M  END
>  <minimizedAffinity>  (1) 
-6.11756992

>  <minimizedRMSD>  (1) 
0.818239212

$$$$
