
     RDKit          3D

 40 43  0  0  0  0  0  0  0  0999 V2000
   46.1710   34.9440   41.9370 C   0  0  0  0  0  0  0  0  0  0  0  0
   45.9420   34.6680   43.3380 C   0  0  0  0  0  0  0  0  0  0  0  0
   44.9350   35.4130   43.9510 C   0  0  0  0  0  0  0  0  0  0  0  0
   44.5980   35.2680   45.2680 C   0  0  0  0  0  0  0  0  0  0  0  0
   45.2890   34.3680   45.9540 N   0  0  0  0  0  0  0  0  0  0  0  0
   46.2800   33.6210   45.3920 C   0  0  0  0  0  0  0  0  0  0  0  0
   46.5950   33.7880   44.0660 N   0  0  0  0  0  0  0  0  0  0  0  0
   46.9130   32.7290   46.2120 O   0  0  0  0  0  0  0  0  0  0  0  0
   46.3360   32.1140   47.2710 C   0  0  0  0  0  0  0  0  0  0  0  0
   46.1070   32.2960   48.6100 C   0  0  0  0  0  0  0  0  0  0  0  0
   45.4550   31.4270   49.4350 C   0  0  0  0  0  0  0  0  0  0  0  0
   44.9860   30.2710   48.8810 C   0  0  0  0  0  0  0  0  0  0  0  0
   45.1940   30.0450   47.5380 C   0  0  0  0  0  0  0  0  0  0  0  0
   45.8530   30.9480   46.7560 N   0  0  0  0  0  0  0  0  0  0  0  0
   47.6500   35.0570   41.6140 C   0  0  0  0  0  0  0  0  0  0  0  0
   48.0500   34.1440   40.6060 N   0  0  0  0  0  0  0  0  0  0  0  0
   47.7000   34.0520   39.3170 C   0  0  0  0  0  0  0  0  0  0  0  0
   48.3180   33.0280   38.6670 C   0  0  0  0  0  0  0  0  0  0  0  0
   49.0980   32.4590   39.6270 N   0  0  0  0  0  0  0  0  0  0  0  0
   48.9180   33.1450   40.7730 C   0  0  0  0  0  0  0  0  0  0  0  0
   49.6650   32.6710   41.9790 C   0  0  0  0  0  0  0  0  0  0  0  0
   51.0440   32.0920   41.8510 C   0  0  0  0  0  0  0  0  0  0  0  0
   50.8630   33.4780   42.4090 C   0  0  0  0  0  0  0  0  0  0  0  0
   45.7382   34.1285   41.3390 H   0  0  0  0  0  0  0  0  0  0  0  0
   45.6966   35.9073   41.6985 H   0  0  0  0  0  0  0  0  0  0  0  0
   44.3867   36.1511   43.3472 H   0  0  0  0  0  0  0  0  0  0  0  0
   43.7987   35.8643   45.7323 H   0  0  0  0  0  0  0  0  0  0  0  0
   46.4829   33.2267   49.0600 H   0  0  0  0  0  0  0  0  0  0  0  0
   45.3130   31.6488   50.5030 H   0  0  0  0  0  0  0  0  0  0  0  0
   44.4511   29.5325   49.4963 H   0  0  0  0  0  0  0  0  0  0  0  0
   44.8200   29.1147   47.0856 H   0  0  0  0  0  0  0  0  0  0  0  0
   47.8599   36.0801   41.2686 H   0  0  0  0  0  0  0  0  0  0  0  0
   48.2140   34.8189   42.5279 H   0  0  0  0  0  0  0  0  0  0  0  0
   46.9859   34.7343   38.8326 H   0  0  0  0  0  0  0  0  0  0  0  0
   48.2121   32.7301   37.6134 H   0  0  0  0  0  0  0  0  0  0  0  0
   48.7344   32.3133   42.4437 H   0  0  0  0  0  0  0  0  0  0  0  0
   51.3585   31.2705   42.5114 H   0  0  0  0  0  0  0  0  0  0  0  0
   51.6302   31.6562   41.0286 H   0  0  0  0  0  0  0  0  0  0  0  0
   51.1769   34.3534   41.8215 H   0  0  0  0  0  0  0  0  0  0  0  0
   51.1655   33.9912   43.3337 H   0  0  0  0  0  0  0  0  0  0  0  0
  1  2  1  0
  2  3  2  0
  2  7  1  0
  3  4  1  0
  4  5  2  0
  6  5  1  0
  6  8  1  0
  7  6  2  0
  8  9  1  0
  9 10  2  0
 10 11  1  0
 12 11  2  0
 13 12  1  0
 14  9  1  0
 14 13  2  0
 15  1  1  0
 16 20  1  0
 16 15  1  0
 17 16  1  0
 18 17  2  0
 18 19  1  0
 19 20  2  0
 20 21  1  0
 21 23  1  0
 22 21  1  0
 22 23  1  0
  1 24  1  0
  1 25  1  0
  3 26  1  0
  4 27  1  0
 10 28  1  0
 11 29  1  0
 12 30  1  0
 13 31  1  0
 15 32  1  0
 15 33  1  0
 17 34  1  0
 18 35  1  0
 21 36  1  0
 22 37  1  0
 22 38  1  0
 23 39  1  0
 23 40  1  0
M  ISO  8  24   8  25   8  26  14  27  14  28  14  29  14  30  14  31  14
M  ISO  8  32   8  33   8  34  14  35  14  36  13  37  13  38  13  39  13
M  ISO  1  40  13
M  END
>  <minimizedAffinity>  (1) 
-5.93425035

>  <minimizedRMSD>  (1) 
1.3034364

$$$$
