
     RDKit          3D

 44 47  0  0  0  0  0  0  0  0999 V2000
   45.5890   33.7350   41.7920 C   0  0  0  0  0  0  0  0  0  0  0  0
   45.3420   34.1620   43.1490 C   0  0  0  0  0  0  0  0  0  0  0  0
   44.8130   35.4300   43.2990 C   0  0  0  0  0  0  0  0  0  0  0  0
   44.5170   35.9860   44.5310 C   0  0  0  0  0  0  0  0  0  0  0  0
   44.7700   35.2270   45.6010 N   0  0  0  0  0  0  0  0  0  0  0  0
   45.2960   33.9670   45.4710 C   0  0  0  0  0  0  0  0  0  0  0  0
   45.5670   33.4720   44.2190 N   0  0  0  0  0  0  0  0  0  0  0  0
   45.5010   33.3130   46.6540 O   0  0  0  0  0  0  0  0  0  0  0  0
   48.3120   30.4530   47.8290 C   0  0  0  0  0  0  0  0  0  0  0  0
   48.0680   31.6440   48.5010 C   0  0  0  0  0  0  0  0  0  0  0  0
   47.1100   32.5300   48.0280 C   0  0  0  0  0  0  0  0  0  0  0  0
   46.3630   32.2600   46.8700 C   0  0  0  0  0  0  0  0  0  0  0  0
   46.6210   31.0740   46.2180 C   0  0  0  0  0  0  0  0  0  0  0  0
   47.5720   30.2070   46.6980 C   0  0  0  0  0  0  0  0  0  0  0  0
   49.5110   29.3060   48.3900 S   0  0  0  0  0  0  0  0  0  0  0  0
   49.7040   29.4930   49.8700 O   0  0  0  0  0  0  0  0  0  0  0  0
   50.8320   29.5370   47.7100 O   0  0  0  0  0  0  0  0  0  0  0  0
   46.6690   34.5440   41.1250 C   0  0  0  0  0  0  0  0  0  0  0  0
   47.5670   33.7550   40.3650 N   0  0  0  0  0  0  0  0  0  0  0  0
   47.5140   33.3590   39.0890 C   0  0  0  0  0  0  0  0  0  0  0  0
   48.5950   32.6010   38.7190 C   0  0  0  0  0  0  0  0  0  0  0  0
   49.3460   32.5410   39.8520 N   0  0  0  0  0  0  0  0  0  0  0  0
   48.7080   33.2390   40.8250 C   0  0  0  0  0  0  0  0  0  0  0  0
   49.3510   33.2890   42.1750 C   0  0  0  0  0  0  0  0  0  0  0  0
   50.8470   33.2770   42.3050 C   0  0  0  0  0  0  0  0  0  0  0  0
   50.0820   34.5520   42.5370 C   0  0  0  0  0  0  0  0  0  0  0  0
   45.8951   32.6785   41.8040 H   0  0  0  0  0  0  0  0  0  0  0  0
   44.6602   33.8783   41.2203 H   0  0  0  0  0  0  0  0  0  0  0  0
   44.6179   36.0260   42.3953 H   0  0  0  0  0  0  0  0  0  0  0  0
   44.0962   36.9980   44.6244 H   0  0  0  0  0  0  0  0  0  0  0  0
   48.6361   31.8858   49.4114 H   0  0  0  0  0  0  0  0  0  0  0  0
   46.9313   33.4679   48.5743 H   0  0  0  0  0  0  0  0  0  0  0  0
   46.0611   30.8195   45.3060 H   0  0  0  0  0  0  0  0  0  0  0  0
   47.7498   29.2699   46.1501 H   0  0  0  0  0  0  0  0  0  0  0  0
   49.0735   28.0398   48.1031 H   0  0  0  0  0  0  0  0  0  0  0  0
   46.1944   35.2766   40.4556 H   0  0  0  0  0  0  0  0  0  0  0  0
   47.2528   35.0297   41.9207 H   0  0  0  0  0  0  0  0  0  0  0  0
   46.6894   33.6146   38.4073 H   0  0  0  0  0  0  0  0  0  0  0  0
   48.8052   32.1486   37.7386 H   0  0  0  0  0  0  0  0  0  0  0  0
   48.5475   32.6794   42.6139 H   0  0  0  0  0  0  0  0  0  0  0  0
   51.3214   32.7585   43.1512 H   0  0  0  0  0  0  0  0  0  0  0  0
   51.6819   32.9784   41.6540 H   0  0  0  0  0  0  0  0  0  0  0  0
   50.1512   35.3752   41.8107 H   0  0  0  0  0  0  0  0  0  0  0  0
   50.0159   35.2819   43.3573 H   0  0  0  0  0  0  0  0  0  0  0  0
  1  2  1  0
  2  3  2  0
  2  7  1  0
  3  4  1  0
  4  5  2  0
  6  5  1  0
  6  8  1  0
  7  6  2  0
  8 12  1  0
  9 15  1  0
  9 10  2  0
 11 10  1  0
 12 11  2  0
 13 14  2  0
 13 12  1  0
 14  9  1  0
 15 16  2  0
 17 15  2  0
 18  1  1  0
 19 23  1  0
 19 18  1  0
 20 19  1  0
 21 20  2  0
 21 22  1  0
 22 23  2  0
 23 24  1  0
 24 25  1  0
 24 26  1  0
 25 26  1  0
  1 27  1  0
  1 28  1  0
  3 29  1  0
  4 30  1  0
 10 31  1  0
 11 32  1  0
 13 33  1  0
 14 34  1  0
 15 35  1  0
 18 36  1  0
 18 37  1  0
 20 38  1  0
 21 39  1  0
 24 40  1  0
 25 41  1  0
 25 42  1  0
 26 43  1  0
 26 44  1  0
M  ISO  8  27   8  28   8  29  14  30  14  31  14  32  14  33  14  34  14
M  ISO  8  35  11  36   8  37   8  38  14  39  14  40  13  41  13  42  13
M  ISO  2  43  13  44  13
M  END
>  <minimizedAffinity>  (1) 
-5.71710157

>  <minimizedRMSD>  (1) 
1.42102468

$$$$
