
     RDKit          3D

 39 42  0  0  0  0  0  0  0  0999 V2000
   46.1520   34.9030   42.0270 C   0  0  0  0  0  0  0  0  0  0  0  0
   45.9280   34.6440   43.4290 C   0  0  0  0  0  0  0  0  0  0  0  0
   44.8940   35.3800   44.0150 C   0  0  0  0  0  0  0  0  0  0  0  0
   44.5470   35.2510   45.3510 C   0  0  0  0  0  0  0  0  0  0  0  0
   45.2750   34.3620   46.0570 N   0  0  0  0  0  0  0  0  0  0  0  0
   46.2800   33.6490   45.4830 C   0  0  0  0  0  0  0  0  0  0  0  0
   46.5850   33.8080   44.1700 N   0  0  0  0  0  0  0  0  0  0  0  0
   46.8920   32.8020   46.3770 O   0  0  0  0  0  0  0  0  0  0  0  0
   46.2390   31.9260   47.2060 C   0  0  0  0  0  0  0  0  0  0  0  0
   46.1930   32.2040   48.5570 C   0  0  0  0  0  0  0  0  0  0  0  0
   45.5370   31.3310   49.4020 C   0  0  0  0  0  0  0  0  0  0  0  0
   44.9400   30.2030   48.9180 N   0  0  0  0  0  0  0  0  0  0  0  0
   45.0110   29.9750   47.5940 C   0  0  0  0  0  0  0  0  0  0  0  0
   45.6400   30.8010   46.7390 N   0  0  0  0  0  0  0  0  0  0  0  0
   47.6150   35.0200   41.6890 C   0  0  0  0  0  0  0  0  0  0  0  0
   48.0160   34.1370   40.6490 N   0  0  0  0  0  0  0  0  0  0  0  0
   47.6510   34.0680   39.3670 C   0  0  0  0  0  0  0  0  0  0  0  0
   48.2790   33.0680   38.6860 C   0  0  0  0  0  0  0  0  0  0  0  0
   49.0870   32.4850   39.6280 N   0  0  0  0  0  0  0  0  0  0  0  0
   48.9040   33.1500   40.7920 C   0  0  0  0  0  0  0  0  0  0  0  0
   49.6780   32.6710   41.9780 C   0  0  0  0  0  0  0  0  0  0  0  0
   51.0630   32.1170   41.8190 C   0  0  0  0  0  0  0  0  0  0  0  0
   50.8690   33.4900   42.3990 C   0  0  0  0  0  0  0  0  0  0  0  0
   45.7197   34.0777   41.4423 H   0  0  0  0  0  0  0  0  0  0  0  0
   45.6748   35.8639   41.7841 H   0  0  0  0  0  0  0  0  0  0  0  0
   44.3327   36.0906   43.3905 H   0  0  0  0  0  0  0  0  0  0  0  0
   43.7325   35.8346   45.8048 H   0  0  0  0  0  0  0  0  0  0  0  0
   46.6730   33.1099   48.9557 H   0  0  0  0  0  0  0  0  0  0  0  0
   45.4949   31.5475   50.4797 H   0  0  0  0  0  0  0  0  0  0  0  0
   44.5319   29.0702   47.1917 H   0  0  0  0  0  0  0  0  0  0  0  0
   47.8200   36.0528   41.3708 H   0  0  0  0  0  0  0  0  0  0  0  0
   48.1843   34.7481   42.5901 H   0  0  0  0  0  0  0  0  0  0  0  0
   46.9188   34.7481   38.9073 H   0  0  0  0  0  0  0  0  0  0  0  0
   48.1643   32.7928   37.6272 H   0  0  0  0  0  0  0  0  0  0  0  0
   48.7611   32.2916   42.4528 H   0  0  0  0  0  0  0  0  0  0  0  0
   51.4019   31.2916   42.4623 H   0  0  0  0  0  0  0  0  0  0  0  0
   51.6424   31.7026   40.9808 H   0  0  0  0  0  0  0  0  0  0  0  0
   51.1588   34.3786   41.8190 H   0  0  0  0  0  0  0  0  0  0  0  0
   51.1787   33.9949   43.3259 H   0  0  0  0  0  0  0  0  0  0  0  0
  1  2  1  0
  2  3  2  0
  2  7  1  0
  3  4  1  0
  4  5  2  0
  6  5  1  0
  6  8  1  0
  7  6  2  0
  8  9  1  0
  9 10  2  0
 10 11  1  0
 12 11  2  0
 13 12  1  0
 14  9  1  0
 14 13  2  0
 15  1  1  0
 16 20  1  0
 16 15  1  0
 17 16  1  0
 18 17  2  0
 18 19  1  0
 19 20  2  0
 20 21  1  0
 21 23  1  0
 22 21  1  0
 22 23  1  0
  1 24  1  0
  1 25  1  0
  3 26  1  0
  4 27  1  0
 10 28  1  0
 11 29  1  0
 13 30  1  0
 15 31  1  0
 15 32  1  0
 17 33  1  0
 18 34  1  0
 21 35  1  0
 22 36  1  0
 22 37  1  0
 23 38  1  0
 23 39  1  0
M  ISO  8  24   8  25   8  26  14  27  14  28  14  29  14  30  14  31   8
M  ISO  8  32   8  33  14  34  14  35  13  36  13  37  13  38  13  39  13
M  END
>  <minimizedAffinity>  (1) 
-5.68915939

>  <minimizedRMSD>  (1) 
1.65986919

$$$$
