
     RDKit          3D

 38 41  0  0  0  0  0  0  0  0999 V2000
   46.5030   34.3470   40.9310 C   0  0  0  0  0  0  0  0  0  0  0  0
   47.5180   33.5380   40.3550 N   0  0  0  0  0  0  0  0  0  0  0  0
   47.5680   32.9340   39.1650 C   0  0  0  0  0  0  0  0  0  0  0  0
   48.7380   32.2410   38.9740 C   0  0  0  0  0  0  0  0  0  0  0  0
   49.4310   32.4480   40.1350 N   0  0  0  0  0  0  0  0  0  0  0  0
   48.6730   33.2310   40.9460 C   0  0  0  0  0  0  0  0  0  0  0  0
   49.2280   33.5720   42.2800 C   0  0  0  0  0  0  0  0  0  0  0  0
   50.7030   33.7580   42.4790 C   0  0  0  0  0  0  0  0  0  0  0  0
   49.7950   34.9550   42.4610 C   0  0  0  0  0  0  0  0  0  0  0  0
   45.5180   33.5680   41.7620 C   0  0  0  0  0  0  0  0  0  0  0  0
   45.2720   34.1770   43.0490 C   0  0  0  0  0  0  0  0  0  0  0  0
   44.8710   35.5080   43.0220 C   0  0  0  0  0  0  0  0  0  0  0  0
   44.5950   36.2360   44.1640 C   0  0  0  0  0  0  0  0  0  0  0  0
   44.7340   35.5810   45.3220 N   0  0  0  0  0  0  0  0  0  0  0  0
   45.1290   34.2680   45.3530 C   0  0  0  0  0  0  0  0  0  0  0  0
   45.3920   33.5870   44.1980 N   0  0  0  0  0  0  0  0  0  0  0  0
   45.2210   33.7550   46.6310 O   0  0  0  0  0  0  0  0  0  0  0  0
   46.0120   32.6560   46.9350 C   0  0  0  0  0  0  0  0  0  0  0  0
   47.2050   32.3480   47.5610 C   0  0  0  0  0  0  0  0  0  0  0  0
   47.4120   31.0350   47.5140 N   0  0  0  0  0  0  0  0  0  0  0  0
   46.3610   30.4900   46.8620 C   0  0  0  0  0  0  0  0  0  0  0  0
   45.4940   31.4750   46.5010 N   0  0  0  0  0  0  0  0  0  0  0  0
   45.9550   34.8491   40.1201 H   0  0  0  0  0  0  0  0  0  0  0  0
   46.9998   35.0631   41.6021 H   0  0  0  0  0  0  0  0  0  0  0  0
   46.7606   32.9859   38.4197 H   0  0  0  0  0  0  0  0  0  0  0  0
   49.0456   31.6568   38.0942 H   0  0  0  0  0  0  0  0  0  0  0  0
   48.4704   32.9475   42.7761 H   0  0  0  0  0  0  0  0  0  0  0  0
   51.1748   33.4403   43.4205 H   0  0  0  0  0  0  0  0  0  0  0  0
   51.6052   33.4591   41.9252 H   0  0  0  0  0  0  0  0  0  0  0  0
   49.8225   35.6541   41.6122 H   0  0  0  0  0  0  0  0  0  0  0  0
   49.5986   35.7940   43.1448 H   0  0  0  0  0  0  0  0  0  0  0  0
   44.5662   33.5060   41.2140 H   0  0  0  0  0  0  0  0  0  0  0  0
   45.9485   32.5719   41.9419 H   0  0  0  0  0  0  0  0  0  0  0  0
   44.7686   36.0049   42.0460 H   0  0  0  0  0  0  0  0  0  0  0  0
   44.2804   37.2893   44.1231 H   0  0  0  0  0  0  0  0  0  0  0  0
   47.8816   33.0789   48.0279 H   0  0  0  0  0  0  0  0  0  0  0  0
   46.2273   29.4179   46.6554 H   0  0  0  0  0  0  0  0  0  0  0  0
   44.6074   31.3494   45.9921 H   0  0  0  0  0  0  0  0  0  0  0  0
  1 10  1  0
  2  1  1  0
  2  6  1  0
  3  2  1  0
  4  3  2  0
  4  5  1  0
  5  6  2  0
  6  7  1  0
  7  9  1  0
  7  8  1  0
  9  8  1  0
 10 11  1  0
 11 16  1  0
 12 11  2  0
 12 13  1  0
 13 14  2  0
 14 15  1  0
 15 17  1  0
 16 15  2  0
 17 18  1  0
 18 19  2  0
 20 19  1  0
 21 20  2  0
 22 21  1  0
 22 18  1  0
  1 23  1  0
  1 24  1  0
  3 25  1  0
  4 26  1  0
  7 27  1  0
  8 28  1  0
  8 29  1  0
  9 30  1  0
  9 31  1  0
 10 32  1  0
 10 33  1  0
 12 34  1  0
 13 35  1  0
 19 36  1  0
 21 37  1  0
 22 38  1  0
M  ISO  8  23   8  24   8  25  14  26  14  27  13  28  13  29  13  30  13
M  ISO  8  31  13  32   8  33   8  34  14  35  14  36  14  37  14  38   9
M  END
>  <minimizedAffinity>  (1) 
-5.32811785

>  <minimizedRMSD>  (1) 
1.26096833

$$$$
