
     RDKit          3D

 42 43  0  0  1  0  0  0  0  0999 V2000
   46.2870   34.8170   41.5190 N   0  0  0  0  0  0  0  0  0  0  0  0
   45.2370   34.2150   40.9720 C   0  0  0  0  0  0  0  0  0  0  0  0
   45.5160   32.9120   40.2150 C   0  0  0  0  0  0  0  0  0  0  0  0
   46.8180   32.2760   40.4200 C   0  0  0  0  0  0  0  0  0  0  0  0
   47.7960   33.0860   41.2010 C   0  0  0  0  0  0  0  0  0  0  0  0
   47.5380   34.5300   40.9450 C   0  0  2  0  0  0  0  0  0  0  0  0
   46.3020   34.9810   42.8850 C   0  0  0  0  0  0  0  0  0  0  0  0
   45.1250   34.5870   43.6200 C   0  0  1  0  0  0  0  0  0  0  0  0
   45.5930   33.7700   45.9600 C   0  0  0  0  0  0  0  0  0  0  0  0
   45.4700   33.5310   44.5790 C   0  0  0  0  0  0  0  0  0  0  0  0
   45.6820   32.2340   44.0850 C   0  0  0  0  0  0  0  0  0  0  0  0
   45.9950   31.2630   44.9700 N   0  0  0  0  0  0  0  0  0  0  0  0
   46.1060   31.5260   46.3080 C   0  0  0  0  0  0  0  0  0  0  0  0
   45.9000   32.8120   46.8230 N   0  0  0  0  0  0  0  0  0  0  0  0
   44.4640   35.7630   44.2550 C   0  0  0  0  0  0  0  0  0  0  0  0
   45.1130   37.3430   43.6040 S   0  0  0  0  0  0  0  0  0  0  0  0
   48.6590   35.2910   41.5130 C   0  0  0  0  0  0  0  0  0  0  0  0
   49.7670   34.4810   42.1080 C   0  0  0  0  0  0  0  0  0  0  0  0
   50.2030   35.2330   43.2330 O   0  0  0  0  0  0  0  0  0  0  0  0
   44.5242   33.9875   41.7783 H   0  0  0  0  0  0  0  0  0  0  0  0
   44.8593   34.9176   40.2146 H   0  0  0  0  0  0  0  0  0  0  0  0
   45.4207   33.1284   39.1407 H   0  0  0  0  0  0  0  0  0  0  0  0
   44.7870   32.1931   40.6172 H   0  0  0  0  0  0  0  0  0  0  0  0
   46.6551   31.3284   40.9544 H   0  0  0  0  0  0  0  0  0  0  0  0
   47.2569   32.1421   39.4203 H   0  0  0  0  0  0  0  0  0  0  0  0
   47.6779   32.8741   42.2739 H   0  0  0  0  0  0  0  0  0  0  0  0
   48.8211   32.8301   40.8950 H   0  0  0  0  0  0  0  0  0  0  0  0
   47.4868   34.8027   39.8806 H   0  0  0  0  0  0  0  0  0  0  0  0
   47.1460   34.3946   43.2772 H   0  0  0  0  0  0  0  0  0  0  0  0
   46.3720   36.0686   43.0340 H   0  0  0  0  0  0  0  0  0  0  0  0
   44.3828   34.1689   42.9241 H   0  0  0  0  0  0  0  0  0  0  0  0
   45.4282   34.7899   46.3376 H   0  0  0  0  0  0  0  0  0  0  0  0
   45.5958   32.0154   43.0104 H   0  0  0  0  0  0  0  0  0  0  0  0
   46.3634   30.7073   46.9962 H   0  0  0  0  0  0  0  0  0  0  0  0
   43.3832   35.7137   44.0565 H   0  0  0  0  0  0  0  0  0  0  0  0
   44.6707   35.7285   45.3349 H   0  0  0  0  0  0  0  0  0  0  0  0
   45.4499   38.1632   44.6483 H   0  0  0  0  0  0  0  0  0  0  0  0
   49.0875   35.9088   40.7100 H   0  0  0  0  0  0  0  0  0  0  0  0
   48.2331   35.8684   42.3468 H   0  0  0  0  0  0  0  0  0  0  0  0
   49.3994   33.4927   42.4214 H   0  0  0  0  0  0  0  0  0  0  0  0
   50.5801   34.2989   41.3899 H   0  0  0  0  0  0  0  0  0  0  0  0
   49.9337   34.7686   44.0648 H   0  0  0  0  0  0  0  0  0  0  0  0
  1  7  1  0
  2  1  1  0
  3  4  1  0
  3  2  1  0
  4  5  1  0
  6  5  1  0
  6 17  1  0
  6  1  1  0
  7  8  1  0
  8 15  1  0
  8 10  1  0
  9 14  2  0
 10  9  1  0
 11 10  2  0
 11 12  1  0
 12 13  2  0
 13 14  1  0
 16 15  1  0
 17 18  1  0
 18 19  1  0
  2 20  1  0
  2 21  1  0
  3 22  1  0
  3 23  1  0
  4 24  1  0
  4 25  1  0
  5 26  1  0
  5 27  1  0
  6 28  1  6
  7 29  1  0
  7 30  1  0
  8 31  1  6
  9 32  1  0
 11 33  1  0
 13 34  1  0
 15 35  1  0
 15 36  1  0
 16 37  1  0
 17 38  1  0
 17 39  1  0
 18 40  1  0
 18 41  1  0
 19 42  1  0
M  ISO  8  20  13  21  13  22  13  23  13  24  13  25  13  26  13  27  13
M  ISO  8  28  13  29   8  30   8  31   8  32  14  33  14  34  14  35   8
M  ISO  7  36   8  37  11  38   8  39   8  40   8  41   8  42   3
M  END
>  <minimizedAffinity>  (1) 
-4.60744238

>  <minimizedRMSD>  (1) 
0.329753011

$$$$
