
     RDKit          3D

 33 35  0  0  0  0  0  0  0  0999 V2000
   47.7040   35.0440   41.6920 C   0  0  0  0  0  0  0  0  0  0  0  0
   48.0750   34.1550   40.6560 N   0  0  0  0  0  0  0  0  0  0  0  0
   47.6980   34.1060   39.3710 C   0  0  0  0  0  0  0  0  0  0  0  0
   48.2980   33.0850   38.6770 C   0  0  0  0  0  0  0  0  0  0  0  0
   49.0850   32.4840   39.6100 N   0  0  0  0  0  0  0  0  0  0  0  0
   48.9350   33.1430   40.7890 C   0  0  0  0  0  0  0  0  0  0  0  0
   49.6980   32.6340   41.9620 C   0  0  0  0  0  0  0  0  0  0  0  0
   51.0770   32.0670   41.7950 C   0  0  0  0  0  0  0  0  0  0  0  0
   50.9010   33.4350   42.3970 C   0  0  0  0  0  0  0  0  0  0  0  0
   46.2200   35.0470   41.9640 C   0  0  0  0  0  0  0  0  0  0  0  0
   45.9180   34.7660   43.3520 C   0  0  0  0  0  0  0  0  0  0  0  0
   44.9420   35.5720   43.9380 C   0  0  0  0  0  0  0  0  0  0  0  0
   44.5480   35.4250   45.2450 C   0  0  0  0  0  0  0  0  0  0  0  0
   45.1450   34.4600   45.9510 N   0  0  0  0  0  0  0  0  0  0  0  0
   46.1040   33.6670   45.3750 C   0  0  0  0  0  0  0  0  0  0  0  0
   46.4680   33.8430   44.0770 N   0  0  0  0  0  0  0  0  0  0  0  0
   46.6190   32.7210   46.2400 O   0  0  0  0  0  0  0  0  0  0  0  0
   46.0380   31.4740   46.3920 C   0  0  0  0  0  0  0  0  0  0  0  0
   45.4500   31.3340   47.4930 O   0  0  0  0  0  0  0  0  0  0  0  0
   48.0100   36.0614   41.4070 H   0  0  0  0  0  0  0  0  0  0  0  0
   48.2059   34.7060   42.6106 H   0  0  0  0  0  0  0  0  0  0  0  0
   46.9831   34.8098   38.9199 H   0  0  0  0  0  0  0  0  0  0  0  0
   48.1723   32.8164   37.6177 H   0  0  0  0  0  0  0  0  0  0  0  0
   48.7770   32.2555   42.4294 H   0  0  0  0  0  0  0  0  0  0  0  0
   51.4058   31.2277   42.4255 H   0  0  0  0  0  0  0  0  0  0  0  0
   51.6513   31.6589   40.9502 H   0  0  0  0  0  0  0  0  0  0  0  0
   51.2017   34.3288   41.8307 H   0  0  0  0  0  0  0  0  0  0  0  0
   51.2169   33.9221   43.3313 H   0  0  0  0  0  0  0  0  0  0  0  0
   45.8146   36.0366   41.7065 H   0  0  0  0  0  0  0  0  0  0  0  0
   45.7628   34.2556   41.3519 H   0  0  0  0  0  0  0  0  0  0  0  0
   44.4692   36.3565   43.3288 H   0  0  0  0  0  0  0  0  0  0  0  0
   43.7771   36.0712   45.6902 H   0  0  0  0  0  0  0  0  0  0  0  0
   46.0863   30.6857   45.6264 H   0  0  0  0  0  0  0  0  0  0  0  0
  1 10  1  0
  2  6  1  0
  2  1  1  0
  3  2  1  0
  4  3  2  0
  4  5  1  0
  5  6  2  0
  6  7  1  0
  7  9  1  0
  8  7  1  0
  8  9  1  0
 10 11  1  0
 11 12  2  0
 11 16  1  0
 12 13  1  0
 13 14  2  0
 15 14  1  0
 15 17  1  0
 16 15  2  0
 17 18  1  0
 18 19  2  0
  1 20  1  0
  1 21  1  0
  3 22  1  0
  4 23  1  0
  7 24  1  0
  8 25  1  0
  8 26  1  0
  9 27  1  0
  9 28  1  0
 10 29  1  0
 10 30  1  0
 12 31  1  0
 13 32  1  0
 18 33  1  0
M  ISO  8  20   8  21   8  22  14  23  14  24  13  25  13  26  13  27  13
M  ISO  6  28  13  29   8  30   8  31  14  32  14  33   6
M  END
>  <minimizedAffinity>  (1) 
-4.58952618

>  <minimizedRMSD>  (1) 
0.783631861

$$$$
