
     RDKit          3D

 43 44  0  0  1  0  0  0  0  0999 V2000
   46.1900   34.7860   41.4830 N   0  0  0  0  0  0  0  0  0  0  0  0
   45.1130   34.2030   40.9700 C   0  0  0  0  0  0  0  0  0  0  0  0
   45.3480   32.8940   40.2090 C   0  0  0  0  0  0  0  0  0  0  0  0
   46.6330   32.2160   40.3960 C   0  0  0  0  0  0  0  0  0  0  0  0
   47.6510   33.0150   41.1330 C   0  0  0  0  0  0  0  0  0  0  0  0
   47.4150   34.4660   40.8740 C   0  0  2  0  0  0  0  0  0  0  0  0
   46.2510   34.9540   42.8470 C   0  0  0  0  0  0  0  0  0  0  0  0
   45.0950   34.5770   43.6200 C   0  0  1  0  0  0  0  0  0  0  0  0
   45.6000   33.7690   45.9540 C   0  0  0  0  0  0  0  0  0  0  0  0
   45.4560   33.5260   44.5770 C   0  0  0  0  0  0  0  0  0  0  0  0
   45.6630   32.2260   44.0830 C   0  0  0  0  0  0  0  0  0  0  0  0
   45.9930   31.2600   44.9640 N   0  0  0  0  0  0  0  0  0  0  0  0
   46.1250   31.5270   46.2990 C   0  0  0  0  0  0  0  0  0  0  0  0
   45.9230   32.8150   46.8140 N   0  0  0  0  0  0  0  0  0  0  0  0
   44.4680   35.7650   44.2650 C   0  0  0  0  0  0  0  0  0  0  0  0
   45.1160   37.3320   43.5960 S   0  0  0  0  0  0  0  0  0  0  0  0
   48.5720   35.2000   41.4040 C   0  0  0  0  0  0  0  0  0  0  0  0
   49.6770   34.3670   41.9720 C   0  0  0  0  0  0  0  0  0  0  0  0
   50.2080   35.1710   43.0940 N   0  0  0  0  0  0  0  0  0  0  0  0
   44.4207   33.9899   41.7978 H   0  0  0  0  0  0  0  0  0  0  0  0
   44.7235   34.9108   40.2235 H   0  0  0  0  0  0  0  0  0  0  0  0
   45.2471   33.1156   39.1363 H   0  0  0  0  0  0  0  0  0  0  0  0
   44.6043   32.1965   40.6218 H   0  0  0  0  0  0  0  0  0  0  0  0
   46.4530   31.2872   40.9572 H   0  0  0  0  0  0  0  0  0  0  0  0
   47.0424   32.0384   39.3906 H   0  0  0  0  0  0  0  0  0  0  0  0
   47.5662   32.8148   42.2113 H   0  0  0  0  0  0  0  0  0  0  0  0
   48.6588   32.7369   40.7909 H   0  0  0  0  0  0  0  0  0  0  0  0
   47.3340   34.7349   39.8105 H   0  0  0  0  0  0  0  0  0  0  0  0
   47.1001   34.3586   43.2138 H   0  0  0  0  0  0  0  0  0  0  0  0
   46.3389   36.0411   42.9899 H   0  0  0  0  0  0  0  0  0  0  0  0
   44.3290   34.1593   42.9501 H   0  0  0  0  0  0  0  0  0  0  0  0
   45.4384   34.7895   46.3313 H   0  0  0  0  0  0  0  0  0  0  0  0
   45.5589   32.0038   43.0107 H   0  0  0  0  0  0  0  0  0  0  0  0
   46.3963   30.7112   46.9852 H   0  0  0  0  0  0  0  0  0  0  0  0
   43.3819   35.7290   44.0945 H   0  0  0  0  0  0  0  0  0  0  0  0
   44.7054   35.7317   45.3386 H   0  0  0  0  0  0  0  0  0  0  0  0
   45.4595   38.1626   44.6299 H   0  0  0  0  0  0  0  0  0  0  0  0
   48.9921   35.8017   40.5846 H   0  0  0  0  0  0  0  0  0  0  0  0
   48.1852   35.7915   42.2469 H   0  0  0  0  0  0  0  0  0  0  0  0
   49.2905   33.4027   42.3335 H   0  0  0  0  0  0  0  0  0  0  0  0
   50.4489   34.1306   41.2248 H   0  0  0  0  0  0  0  0  0  0  0  0
   49.9253   34.7429   43.9871 H   0  0  0  0  0  0  0  0  0  0  0  0
   51.2360   35.2016   43.0381 H   0  0  0  0  0  0  0  0  0  0  0  0
  1  7  1  0
  2  1  1  0
  3  4  1  0
  3  2  1  0
  4  5  1  0
  6  5  1  0
  6 17  1  0
  6  1  1  0
  7  8  1  0
  8 15  1  0
  8 10  1  0
  9 14  2  0
 10  9  1  0
 11 10  2  0
 11 12  1  0
 12 13  2  0
 13 14  1  0
 16 15  1  0
 17 18  1  0
 18 19  1  0
  2 20  1  0
  2 21  1  0
  3 22  1  0
  3 23  1  0
  4 24  1  0
  4 25  1  0
  5 26  1  0
  5 27  1  0
  6 28  1  6
  7 29  1  0
  7 30  1  0
  8 31  1  6
  9 32  1  0
 11 33  1  0
 13 34  1  0
 15 35  1  0
 15 36  1  0
 16 37  1  0
 17 38  1  0
 17 39  1  0
 18 40  1  0
 18 41  1  0
 19 42  1  0
 19 43  1  0
M  ISO  8  20  13  21  13  22  13  23  13  24  13  25  13  26  13  27  13
M  ISO  8  28  13  29   8  30   8  31   8  32  14  33  14  34  14  35   8
M  ISO  8  36   8  37  11  38   8  39   8  40   8  41   8  42   5  43   5
M  END
>  <minimizedAffinity>  (1) 
-4.55550575

>  <minimizedRMSD>  (1) 
0.426380605

$$$$
