
     RDKit          3D

 52 57  0  0  1  0  0  0  0  0999 V2000
   45.6510   34.6380   43.4220 C   0  0  0  0  0  0  0  0  0  0  0  0
   44.8370   35.6690   43.9140 C   0  0  0  0  0  0  0  0  0  0  0  0
   44.4330   35.7430   45.2090 C   0  0  0  0  0  0  0  0  0  0  0  0
   44.8550   34.7610   46.0260 N   0  0  0  0  0  0  0  0  0  0  0  0
   45.6550   33.7400   45.5550 C   0  0  0  0  0  0  0  0  0  0  0  0
   46.0490   33.6890   44.2440 N   0  0  0  0  0  0  0  0  0  0  0  0
   45.9860   34.7020   42.0200 C   0  0  0  0  0  0  0  0  0  0  0  0
   47.4570   34.8150   41.7800 C   0  0  0  0  0  0  0  0  0  0  0  0
   47.9230   34.0130   40.7230 N   0  0  0  0  0  0  0  0  0  0  0  0
   47.5580   33.9790   39.4440 C   0  0  0  0  0  0  0  0  0  0  0  0
   48.2700   33.0510   38.7180 C   0  0  0  0  0  0  0  0  0  0  0  0
   49.1190   32.4960   39.6330 N   0  0  0  0  0  0  0  0  0  0  0  0
   48.8800   33.0990   40.8230 C   0  0  0  0  0  0  0  0  0  0  0  0
   49.6930   32.6060   41.9760 C   0  0  0  0  0  0  0  0  0  0  0  0
   51.0950   32.1410   41.7950 C   0  0  0  0  0  0  0  0  0  0  0  0
   50.8440   33.5000   42.4130 C   0  0  0  0  0  0  0  0  0  0  0  0
   46.0100   32.8010   46.4950 O   0  0  0  0  0  0  0  0  0  0  0  0
   45.1930   32.6540   47.6470 C   0  0  2  0  0  0  0  0  0  0  0  0
   45.9470   32.4100   48.9190 C   0  0  0  0  0  0  0  0  0  0  0  0
   45.1570   31.3280   48.3250 C   0  0  2  0  0  0  0  0  0  0  0  0
   45.7070   30.2260   47.5170 C   0  0  0  0  0  0  0  0  0  0  0  0
   44.7280   29.4950   46.8310 C   0  0  0  0  0  0  0  0  0  0  0  0
   45.3340   28.5260   46.1060 N   0  0  0  0  0  0  0  0  0  0  0  0
   46.6820   28.5860   46.2850 C   0  0  0  0  0  0  0  0  0  0  0  0
   47.8260   27.9340   45.8760 C   0  0  0  0  0  0  0  0  0  0  0  0
   49.0740   28.3240   46.3180 C   0  0  0  0  0  0  0  0  0  0  0  0
   49.2370   29.3960   47.2020 C   0  0  0  0  0  0  0  0  0  0  0  0
   48.1040   30.0620   47.6250 C   0  0  0  0  0  0  0  0  0  0  0  0
   46.8850   29.6350   47.1540 C   0  0  0  0  0  0  0  0  0  0  0  0
   44.5101   36.4554   43.2178 H   0  0  0  0  0  0  0  0  0  0  0  0
   43.7945   36.5626   45.5704 H   0  0  0  0  0  0  0  0  0  0  0  0
   45.6190   33.7886   41.5290 H   0  0  0  0  0  0  0  0  0  0  0  0
   45.5130   35.6055   41.6076 H   0  0  0  0  0  0  0  0  0  0  0  0
   47.6909   35.8645   41.5482 H   0  0  0  0  0  0  0  0  0  0  0  0
   47.9586   34.4637   42.6938 H   0  0  0  0  0  0  0  0  0  0  0  0
   46.7747   34.6208   39.0146 H   0  0  0  0  0  0  0  0  0  0  0  0
   48.1768   32.8117   37.6484 H   0  0  0  0  0  0  0  0  0  0  0  0
   48.8095   32.1430   42.4397 H   0  0  0  0  0  0  0  0  0  0  0  0
   51.4842   31.3206   42.4159 H   0  0  0  0  0  0  0  0  0  0  0  0
   51.6842   31.7781   40.9399 H   0  0  0  0  0  0  0  0  0  0  0  0
   51.0781   34.4157   41.8503 H   0  0  0  0  0  0  0  0  0  0  0  0
   51.1360   34.0045   43.3458 H   0  0  0  0  0  0  0  0  0  0  0  0
   44.4208   33.3494   47.2862 H   0  0  0  0  0  0  0  0  0  0  0  0
   47.0457   32.3592   48.9049 H   0  0  0  0  0  0  0  0  0  0  0  0
   45.9808   32.8944   49.9060 H   0  0  0  0  0  0  0  0  0  0  0  0
   44.4303   30.6450   48.7892 H   0  0  0  0  0  0  0  0  0  0  0  0
   43.6443   29.6786   46.8746 H   0  0  0  0  0  0  0  0  0  0  0  0
   44.8470   27.8439   45.5072 H   0  0  0  0  0  0  0  0  0  0  0  0
   47.7422   27.0845   45.1823 H   0  0  0  0  0  0  0  0  0  0  0  0
   49.9623   27.7786   45.9666 H   0  0  0  0  0  0  0  0  0  0  0  0
   50.2360   29.6986   47.5490 H   0  0  0  0  0  0  0  0  0  0  0  0
   48.1747   30.9115   48.3202 H   0  0  0  0  0  0  0  0  0  0  0  0
  1  2  2  0
  1  6  1  0
  2  3  1  0
  3  4  2  0
  5  4  1  0
  5 17  1  0
  6  5  2  0
  7  1  1  0
  8  7  1  0
  9 13  1  0
  9  8  1  0
 10  9  1  0
 11 10  2  0
 11 12  1  0
 12 13  2  0
 13 14  1  0
 14 16  1  0
 15 14  1  0
 15 16  1  0
 17 18  1  0
 18 20  1  0
 18 19  1  0
 20 19  1  0
 21 20  1  0
 22 21  2  0
 23 24  1  0
 23 22  1  0
 24 29  2  0
 25 24  1  0
 25 26  2  0
 26 27  1  0
 27 28  2  0
 29 21  1  0
 29 28  1  0
  2 30  1  0
  3 31  1  0
  7 32  1  0
  7 33  1  0
  8 34  1  0
  8 35  1  0
 10 36  1  0
 11 37  1  0
 14 38  1  0
 15 39  1  0
 15 40  1  0
 16 41  1  0
 16 42  1  0
 18 43  1  1
 19 44  1  0
 19 45  1  0
 20 46  1  1
 22 47  1  0
 23 48  1  0
 25 49  1  0
 26 50  1  0
 27 51  1  0
 28 52  1  0
M  ISO  8  30  14  31  14  32   8  33   8  34   8  35   8  36  14  37  14
M  ISO  8  38  13  39  13  40  13  41  13  42  13  43  13  44  13  45  13
M  ISO  7  46  13  47  14  48   9  49  14  50  14  51  14  52  14
M  END
>  <minimizedAffinity>  (1) 
-6.08474445

>  <minimizedRMSD>  (1) 
1.05215633

$$$$
