
     RDKit          3D

 51 55  0  0  1  0  0  0  0  0999 V2000
   46.0060   34.7120   41.9490 C   0  0  0  0  0  0  0  0  0  0  0  0
   45.6620   34.6890   43.3460 C   0  0  0  0  0  0  0  0  0  0  0  0
   44.8040   35.6900   43.7920 C   0  0  0  0  0  0  0  0  0  0  0  0
   44.3780   35.8030   45.0950 C   0  0  0  0  0  0  0  0  0  0  0  0
   44.8420   34.8730   45.9490 N   0  0  0  0  0  0  0  0  0  0  0  0
   45.6900   33.8820   45.5170 C   0  0  0  0  0  0  0  0  0  0  0  0
   46.0950   33.7980   44.2080 N   0  0  0  0  0  0  0  0  0  0  0  0
   46.0910   32.9930   46.4940 O   0  0  0  0  0  0  0  0  0  0  0  0
   45.2380   32.7970   47.6110 C   0  0  2  0  0  0  0  0  0  0  0  0
   45.9520   32.3020   48.8420 C   0  0  0  0  0  0  0  0  0  0  0  0
   45.0200   31.4210   48.1220 C   0  0  2  0  0  0  0  0  0  0  0  0
   45.6410   30.2770   47.3540 C   0  0  0  0  0  0  0  0  0  0  0  0
   47.0230   29.9080   47.8470 C   0  0  0  0  0  0  0  0  0  0  0  0
   47.2400   28.6040   47.0620 C   0  0  0  0  0  0  0  0  0  0  0  0
   45.9430   27.8820   47.4500 C   0  0  0  0  0  0  0  0  0  0  0  0
   44.8890   28.9830   47.5080 C   0  0  0  0  0  0  0  0  0  0  0  0
   47.4780   34.8330   41.7130 C   0  0  0  0  0  0  0  0  0  0  0  0
   47.9570   34.0230   40.6660 N   0  0  0  0  0  0  0  0  0  0  0  0
   47.6030   33.9970   39.3810 C   0  0  0  0  0  0  0  0  0  0  0  0
   48.3180   33.0580   38.6630 C   0  0  0  0  0  0  0  0  0  0  0  0
   49.1480   32.4960   39.5930 N   0  0  0  0  0  0  0  0  0  0  0  0
   48.9030   33.1010   40.7870 C   0  0  0  0  0  0  0  0  0  0  0  0
   49.6950   32.6060   41.9540 C   0  0  0  0  0  0  0  0  0  0  0  0
   51.0990   32.1430   41.7940 C   0  0  0  0  0  0  0  0  0  0  0  0
   50.8380   33.5070   42.3980 C   0  0  0  0  0  0  0  0  0  0  0  0
   45.6518   33.7796   41.4851 H   0  0  0  0  0  0  0  0  0  0  0  0
   45.5272   35.5978   41.5061 H   0  0  0  0  0  0  0  0  0  0  0  0
   44.4469   36.4316   43.0623 H   0  0  0  0  0  0  0  0  0  0  0  0
   43.6989   36.6054   45.4191 H   0  0  0  0  0  0  0  0  0  0  0  0
   44.5575   33.6165   47.3366 H   0  0  0  0  0  0  0  0  0  0  0  0
   47.0335   32.1040   48.8090 H   0  0  0  0  0  0  0  0  0  0  0  0
   46.0486   32.6520   49.8804 H   0  0  0  0  0  0  0  0  0  0  0  0
   44.1248   30.8429   48.3947 H   0  0  0  0  0  0  0  0  0  0  0  0
   45.6380   30.6593   46.3226 H   0  0  0  0  0  0  0  0  0  0  0  0
   47.7689   30.6727   47.5845 H   0  0  0  0  0  0  0  0  0  0  0  0
   47.1187   29.8157   48.9389 H   0  0  0  0  0  0  0  0  0  0  0  0
   48.1339   28.0603   47.4017 H   0  0  0  0  0  0  0  0  0  0  0  0
   47.4151   28.7215   45.9824 H   0  0  0  0  0  0  0  0  0  0  0  0
   45.6766   27.1296   46.6931 H   0  0  0  0  0  0  0  0  0  0  0  0
   46.0359   27.3443   48.4051 H   0  0  0  0  0  0  0  0  0  0  0  0
   44.3619   28.9585   48.4732 H   0  0  0  0  0  0  0  0  0  0  0  0
   44.1298   28.8593   46.7217 H   0  0  0  0  0  0  0  0  0  0  0  0
   47.7047   35.8818   41.4708 H   0  0  0  0  0  0  0  0  0  0  0  0
   47.9774   34.4940   42.6326 H   0  0  0  0  0  0  0  0  0  0  0  0
   46.8314   34.6475   38.9434 H   0  0  0  0  0  0  0  0  0  0  0  0
   48.2382   32.8183   37.5924 H   0  0  0  0  0  0  0  0  0  0  0  0
   48.8079   32.1402   42.4081 H   0  0  0  0  0  0  0  0  0  0  0  0
   51.4823   31.3286   42.4263 H   0  0  0  0  0  0  0  0  0  0  0  0
   51.6992   31.7744   40.9491 H   0  0  0  0  0  0  0  0  0  0  0  0
   51.0768   34.4187   41.8307 H   0  0  0  0  0  0  0  0  0  0  0  0
   51.1174   34.0200   43.3300 H   0  0  0  0  0  0  0  0  0  0  0  0
  1  2  1  0
  2  3  2  0
  2  7  1  0
  3  4  1  0
  4  5  2  0
  6  5  1  0
  6  8  1  0
  7  6  2  0
  8  9  1  0
  9 11  1  0
  9 10  1  0
 11 10  1  0
 12 16  1  0
 12 13  1  0
 12 11  1  0
 14 15  1  0
 14 13  1  0
 15 16  1  0
 17  1  1  0
 18 22  1  0
 18 17  1  0
 19 18  1  0
 20 19  2  0
 20 21  1  0
 21 22  2  0
 22 23  1  0
 23 25  1  0
 24 23  1  0
 24 25  1  0
  1 26  1  0
  1 27  1  0
  3 28  1  0
  4 29  1  0
  9 30  1  1
 10 31  1  0
 10 32  1  0
 11 33  1  1
 12 34  1  0
 13 35  1  0
 13 36  1  0
 14 37  1  0
 14 38  1  0
 15 39  1  0
 15 40  1  0
 16 41  1  0
 16 42  1  0
 17 43  1  0
 17 44  1  0
 19 45  1  0
 20 46  1  0
 23 47  1  0
 24 48  1  0
 24 49  1  0
 25 50  1  0
 25 51  1  0
M  ISO  8  26   8  27   8  28  14  29  14  30  13  31  13  32  13  33  13
M  ISO  8  34  13  35  13  36  13  37  13  38  13  39  13  40  13  41  13
M  ISO  8  42  13  43   8  44   8  45  14  46  14  47  13  48  13  49  13
M  ISO  2  50  13  51  13
M  END
>  <minimizedAffinity>  (1) 
-5.85403872

>  <minimizedRMSD>  (1) 
0.345554888

$$$$
