
     RDKit          3D

 48 52  0  0  1  0  0  0  0  0999 V2000
   45.9870   34.5760   43.4410 C   0  0  0  0  0  0  0  0  0  0  0  0
   44.9750   35.2520   44.1260 C   0  0  0  0  0  0  0  0  0  0  0  0
   44.6680   35.0330   45.4480 C   0  0  0  0  0  0  0  0  0  0  0  0
   45.4170   34.1040   46.0740 N   0  0  0  0  0  0  0  0  0  0  0  0
   46.4180   33.4300   45.4070 C   0  0  0  0  0  0  0  0  0  0  0  0
   46.6900   33.6810   44.0890 N   0  0  0  0  0  0  0  0  0  0  0  0
   46.1630   34.9310   42.0570 C   0  0  0  0  0  0  0  0  0  0  0  0
   47.6020   35.0560   41.6720 C   0  0  0  0  0  0  0  0  0  0  0  0
   48.0060   34.1420   40.6690 N   0  0  0  0  0  0  0  0  0  0  0  0
   47.6250   34.0610   39.3930 C   0  0  0  0  0  0  0  0  0  0  0  0
   48.2550   33.0360   38.7320 C   0  0  0  0  0  0  0  0  0  0  0  0
   49.0640   32.4730   39.6850 N   0  0  0  0  0  0  0  0  0  0  0  0
   48.8880   33.1660   40.8400 C   0  0  0  0  0  0  0  0  0  0  0  0
   49.6550   32.6950   42.0180 C   0  0  0  0  0  0  0  0  0  0  0  0
   51.0180   32.1140   41.8880 C   0  0  0  0  0  0  0  0  0  0  0  0
   50.8630   33.5310   42.4060 C   0  0  0  0  0  0  0  0  0  0  0  0
   47.0990   32.5100   46.1730 O   0  0  0  0  0  0  0  0  0  0  0  0
   46.3520   31.5250   46.8740 C   0  0  2  0  0  0  0  0  0  0  0  0
   46.6980   31.4460   48.3430 C   0  0  0  0  0  0  0  0  0  0  0  0
   47.0660   30.3410   47.4130 C   0  0  1  0  0  0  0  0  0  0  0  0
   46.4680   29.0600   47.5900 N   0  0  0  0  0  0  0  0  0  0  0  0
   45.1650   28.7830   47.6730 C   0  0  0  0  0  0  0  0  0  0  0  0
   44.6480   27.5110   47.8460 C   0  0  0  0  0  0  0  0  0  0  0  0
   45.5500   26.4990   47.9350 C   0  0  0  0  0  0  0  0  0  0  0  0
   45.0950   25.3220   48.0950 O   0  0  0  0  0  0  0  0  0  0  0  0
   46.8670   26.7480   47.8550 N   0  0  0  0  0  0  0  0  0  0  0  0
   47.3040   28.0090   47.6860 C   0  0  0  0  0  0  0  0  0  0  0  0
   48.5700   28.1360   47.6240 O   0  0  0  0  0  0  0  0  0  0  0  0
   44.3895   36.0033   43.5758 H   0  0  0  0  0  0  0  0  0  0  0  0
   43.8636   35.5803   45.9612 H   0  0  0  0  0  0  0  0  0  0  0  0
   45.6978   34.1541   41.4325 H   0  0  0  0  0  0  0  0  0  0  0  0
   45.6914   35.9128   41.9033 H   0  0  0  0  0  0  0  0  0  0  0  0
   47.7744   36.0770   41.3008 H   0  0  0  0  0  0  0  0  0  0  0  0
   48.1951   34.8292   42.5702 H   0  0  0  0  0  0  0  0  0  0  0  0
   46.8926   34.7358   38.9258 H   0  0  0  0  0  0  0  0  0  0  0  0
   48.1378   32.7357   37.6803 H   0  0  0  0  0  0  0  0  0  0  0  0
   48.7368   32.3280   42.4999 H   0  0  0  0  0  0  0  0  0  0  0  0
   51.3397   31.3134   42.5703 H   0  0  0  0  0  0  0  0  0  0  0  0
   51.5850   31.6478   41.0688 H   0  0  0  0  0  0  0  0  0  0  0  0
   51.1686   34.3847   41.7832 H   0  0  0  0  0  0  0  0  0  0  0  0
   51.1836   34.0784   43.3046 H   0  0  0  0  0  0  0  0  0  0  0  0
   45.4479   31.6399   46.2580 H   0  0  0  0  0  0  0  0  0  0  0  0
   47.4787   32.0979   48.7621 H   0  0  0  0  0  0  0  0  0  0  0  0
   46.1341   31.5208   49.2845 H   0  0  0  0  0  0  0  0  0  0  0  0
   47.9879   29.8268   47.1038 H   0  0  0  0  0  0  0  0  0  0  0  0
   44.4557   29.6205   47.5991 H   0  0  0  0  0  0  0  0  0  0  0  0
   43.5649   27.3291   47.9081 H   0  0  0  0  0  0  0  0  0  0  0  0
   47.5426   25.9735   47.9230 H   0  0  0  0  0  0  0  0  0  0  0  0
  1  6  1  0
  1  2  2  0
  2  3  1  0
  3  4  2  0
  5  4  1  0
  5 17  1  0
  6  5  2  0
  7  1  1  0
  8  7  1  0
  9 13  1  0
  9  8  1  0
 10  9  1  0
 11 10  2  0
 11 12  1  0
 12 13  2  0
 13 14  1  0
 14 16  1  0
 15 14  1  0
 15 16  1  0
 17 18  1  0
 18 20  1  0
 18 19  1  0
 20 21  1  0
 20 19  1  0
 21 22  1  0
 21 27  1  0
 22 23  2  0
 23 24  1  0
 24 25  2  0
 26 24  1  0
 27 26  1  0
 28 27  2  0
  2 29  1  0
  3 30  1  0
  7 31  1  0
  7 32  1  0
  8 33  1  0
  8 34  1  0
 10 35  1  0
 11 36  1  0
 14 37  1  0
 15 38  1  0
 15 39  1  0
 16 40  1  0
 16 41  1  0
 18 42  1  1
 19 43  1  0
 19 44  1  0
 20 45  1  6
 22 46  1  0
 23 47  1  0
 26 48  1  0
M  ISO  8  29  14  30  14  31   8  32   8  33   8  34   8  35  14  36  14
M  ISO  8  37  13  38  13  39  13  40  13  41  13  42  13  43  13  44  13
M  ISO  4  45  13  46  14  47  14  48   9
M  END
>  <minimizedAffinity>  (1) 
-5.58979511

>  <minimizedRMSD>  (1) 
3.11989617

$$$$
