
     RDKit          3D

 51 55  0  0  1  0  0  0  0  0999 V2000
   45.8870   34.8140   43.2520 C   0  0  0  0  0  0  0  0  0  0  0  0
   44.9120   35.6970   43.7370 C   0  0  0  0  0  0  0  0  0  0  0  0
   44.4530   35.6740   45.0300 C   0  0  0  0  0  0  0  0  0  0  0  0
   44.9940   34.7410   45.8350 N   0  0  0  0  0  0  0  0  0  0  0  0
   45.9500   33.8730   45.3660 C   0  0  0  0  0  0  0  0  0  0  0  0
   46.3950   33.9140   44.0680 N   0  0  0  0  0  0  0  0  0  0  0  0
   46.2560   34.9700   41.8670 C   0  0  0  0  0  0  0  0  0  0  0  0
   47.7350   34.9210   41.6570 C   0  0  0  0  0  0  0  0  0  0  0  0
   48.1310   34.0580   40.6160 N   0  0  0  0  0  0  0  0  0  0  0  0
   47.7730   34.0480   39.3320 C   0  0  0  0  0  0  0  0  0  0  0  0
   48.3930   33.0410   38.6250 C   0  0  0  0  0  0  0  0  0  0  0  0
   49.1730   32.4130   39.5600 N   0  0  0  0  0  0  0  0  0  0  0  0
   48.9870   33.0540   40.7460 C   0  0  0  0  0  0  0  0  0  0  0  0
   49.7320   32.4990   41.9160 C   0  0  0  0  0  0  0  0  0  0  0  0
   51.0940   31.9210   41.7710 C   0  0  0  0  0  0  0  0  0  0  0  0
   50.9370   33.3040   42.3730 C   0  0  0  0  0  0  0  0  0  0  0  0
   46.4220   32.9650   46.2910 O   0  0  0  0  0  0  0  0  0  0  0  0
   45.5740   32.6060   47.3730 C   0  0  2  0  0  0  0  0  0  0  0  0
   46.3010   32.0000   48.5420 C   0  0  0  0  0  0  0  0  0  0  0  0
   45.4080   31.1610   47.6940 C   0  0  2  0  0  0  0  0  0  0  0  0
   46.0860   30.2740   46.7700 N   0  0  0  0  0  0  0  0  0  0  0  0
   46.6290   29.1090   47.4340 C   0  0  0  0  0  0  0  0  0  0  0  0
   45.5270   28.1360   47.6880 C   0  0  0  0  0  0  0  0  0  0  0  0
   44.7430   27.9550   46.5780 O   0  0  0  0  0  0  0  0  0  0  0  0
   45.2930   28.4810   45.4260 C   0  0  0  0  0  0  0  0  0  0  0  0
   45.3180   29.9850   45.6000 C   0  0  0  0  0  0  0  0  0  0  0  0
   44.4944   36.4451   43.0471 H   0  0  0  0  0  0  0  0  0  0  0  0
   43.6870   36.3776   45.3879 H   0  0  0  0  0  0  0  0  0  0  0  0
   45.7906   34.1608   41.2851 H   0  0  0  0  0  0  0  0  0  0  0  0
   45.9055   35.9595   41.5383 H   0  0  0  0  0  0  0  0  0  0  0  0
   48.0858   35.9360   41.4190 H   0  0  0  0  0  0  0  0  0  0  0  0
   48.1786   34.5304   42.5847 H   0  0  0  0  0  0  0  0  0  0  0  0
   47.0638   34.7619   38.8878 H   0  0  0  0  0  0  0  0  0  0  0  0
   48.2865   32.7977   37.5575 H   0  0  0  0  0  0  0  0  0  0  0  0
   48.8052   32.1066   42.3600 H   0  0  0  0  0  0  0  0  0  0  0  0
   51.4021   31.0783   42.4073 H   0  0  0  0  0  0  0  0  0  0  0  0
   51.6716   31.5035   40.9331 H   0  0  0  0  0  0  0  0  0  0  0  0
   51.2554   34.1929   41.8087 H   0  0  0  0  0  0  0  0  0  0  0  0
   51.2461   33.7935   43.3083 H   0  0  0  0  0  0  0  0  0  0  0  0
   44.8631   33.4281   47.2034 H   0  0  0  0  0  0  0  0  0  0  0  0
   47.3913   31.8602   48.5003 H   0  0  0  0  0  0  0  0  0  0  0  0
   46.3720   32.2231   49.6168 H   0  0  0  0  0  0  0  0  0  0  0  0
   44.5565   30.4955   47.8992 H   0  0  0  0  0  0  0  0  0  0  0  0
   47.3926   28.6424   46.7942 H   0  0  0  0  0  0  0  0  0  0  0  0
   47.0892   29.4061   48.3879 H   0  0  0  0  0  0  0  0  0  0  0  0
   45.9650   27.1690   47.9763 H   0  0  0  0  0  0  0  0  0  0  0  0
   44.8938   28.5383   48.4925 H   0  0  0  0  0  0  0  0  0  0  0  0
   44.6778   28.2108   44.5551 H   0  0  0  0  0  0  0  0  0  0  0  0
   46.3057   28.0865   45.2565 H   0  0  0  0  0  0  0  0  0  0  0  0
   45.7823   30.4562   44.7212 H   0  0  0  0  0  0  0  0  0  0  0  0
   44.2958   30.3781   45.7031 H   0  0  0  0  0  0  0  0  0  0  0  0
  1  2  2  0
  1  6  1  0
  2  3  1  0
  3  4  2  0
  5  4  1  0
  5 17  1  0
  6  5  2  0
  7  1  1  0
  8  7  1  0
  9 13  1  0
  9  8  1  0
 10  9  1  0
 11 10  2  0
 11 12  1  0
 12 13  2  0
 13 14  1  0
 14 16  1  0
 15 14  1  0
 15 16  1  0
 17 18  1  0
 18 20  1  0
 18 19  1  0
 20 19  1  0
 21 22  1  0
 21 20  1  0
 22 23  1  0
 24 23  1  0
 25 26  1  0
 25 24  1  0
 26 21  1  0
  2 27  1  0
  3 28  1  0
  7 29  1  0
  7 30  1  0
  8 31  1  0
  8 32  1  0
 10 33  1  0
 11 34  1  0
 14 35  1  0
 15 36  1  0
 15 37  1  0
 16 38  1  0
 16 39  1  0
 18 40  1  1
 19 41  1  0
 19 42  1  0
 20 43  1  1
 22 44  1  0
 22 45  1  0
 23 46  1  0
 23 47  1  0
 25 48  1  0
 25 49  1  0
 26 50  1  0
 26 51  1  0
M  ISO  8  27  14  28  14  29   8  30   8  31   8  32   8  33  14  34  14
M  ISO  8  35  13  36  13  37  13  38  13  39  13  40  13  41  13  42  13
M  ISO  8  43  13  44  13  45  13  46  13  47  13  48  13  49  13  50  13
M  ISO  1  51  13
M  END
>  <minimizedAffinity>  (1) 
-5.48596668

>  <minimizedRMSD>  (1) 
1.22240365

$$$$
