
     RDKit          3D

 39 42  0  0  1  0  0  0  0  0999 V2000
   46.0030   34.8010   41.9610 C   0  0  0  0  0  0  0  0  0  0  0  0
   45.6610   34.6910   43.3520 C   0  0  0  0  0  0  0  0  0  0  0  0
   44.8790   35.7240   43.8870 C   0  0  0  0  0  0  0  0  0  0  0  0
   44.4720   35.7560   45.1910 C   0  0  0  0  0  0  0  0  0  0  0  0
   44.8620   34.7280   45.9680 N   0  0  0  0  0  0  0  0  0  0  0  0
   45.6310   33.7080   45.4530 C   0  0  0  0  0  0  0  0  0  0  0  0
   46.0240   33.7030   44.1390 N   0  0  0  0  0  0  0  0  0  0  0  0
   45.9600   32.7160   46.3520 O   0  0  0  0  0  0  0  0  0  0  0  0
   45.4340   32.7960   47.6680 C   0  0  2  0  0  0  0  0  0  0  0  0
   46.2010   32.0090   48.6910 C   0  0  0  0  0  0  0  0  0  0  0  0
   44.8340   31.5790   48.2790 C   0  0  2  0  0  0  0  0  0  0  0  0
   44.6740   30.5170   47.3760 O   0  0  0  0  0  0  0  0  0  0  0  0
   47.4770   34.8880   41.7240 C   0  0  0  0  0  0  0  0  0  0  0  0
   47.9430   34.0550   40.6890 N   0  0  0  0  0  0  0  0  0  0  0  0
   47.5750   34.0080   39.4060 C   0  0  0  0  0  0  0  0  0  0  0  0
   48.2770   33.0530   38.6980 C   0  0  0  0  0  0  0  0  0  0  0  0
   49.1120   32.5010   39.6310 N   0  0  0  0  0  0  0  0  0  0  0  0
   48.8830   33.1290   40.8170 C   0  0  0  0  0  0  0  0  0  0  0  0
   49.6790   32.6520   41.9820 C   0  0  0  0  0  0  0  0  0  0  0  0
   51.0810   32.1840   41.8170 C   0  0  0  0  0  0  0  0  0  0  0  0
   50.8260   33.5550   42.4080 C   0  0  0  0  0  0  0  0  0  0  0  0
   45.6154   33.9165   41.4343 H   0  0  0  0  0  0  0  0  0  0  0  0
   45.5551   35.7331   41.5860 H   0  0  0  0  0  0  0  0  0  0  0  0
   44.5783   36.5492   43.2247 H   0  0  0  0  0  0  0  0  0  0  0  0
   43.8577   36.5788   45.5854 H   0  0  0  0  0  0  0  0  0  0  0  0
   45.0803   33.8304   47.5460 H   0  0  0  0  0  0  0  0  0  0  0  0
   47.0788   31.4194   48.3880 H   0  0  0  0  0  0  0  0  0  0  0  0
   46.6899   32.2421   49.6484 H   0  0  0  0  0  0  0  0  0  0  0  0
   43.9358   31.3188   48.8583 H   0  0  0  0  0  0  0  0  0  0  0  0
   44.5469   29.6733   47.8780 H   0  0  0  0  0  0  0  0  0  0  0  0
   47.7249   35.9287   41.4679 H   0  0  0  0  0  0  0  0  0  0  0  0
   47.9674   34.5496   42.6486 H   0  0  0  0  0  0  0  0  0  0  0  0
   46.8025   34.6549   38.9647 H   0  0  0  0  0  0  0  0  0  0  0  0
   48.1862   32.7958   37.6323 H   0  0  0  0  0  0  0  0  0  0  0  0
   48.7937   32.1955   42.4488 H   0  0  0  0  0  0  0  0  0  0  0  0
   51.4672   31.3757   42.4554 H   0  0  0  0  0  0  0  0  0  0  0  0
   51.6747   31.8050   40.9721 H   0  0  0  0  0  0  0  0  0  0  0  0
   51.0624   34.4601   41.8292 H   0  0  0  0  0  0  0  0  0  0  0  0
   51.1127   34.0775   43.3325 H   0  0  0  0  0  0  0  0  0  0  0  0
  1  2  1  0
  2  3  2  0
  2  7  1  0
  3  4  1  0
  4  5  2  0
  6  5  1  0
  6  8  1  0
  7  6  2  0
  8  9  1  0
  9 11  1  0
  9 10  1  0
 11 10  1  0
 12 11  1  0
 13  1  1  0
 14 18  1  0
 14 13  1  0
 15 14  1  0
 16 15  2  0
 16 17  1  0
 17 18  2  0
 18 19  1  0
 19 21  1  0
 20 19  1  0
 20 21  1  0
  1 22  1  0
  1 23  1  0
  3 24  1  0
  4 25  1  0
  9 26  1  1
 10 27  1  0
 10 28  1  0
 11 29  1  1
 12 30  1  0
 13 31  1  0
 13 32  1  0
 15 33  1  0
 16 34  1  0
 19 35  1  0
 20 36  1  0
 20 37  1  0
 21 38  1  0
 21 39  1  0
M  ISO  8  22   8  23   8  24  14  25  14  26  13  27  13  28  13  29  13
M  ISO  8  30   3  31   8  32   8  33  14  34  14  35  13  36  13  37  13
M  ISO  2  38  13  39  13
M  END
>  <minimizedAffinity>  (1) 
-5.47008085

>  <minimizedRMSD>  (1) 
0.0929806381

$$$$
