
     RDKit          3D

 43 47  0  0  1  0  0  0  0  0999 V2000
   45.7430   34.6540   42.9730 C   0  0  0  0  0  0  0  0  0  0  0  0
   44.7450   35.5570   43.3400 C   0  0  0  0  0  0  0  0  0  0  0  0
   44.3300   35.7420   44.6350 C   0  0  0  0  0  0  0  0  0  0  0  0
   44.9550   34.9830   45.5630 N   0  0  0  0  0  0  0  0  0  0  0  0
   45.9360   34.0960   45.2120 C   0  0  0  0  0  0  0  0  0  0  0  0
   46.3220   33.9410   43.9030 N   0  0  0  0  0  0  0  0  0  0  0  0
   46.0490   34.5880   41.5660 C   0  0  0  0  0  0  0  0  0  0  0  0
   47.4870   34.8650   41.2700 C   0  0  0  0  0  0  0  0  0  0  0  0
   48.0620   33.9590   40.3500 N   0  0  0  0  0  0  0  0  0  0  0  0
   47.8460   33.8240   39.0380 C   0  0  0  0  0  0  0  0  0  0  0  0
   48.6070   32.8320   38.4840 C   0  0  0  0  0  0  0  0  0  0  0  0
   49.3290   32.3400   39.5410 N   0  0  0  0  0  0  0  0  0  0  0  0
   48.9730   33.0450   40.6480 C   0  0  0  0  0  0  0  0  0  0  0  0
   49.6230   32.6450   41.9250 C   0  0  0  0  0  0  0  0  0  0  0  0
   51.0160   32.1230   41.9650 C   0  0  0  0  0  0  0  0  0  0  0  0
   50.7490   33.5480   42.4050 C   0  0  0  0  0  0  0  0  0  0  0  0
   46.4830   33.3900   46.2590 O   0  0  0  0  0  0  0  0  0  0  0  0
   45.7940   32.2440   46.7340 C   0  0  2  0  0  0  0  0  0  0  0  0
   45.6080   32.2180   48.2300 C   0  0  0  0  0  0  0  0  0  0  0  0
   46.5370   31.2590   47.5650 C   0  0  1  0  0  0  0  0  0  0  0  0
   46.1440   29.8520   47.6350 C   0  0  0  0  0  0  0  0  0  0  0  0
   45.0270   29.3840   48.2360 N   0  0  0  0  0  0  0  0  0  0  0  0
   44.9850   28.0800   48.1120 O   0  0  0  0  0  0  0  0  0  0  0  0
   46.0460   27.7190   47.4490 C   0  0  0  0  0  0  0  0  0  0  0  0
   46.8000   28.7960   47.1300 N   0  0  0  0  0  0  0  0  0  0  0  0
   44.2651   36.1525   42.5493 H   0  0  0  0  0  0  0  0  0  0  0  0
   43.5407   36.4606   44.9005 H   0  0  0  0  0  0  0  0  0  0  0  0
   45.8032   33.5801   41.2003 H   0  0  0  0  0  0  0  0  0  0  0  0
   45.4530   35.3631   41.0619 H   0  0  0  0  0  0  0  0  0  0  0  0
   47.5667   35.8801   40.8538 H   0  0  0  0  0  0  0  0  0  0  0  0
   48.0371   34.7552   42.2162 H   0  0  0  0  0  0  0  0  0  0  0  0
   47.1361   34.4413   38.4680 H   0  0  0  0  0  0  0  0  0  0  0  0
   48.6338   32.5047   37.4342 H   0  0  0  0  0  0  0  0  0  0  0  0
   48.6741   32.2532   42.3200 H   0  0  0  0  0  0  0  0  0  0  0  0
   51.2949   31.3630   42.7098 H   0  0  0  0  0  0  0  0  0  0  0  0
   51.6869   31.6539   41.2302 H   0  0  0  0  0  0  0  0  0  0  0  0
   51.0852   34.3913   41.7839 H   0  0  0  0  0  0  0  0  0  0  0  0
   50.9487   34.1411   43.3096 H   0  0  0  0  0  0  0  0  0  0  0  0
   45.1604   32.1497   45.8398 H   0  0  0  0  0  0  0  0  0  0  0  0
   46.0084   33.0338   48.8498 H   0  0  0  0  0  0  0  0  0  0  0  0
   44.7468   32.1280   48.9085 H   0  0  0  0  0  0  0  0  0  0  0  0
   47.6039   30.9959   47.6148 H   0  0  0  0  0  0  0  0  0  0  0  0
   46.2951   26.6807   47.1846 H   0  0  0  0  0  0  0  0  0  0  0  0
  1  2  2  0
  1  6  1  0
  2  3  1  0
  3  4  2  0
  5  4  1  0
  5 17  1  0
  6  5  2  0
  7  1  1  0
  8  7  1  0
  9 13  1  0
  9  8  1  0
 10  9  1  0
 11 10  2  0
 11 12  1  0
 12 13  2  0
 13 14  1  0
 14 15  1  0
 14 16  1  0
 15 16  1  0
 17 18  1  0
 18 20  1  0
 18 19  1  0
 20 21  1  0
 20 19  1  0
 21 22  2  0
 23 22  1  0
 24 23  1  0
 25 24  2  0
 25 21  1  0
  2 26  1  0
  3 27  1  0
  7 28  1  0
  7 29  1  0
  8 30  1  0
  8 31  1  0
 10 32  1  0
 11 33  1  0
 14 34  1  0
 15 35  1  0
 15 36  1  0
 16 37  1  0
 16 38  1  0
 18 39  1  6
 19 40  1  0
 19 41  1  0
 20 42  1  1
 24 43  1  0
M  ISO  8  26  14  27  14  28   8  29   8  30   8  31   8  32  14  33  14
M  ISO  8  34  13  35  13  36  13  37  13  38  13  39  13  40  13  41  13
M  ISO  2  42  13  43  14
M  END
>  <minimizedAffinity>  (1) 
-5.41760111

>  <minimizedRMSD>  (1) 
2.21757412

$$$$
