
     RDKit          3D

 39 42  0  0  1  0  0  0  0  0999 V2000
   46.3200   35.1070   41.8480 C   0  0  0  0  0  0  0  0  0  0  0  0
   46.0600   34.7500   43.2160 C   0  0  0  0  0  0  0  0  0  0  0  0
   45.0460   35.4710   43.8610 C   0  0  0  0  0  0  0  0  0  0  0  0
   44.6750   35.2520   45.1630 C   0  0  0  0  0  0  0  0  0  0  0  0
   45.3450   34.2840   45.8150 N   0  0  0  0  0  0  0  0  0  0  0  0
   46.3430   33.5710   45.1870 C   0  0  0  0  0  0  0  0  0  0  0  0
   46.6880   33.8190   43.8830 N   0  0  0  0  0  0  0  0  0  0  0  0
   46.9470   32.6100   45.9680 O   0  0  0  0  0  0  0  0  0  0  0  0
   46.6230   32.5650   47.3490 C   0  0  2  0  0  0  0  0  0  0  0  0
   47.7010   31.9370   48.1990 C   0  0  0  0  0  0  0  0  0  0  0  0
   46.3890   31.2580   48.0100 C   0  0  1  0  0  0  0  0  0  0  0  0
   45.2260   31.1550   49.3800 S   0  0  0  0  0  0  0  0  0  0  0  0
   47.7790   35.1210   41.5200 C   0  0  0  0  0  0  0  0  0  0  0  0
   48.1490   34.1650   40.5480 N   0  0  0  0  0  0  0  0  0  0  0  0
   47.8060   34.0690   39.2650 C   0  0  0  0  0  0  0  0  0  0  0  0
   48.3840   32.9950   38.6430 C   0  0  0  0  0  0  0  0  0  0  0  0
   49.1280   32.4070   39.6320 N   0  0  0  0  0  0  0  0  0  0  0  0
   48.9610   33.1390   40.7640 C   0  0  0  0  0  0  0  0  0  0  0  0
   49.6710   32.6470   41.9840 C   0  0  0  0  0  0  0  0  0  0  0  0
   51.0210   32.0270   41.9020 C   0  0  0  0  0  0  0  0  0  0  0  0
   50.8890   33.4480   42.4080 C   0  0  0  0  0  0  0  0  0  0  0  0
   45.8196   34.3782   41.1934 H   0  0  0  0  0  0  0  0  0  0  0  0
   45.9359   36.1260   41.6929 H   0  0  0  0  0  0  0  0  0  0  0  0
   44.5204   36.2531   43.2935 H   0  0  0  0  0  0  0  0  0  0  0  0
   43.8762   35.8337   45.6463 H   0  0  0  0  0  0  0  0  0  0  0  0
   46.0435   33.4996   47.3227 H   0  0  0  0  0  0  0  0  0  0  0  0
   48.6071   31.5280   47.7281 H   0  0  0  0  0  0  0  0  0  0  0  0
   48.2988   32.2561   49.0655 H   0  0  0  0  0  0  0  0  0  0  0  0
   46.0827   30.2595   47.6649 H   0  0  0  0  0  0  0  0  0  0  0  0
   45.9102   31.2156   50.5654 H   0  0  0  0  0  0  0  0  0  0  0  0
   48.0410   36.1204   41.1423 H   0  0  0  0  0  0  0  0  0  0  0  0
   48.3199   34.8680   42.4438 H   0  0  0  0  0  0  0  0  0  0  0  0
   47.1315   34.7759   38.7597 H   0  0  0  0  0  0  0  0  0  0  0  0
   48.2763   32.6784   37.5951 H   0  0  0  0  0  0  0  0  0  0  0  0
   48.7267   32.3105   42.4368 H   0  0  0  0  0  0  0  0  0  0  0  0
   51.2970   31.2210   42.5979 H   0  0  0  0  0  0  0  0  0  0  0  0
   51.6017   31.5410   41.1041 H   0  0  0  0  0  0  0  0  0  0  0  0
   51.2397   34.2895   41.7924 H   0  0  0  0  0  0  0  0  0  0  0  0
   51.1953   33.9900   43.3149 H   0  0  0  0  0  0  0  0  0  0  0  0
  1  2  1  0
  2  3  2  0
  2  7  1  0
  3  4  1  0
  4  5  2  0
  6  5  1  0
  6  8  1  0
  7  6  2  0
  8  9  1  0
  9 11  1  0
  9 10  1  0
 11 10  1  0
 11 12  1  0
 13  1  1  0
 14 18  1  0
 14 13  1  0
 15 14  1  0
 16 15  2  0
 16 17  1  0
 17 18  2  0
 18 19  1  0
 19 21  1  0
 20 19  1  0
 20 21  1  0
  1 22  1  0
  1 23  1  0
  3 24  1  0
  4 25  1  0
  9 26  1  1
 10 27  1  0
 10 28  1  0
 11 29  1  6
 12 30  1  0
 13 31  1  0
 13 32  1  0
 15 33  1  0
 16 34  1  0
 19 35  1  0
 20 36  1  0
 20 37  1  0
 21 38  1  0
 21 39  1  0
M  ISO  8  22   8  23   8  24  14  25  14  26  13  27  13  28  13  29  13
M  ISO  8  30  11  31   8  32   8  33  14  34  14  35  13  36  13  37  13
M  ISO  2  38  13  39  13
M  END
>  <minimizedAffinity>  (1) 
-5.17852926

>  <minimizedRMSD>  (1) 
0.808833003

$$$$
