
     RDKit          3D

 28 30  0  0  0  0  0  0  0  0999 V2000
   45.0750   34.6840   42.3870 C   0  0  0  0  0  0  0  0  0  0  0  0
   43.9410   35.5260   41.8520 C   0  0  0  0  0  0  0  0  0  0  0  0
   43.9110   34.0620   41.6880 C   0  0  0  0  0  0  0  0  0  0  0  0
   45.1000   34.3860   43.8120 N   0  0  0  0  0  0  0  0  0  0  0  0
   44.6500   35.2270   44.7600 C   0  0  0  0  0  0  0  0  0  0  0  0
   44.6700   34.9560   46.1070 C   0  0  0  0  0  0  0  0  0  0  0  0
   45.1700   33.7680   46.5560 C   0  0  0  0  0  0  0  0  0  0  0  0
   45.2160   33.4280   47.9360 N   0  0  0  0  0  0  0  0  0  0  0  0
   45.6230   32.9150   45.6110 N   0  0  0  0  0  0  0  0  0  0  0  0
   45.5810   33.2320   44.3040 C   0  0  0  0  0  0  0  0  0  0  0  0
   46.0380   32.3420   43.5520 O   0  0  0  0  0  0  0  0  0  0  0  0
   46.3870   34.7780   41.6980 C   0  0  0  0  0  0  0  0  0  0  0  0
   46.5220   34.1090   40.4710 C   0  0  0  0  0  0  0  0  0  0  0  0
   47.7570   34.1690   39.7920 C   0  0  0  0  0  0  0  0  0  0  0  0
   48.7500   34.8830   40.3780 N   0  0  0  0  0  0  0  0  0  0  0  0
   48.5820   35.5160   41.5660 C   0  0  0  0  0  0  0  0  0  0  0  0
   47.4170   35.4600   42.2070 N   0  0  0  0  0  0  0  0  0  0  0  0
   43.2440   36.0157   42.5479 H   0  0  0  0  0  0  0  0  0  0  0  0
   43.8657   36.3864   41.1708 H   0  0  0  0  0  0  0  0  0  0  0  0
   43.1868   33.4627   42.2593 H   0  0  0  0  0  0  0  0  0  0  0  0
   43.8003   33.3849   40.8282 H   0  0  0  0  0  0  0  0  0  0  0  0
   44.2392   36.1947   44.4361 H   0  0  0  0  0  0  0  0  0  0  0  0
   44.2833   35.6961   46.8230 H   0  0  0  0  0  0  0  0  0  0  0  0
   45.6022   32.5195   48.2300 H   0  0  0  0  0  0  0  0  0  0  0  0
   44.8631   34.0902   48.6416 H   0  0  0  0  0  0  0  0  0  0  0  0
   45.6777   33.5467   40.0457 H   0  0  0  0  0  0  0  0  0  0  0  0
   47.9080   33.6589   38.8292 H   0  0  0  0  0  0  0  0  0  0  0  0
   49.4175   36.0816   42.0042 H   0  0  0  0  0  0  0  0  0  0  0  0
  1  4  1  0
  2  1  1  0
  3  2  1  0
  3  1  1  0
  4 10  1  0
  4  5  1  0
  5  6  2  0
  6  7  1  0
  7  8  1  0
  9  7  2  0
 10  9  1  0
 11 10  2  0
 12 17  1  0
 12  1  1  0
 13 12  2  0
 14 15  2  0
 14 13  1  0
 15 16  1  0
 16 17  2  0
  2 18  1  0
  2 19  1  0
  3 20  1  0
  3 21  1  0
  5 22  1  0
  6 23  1  0
  8 24  1  0
  8 25  1  0
 13 26  1  0
 14 27  1  0
 16 28  1  0
M  ISO  8  18  13  19  13  20  13  21  13  22  14  23  14  26  14  27  14
M  ISO  1  28  14
M  END
>  <minimizedAffinity>  (1) 
-4.85514641

>  <minimizedRMSD>  (1) 
4.43944597

$$$$
