
     RDKit          3D

 30 32  0  0  0  0  0  0  0  0999 V2000
   45.2780   34.7420   43.1610 C   0  0  0  0  0  0  0  0  0  0  0  0
   43.9470   35.4100   43.0840 C   0  0  0  0  0  0  0  0  0  0  0  0
   45.1000   36.1760   43.5210 C   0  0  0  0  0  0  0  0  0  0  0  0
   45.5110   33.7230   44.2300 C   0  0  0  0  0  0  0  0  0  0  0  0
   45.4940   34.1680   45.5600 C   0  0  0  0  0  0  0  0  0  0  0  0
   45.7120   33.2250   46.5640 C   0  0  0  0  0  0  0  0  0  0  0  0
   45.9300   31.9250   46.2100 N   0  0  0  0  0  0  0  0  0  0  0  0
   45.9370   31.5470   44.9200 C   0  0  0  0  0  0  0  0  0  0  0  0
   45.7290   32.4380   43.9350 N   0  0  0  0  0  0  0  0  0  0  0  0
   47.2870   33.8600   39.5370 C   0  0  0  0  0  0  0  0  0  0  0  0
   47.9000   34.5690   40.5680 C   0  0  0  0  0  0  0  0  0  0  0  0
   47.1800   34.8150   41.7150 C   0  0  0  0  0  0  0  0  0  0  0  0
   45.8600   34.3670   41.8510 C   0  0  0  0  0  0  0  0  0  0  0  0
   45.2700   33.6660   40.8170 C   0  0  0  0  0  0  0  0  0  0  0  0
   45.9790   33.4140   39.6680 C   0  0  0  0  0  0  0  0  0  0  0  0
   48.1830   33.5380   38.0750 S   0  0  0  0  0  0  0  0  0  0  0  0
   49.3090   32.5630   38.3740 O   0  0  0  0  0  0  0  0  0  0  0  0
   48.7280   34.8200   37.4690 O   0  0  0  0  0  0  0  0  0  0  0  0
   43.4928   35.6150   42.1033 H   0  0  0  0  0  0  0  0  0  0  0  0
   42.9521   35.2022   43.5048 H   0  0  0  0  0  0  0  0  0  0  0  0
   45.1818   36.4908   44.5718 H   0  0  0  0  0  0  0  0  0  0  0  0
   45.5692   37.1172   43.1987 H   0  0  0  0  0  0  0  0  0  0  0  0
   45.3147   35.2257   45.8031 H   0  0  0  0  0  0  0  0  0  0  0  0
   45.7083   33.5237   47.6227 H   0  0  0  0  0  0  0  0  0  0  0  0
   46.1158   30.4917   44.6663 H   0  0  0  0  0  0  0  0  0  0  0  0
   48.9362   34.9242   40.4675 H   0  0  0  0  0  0  0  0  0  0  0  0
   47.6492   35.3729   42.5388 H   0  0  0  0  0  0  0  0  0  0  0  0
   44.2337   33.3101   40.9138 H   0  0  0  0  0  0  0  0  0  0  0  0
   45.5073   32.8552   38.8463 H   0  0  0  0  0  0  0  0  0  0  0  0
   47.3351   32.9789   37.1555 H   0  0  0  0  0  0  0  0  0  0  0  0
  1  3  1  0
  1  4  1  0
  2  1  1  0
  2  3  1  0
  4  5  2  0
  5  6  1  0
  7  6  2  0
  8  7  1  0
  9  4  1  0
  9  8  2  0
 10 15  2  0
 10 11  1  0
 11 12  2  0
 12 13  1  0
 13  1  1  0
 14 13  2  0
 15 14  1  0
 16 17  2  0
 16 10  1  0
 18 16  2  0
  2 19  1  0
  2 20  1  0
  3 21  1  0
  3 22  1  0
  5 23  1  0
  6 24  1  0
  8 25  1  0
 11 26  1  0
 12 27  1  0
 14 28  1  0
 15 29  1  0
 16 30  1  0
M  ISO  8  19  13  20  13  21  13  22  13  23  14  24  14  25  14  26  14
M  ISO  4  27  14  28  14  29  14  30  11
M  END
>  <minimizedAffinity>  (1) 
-4.82869911

>  <minimizedRMSD>  (1) 
5.70691109

$$$$
