
     RDKit          3D

 30 32  0  0  0  0  0  0  0  0999 V2000
   44.8080   34.5240   41.7600 C   0  0  0  0  0  0  0  0  0  0  0  0
   43.8120   35.5940   41.4010 C   0  0  0  0  0  0  0  0  0  0  0  0
   43.4330   34.1890   41.3950 C   0  0  0  0  0  0  0  0  0  0  0  0
   45.9550   34.2780   40.8920 C   0  0  0  0  0  0  0  0  0  0  0  0
   45.7440   33.3800   39.8110 C   0  0  0  0  0  0  0  0  0  0  0  0
   46.8380   33.0730   38.9920 C   0  0  0  0  0  0  0  0  0  0  0  0
   48.0290   33.6460   39.2740 N   0  0  0  0  0  0  0  0  0  0  0  0
   48.1850   34.5060   40.3230 C   0  0  0  0  0  0  0  0  0  0  0  0
   47.1430   34.8170   41.1260 N   0  0  0  0  0  0  0  0  0  0  0  0
   45.2620   34.5790   43.1300 N   0  0  0  0  0  0  0  0  0  0  0  0
   45.1210   33.4060   43.8950 C   0  0  0  0  0  0  0  0  0  0  0  0
   45.8730   33.6680   45.2030 C   0  0  0  0  0  0  0  0  0  0  0  0
   45.1610   34.6300   45.8940 O   0  0  0  0  0  0  0  0  0  0  0  0
   44.4460   35.5070   45.1260 C   0  0  0  0  0  0  0  0  0  0  0  0
   45.1280   35.8080   43.8040 C   0  0  0  0  0  0  0  0  0  0  0  0
   43.4215   36.2681   42.1776 H   0  0  0  0  0  0  0  0  0  0  0  0
   43.7762   36.4176   40.6727 H   0  0  0  0  0  0  0  0  0  0  0  0
   42.7437   33.8082   42.1630 H   0  0  0  0  0  0  0  0  0  0  0  0
   42.9812   33.5217   40.6463 H   0  0  0  0  0  0  0  0  0  0  0  0
   44.7534   32.9401   39.6235 H   0  0  0  0  0  0  0  0  0  0  0  0
   46.7306   32.3836   38.1416 H   0  0  0  0  0  0  0  0  0  0  0  0
   49.1717   34.9517   40.5172 H   0  0  0  0  0  0  0  0  0  0  0  0
   44.0584   33.2062   44.0975 H   0  0  0  0  0  0  0  0  0  0  0  0
   45.5210   32.5278   43.3670 H   0  0  0  0  0  0  0  0  0  0  0  0
   45.9323   32.7435   45.7961 H   0  0  0  0  0  0  0  0  0  0  0  0
   46.8999   34.0081   45.0035 H   0  0  0  0  0  0  0  0  0  0  0  0
   43.4564   35.0723   44.9220 H   0  0  0  0  0  0  0  0  0  0  0  0
   44.3643   36.4516   45.6838 H   0  0  0  0  0  0  0  0  0  0  0  0
   46.1181   36.2536   43.9808 H   0  0  0  0  0  0  0  0  0  0  0  0
   44.5413   36.5239   43.2096 H   0  0  0  0  0  0  0  0  0  0  0  0
  1 10  1  0
  2  1  1  0
  3  2  1  0
  3  1  1  0
  4  9  1  0
  4  1  1  0
  5  4  2  0
  6  7  2  0
  6  5  1  0
  7  8  1  0
  8  9  2  0
 10 15  1  0
 10 11  1  0
 11 12  1  0
 12 13  1  0
 14 13  1  0
 15 14  1  0
  2 16  1  0
  2 17  1  0
  3 18  1  0
  3 19  1  0
  5 20  1  0
  6 21  1  0
  8 22  1  0
 11 23  1  0
 11 24  1  0
 12 25  1  0
 12 26  1  0
 14 27  1  0
 14 28  1  0
 15 29  1  0
 15 30  1  0
M  ISO  8  16  13  17  13  18  13  19  13  20  14  21  14  22  14  23  13
M  ISO  7  24  13  25  13  26  13  27  13  28  13  29  13  30  13
M  END
>  <minimizedAffinity>  (1) 
-4.19258451

>  <minimizedRMSD>  (1) 
4.41649628

$$$$
