
     RDKit          3D

 29 30  0  0  0  0  0  0  0  0999 V2000
   45.6960   35.0290   43.0180 C   0  0  0  0  0  0  0  0  0  0  0  0
   45.1930   36.3850   43.3670 C   0  0  0  0  0  0  0  0  0  0  0  0
   44.2900   35.4470   42.7210 C   0  0  0  0  0  0  0  0  0  0  0  0
   46.6690   34.8880   41.8820 C   0  0  0  0  0  0  0  0  0  0  0  0
   46.2890   34.0730   40.7920 C   0  0  0  0  0  0  0  0  0  0  0  0
   47.2090   33.9610   39.7570 C   0  0  0  0  0  0  0  0  0  0  0  0
   48.3970   34.6140   39.8250 N   0  0  0  0  0  0  0  0  0  0  0  0
   48.7170   35.3800   40.8820 C   0  0  0  0  0  0  0  0  0  0  0  0
   47.8600   35.5150   41.9020 N   0  0  0  0  0  0  0  0  0  0  0  0
   45.7760   33.9040   43.9990 C   0  0  0  0  0  0  0  0  0  0  0  0
   45.2240   34.3400   45.3540 C   0  0  0  0  0  0  0  0  0  0  0  0
   44.9410   32.7100   43.5790 C   0  0  0  0  0  0  0  0  0  0  0  0
   47.1680   33.4040   44.2350 C   0  0  0  0  0  0  0  0  0  0  0  0
   45.0373   36.6557   44.4217 H   0  0  0  0  0  0  0  0  0  0  0  0
   45.5253   37.4105   43.1481 H   0  0  0  0  0  0  0  0  0  0  0  0
   43.9762   35.6159   41.6803 H   0  0  0  0  0  0  0  0  0  0  0  0
   43.2951   35.0417   42.9575 H   0  0  0  0  0  0  0  0  0  0  0  0
   45.3185   33.5559   40.7645 H   0  0  0  0  0  0  0  0  0  0  0  0
   46.9738   33.3410   38.8794 H   0  0  0  0  0  0  0  0  0  0  0  0
   49.6869   35.8982   40.9093 H   0  0  0  0  0  0  0  0  0  0  0  0
   45.8137   33.8742   46.1573 H   0  0  0  0  0  0  0  0  0  0  0  0
   45.2870   35.4348   45.4405 H   0  0  0  0  0  0  0  0  0  0  0  0
   44.1736   34.0252   45.4405 H   0  0  0  0  0  0  0  0  0  0  0  0
   44.5745   32.1859   44.4740 H   0  0  0  0  0  0  0  0  0  0  0  0
   44.0854   33.0537   42.9792 H   0  0  0  0  0  0  0  0  0  0  0  0
   45.5574   32.0243   42.9792 H   0  0  0  0  0  0  0  0  0  0  0  0
   47.3550   33.3368   45.3169 H   0  0  0  0  0  0  0  0  0  0  0  0
   47.2820   32.4087   43.7807 H   0  0  0  0  0  0  0  0  0  0  0  0
   47.8893   34.0992   43.7807 H   0  0  0  0  0  0  0  0  0  0  0  0
  1  2  1  0
  1 10  1  0
  3  1  1  0
  3  2  1  0
  4  9  1  0
  4  1  1  0
  5  4  2  0
  6  7  2  0
  6  5  1  0
  7  8  1  0
  8  9  2  0
 10 13  1  0
 10 11  1  0
 12 10  1  0
  2 14  1  0
  2 15  1  0
  3 16  1  0
  3 17  1  0
  5 18  1  0
  6 19  1  0
  8 20  1  0
 11 21  1  0
 11 22  1  0
 11 23  1  0
 12 24  1  0
 12 25  1  0
 12 26  1  0
 13 27  1  0
 13 28  1  0
 13 29  1  0
M  ISO  8  14  13  15  13  16  13  17  13  18  14  19  14  20  14  21   8
M  ISO  8  22   8  23   8  24   8  25   8  26   8  27   8  28   8  29   8
M  END
>  <minimizedAffinity>  (1) 
-4.08496141

>  <minimizedRMSD>  (1) 
4.02509212

$$$$
