
     RDKit          3D

 29 31  0  0  1  0  0  0  0  0999 V2000
   44.9790   35.3200   43.4280 C   0  0  0  0  0  0  0  0  0  0  0  0
   44.5840   35.6750   44.8380 C   0  0  0  0  0  0  0  0  0  0  0  0
   44.8970   36.7250   43.8530 C   0  0  0  0  0  0  0  0  0  0  0  0
   46.2730   34.6490   43.2010 C   0  0  0  0  0  0  0  0  0  0  0  0
   47.1470   35.1850   42.2110 C   0  0  0  0  0  0  0  0  0  0  0  0
   48.3600   34.5700   41.9630 C   0  0  0  0  0  0  0  0  0  0  0  0
   48.6710   33.4720   42.6790 N   0  0  0  0  0  0  0  0  0  0  0  0
   47.8240   32.9720   43.6240 C   0  0  0  0  0  0  0  0  0  0  0  0
   46.6360   33.5660   43.8730 N   0  0  0  0  0  0  0  0  0  0  0  0
   43.9670   34.7370   42.5650 N   0  0  0  0  0  0  0  0  0  0  0  0
   44.3400   33.4870   41.9710 C   0  0  0  0  0  0  0  0  0  0  0  0
   43.2940   33.3970   40.8520 C   0  0  0  0  0  0  0  0  0  0  0  0
   43.1360   34.8220   40.3790 C   0  0  0  0  0  0  0  0  0  0  0  0
   43.7000   35.6660   41.4960 C   0  0  0  0  0  0  0  0  0  0  0  0
   43.5479   35.5255   45.1757 H   0  0  0  0  0  0  0  0  0  0  0  0
   44.9459   35.4108   45.8426 H   0  0  0  0  0  0  0  0  0  0  0  0
   45.8178   37.3171   43.9607 H   0  0  0  0  0  0  0  0  0  0  0  0
   44.3635   37.6111   43.4787 H   0  0  0  0  0  0  0  0  0  0  0  0
   46.8577   36.0839   41.6468 H   0  0  0  0  0  0  0  0  0  0  0  0
   49.0507   34.9654   41.2037 H   0  0  0  0  0  0  0  0  0  0  0  0
   48.1115   32.0740   44.1905 H   0  0  0  0  0  0  0  0  0  0  0  0
   45.3641   33.5155   41.5704 H   0  0  0  0  0  0  0  0  0  0  0  0
   44.3512   32.6319   42.6628 H   0  0  0  0  0  0  0  0  0  0  0  0
   43.6505   32.7519   40.0354 H   0  0  0  0  0  0  0  0  0  0  0  0
   42.3453   32.9589   41.1956 H   0  0  0  0  0  0  0  0  0  0  0  0
   43.6988   34.9856   39.4481 H   0  0  0  0  0  0  0  0  0  0  0  0
   42.0875   35.0719   40.1596 H   0  0  0  0  0  0  0  0  0  0  0  0
   44.6272   36.1633   41.1749 H   0  0  0  0  0  0  0  0  0  0  0  0
   43.0065   36.4626   41.8035 H   0  0  0  0  0  0  0  0  0  0  0  0
  1  3  1  0
  1  2  1  0
  3  2  1  0
  4  1  1  0
  4  9  1  0
  5  4  2  0
  6  5  1  0
  6  7  2  0
  7  8  1  0
  8  9  2  0
 10 11  1  0
 10  1  1  0
 12 11  1  0
 13 12  1  0
 13 14  1  0
 14 10  1  0
  2 15  1  0
  2 16  1  0
  3 17  1  0
  3 18  1  0
  5 19  1  0
  6 20  1  0
  8 21  1  0
 11 22  1  0
 11 23  1  0
 12 24  1  0
 12 25  1  0
 13 26  1  0
 13 27  1  0
 14 28  1  0
 14 29  1  0
M  ISO  8  15  13  16  13  17  13  18  13  19  14  20  14  21  14  22  13
M  ISO  7  23  13  24  13  25  13  26  13  27  13  28  13  29  13
M  END
>  <minimizedAffinity>  (1) 
-4.05703211

>  <minimizedRMSD>  (1) 
2.41040468

$$$$
