
     RDKit          3D

 24 26  0  0  0  0  0  0  0  0999 V2000
   45.2260   35.2230   42.8010 C   0  0  0  0  0  0  0  0  0  0  0  0
   45.2660   36.6450   43.2600 C   0  0  0  0  0  0  0  0  0  0  0  0
   44.5570   35.6600   44.0570 C   0  0  0  0  0  0  0  0  0  0  0  0
   44.4260   34.8640   41.6080 C   0  0  0  0  0  0  0  0  0  0  0  0
   43.1840   35.5200   41.4220 C   0  0  0  0  0  0  0  0  0  0  0  0
   42.4140   35.1840   40.3130 C   0  0  0  0  0  0  0  0  0  0  0  0
   42.8850   34.2440   39.4600 N   0  0  0  0  0  0  0  0  0  0  0  0
   44.0710   33.6370   39.6650 C   0  0  0  0  0  0  0  0  0  0  0  0
   44.8350   33.9470   40.7310 N   0  0  0  0  0  0  0  0  0  0  0  0
   46.5320   34.5410   42.8470 C   0  0  0  0  0  0  0  0  0  0  0  0
   47.0510   33.4390   43.5540 C   0  0  0  0  0  0  0  0  0  0  0  0
   48.3460   33.0900   43.3240 C   0  0  0  0  0  0  0  0  0  0  0  0
   49.0790   33.9220   42.3400 C   0  0  0  0  0  0  0  0  0  0  0  0
   47.7450   35.1710   41.8370 S   0  0  0  0  0  0  0  0  0  0  0  0
   46.2081   37.0750   43.6309 H   0  0  0  0  0  0  0  0  0  0  0  0
   44.9996   37.6118   42.8081 H   0  0  0  0  0  0  0  0  0  0  0  0
   43.4587   35.6877   44.1106 H   0  0  0  0  0  0  0  0  0  0  0  0
   44.6045   35.3393   45.1081 H   0  0  0  0  0  0  0  0  0  0  0  0
   42.8361   36.2784   42.1388 H   0  0  0  0  0  0  0  0  0  0  0  0
   41.4443   35.6711   40.1332 H   0  0  0  0  0  0  0  0  0  0  0  0
   44.4207   32.8768   38.9510 H   0  0  0  0  0  0  0  0  0  0  0  0
   46.4300   32.8789   44.2686 H   0  0  0  0  0  0  0  0  0  0  0  0
   48.8207   32.2410   43.8377 H   0  0  0  0  0  0  0  0  0  0  0  0
   50.1197   33.8371   41.9940 H   0  0  0  0  0  0  0  0  0  0  0  0
  1 10  1  0
  1  2  1  0
  1  3  1  0
  2  3  1  0
  4  1  1  0
  5  4  2  0
  6  5  1  0
  7  8  1  0
  7  6  2  0
  8  9  2  0
  9  4  1  0
 10 11  2  0
 12 11  1  0
 13 12  2  0
 14 13  1  0
 14 10  1  0
  2 15  1  0
  2 16  1  0
  3 17  1  0
  3 18  1  0
  5 19  1  0
  6 20  1  0
  8 21  1  0
 11 22  1  0
 12 23  1  0
 13 24  1  0
M  ISO  8  15  13  16  13  17  13  18  13  19  14  20  14  21  14  22  14
M  ISO  2  23  14  24  14
M  END
>  <minimizedAffinity>  (1) 
-4.02140379

>  <minimizedRMSD>  (1) 
5.51657104

$$$$
