
     RDKit          3D

 24 26  0  0  0  0  0  0  0  0999 V2000
   45.1140   35.4050   43.0970 C   0  0  0  0  0  0  0  0  0  0  0  0
   44.5590   35.7770   44.4320 C   0  0  0  0  0  0  0  0  0  0  0  0
   45.0650   36.8210   43.5580 C   0  0  0  0  0  0  0  0  0  0  0  0
   46.3870   34.6660   43.0220 C   0  0  0  0  0  0  0  0  0  0  0  0
   47.2830   35.0770   42.0300 C   0  0  0  0  0  0  0  0  0  0  0  0
   48.5120   34.3970   41.8890 C   0  0  0  0  0  0  0  0  0  0  0  0
   48.7550   33.3650   42.7380 N   0  0  0  0  0  0  0  0  0  0  0  0
   47.8560   32.9970   43.6910 C   0  0  0  0  0  0  0  0  0  0  0  0
   46.6880   33.6500   43.8210 N   0  0  0  0  0  0  0  0  0  0  0  0
   44.1680   34.9620   42.0710 N   0  0  0  0  0  0  0  0  0  0  0  0
   43.9340   33.6420   42.0710 N   0  0  0  0  0  0  0  0  0  0  0  0
   43.0530   33.3750   41.0850 C   0  0  0  0  0  0  0  0  0  0  0  0
   42.7410   34.5680   40.4670 C   0  0  0  0  0  0  0  0  0  0  0  0
   43.4550   35.5600   41.1030 C   0  0  0  0  0  0  0  0  0  0  0  0
   43.4780   35.6946   44.6182 H   0  0  0  0  0  0  0  0  0  0  0  0
   44.7640   35.4689   45.4679 H   0  0  0  0  0  0  0  0  0  0  0  0
   45.9972   37.3456   43.8147 H   0  0  0  0  0  0  0  0  0  0  0  0
   44.6492   37.7528   43.1471 H   0  0  0  0  0  0  0  0  0  0  0  0
   47.0333   35.9193   41.3681 H   0  0  0  0  0  0  0  0  0  0  0  0
   49.2437   34.6912   41.1221 H   0  0  0  0  0  0  0  0  0  0  0  0
   48.0873   32.1566   44.3619 H   0  0  0  0  0  0  0  0  0  0  0  0
   42.6550   32.3840   40.8212 H   0  0  0  0  0  0  0  0  0  0  0  0
   42.0496   34.7026   39.6221 H   0  0  0  0  0  0  0  0  0  0  0  0
   43.4432   36.6337   40.8641 H   0  0  0  0  0  0  0  0  0  0  0  0
  1  3  1  0
  1  2  1  0
  3  2  1  0
  4  1  1  0
  4  9  1  0
  5  4  2  0
  6  5  1  0
  6  7  2  0
  7  8  1  0
  8  9  2  0
 10  1  1  0
 11 10  1  0
 12 11  2  0
 13 12  1  0
 13 14  2  0
 14 10  1  0
  2 15  1  0
  2 16  1  0
  3 17  1  0
  3 18  1  0
  5 19  1  0
  6 20  1  0
  8 21  1  0
 12 22  1  0
 13 23  1  0
 14 24  1  0
M  ISO  8  15  13  16  13  17  13  18  13  19  14  20  14  21  14  22  14
M  ISO  2  23  14  24  14
M  END
>  <minimizedAffinity>  (1) 
-4.01348686

>  <minimizedRMSD>  (1) 
2.54329753

$$$$
