
     RDKit          3D

 20 21  0  0  0  0  0  0  0  0999 V2000
   44.9090   35.4350   43.5040 C   0  0  0  0  0  0  0  0  0  0  0  0
   44.5560   35.9900   44.8030 C   0  0  0  0  0  0  0  0  0  0  0  0
   45.0110   36.9260   43.7940 C   0  0  0  0  0  0  0  0  0  0  0  0
   46.2140   34.7380   43.2000 C   0  0  0  0  0  0  0  0  0  0  0  0
   47.0740   35.1780   42.2180 C   0  0  0  0  0  0  0  0  0  0  0  0
   48.2360   34.3620   42.1050 C   0  0  0  0  0  0  0  0  0  0  0  0
   48.4700   33.2940   42.8700 N   0  0  0  0  0  0  0  0  0  0  0  0
   47.5970   32.9160   43.8010 C   0  0  0  0  0  0  0  0  0  0  0  0
   46.4470   33.6560   43.9710 N   0  0  0  0  0  0  0  0  0  0  0  0
   43.9020   35.1600   42.4080 C   0  0  0  0  0  0  0  0  0  0  0  0
   44.4490   34.6160   41.4310 O   0  0  0  0  0  0  0  0  0  0  0  0
   42.5230   35.4130   42.3630 O   0  0  0  0  0  0  0  0  0  0  0  0
   43.5019   36.0034   45.1172 H   0  0  0  0  0  0  0  0  0  0  0  0
   44.8738   35.7712   45.8331 H   0  0  0  0  0  0  0  0  0  0  0  0
   45.9964   37.4058   43.8878 H   0  0  0  0  0  0  0  0  0  0  0  0
   44.6132   37.8444   43.3376 H   0  0  0  0  0  0  0  0  0  0  0  0
   46.8844   36.0615   41.5907 H   0  0  0  0  0  0  0  0  0  0  0  0
   48.9837   34.6276   41.3431 H   0  0  0  0  0  0  0  0  0  0  0  0
   47.7899   32.0295   44.4230 H   0  0  0  0  0  0  0  0  0  0  0  0
   42.0008   35.1682   41.5583 H   0  0  0  0  0  0  0  0  0  0  0  0
  1  3  1  0
  1  2  1  0
  3  2  1  0
  4  1  1  0
  4  9  1  0
  5  4  2  0
  6  5  1  0
  6  7  2  0
  7  8  1  0
  8  9  2  0
 10  1  1  0
 11 10  2  0
 12 10  1  0
  2 13  1  0
  2 14  1  0
  3 15  1  0
  3 16  1  0
  5 17  1  0
  6 18  1  0
  8 19  1  0
 12 20  1  0
M  ISO  8  13  13  14  13  15  13  16  13  17  14  18  14  19  14  20   3
M  END
>  <minimizedAffinity>  (1) 
-3.87451935

>  <minimizedRMSD>  (1) 
2.29492664

$$$$
