
     RDKit          3D

 24 26  0  0  0  0  0  0  0  0999 V2000
   44.9380   35.3950   43.2920 C   0  0  0  0  0  0  0  0  0  0  0  0
   44.6230   36.0320   44.6070 C   0  0  0  0  0  0  0  0  0  0  0  0
   45.0200   36.8780   43.4940 C   0  0  0  0  0  0  0  0  0  0  0  0
   46.2070   34.6170   43.1700 C   0  0  0  0  0  0  0  0  0  0  0  0
   47.1560   35.0500   42.2310 C   0  0  0  0  0  0  0  0  0  0  0  0
   48.3340   34.3230   42.1190 C   0  0  0  0  0  0  0  0  0  0  0  0
   48.5280   33.2420   42.9050 N   0  0  0  0  0  0  0  0  0  0  0  0
   47.5950   32.8450   43.8030 C   0  0  0  0  0  0  0  0  0  0  0  0
   46.4630   33.5280   43.9220 N   0  0  0  0  0  0  0  0  0  0  0  0
   43.7850   35.0200   42.3810 C   0  0  0  0  0  0  0  0  0  0  0  0
   44.1280   34.9480   40.9200 C   0  0  0  0  0  0  0  0  0  0  0  0
   43.7720   33.7190   41.6740 C   0  0  0  0  0  0  0  0  0  0  0  0
   43.5844   36.0555   44.9685 H   0  0  0  0  0  0  0  0  0  0  0  0
   44.9830   35.8933   45.6371 H   0  0  0  0  0  0  0  0  0  0  0  0
   46.0009   37.3756   43.5069 H   0  0  0  0  0  0  0  0  0  0  0  0
   44.5796   37.7521   42.9919 H   0  0  0  0  0  0  0  0  0  0  0  0
   46.9729   35.9356   41.6047 H   0  0  0  0  0  0  0  0  0  0  0  0
   49.1043   34.6258   41.3945 H   0  0  0  0  0  0  0  0  0  0  0  0
   47.7746   31.9601   44.4312 H   0  0  0  0  0  0  0  0  0  0  0  0
   43.0487   35.5305   43.0192 H   0  0  0  0  0  0  0  0  0  0  0  0
   45.1640   35.1108   40.5879 H   0  0  0  0  0  0  0  0  0  0  0  0
   43.7605   35.4379   40.0062 H   0  0  0  0  0  0  0  0  0  0  0  0
   42.8156   33.2129   41.4761 H   0  0  0  0  0  0  0  0  0  0  0  0
   44.2571   32.7455   41.8382 H   0  0  0  0  0  0  0  0  0  0  0  0
  1  3  1  0
  1  2  1  0
  3  2  1  0
  4  1  1  0
  4  9  1  0
  5  4  2  0
  6  5  1  0
  6  7  2  0
  7  8  1  0
  8  9  2  0
 10  1  1  0
 11 12  1  0
 11 10  1  0
 12 10  1  0
  2 13  1  0
  2 14  1  0
  3 15  1  0
  3 16  1  0
  5 17  1  0
  6 18  1  0
  8 19  1  0
 10 20  1  0
 11 21  1  0
 11 22  1  0
 12 23  1  0
 12 24  1  0
M  ISO  8  13  13  14  13  15  13  16  13  17  14  18  14  19  14  20  13
M  ISO  4  21  13  22  13  23  13  24  13
M  END
>  <minimizedAffinity>  (1) 
-3.6614995

>  <minimizedRMSD>  (1) 
2.22778869

$$$$
