
     RDKit          3D

 20 21  0  0  0  0  0  0  0  0999 V2000
   45.7720   33.6460   44.4860 C   0  0  0  0  0  0  0  0  0  0  0  0
   46.6220   32.5510   44.3160 C   0  0  0  0  0  0  0  0  0  0  0  0
   46.9620   31.8570   45.4780 C   0  0  0  0  0  0  0  0  0  0  0  0
   46.4710   32.2570   46.6900 N   0  0  0  0  0  0  0  0  0  0  0  0
   45.6550   33.3210   46.7850 C   0  0  0  0  0  0  0  0  0  0  0  0
   45.3130   34.0040   45.6900 N   0  0  0  0  0  0  0  0  0  0  0  0
   45.3820   34.3940   43.2420 C   0  0  0  0  0  0  0  0  0  0  0  0
   45.2030   35.8640   43.3100 C   0  0  0  0  0  0  0  0  0  0  0  0
   46.3610   35.3360   42.6150 C   0  0  0  0  0  0  0  0  0  0  0  0
   44.4390   33.6320   42.3490 C   0  0  0  0  0  0  0  0  0  0  0  0
   47.0003   32.2538   43.3268 H   0  0  0  0  0  0  0  0  0  0  0  0
   47.6283   30.9838   45.4187 H   0  0  0  0  0  0  0  0  0  0  0  0
   45.2681   33.6297   47.7673 H   0  0  0  0  0  0  0  0  0  0  0  0
   44.3943   36.3428   42.7384 H   0  0  0  0  0  0  0  0  0  0  0  0
   45.0588   36.5849   44.1282 H   0  0  0  0  0  0  0  0  0  0  0  0
   47.3641   35.4553   43.0504 H   0  0  0  0  0  0  0  0  0  0  0  0
   46.7826   35.4584   41.6064 H   0  0  0  0  0  0  0  0  0  0  0  0
   43.7310   33.0599   42.9666 H   0  0  0  0  0  0  0  0  0  0  0  0
   43.8841   34.3383   41.7140 H   0  0  0  0  0  0  0  0  0  0  0  0
   45.0131   32.9411   41.7140 H   0  0  0  0  0  0  0  0  0  0  0  0
  1  6  1  0
  2  1  2  0
  2  3  1  0
  3  4  2  0
  4  5  1  0
  6  5  2  0
  7  8  1  0
  7  1  1  0
  9  7  1  0
  9  8  1  0
 10  7  1  0
  2 11  1  0
  3 12  1  0
  5 13  1  0
  8 14  1  0
  8 15  1  0
  9 16  1  0
  9 17  1  0
 10 18  1  0
 10 19  1  0
 10 20  1  0
M  ISO  8  11  14  12  14  13  14  14  13  15  13  16  13  17  13  18   8
M  ISO  2  19   8  20   8
M  END
>  <minimizedAffinity>  (1) 
-3.00043941

>  <minimizedRMSD>  (1) 
1.0910269

$$$$
