
     RDKit          3D

 18 19  0  0  0  0  0  0  0  0999 V2000
   45.7310   33.8470   44.4730 C   0  0  0  0  0  0  0  0  0  0  0  0
   46.7230   32.8480   44.4460 C   0  0  0  0  0  0  0  0  0  0  0  0
   47.0660   32.2150   45.6550 C   0  0  0  0  0  0  0  0  0  0  0  0
   46.4230   32.6010   46.7900 N   0  0  0  0  0  0  0  0  0  0  0  0
   45.4780   33.5670   46.7590 C   0  0  0  0  0  0  0  0  0  0  0  0
   45.1340   34.1810   45.6290 N   0  0  0  0  0  0  0  0  0  0  0  0
   45.3960   34.4910   43.1790 C   0  0  0  0  0  0  0  0  0  0  0  0
   45.3710   35.9990   43.1160 C   0  0  0  0  0  0  0  0  0  0  0  0
   46.4380   35.2650   42.4330 C   0  0  0  0  0  0  0  0  0  0  0  0
   44.2770   33.5350   42.1090 S   0  0  0  0  0  0  0  0  0  0  0  0
   47.2173   32.5695   43.5036 H   0  0  0  0  0  0  0  0  0  0  0  0
   47.8343   31.4283   45.6817 H   0  0  0  0  0  0  0  0  0  0  0  0
   44.9781   33.8544   47.6958 H   0  0  0  0  0  0  0  0  0  0  0  0
   44.5943   36.5109   42.5289 H   0  0  0  0  0  0  0  0  0  0  0  0
   45.3404   36.8057   43.8632 H   0  0  0  0  0  0  0  0  0  0  0  0
   46.4610   35.2314   41.3338 H   0  0  0  0  0  0  0  0  0  0  0  0
   47.5371   35.3012   42.4600 H   0  0  0  0  0  0  0  0  0  0  0  0
   43.4187   32.8017   42.8852 H   0  0  0  0  0  0  0  0  0  0  0  0
  1  6  1  0
  2  1  2  0
  2  3  1  0
  3  4  2  0
  5  4  1  0
  6  5  2  0
  7  1  1  0
  8  7  1  0
  9  8  1  0
  9  7  1  0
 10  7  1  0
  2 11  1  0
  3 12  1  0
  5 13  1  0
  8 14  1  0
  8 15  1  0
  9 16  1  0
  9 17  1  0
 10 18  1  0
M  ISO  8  11  14  12  14  13  14  14  13  15  13  16  13  17  13  18  11
M  END
>  <minimizedAffinity>  (1) 
-2.95073509

>  <minimizedRMSD>  (1) 
1.14920223

$$$$
