
     RDKit          3D

 18 19  0  0  0  0  0  0  0  0999 V2000
   45.5750   34.0240   44.5060 C   0  0  0  0  0  0  0  0  0  0  0  0
   46.6180   33.0870   44.2750 C   0  0  0  0  0  0  0  0  0  0  0  0
   47.1250   32.3420   45.3270 C   0  0  0  0  0  0  0  0  0  0  0  0
   46.5870   32.5520   46.5550 N   0  0  0  0  0  0  0  0  0  0  0  0
   45.5860   33.4610   46.7460 C   0  0  0  0  0  0  0  0  0  0  0  0
   45.0900   34.1860   45.7300 N   0  0  0  0  0  0  0  0  0  0  0  0
   45.0480   34.8080   43.3630 C   0  0  0  0  0  0  0  0  0  0  0  0
   45.1700   36.3200   43.4160 C   0  0  0  0  0  0  0  0  0  0  0  0
   45.9400   35.5240   42.4440 C   0  0  0  0  0  0  0  0  0  0  0  0
   43.7540   34.3980   43.0010 O   0  0  0  0  0  0  0  0  0  0  0  0
   47.0227   32.9533   43.2609 H   0  0  0  0  0  0  0  0  0  0  0  0
   47.9312   31.6097   45.1732 H   0  0  0  0  0  0  0  0  0  0  0  0
   45.1758   33.6029   47.7568 H   0  0  0  0  0  0  0  0  0  0  0  0
   44.3382   36.9547   43.0764 H   0  0  0  0  0  0  0  0  0  0  0  0
   45.4127   37.0615   44.1914 H   0  0  0  0  0  0  0  0  0  0  0  0
   47.0298   35.4298   42.5599 H   0  0  0  0  0  0  0  0  0  0  0  0
   46.0499   35.5503   41.3498 H   0  0  0  0  0  0  0  0  0  0  0  0
   43.2208   34.2290   43.8178 H   0  0  0  0  0  0  0  0  0  0  0  0
  1  6  1  0
  2  1  2  0
  2  3  1  0
  3  4  2  0
  4  5  1  0
  6  5  2  0
  7  8  1  0
  7  1  1  0
  9  7  1  0
  9  8  1  0
 10  7  1  0
  2 11  1  0
  3 12  1  0
  5 13  1  0
  8 14  1  0
  8 15  1  0
  9 16  1  0
  9 17  1  0
 10 18  1  0
M  ISO  8  11  14  12  14  13  14  14  13  15  13  16  13  17  13  18   3
M  END
>  <minimizedAffinity>  (1) 
-3.19737053

>  <minimizedRMSD>  (1) 
0.756553352

$$$$
