
     RDKit          3D

 34 37  0  0  0  0  0  0  0  0999 V2000
   44.9310   34.8730   43.5160 C   0  0  0  0  0  0  0  0  0  0  0  0
   44.6920   36.2510   44.0700 C   0  0  0  0  0  0  0  0  0  0  0  0
   45.6260   36.0410   42.9410 C   0  0  0  0  0  0  0  0  0  0  0  0
   45.6800   33.9040   44.3690 C   0  0  0  0  0  0  0  0  0  0  0  0
   46.6740   33.0620   43.7780 C   0  0  0  0  0  0  0  0  0  0  0  0
   47.3610   32.1710   44.5740 C   0  0  0  0  0  0  0  0  0  0  0  0
   47.0670   32.1310   45.8870 N   0  0  0  0  0  0  0  0  0  0  0  0
   46.1140   32.9450   46.4290 C   0  0  0  0  0  0  0  0  0  0  0  0
   45.4280   33.8250   45.6700 N   0  0  0  0  0  0  0  0  0  0  0  0
   43.8020   34.2850   42.9470 O   0  0  0  0  0  0  0  0  0  0  0  0
   43.7000   34.1310   41.5810 C   0  0  0  0  0  0  0  0  0  0  0  0
   44.5750   33.4410   40.7720 C   0  0  0  0  0  0  0  0  0  0  0  0
   44.4250   33.3180   39.4110 C   0  0  0  0  0  0  0  0  0  0  0  0
   43.3560   33.9020   38.7850 C   0  0  0  0  0  0  0  0  0  0  0  0
   42.4530   34.6080   39.5850 C   0  0  0  0  0  0  0  0  0  0  0  0
   41.3990   35.1690   38.8720 C   0  0  0  0  0  0  0  0  0  0  0  0
   40.4570   35.8800   39.5490 C   0  0  0  0  0  0  0  0  0  0  0  0
   40.5800   36.0200   40.9100 C   0  0  0  0  0  0  0  0  0  0  0  0
   41.6140   35.4710   41.6140 C   0  0  0  0  0  0  0  0  0  0  0  0
   42.6000   34.7340   40.9580 C   0  0  0  0  0  0  0  0  0  0  0  0
   43.7280   36.7537   43.9027 H   0  0  0  0  0  0  0  0  0  0  0  0
   44.7591   36.7167   45.0643 H   0  0  0  0  0  0  0  0  0  0  0  0
   46.7080   36.1644   43.0963 H   0  0  0  0  0  0  0  0  0  0  0  0
   45.7186   36.4615   41.9288 H   0  0  0  0  0  0  0  0  0  0  0  0
   46.8876   33.1249   42.7008 H   0  0  0  0  0  0  0  0  0  0  0  0
   48.1296   31.5097   44.1474 H   0  0  0  0  0  0  0  0  0  0  0  0
   45.9011   32.8821   47.5064 H   0  0  0  0  0  0  0  0  0  0  0  0
   45.4452   32.9599   41.2424 H   0  0  0  0  0  0  0  0  0  0  0  0
   45.1632   32.7508   38.8251 H   0  0  0  0  0  0  0  0  0  0  0  0
   43.2139   33.8189   37.6974 H   0  0  0  0  0  0  0  0  0  0  0  0
   41.3283   35.0404   37.7818 H   0  0  0  0  0  0  0  0  0  0  0  0
   39.6102   36.3356   39.0149 H   0  0  0  0  0  0  0  0  0  0  0  0
   39.8168   36.5961   41.4537 H   0  0  0  0  0  0  0  0  0  0  0  0
   41.6693   35.6108   42.7037 H   0  0  0  0  0  0  0  0  0  0  0  0
  1  2  1  0
  1  4  1  0
  3  1  1  0
  3  2  1  0
  4  9  1  0
  5  4  2  0
  5  6  1  0
  6  7  2  0
  7  8  1  0
  9  8  2  0
 10  1  1  0
 11 10  1  0
 12 11  2  0
 13 12  1  0
 14 13  2  0
 14 15  1  0
 15 20  2  0
 16 17  2  0
 16 15  1  0
 17 18  1  0
 18 19  2  0
 20 11  1  0
 20 19  1  0
  2 21  1  0
  2 22  1  0
  3 23  1  0
  3 24  1  0
  5 25  1  0
  6 26  1  0
  8 27  1  0
 12 28  1  0
 13 29  1  0
 14 30  1  0
 16 31  1  0
 17 32  1  0
 18 33  1  0
 19 34  1  0
M  ISO  8  21  13  22  13  23  13  24  13  25  14  26  14  27  14  28  14
M  ISO  6  29  14  30  14  31  14  32  14  33  14  34  14
M  END
>  <minimizedAffinity>  (1) 
-5.37054777

>  <minimizedRMSD>  (1) 
2.00638509

$$$$
