
     RDKit          3D

 28 30  0  0  0  0  0  0  0  0999 V2000
   44.9280   34.9920   42.7830 C   0  0  0  0  0  0  0  0  0  0  0  0
   44.7710   35.5680   44.1670 C   0  0  0  0  0  0  0  0  0  0  0  0
   44.8400   36.4380   42.9800 C   0  0  0  0  0  0  0  0  0  0  0  0
   46.2150   34.3430   42.4170 C   0  0  0  0  0  0  0  0  0  0  0  0
   47.0180   34.8740   41.3850 C   0  0  0  0  0  0  0  0  0  0  0  0
   48.2190   34.2410   41.0670 C   0  0  0  0  0  0  0  0  0  0  0  0
   48.5590   33.1380   41.7710 N   0  0  0  0  0  0  0  0  0  0  0  0
   47.7640   32.6520   42.7580 C   0  0  0  0  0  0  0  0  0  0  0  0
   46.5970   33.2490   43.0830 N   0  0  0  0  0  0  0  0  0  0  0  0
   43.8180   34.2260   42.3700 O   0  0  0  0  0  0  0  0  0  0  0  0
   42.8620   34.7380   41.4710 C   0  0  0  0  0  0  0  0  0  0  0  0
   43.2880   34.6080   40.1650 C   0  0  0  0  0  0  0  0  0  0  0  0
   42.4570   35.0670   39.1450 C   0  0  0  0  0  0  0  0  0  0  0  0
   41.2540   35.6250   39.5080 C   0  0  0  0  0  0  0  0  0  0  0  0
   40.8140   35.7620   40.8080 C   0  0  0  0  0  0  0  0  0  0  0  0
   41.6490   35.3030   41.8080 C   0  0  0  0  0  0  0  0  0  0  0  0
   43.8228   35.4491   44.7117 H   0  0  0  0  0  0  0  0  0  0  0  0
   45.3206   35.4905   45.1167 H   0  0  0  0  0  0  0  0  0  0  0  0
   45.7283   37.0655   42.8152 H   0  0  0  0  0  0  0  0  0  0  0  0
   44.1956   37.2301   42.5710 H   0  0  0  0  0  0  0  0  0  0  0  0
   46.7008   35.7748   40.8391 H   0  0  0  0  0  0  0  0  0  0  0  0
   48.8695   34.6270   40.2683 H   0  0  0  0  0  0  0  0  0  0  0  0
   48.0775   31.7511   43.3058 H   0  0  0  0  0  0  0  0  0  0  0  0
   44.2621   34.1521   39.9342 H   0  0  0  0  0  0  0  0  0  0  0  0
   42.7525   34.9859   38.0885 H   0  0  0  0  0  0  0  0  0  0  0  0
   40.5958   35.9879   38.7048 H   0  0  0  0  0  0  0  0  0  0  0  0
   39.8396   36.2174   41.0386 H   0  0  0  0  0  0  0  0  0  0  0  0
   41.3498   35.3871   42.8632 H   0  0  0  0  0  0  0  0  0  0  0  0
  1  3  1  0
  1  2  1  0
  3  2  1  0
  4  1  1  0
  4  9  1  0
  5  4  2  0
  6  5  1  0
  6  7  2  0
  7  8  1  0
  8  9  2  0
 10  1  1  0
 11 16  1  0
 11 10  1  0
 12 11  2  0
 13 14  2  0
 13 12  1  0
 14 15  1  0
 15 16  2  0
  2 17  1  0
  2 18  1  0
  3 19  1  0
  3 20  1  0
  5 21  1  0
  6 22  1  0
  8 23  1  0
 12 24  1  0
 13 25  1  0
 14 26  1  0
 15 27  1  0
 16 28  1  0
M  ISO  8  17  13  18  13  19  13  20  13  21  14  22  14  23  14  24  14
M  ISO  4  25  14  26  14  27  14  28  14
M  END
>  <minimizedAffinity>  (1) 
-4.29578352

>  <minimizedRMSD>  (1) 
3.80093122

$$$$
