
     RDKit          3D

 31 33  0  0  0  0  0  0  0  0999 V2000
   45.0720   35.4170   43.1890 C   0  0  0  0  0  0  0  0  0  0  0  0
   44.6500   35.9370   44.5400 C   0  0  0  0  0  0  0  0  0  0  0  0
   45.0030   36.8520   43.4410 C   0  0  0  0  0  0  0  0  0  0  0  0
   46.3480   34.6850   43.0850 C   0  0  0  0  0  0  0  0  0  0  0  0
   47.3440   35.1750   42.1830 C   0  0  0  0  0  0  0  0  0  0  0  0
   48.5510   34.5160   42.0530 C   0  0  0  0  0  0  0  0  0  0  0  0
   48.7270   33.4080   42.8110 N   0  0  0  0  0  0  0  0  0  0  0  0
   47.7610   32.9650   43.6600 C   0  0  0  0  0  0  0  0  0  0  0  0
   46.5860   33.6000   43.7930 N   0  0  0  0  0  0  0  0  0  0  0  0
   44.0200   34.7140   42.5600 O   0  0  0  0  0  0  0  0  0  0  0  0
   43.7410   35.1640   41.2940 C   0  0  0  0  0  0  0  0  0  0  0  0
   42.2400   35.4530   41.2590 C   0  0  0  0  0  0  0  0  0  0  0  0
   41.9590   35.2210   39.7700 C   0  0  0  0  0  0  0  0  0  0  0  0
   42.5920   33.8400   39.6120 C   0  0  0  0  0  0  0  0  0  0  0  0
   43.9510   34.0940   40.2250 C   0  0  0  0  0  0  0  0  0  0  0  0
   43.6043   35.8426   44.8679 H   0  0  0  0  0  0  0  0  0  0  0  0
   44.9830   35.7898   45.5780 H   0  0  0  0  0  0  0  0  0  0  0  0
   45.9308   37.4401   43.4987 H   0  0  0  0  0  0  0  0  0  0  0  0
   44.4916   37.6928   42.9495 H   0  0  0  0  0  0  0  0  0  0  0  0
   47.1480   36.0806   41.5902 H   0  0  0  0  0  0  0  0  0  0  0  0
   49.3321   34.8743   41.3663 H   0  0  0  0  0  0  0  0  0  0  0  0
   47.9484   32.0592   44.2554 H   0  0  0  0  0  0  0  0  0  0  0  0
   44.3968   36.0232   41.0897 H   0  0  0  0  0  0  0  0  0  0  0  0
   41.6750   34.7553   41.8946 H   0  0  0  0  0  0  0  0  0  0  0  0
   41.9502   36.4449   41.6362 H   0  0  0  0  0  0  0  0  0  0  0  0
   40.8808   35.2066   39.5523 H   0  0  0  0  0  0  0  0  0  0  0  0
   42.3459   35.9960   39.0921 H   0  0  0  0  0  0  0  0  0  0  0  0
   42.0334   33.0706   40.1651 H   0  0  0  0  0  0  0  0  0  0  0  0
   42.6161   33.4599   38.5800 H   0  0  0  0  0  0  0  0  0  0  0  0
   44.3429   33.1722   40.6796 H   0  0  0  0  0  0  0  0  0  0  0  0
   44.6785   34.4207   39.4674 H   0  0  0  0  0  0  0  0  0  0  0  0
  1  3  1  0
  1  2  1  0
  3  2  1  0
  4  1  1  0
  4  9  1  0
  5  4  2  0
  6  5  1  0
  6  7  2  0
  7  8  1  0
  8  9  2  0
 10  1  1  0
 11 10  1  0
 12 11  1  0
 13 12  1  0
 14 13  1  0
 14 15  1  0
 15 11  1  0
  2 16  1  0
  2 17  1  0
  3 18  1  0
  3 19  1  0
  5 20  1  0
  6 21  1  0
  8 22  1  0
 11 23  1  0
 12 24  1  0
 12 25  1  0
 13 26  1  0
 13 27  1  0
 14 28  1  0
 14 29  1  0
 15 30  1  0
 15 31  1  0
M  ISO  8  16  13  17  13  18  13  19  13  20  14  21  14  22  14  23  13
M  ISO  8  24  13  25  13  26  13  27  13  28  13  29  13  30  13  31  13
M  END
>  <minimizedAffinity>  (1) 
-4.25733423

>  <minimizedRMSD>  (1) 
3.38397694

$$$$
