
     RDKit          3D

 27 28  0  0  0  0  0  0  0  0999 V2000
   48.5550   34.5960   41.7520 C   0  0  0  0  0  0  0  0  0  0  0  0
   49.1530   35.9880   41.5980 C   0  0  0  0  0  0  0  0  0  0  0  0
   49.7840   34.9670   42.4490 C   0  0  0  0  0  0  0  0  0  0  0  0
   47.2650   34.4870   42.4640 C   0  0  0  0  0  0  0  0  0  0  0  0
   47.2190   33.9300   43.7540 C   0  0  0  0  0  0  0  0  0  0  0  0
   46.0380   33.8080   44.4470 C   0  0  0  0  0  0  0  0  0  0  0  0
   44.9140   34.2580   43.8180 N   0  0  0  0  0  0  0  0  0  0  0  0
   44.9700   34.7950   42.5730 C   0  0  0  0  0  0  0  0  0  0  0  0
   46.1280   34.9040   41.9130 N   0  0  0  0  0  0  0  0  0  0  0  0
   48.5610   33.8930   40.5530 O   0  0  0  0  0  0  0  0  0  0  0  0
   48.6550   32.5340   40.8180 C   0  0  0  0  0  0  0  0  0  0  0  0
   47.5600   31.8230   40.0190 C   0  0  0  0  0  0  0  0  0  0  0  0
   50.0150   31.9960   40.4210 C   0  0  0  0  0  0  0  0  0  0  0  0
   49.6235   36.2875   40.6499 H   0  0  0  0  0  0  0  0  0  0  0  0
   48.7951   37.0186   41.7387 H   0  0  0  0  0  0  0  0  0  0  0  0
   49.7723   35.0888   43.5422 H   0  0  0  0  0  0  0  0  0  0  0  0
   50.7936   34.5329   42.4977 H   0  0  0  0  0  0  0  0  0  0  0  0
   48.1524   33.5827   44.2211 H   0  0  0  0  0  0  0  0  0  0  0  0
   46.0012   33.3706   45.4556 H   0  0  0  0  0  0  0  0  0  0  0  0
   44.0435   35.1480   42.0967 H   0  0  0  0  0  0  0  0  0  0  0  0
   48.5286   32.3573   41.8963 H   0  0  0  0  0  0  0  0  0  0  0  0
   46.8437   31.3579   40.7122 H   0  0  0  0  0  0  0  0  0  0  0  0
   47.0356   32.5534   39.3853 H   0  0  0  0  0  0  0  0  0  0  0  0
   48.0138   31.0468   39.3853 H   0  0  0  0  0  0  0  0  0  0  0  0
   50.5967   31.7659   41.3258 H   0  0  0  0  0  0  0  0  0  0  0  0
   49.8874   31.0806   39.8245 H   0  0  0  0  0  0  0  0  0  0  0  0
   50.5481   32.7510   39.8245 H   0  0  0  0  0  0  0  0  0  0  0  0
  1  3  1  0
  1  4  1  0
  2  1  1  0
  2  3  1  0
  4  5  2  0
  5  6  1  0
  7  6  2  0
  8  7  1  0
  9  4  1  0
  9  8  2  0
 10 11  1  0
 10  1  1  0
 12 11  1  0
 13 11  1  0
  2 14  1  0
  2 15  1  0
  3 16  1  0
  3 17  1  0
  5 18  1  0
  6 19  1  0
  8 20  1  0
 11 21  1  0
 12 22  1  0
 12 23  1  0
 12 24  1  0
 13 25  1  0
 13 26  1  0
 13 27  1  0
M  ISO  8  14  13  15  13  16  13  17  13  18  14  19  14  20  14  21   8
M  ISO  6  22   8  23   8  24   8  25   8  26   8  27   8
M  END
>  <minimizedAffinity>  (1) 
-3.71167421

>  <minimizedRMSD>  (1) 
4.42298985

$$$$
