
     RDKit          3D

 20 21  0  0  0  0  0  0  0  0999 V2000
   45.7580   35.0250   42.8820 C   0  0  0  0  0  0  0  0  0  0  0  0
   44.3860   35.3740   42.3570 C   0  0  0  0  0  0  0  0  0  0  0  0
   45.1380   36.3180   43.2110 C   0  0  0  0  0  0  0  0  0  0  0  0
   45.8570   33.9540   43.9080 C   0  0  0  0  0  0  0  0  0  0  0  0
   45.6340   34.2600   45.2650 C   0  0  0  0  0  0  0  0  0  0  0  0
   45.7200   33.2800   46.2400 C   0  0  0  0  0  0  0  0  0  0  0  0
   46.0300   32.0240   45.8120 N   0  0  0  0  0  0  0  0  0  0  0  0
   46.2430   31.7480   44.4970 C   0  0  0  0  0  0  0  0  0  0  0  0
   46.1550   32.7090   43.5660 N   0  0  0  0  0  0  0  0  0  0  0  0
   46.6860   34.8580   41.8530 O   0  0  0  0  0  0  0  0  0  0  0  0
   48.0120   35.2620   41.9310 C   0  0  0  0  0  0  0  0  0  0  0  0
   48.8280   34.3770   41.5030 O   0  0  0  0  0  0  0  0  0  0  0  0
   44.2416   35.5901   41.2882 H   0  0  0  0  0  0  0  0  0  0  0  0
   43.3908   34.9067   42.3929 H   0  0  0  0  0  0  0  0  0  0  0  0
   44.7976   36.5141   44.2385 H   0  0  0  0  0  0  0  0  0  0  0  0
   45.4490   37.3680   43.1069 H   0  0  0  0  0  0  0  0  0  0  0  0
   45.3880   35.2923   45.5544 H   0  0  0  0  0  0  0  0  0  0  0  0
   45.5473   33.5037   47.3031 H   0  0  0  0  0  0  0  0  0  0  0  0
   46.4913   30.7205   44.1927 H   0  0  0  0  0  0  0  0  0  0  0  0
   48.3270   36.2413   42.3205 H   0  0  0  0  0  0  0  0  0  0  0  0
  1  3  1  0
  1  4  1  0
  2  1  1  0
  2  3  1  0
  4  5  2  0
  5  6  1  0
  7  6  2  0
  8  7  1  0
  9  4  1  0
  9  8  2  0
 10 11  1  0
 10  1  1  0
 12 11  2  0
  2 13  1  0
  2 14  1  0
  3 15  1  0
  3 16  1  0
  5 17  1  0
  6 18  1  0
  8 19  1  0
 11 20  1  0
M  ISO  8  13  13  14  13  15  13  16  13  17  14  18  14  19  14  20   6
M  END
>  <minimizedAffinity>  (1) 
-3.19857144

>  <minimizedRMSD>  (1) 
2.98893023

$$$$
