
     RDKit          3D

 35 38  0  0  0  0  0  0  0  0999 V2000
   42.2870   34.4630   40.9710 O   0  0  0  0  0  0  0  0  0  0  0  0
   41.6390   34.7400   39.7870 C   0  0  0  0  0  0  0  0  0  0  0  0
   41.9480   35.7110   38.8430 C   0  0  0  0  0  0  0  0  0  0  0  0
   41.2240   35.8730   37.7080 C   0  0  0  0  0  0  0  0  0  0  0  0
   40.1580   35.0610   37.4830 C   0  0  0  0  0  0  0  0  0  0  0  0
   39.8290   34.0940   38.3970 C   0  0  0  0  0  0  0  0  0  0  0  0
   40.5600   33.9220   39.5540 C   0  0  0  0  0  0  0  0  0  0  0  0
   39.8930   32.8350   40.2120 N   0  0  0  0  0  0  0  0  0  0  0  0
   40.4760   31.6440   40.4080 N   0  0  0  0  0  0  0  0  0  0  0  0
   39.6000   30.8140   41.0260 C   0  0  0  0  0  0  0  0  0  0  0  0
   38.4320   31.5250   41.2160 C   0  0  0  0  0  0  0  0  0  0  0  0
   38.6190   32.7920   40.7050 C   0  0  0  0  0  0  0  0  0  0  0  0
   43.5030   33.8190   41.1600 C   0  0  0  0  0  0  0  0  0  0  0  0
   44.4110   33.8960   39.9310 C   0  0  0  0  0  0  0  0  0  0  0  0
   43.9210   32.6080   40.4300 C   0  0  0  0  0  0  0  0  0  0  0  0
   44.1270   34.1590   42.4540 C   0  0  0  0  0  0  0  0  0  0  0  0
   44.8530   33.1890   43.1750 C   0  0  0  0  0  0  0  0  0  0  0  0
   45.4440   33.5000   44.3970 C   0  0  0  0  0  0  0  0  0  0  0  0
   45.2820   34.7790   44.8470 N   0  0  0  0  0  0  0  0  0  0  0  0
   44.5710   35.7010   44.1260 C   0  0  0  0  0  0  0  0  0  0  0  0
   44.0240   35.3680   42.9680 N   0  0  0  0  0  0  0  0  0  0  0  0
   42.8095   36.3711   39.0223 H   0  0  0  0  0  0  0  0  0  0  0  0
   41.4959   36.6510   36.9795 H   0  0  0  0  0  0  0  0  0  0  0  0
   39.5594   35.1796   36.5678 H   0  0  0  0  0  0  0  0  0  0  0  0
   38.9644   33.4419   38.2039 H   0  0  0  0  0  0  0  0  0  0  0  0
   39.7851   29.7705   41.3206 H   0  0  0  0  0  0  0  0  0  0  0  0
   37.5145   31.1476   41.6910 H   0  0  0  0  0  0  0  0  0  0  0  0
   37.8842   33.6106   40.6959 H   0  0  0  0  0  0  0  0  0  0  0  0
   45.4717   34.1651   40.0431 H   0  0  0  0  0  0  0  0  0  0  0  0
   44.3828   34.4255   38.9673 H   0  0  0  0  0  0  0  0  0  0  0  0
   43.1798   32.0455   39.8432 H   0  0  0  0  0  0  0  0  0  0  0  0
   44.4124   31.6703   40.7288 H   0  0  0  0  0  0  0  0  0  0  0  0
   44.9540   32.1726   42.7667 H   0  0  0  0  0  0  0  0  0  0  0  0
   46.0125   32.7532   44.9707 H   0  0  0  0  0  0  0  0  0  0  0  0
   44.4539   36.7245   44.5118 H   0  0  0  0  0  0  0  0  0  0  0  0
  1 13  1  0
  2  1  1  0
  3  2  2  0
  4  3  1  0
  5  4  2  0
  5  6  1  0
  6  7  2  0
  7  2  1  0
  7  8  1  0
  8  9  1  0
  8 12  1  0
  9 10  2  0
 10 11  1  0
 12 11  2  0
 13 16  1  0
 14 15  1  0
 14 13  1  0
 15 13  1  0
 16 21  1  0
 16 17  2  0
 17 18  1  0
 18 19  2  0
 20 19  1  0
 21 20  2  0
  3 22  1  0
  4 23  1  0
  5 24  1  0
  6 25  1  0
 10 26  1  0
 11 27  1  0
 12 28  1  0
 14 29  1  0
 14 30  1  0
 15 31  1  0
 15 32  1  0
 17 33  1  0
 18 34  1  0
 20 35  1  0
M  ISO  8  22  14  23  14  24  14  25  14  26  14  27  14  28  14  29  13
M  ISO  6  30  13  31  13  32  13  33  14  34  14  35  14
M  END
>  <minimizedAffinity>  (1) 
-5.16076851

>  <minimizedRMSD>  (1) 
2.91579413

$$$$
