
     RDKit          3D

 47 49  0  0  0  0  0  0  0  0999 V2000
   41.7870   35.2100   39.5410 C   0  0  0  0  0  0  0  0  0  0  0  0
   42.0480   35.9520   38.3790 C   0  0  0  0  0  0  0  0  0  0  0  0
   41.2080   35.9440   37.3360 C   0  0  0  0  0  0  0  0  0  0  0  0
   40.1000   35.1770   37.4770 C   0  0  0  0  0  0  0  0  0  0  0  0
   39.8430   34.4620   38.5890 C   0  0  0  0  0  0  0  0  0  0  0  0
   40.6150   34.4200   39.6540 C   0  0  0  0  0  0  0  0  0  0  0  0
   42.5900   35.1440   40.6760 O   0  0  0  0  0  0  0  0  0  0  0  0
   43.6480   34.2500   40.9060 C   0  0  0  0  0  0  0  0  0  0  0  0
   44.6660   34.1820   39.7970 C   0  0  0  0  0  0  0  0  0  0  0  0
   43.8780   33.0070   40.1650 C   0  0  0  0  0  0  0  0  0  0  0  0
   44.1700   34.4000   42.2750 C   0  0  0  0  0  0  0  0  0  0  0  0
   44.7940   33.3250   42.9540 C   0  0  0  0  0  0  0  0  0  0  0  0
   45.2920   33.4450   44.2380 C   0  0  0  0  0  0  0  0  0  0  0  0
   45.1450   34.6730   44.8190 N   0  0  0  0  0  0  0  0  0  0  0  0
   44.5360   35.7020   44.1430 C   0  0  0  0  0  0  0  0  0  0  0  0
   44.0820   35.5310   42.9210 N   0  0  0  0  0  0  0  0  0  0  0  0
   39.9130   33.5700   40.6390 C   0  0  0  0  0  0  0  0  0  0  0  0
   40.6440   32.2340   40.9300 C   0  0  0  0  0  0  0  0  0  0  0  0
   40.0260   34.1800   42.0070 C   0  0  0  0  0  0  0  0  0  0  0  0
   38.6370   33.0020   40.1900 C   0  0  0  0  0  0  0  0  0  0  0  0
   38.0990   32.1010   41.2090 N   0  0  0  0  0  0  0  0  0  0  0  0
   37.4290   30.8630   41.0010 C   0  0  0  0  0  0  0  0  0  0  0  0
   37.8530   30.2260   39.9360 N   0  0  0  0  0  0  0  0  0  0  0  0
   36.4010   30.2790   41.7860 N   0  0  0  0  0  0  0  0  0  0  0  0
   37.4250   29.2960   39.6840 H   0  0  0  0  0  0  0  0  0  0  0  0
   42.9659   36.5556   38.3233 H   0  0  0  0  0  0  0  0  0  0  0  0
   41.4052   36.5237   36.4222 H   0  0  0  0  0  0  0  0  0  0  0  0
   39.3791   35.1365   36.6472 H   0  0  0  0  0  0  0  0  0  0  0  0
   38.9174   33.8679   38.6086 H   0  0  0  0  0  0  0  0  0  0  0  0
   45.7403   34.2218   40.0301 H   0  0  0  0  0  0  0  0  0  0  0  0
   44.8503   34.7415   38.8680 H   0  0  0  0  0  0  0  0  0  0  0  0
   43.1056   32.6322   39.4773 H   0  0  0  0  0  0  0  0  0  0  0  0
   44.1295   31.9766   40.4567 H   0  0  0  0  0  0  0  0  0  0  0  0
   44.8859   32.3570   42.4397 H   0  0  0  0  0  0  0  0  0  0  0  0
   45.7757   32.6055   44.7588 H   0  0  0  0  0  0  0  0  0  0  0  0
   44.4267   36.6820   44.6304 H   0  0  0  0  0  0  0  0  0  0  0  0
   40.7234   32.0888   42.0175 H   0  0  0  0  0  0  0  0  0  0  0  0
   40.0757   31.4016   40.4895 H   0  0  0  0  0  0  0  0  0  0  0  0
   41.6515   32.2638   40.4895 H   0  0  0  0  0  0  0  0  0  0  0  0
   39.8815   33.4002   42.7693 H   0  0  0  0  0  0  0  0  0  0  0  0
   41.0227   34.6297   42.1268 H   0  0  0  0  0  0  0  0  0  0  0  0
   39.2565   34.9569   42.1268 H   0  0  0  0  0  0  0  0  0  0  0  0
   37.9200   33.8165   40.0100 H   0  0  0  0  0  0  0  0  0  0  0  0
   38.8029   32.4358   39.2616 H   0  0  0  0  0  0  0  0  0  0  0  0
   38.2188   32.3962   42.1885 H   0  0  0  0  0  0  0  0  0  0  0  0
   36.0018   29.3684   41.5169 H   0  0  0  0  0  0  0  0  0  0  0  0
   36.0541   30.7657   42.6248 H   0  0  0  0  0  0  0  0  0  0  0  0
  1  6  1  0
  1  7  1  0
  2  1  2  0
  3  4  2  0
  3  2  1  0
  4  5  1  0
  5  6  2  0
  6 17  1  0
  7  8  1  0
  8 11  1  0
  9 10  1  0
  9  8  1  0
 10  8  1  0
 11 16  1  0
 11 12  2  0
 12 13  1  0
 13 14  2  0
 15 14  1  0
 16 15  2  0
 17 18  1  0
 17 19  1  0
 20 17  1  0
 20 21  1  0
 22 21  1  0
 22 24  1  0
 23 22  2  0
 25 23  1  0
  2 26  1  0
  3 27  1  0
  4 28  1  0
  5 29  1  0
  9 30  1  0
  9 31  1  0
 10 32  1  0
 10 33  1  0
 12 34  1  0
 13 35  1  0
 15 36  1  0
 18 37  1  0
 18 38  1  0
 18 39  1  0
 19 40  1  0
 19 41  1  0
 19 42  1  0
 20 43  1  0
 20 44  1  0
 21 45  1  0
 24 46  1  0
 24 47  1  0
M  ISO  8  26  14  27  14  28  14  29  14  30  13  31  13  32  13  33  13
M  ISO  8  34  14  35  14  36  14  37   8  38   8  39   8  40   8  41   8
M  ISO  3  42   8  43   8  44   8
M  END
>  <minimizedAffinity>  (1) 
-6.04793501

>  <minimizedRMSD>  (1) 
0.303001016

$$$$
