
     RDKit          3D

 47 50  0  0  0  0  0  0  0  0999 V2000
   41.7270   35.1240   39.6440 C   0  0  0  0  0  0  0  0  0  0  0  0
   42.0550   35.8570   38.4820 C   0  0  0  0  0  0  0  0  0  0  0  0
   41.2700   35.8860   37.4260 C   0  0  0  0  0  0  0  0  0  0  0  0
   40.1480   35.1810   37.5360 C   0  0  0  0  0  0  0  0  0  0  0  0
   39.7630   34.4650   38.6100 C   0  0  0  0  0  0  0  0  0  0  0  0
   40.5240   34.3940   39.7080 C   0  0  0  0  0  0  0  0  0  0  0  0
   42.4740   35.0070   40.8250 O   0  0  0  0  0  0  0  0  0  0  0  0
   43.5440   34.1180   41.0300 C   0  0  0  0  0  0  0  0  0  0  0  0
   44.5170   34.0130   39.8820 C   0  0  0  0  0  0  0  0  0  0  0  0
   43.7540   32.8530   40.3270 C   0  0  0  0  0  0  0  0  0  0  0  0
   44.1270   34.3390   42.3680 C   0  0  0  0  0  0  0  0  0  0  0  0
   44.7890   33.2820   43.0590 C   0  0  0  0  0  0  0  0  0  0  0  0
   45.3380   33.4530   44.3120 C   0  0  0  0  0  0  0  0  0  0  0  0
   45.2150   34.6930   44.8600 N   0  0  0  0  0  0  0  0  0  0  0  0
   44.5730   35.6960   44.1740 C   0  0  0  0  0  0  0  0  0  0  0  0
   44.0660   35.4730   42.9790 N   0  0  0  0  0  0  0  0  0  0  0  0
   39.7690   33.5340   40.6220 C   0  0  0  0  0  0  0  0  0  0  0  0
   40.4040   32.0970   40.7990 C   0  0  0  0  0  0  0  0  0  0  0  0
   39.9430   33.9810   42.0360 C   0  0  0  0  0  0  0  0  0  0  0  0
   38.4480   33.0400   40.1930 C   0  0  0  0  0  0  0  0  0  0  0  0
   38.1620   31.6380   40.2540 C   0  0  0  0  0  0  0  0  0  0  0  0
   38.3100   31.0130   38.9740 C   0  0  0  0  0  0  0  0  0  0  0  0
   38.0650   29.7030   38.9210 C   0  0  0  0  0  0  0  0  0  0  0  0
   37.6590   28.9380   40.1220 C   0  0  0  0  0  0  0  0  0  0  0  0
   37.6860   30.3880   41.3360 S   0  0  0  0  0  0  0  0  0  0  0  0
   42.9982   36.4226   38.4589 H   0  0  0  0  0  0  0  0  0  0  0  0
   41.5238   36.4526   36.5179 H   0  0  0  0  0  0  0  0  0  0  0  0
   39.4710   35.1826   36.6690 H   0  0  0  0  0  0  0  0  0  0  0  0
   38.8035   33.9278   38.5837 H   0  0  0  0  0  0  0  0  0  0  0  0
   45.5997   34.0670   40.0685 H   0  0  0  0  0  0  0  0  0  0  0  0
   44.6595   34.5370   38.9254 H   0  0  0  0  0  0  0  0  0  0  0  0
   42.9568   32.4481   39.6863 H   0  0  0  0  0  0  0  0  0  0  0  0
   44.0254   31.8362   40.6471 H   0  0  0  0  0  0  0  0  0  0  0  0
   44.8642   32.2966   42.5759 H   0  0  0  0  0  0  0  0  0  0  0  0
   45.8471   32.6330   44.8396 H   0  0  0  0  0  0  0  0  0  0  0  0
   44.4817   36.6942   44.6271 H   0  0  0  0  0  0  0  0  0  0  0  0
   40.5043   31.8699   41.8706 H   0  0  0  0  0  0  0  0  0  0  0  0
   39.7532   31.3476   40.3248 H   0  0  0  0  0  0  0  0  0  0  0  0
   41.3962   32.0736   40.3248 H   0  0  0  0  0  0  0  0  0  0  0  0
   39.6295   33.1755   42.7164 H   0  0  0  0  0  0  0  0  0  0  0  0
   41.0008   34.2226   42.2167 H   0  0  0  0  0  0  0  0  0  0  0  0
   39.3269   34.8742   42.2167 H   0  0  0  0  0  0  0  0  0  0  0  0
   38.3172   33.3472   39.1449 H   0  0  0  0  0  0  0  0  0  0  0  0
   37.7589   33.4750   40.9319 H   0  0  0  0  0  0  0  0  0  0  0  0
   38.6097   31.5829   38.0822 H   0  0  0  0  0  0  0  0  0  0  0  0
   38.1672   29.1773   37.9602 H   0  0  0  0  0  0  0  0  0  0  0  0
   37.4197   27.8736   40.2624 H   0  0  0  0  0  0  0  0  0  0  0  0
  1  6  1  0
  1  7  1  0
  2  1  2  0
  3  4  2  0
  3  2  1  0
  4  5  1  0
  5  6  2  0
  6 17  1  0
  7  8  1  0
  8 11  1  0
  9 10  1  0
  9  8  1  0
 10  8  1  0
 11 16  1  0
 11 12  2  0
 12 13  1  0
 13 14  2  0
 15 14  1  0
 16 15  2  0
 17 18  1  0
 17 19  1  0
 20 21  1  0
 20 17  1  0
 21 25  1  0
 22 21  2  0
 23 22  1  0
 23 24  2  0
 24 25  1  0
  2 26  1  0
  3 27  1  0
  4 28  1  0
  5 29  1  0
  9 30  1  0
  9 31  1  0
 10 32  1  0
 10 33  1  0
 12 34  1  0
 13 35  1  0
 15 36  1  0
 18 37  1  0
 18 38  1  0
 18 39  1  0
 19 40  1  0
 19 41  1  0
 19 42  1  0
 20 43  1  0
 20 44  1  0
 22 45  1  0
 23 46  1  0
 24 47  1  0
M  ISO  8  26  14  27  14  28  14  29  14  30  13  31  13  32  13  33  13
M  ISO  8  34  14  35  14  36  14  37   8  38   8  39   8  40   8  41   8
M  ISO  6  42   8  43   8  44   8  45  14  46  14  47  14
M  END
>  <minimizedAffinity>  (1) 
-5.68015242

>  <minimizedRMSD>  (1) 
1.09775519

$$$$
