
     RDKit          3D

 47 50  0  0  0  0  0  0  0  0999 V2000
   41.7590   35.1580   39.5630 C   0  0  0  0  0  0  0  0  0  0  0  0
   42.0590   35.8790   38.3930 C   0  0  0  0  0  0  0  0  0  0  0  0
   41.2170   35.8960   37.3510 C   0  0  0  0  0  0  0  0  0  0  0  0
   40.0770   35.1810   37.5050 C   0  0  0  0  0  0  0  0  0  0  0  0
   39.7830   34.4860   38.6230 C   0  0  0  0  0  0  0  0  0  0  0  0
   40.5560   34.4230   39.6880 C   0  0  0  0  0  0  0  0  0  0  0  0
   42.5580   35.0690   40.7040 O   0  0  0  0  0  0  0  0  0  0  0  0
   43.5810   34.1430   40.9510 C   0  0  0  0  0  0  0  0  0  0  0  0
   44.5730   34.0060   39.8270 C   0  0  0  0  0  0  0  0  0  0  0  0
   43.7590   32.8770   40.2390 C   0  0  0  0  0  0  0  0  0  0  0  0
   44.1380   34.3340   42.2980 C   0  0  0  0  0  0  0  0  0  0  0  0
   44.7780   33.2650   42.9790 C   0  0  0  0  0  0  0  0  0  0  0  0
   45.3070   33.4290   44.2500 C   0  0  0  0  0  0  0  0  0  0  0  0
   45.1790   34.6640   44.8090 N   0  0  0  0  0  0  0  0  0  0  0  0
   44.5540   35.6850   44.1260 C   0  0  0  0  0  0  0  0  0  0  0  0
   44.0690   35.4710   42.9200 N   0  0  0  0  0  0  0  0  0  0  0  0
   39.8170   33.6200   40.6760 C   0  0  0  0  0  0  0  0  0  0  0  0
   40.4040   32.2160   40.9110 C   0  0  0  0  0  0  0  0  0  0  0  0
   40.0600   34.1790   42.0610 C   0  0  0  0  0  0  0  0  0  0  0  0
   38.4430   33.2610   40.3130 C   0  0  0  0  0  0  0  0  0  0  0  0
   38.2080   31.7930   40.3150 C   0  0  0  0  0  0  0  0  0  0  0  0
   37.9270   30.7870   41.2520 C   0  0  0  0  0  0  0  0  0  0  0  0
   37.8530   29.5960   40.6850 N   0  0  0  0  0  0  0  0  0  0  0  0
   38.0760   29.7510   39.3750 C   0  0  0  0  0  0  0  0  0  0  0  0
   38.2860   31.0610   39.1610 N   0  0  0  0  0  0  0  0  0  0  0  0
   43.0034   36.4398   38.3324 H   0  0  0  0  0  0  0  0  0  0  0  0
   41.4374   36.4548   36.4295 H   0  0  0  0  0  0  0  0  0  0  0  0
   39.3541   35.1664   36.6761 H   0  0  0  0  0  0  0  0  0  0  0  0
   38.8321   33.9336   38.6472 H   0  0  0  0  0  0  0  0  0  0  0  0
   45.6523   34.0149   40.0392 H   0  0  0  0  0  0  0  0  0  0  0  0
   44.7579   34.5320   38.8788 H   0  0  0  0  0  0  0  0  0  0  0  0
   42.9625   32.5098   39.5751 H   0  0  0  0  0  0  0  0  0  0  0  0
   43.9831   31.8473   40.5543 H   0  0  0  0  0  0  0  0  0  0  0  0
   44.8559   32.2843   42.4869 H   0  0  0  0  0  0  0  0  0  0  0  0
   45.8048   32.6035   44.7798 H   0  0  0  0  0  0  0  0  0  0  0  0
   44.4601   36.6788   44.5880 H   0  0  0  0  0  0  0  0  0  0  0  0
   40.4827   32.0277   41.9919 H   0  0  0  0  0  0  0  0  0  0  0  0
   39.7457   31.4622   40.4545 H   0  0  0  0  0  0  0  0  0  0  0  0
   41.4029   32.1551   40.4545 H   0  0  0  0  0  0  0  0  0  0  0  0
   39.7405   33.4439   42.8144 H   0  0  0  0  0  0  0  0  0  0  0  0
   41.1318   34.3917   42.1877 H   0  0  0  0  0  0  0  0  0  0  0  0
   39.4844   35.1078   42.1877 H   0  0  0  0  0  0  0  0  0  0  0  0
   38.2338   33.6484   39.3050 H   0  0  0  0  0  0  0  0  0  0  0  0
   37.7763   33.7027   41.0683 H   0  0  0  0  0  0  0  0  0  0  0  0
   37.7855   30.9680   42.3277 H   0  0  0  0  0  0  0  0  0  0  0  0
   38.0857   28.9554   38.6155 H   0  0  0  0  0  0  0  0  0  0  0  0
   38.4830   31.4674   38.2353 H   0  0  0  0  0  0  0  0  0  0  0  0
  1  6  1  0
  1  7  1  0
  2  1  2  0
  3  4  2  0
  3  2  1  0
  4  5  1  0
  5  6  2  0
  6 17  1  0
  7  8  1  0
  8 11  1  0
  9 10  1  0
  9  8  1  0
 10  8  1  0
 11 16  1  0
 11 12  2  0
 12 13  1  0
 13 14  2  0
 15 14  1  0
 16 15  2  0
 17 18  1  0
 17 19  1  0
 20 21  1  0
 20 17  1  0
 21 22  2  0
 23 22  1  0
 24 23  2  0
 25 24  1  0
 25 21  1  0
  2 26  1  0
  3 27  1  0
  4 28  1  0
  5 29  1  0
  9 30  1  0
  9 31  1  0
 10 32  1  0
 10 33  1  0
 12 34  1  0
 13 35  1  0
 15 36  1  0
 18 37  1  0
 18 38  1  0
 18 39  1  0
 19 40  1  0
 19 41  1  0
 19 42  1  0
 20 43  1  0
 20 44  1  0
 22 45  1  0
 24 46  1  0
 25 47  1  0
M  ISO  8  26  14  27  14  28  14  29  14  30  13  31  13  32  13  33  13
M  ISO  8  34  14  35  14  36  14  37   8  38   8  39   8  40   8  41   8
M  ISO  6  42   8  43   8  44   8  45  14  46  14  47   9
M  END
>  <minimizedAffinity>  (1) 
-5.51886892

>  <minimizedRMSD>  (1) 
1.24228537

$$$$
