
     RDKit          3D

 46 49  0  0  0  0  0  0  0  0999 V2000
   41.6840   35.0490   39.6190 C   0  0  0  0  0  0  0  0  0  0  0  0
   42.0200   35.9020   38.5560 C   0  0  0  0  0  0  0  0  0  0  0  0
   41.2560   35.9930   37.4600 C   0  0  0  0  0  0  0  0  0  0  0  0
   40.1480   35.2120   37.4480 C   0  0  0  0  0  0  0  0  0  0  0  0
   39.8170   34.3890   38.4640 C   0  0  0  0  0  0  0  0  0  0  0  0
   40.5180   34.2520   39.5680 C   0  0  0  0  0  0  0  0  0  0  0  0
   42.4020   34.8720   40.8020 O   0  0  0  0  0  0  0  0  0  0  0  0
   43.5050   34.0320   41.0000 C   0  0  0  0  0  0  0  0  0  0  0  0
   44.4570   33.9830   39.8330 C   0  0  0  0  0  0  0  0  0  0  0  0
   43.7540   32.7890   40.2770 C   0  0  0  0  0  0  0  0  0  0  0  0
   44.1030   34.2640   42.3260 C   0  0  0  0  0  0  0  0  0  0  0  0
   44.7760   33.2220   43.0160 C   0  0  0  0  0  0  0  0  0  0  0  0
   45.3430   33.4160   44.2610 C   0  0  0  0  0  0  0  0  0  0  0  0
   45.2170   34.6730   44.7930 N   0  0  0  0  0  0  0  0  0  0  0  0
   44.5590   35.6650   44.1020 C   0  0  0  0  0  0  0  0  0  0  0  0
   44.0390   35.4210   42.9170 N   0  0  0  0  0  0  0  0  0  0  0  0
   39.7510   33.3120   40.4190 C   0  0  0  0  0  0  0  0  0  0  0  0
   40.4100   31.9240   40.5520 C   0  0  0  0  0  0  0  0  0  0  0  0
   39.8470   33.7400   41.8650 C   0  0  0  0  0  0  0  0  0  0  0  0
   38.4370   32.9220   39.9080 C   0  0  0  0  0  0  0  0  0  0  0  0
   38.0680   31.5780   40.3310 N   0  0  0  0  0  0  0  0  0  0  0  0
   38.1010   30.5550   39.4190 C   0  0  0  0  0  0  0  0  0  0  0  0
   37.7540   29.3970   40.0130 N   0  0  0  0  0  0  0  0  0  0  0  0
   37.4980   29.6680   41.2910 C   0  0  0  0  0  0  0  0  0  0  0  0
   37.6890   30.9600   41.4630 N   0  0  0  0  0  0  0  0  0  0  0  0
   42.9336   36.5108   38.6250 H   0  0  0  0  0  0  0  0  0  0  0  0
   41.5112   36.6591   36.6227 H   0  0  0  0  0  0  0  0  0  0  0  0
   39.4882   35.2513   36.5687 H   0  0  0  0  0  0  0  0  0  0  0  0
   38.8986   33.7921   38.3622 H   0  0  0  0  0  0  0  0  0  0  0  0
   45.5401   34.0805   39.9987 H   0  0  0  0  0  0  0  0  0  0  0  0
   44.5579   34.5244   38.8808 H   0  0  0  0  0  0  0  0  0  0  0  0
   42.9618   32.3586   39.6468 H   0  0  0  0  0  0  0  0  0  0  0  0
   44.0748   31.7808   40.5781 H   0  0  0  0  0  0  0  0  0  0  0  0
   44.8483   32.2303   42.5455 H   0  0  0  0  0  0  0  0  0  0  0  0
   45.8654   32.6083   44.7945 H   0  0  0  0  0  0  0  0  0  0  0  0
   44.4669   36.6686   44.5427 H   0  0  0  0  0  0  0  0  0  0  0  0
   40.5283   31.6748   41.6168 H   0  0  0  0  0  0  0  0  0  0  0  0
   39.7745   31.1684   40.0670 H   0  0  0  0  0  0  0  0  0  0  0  0
   41.3972   31.9388   40.0670 H   0  0  0  0  0  0  0  0  0  0  0  0
   39.6531   32.8755   42.5169 H   0  0  0  0  0  0  0  0  0  0  0  0
   40.8553   34.1315   42.0654 H   0  0  0  0  0  0  0  0  0  0  0  0
   39.1025   34.5246   42.0654 H   0  0  0  0  0  0  0  0  0  0  0  0
   38.4583   32.9558   38.8087 H   0  0  0  0  0  0  0  0  0  0  0  0
   37.6919   33.6235   40.3113 H   0  0  0  0  0  0  0  0  0  0  0  0
   38.3711   30.6638   38.3582 H   0  0  0  0  0  0  0  0  0  0  0  0
   37.1851   28.9469   42.0605 H   0  0  0  0  0  0  0  0  0  0  0  0
  1  7  1  0
  2  1  2  0
  3  2  1  0
  4  3  2  0
  4  5  1  0
  5  6  2  0
  6  1  1  0
  6 17  1  0
  7  8  1  0
  8 11  1  0
  9 10  1  0
  9  8  1  0
 10  8  1  0
 11 16  1  0
 11 12  2  0
 12 13  1  0
 13 14  2  0
 15 14  1  0
 16 15  2  0
 17 18  1  0
 17 19  1  0
 20 21  1  0
 20 17  1  0
 21 25  1  0
 22 23  2  0
 22 21  1  0
 23 24  1  0
 24 25  2  0
  2 26  1  0
  3 27  1  0
  4 28  1  0
  5 29  1  0
  9 30  1  0
  9 31  1  0
 10 32  1  0
 10 33  1  0
 12 34  1  0
 13 35  1  0
 15 36  1  0
 18 37  1  0
 18 38  1  0
 18 39  1  0
 19 40  1  0
 19 41  1  0
 19 42  1  0
 20 43  1  0
 20 44  1  0
 22 45  1  0
 24 46  1  0
M  ISO  8  26  14  27  14  28  14  29  14  30  13  31  13  32  13  33  13
M  ISO  8  34  14  35  14  36  14  37   8  38   8  39   8  40   8  41   8
M  ISO  5  42   8  43   8  44   8  45  14  46  14
M  END
>  <minimizedAffinity>  (1) 
-5.43507719

>  <minimizedRMSD>  (1) 
1.21026981

$$$$
