
     RDKit          3D

 55 58  0  0  0  0  0  0  0  0999 V2000
   41.8510   34.7290   40.0100 C   0  0  0  0  0  0  0  0  0  0  0  0
   41.9970   35.5460   38.8760 C   0  0  0  0  0  0  0  0  0  0  0  0
   41.1910   35.4290   37.8110 C   0  0  0  0  0  0  0  0  0  0  0  0
   40.2350   34.4750   37.9030 C   0  0  0  0  0  0  0  0  0  0  0  0
   40.0880   33.6870   38.9840 C   0  0  0  0  0  0  0  0  0  0  0  0
   40.8370   33.7500   40.0620 C   0  0  0  0  0  0  0  0  0  0  0  0
   42.6280   34.7660   41.1590 O   0  0  0  0  0  0  0  0  0  0  0  0
   43.8790   34.1470   41.3430 C   0  0  0  0  0  0  0  0  0  0  0  0
   44.8770   34.3800   40.2430 C   0  0  0  0  0  0  0  0  0  0  0  0
   44.3990   33.0320   40.5410 C   0  0  0  0  0  0  0  0  0  0  0  0
   44.3510   34.3430   42.7270 C   0  0  0  0  0  0  0  0  0  0  0  0
   45.0210   33.3150   43.4350 C   0  0  0  0  0  0  0  0  0  0  0  0
   45.4670   33.4850   44.7310 C   0  0  0  0  0  0  0  0  0  0  0  0
   45.2310   34.6910   45.2990 N   0  0  0  0  0  0  0  0  0  0  0  0
   44.5720   35.6900   44.5970 C   0  0  0  0  0  0  0  0  0  0  0  0
   44.1740   35.4600   43.3620 N   0  0  0  0  0  0  0  0  0  0  0  0
   40.2550   32.7780   41.0100 C   0  0  0  0  0  0  0  0  0  0  0  0
   41.3550   31.9030   41.7180 C   0  0  0  0  0  0  0  0  0  0  0  0
   39.7570   33.4630   42.2330 C   0  0  0  0  0  0  0  0  0  0  0  0
   39.5130   31.6570   40.4120 C   0  0  0  0  0  0  0  0  0  0  0  0
   38.9520   30.7030   41.3690 N   0  0  0  0  0  0  0  0  0  0  0  0
   39.3640   29.3820   40.8490 C   0  0  0  0  0  0  0  0  0  0  0  0
   38.7090   28.2520   41.5840 C   0  0  0  0  0  0  0  0  0  0  0  0
   37.2940   28.1780   41.0480 C   0  0  0  0  0  0  0  0  0  0  0  0
   36.9750   29.5180   40.4400 C   0  0  0  0  0  0  0  0  0  0  0  0
   37.4970   30.6860   41.2870 C   0  0  0  0  0  0  0  0  0  0  0  0
   42.7951   36.3029   38.8617 H   0  0  0  0  0  0  0  0  0  0  0  0
   41.2994   36.0663   36.9210 H   0  0  0  0  0  0  0  0  0  0  0  0
   39.5471   34.3376   37.0557 H   0  0  0  0  0  0  0  0  0  0  0  0
   39.2837   32.9368   38.9638 H   0  0  0  0  0  0  0  0  0  0  0  0
   45.9109   34.6654   40.4874 H   0  0  0  0  0  0  0  0  0  0  0  0
   44.9166   35.0144   39.3453 H   0  0  0  0  0  0  0  0  0  0  0  0
   43.7373   32.5183   39.8281 H   0  0  0  0  0  0  0  0  0  0  0  0
   44.8922   32.0785   40.7812 H   0  0  0  0  0  0  0  0  0  0  0  0
   45.1916   32.3496   42.9361 H   0  0  0  0  0  0  0  0  0  0  0  0
   45.9871   32.6819   45.2737 H   0  0  0  0  0  0  0  0  0  0  0  0
   44.3833   36.6662   45.0676 H   0  0  0  0  0  0  0  0  0  0  0  0
   41.2462   31.9896   42.8092 H   0  0  0  0  0  0  0  0  0  0  0  0
   41.2347   30.8510   41.4198 H   0  0  0  0  0  0  0  0  0  0  0  0
   42.3530   32.2568   41.4198 H   0  0  0  0  0  0  0  0  0  0  0  0
   40.1356   32.9422   43.1249 H   0  0  0  0  0  0  0  0  0  0  0  0
   40.1100   34.5048   42.2392 H   0  0  0  0  0  0  0  0  0  0  0  0
   38.6571   33.4485   42.2392 H   0  0  0  0  0  0  0  0  0  0  0  0
   38.6843   32.0737   39.8207 H   0  0  0  0  0  0  0  0  0  0  0  0
   40.2414   31.0942   39.8097 H   0  0  0  0  0  0  0  0  0  0  0  0
   39.0891   29.3189   39.7858 H   0  0  0  0  0  0  0  0  0  0  0  0
   40.4511   29.2893   40.9890 H   0  0  0  0  0  0  0  0  0  0  0  0
   39.2418   27.3092   41.3909 H   0  0  0  0  0  0  0  0  0  0  0  0
   38.7225   28.4141   42.6719 H   0  0  0  0  0  0  0  0  0  0  0  0
   37.2219   27.3908   40.2831 H   0  0  0  0  0  0  0  0  0  0  0  0
   36.5846   27.9369   41.8533 H   0  0  0  0  0  0  0  0  0  0  0  0
   37.4359   29.5717   39.4427 H   0  0  0  0  0  0  0  0  0  0  0  0
   35.8801   29.6081   40.3846 H   0  0  0  0  0  0  0  0  0  0  0  0
   37.1571   31.6298   40.8357 H   0  0  0  0  0  0  0  0  0  0  0  0
   37.1039   30.5639   42.3071 H   0  0  0  0  0  0  0  0  0  0  0  0
  1  6  1  0
  1  7  1  0
  2  1  2  0
  3  4  2  0
  3  2  1  0
  4  5  1  0
  5  6  2  0
  6 17  1  0
  7  8  1  0
  8 11  1  0
  9 10  1  0
  9  8  1  0
 10  8  1  0
 11 16  1  0
 11 12  2  0
 12 13  1  0
 13 14  2  0
 15 14  1  0
 16 15  2  0
 17 18  1  0
 17 19  1  0
 20 17  1  0
 20 21  1  0
 22 21  1  0
 22 23  1  0
 24 23  1  0
 25 24  1  0
 25 26  1  0
 26 21  1  0
  2 27  1  0
  3 28  1  0
  4 29  1  0
  5 30  1  0
  9 31  1  0
  9 32  1  0
 10 33  1  0
 10 34  1  0
 12 35  1  0
 13 36  1  0
 15 37  1  0
 18 38  1  0
 18 39  1  0
 18 40  1  0
 19 41  1  0
 19 42  1  0
 19 43  1  0
 20 44  1  0
 20 45  1  0
 22 46  1  0
 22 47  1  0
 23 48  1  0
 23 49  1  0
 24 50  1  0
 24 51  1  0
 25 52  1  0
 25 53  1  0
 26 54  1  0
 26 55  1  0
M  ISO  8  27  14  28  14  29  14  30  14  31  13  32  13  33  13  34  13
M  ISO  8  35  14  36  14  37  14  38   8  39   8  40   8  41   8  42   8
M  ISO  8  43   8  44   8  45   8  46  13  47  13  48  13  49  13  50  13
M  ISO  5  51  13  52  13  53  13  54  13  55  13
M  END
>  <minimizedAffinity>  (1) 
-5.39433336

>  <minimizedRMSD>  (1) 
1.27097011

$$$$
