
     RDKit          3D

 54 57  0  0  0  0  0  0  0  0999 V2000
   41.9420   34.8010   40.0070 C   0  0  0  0  0  0  0  0  0  0  0  0
   42.1450   35.6890   38.9420 C   0  0  0  0  0  0  0  0  0  0  0  0
   41.3850   35.6550   37.8380 C   0  0  0  0  0  0  0  0  0  0  0  0
   40.4160   34.7100   37.8220 C   0  0  0  0  0  0  0  0  0  0  0  0
   40.2140   33.8530   38.8360 C   0  0  0  0  0  0  0  0  0  0  0  0
   40.9140   33.8290   39.9500 C   0  0  0  0  0  0  0  0  0  0  0  0
   42.6670   34.7470   41.1890 O   0  0  0  0  0  0  0  0  0  0  0  0
   43.9150   34.1260   41.3800 C   0  0  0  0  0  0  0  0  0  0  0  0
   44.9200   34.3900   40.2950 C   0  0  0  0  0  0  0  0  0  0  0  0
   44.4520   33.0320   40.5700 C   0  0  0  0  0  0  0  0  0  0  0  0
   44.3850   34.3140   42.7640 C   0  0  0  0  0  0  0  0  0  0  0  0
   45.0520   33.2870   43.4720 C   0  0  0  0  0  0  0  0  0  0  0  0
   45.4950   33.4390   44.7680 C   0  0  0  0  0  0  0  0  0  0  0  0
   45.2460   34.6660   45.3410 N   0  0  0  0  0  0  0  0  0  0  0  0
   44.5960   35.6570   44.6390 C   0  0  0  0  0  0  0  0  0  0  0  0
   44.2030   35.4320   43.4000 N   0  0  0  0  0  0  0  0  0  0  0  0
   40.2910   32.7830   40.7990 C   0  0  0  0  0  0  0  0  0  0  0  0
   41.3580   31.8690   41.4920 C   0  0  0  0  0  0  0  0  0  0  0  0
   39.7120   33.3980   42.0290 C   0  0  0  0  0  0  0  0  0  0  0  0
   39.5900   31.7160   40.0790 C   0  0  0  0  0  0  0  0  0  0  0  0
   38.9900   30.7090   40.9050 N   0  0  0  0  0  0  0  0  0  0  0  0
   37.6180   30.7810   41.2000 C   0  0  0  0  0  0  0  0  0  0  0  0
   36.8750   29.4990   40.7290 C   0  0  0  0  0  0  0  0  0  0  0  0
   37.2180   29.1790   39.3800 N   0  0  0  0  0  0  0  0  0  0  0  0
   38.6470   28.9790   39.2640 C   0  0  0  0  0  0  0  0  0  0  0  0
   39.3740   29.3770   40.5190 C   0  0  0  0  0  0  0  0  0  0  0  0
   42.9504   36.4348   39.0138 H   0  0  0  0  0  0  0  0  0  0  0  0
   41.5390   36.3501   36.9995 H   0  0  0  0  0  0  0  0  0  0  0  0
   39.7645   34.6409   36.9384 H   0  0  0  0  0  0  0  0  0  0  0  0
   39.4038   33.1170   38.7274 H   0  0  0  0  0  0  0  0  0  0  0  0
   45.9482   34.6830   40.5538 H   0  0  0  0  0  0  0  0  0  0  0  0
   44.9620   35.0390   39.4078 H   0  0  0  0  0  0  0  0  0  0  0  0
   43.8022   32.5219   39.8436 H   0  0  0  0  0  0  0  0  0  0  0  0
   44.9525   32.0802   40.8015 H   0  0  0  0  0  0  0  0  0  0  0  0
   45.2245   32.3255   42.9662 H   0  0  0  0  0  0  0  0  0  0  0  0
   46.0132   32.6335   45.3089 H   0  0  0  0  0  0  0  0  0  0  0  0
   44.4053   36.6326   45.1099 H   0  0  0  0  0  0  0  0  0  0  0  0
   41.2593   31.9535   42.5843 H   0  0  0  0  0  0  0  0  0  0  0  0
   41.1977   30.8237   41.1892 H   0  0  0  0  0  0  0  0  0  0  0  0
   42.3662   32.1879   41.1892 H   0  0  0  0  0  0  0  0  0  0  0  0
   40.1557   32.9267   42.9183 H   0  0  0  0  0  0  0  0  0  0  0  0
   39.9306   34.4760   42.0377 H   0  0  0  0  0  0  0  0  0  0  0  0
   38.6228   33.2447   42.0377 H   0  0  0  0  0  0  0  0  0  0  0  0
   38.7948   32.1788   39.4762 H   0  0  0  0  0  0  0  0  0  0  0  0
   40.3552   31.2007   39.4798 H   0  0  0  0  0  0  0  0  0  0  0  0
   37.4898   30.8915   42.2869 H   0  0  0  0  0  0  0  0  0  0  0  0
   37.1921   31.6457   40.6700 H   0  0  0  0  0  0  0  0  0  0  0  0
   37.1565   28.6592   41.3813 H   0  0  0  0  0  0  0  0  0  0  0  0
   35.7914   29.6803   40.7831 H   0  0  0  0  0  0  0  0  0  0  0  0
   36.7295   28.3166   39.0997 H   0  0  0  0  0  0  0  0  0  0  0  0
   38.8418   27.9153   39.0626 H   0  0  0  0  0  0  0  0  0  0  0  0
   39.0137   29.6124   38.4428 H   0  0  0  0  0  0  0  0  0  0  0  0
   39.1188   28.6752   41.3267 H   0  0  0  0  0  0  0  0  0  0  0  0
   40.4580   29.3516   40.3336 H   0  0  0  0  0  0  0  0  0  0  0  0
  1  7  1  0
  2  1  2  0
  3  2  1  0
  4  3  2  0
  4  5  1  0
  5  6  2  0
  6  1  1  0
  6 17  1  0
  7  8  1  0
  8 11  1  0
  9 10  1  0
  9  8  1  0
 10  8  1  0
 11 16  1  0
 11 12  2  0
 12 13  1  0
 13 14  2  0
 15 14  1  0
 16 15  2  0
 17 18  1  0
 17 19  1  0
 20 17  1  0
 20 21  1  0
 21 22  1  0
 23 22  1  0
 24 23  1  0
 25 24  1  0
 25 26  1  0
 26 21  1  0
  2 27  1  0
  3 28  1  0
  4 29  1  0
  5 30  1  0
  9 31  1  0
  9 32  1  0
 10 33  1  0
 10 34  1  0
 12 35  1  0
 13 36  1  0
 15 37  1  0
 18 38  1  0
 18 39  1  0
 18 40  1  0
 19 41  1  0
 19 42  1  0
 19 43  1  0
 20 44  1  0
 20 45  1  0
 22 46  1  0
 22 47  1  0
 23 48  1  0
 23 49  1  0
 24 50  1  0
 25 51  1  0
 25 52  1  0
 26 53  1  0
 26 54  1  0
M  ISO  8  27  14  28  14  29  14  30  14  31  13  32  13  33  13  34  13
M  ISO  8  35  14  36  14  37  14  38   8  39   8  40   8  41   8  42   8
M  ISO  8  43   8  44   8  45   8  46  13  47  13  48  13  49  13  50   5
M  ISO  4  51  13  52  13  53  13  54  13
M  END
>  <minimizedAffinity>  (1) 
-5.25043154

>  <minimizedRMSD>  (1) 
1.19438827

$$$$
