
     RDKit          3D

 41 43  0  0  0  0  0  0  0  0999 V2000
   41.7880   35.0750   39.7090 C   0  0  0  0  0  0  0  0  0  0  0  0
   42.0540   35.7580   38.5160 C   0  0  0  0  0  0  0  0  0  0  0  0
   41.2010   35.7210   37.4820 C   0  0  0  0  0  0  0  0  0  0  0  0
   40.0830   34.9870   37.6710 C   0  0  0  0  0  0  0  0  0  0  0  0
   39.8240   34.3310   38.8140 C   0  0  0  0  0  0  0  0  0  0  0  0
   40.6100   34.3220   39.8680 C   0  0  0  0  0  0  0  0  0  0  0  0
   42.5980   35.0400   40.8510 O   0  0  0  0  0  0  0  0  0  0  0  0
   43.6640   34.1750   41.1020 C   0  0  0  0  0  0  0  0  0  0  0  0
   44.6730   34.0860   39.9860 C   0  0  0  0  0  0  0  0  0  0  0  0
   43.9000   32.9130   40.3990 C   0  0  0  0  0  0  0  0  0  0  0  0
   44.1960   34.3850   42.4580 C   0  0  0  0  0  0  0  0  0  0  0  0
   44.8630   33.3400   43.1560 C   0  0  0  0  0  0  0  0  0  0  0  0
   45.3640   33.5140   44.4280 C   0  0  0  0  0  0  0  0  0  0  0  0
   45.1870   34.7410   44.9820 N   0  0  0  0  0  0  0  0  0  0  0  0
   44.5370   35.7550   44.2930 C   0  0  0  0  0  0  0  0  0  0  0  0
   44.0780   35.5250   43.0780 N   0  0  0  0  0  0  0  0  0  0  0  0
   39.8820   33.5570   40.8880 C   0  0  0  0  0  0  0  0  0  0  0  0
   40.5520   32.1650   41.1810 C   0  0  0  0  0  0  0  0  0  0  0  0
   40.0980   34.1570   42.2500 C   0  0  0  0  0  0  0  0  0  0  0  0
   38.5680   33.0100   40.5160 C   0  0  0  0  0  0  0  0  0  0  0  0
   38.1930   31.3230   40.9760 S   0  0  0  0  0  0  0  0  0  0  0  0
   42.9841   36.3382   38.4249 H   0  0  0  0  0  0  0  0  0  0  0  0
   41.3990   36.2541   36.5404 H   0  0  0  0  0  0  0  0  0  0  0  0
   39.3516   34.9237   36.8518 H   0  0  0  0  0  0  0  0  0  0  0  0
   38.8859   33.7596   38.8726 H   0  0  0  0  0  0  0  0  0  0  0  0
   45.7488   34.1450   40.2075 H   0  0  0  0  0  0  0  0  0  0  0  0
   44.8428   34.6188   39.0387 H   0  0  0  0  0  0  0  0  0  0  0  0
   43.1252   32.5087   39.7310 H   0  0  0  0  0  0  0  0  0  0  0  0
   44.1653   31.8950   40.7204 H   0  0  0  0  0  0  0  0  0  0  0  0
   44.9825   32.3629   42.6652 H   0  0  0  0  0  0  0  0  0  0  0  0
   45.8789   32.7036   44.9649 H   0  0  0  0  0  0  0  0  0  0  0  0
   44.4054   36.7437   44.7568 H   0  0  0  0  0  0  0  0  0  0  0  0
   40.6244   32.0145   42.2683 H   0  0  0  0  0  0  0  0  0  0  0  0
   39.9409   31.3638   40.7399 H   0  0  0  0  0  0  0  0  0  0  0  0
   41.5594   32.1429   40.7399 H   0  0  0  0  0  0  0  0  0  0  0  0
   39.8325   33.4196   43.0218 H   0  0  0  0  0  0  0  0  0  0  0  0
   41.1548   34.4409   42.3622 H   0  0  0  0  0  0  0  0  0  0  0  0
   39.4647   35.0494   42.3622 H   0  0  0  0  0  0  0  0  0  0  0  0
   37.8045   33.6518   40.9799 H   0  0  0  0  0  0  0  0  0  0  0  0
   38.5805   32.9959   39.4162 H   0  0  0  0  0  0  0  0  0  0  0  0
   38.1693   31.2165   42.3417 H   0  0  0  0  0  0  0  0  0  0  0  0
  1  6  1  0
  1  7  1  0
  2  1  2  0
  3  4  2  0
  3  2  1  0
  4  5  1  0
  5  6  2  0
  6 17  1  0
  7  8  1  0
  8 11  1  0
  9 10  1  0
  9  8  1  0
 10  8  1  0
 11 16  1  0
 11 12  2  0
 12 13  1  0
 13 14  2  0
 15 14  1  0
 16 15  2  0
 17 18  1  0
 17 19  1  0
 20 17  1  0
 20 21  1  0
  2 22  1  0
  3 23  1  0
  4 24  1  0
  5 25  1  0
  9 26  1  0
  9 27  1  0
 10 28  1  0
 10 29  1  0
 12 30  1  0
 13 31  1  0
 15 32  1  0
 18 33  1  0
 18 34  1  0
 18 35  1  0
 19 36  1  0
 19 37  1  0
 19 38  1  0
 20 39  1  0
 20 40  1  0
 21 41  1  0
M  ISO  8  22  14  23  14  24  14  25  14  26  13  27  13  28  13  29  13
M  ISO  8  30  14  31  14  32  14  33   8  34   8  35   8  36   8  37   8
M  ISO  4  38   8  39   8  40   8  41  11
M  END
>  <minimizedAffinity>  (1) 
-5.03056335

>  <minimizedRMSD>  (1) 
0.443962127

$$$$
