
     RDKit          3D

 23 24  0  0  0  0  0  0  0  0999 V2000
   45.6430   33.1420   41.4150 C   0  0  0  0  0  0  0  0  0  0  0  0
   46.0940   31.9930   40.7170 C   0  0  0  0  0  0  0  0  0  0  0  0
   45.4840   30.7670   41.0290 C   0  0  0  0  0  0  0  0  0  0  0  0
   44.5020   30.7540   41.9760 N   0  0  0  0  0  0  0  0  0  0  0  0
   44.1000   31.8740   42.6190 C   0  0  0  0  0  0  0  0  0  0  0  0
   44.6670   33.0540   42.3400 N   0  0  0  0  0  0  0  0  0  0  0  0
   46.2450   34.4740   41.1370 C   0  0  0  0  0  0  0  0  0  0  0  0
   47.5190   34.4050   40.3620 C   0  0  0  0  0  0  0  0  0  0  0  0
   48.6560   34.6250   41.3420 C   0  0  0  0  0  0  0  0  0  0  0  0
   48.0620   34.6280   42.7270 C   0  0  0  0  0  0  0  0  0  0  0  0
   46.6410   35.0410   42.5020 C   0  0  0  0  0  0  0  0  0  0  0  0
   46.8902   32.0593   39.9610 H   0  0  0  0  0  0  0  0  0  0  0  0
   45.7905   29.8400   40.5223 H   0  0  0  0  0  0  0  0  0  0  0  0
   43.3031   31.8149   43.3750 H   0  0  0  0  0  0  0  0  0  0  0  0
   45.5160   35.0622   40.5603 H   0  0  0  0  0  0  0  0  0  0  0  0
   47.6174   33.4179   39.8867 H   0  0  0  0  0  0  0  0  0  0  0  0
   47.5346   35.1681   39.5699 H   0  0  0  0  0  0  0  0  0  0  0  0
   49.3934   33.8139   41.2508 H   0  0  0  0  0  0  0  0  0  0  0  0
   49.1676   35.5768   41.1364 H   0  0  0  0  0  0  0  0  0  0  0  0
   48.1127   33.6259   43.1778 H   0  0  0  0  0  0  0  0  0  0  0  0
   48.5960   35.2961   43.4187 H   0  0  0  0  0  0  0  0  0  0  0  0
   46.5583   36.1379   42.4983 H   0  0  0  0  0  0  0  0  0  0  0  0
   45.9825   34.6658   43.2993 H   0  0  0  0  0  0  0  0  0  0  0  0
  1  6  2  0
  2  3  2  0
  2  1  1  0
  3  4  1  0
  4  5  2  0
  6  5  1  0
  7  1  1  0
  7 11  1  0
  8  7  1  0
  8  9  1  0
  9 10  1  0
 11 10  1  0
  2 12  1  0
  3 13  1  0
  5 14  1  0
  7 15  1  0
  8 16  1  0
  8 17  1  0
  9 18  1  0
  9 19  1  0
 10 20  1  0
 10 21  1  0
 11 22  1  0
 11 23  1  0
M  ISO  8  12  14  13  14  14  14  15  13  16  13  17  13  18  13  19  13
M  ISO  4  20  13  21  13  22  13  23  13
M  END
>  <minimizedAffinity>  (1) 
-2.75960946

>  <minimizedRMSD>  (1) 
5.18387032

$$$$
