
     RDKit          3D

 35 37  0  0  1  0  0  0  0  0999 V2000
   47.4880   30.6980   46.0520 C   0  0  0  0  0  0  0  0  0  0  0  0
   47.1460   32.0230   46.0720 C   0  0  0  0  0  0  0  0  0  0  0  0
   47.2540   32.8270   44.9590 C   0  0  0  0  0  0  0  0  0  0  0  0
   47.7150   32.3140   43.7730 C   0  0  0  0  0  0  0  0  0  0  0  0
   48.0720   30.9930   43.7010 C   0  0  0  0  0  0  0  0  0  0  0  0
   47.9500   30.2070   44.8480 C   0  0  0  0  0  0  0  0  0  0  0  0
   47.5580   33.4690   40.2930 C   0  0  0  0  0  0  0  0  0  0  0  0
   48.0470   34.8000   40.4020 C   0  0  0  0  0  0  0  0  0  0  0  0
   48.4130   35.2540   41.6660 C   0  0  0  0  0  0  0  0  0  0  0  0
   48.2930   34.4200   42.7470 N   0  0  0  0  0  0  0  0  0  0  0  0
   47.8250   33.1630   42.6060 C   0  0  0  0  0  0  0  0  0  0  0  0
   47.4610   32.6920   41.3880 N   0  0  0  0  0  0  0  0  0  0  0  0
   47.3630   29.7150   47.4780 S   0  0  0  0  0  0  0  0  0  0  0  0
   48.3020   30.2230   48.5370 O   0  0  0  0  0  0  0  0  0  0  0  0
   47.6670   28.2710   47.1360 O   0  0  0  0  0  0  0  0  0  0  0  0
   45.8370   30.2520   49.4870 N   0  0  0  0  0  0  0  0  0  0  0  0
   45.5260   31.6630   49.3720 C   0  0  0  0  0  0  0  0  0  0  0  0
   44.5430   31.7990   48.2590 C   0  0  0  0  0  0  0  0  0  0  0  0
   44.8650   30.6560   47.3430 C   0  0  0  0  0  0  0  0  0  0  0  0
   45.7160   29.7190   48.1300 C   0  0  1  0  0  0  0  0  0  0  0  0
   46.7720   32.4609   47.0092 H   0  0  0  0  0  0  0  0  0  0  0  0
   46.9687   33.8875   45.0214 H   0  0  0  0  0  0  0  0  0  0  0  0
   48.4462   30.5618   42.7607 H   0  0  0  0  0  0  0  0  0  0  0  0
   48.2356   29.1463   44.7894 H   0  0  0  0  0  0  0  0  0  0  0  0
   47.2582   33.0734   39.3113 H   0  0  0  0  0  0  0  0  0  0  0  0
   48.1331   35.4486   39.5177 H   0  0  0  0  0  0  0  0  0  0  0  0
   48.7965   36.2767   41.7966 H   0  0  0  0  0  0  0  0  0  0  0  0
   46.7950   30.1214   49.8420 H   0  0  0  0  0  0  0  0  0  0  0  0
   45.0879   32.0318   50.3112 H   0  0  0  0  0  0  0  0  0  0  0  0
   46.4332   32.2517   49.1710 H   0  0  0  0  0  0  0  0  0  0  0  0
   43.5128   31.7186   48.6362 H   0  0  0  0  0  0  0  0  0  0  0  0
   44.6089   32.7746   47.7551 H   0  0  0  0  0  0  0  0  0  0  0  0
   45.4121   31.0176   46.4599 H   0  0  0  0  0  0  0  0  0  0  0  0
   43.9509   30.1610   46.9832 H   0  0  0  0  0  0  0  0  0  0  0  0
   45.2684   28.7147   48.0981 H   0  0  0  0  0  0  0  0  0  0  0  0
  1  2  2  0
  1 13  1  0
  3  2  1  0
  4  3  2  0
  5  4  1  0
  5  6  2  0
  6  1  1  0
  7  8  2  0
  7 12  1  0
  8  9  1  0
  9 10  2  0
 11 10  1  0
 11  4  1  0
 12 11  2  0
 13 14  2  0
 15 13  2  0
 17 16  1  0
 18 17  1  0
 19 20  1  0
 19 18  1  0
 20 13  1  0
 20 16  1  0
  2 21  1  0
  3 22  1  0
  5 23  1  0
  6 24  1  0
  7 25  1  0
  8 26  1  0
  9 27  1  0
 16 28  1  0
 17 29  1  0
 17 30  1  0
 18 31  1  0
 18 32  1  0
 19 33  1  0
 19 34  1  0
 20 35  1  1
M  ISO  8  21  14  22  14  23  14  24  14  25  14  26  14  27  14  28   5
M  ISO  7  29  13  30  13  31  13  32  13  33  13  34  13  35  13
M  END
>  <minimizedAffinity>  (1) 
-4.48320913

>  <minimizedRMSD>  (1) 
2.5998776

$$$$
