
     RDKit          3D

 30 32  0  0  0  0  0  0  0  0999 V2000
   46.7470   31.4400   46.2640 C   0  0  0  0  0  0  0  0  0  0  0  0
   46.5800   32.7710   46.5480 C   0  0  0  0  0  0  0  0  0  0  0  0
   46.0270   33.6480   45.6400 C   0  0  0  0  0  0  0  0  0  0  0  0
   45.6190   33.1870   44.3900 C   0  0  0  0  0  0  0  0  0  0  0  0
   45.7650   31.8660   44.0610 C   0  0  0  0  0  0  0  0  0  0  0  0
   46.3310   31.0150   45.0120 C   0  0  0  0  0  0  0  0  0  0  0  0
   43.7260   34.5580   41.5640 C   0  0  0  0  0  0  0  0  0  0  0  0
   43.9490   35.9390   41.6900 C   0  0  0  0  0  0  0  0  0  0  0  0
   44.7550   36.3790   42.7520 C   0  0  0  0  0  0  0  0  0  0  0  0
   45.2900   35.4590   43.6200 N   0  0  0  0  0  0  0  0  0  0  0  0
   45.0390   34.1260   43.4500 C   0  0  0  0  0  0  0  0  0  0  0  0
   44.2640   33.6800   42.4310 N   0  0  0  0  0  0  0  0  0  0  0  0
   47.4730   30.3730   47.4410 S   0  0  0  0  0  0  0  0  0  0  0  0
   47.5900   31.0890   48.7610 O   0  0  0  0  0  0  0  0  0  0  0  0
   48.8480   29.9570   46.9450 O   0  0  0  0  0  0  0  0  0  0  0  0
   46.5310   28.9470   47.6500 C   0  0  0  0  0  0  0  0  0  0  0  0
   45.2450   28.7840   47.9940 C   0  0  0  0  0  0  0  0  0  0  0  0
   44.6480   27.5800   48.1190 C   0  0  0  0  0  0  0  0  0  0  0  0
   45.5270   26.4790   47.8450 C   0  0  0  0  0  0  0  0  0  0  0  0
   47.1700   27.3150   47.4250 S   0  0  0  0  0  0  0  0  0  0  0  0
   46.8971   33.1504   47.5306 H   0  0  0  0  0  0  0  0  0  0  0  0
   45.9080   34.7098   45.9016 H   0  0  0  0  0  0  0  0  0  0  0  0
   45.4465   31.4873   43.0786 H   0  0  0  0  0  0  0  0  0  0  0  0
   46.4531   29.9526   44.7545 H   0  0  0  0  0  0  0  0  0  0  0  0
   43.0990   34.1864   40.7401 H   0  0  0  0  0  0  0  0  0  0  0  0
   43.5064   36.6527   40.9796 H   0  0  0  0  0  0  0  0  0  0  0  0
   44.9563   37.4519   42.8877 H   0  0  0  0  0  0  0  0  0  0  0  0
   44.6418   29.6838   48.1854 H   0  0  0  0  0  0  0  0  0  0  0  0
   43.5926   27.4550   48.4027 H   0  0  0  0  0  0  0  0  0  0  0  0
   45.2988   25.4033   47.8728 H   0  0  0  0  0  0  0  0  0  0  0  0
  1  2  2  0
  1 13  1  0
  3  2  1  0
  4  3  2  0
  5  4  1  0
  5  6  2  0
  6  1  1  0
  7  8  2  0
  7 12  1  0
  8  9  1  0
  9 10  2  0
 11 10  1  0
 11  4  1  0
 12 11  2  0
 13 16  1  0
 13 14  2  0
 15 13  2  0
 16 17  2  0
 17 18  1  0
 19 18  2  0
 20 16  1  0
 20 19  1  0
  2 21  1  0
  3 22  1  0
  5 23  1  0
  6 24  1  0
  7 25  1  0
  8 26  1  0
  9 27  1  0
 17 28  1  0
 18 29  1  0
 19 30  1  0
M  ISO  8  21  14  22  14  23  14  24  14  25  14  26  14  27  14  28  14
M  ISO  2  29  14  30  14
M  END
>  <minimizedAffinity>  (1) 
-4.22875786

>  <minimizedRMSD>  (1) 
4.23544216

$$$$
