
     RDKit          3D

 42 45  0  0  1  0  0  0  0  0999 V2000
   46.2830   31.6390   46.3820 C   0  0  0  0  0  0  0  0  0  0  0  0
   45.8950   32.9350   46.1420 C   0  0  0  0  0  0  0  0  0  0  0  0
   46.3250   33.6420   45.0380 C   0  0  0  0  0  0  0  0  0  0  0  0
   47.1660   33.0510   44.1420 C   0  0  0  0  0  0  0  0  0  0  0  0
   47.5790   31.7600   44.3420 C   0  0  0  0  0  0  0  0  0  0  0  0
   47.1300   31.0610   45.4680 C   0  0  0  0  0  0  0  0  0  0  0  0
   47.3670   34.4730   40.7600 C   0  0  0  0  0  0  0  0  0  0  0  0
   48.5760   35.1880   40.8050 C   0  0  0  0  0  0  0  0  0  0  0  0
   49.3030   35.1670   42.0010 C   0  0  0  0  0  0  0  0  0  0  0  0
   48.8060   34.4590   43.0610 N   0  0  0  0  0  0  0  0  0  0  0  0
   47.6300   33.7830   42.9700 C   0  0  0  0  0  0  0  0  0  0  0  0
   46.9380   33.7990   41.8400 N   0  0  0  0  0  0  0  0  0  0  0  0
   45.7060   30.8020   47.7910 S   0  0  0  0  0  0  0  0  0  0  0  0
   44.6430   31.6190   48.4770 O   0  0  0  0  0  0  0  0  0  0  0  0
   46.8670   30.5660   48.7330 O   0  0  0  0  0  0  0  0  0  0  0  0
   44.9810   29.2790   47.3390 C   0  0  0  0  0  0  0  0  0  0  0  0
   44.3320   28.9400   46.1690 C   0  0  0  0  0  0  0  0  0  0  0  0
   43.9170   27.6120   46.2480 C   0  0  0  0  0  0  0  0  0  0  0  0
   44.3360   27.2240   47.4540 N   0  0  0  0  0  0  0  0  0  0  0  0
   44.9590   28.1790   48.1070 N   0  0  0  0  0  0  0  0  0  0  0  0
   44.1630   24.8500   47.0230 N   0  0  0  0  0  0  0  0  0  0  0  0
   45.1720   23.8950   47.3600 C   0  0  0  0  0  0  0  0  0  0  0  0
   45.6450   24.1830   48.7480 C   0  0  0  0  0  0  0  0  0  0  0  0
   45.1160   25.5700   49.0880 C   0  0  0  0  0  0  0  0  0  0  0  0
   44.1330   25.8870   48.0040 C   0  0  1  0  0  0  0  0  0  0  0  0
   45.2173   33.4265   46.8556 H   0  0  0  0  0  0  0  0  0  0  0  0
   45.9908   34.6782   44.8812 H   0  0  0  0  0  0  0  0  0  0  0  0
   48.2577   31.2771   43.6236 H   0  0  0  0  0  0  0  0  0  0  0  0
   47.4631   30.0244   45.6249 H   0  0  0  0  0  0  0  0  0  0  0  0
   46.7694   34.4652   39.8365 H   0  0  0  0  0  0  0  0  0  0  0  0
   48.9391   35.7458   39.9292 H   0  0  0  0  0  0  0  0  0  0  0  0
   50.2560   35.7096   42.0870 H   0  0  0  0  0  0  0  0  0  0  0  0
   44.1686   29.6102   45.3121 H   0  0  0  0  0  0  0  0  0  0  0  0
   43.3730   27.0232   45.4948 H   0  0  0  0  0  0  0  0  0  0  0  0
   44.3722   25.2577   46.1005 H   0  0  0  0  0  0  0  0  0  0  0  0
   44.7532   22.8789   47.3130 H   0  0  0  0  0  0  0  0  0  0  0  0
   46.0108   23.9635   46.6516 H   0  0  0  0  0  0  0  0  0  0  0  0
   45.2451   23.4377   49.4512 H   0  0  0  0  0  0  0  0  0  0  0  0
   46.7419   24.1398   48.8187 H   0  0  0  0  0  0  0  0  0  0  0  0
   44.6202   25.5646   50.0699 H   0  0  0  0  0  0  0  0  0  0  0  0
   45.9218   26.3165   49.1459 H   0  0  0  0  0  0  0  0  0  0  0  0
   43.1178   25.9146   48.4265 H   0  0  0  0  0  0  0  0  0  0  0  0
  1 13  1  0
  2  1  2  0
  3  2  1  0
  4  5  1  0
  4  3  2  0
  5  6  2  0
  6  1  1  0
  7  8  2  0
  7 12  1  0
  8  9  1  0
  9 10  2  0
 11 10  1  0
 11  4  1  0
 12 11  2  0
 13 14  2  0
 13 15  2  0
 16 13  1  0
 16 20  2  0
 17 18  2  0
 17 16  1  0
 18 19  1  0
 19 20  1  0
 21 22  1  0
 21 25  1  0
 22 23  1  0
 23 24  1  0
 25 19  1  0
 25 24  1  0
  2 26  1  0
  3 27  1  0
  5 28  1  0
  6 29  1  0
  7 30  1  0
  8 31  1  0
  9 32  1  0
 17 33  1  0
 18 34  1  0
 21 35  1  0
 22 36  1  0
 22 37  1  0
 23 38  1  0
 23 39  1  0
 24 40  1  0
 24 41  1  0
 25 42  1  1
M  ISO  8  26  14  27  14  28  14  29  14  30  14  31  14  32  14  33  14
M  ISO  8  34  14  35   5  36  13  37  13  38  13  39  13  40  13  41  13
M  ISO  1  42  13
M  END
>  <minimizedAffinity>  (1) 
-5.75452948

>  <minimizedRMSD>  (1) 
1.80768526

$$$$
