
     RDKit          3D

 43 46  0  0  0  0  0  0  0  0999 V2000
   46.2560   31.9340   46.3020 C   0  0  0  0  0  0  0  0  0  0  0  0
   45.8360   33.2000   45.9680 C   0  0  0  0  0  0  0  0  0  0  0  0
   46.2560   33.8490   44.8220 C   0  0  0  0  0  0  0  0  0  0  0  0
   47.1210   33.2300   43.9740 C   0  0  0  0  0  0  0  0  0  0  0  0
   47.5700   31.9600   44.2660 C   0  0  0  0  0  0  0  0  0  0  0  0
   47.1240   31.3310   45.4360 C   0  0  0  0  0  0  0  0  0  0  0  0
   47.3690   34.3620   40.4960 C   0  0  0  0  0  0  0  0  0  0  0  0
   48.5100   35.1970   40.5310 C   0  0  0  0  0  0  0  0  0  0  0  0
   49.1630   35.3480   41.7530 C   0  0  0  0  0  0  0  0  0  0  0  0
   48.6900   34.6950   42.8630 N   0  0  0  0  0  0  0  0  0  0  0  0
   47.5740   33.8940   42.7660 C   0  0  0  0  0  0  0  0  0  0  0  0
   46.9470   33.7450   41.6080 N   0  0  0  0  0  0  0  0  0  0  0  0
   45.6840   31.1790   47.7620 S   0  0  0  0  0  0  0  0  0  0  0  0
   44.5140   31.9690   48.3130 O   0  0  0  0  0  0  0  0  0  0  0  0
   46.8140   31.1230   48.7580 O   0  0  0  0  0  0  0  0  0  0  0  0
   45.0930   29.5710   47.4110 C   0  0  0  0  0  0  0  0  0  0  0  0
   44.4130   29.1080   46.3010 C   0  0  0  0  0  0  0  0  0  0  0  0
   44.1470   27.7530   46.4660 C   0  0  0  0  0  0  0  0  0  0  0  0
   44.6820   27.4770   47.6650 N   0  0  0  0  0  0  0  0  0  0  0  0
   45.2390   28.5230   48.2360 N   0  0  0  0  0  0  0  0  0  0  0  0
   44.6870   26.1870   48.3340 C   0  0  0  0  0  0  0  0  0  0  0  0
   46.0770   25.6220   48.5010 C   0  0  0  0  0  0  0  0  0  0  0  0
   45.7900   24.5270   49.5390 C   0  0  0  0  0  0  0  0  0  0  0  0
   44.7030   25.1150   50.4350 C   0  0  0  0  0  0  0  0  0  0  0  0
   44.2960   26.4220   49.7800 C   0  0  0  0  0  0  0  0  0  0  0  0
   45.1366   33.7179   46.6408 H   0  0  0  0  0  0  0  0  0  0  0  0
   45.8921   34.8623   44.5966 H   0  0  0  0  0  0  0  0  0  0  0  0
   48.2693   31.4469   43.5894 H   0  0  0  0  0  0  0  0  0  0  0  0
   47.4849   30.3174   45.6651 H   0  0  0  0  0  0  0  0  0  0  0  0
   46.8251   34.2183   39.5507 H   0  0  0  0  0  0  0  0  0  0  0  0
   48.8692   35.7090   39.6261 H   0  0  0  0  0  0  0  0  0  0  0  0
   50.0543   35.9884   41.8272 H   0  0  0  0  0  0  0  0  0  0  0  0
   44.1281   29.7133   45.4279 H   0  0  0  0  0  0  0  0  0  0  0  0
   43.6239   27.0716   45.7789 H   0  0  0  0  0  0  0  0  0  0  0  0
   44.0373   25.5284   47.7390 H   0  0  0  0  0  0  0  0  0  0  0  0
   46.4642   25.2030   47.5605 H   0  0  0  0  0  0  0  0  0  0  0  0
   46.8445   26.3530   48.7953 H   0  0  0  0  0  0  0  0  0  0  0  0
   45.4327   23.6104   49.0468 H   0  0  0  0  0  0  0  0  0  0  0  0
   46.6896   24.2466   50.1066 H   0  0  0  0  0  0  0  0  0  0  0  0
   43.8432   24.4314   50.4945 H   0  0  0  0  0  0  0  0  0  0  0  0
   45.0629   25.2699   51.4629 H   0  0  0  0  0  0  0  0  0  0  0  0
   44.8462   27.2723   50.2094 H   0  0  0  0  0  0  0  0  0  0  0  0
   43.2339   26.6738   49.9163 H   0  0  0  0  0  0  0  0  0  0  0  0
  1 13  1  0
  2  1  2  0
  3  2  1  0
  4  5  1  0
  4  3  2  0
  5  6  2  0
  6  1  1  0
  7  8  2  0
  7 12  1  0
  8  9  1  0
  9 10  2  0
 11 10  1  0
 11  4  1  0
 12 11  2  0
 13 14  2  0
 13 15  2  0
 16 13  1  0
 16 20  2  0
 17 18  2  0
 17 16  1  0
 18 19  1  0
 19 20  1  0
 19 21  1  0
 21 22  1  0
 21 25  1  0
 22 23  1  0
 23 24  1  0
 25 24  1  0
  2 26  1  0
  3 27  1  0
  5 28  1  0
  6 29  1  0
  7 30  1  0
  8 31  1  0
  9 32  1  0
 17 33  1  0
 18 34  1  0
 21 35  1  0
 22 36  1  0
 22 37  1  0
 23 38  1  0
 23 39  1  0
 24 40  1  0
 24 41  1  0
 25 42  1  0
 25 43  1  0
M  ISO  8  26  14  27  14  28  14  29  14  30  14  31  14  32  14  33  14
M  ISO  8  34  14  35  13  36  13  37  13  38  13  39  13  40  13  41  13
M  ISO  2  42  13  43  13
M  END
>  <minimizedAffinity>  (1) 
-5.70661211

>  <minimizedRMSD>  (1) 
1.57483327

$$$$
