
     RDKit          3D

 37 40  0  0  0  0  0  0  0  0999 V2000
   46.2960   31.6730   46.2980 C   0  0  0  0  0  0  0  0  0  0  0  0
   45.9530   32.9780   46.0900 C   0  0  0  0  0  0  0  0  0  0  0  0
   46.4000   33.6800   44.9830 C   0  0  0  0  0  0  0  0  0  0  0  0
   47.2020   33.0860   44.0570 C   0  0  0  0  0  0  0  0  0  0  0  0
   47.5660   31.7870   44.2270 C   0  0  0  0  0  0  0  0  0  0  0  0
   47.1060   31.0870   45.3550 C   0  0  0  0  0  0  0  0  0  0  0  0
   47.4190   34.5030   40.6810 C   0  0  0  0  0  0  0  0  0  0  0  0
   48.5990   35.2650   40.7420 C   0  0  0  0  0  0  0  0  0  0  0  0
   49.2950   35.2720   41.9540 C   0  0  0  0  0  0  0  0  0  0  0  0
   48.8180   34.5530   43.0190 N   0  0  0  0  0  0  0  0  0  0  0  0
   47.6640   33.8300   42.9020 C   0  0  0  0  0  0  0  0  0  0  0  0
   46.9920   33.8150   41.7530 N   0  0  0  0  0  0  0  0  0  0  0  0
   45.7060   30.8380   47.7080 S   0  0  0  0  0  0  0  0  0  0  0  0
   44.5630   31.5870   48.3130 O   0  0  0  0  0  0  0  0  0  0  0  0
   46.8510   30.7140   48.7060 O   0  0  0  0  0  0  0  0  0  0  0  0
   45.1360   29.2530   47.2700 C   0  0  0  0  0  0  0  0  0  0  0  0
   44.1330   28.8980   46.3720 C   0  0  0  0  0  0  0  0  0  0  0  0
   44.0210   27.5100   46.3420 C   0  0  0  0  0  0  0  0  0  0  0  0
   44.9550   27.1060   47.2190 N   0  0  0  0  0  0  0  0  0  0  0  0
   45.6160   28.0970   47.7710 N   0  0  0  0  0  0  0  0  0  0  0  0
   45.1810   25.7270   47.4960 C   0  0  0  0  0  0  0  0  0  0  0  0
   44.9560   24.6030   46.8290 C   0  0  0  0  0  0  0  0  0  0  0  0
   45.2740   23.3730   47.3330 C   0  0  0  0  0  0  0  0  0  0  0  0
   45.8780   23.4270   48.6580 C   0  0  0  0  0  0  0  0  0  0  0  0
   45.9090   25.2580   49.0120 S   0  0  0  0  0  0  0  0  0  0  0  0
   45.3051   33.4848   46.8203 H   0  0  0  0  0  0  0  0  0  0  0  0
   46.1033   34.7309   44.8502 H   0  0  0  0  0  0  0  0  0  0  0  0
   48.2134   31.2897   43.4897 H   0  0  0  0  0  0  0  0  0  0  0  0
   47.4037   30.0364   45.4876 H   0  0  0  0  0  0  0  0  0  0  0  0
   46.8398   34.4698   39.7464 H   0  0  0  0  0  0  0  0  0  0  0  0
   48.9597   35.8325   39.8714 H   0  0  0  0  0  0  0  0  0  0  0  0
   50.2236   35.8533   42.0530 H   0  0  0  0  0  0  0  0  0  0  0  0
   43.5267   29.6005   45.7814 H   0  0  0  0  0  0  0  0  0  0  0  0
   43.3336   26.8934   45.7443 H   0  0  0  0  0  0  0  0  0  0  0  0
   44.4957   24.6630   45.8317 H   0  0  0  0  0  0  0  0  0  0  0  0
   45.0917   22.4334   46.7909 H   0  0  0  0  0  0  0  0  0  0  0  0
   46.2275   22.5973   49.2900 H   0  0  0  0  0  0  0  0  0  0  0  0
  1 13  1  0
  2  1  2  0
  3  2  1  0
  4  5  1  0
  4  3  2  0
  5  6  2  0
  6  1  1  0
  7  8  2  0
  7 12  1  0
  8  9  1  0
  9 10  2  0
 11 10  1  0
 11  4  1  0
 12 11  2  0
 13 14  2  0
 13 15  2  0
 16 13  1  0
 16 20  2  0
 17 16  1  0
 18 17  2  0
 18 19  1  0
 19 21  1  0
 19 20  1  0
 21 25  1  0
 22 23  1  0
 22 21  2  0
 23 24  2  0
 24 25  1  0
  2 26  1  0
  3 27  1  0
  5 28  1  0
  6 29  1  0
  7 30  1  0
  8 31  1  0
  9 32  1  0
 17 33  1  0
 18 34  1  0
 22 35  1  0
 23 36  1  0
 24 37  1  0
M  ISO  8  26  14  27  14  28  14  29  14  30  14  31  14  32  14  33  14
M  ISO  4  34  14  35  14  36  14  37  14
M  END
>  <minimizedAffinity>  (1) 
-5.52493763

>  <minimizedRMSD>  (1) 
2.21485424

$$$$
