
     RDKit          3D

 40 43  0  0  0  0  0  0  0  0999 V2000
   41.9740   33.3050   41.2670 C   0  0  0  0  0  0  0  0  0  0  0  0
   42.3800   34.5500   40.8340 C   0  0  0  0  0  0  0  0  0  0  0  0
   43.7200   34.8840   40.7480 C   0  0  0  0  0  0  0  0  0  0  0  0
   44.6810   33.9830   41.0920 C   0  0  0  0  0  0  0  0  0  0  0  0
   44.3100   32.7290   41.5270 C   0  0  0  0  0  0  0  0  0  0  0  0
   42.9510   32.4100   41.6080 C   0  0  0  0  0  0  0  0  0  0  0  0
   48.1130   34.3430   39.8490 C   0  0  0  0  0  0  0  0  0  0  0  0
   48.7520   35.0170   40.9210 C   0  0  0  0  0  0  0  0  0  0  0  0
   47.9820   35.3270   42.0400 C   0  0  0  0  0  0  0  0  0  0  0  0
   46.6580   34.9740   42.0610 N   0  0  0  0  0  0  0  0  0  0  0  0
   46.0910   34.3270   41.0040 C   0  0  0  0  0  0  0  0  0  0  0  0
   46.8040   34.0220   39.9280 N   0  0  0  0  0  0  0  0  0  0  0  0
   40.2690   32.9430   41.3540 S   0  0  0  0  0  0  0  0  0  0  0  0
   39.5180   34.1420   41.8920 O   0  0  0  0  0  0  0  0  0  0  0  0
   40.0770   31.7360   42.2420 O   0  0  0  0  0  0  0  0  0  0  0  0
   39.6470   32.6140   39.7560 C   0  0  0  0  0  0  0  0  0  0  0  0
   38.7620   33.3470   38.9900 C   0  0  0  0  0  0  0  0  0  0  0  0
   38.5560   32.7000   37.7850 C   0  0  0  0  0  0  0  0  0  0  0  0
   39.3290   31.6050   37.8800 N   0  0  0  0  0  0  0  0  0  0  0  0
   39.9700   31.5420   39.0240 N   0  0  0  0  0  0  0  0  0  0  0  0
   39.4210   30.6300   36.8300 C   0  0  0  0  0  0  0  0  0  0  0  0
   40.6150   29.9180   36.6720 C   0  0  0  0  0  0  0  0  0  0  0  0
   40.7740   28.9540   35.6710 C   0  0  0  0  0  0  0  0  0  0  0  0
   39.6790   28.7560   34.8550 C   0  0  0  0  0  0  0  0  0  0  0  0
   38.4860   29.4260   34.9660 C   0  0  0  0  0  0  0  0  0  0  0  0
   38.3590   30.3840   35.9780 C   0  0  0  0  0  0  0  0  0  0  0  0
   41.6213   35.2943   40.5506 H   0  0  0  0  0  0  0  0  0  0  0  0
   44.0112   35.8856   40.3989 H   0  0  0  0  0  0  0  0  0  0  0  0
   45.0735   31.9883   41.8070 H   0  0  0  0  0  0  0  0  0  0  0  0
   42.6584   31.4086   41.9566 H   0  0  0  0  0  0  0  0  0  0  0  0
   48.6871   34.0804   38.9482 H   0  0  0  0  0  0  0  0  0  0  0  0
   49.8176   35.2854   40.8707 H   0  0  0  0  0  0  0  0  0  0  0  0
   48.4319   35.8494   42.8972 H   0  0  0  0  0  0  0  0  0  0  0  0
   38.2944   34.2961   39.2909 H   0  0  0  0  0  0  0  0  0  0  0  0
   37.9124   33.0085   36.9480 H   0  0  0  0  0  0  0  0  0  0  0  0
   41.4530   30.1222   37.3547 H   0  0  0  0  0  0  0  0  0  0  0  0
   41.7102   28.3909   35.5428 H   0  0  0  0  0  0  0  0  0  0  0  0
   39.7688   28.0053   34.0560 H   0  0  0  0  0  0  0  0  0  0  0  0
   37.6533   29.2157   34.2787 H   0  0  0  0  0  0  0  0  0  0  0  0
   37.4173   30.9401   36.0959 H   0  0  0  0  0  0  0  0  0  0  0  0
  1 13  1  0
  1  6  1  0
  2  1  2  0
  3  2  1  0
  3  4  2  0
  4  5  1  0
  5  6  2  0
  7 12  2  0
  7  8  1  0
  8  9  2  0
  9 10  1  0
 11  4  1  0
 11 10  2  0
 12 11  1  0
 13 14  2  0
 13 15  2  0
 16 13  1  0
 17 16  1  0
 18 19  1  0
 18 17  2  0
 19 20  1  0
 20 16  2  0
 21 19  1  0
 22 21  2  0
 23 22  1  0
 24 25  1  0
 24 23  2  0
 25 26  2  0
 26 21  1  0
  2 27  1  0
  3 28  1  0
  5 29  1  0
  6 30  1  0
  7 31  1  0
  8 32  1  0
  9 33  1  0
 17 34  1  0
 18 35  1  0
 22 36  1  0
 23 37  1  0
 24 38  1  0
 25 39  1  0
 26 40  1  0
M  ISO  8  27  14  28  14  29  14  30  14  31  14  32  14  33  14  34  14
M  ISO  6  35  14  36  14  37  14  38  14  39  14  40  14
M  END
>  <minimizedAffinity>  (1) 
-5.49946499

>  <minimizedRMSD>  (1) 
9.88991451

$$$$
