
     RDKit          3D

 37 40  0  0  0  0  0  0  0  0999 V2000
   46.3280   32.1030   46.2140 C   0  0  0  0  0  0  0  0  0  0  0  0
   45.9110   33.3680   45.8690 C   0  0  0  0  0  0  0  0  0  0  0  0
   46.3300   33.9820   44.7080 C   0  0  0  0  0  0  0  0  0  0  0  0
   47.1890   33.3360   43.8490 C   0  0  0  0  0  0  0  0  0  0  0  0
   47.6200   32.0800   44.1660 C   0  0  0  0  0  0  0  0  0  0  0  0
   47.1820   31.4800   45.3480 C   0  0  0  0  0  0  0  0  0  0  0  0
   47.4790   34.3070   40.3240 C   0  0  0  0  0  0  0  0  0  0  0  0
   48.5160   35.2550   40.3600 C   0  0  0  0  0  0  0  0  0  0  0  0
   49.0950   35.5430   41.5930 C   0  0  0  0  0  0  0  0  0  0  0  0
   48.6400   34.8990   42.7150 N   0  0  0  0  0  0  0  0  0  0  0  0
   47.6250   33.9810   42.6360 C   0  0  0  0  0  0  0  0  0  0  0  0
   47.0690   33.7020   41.4620 N   0  0  0  0  0  0  0  0  0  0  0  0
   45.7620   31.3860   47.6930 S   0  0  0  0  0  0  0  0  0  0  0  0
   44.6090   32.1900   48.2470 O   0  0  0  0  0  0  0  0  0  0  0  0
   46.9130   31.3410   48.6790 O   0  0  0  0  0  0  0  0  0  0  0  0
   45.1810   29.7740   47.3950 C   0  0  0  0  0  0  0  0  0  0  0  0
   44.4550   29.2850   46.3150 C   0  0  0  0  0  0  0  0  0  0  0  0
   44.2140   27.9330   46.5080 C   0  0  0  0  0  0  0  0  0  0  0  0
   44.7970   27.6720   47.6830 N   0  0  0  0  0  0  0  0  0  0  0  0
   45.3640   28.7310   48.2130 N   0  0  0  0  0  0  0  0  0  0  0  0
   44.8470   26.3930   48.3680 C   0  0  0  0  0  0  0  0  0  0  0  0
   43.6670   25.5070   48.4240 C   0  0  0  0  0  0  0  0  0  0  0  0
   44.0130   26.2570   49.6610 C   0  0  0  0  0  0  0  0  0  0  0  0
   45.2234   33.9050   46.5390 H   0  0  0  0  0  0  0  0  0  0  0  0
   45.9753   34.9949   44.4668 H   0  0  0  0  0  0  0  0  0  0  0  0
   48.3076   31.5445   43.4948 H   0  0  0  0  0  0  0  0  0  0  0  0
   47.5376   30.4679   45.5913 H   0  0  0  0  0  0  0  0  0  0  0  0
   46.9990   34.0561   39.3666 H   0  0  0  0  0  0  0  0  0  0  0  0
   48.8597   35.7542   39.4420 H   0  0  0  0  0  0  0  0  0  0  0  0
   49.9089   36.2794   41.6664 H   0  0  0  0  0  0  0  0  0  0  0  0
   44.1250   29.8752   45.4474 H   0  0  0  0  0  0  0  0  0  0  0  0
   43.6712   27.2388   45.8497 H   0  0  0  0  0  0  0  0  0  0  0  0
   45.8930   26.2460   48.0610 H   0  0  0  0  0  0  0  0  0  0  0  0
   42.7600   25.7761   47.8628 H   0  0  0  0  0  0  0  0  0  0  0  0
   43.5035   24.4425   48.2002 H   0  0  0  0  0  0  0  0  0  0  0  0
   44.4244   25.7284   50.5335 H   0  0  0  0  0  0  0  0  0  0  0  0
   43.4876   26.9485   50.3361 H   0  0  0  0  0  0  0  0  0  0  0  0
  1 13  1  0
  2  1  2  0
  3  2  1  0
  4  5  1  0
  4  3  2  0
  5  6  2  0
  6  1  1  0
  7  8  2  0
  7 12  1  0
  8  9  1  0
  9 10  2  0
 11 10  1  0
 11  4  1  0
 12 11  2  0
 13 14  2  0
 13 15  2  0
 16 13  1  0
 16 20  2  0
 17 18  2  0
 17 16  1  0
 18 19  1  0
 19 20  1  0
 19 21  1  0
 21 22  1  0
 21 23  1  0
 22 23  1  0
  2 24  1  0
  3 25  1  0
  5 26  1  0
  6 27  1  0
  7 28  1  0
  8 29  1  0
  9 30  1  0
 17 31  1  0
 18 32  1  0
 21 33  1  0
 22 34  1  0
 22 35  1  0
 23 36  1  0
 23 37  1  0
M  ISO  8  24  14  25  14  26  14  27  14  28  14  29  14  30  14  31  14
M  ISO  6  32  14  33  13  34  13  35  13  36  13  37  13
M  END
>  <minimizedAffinity>  (1) 
-5.41522741

>  <minimizedRMSD>  (1) 
1.23421943

$$$$
