
     RDKit          3D

 21 22  0  0  0  0  0  0  0  0999 V2000
   47.0210   32.6480   45.3460 O   0  0  0  0  0  0  0  0  0  0  0  0
   46.6350   32.0050   46.4800 C   0  0  0  0  0  0  0  0  0  0  0  0
   47.2250   32.3670   47.7000 C   0  0  0  0  0  0  0  0  0  0  0  0
   46.8130   31.6930   48.8530 C   0  0  0  0  0  0  0  0  0  0  0  0
   45.8730   30.7320   48.7470 N   0  0  0  0  0  0  0  0  0  0  0  0
   45.3180   30.4030   47.5530 C   0  0  0  0  0  0  0  0  0  0  0  0
   45.6960   31.0340   46.4270 N   0  0  0  0  0  0  0  0  0  0  0  0
   46.3070   33.7160   44.8300 C   0  0  0  0  0  0  0  0  0  0  0  0
   45.3340   34.3120   45.6320 C   0  0  0  0  0  0  0  0  0  0  0  0
   44.5820   35.3770   45.1900 C   0  0  0  0  0  0  0  0  0  0  0  0
   44.8230   35.8530   43.9020 C   0  0  0  0  0  0  0  0  0  0  0  0
   45.7830   35.2660   43.1090 C   0  0  0  0  0  0  0  0  0  0  0  0
   46.5330   34.2000   43.5550 C   0  0  0  0  0  0  0  0  0  0  0  0
   47.9887   33.1573   47.7478 H   0  0  0  0  0  0  0  0  0  0  0  0
   47.2488   31.9426   49.8317 H   0  0  0  0  0  0  0  0  0  0  0  0
   44.5530   29.6140   47.5058 H   0  0  0  0  0  0  0  0  0  0  0  0
   45.1628   33.9203   46.6455 H   0  0  0  0  0  0  0  0  0  0  0  0
   43.8163   35.8372   45.8318 H   0  0  0  0  0  0  0  0  0  0  0  0
   44.2419   36.7037   43.5166 H   0  0  0  0  0  0  0  0  0  0  0  0
   45.9553   35.6573   42.0955 H   0  0  0  0  0  0  0  0  0  0  0  0
   47.2970   33.7428   42.9090 H   0  0  0  0  0  0  0  0  0  0  0  0
  1  2  1  0
  2  3  2  0
  3  4  1  0
  5  4  2  0
  6  5  1  0
  7  2  1  0
  7  6  2  0
  8  1  1  0
  8  9  2  0
 10  9  1  0
 11 10  2  0
 12 13  2  0
 12 11  1  0
 13  8  1  0
  3 14  1  0
  4 15  1  0
  6 16  1  0
  9 17  1  0
 10 18  1  0
 11 19  1  0
 12 20  1  0
 13 21  1  0
M  ISO  8  14  14  15  14  16  14  17  14  18  14  19  14  20  14  21  14
M  END
>  <minimizedAffinity>  (1) 
-4.36858177

>  <minimizedRMSD>  (1) 
5.0738616

$$$$
