
     RDKit          3D

 14 14  0  0  0  0  0  0  0  0999 V2000
   45.3260   34.3670   45.1440 C   0  0  0  0  0  0  0  0  0  0  0  0
   46.2080   33.9970   44.1110 C   0  0  0  0  0  0  0  0  0  0  0  0
   47.1220   32.9680   44.3980 C   0  0  0  0  0  0  0  0  0  0  0  0
   47.1100   32.3960   45.6230 N   0  0  0  0  0  0  0  0  0  0  0  0
   46.2530   32.7790   46.5770 C   0  0  0  0  0  0  0  0  0  0  0  0
   45.3600   33.7610   46.3480 N   0  0  0  0  0  0  0  0  0  0  0  0
   44.4350   35.3630   44.8850 O   0  0  0  0  0  0  0  0  0  0  0  0
   44.7240   36.3790   43.9840 C   0  0  0  0  0  0  0  0  0  0  0  0
   44.7470   36.2200   42.7340 O   0  0  0  0  0  0  0  0  0  0  0  0
   44.9930   37.6110   44.5430 O   0  0  0  0  0  0  0  0  0  0  0  0
   46.1832   34.4889   43.1274 H   0  0  0  0  0  0  0  0  0  0  0  0
   47.8389   32.6320   43.6344 H   0  0  0  0  0  0  0  0  0  0  0  0
   46.2782   32.2859   47.5599 H   0  0  0  0  0  0  0  0  0  0  0  0
   45.2074   38.3825   43.9609 H   0  0  0  0  0  0  0  0  0  0  0  0
  1  6  2  0
  2  3  2  0
  2  1  1  0
  3  4  1  0
  4  5  2  0
  6  5  1  0
  7  1  1  0
  8 10  1  0
  8  7  1  0
  9  8  2  0
  2 11  1  0
  3 12  1  0
  5 13  1  0
 10 14  1  0
M  ISO  4  11  14  12  14  13  14  14   3
M  END
>  <minimizedAffinity>  (1) 
-3.4003787

>  <minimizedRMSD>  (1) 
2.1368072

$$$$
