
     RDKit          3D

 18 19  0  0  0  0  0  0  0  0999 V2000
   46.9760   34.6200   42.2490 C   0  0  0  0  0  0  0  0  0  0  0  0
   48.1420   35.3440   41.9740 C   0  0  0  0  0  0  0  0  0  0  0  0
   48.6600   35.2870   40.6720 C   0  0  0  0  0  0  0  0  0  0  0  0
   48.0160   34.5410   39.7450 N   0  0  0  0  0  0  0  0  0  0  0  0
   46.8990   33.8600   40.0490 C   0  0  0  0  0  0  0  0  0  0  0  0
   46.3890   33.9000   41.2810 N   0  0  0  0  0  0  0  0  0  0  0  0
   46.4780   34.6790   43.5190 O   0  0  0  0  0  0  0  0  0  0  0  0
   45.1080   34.7960   43.8500 C   0  0  0  0  0  0  0  0  0  0  0  0
   44.6320   36.1200   44.3310 C   0  0  0  0  0  0  0  0  0  0  0  0
   44.8470   35.0210   45.3150 C   0  0  0  0  0  0  0  0  0  0  0  0
   48.6369   35.9395   42.7553 H   0  0  0  0  0  0  0  0  0  0  0  0
   49.5742   35.8393   40.4089 H   0  0  0  0  0  0  0  0  0  0  0  0
   46.3988   33.2622   39.2729 H   0  0  0  0  0  0  0  0  0  0  0  0
   44.7612   34.0974   43.0743 H   0  0  0  0  0  0  0  0  0  0  0  0
   45.3119   36.9846   44.3179 H   0  0  0  0  0  0  0  0  0  0  0  0
   43.7870   36.7770   44.0775 H   0  0  0  0  0  0  0  0  0  0  0  0
   43.9855   34.5404   45.8017 H   0  0  0  0  0  0  0  0  0  0  0  0
   45.4320   34.9040   46.2392 H   0  0  0  0  0  0  0  0  0  0  0  0
  1  7  1  0
  2  1  2  0
  3  2  1  0
  4  5  1  0
  4  3  2  0
  5  6  2  0
  6  1  1  0
  7  8  1  0
  8  9  1  0
  8 10  1  0
  9 10  1  0
  2 11  1  0
  3 12  1  0
  5 13  1  0
  8 14  1  0
  9 15  1  0
  9 16  1  0
 10 17  1  0
 10 18  1  0
M  ISO  8  11  14  12  14  13  14  14  13  15  13  16  13  17  13  18  13
M  END
>  <minimizedAffinity>  (1) 
-3.38174343

>  <minimizedRMSD>  (1) 
3.34619117

$$$$
