
     RDKit          3D

 21 22  0  0  1  0  0  0  0  0999 V2000
   44.9200   35.8340   43.1020 C   0  0  2  0  0  0  0  0  0  0  0  0
   44.9880   37.0580   43.9840 C   0  0  0  0  0  0  0  0  0  0  0  0
   44.2200   35.8450   44.4010 C   0  0  2  0  0  0  0  0  0  0  0  0
   44.7620   34.9820   45.4950 C   0  0  0  0  0  0  0  0  0  0  0  0
   45.6510   34.0960   45.2610 O   0  0  0  0  0  0  0  0  0  0  0  0
   44.3330   35.0950   46.8110 O   0  0  0  0  0  0  0  0  0  0  0  0
   46.1630   35.1230   43.0570 O   0  0  0  0  0  0  0  0  0  0  0  0
   46.7660   34.8030   41.8700 C   0  0  0  0  0  0  0  0  0  0  0  0
   48.0300   35.4120   41.7040 C   0  0  0  0  0  0  0  0  0  0  0  0
   48.7360   35.1620   40.5320 C   0  0  0  0  0  0  0  0  0  0  0  0
   48.1850   34.3520   39.6110 N   0  0  0  0  0  0  0  0  0  0  0  0
   46.9850   33.7910   39.8040 C   0  0  0  0  0  0  0  0  0  0  0  0
   46.2790   34.0110   40.9210 N   0  0  0  0  0  0  0  0  0  0  0  0
   44.6054   35.6031   42.0735 H   0  0  0  0  0  0  0  0  0  0  0  0
   45.9265   37.3210   44.4940 H   0  0  0  0  0  0  0  0  0  0  0  0
   44.7603   38.1272   43.8614 H   0  0  0  0  0  0  0  0  0  0  0  0
   43.1845   35.6712   44.7288 H   0  0  0  0  0  0  0  0  0  0  0  0
   44.7153   34.5057   47.5086 H   0  0  0  0  0  0  0  0  0  0  0  0
   48.4458   36.0681   42.4829 H   0  0  0  0  0  0  0  0  0  0  0  0
   49.7231   35.6168   40.3623 H   0  0  0  0  0  0  0  0  0  0  0  0
   46.5686   33.1335   39.0266 H   0  0  0  0  0  0  0  0  0  0  0  0
  1  2  1  0
  1  3  1  0
  2  3  1  0
  3  4  1  0
  4  6  1  0
  5  4  2  0
  7  1  1  0
  8  7  1  0
  9  8  2  0
 10  9  1  0
 11 12  1  0
 11 10  2  0
 12 13  2  0
 13  8  1  0
  1 14  1  6
  2 15  1  0
  2 16  1  0
  3 17  1  6
  6 18  1  0
  9 19  1  0
 10 20  1  0
 12 21  1  0
M  ISO  8  14  13  15  13  16  13  17  13  18   3  19  14  20  14  21  14
M  END
>  <minimizedAffinity>  (1) 
-4.4254818

>  <minimizedRMSD>  (1) 
1.05697012

$$$$
