
     RDKit          3D

 24 26  0  0  1  0  0  0  0  0999 V2000
   45.3930   34.4090   40.8160 C   0  0  2  0  0  0  0  0  0  0  0  0
   46.4230   33.4040   41.2590 C   0  0  0  0  0  0  0  0  0  0  0  0
   46.3010   34.7170   41.9530 C   0  0  2  0  0  0  0  0  0  0  0  0
   45.7370   34.8250   43.3260 C   0  0  0  0  0  0  0  0  0  0  0  0
   44.9780   35.9380   43.7340 C   0  0  0  0  0  0  0  0  0  0  0  0
   44.6120   35.4670   45.4460 S   0  0  0  0  0  0  0  0  0  0  0  0
   45.5180   33.8820   45.3450 C   0  0  0  0  0  0  0  0  0  0  0  0
   45.9730   33.8360   44.1660 N   0  0  0  0  0  0  0  0  0  0  0  0
   44.0660   34.0200   41.1930 O   0  0  0  0  0  0  0  0  0  0  0  0
   42.9550   34.5740   40.6280 C   0  0  0  0  0  0  0  0  0  0  0  0
   42.0910   35.1930   41.5520 C   0  0  0  0  0  0  0  0  0  0  0  0
   40.9190   35.7940   41.0980 C   0  0  0  0  0  0  0  0  0  0  0  0
   40.6730   35.7440   39.7630 N   0  0  0  0  0  0  0  0  0  0  0  0
   41.5180   35.1440   38.9110 C   0  0  0  0  0  0  0  0  0  0  0  0
   42.6520   34.5610   39.3330 N   0  0  0  0  0  0  0  0  0  0  0  0
   45.1322   34.9266   39.8811 H   0  0  0  0  0  0  0  0  0  0  0  0
   46.1091   32.4804   41.7674 H   0  0  0  0  0  0  0  0  0  0  0  0
   47.2388   32.8538   40.7672 H   0  0  0  0  0  0  0  0  0  0  0  0
   47.0160   35.5171   42.1953 H   0  0  0  0  0  0  0  0  0  0  0  0
   44.6887   36.8388   43.1728 H   0  0  0  0  0  0  0  0  0  0  0  0
   45.6408   33.1304   46.1388 H   0  0  0  0  0  0  0  0  0  0  0  0
   42.3395   35.2019   42.6235 H   0  0  0  0  0  0  0  0  0  0  0  0
   40.2223   36.2881   41.7912 H   0  0  0  0  0  0  0  0  0  0  0  0
   41.2756   35.1291   37.8381 H   0  0  0  0  0  0  0  0  0  0  0  0
  1  9  1  0
  1  2  1  0
  1  3  1  0
  2  3  1  0
  3  4  1  0
  4  5  2  0
  4  8  1  0
  5  6  1  0
  7  6  1  0
  8  7  2  0
 10  9  1  0
 10 11  2  0
 12 11  1  0
 13 12  2  0
 14 15  2  0
 14 13  1  0
 15 10  1  0
  1 16  1  6
  2 17  1  0
  2 18  1  0
  3 19  1  6
  5 20  1  0
  7 21  1  0
 11 22  1  0
 12 23  1  0
 14 24  1  0
M  ISO  8  16  13  17  13  18  13  19  13  20  14  21  14  22  14  23  14
M  ISO  1  24  14
M  END
>  <minimizedAffinity>  (1) 
-3.99881458

>  <minimizedRMSD>  (1) 
4.77135038

$$$$
