
     RDKit          3D

 36 38  0  0  1  0  0  0  0  0999 V2000
   47.8240   34.8710   41.4070 C   0  0  2  0  0  0  0  0  0  0  0  0
   49.1340   35.4300   41.7570 C   0  0  0  0  0  0  0  0  0  0  0  0
   49.9130   34.3480   42.5100 C   0  0  0  0  0  0  0  0  0  0  0  0
   49.0760   33.0980   42.4890 C   0  0  0  0  0  0  0  0  0  0  0  0
   47.6990   33.5920   42.2840 C   0  0  1  0  0  0  0  0  0  0  0  0
   46.9020   33.8170   43.4370 N   0  0  0  0  0  0  0  0  0  0  0  0
   47.0520   33.1820   44.6140 C   0  0  0  0  0  0  0  0  0  0  0  0
   46.2810   33.3940   45.7420 C   0  0  0  0  0  0  0  0  0  0  0  0
   46.5000   32.6630   47.0010 C   0  0  0  0  0  0  0  0  0  0  0  0
   45.2670   34.3310   45.6760 C   0  0  0  0  0  0  0  0  0  0  0  0
   44.4990   34.6130   46.6310 O   0  0  0  0  0  0  0  0  0  0  0  0
   45.0770   34.9900   44.5250 N   0  0  0  0  0  0  0  0  0  0  0  0
   45.8750   34.7200   43.4760 C   0  0  0  0  0  0  0  0  0  0  0  0
   45.6610   35.3710   42.3950 O   0  0  0  0  0  0  0  0  0  0  0  0
   47.6460   34.4010   40.0190 C   0  0  0  0  0  0  0  0  0  0  0  0
   48.5320   34.8440   39.0240 C   0  0  0  0  0  0  0  0  0  0  0  0
   48.3870   34.3800   37.7170 C   0  0  0  0  0  0  0  0  0  0  0  0
   47.3580   33.5000   37.4950 N   0  0  0  0  0  0  0  0  0  0  0  0
   46.5230   33.0920   38.4640 C   0  0  0  0  0  0  0  0  0  0  0  0
   46.6650   33.5410   39.7200 N   0  0  0  0  0  0  0  0  0  0  0  0
   47.0895   35.6767   41.5534 H   0  0  0  0  0  0  0  0  0  0  0  0
   49.6762   35.7154   40.8435 H   0  0  0  0  0  0  0  0  0  0  0  0
   49.0165   36.3273   42.3824 H   0  0  0  0  0  0  0  0  0  0  0  0
   50.8772   34.1639   42.0135 H   0  0  0  0  0  0  0  0  0  0  0  0
   50.1167   34.6630   43.5440 H   0  0  0  0  0  0  0  0  0  0  0  0
   49.3810   32.4373   41.6641 H   0  0  0  0  0  0  0  0  0  0  0  0
   49.1797   32.5041   43.4091 H   0  0  0  0  0  0  0  0  0  0  0  0
   47.1339   32.7825   41.7988 H   0  0  0  0  0  0  0  0  0  0  0  0
   47.8541   32.4325   44.6845 H   0  0  0  0  0  0  0  0  0  0  0  0
   46.3000   33.3305   47.8521 H   0  0  0  0  0  0  0  0  0  0  0  0
   45.8214   31.7984   47.0458 H   0  0  0  0  0  0  0  0  0  0  0  0
   47.5422   32.3139   47.0458 H   0  0  0  0  0  0  0  0  0  0  0  0
   44.3297   35.6942   44.4443 H   0  0  0  0  0  0  0  0  0  0  0  0
   49.3354   35.5526   39.2739 H   0  0  0  0  0  0  0  0  0  0  0  0
   49.0603   34.7017   36.9088 H   0  0  0  0  0  0  0  0  0  0  0  0
   45.7158   32.3837   38.2259 H   0  0  0  0  0  0  0  0  0  0  0  0
  1  2  1  0
  1  5  1  0
  2  3  1  0
  4  3  1  0
  5  4  1  0
  5  6  1  0
  6 13  1  0
  6  7  1  0
  7  8  2  0
  8  9  1  0
 10  8  1  0
 10 11  2  0
 12 10  1  0
 13 12  1  0
 14 13  2  0
 15  1  1  0
 16 15  2  0
 17 16  1  0
 18 17  2  0
 18 19  1  0
 19 20  2  0
 20 15  1  0
  1 21  1  1
  2 22  1  0
  2 23  1  0
  3 24  1  0
  3 25  1  0
  4 26  1  0
  4 27  1  0
  5 28  1  6
  7 29  1  0
  9 30  1  0
  9 31  1  0
  9 32  1  0
 12 33  1  0
 16 34  1  0
 17 35  1  0
 19 36  1  0
M  ISO  8  21  13  22  13  23  13  24  13  25  13  26  13  27  13  28  13
M  ISO  8  29  14  30   8  31   8  32   8  33   9  34  14  35  14  36  14
M  END
>  <minimizedAffinity>  (1) 
-6.23138809

>  <minimizedRMSD>  (1) 
4.35397482

$$$$
