
     RDKit          3D

 24 25  0  0  1  0  0  0  0  0999 V2000
   45.7590   35.3420   43.2140 O   0  0  0  0  0  0  0  0  0  0  0  0
   46.4090   34.9190   42.0900 C   0  0  0  0  0  0  0  0  0  0  0  0
   47.7530   35.3380   42.0380 C   0  0  0  0  0  0  0  0  0  0  0  0
   48.5220   34.9620   40.9210 C   0  0  0  0  0  0  0  0  0  0  0  0
   47.9340   34.2160   39.9500 N   0  0  0  0  0  0  0  0  0  0  0  0
   46.6490   33.8480   40.0560 C   0  0  0  0  0  0  0  0  0  0  0  0
   45.8880   34.1900   41.1090 N   0  0  0  0  0  0  0  0  0  0  0  0
   45.1790   34.4250   44.1460 C   0  0  2  0  0  0  0  0  0  0  0  0
   44.7310   35.0830   45.4220 C   0  0  0  0  0  0  0  0  0  0  0  0
   45.9370   34.2190   45.4060 C   0  0  1  0  0  0  0  0  0  0  0  0
   45.9500   32.8180   45.9220 C   0  0  0  0  0  0  0  0  0  0  0  0
   46.8920   32.5020   47.0150 C   0  0  0  0  0  0  0  0  0  0  0  0
   48.1889   35.9419   42.8475 H   0  0  0  0  0  0  0  0  0  0  0  0
   49.5759   35.2655   40.8361 H   0  0  0  0  0  0  0  0  0  0  0  0
   46.2020   33.2446   39.2522 H   0  0  0  0  0  0  0  0  0  0  0  0
   44.7363   33.7518   43.3972 H   0  0  0  0  0  0  0  0  0  0  0  0
   44.8341   36.1710   45.5467 H   0  0  0  0  0  0  0  0  0  0  0  0
   43.7960   35.1069   46.0010 H   0  0  0  0  0  0  0  0  0  0  0  0
   46.9550   34.3872   45.7872 H   0  0  0  0  0  0  0  0  0  0  0  0
   44.9366   32.5911   46.2847 H   0  0  0  0  0  0  0  0  0  0  0  0
   46.2931   32.2098   45.0721 H   0  0  0  0  0  0  0  0  0  0  0  0
   46.3983   32.6676   47.9839 H   0  0  0  0  0  0  0  0  0  0  0  0
   47.2040   31.4500   46.9375 H   0  0  0  0  0  0  0  0  0  0  0  0
   47.7753   33.1530   46.9375 H   0  0  0  0  0  0  0  0  0  0  0  0
  1  8  1  0
  2  1  1  0
  3  2  2  0
  4  3  1  0
  5  6  1  0
  5  4  2  0
  6  7  2  0
  7  2  1  0
  8 10  1  0
  8  9  1  0
 10  9  1  0
 10 11  1  0
 11 12  1  0
  3 13  1  0
  4 14  1  0
  6 15  1  0
  8 16  1  6
  9 17  1  0
  9 18  1  0
 10 19  1  6
 11 20  1  0
 11 21  1  0
 12 22  1  0
 12 23  1  0
 12 24  1  0
M  ISO  8  13  14  14  14  15  14  16  13  17  13  18  13  19  13  20   8
M  ISO  4  21   8  22   8  23   8  24   8
M  END
>  <minimizedAffinity>  (1) 
-3.59481144

>  <minimizedRMSD>  (1) 
1.38991618

$$$$
