
     RDKit          3D

 19 20  0  0  1  0  0  0  0  0999 V2000
   46.3180   35.3280   43.1880 O   0  0  0  0  0  0  0  0  0  0  0  0
   46.6830   34.8270   41.9580 C   0  0  0  0  0  0  0  0  0  0  0  0
   47.9740   35.2160   41.5460 C   0  0  0  0  0  0  0  0  0  0  0  0
   48.4490   34.7750   40.3160 C   0  0  0  0  0  0  0  0  0  0  0  0
   47.6340   33.9930   39.5900 N   0  0  0  0  0  0  0  0  0  0  0  0
   46.4150   33.6340   39.9960 C   0  0  0  0  0  0  0  0  0  0  0  0
   45.9480   34.0480   41.1680 N   0  0  0  0  0  0  0  0  0  0  0  0
   45.1970   34.7990   43.9040 C   0  0  2  0  0  0  0  0  0  0  0  0
   43.9910   35.7120   43.8400 C   0  0  0  0  0  0  0  0  0  0  0  0
   44.7690   35.5740   45.0920 C   0  0  1  0  0  0  0  0  0  0  0  0
   44.1630   34.7920   46.0880 O   0  0  0  0  0  0  0  0  0  0  0  0
   48.5955   35.8581   42.1874 H   0  0  0  0  0  0  0  0  0  0  0  0
   49.4491   35.0546   39.9533 H   0  0  0  0  0  0  0  0  0  0  0  0
   45.7929   32.9911   39.3559 H   0  0  0  0  0  0  0  0  0  0  0  0
   45.4119   33.7361   43.7197 H   0  0  0  0  0  0  0  0  0  0  0  0
   44.0365   36.6469   43.2621 H   0  0  0  0  0  0  0  0  0  0  0  0
   42.9342   35.5929   43.5590 H   0  0  0  0  0  0  0  0  0  0  0  0
   45.2537   36.2897   45.7723 H   0  0  0  0  0  0  0  0  0  0  0  0
   44.4262   35.1316   46.9799 H   0  0  0  0  0  0  0  0  0  0  0  0
  1  8  1  0
  2  1  1  0
  3  2  2  0
  4  3  1  0
  5  6  1  0
  5  4  2  0
  6  7  2  0
  7  2  1  0
  8 10  1  0
  9  8  1  0
  9 10  1  0
 10 11  1  0
  3 12  1  0
  4 13  1  0
  6 14  1  0
  8 15  1  1
  9 16  1  0
  9 17  1  0
 10 18  1  1
 11 19  1  0
M  ISO  8  12  14  13  14  14  14  15  13  16  13  17  13  18  13  19   3
M  END
>  <minimizedAffinity>  (1) 
-3.49623704

>  <minimizedRMSD>  (1) 
0.627375722

$$$$
