
     RDKit          3D

 28 30  0  0  1  0  0  0  0  0999 V2000
   46.3060   32.6390   43.5820 C   0  0  2  0  0  0  0  0  0  0  0  0
   47.2580   31.5740   43.1380 C   0  0  0  0  0  0  0  0  0  0  0  0
   47.1230   32.7950   42.3350 C   0  0  2  0  0  0  0  0  0  0  0  0
   48.1070   33.8290   42.2360 N   0  0  0  0  0  0  0  0  0  0  0  0
   49.3380   33.8210   42.7290 N   0  0  0  0  0  0  0  0  0  0  0  0
   49.9480   34.9800   42.4290 C   0  0  0  0  0  0  0  0  0  0  0  0
   49.0150   35.7350   41.7050 C   0  0  0  0  0  0  0  0  0  0  0  0
   47.8400   34.9930   41.5840 C   0  0  0  0  0  0  0  0  0  0  0  0
   46.7690   33.4150   44.6810 O   0  0  0  0  0  0  0  0  0  0  0  0
   46.6090   33.0120   45.9680 C   0  0  0  0  0  0  0  0  0  0  0  0
   45.3680   33.4360   46.5050 C   0  0  0  0  0  0  0  0  0  0  0  0
   45.0550   33.0970   47.8240 C   0  0  0  0  0  0  0  0  0  0  0  0
   45.9610   32.3750   48.5270 N   0  0  0  0  0  0  0  0  0  0  0  0
   47.1240   31.9980   47.9730 C   0  0  0  0  0  0  0  0  0  0  0  0
   47.4290   32.3100   46.7340 N   0  0  0  0  0  0  0  0  0  0  0  0
   48.0430   31.2220   48.7990 C   0  0  0  0  0  0  0  0  0  0  0  0
   49.0840   31.7320   49.3020 O   0  0  0  0  0  0  0  0  0  0  0  0
   47.8490   29.8810   49.0920 O   0  0  0  0  0  0  0  0  0  0  0  0
   45.2364   32.6833   43.8349 H   0  0  0  0  0  0  0  0  0  0  0  0
   48.1812   31.3922   43.7077 H   0  0  0  0  0  0  0  0  0  0  0  0
   47.1714   30.4975   42.9291 H   0  0  0  0  0  0  0  0  0  0  0  0
   46.9315   32.9692   41.2659 H   0  0  0  0  0  0  0  0  0  0  0  0
   50.9727   35.2765   42.6974 H   0  0  0  0  0  0  0  0  0  0  0  0
   49.1815   36.7440   41.2999 H   0  0  0  0  0  0  0  0  0  0  0  0
   46.9083   35.2833   41.0763 H   0  0  0  0  0  0  0  0  0  0  0  0
   44.6642   34.0211   45.8949 H   0  0  0  0  0  0  0  0  0  0  0  0
   44.1021   33.4068   48.2779 H   0  0  0  0  0  0  0  0  0  0  0  0
   48.5025   29.3984   49.6578 H   0  0  0  0  0  0  0  0  0  0  0  0
  1  9  1  0
  2  1  1  0
  3  2  1  0
  3  1  1  0
  4  3  1  0
  4  5  1  0
  6  5  2  0
  7  6  1  0
  8  7  2  0
  8  4  1  0
  9 10  1  0
 10 11  2  0
 10 15  1  0
 11 12  1  0
 12 13  2  0
 14 13  1  0
 14 16  1  0
 15 14  2  0
 16 18  1  0
 16 17  2  0
  1 19  1  6
  2 20  1  0
  2 21  1  0
  3 22  1  6
  6 23  1  0
  7 24  1  0
  8 25  1  0
 11 26  1  0
 12 27  1  0
 18 28  1  0
M  ISO  8  19  13  20  13  21  13  22  13  23  14  24  14  25  14  26  14
M  ISO  2  27  14  28   3
M  END
>  <minimizedAffinity>  (1) 
-4.55349207

>  <minimizedRMSD>  (1) 
4.17319107

$$$$
