
     RDKit          3D

 34 36  0  0  1  0  0  0  0  0999 V2000
   48.0590   33.4350   43.0300 C   0  0  2  0  0  0  0  0  0  0  0  0
   48.6690   34.7160   42.5590 C   0  0  0  0  0  0  0  0  0  0  0  0
   47.4940   34.1800   41.8610 C   0  0  2  0  0  0  0  0  0  0  0  0
   46.1770   34.7400   41.9190 N   0  0  0  0  0  0  0  0  0  0  0  0
   45.7360   35.6810   42.7450 N   0  0  0  0  0  0  0  0  0  0  0  0
   44.4400   35.9270   42.4850 C   0  0  0  0  0  0  0  0  0  0  0  0
   44.0780   35.0780   41.4330 C   0  0  0  0  0  0  0  0  0  0  0  0
   45.2020   34.3130   41.0690 C   0  0  0  0  0  0  0  0  0  0  0  0
   47.2930   33.5570   44.2230 O   0  0  0  0  0  0  0  0  0  0  0  0
   46.9740   32.4860   44.9960 C   0  0  0  0  0  0  0  0  0  0  0  0
   47.5240   31.2840   44.4790 C   0  0  0  0  0  0  0  0  0  0  0  0
   47.2840   30.0860   45.1660 C   0  0  0  0  0  0  0  0  0  0  0  0
   46.5390   30.1310   46.2970 N   0  0  0  0  0  0  0  0  0  0  0  0
   46.0440   31.2960   46.7410 C   0  0  0  0  0  0  0  0  0  0  0  0
   46.2580   32.4470   46.1040 N   0  0  0  0  0  0  0  0  0  0  0  0
   45.2160   31.3540   47.9920 C   0  0  0  0  0  0  0  0  0  0  0  0
   45.8540   32.2370   49.0300 C   0  0  0  0  0  0  0  0  0  0  0  0
   45.1030   29.9650   48.5760 C   0  0  0  0  0  0  0  0  0  0  0  0
   48.4196   32.4120   43.2130 H   0  0  0  0  0  0  0  0  0  0  0  0
   48.5755   35.6252   43.1710 H   0  0  0  0  0  0  0  0  0  0  0  0
   49.6786   35.0246   42.2499 H   0  0  0  0  0  0  0  0  0  0  0  0
   47.2831   33.9690   40.8022 H   0  0  0  0  0  0  0  0  0  0  0  0
   43.7919   36.6527   42.9981 H   0  0  0  0  0  0  0  0  0  0  0  0
   43.0826   35.0185   40.9687 H   0  0  0  0  0  0  0  0  0  0  0  0
   45.2759   33.5485   40.2816 H   0  0  0  0  0  0  0  0  0  0  0  0
   48.1260   31.2924   43.5584 H   0  0  0  0  0  0  0  0  0  0  0  0
   47.6903   29.1330   44.7962 H   0  0  0  0  0  0  0  0  0  0  0  0
   44.2292   31.7605   47.7257 H   0  0  0  0  0  0  0  0  0  0  0  0
   45.5905   31.8723   50.0338 H   0  0  0  0  0  0  0  0  0  0  0  0
   46.9470   32.2161   48.9075 H   0  0  0  0  0  0  0  0  0  0  0  0
   45.4910   33.2681   48.9075 H   0  0  0  0  0  0  0  0  0  0  0  0
   45.1081   30.0275   49.6742 H   0  0  0  0  0  0  0  0  0  0  0  0
   44.1641   29.5010   48.2395 H   0  0  0  0  0  0  0  0  0  0  0  0
   45.9545   29.3554   48.2395 H   0  0  0  0  0  0  0  0  0  0  0  0
  1  9  1  0
  2  1  1  0
  3  4  1  0
  3  2  1  0
  3  1  1  0
  4  5  1  0
  6  5  2  0
  7  6  1  0
  8  7  2  0
  8  4  1  0
  9 10  1  0
 10 15  1  0
 11 10  2  0
 11 12  1  0
 12 13  2  0
 13 14  1  0
 14 16  1  0
 15 14  2  0
 16 18  1  0
 16 17  1  0
  1 19  1  6
  2 20  1  0
  2 21  1  0
  3 22  1  6
  6 23  1  0
  7 24  1  0
  8 25  1  0
 11 26  1  0
 12 27  1  0
 16 28  1  0
 17 29  1  0
 17 30  1  0
 17 31  1  0
 18 32  1  0
 18 33  1  0
 18 34  1  0
M  ISO  8  19  13  20  13  21  13  22  13  23  14  24  14  25  14  26  14
M  ISO  8  27  14  28   8  29   8  30   8  31   8  32   8  33   8  34   8
M  END
>  <minimizedAffinity>  (1) 
-4.4845953

>  <minimizedRMSD>  (1) 
4.53608227

$$$$
