
     RDKit          3D

 31 33  0  0  1  0  0  0  0  0999 V2000
   47.8470   33.3660   43.2640 C   0  0  2  0  0  0  0  0  0  0  0  0
   48.5390   34.5700   42.7090 C   0  0  0  0  0  0  0  0  0  0  0  0
   47.3780   34.0200   42.0000 C   0  0  2  0  0  0  0  0  0  0  0  0
   46.0870   34.6310   41.9290 N   0  0  0  0  0  0  0  0  0  0  0  0
   45.6270   35.6260   42.6740 N   0  0  0  0  0  0  0  0  0  0  0  0
   44.3680   35.9160   42.3060 C   0  0  0  0  0  0  0  0  0  0  0  0
   44.0510   35.0340   41.2640 C   0  0  0  0  0  0  0  0  0  0  0  0
   45.1630   34.2060   41.0240 C   0  0  0  0  0  0  0  0  0  0  0  0
   47.0250   33.6390   44.3980 O   0  0  0  0  0  0  0  0  0  0  0  0
   46.8710   32.7520   45.4150 C   0  0  0  0  0  0  0  0  0  0  0  0
   47.1930   31.4290   45.0080 C   0  0  0  0  0  0  0  0  0  0  0  0
   47.0850   30.3970   45.9490 C   0  0  0  0  0  0  0  0  0  0  0  0
   46.6760   30.7200   47.2030 N   0  0  0  0  0  0  0  0  0  0  0  0
   46.3830   31.9850   47.5390 C   0  0  0  0  0  0  0  0  0  0  0  0
   46.4810   32.9790   46.6550 N   0  0  0  0  0  0  0  0  0  0  0  0
   45.9410   32.2660   48.9340 C   0  0  0  0  0  0  0  0  0  0  0  0
   45.0900   31.0970   49.4350 C   0  0  0  0  0  0  0  0  0  0  0  0
   48.1490   32.3510   43.5615 H   0  0  0  0  0  0  0  0  0  0  0  0
   48.4569   35.5367   43.2274 H   0  0  0  0  0  0  0  0  0  0  0  0
   49.5763   34.8051   42.4285 H   0  0  0  0  0  0  0  0  0  0  0  0
   47.2131   33.7206   40.9544 H   0  0  0  0  0  0  0  0  0  0  0  0
   43.7163   36.6907   42.7364 H   0  0  0  0  0  0  0  0  0  0  0  0
   43.0933   34.9955   40.7242 H   0  0  0  0  0  0  0  0  0  0  0  0
   45.2625   33.4028   40.2790 H   0  0  0  0  0  0  0  0  0  0  0  0
   47.5193   31.2203   43.9784 H   0  0  0  0  0  0  0  0  0  0  0  0
   47.3240   29.3574   45.6806 H   0  0  0  0  0  0  0  0  0  0  0  0
   46.8216   32.3850   49.5824 H   0  0  0  0  0  0  0  0  0  0  0  0
   45.3476   33.1920   48.9552 H   0  0  0  0  0  0  0  0  0  0  0  0
   45.0859   31.0914   50.5350 H   0  0  0  0  0  0  0  0  0  0  0  0
   44.0601   31.2082   49.0651 H   0  0  0  0  0  0  0  0  0  0  0  0
   45.5123   30.1511   49.0651 H   0  0  0  0  0  0  0  0  0  0  0  0
  1  9  1  0
  2  1  1  0
  3  2  1  0
  3  1  1  0
  4  3  1  0
  4  5  1  0
  6  5  2  0
  7  6  1  0
  8  7  2  0
  8  4  1  0
  9 10  1  0
 10 15  1  0
 11 10  2  0
 11 12  1  0
 12 13  2  0
 13 14  1  0
 14 16  1  0
 15 14  2  0
 16 17  1  0
  1 18  1  6
  2 19  1  0
  2 20  1  0
  3 21  1  6
  6 22  1  0
  7 23  1  0
  8 24  1  0
 11 25  1  0
 12 26  1  0
 16 27  1  0
 16 28  1  0
 17 29  1  0
 17 30  1  0
 17 31  1  0
M  ISO  8  18  13  19  13  20  13  21  13  22  14  23  14  24  14  25  14
M  ISO  6  26  14  27   8  28   8  29   8  30   8  31   8
M  END
>  <minimizedAffinity>  (1) 
-4.44203901

>  <minimizedRMSD>  (1) 
4.62308073

$$$$
