
     RDKit          3D

 32 35  0  0  1  0  0  0  0  0999 V2000
   46.0230   31.8770   43.5340 C   0  0  2  0  0  0  0  0  0  0  0  0
   46.3050   32.0270   44.9880 C   0  0  0  0  0  0  0  0  0  0  0  0
   46.5950   33.1490   44.0880 C   0  0  2  0  0  0  0  0  0  0  0  0
   45.8500   34.3700   44.0230 N   0  0  0  0  0  0  0  0  0  0  0  0
   45.0080   34.8420   44.9290 N   0  0  0  0  0  0  0  0  0  0  0  0
   44.5040   36.0130   44.5070 C   0  0  0  0  0  0  0  0  0  0  0  0
   45.0870   36.2610   43.2570 C   0  0  0  0  0  0  0  0  0  0  0  0
   45.9550   35.1990   42.9480 C   0  0  0  0  0  0  0  0  0  0  0  0
   44.6470   31.9610   43.1830 O   0  0  0  0  0  0  0  0  0  0  0  0
   43.9650   30.9110   42.6570 C   0  0  0  0  0  0  0  0  0  0  0  0
   44.8390   29.9820   42.0340 C   0  0  0  0  0  0  0  0  0  0  0  0
   44.2900   28.8370   41.4410 C   0  0  0  0  0  0  0  0  0  0  0  0
   42.9400   28.6800   41.4960 N   0  0  0  0  0  0  0  0  0  0  0  0
   42.1550   29.5860   42.0960 C   0  0  0  0  0  0  0  0  0  0  0  0
   42.6680   30.6590   42.6530 N   0  0  0  0  0  0  0  0  0  0  0  0
   40.7510   29.3170   42.0940 N   0  0  0  0  0  0  0  0  0  0  0  0
   40.2960   28.6710   40.9840 C   0  0  0  0  0  0  0  0  0  0  0  0
   38.9270   28.4880   41.1370 C   0  0  0  0  0  0  0  0  0  0  0  0
   38.6040   29.0270   42.3300 N   0  0  0  0  0  0  0  0  0  0  0  0
   39.7050   29.5290   42.9110 C   0  0  0  0  0  0  0  0  0  0  0  0
   46.3058   31.1587   42.7503 H   0  0  0  0  0  0  0  0  0  0  0  0
   45.4717   32.0998   45.7023 H   0  0  0  0  0  0  0  0  0  0  0  0
   46.8909   31.4562   45.7235 H   0  0  0  0  0  0  0  0  0  0  0  0
   47.4901   33.7675   43.9261 H   0  0  0  0  0  0  0  0  0  0  0  0
   43.7794   36.6494   45.0360 H   0  0  0  0  0  0  0  0  0  0  0  0
   44.8972   37.1399   42.6233 H   0  0  0  0  0  0  0  0  0  0  0  0
   46.5741   35.0684   42.0482 H   0  0  0  0  0  0  0  0  0  0  0  0
   45.9248   30.1572   42.0170 H   0  0  0  0  0  0  0  0  0  0  0  0
   44.9294   28.0902   40.9476 H   0  0  0  0  0  0  0  0  0  0  0  0
   40.9022   28.3523   40.1232 H   0  0  0  0  0  0  0  0  0  0  0  0
   38.2432   28.0006   40.4265 H   0  0  0  0  0  0  0  0  0  0  0  0
   39.7445   30.0292   43.8899 H   0  0  0  0  0  0  0  0  0  0  0  0
  1  3  1  0
  1  2  1  0
  3  2  1  0
  4  3  1  0
  4  5  1  0
  6  5  2  0
  7  6  1  0
  8  7  2  0
  8  4  1  0
  9  1  1  0
 10  9  1  0
 11 10  2  0
 12 13  2  0
 12 11  1  0
 13 14  1  0
 14 15  2  0
 15 10  1  0
 16 14  1  0
 16 20  1  0
 17 18  2  0
 17 16  1  0
 18 19  1  0
 19 20  2  0
  1 21  1  6
  2 22  1  0
  2 23  1  0
  3 24  1  6
  6 25  1  0
  7 26  1  0
  8 27  1  0
 11 28  1  0
 12 29  1  0
 17 30  1  0
 18 31  1  0
 20 32  1  0
M  ISO  8  21  13  22  13  23  13  24  13  25  14  26  14  27  14  28  14
M  ISO  4  29  14  30  14  31  14  32  14
M  END
>  <minimizedAffinity>  (1) 
-3.75269651

>  <minimizedRMSD>  (1) 
6.67169476

$$$$
