
     RDKit          3D

 37 39  0  0  1  0  0  0  0  0999 V2000
   47.8520   32.9210   43.3730 C   0  0  2  0  0  0  0  0  0  0  0  0
   47.0640   32.6000   44.6030 C   0  0  0  0  0  0  0  0  0  0  0  0
   46.9240   33.9230   43.9850 C   0  0  2  0  0  0  0  0  0  0  0  0
   45.7640   34.3790   43.2780 N   0  0  0  0  0  0  0  0  0  0  0  0
   44.6620   33.6930   43.0080 N   0  0  0  0  0  0  0  0  0  0  0  0
   43.8090   34.4760   42.3250 C   0  0  0  0  0  0  0  0  0  0  0  0
   44.4420   35.7170   42.1750 C   0  0  0  0  0  0  0  0  0  0  0  0
   45.7040   35.6500   42.7910 C   0  0  0  0  0  0  0  0  0  0  0  0
   47.3310   32.3070   42.1830 O   0  0  0  0  0  0  0  0  0  0  0  0
   47.9710   32.4160   40.9890 C   0  0  0  0  0  0  0  0  0  0  0  0
   47.3130   33.3210   40.1170 C   0  0  0  0  0  0  0  0  0  0  0  0
   47.8560   33.5390   38.8480 C   0  0  0  0  0  0  0  0  0  0  0  0
   48.9850   32.8730   38.5140 N   0  0  0  0  0  0  0  0  0  0  0  0
   49.5720   32.0260   39.3720 C   0  0  0  0  0  0  0  0  0  0  0  0
   49.0660   31.8160   40.5670 N   0  0  0  0  0  0  0  0  0  0  0  0
   50.8180   31.2690   39.0460 C   0  0  0  0  0  0  0  0  0  0  0  0
   51.3960   31.6720   37.7230 C   0  0  0  0  0  0  0  0  0  0  0  0
   51.7660   31.5010   40.1990 C   0  0  0  0  0  0  0  0  0  0  0  0
   50.4560   29.8060   39.0270 C   0  0  0  0  0  0  0  0  0  0  0  0
   48.9146   32.9016   43.0892 H   0  0  0  0  0  0  0  0  0  0  0  0
   46.2343   31.8797   44.5500 H   0  0  0  0  0  0  0  0  0  0  0  0
   47.3159   32.2397   45.6113 H   0  0  0  0  0  0  0  0  0  0  0  0
   47.0008   34.9474   44.3782 H   0  0  0  0  0  0  0  0  0  0  0  0
   42.8107   34.1973   41.9565 H   0  0  0  0  0  0  0  0  0  0  0  0
   44.0225   36.5951   41.6621 H   0  0  0  0  0  0  0  0  0  0  0  0
   46.4659   36.4401   42.8630 H   0  0  0  0  0  0  0  0  0  0  0  0
   46.3957   33.8396   40.4327 H   0  0  0  0  0  0  0  0  0  0  0  0
   47.3786   34.2329   38.1404 H   0  0  0  0  0  0  0  0  0  0  0  0
   52.2883   32.2941   37.8869 H   0  0  0  0  0  0  0  0  0  0  0  0
   51.6756   30.7721   37.1556 H   0  0  0  0  0  0  0  0  0  0  0  0
   50.6483   32.2456   37.1556 H   0  0  0  0  0  0  0  0  0  0  0  0
   51.2272   31.3691   41.1489 H   0  0  0  0  0  0  0  0  0  0  0  0
   52.5941   30.7790   40.1438 H   0  0  0  0  0  0  0  0  0  0  0  0
   52.1671   32.5238   40.1438 H   0  0  0  0  0  0  0  0  0  0  0  0
   50.3648   29.4374   40.0594 H   0  0  0  0  0  0  0  0  0  0  0  0
   49.4977   29.6722   38.5039 H   0  0  0  0  0  0  0  0  0  0  0  0
   51.2414   29.2407   38.5039 H   0  0  0  0  0  0  0  0  0  0  0  0
  1  3  1  0
  1  2  1  0
  3  2  1  0
  4  3  1  0
  5  4  1  0
  6  5  2  0
  7  6  1  0
  7  8  2  0
  8  4  1  0
  9  1  1  0
 10  9  1  0
 11 10  2  0
 12 11  1  0
 13 12  2  0
 13 14  1  0
 14 15  2  0
 15 10  1  0
 16 14  1  0
 16 18  1  0
 17 16  1  0
 19 16  1  0
  1 20  1  1
  2 21  1  0
  2 22  1  0
  3 23  1  1
  6 24  1  0
  7 25  1  0
  8 26  1  0
 11 27  1  0
 12 28  1  0
 17 29  1  0
 17 30  1  0
 17 31  1  0
 18 32  1  0
 18 33  1  0
 18 34  1  0
 19 35  1  0
 19 36  1  0
 19 37  1  0
M  ISO  8  20  13  21  13  22  13  23  13  24  14  25  14  26  14  27  14
M  ISO  8  28  14  29   8  30   8  31   8  32   8  33   8  34   8  35   8
M  ISO  2  36   8  37   8
M  END
>  <minimizedAffinity>  (1) 
-3.56622434

>  <minimizedRMSD>  (1) 
7.20133209

$$$$
