
     RDKit          3D

 33 36  0  0  1  0  0  0  0  0999 V2000
   47.5620   34.9700   41.7620 O   0  0  0  0  0  0  0  0  0  0  0  0
   46.2070   34.9220   41.7820 C   0  0  0  0  0  0  0  0  0  0  0  0
   45.6930   35.5580   42.9400 C   0  0  0  0  0  0  0  0  0  0  0  0
   44.3040   35.6030   43.1280 C   0  0  0  0  0  0  0  0  0  0  0  0
   43.5260   35.0310   42.1810 N   0  0  0  0  0  0  0  0  0  0  0  0
   44.0620   34.4440   41.1100 C   0  0  0  0  0  0  0  0  0  0  0  0
   45.3520   34.4000   40.9330 N   0  0  0  0  0  0  0  0  0  0  0  0
   43.2740   33.8460   40.1200 O   0  0  0  0  0  0  0  0  0  0  0  0
   42.3630   34.5120   39.3490 C   0  0  0  0  0  0  0  0  0  0  0  0
   41.0230   34.1270   39.4760 C   0  0  0  0  0  0  0  0  0  0  0  0
   40.2920   34.9340   38.6030 C   0  0  0  0  0  0  0  0  0  0  0  0
   41.2130   35.7510   38.0060 C   0  0  0  0  0  0  0  0  0  0  0  0
   42.4220   35.4930   38.4500 O   0  0  0  0  0  0  0  0  0  0  0  0
   48.3350   34.3850   42.8230 C   0  0  2  0  0  0  0  0  0  0  0  0
   49.7940   34.3350   42.5760 C   0  0  0  0  0  0  0  0  0  0  0  0
   49.0160   33.1040   42.4160 C   0  0  2  0  0  0  0  0  0  0  0  0
   48.7000   32.4620   41.1870 N   0  0  0  0  0  0  0  0  0  0  0  0
   49.2810   32.6640   40.0070 N   0  0  0  0  0  0  0  0  0  0  0  0
   48.7050   31.8710   39.0900 C   0  0  0  0  0  0  0  0  0  0  0  0
   47.7050   31.1400   39.7640 C   0  0  0  0  0  0  0  0  0  0  0  0
   47.7140   31.5300   41.1100 C   0  0  0  0  0  0  0  0  0  0  0  0
   46.3722   36.0086   43.6786 H   0  0  0  0  0  0  0  0  0  0  0  0
   43.8636   36.0856   44.0129 H   0  0  0  0  0  0  0  0  0  0  0  0
   40.6242   33.3418   40.1351 H   0  0  0  0  0  0  0  0  0  0  0  0
   39.2056   34.9169   38.4313 H   0  0  0  0  0  0  0  0  0  0  0  0
   40.9735   36.5194   37.2562 H   0  0  0  0  0  0  0  0  0  0  0  0
   47.6986   34.7224   43.6544 H   0  0  0  0  0  0  0  0  0  0  0  0
   50.2150   34.8335   41.6904 H   0  0  0  0  0  0  0  0  0  0  0  0
   50.6828   34.6120   43.1620 H   0  0  0  0  0  0  0  0  0  0  0  0
   49.1336   32.0855   42.8146 H   0  0  0  0  0  0  0  0  0  0  0  0
   48.9624   31.8044   38.0226 H   0  0  0  0  0  0  0  0  0  0  0  0
   47.0349   30.3939   39.3121 H   0  0  0  0  0  0  0  0  0  0  0  0
   47.0681   31.1640   41.9217 H   0  0  0  0  0  0  0  0  0  0  0  0
  1  2  1  0
  1 14  1  0
  2  3  2  0
  3  4  1  0
  5  4  2  0
  6  5  1  0
  7  6  2  0
  7  2  1  0
  8  6  1  0
  9 10  2  0
  9  8  1  0
 11 10  1  0
 12 13  1  0
 12 11  2  0
 13  9  1  0
 15 14  1  0
 16 15  1  0
 16 14  1  0
 17 16  1  0
 18 17  1  0
 19 20  1  0
 19 18  2  0
 20 21  2  0
 21 17  1  0
  3 22  1  0
  4 23  1  0
 10 24  1  0
 11 25  1  0
 12 26  1  0
 14 27  1  1
 15 28  1  0
 15 29  1  0
 16 30  1  1
 19 31  1  0
 20 32  1  0
 21 33  1  0
M  ISO  8  22  14  23  14  24  14  25  14  26  14  27  13  28  13  29  13
M  ISO  4  30  13  31  14  32  14  33  14
M  END
>  <minimizedAffinity>  (1) 
-4.67216539

>  <minimizedRMSD>  (1) 
5.99178791

$$$$
