
     RDKit          3D

 29 31  0  0  1  0  0  0  0  0999 V2000
   45.4050   32.9750   43.8960 C   0  0  2  0  0  0  0  0  0  0  0  0
   45.3110   34.3250   44.5020 C   0  0  0  0  0  0  0  0  0  0  0  0
   46.6410   33.7720   44.2170 C   0  0  2  0  0  0  0  0  0  0  0  0
   47.5120   34.2080   43.1750 N   0  0  0  0  0  0  0  0  0  0  0  0
   47.3460   35.2340   42.3540 N   0  0  0  0  0  0  0  0  0  0  0  0
   48.3770   35.3260   41.5100 C   0  0  0  0  0  0  0  0  0  0  0  0
   49.2360   34.2800   41.8380 C   0  0  0  0  0  0  0  0  0  0  0  0
   48.6790   33.5530   42.9180 C   0  0  0  0  0  0  0  0  0  0  0  0
   45.1090   32.9050   42.5030 O   0  0  0  0  0  0  0  0  0  0  0  0
   43.8320   32.9130   42.0400 C   0  0  0  0  0  0  0  0  0  0  0  0
   43.1970   31.6670   42.2690 C   0  0  0  0  0  0  0  0  0  0  0  0
   41.8730   31.4950   41.8540 C   0  0  0  0  0  0  0  0  0  0  0  0
   41.2600   32.5390   41.2490 N   0  0  0  0  0  0  0  0  0  0  0  0
   41.9130   33.7050   41.0560 C   0  0  0  0  0  0  0  0  0  0  0  0
   43.1590   33.8720   41.4440 N   0  0  0  0  0  0  0  0  0  0  0  0
   41.3190   34.8130   40.4330 O   0  0  0  0  0  0  0  0  0  0  0  0
   41.7700   35.2900   39.2150 C   0  0  0  0  0  0  0  0  0  0  0  0
   41.0060   35.7870   38.3240 O   0  0  0  0  0  0  0  0  0  0  0  0
   43.0980   35.2890   38.8070 O   0  0  0  0  0  0  0  0  0  0  0  0
   45.0114   31.9798   44.1501 H   0  0  0  0  0  0  0  0  0  0  0  0
   44.9299   35.1665   43.9048 H   0  0  0  0  0  0  0  0  0  0  0  0
   44.8233   34.7339   45.3992 H   0  0  0  0  0  0  0  0  0  0  0  0
   47.5483   33.6478   44.8264 H   0  0  0  0  0  0  0  0  0  0  0  0
   48.5188   36.0753   40.7173 H   0  0  0  0  0  0  0  0  0  0  0  0
   50.1906   34.0554   41.3398 H   0  0  0  0  0  0  0  0  0  0  0  0
   49.0905   32.6696   43.4282 H   0  0  0  0  0  0  0  0  0  0  0  0
   43.7375   30.8477   42.7656 H   0  0  0  0  0  0  0  0  0  0  0  0
   41.3468   30.5424   42.0140 H   0  0  0  0  0  0  0  0  0  0  0  0
   43.3429   35.6488   37.9178 H   0  0  0  0  0  0  0  0  0  0  0  0
  1  3  1  0
  1  2  1  0
  3  2  1  0
  4  3  1  0
  5  4  1  0
  6  7  1  0
  6  5  2  0
  7  8  2  0
  8  4  1  0
  9  1  1  0
 10 11  2  0
 10  9  1  0
 12 11  1  0
 13 12  2  0
 14 13  1  0
 14 15  2  0
 15 10  1  0
 16 14  1  0
 17 16  1  0
 18 17  2  0
 19 17  1  0
  1 20  1  1
  2 21  1  0
  2 22  1  0
  3 23  1  1
  6 24  1  0
  7 25  1  0
  8 26  1  0
 11 27  1  0
 12 28  1  0
 19 29  1  0
M  ISO  8  20  13  21  13  22  13  23  13  24  14  25  14  26  14  27  14
M  ISO  2  28  14  29   3
M  END
>  <minimizedAffinity>  (1) 
-4.32739735

>  <minimizedRMSD>  (1) 
5.57691145

$$$$
