
     RDKit          3D

 39 42  0  0  1  0  0  0  0  0999 V2000
   46.3480   34.2660   40.6800 C   0  0  2  0  0  0  0  0  0  0  0  0
   47.4140   33.7280   39.8170 C   0  0  0  0  0  0  0  0  0  0  0  0
   48.6340   33.5550   40.7100 C   0  0  0  0  0  0  0  0  0  0  0  0
   48.2100   33.7940   42.1380 C   0  0  0  0  0  0  0  0  0  0  0  0
   47.0530   34.7500   41.9410 C   0  0  2  0  0  0  0  0  0  0  0  0
   46.2450   34.9370   43.1270 C   0  0  0  0  0  0  0  0  0  0  0  0
   45.3330   35.9900   43.3060 C   0  0  0  0  0  0  0  0  0  0  0  0
   44.5340   36.1860   44.4150 C   0  0  0  0  0  0  0  0  0  0  0  0
   44.6290   35.2780   45.4410 C   0  0  0  0  0  0  0  0  0  0  0  0
   45.4960   34.2140   45.3540 C   0  0  0  0  0  0  0  0  0  0  0  0
   45.5640   33.3220   46.4000 C   0  0  0  0  0  0  0  0  0  0  0  0
   46.4140   32.2400   46.3560 C   0  0  0  0  0  0  0  0  0  0  0  0
   47.2020   32.0610   45.2410 C   0  0  0  0  0  0  0  0  0  0  0  0
   47.0940   32.9850   44.2220 C   0  0  0  0  0  0  0  0  0  0  0  0
   46.2630   34.0840   44.2140 C   0  0  0  0  0  0  0  0  0  0  0  0
   45.2980   33.3240   41.0930 C   0  0  0  0  0  0  0  0  0  0  0  0
   45.6030   31.9660   41.2840 C   0  0  0  0  0  0  0  0  0  0  0  0
   44.5990   31.1000   41.7040 C   0  0  0  0  0  0  0  0  0  0  0  0
   43.3570   31.6510   41.9040 N   0  0  0  0  0  0  0  0  0  0  0  0
   43.0900   32.9520   41.7120 C   0  0  0  0  0  0  0  0  0  0  0  0
   44.0620   33.7750   41.3090 N   0  0  0  0  0  0  0  0  0  0  0  0
   45.8209   35.0349   40.0960 H   0  0  0  0  0  0  0  0  0  0  0  0
   47.1101   32.7591   39.3942 H   0  0  0  0  0  0  0  0  0  0  0  0
   47.6260   34.4015   38.9735 H   0  0  0  0  0  0  0  0  0  0  0  0
   49.0306   32.5344   40.6051 H   0  0  0  0  0  0  0  0  0  0  0  0
   49.4200   34.2687   40.4223 H   0  0  0  0  0  0  0  0  0  0  0  0
   47.8855   32.8622   42.6242 H   0  0  0  0  0  0  0  0  0  0  0  0
   49.0089   34.1779   42.7895 H   0  0  0  0  0  0  0  0  0  0  0  0
   47.3784   35.7893   41.7864 H   0  0  0  0  0  0  0  0  0  0  0  0
   45.2477   36.7234   42.4906 H   0  0  0  0  0  0  0  0  0  0  0  0
   43.8444   37.0409   44.4747 H   0  0  0  0  0  0  0  0  0  0  0  0
   44.0067   35.4028   46.3394 H   0  0  0  0  0  0  0  0  0  0  0  0
   44.9292   33.4761   47.2850 H   0  0  0  0  0  0  0  0  0  0  0  0
   46.4628   31.5315   47.1960 H   0  0  0  0  0  0  0  0  0  0  0  0
   47.8945   31.2097   45.1652 H   0  0  0  0  0  0  0  0  0  0  0  0
   47.7282   32.8304   43.3366 H   0  0  0  0  0  0  0  0  0  0  0  0
   46.6219   31.5927   41.1038 H   0  0  0  0  0  0  0  0  0  0  0  0
   44.7898   30.0291   41.8675 H   0  0  0  0  0  0  0  0  0  0  0  0
   42.0751   33.3391   41.8857 H   0  0  0  0  0  0  0  0  0  0  0  0
  1 16  1  0
  1  5  1  0
  2  1  1  0
  2  3  1  0
  3  4  1  0
  5  4  1  0
  5  6  1  0
  6  7  2  0
  6 15  1  0
  7  8  1  0
  8  9  2  0
 10  9  1  0
 10 11  2  0
 12 11  1  0
 13 12  2  0
 14 13  1  0
 15 14  2  0
 15 10  1  0
 16 17  2  0
 16 21  1  0
 17 18  1  0
 18 19  2  0
 20 19  1  0
 21 20  2  0
  1 22  1  6
  2 23  1  0
  2 24  1  0
  3 25  1  0
  3 26  1  0
  4 27  1  0
  4 28  1  0
  5 29  1  6
  7 30  1  0
  8 31  1  0
  9 32  1  0
 11 33  1  0
 12 34  1  0
 13 35  1  0
 14 36  1  0
 17 37  1  0
 18 38  1  0
 20 39  1  0
M  ISO  8  22  13  23  13  24  13  25  13  26  13  27  13  28  13  29  13
M  ISO  8  30  14  31  14  32  14  33  14  34  14  35  14  36  14  37  14
M  ISO  2  38  14  39  14
M  END
>  <minimizedAffinity>  (1) 
-5.79927921

>  <minimizedRMSD>  (1) 
1.43944216

$$$$
