
     RDKit          3D

 28 30  0  0  1  0  0  0  0  0999 V2000
   48.1010   31.6940   43.2700 C   0  0  2  0  0  0  0  0  0  0  0  0
   49.3470   31.2580   42.6020 C   0  0  0  0  0  0  0  0  0  0  0  0
   48.1210   31.3520   41.8150 C   0  0  2  0  0  0  0  0  0  0  0  0
   47.8370   32.3440   40.8330 N   0  0  0  0  0  0  0  0  0  0  0  0
   48.6870   33.2120   40.2900 N   0  0  0  0  0  0  0  0  0  0  0  0
   48.0320   33.9750   39.4100 C   0  0  0  0  0  0  0  0  0  0  0  0
   46.7070   33.5550   39.4100 C   0  0  0  0  0  0  0  0  0  0  0  0
   46.5830   32.4980   40.3320 C   0  0  0  0  0  0  0  0  0  0  0  0
   48.0130   33.0990   43.5380 O   0  0  0  0  0  0  0  0  0  0  0  0
   46.9540   33.6190   44.2150 C   0  0  0  0  0  0  0  0  0  0  0  0
   46.3050   34.6320   43.4530 C   0  0  0  0  0  0  0  0  0  0  0  0
   45.1910   35.2730   44.0030 C   0  0  0  0  0  0  0  0  0  0  0  0
   44.7930   34.8860   45.2460 N   0  0  0  0  0  0  0  0  0  0  0  0
   45.4480   33.9240   45.9130 C   0  0  0  0  0  0  0  0  0  0  0  0
   46.4960   33.3060   45.4200 N   0  0  0  0  0  0  0  0  0  0  0  0
   45.0280   33.5420   47.1830 O   0  0  0  0  0  0  0  0  0  0  0  0
   45.4010   32.3970   47.8140 C   0  0  0  0  0  0  0  0  0  0  0  0
   45.8530   32.5260   48.9800 O   0  0  0  0  0  0  0  0  0  0  0  0
   47.5338   31.3676   44.1542 H   0  0  0  0  0  0  0  0  0  0  0  0
   50.1600   31.9801   42.4361 H   0  0  0  0  0  0  0  0  0  0  0  0
   50.0846   30.4635   42.7885 H   0  0  0  0  0  0  0  0  0  0  0  0
   47.6086   30.6485   41.1423 H   0  0  0  0  0  0  0  0  0  0  0  0
   48.4609   34.7837   38.8001 H   0  0  0  0  0  0  0  0  0  0  0  0
   45.8964   33.9752   38.7965 H   0  0  0  0  0  0  0  0  0  0  0  0
   45.6781   31.9274   40.5882 H   0  0  0  0  0  0  0  0  0  0  0  0
   46.6725   34.9044   42.4526 H   0  0  0  0  0  0  0  0  0  0  0  0
   44.6561   36.0606   43.4520 H   0  0  0  0  0  0  0  0  0  0  0  0
   45.3123   31.4126   47.3312 H   0  0  0  0  0  0  0  0  0  0  0  0
  1  9  1  0
  2  1  1  0
  3  2  1  0
  3  1  1  0
  4  3  1  0
  5  4  1  0
  6  7  1  0
  6  5  2  0
  7  8  2  0
  8  4  1  0
  9 10  1  0
 10 15  2  0
 11 12  2  0
 11 10  1  0
 12 13  1  0
 13 14  2  0
 14 16  1  0
 15 14  1  0
 16 17  1  0
 17 18  2  0
  1 19  1  1
  2 20  1  0
  2 21  1  0
  3 22  1  1
  6 23  1  0
  7 24  1  0
  8 25  1  0
 11 26  1  0
 12 27  1  0
 17 28  1  0
M  ISO  8  19  13  20  13  21  13  22  13  23  14  24  14  25  14  26  14
M  ISO  2  27  14  28   6
M  END
>  <minimizedAffinity>  (1) 
-4.04818678

>  <minimizedRMSD>  (1) 
2.15901184

$$$$
