
     RDKit          3D

 32 34  0  0  1  0  0  0  0  0999 V2000
   47.5920   32.3870   42.8540 C   0  0  2  0  0  0  0  0  0  0  0  0
   49.0450   32.3220   42.6020 C   0  0  0  0  0  0  0  0  0  0  0  0
   48.1340   31.9150   41.5300 C   0  0  2  0  0  0  0  0  0  0  0  0
   47.8560   32.6330   40.3350 N   0  0  0  0  0  0  0  0  0  0  0  0
   48.5540   33.6350   39.8300 N   0  0  0  0  0  0  0  0  0  0  0  0
   47.9910   34.0610   38.6930 C   0  0  0  0  0  0  0  0  0  0  0  0
   46.8590   33.2500   38.4930 C   0  0  0  0  0  0  0  0  0  0  0  0
   46.7770   32.3290   39.5560 C   0  0  0  0  0  0  0  0  0  0  0  0
   47.0060   33.6840   42.8040 O   0  0  0  0  0  0  0  0  0  0  0  0
   46.2180   34.1490   43.8000 C   0  0  0  0  0  0  0  0  0  0  0  0
   45.5610   35.3480   43.4170 C   0  0  0  0  0  0  0  0  0  0  0  0
   44.7010   35.9650   44.3400 C   0  0  0  0  0  0  0  0  0  0  0  0
   44.5450   35.3800   45.5520 N   0  0  0  0  0  0  0  0  0  0  0  0
   45.1980   34.2380   45.8590 C   0  0  0  0  0  0  0  0  0  0  0  0
   45.9950   33.6690   45.0000 N   0  0  0  0  0  0  0  0  0  0  0  0
   45.0360   33.6370   47.1090 O   0  0  0  0  0  0  0  0  0  0  0  0
   45.6580   32.3870   47.4170 C   0  0  0  0  0  0  0  0  0  0  0  0
   45.8160   32.2570   48.9130 C   0  0  0  0  0  0  0  0  0  0  0  0
   46.9232   31.9901   43.6319 H   0  0  0  0  0  0  0  0  0  0  0  0
   49.6234   33.2523   42.5023 H   0  0  0  0  0  0  0  0  0  0  0  0
   49.8925   31.8421   43.1133 H   0  0  0  0  0  0  0  0  0  0  0  0
   48.0793   31.0160   40.8984 H   0  0  0  0  0  0  0  0  0  0  0  0
   48.3420   34.8788   38.0465 H   0  0  0  0  0  0  0  0  0  0  0  0
   46.1568   33.3227   37.6494 H   0  0  0  0  0  0  0  0  0  0  0  0
   46.0204   31.5476   39.7199 H   0  0  0  0  0  0  0  0  0  0  0  0
   45.7220   35.7838   42.4199 H   0  0  0  0  0  0  0  0  0  0  0  0
   44.1704   36.8947   44.0867 H   0  0  0  0  0  0  0  0  0  0  0  0
   45.0321   31.5640   47.0418 H   0  0  0  0  0  0  0  0  0  0  0  0
   46.6478   32.3430   46.9391 H   0  0  0  0  0  0  0  0  0  0  0  0
   45.0609   32.8783   49.4168 H   0  0  0  0  0  0  0  0  0  0  0  0
   45.6805   31.2054   49.2060 H   0  0  0  0  0  0  0  0  0  0  0  0
   46.8218   32.5926   49.2060 H   0  0  0  0  0  0  0  0  0  0  0  0
  2  1  1  0
  3  2  1  0
  3  1  1  0
  4  3  1  0
  5  4  1  0
  6  5  2  0
  7  6  1  0
  7  8  2  0
  8  4  1  0
  9  1  1  0
  9 10  1  0
 10 15  1  0
 11 10  2  0
 11 12  1  0
 12 13  2  0
 13 14  1  0
 14 16  1  0
 15 14  2  0
 16 17  1  0
 17 18  1  0
  1 19  1  1
  2 20  1  0
  2 21  1  0
  3 22  1  6
  6 23  1  0
  7 24  1  0
  8 25  1  0
 11 26  1  0
 12 27  1  0
 17 28  1  0
 17 29  1  0
 18 30  1  0
 18 31  1  0
 18 32  1  0
M  ISO  8  19  13  20  13  21  13  22  13  23  14  24  14  25  14  26  14
M  ISO  6  27  14  28   8  29   8  30   8  31   8  32   8
M  END
>  <minimizedAffinity>  (1) 
-4.24594641

>  <minimizedRMSD>  (1) 
2.21452808

$$$$
