
     RDKit          3D

 39 42  0  0  1  0  0  0  0  0999 V2000
   46.2570   34.6170   43.5640 C   0  0  0  0  0  0  0  0  0  0  0  0
   45.3320   35.6810   43.5450 C   0  0  0  0  0  0  0  0  0  0  0  0
   44.4970   35.8550   44.6710 C   0  0  0  0  0  0  0  0  0  0  0  0
   44.6320   34.9860   45.7110 N   0  0  0  0  0  0  0  0  0  0  0  0
   45.5380   33.9900   45.6610 C   0  0  0  0  0  0  0  0  0  0  0  0
   46.3080   33.8330   44.6190 N   0  0  0  0  0  0  0  0  0  0  0  0
   46.9930   34.5730   42.4190 O   0  0  0  0  0  0  0  0  0  0  0  0
   48.4230   34.6870   42.4480 C   0  0  2  0  0  0  0  0  0  0  0  0
   48.9420   35.7140   41.5030 C   0  0  0  0  0  0  0  0  0  0  0  0
   49.1120   34.2800   41.1860 C   0  0  2  0  0  0  0  0  0  0  0  0
   48.3760   33.6020   40.1600 N   0  0  0  0  0  0  0  0  0  0  0  0
   47.7310   34.1200   39.1420 N   0  0  0  0  0  0  0  0  0  0  0  0
   47.1680   33.1610   38.4040 C   0  0  0  0  0  0  0  0  0  0  0  0
   47.4970   31.9520   39.0200 C   0  0  0  0  0  0  0  0  0  0  0  0
   48.2700   32.2530   40.1420 C   0  0  0  0  0  0  0  0  0  0  0  0
   45.6670   33.1090   46.7290 O   0  0  0  0  0  0  0  0  0  0  0  0
   46.9510   32.6410   47.1490 C   0  0  0  0  0  0  0  0  0  0  0  0
   46.8150   31.8600   48.4270 C   0  0  0  0  0  0  0  0  0  0  0  0
   46.3020   30.5030   48.1190 C   0  0  0  0  0  0  0  0  0  0  0  0
   45.0930   29.9210   48.3690 C   0  0  0  0  0  0  0  0  0  0  0  0
   45.0770   28.6160   47.8890 C   0  0  0  0  0  0  0  0  0  0  0  0
   46.3400   28.4770   47.3510 C   0  0  0  0  0  0  0  0  0  0  0  0
   47.0080   29.5820   47.5040 O   0  0  0  0  0  0  0  0  0  0  0  0
   45.2626   36.3556   42.6789 H   0  0  0  0  0  0  0  0  0  0  0  0
   43.7585   36.6694   44.7069 H   0  0  0  0  0  0  0  0  0  0  0  0
   48.5559   34.4469   43.5132 H   0  0  0  0  0  0  0  0  0  0  0  0
   48.2398   36.3258   40.9177 H   0  0  0  0  0  0  0  0  0  0  0  0
   49.6218   36.5744   41.5902 H   0  0  0  0  0  0  0  0  0  0  0  0
   49.9823   33.6656   40.9120 H   0  0  0  0  0  0  0  0  0  0  0  0
   46.5658   33.2960   37.4934 H   0  0  0  0  0  0  0  0  0  0  0  0
   47.2014   30.9475   38.6830 H   0  0  0  0  0  0  0  0  0  0  0  0
   48.7028   31.5423   40.8615 H   0  0  0  0  0  0  0  0  0  0  0  0
   47.3769   31.9932   46.3686 H   0  0  0  0  0  0  0  0  0  0  0  0
   47.6142   33.5021   47.3182 H   0  0  0  0  0  0  0  0  0  0  0  0
   47.7976   31.7795   48.9150 H   0  0  0  0  0  0  0  0  0  0  0  0
   46.1146   32.3748   49.1011 H   0  0  0  0  0  0  0  0  0  0  0  0
   44.2514   30.4139   48.8776 H   0  0  0  0  0  0  0  0  0  0  0  0
   44.2615   27.8789   47.9283 H   0  0  0  0  0  0  0  0  0  0  0  0
   46.7241   27.5678   46.8655 H   0  0  0  0  0  0  0  0  0  0  0  0
  1  6  1  0
  2  1  2  0
  2  3  1  0
  3  4  2  0
  5  4  1  0
  5 16  1  0
  6  5  2  0
  7  8  1  0
  7  1  1  0
  9  8  1  0
 10  9  1  0
 10  8  1  0
 11 10  1  0
 12 11  1  0
 13 14  1  0
 13 12  2  0
 14 15  2  0
 15 11  1  0
 16 17  1  0
 17 18  1  0
 19 20  2  0
 19 18  1  0
 21 20  1  0
 22 23  1  0
 22 21  2  0
 23 19  1  0
  2 24  1  0
  3 25  1  0
  8 26  1  1
  9 27  1  0
  9 28  1  0
 10 29  1  1
 13 30  1  0
 14 31  1  0
 15 32  1  0
 17 33  1  0
 17 34  1  0
 18 35  1  0
 18 36  1  0
 20 37  1  0
 21 38  1  0
 22 39  1  0
M  ISO  8  24  14  25  14  26  13  27  13  28  13  29  13  30  14  31  14
M  ISO  8  32  14  33   8  34   8  35   8  36   8  37  14  38  14  39  14
M  END
>  <minimizedAffinity>  (1) 
-5.31643915

>  <minimizedRMSD>  (1) 
2.57303596

$$$$
