
     RDKit          3D

 39 41  0  0  1  0  0  0  0  0999 V2000
   46.2360   34.5530   43.4820 C   0  0  0  0  0  0  0  0  0  0  0  0
   45.5290   35.7190   43.1400 C   0  0  0  0  0  0  0  0  0  0  0  0
   44.6160   36.2580   44.0600 C   0  0  0  0  0  0  0  0  0  0  0  0
   44.4600   35.6270   45.2360 N   0  0  0  0  0  0  0  0  0  0  0  0
   45.1620   34.5080   45.5200 C   0  0  0  0  0  0  0  0  0  0  0  0
   46.0090   34.0120   44.6600 N   0  0  0  0  0  0  0  0  0  0  0  0
   47.0820   34.1540   42.4940 O   0  0  0  0  0  0  0  0  0  0  0  0
   48.4920   34.0310   42.7230 C   0  0  2  0  0  0  0  0  0  0  0  0
   49.2760   35.1540   42.1350 C   0  0  0  0  0  0  0  0  0  0  0  0
   49.3120   33.8240   41.4910 C   0  0  2  0  0  0  0  0  0  0  0  0
   48.6660   33.5280   40.2460 N   0  0  0  0  0  0  0  0  0  0  0  0
   48.1570   34.3560   39.3660 N   0  0  0  0  0  0  0  0  0  0  0  0
   47.6410   33.6960   38.3340 C   0  0  0  0  0  0  0  0  0  0  0  0
   47.8490   32.3410   38.5980 C   0  0  0  0  0  0  0  0  0  0  0  0
   48.5060   32.2490   39.8260 C   0  0  0  0  0  0  0  0  0  0  0  0
   45.0000   33.8500   46.7470 O   0  0  0  0  0  0  0  0  0  0  0  0
   45.8010   32.7350   47.1030 C   0  0  0  0  0  0  0  0  0  0  0  0
   45.1220   31.9510   48.2180 C   0  0  0  0  0  0  0  0  0  0  0  0
   44.6930   30.6520   47.7520 N   0  0  0  0  0  0  0  0  0  0  0  0
   45.5750   29.5980   48.1290 C   0  0  0  0  0  0  0  0  0  0  0  0
   46.7840   29.7030   48.5610 N   0  0  0  0  0  0  0  0  0  0  0  0
   45.2270   28.2150   48.0790 N   0  0  0  0  0  0  0  0  0  0  0  0
   47.2640   30.6350   48.6840 H   0  0  0  0  0  0  0  0  0  0  0  0
   45.6890   36.2023   42.1649 H   0  0  0  0  0  0  0  0  0  0  0  0
   44.0458   37.1689   43.8254 H   0  0  0  0  0  0  0  0  0  0  0  0
   48.4272   33.5335   43.7019 H   0  0  0  0  0  0  0  0  0  0  0  0
   48.7549   35.9882   41.6425 H   0  0  0  0  0  0  0  0  0  0  0  0
   50.0364   35.8516   42.5161 H   0  0  0  0  0  0  0  0  0  0  0  0
   50.1304   33.1590   41.1779 H   0  0  0  0  0  0  0  0  0  0  0  0
   47.1495   34.1297   37.4506 H   0  0  0  0  0  0  0  0  0  0  0  0
   47.5498   31.4997   37.9556 H   0  0  0  0  0  0  0  0  0  0  0  0
   48.8262   31.3327   40.3435 H   0  0  0  0  0  0  0  0  0  0  0  0
   45.9325   32.0842   46.2260 H   0  0  0  0  0  0  0  0  0  0  0  0
   46.7829   33.0879   47.4513 H   0  0  0  0  0  0  0  0  0  0  0  0
   45.8315   31.8189   49.0482 H   0  0  0  0  0  0  0  0  0  0  0  0
   44.2373   32.5127   48.5522 H   0  0  0  0  0  0  0  0  0  0  0  0
   43.8350   30.5028   47.2020 H   0  0  0  0  0  0  0  0  0  0  0  0
   45.9116   27.5010   48.3659 H   0  0  0  0  0  0  0  0  0  0  0  0
   44.2912   27.9308   47.7560 H   0  0  0  0  0  0  0  0  0  0  0  0
  1  6  1  0
  2  1  2  0
  2  3  1  0
  3  4  2  0
  4  5  1  0
  5 16  1  0
  6  5  2  0
  7  8  1  0
  7  1  1  0
  9  8  1  0
 10  9  1  0
 10  8  1  0
 11 10  1  0
 12 11  1  0
 13 14  1  0
 13 12  2  0
 14 15  2  0
 15 11  1  0
 16 17  1  0
 17 18  1  0
 19 20  1  0
 19 18  1  0
 20 21  2  0
 21 23  1  0
 22 20  1  0
  2 24  1  0
  3 25  1  0
  8 26  1  1
  9 27  1  0
  9 28  1  0
 10 29  1  1
 13 30  1  0
 14 31  1  0
 15 32  1  0
 17 33  1  0
 17 34  1  0
 18 35  1  0
 18 36  1  0
 19 37  1  0
 22 38  1  0
 22 39  1  0
M  ISO  8  24  14  25  14  26  13  27  13  28  13  29  13  30  14  31  14
M  ISO  5  32  14  33   8  34   8  35   8  36   8
M  END
>  <minimizedAffinity>  (1) 
-5.29414225

>  <minimizedRMSD>  (1) 
1.78656435

$$$$
