
     RDKit          3D

 37 40  0  0  1  0  0  0  0  0999 V2000
   46.3060   34.2320   43.7640 C   0  0  0  0  0  0  0  0  0  0  0  0
   45.6130   35.3960   43.3730 C   0  0  0  0  0  0  0  0  0  0  0  0
   44.7080   35.9640   44.2850 C   0  0  0  0  0  0  0  0  0  0  0  0
   44.5460   35.3630   45.4980 N   0  0  0  0  0  0  0  0  0  0  0  0
   45.2390   34.2550   45.8040 C   0  0  0  0  0  0  0  0  0  0  0  0
   46.0790   33.7230   44.9630 N   0  0  0  0  0  0  0  0  0  0  0  0
   47.1460   33.7960   42.7880 O   0  0  0  0  0  0  0  0  0  0  0  0
   48.5590   33.6890   43.0110 C   0  0  2  0  0  0  0  0  0  0  0  0
   49.3180   34.8870   42.5600 C   0  0  0  0  0  0  0  0  0  0  0  0
   49.3890   33.6410   41.7700 C   0  0  2  0  0  0  0  0  0  0  0  0
   48.7560   33.4730   40.4950 N   0  0  0  0  0  0  0  0  0  0  0  0
   48.1660   34.3760   39.7490 N   0  0  0  0  0  0  0  0  0  0  0  0
   47.6950   33.8290   38.6280 C   0  0  0  0  0  0  0  0  0  0  0  0
   48.0240   32.4750   38.6920 C   0  0  0  0  0  0  0  0  0  0  0  0
   48.7030   32.2610   39.8930 C   0  0  0  0  0  0  0  0  0  0  0  0
   45.0690   33.6430   47.0490 O   0  0  0  0  0  0  0  0  0  0  0  0
   45.5920   32.3460   47.3130 C   0  0  0  0  0  0  0  0  0  0  0  0
   46.1250   32.2730   48.7190 C   0  0  0  0  0  0  0  0  0  0  0  0
   47.2750   31.3190   48.6810 C   0  0  0  0  0  0  0  0  0  0  0  0
   47.3010   30.0880   48.1390 N   0  0  0  0  0  0  0  0  0  0  0  0
   48.4690   29.5380   48.2880 O   0  0  0  0  0  0  0  0  0  0  0  0
   49.2660   30.3710   48.9300 C   0  0  0  0  0  0  0  0  0  0  0  0
   48.5300   31.4680   49.1720 N   0  0  0  0  0  0  0  0  0  0  0  0
   45.7762   35.8462   42.3827 H   0  0  0  0  0  0  0  0  0  0  0  0
   44.1435   36.8721   44.0266 H   0  0  0  0  0  0  0  0  0  0  0  0
   48.5016   33.0856   43.9290 H   0  0  0  0  0  0  0  0  0  0  0  0
   48.7797   35.7595   42.1613 H   0  0  0  0  0  0  0  0  0  0  0  0
   50.0598   35.5540   43.0234 H   0  0  0  0  0  0  0  0  0  0  0  0
   50.2244   33.0349   41.3895 H   0  0  0  0  0  0  0  0  0  0  0  0
   47.1563   34.3414   37.8173 H   0  0  0  0  0  0  0  0  0  0  0  0
   47.7906   31.7135   37.9333 H   0  0  0  0  0  0  0  0  0  0  0  0
   49.1085   31.3105   40.2700 H   0  0  0  0  0  0  0  0  0  0  0  0
   44.7928   31.6004   47.1889 H   0  0  0  0  0  0  0  0  0  0  0  0
   46.4118   32.1410   46.6088 H   0  0  0  0  0  0  0  0  0  0  0  0
   46.4640   33.2657   49.0501 H   0  0  0  0  0  0  0  0  0  0  0  0
   45.3500   31.9381   49.4242 H   0  0  0  0  0  0  0  0  0  0  0  0
   50.3164   30.2018   49.2093 H   0  0  0  0  0  0  0  0  0  0  0  0
  1  6  1  0
  2  1  2  0
  2  3  1  0
  3  4  2  0
  4  5  1  0
  5 16  1  0
  6  5  2  0
  7  8  1  0
  7  1  1  0
  9  8  1  0
 10  9  1  0
 10  8  1  0
 11 10  1  0
 12 11  1  0
 13 14  1  0
 13 12  2  0
 14 15  2  0
 15 11  1  0
 16 17  1  0
 17 18  1  0
 19 18  1  0
 19 23  1  0
 20 21  1  0
 20 19  2  0
 21 22  1  0
 22 23  2  0
  2 24  1  0
  3 25  1  0
  8 26  1  1
  9 27  1  0
  9 28  1  0
 10 29  1  1
 13 30  1  0
 14 31  1  0
 15 32  1  0
 17 33  1  0
 17 34  1  0
 18 35  1  0
 18 36  1  0
 22 37  1  0
M  ISO  8  24  14  25  14  26  13  27  13  28  13  29  13  30  14  31  14
M  ISO  6  32  14  33   8  34   8  35   8  36   8  37  14
M  END
>  <minimizedAffinity>  (1) 
-5.27363491

>  <minimizedRMSD>  (1) 
1.25683522

$$$$
