
     RDKit          3D

 39 42  0  0  1  0  0  0  0  0999 V2000
   46.1390   34.9600   43.2070 C   0  0  0  0  0  0  0  0  0  0  0  0
   45.2600   36.0580   43.2580 C   0  0  0  0  0  0  0  0  0  0  0  0
   44.4640   36.2170   44.4100 C   0  0  0  0  0  0  0  0  0  0  0  0
   44.5860   35.3050   45.4080 N   0  0  0  0  0  0  0  0  0  0  0  0
   45.4440   34.2790   45.2970 C   0  0  0  0  0  0  0  0  0  0  0  0
   46.1820   34.1290   44.2340 N   0  0  0  0  0  0  0  0  0  0  0  0
   46.8450   34.9310   42.0430 O   0  0  0  0  0  0  0  0  0  0  0  0
   48.2760   34.8820   42.0370 C   0  0  2  0  0  0  0  0  0  0  0  0
   48.8890   35.6580   40.9220 C   0  0  0  0  0  0  0  0  0  0  0  0
   48.8750   34.1820   40.8610 C   0  0  2  0  0  0  0  0  0  0  0  0
   48.0350   33.4320   39.9740 N   0  0  0  0  0  0  0  0  0  0  0  0
   47.4220   33.8390   38.8890 N   0  0  0  0  0  0  0  0  0  0  0  0
   46.7300   32.8440   38.3340 C   0  0  0  0  0  0  0  0  0  0  0  0
   46.9370   31.7290   39.1470 C   0  0  0  0  0  0  0  0  0  0  0  0
   47.7760   32.1200   40.1940 C   0  0  0  0  0  0  0  0  0  0  0  0
   45.5720   33.3360   46.3260 O   0  0  0  0  0  0  0  0  0  0  0  0
   46.8200   32.7180   46.6080 C   0  0  0  0  0  0  0  0  0  0  0  0
   46.7440   31.9500   47.8950 C   0  0  0  0  0  0  0  0  0  0  0  0
   45.3740   31.4780   48.2450 C   0  0  0  0  0  0  0  0  0  0  0  0
   45.0970   30.1250   48.7360 C   0  0  0  0  0  0  0  0  0  0  0  0
   45.0370   31.2730   49.6860 C   0  0  0  0  0  0  0  0  0  0  0  0
   45.1962   36.7713   42.4230 H   0  0  0  0  0  0  0  0  0  0  0  0
   43.7616   37.0589   44.4982 H   0  0  0  0  0  0  0  0  0  0  0  0
   48.4092   34.8205   43.1272 H   0  0  0  0  0  0  0  0  0  0  0  0
   48.2497   36.2414   40.2430 H   0  0  0  0  0  0  0  0  0  0  0  0
   49.6701   36.4294   40.8521 H   0  0  0  0  0  0  0  0  0  0  0  0
   49.6568   33.4266   40.6933 H   0  0  0  0  0  0  0  0  0  0  0  0
   46.1195   32.8922   37.4202 H   0  0  0  0  0  0  0  0  0  0  0  0
   46.5162   30.7246   38.9919 H   0  0  0  0  0  0  0  0  0  0  0  0
   48.1470   31.4960   41.0204 H   0  0  0  0  0  0  0  0  0  0  0  0
   47.0767   32.0294   45.7895 H   0  0  0  0  0  0  0  0  0  0  0  0
   47.5909   33.4970   46.7021 H   0  0  0  0  0  0  0  0  0  0  0  0
   47.4007   31.0715   47.8118 H   0  0  0  0  0  0  0  0  0  0  0  0
   47.0542   32.6400   48.6936 H   0  0  0  0  0  0  0  0  0  0  0  0
   44.9757   32.0651   47.4044 H   0  0  0  0  0  0  0  0  0  0  0  0
   44.1710   29.6122   48.4368 H   0  0  0  0  0  0  0  0  0  0  0  0
   45.6380   29.1675   48.7126 H   0  0  0  0  0  0  0  0  0  0  0  0
   45.8114   31.3935   50.4579 H   0  0  0  0  0  0  0  0  0  0  0  0
   44.2871   31.6774   50.3818 H   0  0  0  0  0  0  0  0  0  0  0  0
  1  2  2  0
  1  6  1  0
  2  3  1  0
  3  4  2  0
  5  4  1  0
  5 16  1  0
  6  5  2  0
  7  1  1  0
  8  7  1  0
  9  8  1  0
 10  9  1  0
 10  8  1  0
 11 15  1  0
 11 10  1  0
 12 11  1  0
 13 12  2  0
 13 14  1  0
 14 15  2  0
 16 17  1  0
 17 18  1  0
 18 19  1  0
 19 20  1  0
 19 21  1  0
 20 21  1  0
  2 22  1  0
  3 23  1  0
  8 24  1  1
  9 25  1  0
  9 26  1  0
 10 27  1  1
 13 28  1  0
 14 29  1  0
 15 30  1  0
 17 31  1  0
 17 32  1  0
 18 33  1  0
 18 34  1  0
 19 35  1  0
 20 36  1  0
 20 37  1  0
 21 38  1  0
 21 39  1  0
M  ISO  8  22  14  23  14  24  13  25  13  26  13  27  13  28  14  29  14
M  ISO  8  30  14  31   8  32   8  33   8  34   8  35  13  36  13  37  13
M  ISO  2  38  13  39  13
M  END
>  <minimizedAffinity>  (1) 
-5.19675207

>  <minimizedRMSD>  (1) 
1.73326015

$$$$
