
     RDKit          3D

 33 35  0  0  1  0  0  0  0  0999 V2000
   46.3090   34.3570   43.6720 C   0  0  0  0  0  0  0  0  0  0  0  0
   45.5810   35.5130   43.3440 C   0  0  0  0  0  0  0  0  0  0  0  0
   44.6690   36.0280   44.2810 C   0  0  0  0  0  0  0  0  0  0  0  0
   44.5360   35.3780   45.4610 N   0  0  0  0  0  0  0  0  0  0  0  0
   45.2580   34.2740   45.7240 C   0  0  0  0  0  0  0  0  0  0  0  0
   46.1000   33.8040   44.8510 N   0  0  0  0  0  0  0  0  0  0  0  0
   47.1520   33.9760   42.6740 O   0  0  0  0  0  0  0  0  0  0  0  0
   48.5590   33.8180   42.9060 C   0  0  2  0  0  0  0  0  0  0  0  0
   49.3590   34.9750   42.4110 C   0  0  0  0  0  0  0  0  0  0  0  0
   49.3880   33.6980   41.6690 C   0  0  2  0  0  0  0  0  0  0  0  0
   48.7510   33.5020   40.3990 N   0  0  0  0  0  0  0  0  0  0  0  0
   48.1990   34.3920   39.6120 N   0  0  0  0  0  0  0  0  0  0  0  0
   47.7080   33.8230   38.5140 C   0  0  0  0  0  0  0  0  0  0  0  0
   47.9820   32.4600   38.6360 C   0  0  0  0  0  0  0  0  0  0  0  0
   48.6500   32.2680   39.8480 C   0  0  0  0  0  0  0  0  0  0  0  0
   45.1150   33.6100   46.9440 O   0  0  0  0  0  0  0  0  0  0  0  0
   45.7640   32.3580   47.1810 C   0  0  0  0  0  0  0  0  0  0  0  0
   46.1510   32.2270   48.6270 C   0  0  0  0  0  0  0  0  0  0  0  0
   47.5640   31.1240   48.8710 S   0  0  0  0  0  0  0  0  0  0  0  0
   45.7224   36.0062   42.3710 H   0  0  0  0  0  0  0  0  0  0  0  0
   44.0812   36.9317   44.0623 H   0  0  0  0  0  0  0  0  0  0  0  0
   48.4805   33.2469   43.8428 H   0  0  0  0  0  0  0  0  0  0  0  0
   48.8502   35.8493   41.9790 H   0  0  0  0  0  0  0  0  0  0  0  0
   50.1225   35.6341   42.8500 H   0  0  0  0  0  0  0  0  0  0  0  0
   50.2034   33.0512   41.3129 H   0  0  0  0  0  0  0  0  0  0  0  0
   47.1923   34.3238   37.6814 H   0  0  0  0  0  0  0  0  0  0  0  0
   47.7193   31.6776   37.9088 H   0  0  0  0  0  0  0  0  0  0  0  0
   49.0157   31.3184   40.2656 H   0  0  0  0  0  0  0  0  0  0  0  0
   45.0787   31.5397   46.9148 H   0  0  0  0  0  0  0  0  0  0  0  0
   46.6740   32.3086   46.5650 H   0  0  0  0  0  0  0  0  0  0  0  0
   46.4108   33.2234   49.0140 H   0  0  0  0  0  0  0  0  0  0  0  0
   45.2938   31.7945   49.1637 H   0  0  0  0  0  0  0  0  0  0  0  0
   47.7834   30.9528   50.2124 H   0  0  0  0  0  0  0  0  0  0  0  0
  1  6  1  0
  2  1  2  0
  2  3  1  0
  3  4  2  0
  4  5  1  0
  5 16  1  0
  6  5  2  0
  7  8  1  0
  7  1  1  0
  9  8  1  0
 10  9  1  0
 10  8  1  0
 11 10  1  0
 12 11  1  0
 13 14  1  0
 13 12  2  0
 14 15  2  0
 15 11  1  0
 16 17  1  0
 17 18  1  0
 18 19  1  0
  2 20  1  0
  3 21  1  0
  8 22  1  1
  9 23  1  0
  9 24  1  0
 10 25  1  1
 13 26  1  0
 14 27  1  0
 15 28  1  0
 17 29  1  0
 17 30  1  0
 18 31  1  0
 18 32  1  0
 19 33  1  0
M  ISO  8  20  14  21  14  22  13  23  13  24  13  25  13  26  14  27  14
M  ISO  6  28  14  29   8  30   8  31   8  32   8  33  11
M  END
>  <minimizedAffinity>  (1) 
-4.73951578

>  <minimizedRMSD>  (1) 
1.14758551

$$$$
