
     RDKit          3D

 45 48  0  0  1  0  0  0  0  0999 V2000
   48.5960   34.3070   40.3210 C   0  0  0  0  0  0  0  0  0  0  0  0
   48.7850   35.5400   40.9740 C   0  0  0  0  0  0  0  0  0  0  0  0
   49.4300   35.5780   42.2140 C   0  0  0  0  0  0  0  0  0  0  0  0
   49.8520   34.3900   42.7360 N   0  0  0  0  0  0  0  0  0  0  0  0
   49.6490   33.2400   42.0750 C   0  0  0  0  0  0  0  0  0  0  0  0
   49.0430   33.2130   40.9130 N   0  0  0  0  0  0  0  0  0  0  0  0
   47.9570   34.4420   39.1340 O   0  0  0  0  0  0  0  0  0  0  0  0
   48.2110   33.5450   38.0430 C   0  0  2  0  0  0  0  0  0  0  0  0
   47.3180   33.7880   36.8750 C   0  0  0  0  0  0  0  0  0  0  0  0
   47.0920   32.6050   37.7310 C   0  0  2  0  0  0  0  0  0  0  0  0
   45.9910   32.4820   38.6390 N   0  0  0  0  0  0  0  0  0  0  0  0
   44.8690   33.1580   38.6680 N   0  0  0  0  0  0  0  0  0  0  0  0
   44.0900   32.7540   39.6650 C   0  0  0  0  0  0  0  0  0  0  0  0
   44.7910   31.7350   40.3120 C   0  0  0  0  0  0  0  0  0  0  0  0
   46.0080   31.5730   39.6440 C   0  0  0  0  0  0  0  0  0  0  0  0
   50.0830   32.0230   42.6120 O   0  0  0  0  0  0  0  0  0  0  0  0
   49.1780   30.9660   42.8970 C   0  0  0  0  0  0  0  0  0  0  0  0
   47.7690   31.4950   43.0000 C   0  0  0  0  0  0  0  0  0  0  0  0
   46.5530   31.9250   47.0490 C   0  0  0  0  0  0  0  0  0  0  0  0
   47.0410   30.7370   46.5480 C   0  0  0  0  0  0  0  0  0  0  0  0
   47.4290   30.6120   45.2450 C   0  0  0  0  0  0  0  0  0  0  0  0
   47.3340   31.7100   44.3820 C   0  0  0  0  0  0  0  0  0  0  0  0
   46.8480   32.9020   44.8750 C   0  0  0  0  0  0  0  0  0  0  0  0
   46.4590   33.0180   46.1950 C   0  0  0  0  0  0  0  0  0  0  0  0
   46.0830   31.9650   48.7520 S   0  0  0  0  0  0  0  0  0  0  0  0
   47.0270   31.0460   49.4980 O   0  0  0  0  0  0  0  0  0  0  0  0
   44.6980   31.4260   48.8310 O   0  0  0  0  0  0  0  0  0  0  0  0
   48.4263   36.4706   40.5100 H   0  0  0  0  0  0  0  0  0  0  0  0
   49.5907   36.5268   42.7469 H   0  0  0  0  0  0  0  0  0  0  0  0
   49.2927   33.4322   38.2078 H   0  0  0  0  0  0  0  0  0  0  0  0
   47.7042   33.6601   35.8530 H   0  0  0  0  0  0  0  0  0  0  0  0
   46.6963   34.6300   36.5366 H   0  0  0  0  0  0  0  0  0  0  0  0
   46.9856   31.5306   37.5204 H   0  0  0  0  0  0  0  0  0  0  0  0
   43.0951   33.1431   39.9274 H   0  0  0  0  0  0  0  0  0  0  0  0
   44.4483   31.1639   41.1875 H   0  0  0  0  0  0  0  0  0  0  0  0
   46.8098   30.8589   39.8833 H   0  0  0  0  0  0  0  0  0  0  0  0
   49.2270   30.2193   42.0907 H   0  0  0  0  0  0  0  0  0  0  0  0
   49.4576   30.5050   43.8558 H   0  0  0  0  0  0  0  0  0  0  0  0
   47.7152   32.4536   42.4632 H   0  0  0  0  0  0  0  0  0  0  0  0
   47.1023   30.7382   42.5610 H   0  0  0  0  0  0  0  0  0  0  0  0
   47.1199   29.8665   47.2159 H   0  0  0  0  0  0  0  0  0  0  0  0
   47.8152   29.6510   44.8744 H   0  0  0  0  0  0  0  0  0  0  0  0
   46.7689   33.7729   44.2077 H   0  0  0  0  0  0  0  0  0  0  0  0
   46.0740   33.9772   46.5715 H   0  0  0  0  0  0  0  0  0  0  0  0
   46.1353   33.2266   49.2836 H   0  0  0  0  0  0  0  0  0  0  0  0
  1  6  1  0
  1  2  2  0
  2  3  1  0
  3  4  2  0
  5 16  1  0
  5  4  1  0
  6  5  2  0
  7  1  1  0
  8  7  1  0
  9 10  1  0
  9  8  1  0
 10  8  1  0
 10 11  1  0
 11 12  1  0
 11 15  1  0
 12 13  2  0
 13 14  1  0
 15 14  2  0
 16 17  1  0
 17 18  1  0
 18 22  1  0
 19 25  1  0
 20 19  2  0
 21 20  1  0
 22 23  1  0
 22 21  2  0
 23 24  2  0
 24 19  1  0
 25 27  2  0
 25 26  2  0
  2 28  1  0
  3 29  1  0
  8 30  1  6
  9 31  1  0
  9 32  1  0
 10 33  1  6
 13 34  1  0
 14 35  1  0
 15 36  1  0
 17 37  1  0
 17 38  1  0
 18 39  1  0
 18 40  1  0
 20 41  1  0
 21 42  1  0
 23 43  1  0
 24 44  1  0
 25 45  1  0
M  ISO  8  28  14  29  14  30  13  31  13  32  13  33  13  34  14  35  14
M  ISO  8  36  14  37   8  38   8  39   8  40   8  41  14  42  14  43  14
M  ISO  2  44  14  45  11
M  END
>  <minimizedAffinity>  (1) 
-4.7246356

>  <minimizedRMSD>  (1) 
5.35833073

$$$$
