
     RDKit          3D

 34 37  0  0  1  0  0  0  0  0999 V2000
   47.2100   33.7380   42.5130 C   0  0  2  0  0  0  0  0  0  0  0  0
   48.5850   33.4600   42.9230 C   0  0  0  0  0  0  0  0  0  0  0  0
   49.4690   34.6090   42.4290 C   0  0  0  0  0  0  0  0  0  0  0  0
   48.5540   35.6320   41.8010 C   0  0  0  0  0  0  0  0  0  0  0  0
   47.3510   34.8510   41.4340 C   0  0  1  0  0  0  0  0  0  0  0  0
   47.3700   34.3030   40.1110 N   0  0  0  0  0  0  0  0  0  0  0  0
   48.3570   34.4040   39.2030 C   0  0  0  0  0  0  0  0  0  0  0  0
   48.0330   33.7640   38.0610 N   0  0  0  0  0  0  0  0  0  0  0  0
   46.8230   33.2270   38.1940 C   0  0  0  0  0  0  0  0  0  0  0  0
   45.9600   32.4780   37.4220 C   0  0  0  0  0  0  0  0  0  0  0  0
   44.7360   32.0540   37.8390 N   0  0  0  0  0  0  0  0  0  0  0  0
   44.3910   32.4130   39.0940 C   0  0  0  0  0  0  0  0  0  0  0  0
   45.2040   33.1520   39.9010 N   0  0  0  0  0  0  0  0  0  0  0  0
   46.4280   33.5690   39.4650 C   0  0  0  0  0  0  0  0  0  0  0  0
   46.2980   34.2980   43.5250 C   0  0  0  0  0  0  0  0  0  0  0  0
   46.2040   33.6760   44.7790 C   0  0  0  0  0  0  0  0  0  0  0  0
   45.3540   34.2060   45.7500 C   0  0  0  0  0  0  0  0  0  0  0  0
   44.6470   35.3260   45.4080 N   0  0  0  0  0  0  0  0  0  0  0  0
   44.7600   35.9070   44.1790 C   0  0  0  0  0  0  0  0  0  0  0  0
   45.5850   35.3910   43.2400 N   0  0  0  0  0  0  0  0  0  0  0  0
   46.7705   32.7730   42.2204 H   0  0  0  0  0  0  0  0  0  0  0  0
   48.6407   33.3913   44.0194 H   0  0  0  0  0  0  0  0  0  0  0  0
   48.9253   32.5055   42.4950 H   0  0  0  0  0  0  0  0  0  0  0  0
   50.0131   35.0569   43.2736 H   0  0  0  0  0  0  0  0  0  0  0  0
   50.2115   34.2481   41.7021 H   0  0  0  0  0  0  0  0  0  0  0  0
   48.3018   36.4258   42.5195 H   0  0  0  0  0  0  0  0  0  0  0  0
   49.0112   36.1396   40.9389 H   0  0  0  0  0  0  0  0  0  0  0  0
   46.4819   35.5250   41.4136 H   0  0  0  0  0  0  0  0  0  0  0  0
   49.3039   34.9383   39.3699 H   0  0  0  0  0  0  0  0  0  0  0  0
   46.2811   32.2063   36.4056 H   0  0  0  0  0  0  0  0  0  0  0  0
   43.4119   32.0955   39.4819 H   0  0  0  0  0  0  0  0  0  0  0  0
   46.7973   32.7753   44.9954 H   0  0  0  0  0  0  0  0  0  0  0  0
   45.2569   33.7449   46.7440 H   0  0  0  0  0  0  0  0  0  0  0  0
   44.1719   36.8076   43.9486 H   0  0  0  0  0  0  0  0  0  0  0  0
  1  2  1  0
  1 15  1  0
  3  2  1  0
  4  3  1  0
  5  4  1  0
  5  1  1  0
  6  5  1  0
  7  6  1  0
  8  9  1  0
  8  7  2  0
  9 14  2  0
 10 11  2  0
 10  9  1  0
 11 12  1  0
 12 13  2  0
 14 13  1  0
 14  6  1  0
 15 16  2  0
 16 17  1  0
 18 17  2  0
 19 18  1  0
 20 15  1  0
 20 19  2  0
  1 21  1  6
  2 22  1  0
  2 23  1  0
  3 24  1  0
  3 25  1  0
  4 26  1  0
  4 27  1  0
  5 28  1  6
  7 29  1  0
 10 30  1  0
 12 31  1  0
 16 32  1  0
 17 33  1  0
 19 34  1  0
M  ISO  8  21  13  22  13  23  13  24  13  25  13  26  13  27  13  28  13
M  ISO  6  29  14  30  14  31  14  32  14  33  14  34  14
M  END
>  <minimizedAffinity>  (1) 
-5.57326794

>  <minimizedRMSD>  (1) 
5.24396801

$$$$
