
     RDKit          3D

 26 27  0  0  0  0  0  0  0  0999 V2000
   44.6310   35.9600   44.3740 C   0  0  0  0  0  0  0  0  0  0  0  0
   45.4380   35.9520   43.2240 C   0  0  0  0  0  0  0  0  0  0  0  0
   46.3790   34.9220   43.0880 C   0  0  0  0  0  0  0  0  0  0  0  0
   46.4430   33.9970   44.0890 N   0  0  0  0  0  0  0  0  0  0  0  0
   45.6530   34.0390   45.1730 C   0  0  0  0  0  0  0  0  0  0  0  0
   44.7380   35.0170   45.3320 N   0  0  0  0  0  0  0  0  0  0  0  0
   47.2250   34.8940   41.9080 C   0  0  0  0  0  0  0  0  0  0  0  0
   48.2100   35.6910   41.8060 O   0  0  0  0  0  0  0  0  0  0  0  0
   46.9510   33.9570   40.8450 N   0  0  0  0  0  0  0  0  0  0  0  0
   48.0040   33.4190   40.0040 C   0  0  0  0  0  0  0  0  0  0  0  0
   47.6080   33.1930   38.5850 C   0  0  0  0  0  0  0  0  0  0  0  0
   46.3090   33.7620   38.3180 N   0  0  0  0  0  0  0  0  0  0  0  0
   45.3730   33.0490   39.1980 C   0  0  0  0  0  0  0  0  0  0  0  0
   45.5850   33.5420   40.6080 C   0  0  0  0  0  0  0  0  0  0  0  0
   43.8877   36.7615   44.4969 H   0  0  0  0  0  0  0  0  0  0  0  0
   45.3345   36.7304   42.4537 H   0  0  0  0  0  0  0  0  0  0  0  0
   45.7535   33.2622   45.9453 H   0  0  0  0  0  0  0  0  0  0  0  0
   48.8479   34.1244   40.0168 H   0  0  0  0  0  0  0  0  0  0  0  0
   48.2610   32.4326   40.4176 H   0  0  0  0  0  0  0  0  0  0  0  0
   48.3506   33.6639   37.9241 H   0  0  0  0  0  0  0  0  0  0  0  0
   47.5628   32.1096   38.4001 H   0  0  0  0  0  0  0  0  0  0  0  0
   46.3073   34.7693   38.5330 H   0  0  0  0  0  0  0  0  0  0  0  0
   44.3385   33.2518   38.8840 H   0  0  0  0  0  0  0  0  0  0  0  0
   45.5503   31.9648   39.1434 H   0  0  0  0  0  0  0  0  0  0  0  0
   44.9188   34.3988   40.7871 H   0  0  0  0  0  0  0  0  0  0  0  0
   45.3624   32.7102   41.2925 H   0  0  0  0  0  0  0  0  0  0  0  0
  1  6  2  0
  2  1  1  0
  3  2  2  0
  3  4  1  0
  4  5  2  0
  5  6  1  0
  7  3  1  0
  8  7  2  0
  9  7  1  0
 10  9  1  0
 11 10  1  0
 12 11  1  0
 12 13  1  0
 13 14  1  0
 14  9  1  0
  1 15  1  0
  2 16  1  0
  5 17  1  0
 10 18  1  0
 10 19  1  0
 11 20  1  0
 11 21  1  0
 12 22  1  0
 13 23  1  0
 13 24  1  0
 14 25  1  0
 14 26  1  0
M  ISO  8  15  14  16  14  17  14  18  13  19  13  20  13  21  13  22   5
M  ISO  4  23  13  24  13  25  13  26  13
M  END
>  <minimizedAffinity>  (1) 
-4.41941595

>  <minimizedRMSD>  (1) 
0.407734185

$$$$
