
     RDKit          3D

 20 21  0  0  0  0  0  0  0  0999 V2000
   44.6000   36.0110   44.4730 C   0  0  0  0  0  0  0  0  0  0  0  0
   45.3840   36.0200   43.2850 C   0  0  0  0  0  0  0  0  0  0  0  0
   46.2770   34.9760   43.1230 C   0  0  0  0  0  0  0  0  0  0  0  0
   46.3650   34.0130   44.0800 N   0  0  0  0  0  0  0  0  0  0  0  0
   45.5960   34.0450   45.1990 C   0  0  0  0  0  0  0  0  0  0  0  0
   44.7010   35.0520   45.4050 N   0  0  0  0  0  0  0  0  0  0  0  0
   47.0880   34.9650   41.9200 C   0  0  0  0  0  0  0  0  0  0  0  0
   48.1950   35.5360   41.8310 O   0  0  0  0  0  0  0  0  0  0  0  0
   46.5910   34.2510   40.7380 C   0  0  0  0  0  0  0  0  0  0  0  0
   47.4830   33.9440   39.7080 C   0  0  0  0  0  0  0  0  0  0  0  0
   46.9140   33.2660   38.6310 C   0  0  0  0  0  0  0  0  0  0  0  0
   45.6150   32.9120   38.5410 N   0  0  0  0  0  0  0  0  0  0  0  0
   44.8010   33.2320   39.5600 C   0  0  0  0  0  0  0  0  0  0  0  0
   45.2920   33.8860   40.6260 N   0  0  0  0  0  0  0  0  0  0  0  0
   43.8796   36.8266   44.6337 H   0  0  0  0  0  0  0  0  0  0  0  0
   45.2848   36.8171   42.5335 H   0  0  0  0  0  0  0  0  0  0  0  0
   45.6969   33.2471   45.9495 H   0  0  0  0  0  0  0  0  0  0  0  0
   48.5484   34.2153   39.7437 H   0  0  0  0  0  0  0  0  0  0  0  0
   47.5733   32.9997   37.7917 H   0  0  0  0  0  0  0  0  0  0  0  0
   43.7359   32.9596   39.5221 H   0  0  0  0  0  0  0  0  0  0  0  0
  1  6  2  0
  2  1  1  0
  3  2  2  0
  3  4  1  0
  4  5  2  0
  5  6  1  0
  7  3  1  0
  8  7  2  0
  9  7  1  0
 10  9  2  0
 11 10  1  0
 12 11  2  0
 12 13  1  0
 13 14  2  0
 14  9  1  0
  1 15  1  0
  2 16  1  0
  5 17  1  0
 10 18  1  0
 11 19  1  0
 13 20  1  0
M  ISO  6  15  14  16  14  17  14  18  14  19  14  20  14
M  END
>  <minimizedAffinity>  (1) 
-4.22948503

>  <minimizedRMSD>  (1) 
1.03978801

$$$$
