
     RDKit          3D

 19 20  0  0  0  0  0  0  0  0999 V2000
   44.6130   35.9270   44.3970 C   0  0  0  0  0  0  0  0  0  0  0  0
   45.4370   35.9510   43.2440 C   0  0  0  0  0  0  0  0  0  0  0  0
   46.3840   34.9500   43.1040 C   0  0  0  0  0  0  0  0  0  0  0  0
   46.4610   34.0150   44.0770 N   0  0  0  0  0  0  0  0  0  0  0  0
   45.6730   34.0040   45.1660 C   0  0  0  0  0  0  0  0  0  0  0  0
   44.7360   34.9750   45.3250 N   0  0  0  0  0  0  0  0  0  0  0  0
   47.2360   34.9570   41.9320 C   0  0  0  0  0  0  0  0  0  0  0  0
   48.3590   35.5160   41.9180 O   0  0  0  0  0  0  0  0  0  0  0  0
   46.8050   34.2980   40.7030 C   0  0  0  0  0  0  0  0  0  0  0  0
   47.6640   33.9620   39.6540 C   0  0  0  0  0  0  0  0  0  0  0  0
   46.8450   33.3580   38.6930 C   0  0  0  0  0  0  0  0  0  0  0  0
   45.5840   33.3440   39.1560 N   0  0  0  0  0  0  0  0  0  0  0  0
   45.5390   33.9080   40.3730 N   0  0  0  0  0  0  0  0  0  0  0  0
   43.8538   36.7117   44.5305 H   0  0  0  0  0  0  0  0  0  0  0  0
   45.3279   36.7394   42.4847 H   0  0  0  0  0  0  0  0  0  0  0  0
   45.7860   33.2142   45.9233 H   0  0  0  0  0  0  0  0  0  0  0  0
   48.7488   34.1346   39.5958 H   0  0  0  0  0  0  0  0  0  0  0  0
   47.1778   32.9616   37.7224 H   0  0  0  0  0  0  0  0  0  0  0  0
   44.7728   32.9580   38.6522 H   0  0  0  0  0  0  0  0  0  0  0  0
  1  6  2  0
  2  1  1  0
  3  2  2  0
  3  4  1  0
  4  5  2  0
  5  6  1  0
  7  3  1  0
  8  7  2  0
  9  7  1  0
 10  9  1  0
 11 12  1  0
 11 10  2  0
 12 13  1  0
 13  9  2  0
  1 14  1  0
  2 15  1  0
  5 16  1  0
 10 17  1  0
 11 18  1  0
 12 19  1  0
M  ISO  6  14  14  15  14  16  14  17  14  18  14  19   9
M  END
>  <minimizedAffinity>  (1) 
-4.16666126

>  <minimizedRMSD>  (1) 
0.84833622

$$$$
