
     RDKit          3D

 14 14  0  0  0  0  0  0  0  0999 V2000
   44.5360   36.0360   44.5010 C   0  0  0  0  0  0  0  0  0  0  0  0
   45.2050   35.9550   43.2470 C   0  0  0  0  0  0  0  0  0  0  0  0
   46.0660   34.8940   43.0450 C   0  0  0  0  0  0  0  0  0  0  0  0
   46.2480   33.9810   44.0160 N   0  0  0  0  0  0  0  0  0  0  0  0
   45.6010   34.0770   45.2050 C   0  0  0  0  0  0  0  0  0  0  0  0
   44.7410   35.1040   45.4550 N   0  0  0  0  0  0  0  0  0  0  0  0
   46.7320   34.8390   41.7550 C   0  0  0  0  0  0  0  0  0  0  0  0
   47.9340   35.1190   41.5640 O   0  0  0  0  0  0  0  0  0  0  0  0
   45.7680   34.4130   40.7810 N   0  0  0  0  0  0  0  0  0  0  0  0
   43.8435   36.8685   44.6946 H   0  0  0  0  0  0  0  0  0  0  0  0
   45.0418   36.7117   42.4655 H   0  0  0  0  0  0  0  0  0  0  0  0
   45.7734   33.3143   45.9786 H   0  0  0  0  0  0  0  0  0  0  0  0
   46.0441   34.3097   39.7941 H   0  0  0  0  0  0  0  0  0  0  0  0
   44.8000   34.2105   41.0688 H   0  0  0  0  0  0  0  0  0  0  0  0
  1  6  2  0
  2  1  1  0
  3  2  2  0
  3  4  1  0
  4  5  2  0
  5  6  1  0
  7  3  1  0
  8  7  2  0
  9  7  1  0
  1 10  1  0
  2 11  1  0
  5 12  1  0
  9 13  1  0
  9 14  1  0
M  ISO  3  10  14  11  14  12  14
M  END
>  <minimizedAffinity>  (1) 
-3.46678853

>  <minimizedRMSD>  (1) 
0.334266633

$$$$
