
     RDKit          3D

 33 36  0  0  1  0  0  0  0  0999 V2000
   45.0640   34.2510   41.4300 C   0  0  2  0  0  0  0  0  0  0  0  0
   46.4720   34.6150   41.0810 C   0  0  0  0  0  0  0  0  0  0  0  0
   46.1430   33.2230   41.5070 C   0  0  1  0  0  0  0  0  0  0  0  0
   46.5900   32.7610   42.8100 N   0  0  0  0  0  0  0  0  0  0  0  0
   47.5130   31.7840   43.0480 C   0  0  0  0  0  0  0  0  0  0  0  0
   47.6840   31.6160   44.3620 N   0  0  0  0  0  0  0  0  0  0  0  0
   46.8830   32.4750   45.0170 C   0  0  0  0  0  0  0  0  0  0  0  0
   46.6870   32.6990   46.3650 C   0  0  0  0  0  0  0  0  0  0  0  0
   47.3510   32.0010   47.1670 O   0  0  0  0  0  0  0  0  0  0  0  0
   45.7840   33.6620   46.6970 N   0  0  0  0  0  0  0  0  0  0  0  0
   45.1290   34.3480   45.7440 C   0  0  0  0  0  0  0  0  0  0  0  0
   44.2330   35.3070   46.2870 N   0  0  0  0  0  0  0  0  0  0  0  0
   45.3460   34.1030   44.4310 N   0  0  0  0  0  0  0  0  0  0  0  0
   46.2140   33.1760   44.0200 C   0  0  0  0  0  0  0  0  0  0  0  0
   44.0870   34.0080   40.3090 C   0  0  0  0  0  0  0  0  0  0  0  0
   44.4710   33.1890   39.4260 O   0  0  0  0  0  0  0  0  0  0  0  0
   40.9800   35.6310   39.1200 C   0  0  0  0  0  0  0  0  0  0  0  0
   42.2390   34.9440   39.0790 C   0  0  0  0  0  0  0  0  0  0  0  0
   42.8190   34.6870   40.2810 C   0  0  0  0  0  0  0  0  0  0  0  0
   42.2010   35.0770   41.4260 N   0  0  0  0  0  0  0  0  0  0  0  0
   41.0110   35.7250   41.4380 C   0  0  0  0  0  0  0  0  0  0  0  0
   40.3910   36.0060   40.2670 N   0  0  0  0  0  0  0  0  0  0  0  0
   44.3201   34.6952   42.1077 H   0  0  0  0  0  0  0  0  0  0  0  0
   46.7441   34.8206   40.0352 H   0  0  0  0  0  0  0  0  0  0  0  0
   47.1831   35.3841   41.4168 H   0  0  0  0  0  0  0  0  0  0  0  0
   46.2928   32.2217   41.0770 H   0  0  0  0  0  0  0  0  0  0  0  0
   48.0411   31.2156   42.2682 H   0  0  0  0  0  0  0  0  0  0  0  0
   45.6004   33.8675   47.6895 H   0  0  0  0  0  0  0  0  0  0  0  0
   43.6699   35.8989   45.6597 H   0  0  0  0  0  0  0  0  0  0  0  0
   44.1463   35.4106   47.3081 H   0  0  0  0  0  0  0  0  0  0  0  0
   40.4751   35.8606   38.1701 H   0  0  0  0  0  0  0  0  0  0  0  0
   42.7074   34.6429   38.1303 H   0  0  0  0  0  0  0  0  0  0  0  0
   40.5515   36.0209   42.3926 H   0  0  0  0  0  0  0  0  0  0  0  0
  1  3  1  0
  2  1  1  0
  2  3  1  0
  3  4  1  0
  4  5  1  0
  4 14  1  0
  5  6  2  0
  6  7  1  0
  7  8  1  0
  8 10  1  0
  8  9  2  0
 11 12  1  0
 11 10  1  0
 13 11  2  0
 14 13  1  0
 14  7  2  0
 15  1  1  0
 16 15  2  0
 17 22  2  0
 18 17  1  0
 18 19  2  0
 19 15  1  0
 19 20  1  0
 20 21  2  0
 22 21  1  0
  1 23  1  1
  2 24  1  0
  2 25  1  0
  3 26  1  6
  5 27  1  0
 10 28  1  0
 12 29  1  0
 12 30  1  0
 17 31  1  0
 18 32  1  0
 21 33  1  0
M  ISO  8  23  13  24  13  25  13  26  13  27  14  28   9  31  14  32  14
M  ISO  1  33  14
M  END
>  <minimizedAffinity>  (1) 
-6.14768362

>  <minimizedRMSD>  (1) 
7.12409401

$$$$
