
     RDKit          3D

 32 35  0  0  1  0  0  0  0  0999 V2000
   45.9750   34.3310   40.7720 C   0  0  2  0  0  0  0  0  0  0  0  0
   45.3810   32.9620   40.8090 C   0  0  0  0  0  0  0  0  0  0  0  0
   46.6770   33.1850   40.1090 C   0  0  1  0  0  0  0  0  0  0  0  0
   46.7390   33.1430   38.6610 N   0  0  0  0  0  0  0  0  0  0  0  0
   47.7110   33.7500   37.9540 C   0  0  0  0  0  0  0  0  0  0  0  0
   47.5110   33.5410   36.6430 N   0  0  0  0  0  0  0  0  0  0  0  0
   46.4080   32.7960   36.4810 C   0  0  0  0  0  0  0  0  0  0  0  0
   45.7180   32.2740   35.4130 C   0  0  0  0  0  0  0  0  0  0  0  0
   44.6130   31.5480   35.6220 N   0  0  0  0  0  0  0  0  0  0  0  0
   44.1630   31.3210   36.8710 C   0  0  0  0  0  0  0  0  0  0  0  0
   44.8420   31.8340   37.9140 N   0  0  0  0  0  0  0  0  0  0  0  0
   45.9510   32.5640   37.7390 C   0  0  0  0  0  0  0  0  0  0  0  0
   46.1790   32.5060   34.0900 N   0  0  0  0  0  0  0  0  0  0  0  0
   46.7000   34.8300   42.0000 C   0  0  0  0  0  0  0  0  0  0  0  0
   47.9030   35.1830   41.8330 O   0  0  0  0  0  0  0  0  0  0  0  0
   44.5030   35.8890   44.7890 C   0  0  0  0  0  0  0  0  0  0  0  0
   45.1410   35.8940   43.5040 C   0  0  0  0  0  0  0  0  0  0  0  0
   46.0210   34.8800   43.2700 C   0  0  0  0  0  0  0  0  0  0  0  0
   46.2410   33.9480   44.2350 N   0  0  0  0  0  0  0  0  0  0  0  0
   45.6280   33.9650   45.4350 C   0  0  0  0  0  0  0  0  0  0  0  0
   44.7350   34.9550   45.7300 N   0  0  0  0  0  0  0  0  0  0  0  0
   45.5745   35.3143   40.4845 H   0  0  0  0  0  0  0  0  0  0  0  0
   45.3570   32.3992   41.7538 H   0  0  0  0  0  0  0  0  0  0  0  0
   44.4102   32.5295   40.5252 H   0  0  0  0  0  0  0  0  0  0  0  0
   47.6774   32.7325   40.1757 H   0  0  0  0  0  0  0  0  0  0  0  0
   48.5416   34.3285   38.3846 H   0  0  0  0  0  0  0  0  0  0  0  0
   43.2535   30.7248   37.0364 H   0  0  0  0  0  0  0  0  0  0  0  0
   47.0295   33.0649   33.9316 H   0  0  0  0  0  0  0  0  0  0  0  0
   45.6628   32.1153   33.2888 H   0  0  0  0  0  0  0  0  0  0  0  0
   43.7860   36.6913   45.0174 H   0  0  0  0  0  0  0  0  0  0  0  0
   44.9324   36.6698   42.7526 H   0  0  0  0  0  0  0  0  0  0  0  0
   45.8468   33.1821   46.1761 H   0  0  0  0  0  0  0  0  0  0  0  0
  1  2  1  0
  1 14  1  0
  3  1  1  0
  3  2  1  0
  4  3  1  0
  5  4  1  0
  6  5  2  0
  7  6  1  0
  7 12  2  0
  8  9  2  0
  8  7  1  0
  9 10  1  0
 10 11  2  0
 12 11  1  0
 12  4  1  0
 13  8  1  0
 14 18  1  0
 15 14  2  0
 16 21  2  0
 17 16  1  0
 18 17  2  0
 18 19  1  0
 19 20  2  0
 20 21  1  0
  1 22  1  6
  2 23  1  0
  2 24  1  0
  3 25  1  1
  5 26  1  0
 10 27  1  0
 13 28  1  0
 13 29  1  0
 16 30  1  0
 17 31  1  0
 20 32  1  0
M  ISO  8  22  13  23  13  24  13  25  13  26  14  27  14  30  14  31  14
M  ISO  1  32  14
M  END
>  <minimizedAffinity>  (1) 
-5.26256371

>  <minimizedRMSD>  (1) 
1.56809366

$$$$
