
     RDKit          3D

 27 29  0  0  1  0  0  0  0  0999 V2000
   47.8820   34.3100   40.8530 C   0  0  2  0  0  0  0  0  0  0  0  0
   48.6780   35.4610   41.3460 C   0  0  0  0  0  0  0  0  0  0  0  0
   48.1740   34.4560   42.3120 C   0  0  1  0  0  0  0  0  0  0  0  0
   46.9130   34.7310   43.0900 C   0  0  0  0  0  0  0  0  0  0  0  0
   46.5920   33.8770   44.1480 C   0  0  0  0  0  0  0  0  0  0  0  0
   45.4260   34.1590   44.8420 C   0  0  0  0  0  0  0  0  0  0  0  0
   44.6360   35.2110   44.5110 N   0  0  0  0  0  0  0  0  0  0  0  0
   44.9770   36.0210   43.4770 C   0  0  0  0  0  0  0  0  0  0  0  0
   46.1090   35.7700   42.7810 N   0  0  0  0  0  0  0  0  0  0  0  0
   48.5960   33.1390   40.2290 C   0  0  0  0  0  0  0  0  0  0  0  0
   49.1170   32.3030   41.0180 O   0  0  0  0  0  0  0  0  0  0  0  0
   48.1480   33.8100   36.6040 C   0  0  0  0  0  0  0  0  0  0  0  0
   48.0450   33.9760   38.0290 C   0  0  0  0  0  0  0  0  0  0  0  0
   48.6610   33.0250   38.7860 C   0  0  0  0  0  0  0  0  0  0  0  0
   49.3120   32.0140   38.1750 N   0  0  0  0  0  0  0  0  0  0  0  0
   49.4030   31.8670   36.8400 C   0  0  0  0  0  0  0  0  0  0  0  0
   48.8110   32.7820   36.0360 N   0  0  0  0  0  0  0  0  0  0  0  0
   47.0002   34.2396   40.1991 H   0  0  0  0  0  0  0  0  0  0  0  0
   49.7541   35.5183   41.1254 H   0  0  0  0  0  0  0  0  0  0  0  0
   48.5986   36.5542   41.2533 H   0  0  0  0  0  0  0  0  0  0  0  0
   48.6764   33.9022   43.1188 H   0  0  0  0  0  0  0  0  0  0  0  0
   47.2323   33.0239   44.4166 H   0  0  0  0  0  0  0  0  0  0  0  0
   45.1335   33.5131   45.6830 H   0  0  0  0  0  0  0  0  0  0  0  0
   44.3379   36.8747   43.2072 H   0  0  0  0  0  0  0  0  0  0  0  0
   47.6661   34.5521   35.9505 H   0  0  0  0  0  0  0  0  0  0  0  0
   47.5019   34.8194   38.4803 H   0  0  0  0  0  0  0  0  0  0  0  0
   49.9503   31.0160   36.4084 H   0  0  0  0  0  0  0  0  0  0  0  0
  1  2  1  0
  1  3  1  0
  2  3  1  0
  3  4  1  0
  4  5  2  0
  5  6  1  0
  7  6  2  0
  8  7  1  0
  9  4  1  0
  9  8  2  0
 10  1  1  0
 10 11  2  0
 12 13  2  0
 13 14  1  0
 14 10  1  0
 15 14  2  0
 16 15  1  0
 17 12  1  0
 17 16  2  0
  1 18  1  1
  2 19  1  0
  2 20  1  0
  3 21  1  1
  5 22  1  0
  6 23  1  0
  8 24  1  0
 12 25  1  0
 13 26  1  0
 16 27  1  0
M  ISO  8  18  13  19  13  20  13  21  13  22  14  23  14  24  14  25  14
M  ISO  2  26  14  27  14
M  END
>  <minimizedAffinity>  (1) 
-4.64407301

>  <minimizedRMSD>  (1) 
6.54391909

$$$$
