
     RDKit          3D

 30 32  0  0  1  0  0  0  0  0999 V2000
   47.6050   34.9550   41.1250 C   0  0  2  0  0  0  0  0  0  0  0  0
   48.8390   35.6240   41.5290 C   0  0  0  0  0  0  0  0  0  0  0  0
   49.5220   34.7680   42.5970 C   0  0  0  0  0  0  0  0  0  0  0  0
   48.6900   33.5130   42.7480 C   0  0  0  0  0  0  0  0  0  0  0  0
   47.3550   33.9180   42.2530 C   0  0  1  0  0  0  0  0  0  0  0  0
   47.6370   34.1760   39.8760 C   0  0  0  0  0  0  0  0  0  0  0  0
   48.4320   34.6190   38.8060 C   0  0  0  0  0  0  0  0  0  0  0  0
   48.4810   33.8710   37.6280 C   0  0  0  0  0  0  0  0  0  0  0  0
   47.7270   32.7240   37.5990 N   0  0  0  0  0  0  0  0  0  0  0  0
   46.9710   32.3260   38.6460 C   0  0  0  0  0  0  0  0  0  0  0  0
   46.9270   33.0480   39.7750 N   0  0  0  0  0  0  0  0  0  0  0  0
   46.4230   34.4710   43.1840 C   0  0  0  0  0  0  0  0  0  0  0  0
   45.6710   35.5720   43.0480 C   0  0  0  0  0  0  0  0  0  0  0  0
   44.8040   36.0430   43.9710 C   0  0  0  0  0  0  0  0  0  0  0  0
   44.7160   35.2810   45.1620 C   0  0  0  0  0  0  0  0  0  0  0  0
   45.9560   33.8500   44.8690 S   0  0  0  0  0  0  0  0  0  0  0  0
   46.8540   35.7417   40.9602 H   0  0  0  0  0  0  0  0  0  0  0  0
   49.5039   35.7346   40.6597 H   0  0  0  0  0  0  0  0  0  0  0  0
   48.6144   36.6231   41.9306 H   0  0  0  0  0  0  0  0  0  0  0  0
   50.5431   34.5097   42.2796 H   0  0  0  0  0  0  0  0  0  0  0  0
   49.5952   35.3107   43.5510 H   0  0  0  0  0  0  0  0  0  0  0  0
   49.1019   32.6934   42.1408 H   0  0  0  0  0  0  0  0  0  0  0  0
   48.6665   33.1379   43.7818 H   0  0  0  0  0  0  0  0  0  0  0  0
   46.8642   32.9837   41.9428 H   0  0  0  0  0  0  0  0  0  0  0  0
   49.0122   35.5492   38.8956 H   0  0  0  0  0  0  0  0  0  0  0  0
   49.0916   34.1842   36.7683 H   0  0  0  0  0  0  0  0  0  0  0  0
   46.3845   31.3984   38.5711 H   0  0  0  0  0  0  0  0  0  0  0  0
   45.7674   36.1376   42.1095 H   0  0  0  0  0  0  0  0  0  0  0  0
   44.2086   36.9537   43.8091 H   0  0  0  0  0  0  0  0  0  0  0  0
   44.0861   35.4666   46.0445 H   0  0  0  0  0  0  0  0  0  0  0  0
  1  2  1  0
  1  5  1  0
  2  3  1  0
  3  4  1  0
  5  4  1  0
  5 12  1  0
  6  1  1  0
  7  6  2  0
  8  7  1  0
  9  8  2  0
  9 10  1  0
 10 11  2  0
 11  6  1  0
 12 16  1  0
 13 12  2  0
 13 14  1  0
 14 15  2  0
 16 15  1  0
  1 17  1  6
  2 18  1  0
  2 19  1  0
  3 20  1  0
  3 21  1  0
  4 22  1  0
  4 23  1  0
  5 24  1  6
  7 25  1  0
  8 26  1  0
 10 27  1  0
 13 28  1  0
 14 29  1  0
 15 30  1  0
M  ISO  8  17  13  18  13  19  13  20  13  21  13  22  13  23  13  24  13
M  ISO  6  25  14  26  14  27  14  28  14  29  14  30  14
M  END
>  <minimizedAffinity>  (1) 
-5.29202032

>  <minimizedRMSD>  (1) 
3.52788091

$$$$
