
     RDKit          3D

 25 26  0  0  1  0  0  0  0  0999 V2000
   46.8510   34.6450   41.9200 C   0  0  0  0  0  0  0  0  0  0  0  0
   47.8980   35.2710   41.6190 O   0  0  0  0  0  0  0  0  0  0  0  0
   44.5760   36.1500   44.4220 C   0  0  0  0  0  0  0  0  0  0  0  0
   45.3050   35.9800   43.1960 C   0  0  0  0  0  0  0  0  0  0  0  0
   46.0930   34.8740   43.1230 C   0  0  0  0  0  0  0  0  0  0  0  0
   46.1450   34.0240   44.1770 N   0  0  0  0  0  0  0  0  0  0  0  0
   45.4560   34.1980   45.3190 C   0  0  0  0  0  0  0  0  0  0  0  0
   44.6480   35.2850   45.4560 N   0  0  0  0  0  0  0  0  0  0  0  0
   46.4340   33.6170   40.9310 C   0  0  2  0  0  0  0  0  0  0  0  0
   47.3770   32.5440   40.5110 C   0  0  0  0  0  0  0  0  0  0  0  0
   47.0780   33.6860   39.6020 C   0  0  2  0  0  0  0  0  0  0  0  0
   48.2760   34.4860   39.2410 C   0  0  0  0  0  0  0  0  0  0  0  0
   48.3640   34.5020   37.6940 C   0  0  0  0  0  0  0  0  0  0  0  0
   43.9251   37.0309   44.5236 H   0  0  0  0  0  0  0  0  0  0  0  0
   45.2305   36.6998   42.3675 H   0  0  0  0  0  0  0  0  0  0  0  0
   45.5448   33.4672   46.1364 H   0  0  0  0  0  0  0  0  0  0  0  0
   45.4065   33.6035   41.3235 H   0  0  0  0  0  0  0  0  0  0  0  0
   48.3656   32.4618   40.9862 H   0  0  0  0  0  0  0  0  0  0  0  0
   47.3268   31.4481   40.4303 H   0  0  0  0  0  0  0  0  0  0  0  0
   46.6338   33.8992   38.6185 H   0  0  0  0  0  0  0  0  0  0  0  0
   48.1738   35.5122   39.6237 H   0  0  0  0  0  0  0  0  0  0  0  0
   49.1851   34.0496   39.6804 H   0  0  0  0  0  0  0  0  0  0  0  0
   49.4035   34.6910   37.3878 H   0  0  0  0  0  0  0  0  0  0  0  0
   48.0362   33.5295   37.2980 H   0  0  0  0  0  0  0  0  0  0  0  0
   47.7148   35.2968   37.2980 H   0  0  0  0  0  0  0  0  0  0  0  0
  1  5  1  0
  2  1  2  0
  3  8  2  0
  4  3  1  0
  5  4  2  0
  5  6  1  0
  6  7  2  0
  7  8  1  0
  9  1  1  0
 10  9  1  0
 11 10  1  0
 11  9  1  0
 12 11  1  0
 13 12  1  0
  3 14  1  0
  4 15  1  0
  7 16  1  0
  9 17  1  6
 10 18  1  0
 10 19  1  0
 11 20  1  6
 12 21  1  0
 12 22  1  0
 13 23  1  0
 13 24  1  0
 13 25  1  0
M  ISO  8  14  14  15  14  16  14  17  13  18  13  19  13  20  13  21   8
M  ISO  4  22   8  23   8  24   8  25   8
M  END
>  <minimizedAffinity>  (1) 
-4.1952877

>  <minimizedRMSD>  (1) 
0.988681793

$$$$
