
     RDKit          3D

 28 29  0  0  1  0  0  0  0  0999 V2000
   46.5480   34.7030   41.7910 C   0  0  0  0  0  0  0  0  0  0  0  0
   47.6720   35.1640   41.5020 O   0  0  0  0  0  0  0  0  0  0  0  0
   44.5600   36.0420   44.6030 C   0  0  0  0  0  0  0  0  0  0  0  0
   45.1490   35.9440   43.3010 C   0  0  0  0  0  0  0  0  0  0  0  0
   45.9250   34.8430   43.0980 C   0  0  0  0  0  0  0  0  0  0  0  0
   46.1010   33.9270   44.0860 N   0  0  0  0  0  0  0  0  0  0  0  0
   45.5280   34.0530   45.2990 C   0  0  0  0  0  0  0  0  0  0  0  0
   44.7360   35.1330   45.5770 N   0  0  0  0  0  0  0  0  0  0  0  0
   45.8550   33.9720   40.6880 C   0  0  2  0  0  0  0  0  0  0  0  0
   46.1210   32.5330   40.4400 C   0  0  0  0  0  0  0  0  0  0  0  0
   46.7080   33.5710   39.5560 C   0  0  2  0  0  0  0  0  0  0  0  0
   48.1590   33.6780   39.3990 C   0  0  0  0  0  0  0  0  0  0  0  0
   48.4020   34.4560   38.0800 C   0  0  0  0  0  0  0  0  0  0  0  0
   48.9770   32.4440   39.2340 C   0  0  0  0  0  0  0  0  0  0  0  0
   43.9252   36.9141   44.8187 H   0  0  0  0  0  0  0  0  0  0  0  0
   44.9865   36.7029   42.5215 H   0  0  0  0  0  0  0  0  0  0  0  0
   45.6977   33.2850   46.0680 H   0  0  0  0  0  0  0  0  0  0  0  0
   44.9270   34.5433   40.8377 H   0  0  0  0  0  0  0  0  0  0  0  0
   46.7656   31.9650   41.1270 H   0  0  0  0  0  0  0  0  0  0  0  0
   45.4986   31.6389   40.2879 H   0  0  0  0  0  0  0  0  0  0  0  0
   46.6937   33.8692   38.4973 H   0  0  0  0  0  0  0  0  0  0  0  0
   48.4779   34.1242   40.3525 H   0  0  0  0  0  0  0  0  0  0  0  0
   48.7225   35.4821   38.3133 H   0  0  0  0  0  0  0  0  0  0  0  0
   49.1853   33.9512   37.4955 H   0  0  0  0  0  0  0  0  0  0  0  0
   47.4707   34.4867   37.4955 H   0  0  0  0  0  0  0  0  0  0  0  0
   49.2418   32.0445   40.2241 H   0  0  0  0  0  0  0  0  0  0  0  0
   48.3980   31.6919   38.6780 H   0  0  0  0  0  0  0  0  0  0  0  0
   49.8952   32.6844   38.6780 H   0  0  0  0  0  0  0  0  0  0  0  0
  1  5  1  0
  2  1  2  0
  3  8  2  0
  4  3  1  0
  5  4  2  0
  5  6  1  0
  6  7  2  0
  7  8  1  0
  9  1  1  0
 10  9  1  0
 11 10  1  0
 11  9  1  0
 12 11  1  0
 13 12  1  0
 14 12  1  0
  3 15  1  0
  4 16  1  0
  7 17  1  0
  9 18  1  6
 10 19  1  0
 10 20  1  0
 11 21  1  6
 12 22  1  0
 13 23  1  0
 13 24  1  0
 13 25  1  0
 14 26  1  0
 14 27  1  0
 14 28  1  0
M  ISO  8  15  14  16  14  17  14  18  13  19  13  20  13  21  13  22   8
M  ISO  6  23   8  24   8  25   8  26   8  27   8  28   8
M  END
>  <minimizedAffinity>  (1) 
-4.16896534

>  <minimizedRMSD>  (1) 
1.10198355

$$$$
