
     RDKit          3D

 36 39  0  0  1  0  0  0  0  0999 V2000
   46.2760   34.1490   40.8950 C   0  0  2  0  0  0  0  0  0  0  0  0
   45.7070   32.7600   41.0650 C   0  0  0  0  0  0  0  0  0  0  0  0
   46.9890   32.9430   40.4410 C   0  0  1  0  0  0  0  0  0  0  0  0
   47.4140   33.2180   39.0410 C   0  0  0  0  0  0  0  0  0  0  0  0
   48.2050   34.3020   38.7850 N   0  0  0  0  0  0  0  0  0  0  0  0
   48.6110   34.5700   37.5300 C   0  0  0  0  0  0  0  0  0  0  0  0
   48.2500   33.7820   36.5010 N   0  0  0  0  0  0  0  0  0  0  0  0
   47.4730   32.7060   36.7030 C   0  0  0  0  0  0  0  0  0  0  0  0
   47.1110   31.9090   35.6350 C   0  0  0  0  0  0  0  0  0  0  0  0
   46.3000   30.7850   35.8240 C   0  0  0  0  0  0  0  0  0  0  0  0
   45.8850   30.5170   37.1250 C   0  0  0  0  0  0  0  0  0  0  0  0
   46.2720   31.3420   38.1690 C   0  0  0  0  0  0  0  0  0  0  0  0
   47.0670   32.4410   37.9790 C   0  0  0  0  0  0  0  0  0  0  0  0
   48.0960   32.2670   41.1760 C   0  0  0  0  0  0  0  0  0  0  0  0
   47.7810   31.8700   42.4720 F   0  0  0  0  0  0  0  0  0  0  0  0
   48.3610   31.0580   40.5290 F   0  0  0  0  0  0  0  0  0  0  0  0
   49.3410   32.8670   41.1100 F   0  0  0  0  0  0  0  0  0  0  0  0
   46.7830   34.9120   42.0400 C   0  0  0  0  0  0  0  0  0  0  0  0
   47.8790   35.4650   41.8410 O   0  0  0  0  0  0  0  0  0  0  0  0
   44.4740   35.9400   44.7440 C   0  0  0  0  0  0  0  0  0  0  0  0
   45.1510   35.9640   43.4630 C   0  0  0  0  0  0  0  0  0  0  0  0
   46.0450   34.9780   43.2690 C   0  0  0  0  0  0  0  0  0  0  0  0
   46.2430   34.0540   44.2600 N   0  0  0  0  0  0  0  0  0  0  0  0
   45.6080   34.0450   45.4400 C   0  0  0  0  0  0  0  0  0  0  0  0
   44.6950   35.0130   45.7010 N   0  0  0  0  0  0  0  0  0  0  0  0
   45.9262   35.0891   40.4434 H   0  0  0  0  0  0  0  0  0  0  0  0
   45.6417   32.3108   42.0670 H   0  0  0  0  0  0  0  0  0  0  0  0
   44.7671   32.2637   40.7818 H   0  0  0  0  0  0  0  0  0  0  0  0
   49.2480   35.4471   37.3427 H   0  0  0  0  0  0  0  0  0  0  0  0
   47.4644   32.1608   34.6242 H   0  0  0  0  0  0  0  0  0  0  0  0
   46.0036   30.1419   34.9822 H   0  0  0  0  0  0  0  0  0  0  0  0
   45.2457   29.6447   37.3259 H   0  0  0  0  0  0  0  0  0  0  0  0
   45.9284   31.1057   39.1869 H   0  0  0  0  0  0  0  0  0  0  0  0
   43.7332   36.7266   44.9500 H   0  0  0  0  0  0  0  0  0  0  0  0
   44.9483   36.7335   42.7036 H   0  0  0  0  0  0  0  0  0  0  0  0
   45.8239   33.2649   46.1849 H   0  0  0  0  0  0  0  0  0  0  0  0
  1  2  1  0
  1 18  1  0
  3  1  1  0
  3  2  1  0
  3 14  1  1
  4  3  1  0
  5  4  2  0
  6  5  1  0
  7  8  1  0
  7  6  2  0
  8 13  2  0
  9 10  2  0
  9  8  1  0
 10 11  1  0
 11 12  2  0
 13 12  1  0
 13  4  1  0
 14 15  1  0
 16 14  1  0
 17 14  1  0
 18 22  1  0
 19 18  2  0
 20 25  2  0
 21 20  1  0
 22 21  2  0
 22 23  1  0
 23 24  2  0
 24 25  1  0
  1 26  1  6
  2 27  1  0
  2 28  1  0
  6 29  1  0
  9 30  1  0
 10 31  1  0
 11 32  1  0
 12 33  1  0
 20 34  1  0
 21 35  1  0
 24 36  1  0
M  ISO  8  26  13  27  13  28  13  29  14  30  14  31  14  32  14  33  14
M  ISO  3  34  14  35  14  36  14
M  END
>  <minimizedAffinity>  (1) 
-5.42757416

>  <minimizedRMSD>  (1) 
2.81658006

$$$$
