
     RDKit          3D

 32 34  0  0  1  0  0  0  0  0999 V2000
   47.0370   34.0150   40.6830 C   0  0  2  0  0  0  0  0  0  0  0  0
   48.0880   35.0930   40.7260 C   0  0  0  0  0  0  0  0  0  0  0  0
   47.7790   34.3030   41.9190 C   0  0  1  0  0  0  0  0  0  0  0  0
   46.7750   34.5220   42.9910 C   0  0  0  0  0  0  0  0  0  0  0  0
   46.4760   33.8590   44.1550 C   0  0  0  0  0  0  0  0  0  0  0  0
   45.4820   34.3150   44.9580 C   0  0  0  0  0  0  0  0  0  0  0  0
   44.7100   35.4270   44.7080 C   0  0  0  0  0  0  0  0  0  0  0  0
   45.0030   36.1110   43.5260 C   0  0  0  0  0  0  0  0  0  0  0  0
   46.0230   35.6480   42.6980 C   0  0  0  0  0  0  0  0  0  0  0  0
   48.9650   33.5710   42.4170 C   0  0  0  0  0  0  0  0  0  0  0  0
   49.9750   33.3310   41.4620 F   0  0  0  0  0  0  0  0  0  0  0  0
   49.6190   34.3800   43.3510 F   0  0  0  0  0  0  0  0  0  0  0  0
   48.7290   32.4120   43.1450 F   0  0  0  0  0  0  0  0  0  0  0  0
   47.2580   32.7440   39.9850 C   0  0  0  0  0  0  0  0  0  0  0  0
   46.8820   31.7380   40.6190 O   0  0  0  0  0  0  0  0  0  0  0  0
   47.8830   33.0690   36.3540 C   0  0  0  0  0  0  0  0  0  0  0  0
   47.1840   33.1690   37.6190 C   0  0  0  0  0  0  0  0  0  0  0  0
   47.8610   32.7140   38.6890 C   0  0  0  0  0  0  0  0  0  0  0  0
   49.1220   32.2070   38.5160 N   0  0  0  0  0  0  0  0  0  0  0  0
   49.7580   32.1220   37.3380 C   0  0  0  0  0  0  0  0  0  0  0  0
   49.1320   32.5610   36.2200 N   0  0  0  0  0  0  0  0  0  0  0  0
   45.9813   33.9798   40.3761 H   0  0  0  0  0  0  0  0  0  0  0  0
   49.0454   34.9515   40.2031 H   0  0  0  0  0  0  0  0  0  0  0  0
   48.1179   36.1658   40.4849 H   0  0  0  0  0  0  0  0  0  0  0  0
   47.0418   32.9587   44.4366 H   0  0  0  0  0  0  0  0  0  0  0  0
   45.2770   33.7523   45.8807 H   0  0  0  0  0  0  0  0  0  0  0  0
   43.9150   35.7552   45.3937 H   0  0  0  0  0  0  0  0  0  0  0  0
   44.4318   37.0098   43.2506 H   0  0  0  0  0  0  0  0  0  0  0  0
   46.2407   36.2001   41.7718 H   0  0  0  0  0  0  0  0  0  0  0  0
   47.3697   33.4265   35.4492 H   0  0  0  0  0  0  0  0  0  0  0  0
   46.1700   33.5879   37.6991 H   0  0  0  0  0  0  0  0  0  0  0  0
   50.7730   31.7019   37.2808 H   0  0  0  0  0  0  0  0  0  0  0  0
  1  2  1  0
  1  3  1  0
  2  3  1  0
  3 10  1  1
  3  4  1  0
  4  5  2  0
  5  6  1  0
  7  6  2  0
  8  7  1  0
  9  4  1  0
  9  8  2  0
 10 13  1  0
 10 12  1  0
 11 10  1  0
 14 15  2  0
 14  1  1  0
 16 17  2  0
 17 18  1  0
 18 14  1  0
 19 18  2  0
 20 19  1  0
 21 16  1  0
 21 20  2  0
  1 22  1  1
  2 23  1  0
  2 24  1  0
  5 25  1  0
  6 26  1  0
  7 27  1  0
  8 28  1  0
  9 29  1  0
 16 30  1  0
 17 31  1  0
 20 32  1  0
M  ISO  8  22  13  23  13  24  13  25  14  26  14  27  14  28  14  29  14
M  ISO  3  30  14  31  14  32  14
M  END
>  <minimizedAffinity>  (1) 
-5.16386271

>  <minimizedRMSD>  (1) 
6.02729321

$$$$
