
     RDKit          3D

 31 33  0  0  1  0  0  0  0  0999 V2000
   46.5040   34.0210   40.9650 C   0  0  2  0  0  0  0  0  0  0  0  0
   46.1370   32.5760   41.1870 C   0  0  0  0  0  0  0  0  0  0  0  0
   47.4000   32.9360   40.5400 C   0  0  1  0  0  0  0  0  0  0  0  0
   47.7490   33.1730   39.1190 C   0  0  0  0  0  0  0  0  0  0  0  0
   48.2520   34.3450   38.5450 C   0  0  0  0  0  0  0  0  0  0  0  0
   48.5310   34.4260   37.2170 C   0  0  0  0  0  0  0  0  0  0  0  0
   48.3230   33.3460   36.4030 C   0  0  0  0  0  0  0  0  0  0  0  0
   47.8280   32.2160   37.0130 C   0  0  0  0  0  0  0  0  0  0  0  0
   47.5490   32.1310   38.3310 N   0  0  0  0  0  0  0  0  0  0  0  0
   48.5670   32.4110   41.3010 C   0  0  0  0  0  0  0  0  0  0  0  0
   48.3420   32.1280   42.6440 F   0  0  0  0  0  0  0  0  0  0  0  0
   48.9010   31.1660   40.7590 F   0  0  0  0  0  0  0  0  0  0  0  0
   49.7560   33.1150   41.1360 F   0  0  0  0  0  0  0  0  0  0  0  0
   46.9080   34.8930   42.0780 C   0  0  0  0  0  0  0  0  0  0  0  0
   47.9600   35.5350   41.8780 O   0  0  0  0  0  0  0  0  0  0  0  0
   44.4810   35.8950   44.6840 C   0  0  0  0  0  0  0  0  0  0  0  0
   45.1970   35.9220   43.4360 C   0  0  0  0  0  0  0  0  0  0  0  0
   46.1250   34.9570   43.2760 C   0  0  0  0  0  0  0  0  0  0  0  0
   46.3190   34.0450   44.2820 N   0  0  0  0  0  0  0  0  0  0  0  0
   45.6360   34.0400   45.4420 C   0  0  0  0  0  0  0  0  0  0  0  0
   44.6910   34.9870   45.6550 N   0  0  0  0  0  0  0  0  0  0  0  0
   46.0065   34.8780   40.4875 H   0  0  0  0  0  0  0  0  0  0  0  0
   46.1377   32.1562   42.2038 H   0  0  0  0  0  0  0  0  0  0  0  0
   45.2792   31.9382   40.9273 H   0  0  0  0  0  0  0  0  0  0  0  0
   48.4262   35.2232   39.1841 H   0  0  0  0  0  0  0  0  0  0  0  0
   48.9251   35.3625   36.7956 H   0  0  0  0  0  0  0  0  0  0  0  0
   48.5387   33.3790   35.3249 H   0  0  0  0  0  0  0  0  0  0  0  0
   47.6488   31.3282   36.3887 H   0  0  0  0  0  0  0  0  0  0  0  0
   43.7140   36.6647   44.8551 H   0  0  0  0  0  0  0  0  0  0  0  0
   45.0002   36.6800   42.6635 H   0  0  0  0  0  0  0  0  0  0  0  0
   45.8425   33.2769   46.2069 H   0  0  0  0  0  0  0  0  0  0  0  0
  1  2  1  0
  1 14  1  0
  3  1  1  0
  3  2  1  0
  3 10  1  1
  4  3  1  0
  5  4  2  0
  6  5  1  0
  7  8  1  0
  7  6  2  0
  8  9  2  0
  9  4  1  0
 10 11  1  0
 12 10  1  0
 13 10  1  0
 14 18  1  0
 15 14  2  0
 16 21  2  0
 17 16  1  0
 18 17  2  0
 18 19  1  0
 19 20  2  0
 20 21  1  0
  1 22  1  6
  2 23  1  0
  2 24  1  0
  5 25  1  0
  6 26  1  0
  7 27  1  0
  8 28  1  0
 16 29  1  0
 17 30  1  0
 20 31  1  0
M  ISO  8  22  13  23  13  24  13  25  14  26  14  27  14  28  14  29  14
M  ISO  2  30  14  31  14
M  END
>  <minimizedAffinity>  (1) 
-5.12982655

>  <minimizedRMSD>  (1) 
2.30943298

$$$$
