
     RDKit          3D

 35 37  0  0  1  0  0  0  0  0999 V2000
   45.5710   34.3660   41.1520 C   0  0  2  0  0  0  0  0  0  0  0  0
   45.8150   32.8880   41.2850 C   0  0  0  0  0  0  0  0  0  0  0  0
   46.2970   33.8180   42.3090 C   0  0  1  0  0  0  0  0  0  0  0  0
   47.5660   34.5830   42.4550 C   0  0  0  0  0  0  0  0  0  0  0  0
   47.9610   35.3050   41.1600 C   0  0  0  0  0  0  0  0  0  0  0  0
   49.2990   35.8780   41.5790 C   0  0  0  0  0  0  0  0  0  0  0  0
   49.8520   34.9350   42.6230 C   0  0  0  0  0  0  0  0  0  0  0  0
   48.8050   33.8110   42.7190 C   0  0  0  0  0  0  0  0  0  0  0  0
   45.7100   33.5040   43.6400 C   0  0  0  0  0  0  0  0  0  0  0  0
   44.5010   32.8100   43.6300 F   0  0  0  0  0  0  0  0  0  0  0  0
   46.5670   32.6060   44.2900 F   0  0  0  0  0  0  0  0  0  0  0  0
   45.6720   34.5610   44.5420 F   0  0  0  0  0  0  0  0  0  0  0  0
   44.2350   34.9520   41.3560 C   0  0  0  0  0  0  0  0  0  0  0  0
   44.2150   35.9500   42.1060 O   0  0  0  0  0  0  0  0  0  0  0  0
   41.6060   34.0390   38.9170 C   0  0  0  0  0  0  0  0  0  0  0  0
   42.8020   34.6580   39.4370 C   0  0  0  0  0  0  0  0  0  0  0  0
   43.0830   34.3820   40.7260 C   0  0  0  0  0  0  0  0  0  0  0  0
   42.2390   33.5610   41.4290 N   0  0  0  0  0  0  0  0  0  0  0  0
   41.1310   32.9960   40.9230 C   0  0  0  0  0  0  0  0  0  0  0  0
   40.7980   33.2370   39.6330 N   0  0  0  0  0  0  0  0  0  0  0  0
   45.7663   35.1095   40.3652 H   0  0  0  0  0  0  0  0  0  0  0  0
   44.9787   32.2086   41.5066 H   0  0  0  0  0  0  0  0  0  0  0  0
   46.2753   32.1124   40.6552 H   0  0  0  0  0  0  0  0  0  0  0  0
   47.2961   35.2160   43.3132 H   0  0  0  0  0  0  0  0  0  0  0  0
   47.2423   36.0952   40.8972 H   0  0  0  0  0  0  0  0  0  0  0  0
   47.9889   34.6683   40.2634 H   0  0  0  0  0  0  0  0  0  0  0  0
   49.9782   35.9319   40.7154 H   0  0  0  0  0  0  0  0  0  0  0  0
   49.1920   36.8982   41.9761 H   0  0  0  0  0  0  0  0  0  0  0  0
   50.8261   34.5332   42.3073 H   0  0  0  0  0  0  0  0  0  0  0  0
   50.0214   35.4329   43.5891 H   0  0  0  0  0  0  0  0  0  0  0  0
   48.7927   33.3499   43.7176 H   0  0  0  0  0  0  0  0  0  0  0  0
   48.9743   32.9634   42.0386 H   0  0  0  0  0  0  0  0  0  0  0  0
   41.3385   34.2358   37.8683 H   0  0  0  0  0  0  0  0  0  0  0  0
   43.4404   35.3104   38.8232 H   0  0  0  0  0  0  0  0  0  0  0  0
   40.5019   32.3457   41.5485 H   0  0  0  0  0  0  0  0  0  0  0  0
  1  2  1  0
  1 13  1  0
  1  3  1  0
  2  3  1  0
  3  4  1  0
  3  9  1  1
  4  8  1  0
  5  6  1  0
  5  4  1  0
  6  7  1  0
  7  8  1  0
  9 11  1  0
  9 12  1  0
 10  9  1  0
 13 14  2  0
 15 16  2  0
 15 20  1  0
 16 17  1  0
 17 13  1  0
 17 18  2  0
 19 18  1  0
 20 19  2  0
  1 21  1  6
  2 22  1  0
  2 23  1  0
  4 24  1  0
  5 25  1  0
  5 26  1  0
  6 27  1  0
  6 28  1  0
  7 29  1  0
  7 30  1  0
  8 31  1  0
  8 32  1  0
 15 33  1  0
 16 34  1  0
 19 35  1  0
M  ISO  8  21  13  22  13  23  13  24  13  25  13  26  13  27  13  28  13
M  ISO  7  29  13  30  13  31  13  32  13  33  14  34  14  35  14
M  END
>  <minimizedAffinity>  (1) 
-5.12672377

>  <minimizedRMSD>  (1) 
5.17792368

$$$$
