
     RDKit          3D

 35 37  0  0  1  0  0  0  0  0999 V2000
   47.3870   33.7920   42.3830 C   0  0  2  0  0  0  0  0  0  0  0  0
   48.7250   33.6020   42.9560 C   0  0  0  0  0  0  0  0  0  0  0  0
   49.6310   34.6820   42.3600 C   0  0  0  0  0  0  0  0  0  0  0  0
   48.7530   35.6100   41.5580 C   0  0  0  0  0  0  0  0  0  0  0  0
   47.6110   34.7310   41.1860 C   0  0  1  0  0  0  0  0  0  0  0  0
   46.3860   34.4620   43.2410 C   0  0  0  0  0  0  0  0  0  0  0  0
   46.0940   33.9310   44.5070 C   0  0  0  0  0  0  0  0  0  0  0  0
   45.1710   34.5720   45.3300 C   0  0  0  0  0  0  0  0  0  0  0  0
   44.5940   35.7140   44.8230 N   0  0  0  0  0  0  0  0  0  0  0  0
   44.8910   36.2000   43.6060 C   0  0  0  0  0  0  0  0  0  0  0  0
   45.7820   35.5780   42.8160 N   0  0  0  0  0  0  0  0  0  0  0  0
   47.8130   34.1490   39.9510 N   0  0  0  0  0  0  0  0  0  0  0  0
   46.9130   33.3470   39.2770 C   0  0  0  0  0  0  0  0  0  0  0  0
   47.4360   33.2610   37.8360 C   0  0  0  0  0  0  0  0  0  0  0  0
   48.3220   34.4610   37.6640 C   0  0  0  0  0  0  0  0  0  0  0  0
   48.5910   34.9450   39.0490 C   0  0  0  0  0  0  0  0  0  0  0  0
   46.9796   32.7912   42.1772 H   0  0  0  0  0  0  0  0  0  0  0  0
   48.6844   33.7060   44.0503 H   0  0  0  0  0  0  0  0  0  0  0  0
   49.1099   32.5981   42.7238 H   0  0  0  0  0  0  0  0  0  0  0  0
   50.1321   35.2396   43.1650 H   0  0  0  0  0  0  0  0  0  0  0  0
   50.4070   34.2322   41.7233 H   0  0  0  0  0  0  0  0  0  0  0  0
   48.4166   36.4631   42.1656 H   0  0  0  0  0  0  0  0  0  0  0  0
   49.2629   36.0569   40.6918 H   0  0  0  0  0  0  0  0  0  0  0  0
   46.6681   35.2733   41.0221 H   0  0  0  0  0  0  0  0  0  0  0  0
   46.5924   33.0117   44.8481 H   0  0  0  0  0  0  0  0  0  0  0  0
   44.9175   34.1872   46.3288 H   0  0  0  0  0  0  0  0  0  0  0  0
   44.3988   37.1180   43.2524 H   0  0  0  0  0  0  0  0  0  0  0  0
   46.8746   32.3463   39.7320 H   0  0  0  0  0  0  0  0  0  0  0  0
   45.8931   33.7572   39.3163 H   0  0  0  0  0  0  0  0  0  0  0  0
   48.0098   32.3341   37.6890 H   0  0  0  0  0  0  0  0  0  0  0  0
   46.6165   33.2476   37.1023 H   0  0  0  0  0  0  0  0  0  0  0  0
   49.2605   34.1800   37.1637 H   0  0  0  0  0  0  0  0  0  0  0  0
   47.8517   35.2354   37.0401 H   0  0  0  0  0  0  0  0  0  0  0  0
   49.6606   34.8367   39.2819 H   0  0  0  0  0  0  0  0  0  0  0  0
   48.3208   36.0071   39.1436 H   0  0  0  0  0  0  0  0  0  0  0  0
  1  2  1  0
  1  6  1  0
  3  2  1  0
  4  3  1  0
  5  4  1  0
  5  1  1  0
  6  7  2  0
  7  8  1  0
  9  8  2  0
 10  9  1  0
 11  6  1  0
 11 10  2  0
 12 13  1  0
 12  5  1  0
 14 13  1  0
 15 14  1  0
 15 16  1  0
 16 12  1  0
  1 17  1  6
  2 18  1  0
  2 19  1  0
  3 20  1  0
  3 21  1  0
  4 22  1  0
  4 23  1  0
  5 24  1  6
  7 25  1  0
  8 26  1  0
 10 27  1  0
 13 28  1  0
 13 29  1  0
 14 30  1  0
 14 31  1  0
 15 32  1  0
 15 33  1  0
 16 34  1  0
 16 35  1  0
M  ISO  8  17  13  18  13  19  13  20  13  21  13  22  13  23  13  24  13
M  ISO  8  25  14  26  14  27  14  28  13  29  13  30  13  31  13  32  13
M  ISO  3  33  13  34  13  35  13
M  END
>  <minimizedAffinity>  (1) 
-5.20430326

>  <minimizedRMSD>  (1) 
4.45228815

$$$$
