
     RDKit          3D

 36 38  0  0  1  0  0  0  0  0999 V2000
   47.8200   35.0460   41.2650 C   0  0  2  0  0  0  0  0  0  0  0  0
   49.0990   35.6830   41.5580 C   0  0  0  0  0  0  0  0  0  0  0  0
   49.9050   34.7380   42.4520 C   0  0  0  0  0  0  0  0  0  0  0  0
   49.0730   33.4820   42.6070 C   0  0  0  0  0  0  0  0  0  0  0  0
   47.7020   33.9200   42.3300 C   0  0  1  0  0  0  0  0  0  0  0  0
   47.6640   34.3730   39.9690 C   0  0  0  0  0  0  0  0  0  0  0  0
   48.5140   34.7430   38.9040 C   0  0  0  0  0  0  0  0  0  0  0  0
   48.3900   34.0970   37.6730 C   0  0  0  0  0  0  0  0  0  0  0  0
   47.4250   33.1240   37.5870 N   0  0  0  0  0  0  0  0  0  0  0  0
   46.6270   32.7940   38.6220 C   0  0  0  0  0  0  0  0  0  0  0  0
   46.7490   33.4130   39.7980 N   0  0  0  0  0  0  0  0  0  0  0  0
   46.9450   34.5060   43.4750 C   0  0  0  0  0  0  0  0  0  0  0  0
   46.1880   33.5040   44.3070 C   0  0  0  0  0  0  0  0  0  0  0  0
   45.2110   34.4720   45.0000 C   0  0  0  0  0  0  0  0  0  0  0  0
   44.5960   35.0630   43.7300 C   0  0  0  0  0  0  0  0  0  0  0  0
   45.8690   35.4470   42.9710 C   0  0  0  0  0  0  0  0  0  0  0  0
   47.0703   35.8509   41.2611 H   0  0  0  0  0  0  0  0  0  0  0  0
   49.6464   35.8688   40.6221 H   0  0  0  0  0  0  0  0  0  0  0  0
   48.9387   36.6453   42.0661 H   0  0  0  0  0  0  0  0  0  0  0  0
   50.8699   34.4993   41.9809 H   0  0  0  0  0  0  0  0  0  0  0  0
   50.1183   35.1979   43.4282 H   0  0  0  0  0  0  0  0  0  0  0  0
   49.3897   32.7133   41.8867 H   0  0  0  0  0  0  0  0  0  0  0  0
   49.1765   33.0295   43.6042 H   0  0  0  0  0  0  0  0  0  0  0  0
   47.1467   33.0186   42.0315 H   0  0  0  0  0  0  0  0  0  0  0  0
   49.2668   35.5329   39.0432 H   0  0  0  0  0  0  0  0  0  0  0  0
   49.0314   34.3538   36.8170 H   0  0  0  0  0  0  0  0  0  0  0  0
   45.8684   32.0074   38.4962 H   0  0  0  0  0  0  0  0  0  0  0  0
   47.7255   34.9896   44.0808 H   0  0  0  0  0  0  0  0  0  0  0  0
   45.6650   32.7613   43.6866 H   0  0  0  0  0  0  0  0  0  0  0  0
   46.7990   32.8817   44.9774 H   0  0  0  0  0  0  0  0  0  0  0  0
   44.4698   33.9478   45.6212 H   0  0  0  0  0  0  0  0  0  0  0  0
   45.6500   35.1869   45.7115 H   0  0  0  0  0  0  0  0  0  0  0  0
   44.0017   34.3186   43.1798 H   0  0  0  0  0  0  0  0  0  0  0  0
   43.8904   35.8898   43.8987 H   0  0  0  0  0  0  0  0  0  0  0  0
   46.1422   36.4912   43.1833 H   0  0  0  0  0  0  0  0  0  0  0  0
   45.7339   35.3643   41.8825 H   0  0  0  0  0  0  0  0  0  0  0  0
  1  2  1  0
  1  5  1  0
  2  3  1  0
  3  4  1  0
  5  4  1  0
  5 12  1  0
  6  1  1  0
  7  6  2  0
  8  7  1  0
  9  8  2  0
  9 10  1  0
 10 11  2  0
 11  6  1  0
 12 13  1  0
 13 14  1  0
 15 14  1  0
 16 12  1  0
 16 15  1  0
  1 17  1  1
  2 18  1  0
  2 19  1  0
  3 20  1  0
  3 21  1  0
  4 22  1  0
  4 23  1  0
  5 24  1  6
  7 25  1  0
  8 26  1  0
 10 27  1  0
 12 28  1  0
 13 29  1  0
 13 30  1  0
 14 31  1  0
 14 32  1  0
 15 33  1  0
 15 34  1  0
 16 35  1  0
 16 36  1  0
M  ISO  8  17  13  18  13  19  13  20  13  21  13  22  13  23  13  24  13
M  ISO  8  25  14  26  14  27  14  28  13  29  13  30  13  31  13  32  13
M  ISO  4  33  13  34  13  35  13  36  13
M  END
>  <minimizedAffinity>  (1) 
-5.20291042

>  <minimizedRMSD>  (1) 
3.44506717

$$$$
