
     RDKit          3D

 24 25  0  0  1  0  0  0  0  0999 V2000
   46.8530   34.2480   40.7040 C   0  0  2  0  0  0  0  0  0  0  0  0
   46.3490   32.8320   40.7900 C   0  0  0  0  0  0  0  0  0  0  0  0
   47.6950   33.1130   40.2970 C   0  0  2  0  0  0  0  0  0  0  0  0
   48.7310   32.4470   41.1330 C   0  0  0  0  0  0  0  0  0  0  0  0
   48.3010   31.9730   42.3710 F   0  0  0  0  0  0  0  0  0  0  0  0
   49.1320   31.2850   40.4650 F   0  0  0  0  0  0  0  0  0  0  0  0
   49.9370   33.1310   41.2610 F   0  0  0  0  0  0  0  0  0  0  0  0
   48.2020   33.3980   38.9290 C   0  0  0  0  0  0  0  0  0  0  0  0
   48.2720   34.5740   38.6260 O   0  0  0  0  0  0  0  0  0  0  0  0
   47.2090   35.0170   41.9060 C   0  0  0  0  0  0  0  0  0  0  0  0
   48.2830   35.6310   41.8250 O   0  0  0  0  0  0  0  0  0  0  0  0
   44.5660   35.8300   44.3560 C   0  0  0  0  0  0  0  0  0  0  0  0
   45.3570   35.9220   43.1700 C   0  0  0  0  0  0  0  0  0  0  0  0
   46.3520   35.0180   43.0520 C   0  0  0  0  0  0  0  0  0  0  0  0
   46.5280   34.0990   44.0560 N   0  0  0  0  0  0  0  0  0  0  0  0
   45.7740   34.0280   45.1650 C   0  0  0  0  0  0  0  0  0  0  0  0
   44.7620   34.9120   45.3310 N   0  0  0  0  0  0  0  0  0  0  0  0
   46.4800   35.1727   40.2394 H   0  0  0  0  0  0  0  0  0  0  0  0
   46.2094   32.3548   41.7712 H   0  0  0  0  0  0  0  0  0  0  0  0
   45.4731   32.2898   40.4042 H   0  0  0  0  0  0  0  0  0  0  0  0
   48.4952   32.5965   38.2349 H   0  0  0  0  0  0  0  0  0  0  0  0
   43.7454   36.5511   44.4850 H   0  0  0  0  0  0  0  0  0  0  0  0
   45.1666   36.6837   42.3995 H   0  0  0  0  0  0  0  0  0  0  0  0
   45.9759   33.2620   45.9282 H   0  0  0  0  0  0  0  0  0  0  0  0
  1  2  1  0
  1 10  1  0
  3  8  1  0
  3  1  1  0
  3  2  1  0
  3  4  1  1
  4  7  1  0
  4  5  1  0
  6  4  1  0
  9  8  2  0
 10 14  1  0
 11 10  2  0
 12 17  2  0
 13 12  1  0
 14 13  2  0
 14 15  1  0
 15 16  2  0
 16 17  1  0
  1 18  1  6
  2 19  1  0
  2 20  1  0
  8 21  1  0
 12 22  1  0
 13 23  1  0
 16 24  1  0
M  ISO  7  18  13  19  13  20  13  21   6  22  14  23  14  24  14
M  END
>  <minimizedAffinity>  (1) 
-4.27943611

>  <minimizedRMSD>  (1) 
1.69893265

$$$$
