
     RDKit          3D

 29 31  0  0  1  0  0  0  0  0999 V2000
   43.4620   33.9020   42.0330 C   0  0  2  0  0  0  0  0  0  0  0  0
   43.7320   32.4360   41.8330 C   0  0  0  0  0  0  0  0  0  0  0  0
   42.8320   33.1550   40.9350 C   0  0  1  0  0  0  0  0  0  0  0  0
   41.3720   33.4030   40.9990 C   0  0  0  0  0  0  0  0  0  0  0  0
   40.5280   34.3860   40.5220 C   0  0  0  0  0  0  0  0  0  0  0  0
   39.2580   34.0310   40.9270 C   0  0  0  0  0  0  0  0  0  0  0  0
   39.3220   32.8790   41.6220 N   0  0  0  0  0  0  0  0  0  0  0  0
   40.5980   32.5050   41.6620 N   0  0  0  0  0  0  0  0  0  0  0  0
   43.3100   33.0940   39.5250 C   0  0  0  0  0  0  0  0  0  0  0  0
   44.5100   32.4280   39.3150 F   0  0  0  0  0  0  0  0  0  0  0  0
   42.3870   32.3370   38.7960 F   0  0  0  0  0  0  0  0  0  0  0  0
   43.2850   34.3020   38.8340 F   0  0  0  0  0  0  0  0  0  0  0  0
   44.4720   34.9240   41.7210 C   0  0  0  0  0  0  0  0  0  0  0  0
   44.0020   36.0310   41.3740 O   0  0  0  0  0  0  0  0  0  0  0  0
   47.8910   34.3170   42.9830 C   0  0  0  0  0  0  0  0  0  0  0  0
   46.4830   34.6120   43.0150 C   0  0  0  0  0  0  0  0  0  0  0  0
   45.8680   34.6240   41.8160 C   0  0  0  0  0  0  0  0  0  0  0  0
   46.5980   34.3640   40.6820 N   0  0  0  0  0  0  0  0  0  0  0  0
   47.9170   34.0890   40.6790 C   0  0  0  0  0  0  0  0  0  0  0  0
   48.5920   34.0630   41.8530 N   0  0  0  0  0  0  0  0  0  0  0  0
   43.1219   34.5140   42.8814 H   0  0  0  0  0  0  0  0  0  0  0  0
   44.7164   32.1003   41.4748 H   0  0  0  0  0  0  0  0  0  0  0  0
   43.6551   31.5350   42.4593 H   0  0  0  0  0  0  0  0  0  0  0  0
   40.8112   35.2734   39.9369 H   0  0  0  0  0  0  0  0  0  0  0  0
   38.3395   34.5983   40.7160 H   0  0  0  0  0  0  0  0  0  0  0  0
   38.5275   32.3787   42.0455 H   0  0  0  0  0  0  0  0  0  0  0  0
   48.4335   34.2965   43.9397 H   0  0  0  0  0  0  0  0  0  0  0  0
   45.9457   34.8138   43.9534 H   0  0  0  0  0  0  0  0  0  0  0  0
   48.4404   33.8876   39.7327 H   0  0  0  0  0  0  0  0  0  0  0  0
  2  1  1  0
  3  9  1  6
  3  4  1  0
  3  2  1  0
  3  1  1  0
  4  8  2  0
  5  6  2  0
  5  4  1  0
  6  7  1  0
  7  8  1  0
 10  9  1  0
 11  9  1  0
 12  9  1  0
 13 17  1  0
 13  1  1  0
 14 13  2  0
 15 16  2  0
 17 16  1  0
 18 17  2  0
 19 18  1  0
 19 20  2  0
 20 15  1  0
  1 21  1  1
  2 22  1  0
  2 23  1  0
  5 24  1  0
  6 25  1  0
  7 26  1  0
 15 27  1  0
 16 28  1  0
 19 29  1  0
M  ISO  8  21  13  22  13  23  13  24  14  25  14  26   9  27  14  28  14
M  ISO  1  29  14
M  END
>  <minimizedAffinity>  (1) 
-4.1941309

>  <minimizedRMSD>  (1) 
4.89115953

$$$$
