
     RDKit          3D

 27 29  0  0  1  0  0  0  0  0999 V2000
   46.4180   32.9420   40.7990 C   0  0  2  0  0  0  0  0  0  0  0  0
   46.8580   34.2290   40.1640 C   0  0  0  0  0  0  0  0  0  0  0  0
   45.8460   34.2320   41.2150 C   0  0  1  0  0  0  0  0  0  0  0  0
   44.3730   34.1040   41.1530 C   0  0  0  0  0  0  0  0  0  0  0  0
   43.5460   34.8280   40.3690 N   0  0  0  0  0  0  0  0  0  0  0  0
   42.3090   34.4480   40.5750 O   0  0  0  0  0  0  0  0  0  0  0  0
   42.2930   33.4910   41.4730 C   0  0  0  0  0  0  0  0  0  0  0  0
   43.5840   33.2690   41.8430 N   0  0  0  0  0  0  0  0  0  0  0  0
   46.2670   35.0490   42.3860 C   0  0  0  0  0  0  0  0  0  0  0  0
   47.5020   35.6830   42.2670 F   0  0  0  0  0  0  0  0  0  0  0  0
   45.3660   36.1120   42.5070 F   0  0  0  0  0  0  0  0  0  0  0  0
   46.1420   34.4310   43.6240 F   0  0  0  0  0  0  0  0  0  0  0  0
   47.2680   32.2010   41.7400 C   0  0  0  0  0  0  0  0  0  0  0  0
   46.6450   31.5770   42.6270 O   0  0  0  0  0  0  0  0  0  0  0  0
   50.7530   31.5310   40.7010 C   0  0  0  0  0  0  0  0  0  0  0  0
   49.3120   31.4230   40.7300 C   0  0  0  0  0  0  0  0  0  0  0  0
   48.6910   32.2320   41.6100 C   0  0  0  0  0  0  0  0  0  0  0  0
   49.4440   33.0720   42.3900 N   0  0  0  0  0  0  0  0  0  0  0  0
   50.7830   33.1550   42.3450 C   0  0  0  0  0  0  0  0  0  0  0  0
   51.4660   32.3670   41.4810 N   0  0  0  0  0  0  0  0  0  0  0  0
   46.0419   31.9845   40.4094 H   0  0  0  0  0  0  0  0  0  0  0  0
   47.8632   34.6277   40.3656 H   0  0  0  0  0  0  0  0  0  0  0  0
   46.9146   34.6116   39.1342 H   0  0  0  0  0  0  0  0  0  0  0  0
   41.4042   32.9672   41.8546 H   0  0  0  0  0  0  0  0  0  0  0  0
   51.3031   30.8894   39.9969 H   0  0  0  0  0  0  0  0  0  0  0  0
   48.7608   30.7286   40.0789 H   0  0  0  0  0  0  0  0  0  0  0  0
   51.3194   33.8551   43.0024 H   0  0  0  0  0  0  0  0  0  0  0  0
  1  3  1  0
  1 13  1  0
  2  1  1  0
  2  3  1  0
  3  9  1  1
  4  3  1  0
  4  8  1  0
  5  6  1  0
  5  4  2  0
  6  7  1  0
  7  8  2  0
  9 11  1  0
  9 12  1  0
 10  9  1  0
 13 14  2  0
 15 16  2  0
 15 20  1  0
 16 17  1  0
 17 13  1  0
 17 18  2  0
 19 18  1  0
 20 19  2  0
  1 21  1  6
  2 22  1  0
  2 23  1  0
  7 24  1  0
 15 25  1  0
 16 26  1  0
 19 27  1  0
M  ISO  7  21  13  22  13  23  13  24  14  25  14  26  14  27  14
M  END
>  <minimizedAffinity>  (1) 
-4.14868259

>  <minimizedRMSD>  (1) 
4.79806185

$$$$
