
     RDKit          3D

 35 37  0  0  1  0  0  0  0  0999 V2000
   47.1130   33.2180   41.8430 C   0  0  2  0  0  0  0  0  0  0  0  0
   48.3030   33.2900   42.7040 C   0  0  0  0  0  0  0  0  0  0  0  0
   48.3970   33.8310   41.3660 C   0  0  2  0  0  0  0  0  0  0  0  0
   48.6990   35.2750   41.3150 C   0  0  0  0  0  0  0  0  0  0  0  0
   47.9260   36.0890   42.1090 F   0  0  0  0  0  0  0  0  0  0  0  0
   49.9920   35.4330   41.8430 F   0  0  0  0  0  0  0  0  0  0  0  0
   48.8540   35.8030   40.0360 F   0  0  0  0  0  0  0  0  0  0  0  0
   48.7740   33.1460   40.0870 C   0  0  0  0  0  0  0  0  0  0  0  0
   49.2580   31.7520   40.2010 C   0  0  0  0  0  0  0  0  0  0  0  0
   50.7140   31.6190   39.9930 C   0  0  0  0  0  0  0  0  0  0  0  0
   51.5940   31.2270   39.0230 C   0  0  0  0  0  0  0  0  0  0  0  0
   52.8970   31.3480   39.4470 C   0  0  0  0  0  0  0  0  0  0  0  0
   52.7530   31.8170   40.6790 N   0  0  0  0  0  0  0  0  0  0  0  0
   51.4990   31.9870   41.0310 N   0  0  0  0  0  0  0  0  0  0  0  0
   45.9430   34.0860   41.9900 C   0  0  0  0  0  0  0  0  0  0  0  0
   45.3920   34.3930   40.9290 O   0  0  0  0  0  0  0  0  0  0  0  0
   45.1720   34.1510   45.6150 C   0  0  0  0  0  0  0  0  0  0  0  0
   45.6570   33.6580   44.3520 C   0  0  0  0  0  0  0  0  0  0  0  0
   45.5080   34.5060   43.2950 C   0  0  0  0  0  0  0  0  0  0  0  0
   44.9340   35.7200   43.4930 N   0  0  0  0  0  0  0  0  0  0  0  0
   44.4860   36.1620   44.6830 C   0  0  0  0  0  0  0  0  0  0  0  0
   44.6050   35.3600   45.7820 N   0  0  0  0  0  0  0  0  0  0  0  0
   46.4376   32.3986   41.5559 H   0  0  0  0  0  0  0  0  0  0  0  0
   48.3095   33.9704   43.5683 H   0  0  0  0  0  0  0  0  0  0  0  0
   48.8829   32.5487   43.2734 H   0  0  0  0  0  0  0  0  0  0  0  0
   47.8862   33.1392   39.4375 H   0  0  0  0  0  0  0  0  0  0  0  0
   49.6261   33.7180   39.6912 H   0  0  0  0  0  0  0  0  0  0  0  0
   49.0137   31.3790   41.2066 H   0  0  0  0  0  0  0  0  0  0  0  0
   48.7620   31.1698   39.4104 H   0  0  0  0  0  0  0  0  0  0  0  0
   51.2975   30.8610   38.0289 H   0  0  0  0  0  0  0  0  0  0  0  0
   53.8237   31.1148   38.9021 H   0  0  0  0  0  0  0  0  0  0  0  0
   53.5475   32.0276   41.2997 H   0  0  0  0  0  0  0  0  0  0  0  0
   45.2709   33.5003   46.4963 H   0  0  0  0  0  0  0  0  0  0  0  0
   46.1167   32.6642   44.2471 H   0  0  0  0  0  0  0  0  0  0  0  0
   44.0288   37.1588   44.7693 H   0  0  0  0  0  0  0  0  0  0  0  0
  1 15  1  0
  1  2  1  0
  3  8  1  6
  3  1  1  0
  3  2  1  0
  4  3  1  0
  4  6  1  0
  4  5  1  0
  7  4  1  0
  8  9  1  0
 10  9  1  0
 10 14  2  0
 11 12  2  0
 11 10  1  0
 12 13  1  0
 13 14  1  0
 15 19  1  0
 16 15  2  0
 17 22  2  0
 18 17  1  0
 19 20  1  0
 19 18  2  0
 20 21  2  0
 21 22  1  0
  1 23  1  6
  2 24  1  0
  2 25  1  0
  8 26  1  0
  8 27  1  0
  9 28  1  0
  9 29  1  0
 11 30  1  0
 12 31  1  0
 13 32  1  0
 17 33  1  0
 18 34  1  0
 21 35  1  0
M  ISO  8  23  13  24  13  25  13  26   8  27   8  28   8  29   8  30  14
M  ISO  5  31  14  32   9  33  14  34  14  35  14
M  END
>  <minimizedAffinity>  (1) 
-5.59229088

>  <minimizedRMSD>  (1) 
1.14370573

$$$$
