
     RDKit          3D

 36 38  0  0  1  0  0  0  0  0999 V2000
   46.9200   33.2140   41.5640 C   0  0  2  0  0  0  0  0  0  0  0  0
   48.1290   33.1180   42.4030 C   0  0  0  0  0  0  0  0  0  0  0  0
   48.2350   33.7930   41.1330 C   0  0  2  0  0  0  0  0  0  0  0  0
   48.6170   35.2150   41.2250 C   0  0  0  0  0  0  0  0  0  0  0  0
   47.8710   35.9960   42.0790 F   0  0  0  0  0  0  0  0  0  0  0  0
   49.9010   35.2400   41.8010 F   0  0  0  0  0  0  0  0  0  0  0  0
   48.8440   35.8600   40.0140 F   0  0  0  0  0  0  0  0  0  0  0  0
   48.5250   33.2360   39.7710 C   0  0  0  0  0  0  0  0  0  0  0  0
   49.0450   31.8520   39.7180 C   0  0  0  0  0  0  0  0  0  0  0  0
   50.4940   31.6870   39.5830 C   0  0  0  0  0  0  0  0  0  0  0  0
   51.5350   31.4930   40.4560 C   0  0  0  0  0  0  0  0  0  0  0  0
   52.8590   31.3410   40.1590 C   0  0  0  0  0  0  0  0  0  0  0  0
   53.1410   31.3940   38.8280 N   0  0  0  0  0  0  0  0  0  0  0  0
   52.1390   31.5840   37.9300 C   0  0  0  0  0  0  0  0  0  0  0  0
   50.8560   31.7270   38.2690 N   0  0  0  0  0  0  0  0  0  0  0  0
   45.8090   34.1230   41.8380 C   0  0  0  0  0  0  0  0  0  0  0  0
   45.2280   34.5460   40.8350 O   0  0  0  0  0  0  0  0  0  0  0  0
   45.3010   33.9610   45.5050 C   0  0  0  0  0  0  0  0  0  0  0  0
   45.7070   33.5560   44.1860 C   0  0  0  0  0  0  0  0  0  0  0  0
   45.4570   34.4560   43.1910 C   0  0  0  0  0  0  0  0  0  0  0  0
   44.8620   35.6380   43.4980 N   0  0  0  0  0  0  0  0  0  0  0  0
   44.4900   35.9980   44.7400 C   0  0  0  0  0  0  0  0  0  0  0  0
   44.7100   35.1420   45.7800 N   0  0  0  0  0  0  0  0  0  0  0  0
   46.1892   32.4779   41.1978 H   0  0  0  0  0  0  0  0  0  0  0  0
   48.1925   33.6984   43.3353 H   0  0  0  0  0  0  0  0  0  0  0  0
   48.6698   32.2849   42.8758 H   0  0  0  0  0  0  0  0  0  0  0  0
   47.5894   33.2633   39.1932 H   0  0  0  0  0  0  0  0  0  0  0  0
   49.3320   33.8646   39.3665 H   0  0  0  0  0  0  0  0  0  0  0  0
   48.7394   31.3477   40.6466 H   0  0  0  0  0  0  0  0  0  0  0  0
   48.6235   31.4255   38.7958 H   0  0  0  0  0  0  0  0  0  0  0  0
   51.2710   31.4554   41.5232 H   0  0  0  0  0  0  0  0  0  0  0  0
   53.6306   31.1890   40.9281 H   0  0  0  0  0  0  0  0  0  0  0  0
   52.4003   31.6221   36.8622 H   0  0  0  0  0  0  0  0  0  0  0  0
   45.4831   33.2668   46.3386 H   0  0  0  0  0  0  0  0  0  0  0  0
   46.1871   32.5855   43.9921 H   0  0  0  0  0  0  0  0  0  0  0  0
   44.0129   36.9735   44.9156 H   0  0  0  0  0  0  0  0  0  0  0  0
  1 16  1  0
  1  2  1  0
  3  8  1  6
  3  4  1  0
  3  1  1  0
  3  2  1  0
  4  6  1  0
  4  5  1  0
  7  4  1  0
  9  8  1  0
 10  9  1  0
 10 11  2  0
 12 11  1  0
 13 12  2  0
 14 15  2  0
 14 13  1  0
 15 10  1  0
 16 20  1  0
 17 16  2  0
 18 23  2  0
 19 18  1  0
 20 21  1  0
 20 19  2  0
 21 22  2  0
 22 23  1  0
  1 24  1  6
  2 25  1  0
  2 26  1  0
  8 27  1  0
  8 28  1  0
  9 29  1  0
  9 30  1  0
 11 31  1  0
 12 32  1  0
 14 33  1  0
 18 34  1  0
 19 35  1  0
 22 36  1  0
M  ISO  8  24  13  25  13  26  13  27   8  28   8  29   8  30   8  31  14
M  ISO  5  32  14  33  14  34  14  35  14  36  14
M  END
>  <minimizedAffinity>  (1) 
-5.4899497

>  <minimizedRMSD>  (1) 
1.48609626

$$$$
