
     RDKit          3D

 26 27  0  0  1  0  0  0  0  0999 V2000
   46.7810   33.7940   42.3150 C   0  0  2  0  0  0  0  0  0  0  0  0
   47.4600   32.5370   42.6420 C   0  0  0  0  0  0  0  0  0  0  0  0
   48.9340   32.8600   42.8950 C   0  0  0  0  0  0  0  0  0  0  0  0
   49.0810   34.3600   42.8550 C   0  0  0  0  0  0  0  0  0  0  0  0
   47.9390   34.7870   42.0090 C   0  0  1  0  0  0  0  0  0  0  0  0
   45.9960   34.4360   43.3800 C   0  0  0  0  0  0  0  0  0  0  0  0
   45.8630   33.7770   44.6140 C   0  0  0  0  0  0  0  0  0  0  0  0
   45.1400   34.3750   45.6450 C   0  0  0  0  0  0  0  0  0  0  0  0
   44.5920   35.6060   45.3710 N   0  0  0  0  0  0  0  0  0  0  0  0
   44.7370   36.2160   44.1750 C   0  0  0  0  0  0  0  0  0  0  0  0
   45.4320   35.6340   43.1940 N   0  0  0  0  0  0  0  0  0  0  0  0
   48.2680   34.7240   40.5340 C   0  0  0  0  0  0  0  0  0  0  0  0
   47.1390   34.4630   39.7840 F   0  0  0  0  0  0  0  0  0  0  0  0
   48.8040   35.8900   40.0670 F   0  0  0  0  0  0  0  0  0  0  0  0
   49.1490   33.6890   40.2930 F   0  0  0  0  0  0  0  0  0  0  0  0
   46.0627   33.5625   41.5147 H   0  0  0  0  0  0  0  0  0  0  0  0
   47.0132   32.0928   43.5437 H   0  0  0  0  0  0  0  0  0  0  0  0
   47.3583   31.8168   41.8168 H   0  0  0  0  0  0  0  0  0  0  0  0
   49.2385   32.4787   43.8808 H   0  0  0  0  0  0  0  0  0  0  0  0
   49.5712   32.3872   42.1331 H   0  0  0  0  0  0  0  0  0  0  0  0
   49.0077   34.7911   43.8643 H   0  0  0  0  0  0  0  0  0  0  0  0
   50.0554   34.6890   42.4647 H   0  0  0  0  0  0  0  0  0  0  0  0
   47.6770   35.8314   42.2339 H   0  0  0  0  0  0  0  0  0  0  0  0
   46.3282   32.7919   44.7660 H   0  0  0  0  0  0  0  0  0  0  0  0
   45.0148   33.8889   46.6238 H   0  0  0  0  0  0  0  0  0  0  0  0
   44.2784   37.2016   44.0070 H   0  0  0  0  0  0  0  0  0  0  0  0
  1  2  1  0
  1  6  1  0
  2  3  1  0
  4  3  1  0
  5  1  1  0
  5  4  1  0
  6  7  2  0
  7  8  1  0
  9  8  2  0
 10  9  1  0
 11  6  1  0
 11 10  2  0
 12  5  1  0
 13 12  1  0
 14 12  1  0
 15 12  1  0
  1 16  1  6
  2 17  1  0
  2 18  1  0
  3 19  1  0
  3 20  1  0
  4 21  1  0
  4 22  1  0
  5 23  1  1
  7 24  1  0
  8 25  1  0
 10 26  1  0
M  ISO  8  16  13  17  13  18  13  19  13  20  13  21  13  22  13  23  13
M  ISO  3  24  14  25  14  26  14
M  END
>  <minimizedAffinity>  (1) 
-5.00767756

>  <minimizedRMSD>  (1) 
3.68103004

$$$$
