
     RDKit          3D

 42 45  0  0  1  0  0  0  0  0999 V2000
   47.3380   32.8600   42.4570 C   0  0  2  0  0  0  0  0  0  0  0  0
   48.4950   33.4170   43.1750 C   0  0  0  0  0  0  0  0  0  0  0  0
   48.4430   33.5620   41.7360 C   0  0  2  0  0  0  0  0  0  0  0  0
   48.4280   34.9710   41.2790 C   0  0  0  0  0  0  0  0  0  0  0  0
   47.5900   35.8280   41.9610 F   0  0  0  0  0  0  0  0  0  0  0  0
   49.7140   35.4860   41.5540 F   0  0  0  0  0  0  0  0  0  0  0  0
   48.3460   35.1580   39.9080 F   0  0  0  0  0  0  0  0  0  0  0  0
   48.9290   32.6580   40.6460 C   0  0  0  0  0  0  0  0  0  0  0  0
   50.3660   32.4860   40.4570 C   0  0  0  0  0  0  0  0  0  0  0  0
   51.1520   31.5180   41.2070 C   0  0  0  0  0  0  0  0  0  0  0  0
   51.0090   31.0090   42.4430 N   0  0  0  0  0  0  0  0  0  0  0  0
   51.7430   30.1370   43.0780 C   0  0  0  0  0  0  0  0  0  0  0  0
   52.8170   29.6060   42.5150 N   0  0  0  0  0  0  0  0  0  0  0  0
   53.1060   30.0140   41.2610 C   0  0  0  0  0  0  0  0  0  0  0  0
   54.2340   29.4630   40.6940 C   0  0  0  0  0  0  0  0  0  0  0  0
   54.6100   29.8330   39.4310 C   0  0  0  0  0  0  0  0  0  0  0  0
   53.8570   30.7440   38.7580 C   0  0  0  0  0  0  0  0  0  0  0  0
   52.7400   31.2600   39.3710 C   0  0  0  0  0  0  0  0  0  0  0  0
   52.2860   30.9460   40.6380 C   0  0  0  0  0  0  0  0  0  0  0  0
   46.0020   33.4960   42.4570 C   0  0  0  0  0  0  0  0  0  0  0  0
   45.3750   33.4140   41.3960 O   0  0  0  0  0  0  0  0  0  0  0  0
   45.0880   34.2030   45.9770 C   0  0  0  0  0  0  0  0  0  0  0  0
   45.6200   33.4970   44.8430 C   0  0  0  0  0  0  0  0  0  0  0  0
   45.5150   34.1430   43.6450 C   0  0  0  0  0  0  0  0  0  0  0  0
   44.9360   35.3710   43.6000 N   0  0  0  0  0  0  0  0  0  0  0  0
   44.4450   36.0130   44.6760 C   0  0  0  0  0  0  0  0  0  0  0  0
   44.5170   35.4240   45.9050 N   0  0  0  0  0  0  0  0  0  0  0  0
   46.8561   31.8712   42.4527 H   0  0  0  0  0  0  0  0  0  0  0  0
   48.3647   34.3004   43.8173 H   0  0  0  0  0  0  0  0  0  0  0  0
   49.2328   33.0055   43.8795 H   0  0  0  0  0  0  0  0  0  0  0  0
   48.5082   31.6609   40.8427 H   0  0  0  0  0  0  0  0  0  0  0  0
   48.5996   33.1573   39.7229 H   0  0  0  0  0  0  0  0  0  0  0  0
   50.5042   32.2320   39.3957 H   0  0  0  0  0  0  0  0  0  0  0  0
   50.7557   33.4374   40.8481 H   0  0  0  0  0  0  0  0  0  0  0  0
   51.4645   29.8378   44.0992 H   0  0  0  0  0  0  0  0  0  0  0  0
   54.8306   28.7281   41.2544 H   0  0  0  0  0  0  0  0  0  0  0  0
   55.5083   29.3998   38.9669 H   0  0  0  0  0  0  0  0  0  0  0  0
   54.1365   31.0618   37.7427 H   0  0  0  0  0  0  0  0  0  0  0  0
   52.1517   31.9924   38.7987 H   0  0  0  0  0  0  0  0  0  0  0  0
   45.1501   33.7189   46.9628 H   0  0  0  0  0  0  0  0  0  0  0  0
   46.0810   32.5025   44.9347 H   0  0  0  0  0  0  0  0  0  0  0  0
   43.9880   37.0074   44.5655 H   0  0  0  0  0  0  0  0  0  0  0  0
  1 20  1  0
  1  2  1  0
  3  8  1  6
  3  1  1  0
  3  2  1  0
  4  6  1  0
  4  3  1  0
  4  5  1  0
  7  4  1  0
  9  8  1  0
  9 10  1  0
 10 11  2  0
 11 12  1  0
 13 12  2  0
 14 13  1  0
 15 14  2  0
 16 15  1  0
 17 18  1  0
 17 16  2  0
 18 19  2  0
 19 10  1  0
 19 14  1  0
 20 24  1  0
 21 20  2  0
 23 22  2  0
 24 23  1  0
 25 24  2  0
 25 26  1  0
 26 27  2  0
 27 22  1  0
  1 28  1  6
  2 29  1  0
  2 30  1  0
  8 31  1  0
  8 32  1  0
  9 33  1  0
  9 34  1  0
 12 35  1  0
 15 36  1  0
 16 37  1  0
 17 38  1  0
 18 39  1  0
 22 40  1  0
 23 41  1  0
 26 42  1  0
M  ISO  8  28  13  29  13  30  13  31   8  32   8  33   8  34   8  35  14
M  ISO  7  36  14  37  14  38  14  39  14  40  14  41  14  42  14
M  END
>  <minimizedAffinity>  (1) 
-5.18700361

>  <minimizedRMSD>  (1) 
1.85295212

$$$$
