
     RDKit          3D

 41 43  0  0  1  0  0  0  0  0999 V2000
   47.6050   32.9180   42.5310 C   0  0  2  0  0  0  0  0  0  0  0  0
   48.6950   33.5860   43.2480 C   0  0  0  0  0  0  0  0  0  0  0  0
   48.6620   33.6920   41.8040 C   0  0  2  0  0  0  0  0  0  0  0  0
   48.5330   35.0730   41.3020 C   0  0  0  0  0  0  0  0  0  0  0  0
   47.6490   35.8880   41.9730 F   0  0  0  0  0  0  0  0  0  0  0  0
   49.7740   35.6980   41.5210 F   0  0  0  0  0  0  0  0  0  0  0  0
   48.4000   35.1940   39.9240 F   0  0  0  0  0  0  0  0  0  0  0  0
   49.2680   32.7940   40.7650 C   0  0  0  0  0  0  0  0  0  0  0  0
   50.5810   32.1810   41.1010 C   0  0  0  0  0  0  0  0  0  0  0  0
   51.2160   31.3630   40.0360 C   0  0  0  0  0  0  0  0  0  0  0  0
   52.6900   31.4140   39.9440 C   0  0  0  0  0  0  0  0  0  0  0  0
   52.9320   30.8150   38.5690 C   0  0  0  0  0  0  0  0  0  0  0  0
   51.9320   31.6440   37.7540 C   0  0  0  0  0  0  0  0  0  0  0  0
   50.7080   31.6330   38.6550 C   0  0  0  0  0  0  0  0  0  0  0  0
   46.2220   33.4150   42.4710 C   0  0  0  0  0  0  0  0  0  0  0  0
   45.6290   33.1910   41.4140 O   0  0  0  0  0  0  0  0  0  0  0  0
   45.0920   34.2500   45.9010 C   0  0  0  0  0  0  0  0  0  0  0  0
   45.7040   33.5080   44.8300 C   0  0  0  0  0  0  0  0  0  0  0  0
   45.6570   34.0970   43.6030 C   0  0  0  0  0  0  0  0  0  0  0  0
   45.0560   35.3070   43.4770 N   0  0  0  0  0  0  0  0  0  0  0  0
   44.4900   35.9820   44.4920 C   0  0  0  0  0  0  0  0  0  0  0  0
   44.5040   35.4450   45.7470 N   0  0  0  0  0  0  0  0  0  0  0  0
   47.2069   31.8930   42.5598 H   0  0  0  0  0  0  0  0  0  0  0  0
   48.4796   34.4713   43.8642 H   0  0  0  0  0  0  0  0  0  0  0  0
   49.4507   33.2543   43.9752 H   0  0  0  0  0  0  0  0  0  0  0  0
   48.5569   31.9768   40.5739 H   0  0  0  0  0  0  0  0  0  0  0  0
   49.4631   33.4424   39.8981 H   0  0  0  0  0  0  0  0  0  0  0  0
   51.2752   32.9948   41.3576 H   0  0  0  0  0  0  0  0  0  0  0  0
   50.3766   31.4823   41.9256 H   0  0  0  0  0  0  0  0  0  0  0  0
   50.9155   30.3644   40.3861 H   0  0  0  0  0  0  0  0  0  0  0  0
   53.0601   32.4482   40.0019 H   0  0  0  0  0  0  0  0  0  0  0  0
   53.2074   30.8866   40.7589 H   0  0  0  0  0  0  0  0  0  0  0  0
   53.9668   30.9703   38.2298 H   0  0  0  0  0  0  0  0  0  0  0  0
   52.8010   29.7248   38.5029 H   0  0  0  0  0  0  0  0  0  0  0  0
   52.2998   32.6678   37.5913 H   0  0  0  0  0  0  0  0  0  0  0  0
   51.7447   31.2482   36.7449 H   0  0  0  0  0  0  0  0  0  0  0  0
   50.1979   32.6069   38.6189 H   0  0  0  0  0  0  0  0  0  0  0  0
   49.9801   30.8720   38.3371 H   0  0  0  0  0  0  0  0  0  0  0  0
   45.1078   33.8090   46.9086 H   0  0  0  0  0  0  0  0  0  0  0  0
   46.1787   32.5290   44.9921 H   0  0  0  0  0  0  0  0  0  0  0  0
   44.0190   36.9598   44.3129 H   0  0  0  0  0  0  0  0  0  0  0  0
  1  2  1  0
  3  8  1  6
  3  1  1  0
  3  2  1  0
  4  6  1  0
  4  3  1  0
  4  5  1  0
  7  4  1  0
  8  9  1  0
 10  9  1  0
 11 10  1  0
 12 11  1  0
 13 12  1  0
 13 14  1  0
 14 10  1  0
 15  1  1  0
 15 19  1  0
 16 15  2  0
 18 17  2  0
 19 18  1  0
 20 19  2  0
 20 21  1  0
 21 22  2  0
 22 17  1  0
  1 23  1  6
  2 24  1  0
  2 25  1  0
  8 26  1  0
  8 27  1  0
  9 28  1  0
  9 29  1  0
 10 30  1  0
 11 31  1  0
 11 32  1  0
 12 33  1  0
 12 34  1  0
 13 35  1  0
 13 36  1  0
 14 37  1  0
 14 38  1  0
 17 39  1  0
 18 40  1  0
 21 41  1  0
M  ISO  8  23  13  24  13  25  13  26   8  27   8  28   8  29   8  30  13
M  ISO  8  31  13  32  13  33  13  34  13  35  13  36  13  37  13  38  13
M  ISO  3  39  14  40  14  41  14
M  END
>  <minimizedAffinity>  (1) 
-5.01976442

>  <minimizedRMSD>  (1) 
0.64806819

$$$$
