
     RDKit          3D

 42 44  0  0  1  0  0  0  0  0999 V2000
   47.3290   32.9350   42.2840 C   0  0  2  0  0  0  0  0  0  0  0  0
   48.4900   33.3680   43.0800 C   0  0  0  0  0  0  0  0  0  0  0  0
   48.4890   33.6420   41.6610 C   0  0  2  0  0  0  0  0  0  0  0  0
   48.5550   35.0850   41.3350 C   0  0  0  0  0  0  0  0  0  0  0  0
   47.7310   35.9150   42.0620 F   0  0  0  0  0  0  0  0  0  0  0  0
   49.8440   35.5170   41.6860 F   0  0  0  0  0  0  0  0  0  0  0  0
   48.5190   35.3940   39.9770 F   0  0  0  0  0  0  0  0  0  0  0  0
   48.9730   32.8200   40.5090 C   0  0  0  0  0  0  0  0  0  0  0  0
   50.2620   32.1330   40.6370 C   0  0  0  0  0  0  0  0  0  0  0  0
   50.4320   30.9090   41.2750 N   0  0  0  0  0  0  0  0  0  0  0  0
   50.7410   29.7920   40.4690 C   0  0  0  0  0  0  0  0  0  0  0  0
   50.9740   28.5100   41.1890 C   0  0  0  0  0  0  0  0  0  0  0  0
   51.2790   28.6020   42.5700 N   0  0  0  0  0  0  0  0  0  0  0  0
   50.8680   29.7590   43.2770 C   0  0  0  0  0  0  0  0  0  0  0  0
   51.2580   30.9790   42.4670 C   0  0  0  0  0  0  0  0  0  0  0  0
   46.0210   33.6290   42.2970 C   0  0  0  0  0  0  0  0  0  0  0  0
   45.4230   33.6370   41.2210 O   0  0  0  0  0  0  0  0  0  0  0  0
   45.1180   34.1870   45.8480 C   0  0  0  0  0  0  0  0  0  0  0  0
   45.6510   33.5260   44.6810 C   0  0  0  0  0  0  0  0  0  0  0  0
   45.5390   34.2200   43.5140 C   0  0  0  0  0  0  0  0  0  0  0  0
   44.9540   35.4450   43.5250 N   0  0  0  0  0  0  0  0  0  0  0  0
   44.4650   36.0380   44.6290 C   0  0  0  0  0  0  0  0  0  0  0  0
   44.5420   35.4020   45.8300 N   0  0  0  0  0  0  0  0  0  0  0  0
   46.8003   31.9759   42.1812 H   0  0  0  0  0  0  0  0  0  0  0  0
   48.3824   34.1964   43.7956 H   0  0  0  0  0  0  0  0  0  0  0  0
   49.1855   32.8592   43.7637 H   0  0  0  0  0  0  0  0  0  0  0  0
   48.2116   32.0500   40.3160 H   0  0  0  0  0  0  0  0  0  0  0  0
   49.1345   33.5512   39.7033 H   0  0  0  0  0  0  0  0  0  0  0  0
   50.6246   31.9860   39.6089 H   0  0  0  0  0  0  0  0  0  0  0  0
   50.7884   32.8048   41.3309 H   0  0  0  0  0  0  0  0  0  0  0  0
   51.6527   30.0291   39.9011 H   0  0  0  0  0  0  0  0  0  0  0  0
   49.8515   29.6229   39.8443 H   0  0  0  0  0  0  0  0  0  0  0  0
   50.0635   27.9010   41.0886 H   0  0  0  0  0  0  0  0  0  0  0  0
   51.8708   28.0756   40.7232 H   0  0  0  0  0  0  0  0  0  0  0  0
   50.8424   27.7918   43.0325 H   0  0  0  0  0  0  0  0  0  0  0  0
   49.7773   29.7401   43.4182 H   0  0  0  0  0  0  0  0  0  0  0  0
   51.3524   29.7904   44.2641 H   0  0  0  0  0  0  0  0  0  0  0  0
   52.3251   30.9440   42.2022 H   0  0  0  0  0  0  0  0  0  0  0  0
   51.1059   31.9150   43.0245 H   0  0  0  0  0  0  0  0  0  0  0  0
   45.1873   33.6639   46.8132 H   0  0  0  0  0  0  0  0  0  0  0  0
   46.1158   32.5302   44.7304 H   0  0  0  0  0  0  0  0  0  0  0  0
   44.0040   37.0345   44.5614 H   0  0  0  0  0  0  0  0  0  0  0  0
  1 16  1  0
  1  2  1  0
  3  8  1  6
  3  1  1  0
  3  2  1  0
  4  3  1  0
  4  6  1  0
  4  5  1  0
  7  4  1  0
  8  9  1  0
  9 10  1  0
 10 15  1  0
 11 12  1  0
 11 10  1  0
 12 13  1  0
 13 14  1  0
 15 14  1  0
 16 20  1  0
 17 16  2  0
 19 18  2  0
 20 21  2  0
 20 19  1  0
 21 22  1  0
 22 23  2  0
 23 18  1  0
  1 24  1  6
  2 25  1  0
  2 26  1  0
  8 27  1  0
  8 28  1  0
  9 29  1  0
  9 30  1  0
 11 31  1  0
 11 32  1  0
 12 33  1  0
 12 34  1  0
 13 35  1  0
 14 36  1  0
 14 37  1  0
 15 38  1  0
 15 39  1  0
 18 40  1  0
 19 41  1  0
 22 42  1  0
M  ISO  8  24  13  25  13  26  13  27   8  28   8  29   8  30   8  31  13
M  ISO  8  32  13  33  13  34  13  35   5  36  13  37  13  38  13  39  13
M  ISO  3  40  14  41  14  42  14
M  END
>  <minimizedAffinity>  (1) 
-4.72022724

>  <minimizedRMSD>  (1) 
0.64551878

$$$$
