
     RDKit          3D

 53 57  0  0  1  0  0  0  0  0999 V2000
   48.5510   32.4910   40.2280 C   0  0  2  0  0  0  0  0  0  0  0  0
   48.3710   31.8810   41.5180 C   0  0  0  0  0  0  0  0  0  0  0  0
   49.4120   32.8610   41.4340 C   0  0  2  0  0  0  0  0  0  0  0  0
   49.2760   34.0550   42.2530 C   0  0  0  0  0  0  0  0  0  0  0  0
   48.2600   34.0530   43.1840 F   0  0  0  0  0  0  0  0  0  0  0  0
   50.4390   34.1010   43.0550 F   0  0  0  0  0  0  0  0  0  0  0  0
   49.3480   35.2760   41.5910 F   0  0  0  0  0  0  0  0  0  0  0  0
   50.8510   32.6700   41.0420 C   0  0  0  0  0  0  0  0  0  0  0  0
   51.1700   31.4460   40.2370 C   0  0  0  0  0  0  0  0  0  0  0  0
   52.3290   30.7400   40.7610 N   0  0  0  0  0  0  0  0  0  0  0  0
   53.5920   30.5280   40.3980 C   0  0  0  0  0  0  0  0  0  0  0  0
   54.2790   29.7450   41.3150 C   0  0  0  0  0  0  0  0  0  0  0  0
   53.3910   29.4650   42.2850 N   0  0  0  0  0  0  0  0  0  0  0  0
   52.2490   30.0640   41.9340 C   0  0  0  0  0  0  0  0  0  0  0  0
   47.7160   33.5480   39.6590 C   0  0  0  0  0  0  0  0  0  0  0  0
   48.2840   34.3580   38.9450 O   0  0  0  0  0  0  0  0  0  0  0  0
   44.0500   33.0320   39.4430 C   0  0  0  0  0  0  0  0  0  0  0  0
   45.4340   32.9240   39.1150 C   0  0  0  0  0  0  0  0  0  0  0  0
   46.2990   33.5760   39.9500 C   0  0  0  0  0  0  0  0  0  0  0  0
   45.7760   34.2510   40.9950 N   0  0  0  0  0  0  0  0  0  0  0  0
   44.4550   34.3380   41.2850 C   0  0  0  0  0  0  0  0  0  0  0  0
   43.5840   33.7130   40.4860 N   0  0  0  0  0  0  0  0  0  0  0  0
   44.5110   35.0550   42.4870 C   0  0  0  0  0  0  0  0  0  0  0  0
   44.5650   35.6830   43.5540 N   0  0  0  0  0  0  0  0  0  0  0  0
   44.5910   36.3730   44.5700 C   0  0  0  0  0  0  0  0  0  0  0  0
   45.0310   35.3660   45.3290 N   0  0  0  0  0  0  0  0  0  0  0  0
   45.2460   34.1470   44.7660 C   0  0  0  0  0  0  0  0  0  0  0  0
   45.6840   33.1810   45.7160 C   0  0  0  0  0  0  0  0  0  0  0  0
   45.8860   31.9250   45.2210 C   0  0  0  0  0  0  0  0  0  0  0  0
   45.7010   31.5310   43.8940 C   0  0  0  0  0  0  0  0  0  0  0  0
   45.2820   32.6050   43.1550 C   0  0  0  0  0  0  0  0  0  0  0  0
   44.9940   33.9790   43.3660 C   0  0  0  0  0  0  0  0  0  0  0  0
   48.6542   32.0695   39.2172 H   0  0  0  0  0  0  0  0  0  0  0  0
   47.4645   32.1079   42.0983 H   0  0  0  0  0  0  0  0  0  0  0  0
   48.3488   30.8353   41.8585 H   0  0  0  0  0  0  0  0  0  0  0  0
   51.1553   33.5467   40.4514 H   0  0  0  0  0  0  0  0  0  0  0  0
   51.3958   32.5446   41.9893 H   0  0  0  0  0  0  0  0  0  0  0  0
   51.3757   31.7465   39.1990 H   0  0  0  0  0  0  0  0  0  0  0  0
   50.3052   30.7682   40.2892 H   0  0  0  0  0  0  0  0  0  0  0  0
   54.0400   30.9278   39.4764 H   0  0  0  0  0  0  0  0  0  0  0  0
   55.3289   29.4216   41.2599 H   0  0  0  0  0  0  0  0  0  0  0  0
   51.3316   30.0135   42.5389 H   0  0  0  0  0  0  0  0  0  0  0  0
   43.3239   32.5209   38.7937 H   0  0  0  0  0  0  0  0  0  0  0  0
   45.7842   32.3512   38.2436 H   0  0  0  0  0  0  0  0  0  0  0  0
   43.4720   34.7680   42.7066 H   0  0  0  0  0  0  0  0  0  0  0  0
   43.9659   34.9856   44.0184 H   0  0  0  0  0  0  0  0  0  0  0  0
   45.2967   37.2146   44.5087 H   0  0  0  0  0  0  0  0  0  0  0  0
   43.6762   36.9033   44.8730 H   0  0  0  0  0  0  0  0  0  0  0  0
   45.2062   35.5117   46.3335 H   0  0  0  0  0  0  0  0  0  0  0  0
   45.8481   33.4295   46.7749 H   0  0  0  0  0  0  0  0  0  0  0  0
   46.2244   31.1551   45.9300 H   0  0  0  0  0  0  0  0  0  0  0  0
   45.8661   30.5161   43.5033 H   0  0  0  0  0  0  0  0  0  0  0  0
   45.1244   32.3245   42.1031 H   0  0  0  0  0  0  0  0  0  0  0  0
  1  3  1  0
  1  2  1  0
  3  8  1  6
  3  2  1  0
  3  4  1  0
  4  6  1  0
  4  5  1  0
  7  4  1  0
  9 10  1  0
  9  8  1  0
 10 14  1  0
 11 10  1  0
 11 12  2  0
 12 13  1  0
 14 13  2  0
 15 19  1  0
 15  1  1  0
 16 15  2  0
 17 22  2  0
 18 17  1  0
 18 19  2  0
 19 20  1  0
 20 21  2  0
 22 21  1  0
 23 21  1  0
 23 32  1  0
 23 24  1  0
 24 25  1  0
 25 26  1  0
 27 26  1  0
 27 28  2  0
 29 28  1  0
 30 29  2  0
 31 32  2  0
 31 30  1  0
 32 27  1  0
  1 33  1  6
  2 34  1  0
  2 35  1  0
  8 36  1  0
  8 37  1  0
  9 38  1  0
  9 39  1  0
 11 40  1  0
 12 41  1  0
 14 42  1  0
 17 43  1  0
 18 44  1  0
 23 45  1  0
 24 46  1  0
 25 47  1  0
 25 48  1  0
 26 49  1  0
 28 50  1  0
 29 51  1  0
 30 52  1  0
 31 53  1  0
M  ISO  8  33  13  34  13  35  13  36   8  37   8  38   8  39   8  40  14
M  ISO  8  41  14  42  14  43  14  44  14  45  13  46   5  47  13  48  13
M  ISO  4  50  14  51  14  52  14  53  14
M  END
>  <minimizedAffinity>  (1) 
-5.42054462

>  <minimizedRMSD>  (1) 
3.92480063

$$$$
