
     RDKit          3D

 23 24  0  0  0  0  0  0  0  0999 V2000
   45.9590   33.7300   45.1570 C   0  0  0  0  0  0  0  0  0  0  0  0
   44.9870   34.5940   45.6890 C   0  0  0  0  0  0  0  0  0  0  0  0
   44.5650   35.6810   44.9030 C   0  0  0  0  0  0  0  0  0  0  0  0
   45.1240   35.8290   43.6750 N   0  0  0  0  0  0  0  0  0  0  0  0
   46.0600   34.9790   43.1880 C   0  0  0  0  0  0  0  0  0  0  0  0
   46.4700   33.9340   43.9360 N   0  0  0  0  0  0  0  0  0  0  0  0
   46.6110   35.2280   41.8290 C   0  0  0  0  0  0  0  0  0  0  0  0
   48.1360   35.3560   41.9180 C   0  0  0  0  0  0  0  0  0  0  0  0
   48.6330   35.1180   40.5120 C   0  0  0  0  0  0  0  0  0  0  0  0
   47.5990   34.1810   39.9020 C   0  0  0  0  0  0  0  0  0  0  0  0
   46.4660   34.0710   40.9070 C   0  0  0  0  0  0  0  0  0  0  0  0
   46.3056   32.8727   45.7527 H   0  0  0  0  0  0  0  0  0  0  0  0
   44.5680   34.4249   46.6919 H   0  0  0  0  0  0  0  0  0  0  0  0
   43.8069   36.3880   45.2712 H   0  0  0  0  0  0  0  0  0  0  0  0
   46.0693   36.1145   41.4676 H   0  0  0  0  0  0  0  0  0  0  0  0
   48.4198   36.3612   42.2630 H   0  0  0  0  0  0  0  0  0  0  0  0
   48.5686   34.6423   42.6346 H   0  0  0  0  0  0  0  0  0  0  0  0
   48.6821   36.0628   39.9507 H   0  0  0  0  0  0  0  0  0  0  0  0
   49.6483   34.6952   40.4907 H   0  0  0  0  0  0  0  0  0  0  0  0
   47.2258   34.5938   38.9532 H   0  0  0  0  0  0  0  0  0  0  0  0
   48.0357   33.1945   39.6873 H   0  0  0  0  0  0  0  0  0  0  0  0
   45.4949   34.1139   40.3921 H   0  0  0  0  0  0  0  0  0  0  0  0
   46.5080   33.1172   41.4534 H   0  0  0  0  0  0  0  0  0  0  0  0
  1  2  2  0
  3  2  1  0
  4  3  2  0
  5  4  1  0
  5  6  2  0
  6  1  1  0
  7  8  1  0
  7  5  1  0
  9  8  1  0
 10  9  1  0
 10 11  1  0
 11  7  1  0
  1 12  1  0
  2 13  1  0
  3 14  1  0
  7 15  1  0
  8 16  1  0
  8 17  1  0
  9 18  1  0
  9 19  1  0
 10 20  1  0
 10 21  1  0
 11 22  1  0
 11 23  1  0
M  ISO  8  12  14  13  14  14  14  15  13  16  13  17  13  18  13  19  13
M  ISO  4  20  13  21  13  22  13  23  13
M  END
>  <minimizedAffinity>  (1) 
-4.26905775

>  <minimizedRMSD>  (1) 
5.57086611

$$$$
