
     RDKit          3D

 36 38  0  0  1  0  0  0  0  0999 V2000
   46.1060   34.8560   42.2760 C   0  0  1  0  0  0  0  0  0  0  0  0
   47.6090   34.8330   42.0340 C   0  0  0  0  0  0  0  0  0  0  0  0
   47.7750   34.6100   40.5570 C   0  0  0  0  0  0  0  0  0  0  0  0
   46.5070   33.9000   40.1330 C   0  0  0  0  0  0  0  0  0  0  0  0
   45.6500   33.7480   41.3810 C   0  0  2  0  0  0  0  0  0  0  0  0
   44.2580   33.6990   41.1080 N   0  0  0  0  0  0  0  0  0  0  0  0
   43.7040   34.4980   40.1510 C   0  0  0  0  0  0  0  0  0  0  0  0
   42.3840   34.5470   39.7940 C   0  0  0  0  0  0  0  0  0  0  0  0
   41.9230   35.4720   38.7270 C   0  0  0  0  0  0  0  0  0  0  0  0
   41.5330   33.6830   40.4890 C   0  0  0  0  0  0  0  0  0  0  0  0
   40.3050   33.6930   40.1940 O   0  0  0  0  0  0  0  0  0  0  0  0
   42.0660   32.8820   41.4440 N   0  0  0  0  0  0  0  0  0  0  0  0
   43.3840   32.9090   41.7220 C   0  0  0  0  0  0  0  0  0  0  0  0
   43.7810   32.1340   42.6170 O   0  0  0  0  0  0  0  0  0  0  0  0
   46.1920   33.3620   45.6700 C   0  0  0  0  0  0  0  0  0  0  0  0
   45.2610   34.1360   46.3690 C   0  0  0  0  0  0  0  0  0  0  0  0
   44.6110   35.1600   45.6770 C   0  0  0  0  0  0  0  0  0  0  0  0
   44.9180   35.3510   44.3620 N   0  0  0  0  0  0  0  0  0  0  0  0
   45.8220   34.5890   43.7100 C   0  0  0  0  0  0  0  0  0  0  0  0
   46.4460   33.6050   44.3710 N   0  0  0  0  0  0  0  0  0  0  0  0
   45.6043   35.8117   42.0640 H   0  0  0  0  0  0  0  0  0  0  0  0
   48.0609   35.7908   42.3313 H   0  0  0  0  0  0  0  0  0  0  0  0
   48.1051   34.0478   42.6234 H   0  0  0  0  0  0  0  0  0  0  0  0
   47.8781   35.5693   40.0286 H   0  0  0  0  0  0  0  0  0  0  0  0
   48.6779   34.0272   40.3220 H   0  0  0  0  0  0  0  0  0  0  0  0
   45.9737   34.4960   39.3777 H   0  0  0  0  0  0  0  0  0  0  0  0
   46.7334   32.9199   39.6879 H   0  0  0  0  0  0  0  0  0  0  0  0
   45.7856   32.7770   41.8797 H   0  0  0  0  0  0  0  0  0  0  0  0
   44.3874   35.1707   39.6120 H   0  0  0  0  0  0  0  0  0  0  0  0
   41.4769   36.3670   39.1852 H   0  0  0  0  0  0  0  0  0  0  0  0
   42.7792   35.7676   38.1029 H   0  0  0  0  0  0  0  0  0  0  0  0
   41.1715   34.9663   38.1029 H   0  0  0  0  0  0  0  0  0  0  0  0
   41.4521   32.2410   41.9667 H   0  0  0  0  0  0  0  0  0  0  0  0
   46.7214   32.5475   46.1861 H   0  0  0  0  0  0  0  0  0  0  0  0
   45.0472   33.9444   47.4309 H   0  0  0  0  0  0  0  0  0  0  0  0
   43.8691   35.7973   46.1805 H   0  0  0  0  0  0  0  0  0  0  0  0
  1 19  1  0
  2  1  1  0
  3  2  1  0
  4  3  1  0
  4  5  1  0
  5  1  1  0
  6  5  1  0
  6 13  1  0
  7  6  1  0
  8  7  2  0
  8 10  1  0
  9  8  1  0
 10 12  1  0
 11 10  2  0
 12 13  1  0
 13 14  2  0
 15 16  2  0
 17 16  1  0
 18 17  2  0
 19 18  1  0
 19 20  2  0
 20 15  1  0
  1 21  1  6
  2 22  1  0
  2 23  1  0
  3 24  1  0
  3 25  1  0
  4 26  1  0
  4 27  1  0
  5 28  1  1
  7 29  1  0
  9 30  1  0
  9 31  1  0
  9 32  1  0
 12 33  1  0
 15 34  1  0
 16 35  1  0
 17 36  1  0
M  ISO  8  21  13  22  13  23  13  24  13  25  13  26  13  27  13  28  13
M  ISO  8  29  14  30   8  31   8  32   8  33   9  34  14  35  14  36  14
M  END
>  <minimizedAffinity>  (1) 
-5.63736248

>  <minimizedRMSD>  (1) 
1.21987259

$$$$
