
     RDKit          3D

 37 39  0  0  1  0  0  0  0  0999 V2000
   46.5590   35.0180   42.0580 C   0  0  1  0  0  0  0  0  0  0  0  0
   48.0480   35.3280   42.0500 C   0  0  0  0  0  0  0  0  0  0  0  0
   48.4860   35.1830   40.6230 C   0  0  0  0  0  0  0  0  0  0  0  0
   47.5320   34.1640   40.0370 C   0  0  0  0  0  0  0  0  0  0  0  0
   46.4430   33.9120   41.0800 C   0  0  2  0  0  0  0  0  0  0  0  0
   46.3080   33.2990   45.3230 C   0  0  0  0  0  0  0  0  0  0  0  0
   45.3340   34.0360   45.9990 C   0  0  0  0  0  0  0  0  0  0  0  0
   44.7680   35.1230   45.3300 C   0  0  0  0  0  0  0  0  0  0  0  0
   45.2040   35.3780   44.0800 N   0  0  0  0  0  0  0  0  0  0  0  0
   46.1420   34.6600   43.4420 C   0  0  0  0  0  0  0  0  0  0  0  0
   46.6860   33.6180   44.0810 N   0  0  0  0  0  0  0  0  0  0  0  0
   45.1390   33.8950   40.4930 N   0  0  0  0  0  0  0  0  0  0  0  0
   44.4580   32.6290   40.6250 C   0  0  0  0  0  0  0  0  0  0  0  0
   43.9130   32.4740   42.0100 C   0  0  0  0  0  0  0  0  0  0  0  0
   42.7530   33.3600   42.1080 N   0  0  0  0  0  0  0  0  0  0  0  0
   42.8370   34.4460   41.1540 C   0  0  0  0  0  0  0  0  0  0  0  0
   44.2910   34.9090   41.0220 C   0  0  0  0  0  0  0  0  0  0  0  0
   45.8985   35.8517   41.7773 H   0  0  0  0  0  0  0  0  0  0  0  0
   48.2279   36.3539   42.4039 H   0  0  0  0  0  0  0  0  0  0  0  0
   48.6063   34.6538   42.7161 H   0  0  0  0  0  0  0  0  0  0  0  0
   48.4047   36.1427   40.0916 H   0  0  0  0  0  0  0  0  0  0  0  0
   49.5372   34.8706   40.5371 H   0  0  0  0  0  0  0  0  0  0  0  0
   47.0842   34.5555   39.1117 H   0  0  0  0  0  0  0  0  0  0  0  0
   48.0602   33.2311   39.7907 H   0  0  0  0  0  0  0  0  0  0  0  0
   46.5755   32.9277   41.5529 H   0  0  0  0  0  0  0  0  0  0  0  0
   46.7744   32.4373   45.8230 H   0  0  0  0  0  0  0  0  0  0  0  0
   45.0241   33.7703   47.0204 H   0  0  0  0  0  0  0  0  0  0  0  0
   43.9963   35.7471   45.8044 H   0  0  0  0  0  0  0  0  0  0  0  0
   43.6299   32.5854   39.9023 H   0  0  0  0  0  0  0  0  0  0  0  0
   45.1728   31.8162   40.4289 H   0  0  0  0  0  0  0  0  0  0  0  0
   43.6089   31.4311   42.1830 H   0  0  0  0  0  0  0  0  0  0  0  0
   44.6714   32.7309   42.7642 H   0  0  0  0  0  0  0  0  0  0  0  0
   41.8986   32.8156   41.9220 H   0  0  0  0  0  0  0  0  0  0  0  0
   42.4733   34.1010   40.1749 H   0  0  0  0  0  0  0  0  0  0  0  0
   42.2187   35.2857   41.5041 H   0  0  0  0  0  0  0  0  0  0  0  0
   44.6619   35.1957   42.0171 H   0  0  0  0  0  0  0  0  0  0  0  0
   44.3096   35.7589   40.3239 H   0  0  0  0  0  0  0  0  0  0  0  0
  1 10  1  0
  2  1  1  0
  3  2  1  0
  4  3  1  0
  4  5  1  0
  5  1  1  0
  6  7  2  0
  8  7  1  0
  9  8  2  0
 10  9  1  0
 10 11  2  0
 11  6  1  0
 12 13  1  0
 12 17  1  0
 12  5  1  0
 13 14  1  0
 14 15  1  0
 16 15  1  0
 17 16  1  0
  1 18  1  6
  2 19  1  0
  2 20  1  0
  3 21  1  0
  3 22  1  0
  4 23  1  0
  4 24  1  0
  5 25  1  1
  6 26  1  0
  7 27  1  0
  8 28  1  0
 13 29  1  0
 13 30  1  0
 14 31  1  0
 14 32  1  0
 15 33  1  0
 16 34  1  0
 16 35  1  0
 17 36  1  0
 17 37  1  0
M  ISO  8  18  13  19  13  20  13  21  13  22  13  23  13  24  13  25  13
M  ISO  8  26  14  27  14  28  14  29  13  30  13  31  13  32  13  33   5
M  ISO  4  34  13  35  13  36  13  37  13
M  END
>  <minimizedAffinity>  (1) 
-5.34050465

>  <minimizedRMSD>  (1) 
1.43705821

$$$$
