
     RDKit          3D

 32 34  0  0  1  0  0  0  0  0999 V2000
   46.4800   35.0860   42.1250 C   0  0  1  0  0  0  0  0  0  0  0  0
   48.0020   35.1440   42.0940 C   0  0  0  0  0  0  0  0  0  0  0  0
   48.3780   34.9550   40.6430 C   0  0  0  0  0  0  0  0  0  0  0  0
   47.2330   34.1470   40.0490 C   0  0  0  0  0  0  0  0  0  0  0  0
   46.1910   33.9950   41.1490 C   0  0  2  0  0  0  0  0  0  0  0  0
   46.0620   33.4790   45.4260 C   0  0  0  0  0  0  0  0  0  0  0  0
   45.0990   34.3070   46.0400 C   0  0  0  0  0  0  0  0  0  0  0  0
   44.6010   35.4110   45.3120 C   0  0  0  0  0  0  0  0  0  0  0  0
   45.0840   35.6040   44.0630 N   0  0  0  0  0  0  0  0  0  0  0  0
   46.0120   34.7870   43.5010 C   0  0  0  0  0  0  0  0  0  0  0  0
   46.4900   33.7380   44.1830 N   0  0  0  0  0  0  0  0  0  0  0  0
   44.8630   34.0250   40.5350 C   0  0  0  0  0  0  0  0  0  0  0  0
   43.9830   35.0600   40.8490 C   0  0  0  0  0  0  0  0  0  0  0  0
   42.7260   35.0930   40.2700 C   0  0  0  0  0  0  0  0  0  0  0  0
   42.3570   34.0830   39.3750 C   0  0  0  0  0  0  0  0  0  0  0  0
   43.2780   33.0900   39.1110 C   0  0  0  0  0  0  0  0  0  0  0  0
   44.5020   33.0540   39.6700 N   0  0  0  0  0  0  0  0  0  0  0  0
   45.9671   36.0224   41.8603 H   0  0  0  0  0  0  0  0  0  0  0  0
   48.3581   36.1180   42.4607 H   0  0  0  0  0  0  0  0  0  0  0  0
   48.4551   34.3765   42.7387 H   0  0  0  0  0  0  0  0  0  0  0  0
   48.4704   35.9271   40.1365 H   0  0  0  0  0  0  0  0  0  0  0  0
   49.3480   34.4495   40.5270 H   0  0  0  0  0  0  0  0  0  0  0  0
   46.8010   34.6775   39.1877 H   0  0  0  0  0  0  0  0  0  0  0  0
   47.5819   33.1657   39.6949 H   0  0  0  0  0  0  0  0  0  0  0  0
   46.2241   33.0410   41.6956 H   0  0  0  0  0  0  0  0  0  0  0  0
   46.4649   32.6134   45.9723 H   0  0  0  0  0  0  0  0  0  0  0  0
   44.7445   34.0984   47.0602 H   0  0  0  0  0  0  0  0  0  0  0  0
   43.8492   36.0877   45.7443 H   0  0  0  0  0  0  0  0  0  0  0  0
   44.2866   35.8476   41.5544 H   0  0  0  0  0  0  0  0  0  0  0  0
   42.0244   35.9051   40.5112 H   0  0  0  0  0  0  0  0  0  0  0  0
   41.3659   34.0806   38.8978 H   0  0  0  0  0  0  0  0  0  0  0  0
   42.9986   32.2895   38.4102 H   0  0  0  0  0  0  0  0  0  0  0  0
  1 10  1  0
  2  1  1  0
  3  2  1  0
  4  3  1  0
  4  5  1  0
  5  1  1  0
  6  7  2  0
  8  7  1  0
  9  8  2  0
 10  9  1  0
 10 11  2  0
 11  6  1  0
 12 13  2  0
 12  5  1  0
 14 13  1  0
 15 14  2  0
 16 15  1  0
 16 17  2  0
 17 12  1  0
  1 18  1  6
  2 19  1  0
  2 20  1  0
  3 21  1  0
  3 22  1  0
  4 23  1  0
  4 24  1  0
  5 25  1  1
  6 26  1  0
  7 27  1  0
  8 28  1  0
 13 29  1  0
 14 30  1  0
 15 31  1  0
 16 32  1  0
M  ISO  8  18  13  19  13  20  13  21  13  22  13  23  13  24  13  25  13
M  ISO  7  26  14  27  14  28  14  29  14  30  14  31  14  32  14
M  END
>  <minimizedAffinity>  (1) 
-5.33820438

>  <minimizedRMSD>  (1) 
0.496662319

$$$$
