
     RDKit          3D

 30 31  0  0  1  0  0  0  0  0999 V2000
   46.4180   35.1990   42.0220 C   0  0  1  0  0  0  0  0  0  0  0  0
   47.9440   35.2110   42.0560 C   0  0  0  0  0  0  0  0  0  0  0  0
   48.4040   34.9020   40.6580 C   0  0  0  0  0  0  0  0  0  0  0  0
   47.2680   34.1150   40.0490 C   0  0  0  0  0  0  0  0  0  0  0  0
   46.1470   34.1010   41.0780 C   0  0  2  0  0  0  0  0  0  0  0  0
   45.7430   33.7450   45.3510 C   0  0  0  0  0  0  0  0  0  0  0  0
   44.8580   34.6680   45.9110 C   0  0  0  0  0  0  0  0  0  0  0  0
   44.4950   35.7930   45.1380 C   0  0  0  0  0  0  0  0  0  0  0  0
   45.0200   35.9300   43.8840 N   0  0  0  0  0  0  0  0  0  0  0  0
   45.8760   35.0050   43.3840 C   0  0  0  0  0  0  0  0  0  0  0  0
   46.2280   33.9310   44.1140 N   0  0  0  0  0  0  0  0  0  0  0  0
   44.9200   34.3740   40.3600 N   0  0  0  0  0  0  0  0  0  0  0  0
   43.6630   34.3340   41.0200 C   0  0  0  0  0  0  0  0  0  0  0  0
   43.5110   33.4700   41.9920 N   0  0  0  0  0  0  0  0  0  0  0  0
   42.6180   35.2290   40.6020 N   0  0  0  0  0  0  0  0  0  0  0  0
   42.5720   33.4780   42.4460 H   0  0  0  0  0  0  0  0  0  0  0  0
   45.9353   36.1324   41.6969 H   0  0  0  0  0  0  0  0  0  0  0  0
   48.3095   36.2010   42.3664 H   0  0  0  0  0  0  0  0  0  0  0  0
   48.3320   34.4742   42.7747 H   0  0  0  0  0  0  0  0  0  0  0  0
   48.5807   35.8293   40.0933 H   0  0  0  0  0  0  0  0  0  0  0  0
   49.3523   34.3448   40.6442 H   0  0  0  0  0  0  0  0  0  0  0  0
   46.9259   34.5981   39.1219 H   0  0  0  0  0  0  0  0  0  0  0  0
   47.5854   33.0929   39.7948 H   0  0  0  0  0  0  0  0  0  0  0  0
   46.0730   33.1448   41.6167 H   0  0  0  0  0  0  0  0  0  0  0  0
   46.0449   32.8586   45.9282 H   0  0  0  0  0  0  0  0  0  0  0  0
   44.4552   34.5234   46.9244 H   0  0  0  0  0  0  0  0  0  0  0  0
   43.8011   36.5465   45.5389 H   0  0  0  0  0  0  0  0  0  0  0  0
   44.9591   34.6005   39.3560 H   0  0  0  0  0  0  0  0  0  0  0  0
   41.7027   35.2082   41.0739 H   0  0  0  0  0  0  0  0  0  0  0  0
   42.7848   35.8909   39.8307 H   0  0  0  0  0  0  0  0  0  0  0  0
  1  2  1  0
  1 10  1  0
  3  2  1  0
  4  3  1  0
  4  5  1  0
  5  1  1  0
  6  7  2  0
  8  7  1  0
  9  8  2  0
 10  9  1  0
 10 11  2  0
 11  6  1  0
 12 13  1  0
 12  5  1  0
 13 14  2  0
 14 16  1  0
 15 13  1  0
  1 17  1  6
  2 18  1  0
  2 19  1  0
  3 20  1  0
  3 21  1  0
  4 22  1  0
  4 23  1  0
  5 24  1  1
  6 25  1  0
  7 26  1  0
  8 27  1  0
 12 28  1  0
 15 29  1  0
 15 30  1  0
M  ISO  8  17  13  18  13  19  13  20  13  21  13  22  13  23  13  24  13
M  ISO  3  25  14  26  14  27  14
M  END
>  <minimizedAffinity>  (1) 
-5.20516825

>  <minimizedRMSD>  (1) 
0.720657885

$$$$
