
     RDKit          3D

 30 32  0  0  1  0  0  0  0  0999 V2000
   46.4930   35.0050   42.1960 C   0  0  1  0  0  0  0  0  0  0  0  0
   48.0230   35.0660   42.0940 C   0  0  0  0  0  0  0  0  0  0  0  0
   48.3240   34.9680   40.6240 C   0  0  0  0  0  0  0  0  0  0  0  0
   47.1950   34.1170   40.0680 C   0  0  0  0  0  0  0  0  0  0  0  0
   46.1540   33.9870   41.1790 C   0  0  2  0  0  0  0  0  0  0  0  0
   46.3300   33.3030   45.4700 C   0  0  0  0  0  0  0  0  0  0  0  0
   45.3400   34.0210   46.1490 C   0  0  0  0  0  0  0  0  0  0  0  0
   44.7340   35.0940   45.4660 C   0  0  0  0  0  0  0  0  0  0  0  0
   45.1480   35.3540   44.2090 N   0  0  0  0  0  0  0  0  0  0  0  0
   46.1040   34.6420   43.5820 C   0  0  0  0  0  0  0  0  0  0  0  0
   46.6890   33.6190   44.2220 N   0  0  0  0  0  0  0  0  0  0  0  0
   44.8600   34.1790   40.5620 N   0  0  0  0  0  0  0  0  0  0  0  0
   44.3870   33.4860   39.5210 N   0  0  0  0  0  0  0  0  0  0  0  0
   43.1550   33.9030   39.1830 C   0  0  0  0  0  0  0  0  0  0  0  0
   42.8440   34.9000   40.0520 C   0  0  0  0  0  0  0  0  0  0  0  0
   43.9090   35.0470   40.8860 C   0  0  0  0  0  0  0  0  0  0  0  0
   45.9592   35.9480   42.0069 H   0  0  0  0  0  0  0  0  0  0  0  0
   48.3993   36.0155   42.5024 H   0  0  0  0  0  0  0  0  0  0  0  0
   48.5058   34.2608   42.6672 H   0  0  0  0  0  0  0  0  0  0  0  0
   48.3264   35.9649   40.1590 H   0  0  0  0  0  0  0  0  0  0  0  0
   49.3153   34.5348   40.4250 H   0  0  0  0  0  0  0  0  0  0  0  0
   46.7509   34.6048   39.1877 H   0  0  0  0  0  0  0  0  0  0  0  0
   47.5626   33.1292   39.7531 H   0  0  0  0  0  0  0  0  0  0  0  0
   46.1368   33.0087   41.6817 H   0  0  0  0  0  0  0  0  0  0  0  0
   46.8240   32.4595   45.9744 H   0  0  0  0  0  0  0  0  0  0  0  0
   45.0461   33.7582   47.1759 H   0  0  0  0  0  0  0  0  0  0  0  0
   43.9490   35.6998   45.9423 H   0  0  0  0  0  0  0  0  0  0  0  0
   42.5259   33.5157   38.3680 H   0  0  0  0  0  0  0  0  0  0  0  0
   41.9088   35.4785   40.0767 H   0  0  0  0  0  0  0  0  0  0  0  0
   43.9726   35.7766   41.7068 H   0  0  0  0  0  0  0  0  0  0  0  0
  1 10  1  0
  2  1  1  0
  3  2  1  0
  4  3  1  0
  4  5  1  0
  5  1  1  0
  6  7  2  0
  8  7  1  0
  9  8  2  0
 10  9  1  0
 10 11  2  0
 11  6  1  0
 12 16  1  0
 12  5  1  0
 13 12  1  0
 14 13  2  0
 14 15  1  0
 15 16  2  0
  1 17  1  6
  2 18  1  0
  2 19  1  0
  3 20  1  0
  3 21  1  0
  4 22  1  0
  4 23  1  0
  5 24  1  1
  6 25  1  0
  7 26  1  0
  8 27  1  0
 14 28  1  0
 15 29  1  0
 16 30  1  0
M  ISO  8  17  13  18  13  19  13  20  13  21  13  22  13  23  13  24  13
M  ISO  6  25  14  26  14  27  14  28  14  29  14  30  14
M  END
>  <minimizedAffinity>  (1) 
-5.05802822

>  <minimizedRMSD>  (1) 
0.747894287

$$$$
