
     RDKit          3D

 35 37  0  0  1  0  0  0  0  0999 V2000
   46.5760   35.1410   42.0780 C   0  0  1  0  0  0  0  0  0  0  0  0
   48.0990   35.2050   42.0970 C   0  0  0  0  0  0  0  0  0  0  0  0
   48.4950   35.1090   40.6470 C   0  0  0  0  0  0  0  0  0  0  0  0
   47.4390   34.2090   40.0390 C   0  0  0  0  0  0  0  0  0  0  0  0
   46.3490   34.0400   41.0950 C   0  0  2  0  0  0  0  0  0  0  0  0
   46.0640   33.5080   45.3510 C   0  0  0  0  0  0  0  0  0  0  0  0
   45.0960   34.3190   45.9520 C   0  0  0  0  0  0  0  0  0  0  0  0
   44.6180   35.4310   45.2230 C   0  0  0  0  0  0  0  0  0  0  0  0
   45.1220   35.6570   43.9740 N   0  0  0  0  0  0  0  0  0  0  0  0
   46.0640   34.8330   43.4430 C   0  0  0  0  0  0  0  0  0  0  0  0
   46.5290   33.7710   44.1220 N   0  0  0  0  0  0  0  0  0  0  0  0
   45.1280   33.9770   40.4580 N   0  0  0  0  0  0  0  0  0  0  0  0
   44.0850   34.8530   40.7720 C   0  0  0  0  0  0  0  0  0  0  0  0
   42.8650   33.9900   40.5080 C   0  0  0  0  0  0  0  0  0  0  0  0
   43.3240   33.2620   39.2380 C   0  0  0  0  0  0  0  0  0  0  0  0
   44.7770   32.9360   39.6080 C   0  0  0  0  0  0  0  0  0  0  0  0
   46.0574   36.0702   41.7996 H   0  0  0  0  0  0  0  0  0  0  0  0
   48.4435   36.1545   42.5327 H   0  0  0  0  0  0  0  0  0  0  0  0
   48.5451   34.4062   42.7077 H   0  0  0  0  0  0  0  0  0  0  0  0
   48.4842   36.1011   40.1720 H   0  0  0  0  0  0  0  0  0  0  0  0
   49.5143   34.7185   40.5109 H   0  0  0  0  0  0  0  0  0  0  0  0
   47.0212   34.6724   39.1331 H   0  0  0  0  0  0  0  0  0  0  0  0
   47.8650   33.2370   39.7496 H   0  0  0  0  0  0  0  0  0  0  0  0
   46.3722   33.1042   41.6728 H   0  0  0  0  0  0  0  0  0  0  0  0
   46.4517   32.6362   45.8984 H   0  0  0  0  0  0  0  0  0  0  0  0
   44.7184   34.0980   46.9612 H   0  0  0  0  0  0  0  0  0  0  0  0
   43.8570   36.0996   45.6518 H   0  0  0  0  0  0  0  0  0  0  0  0
   44.1313   35.1700   41.8243 H   0  0  0  0  0  0  0  0  0  0  0  0
   44.1012   35.7898   40.1957 H   0  0  0  0  0  0  0  0  0  0  0  0
   42.6742   33.2891   41.3340 H   0  0  0  0  0  0  0  0  0  0  0  0
   41.9190   34.5426   40.4092 H   0  0  0  0  0  0  0  0  0  0  0  0
   43.2672   33.9140   38.3539 H   0  0  0  0  0  0  0  0  0  0  0  0
   42.7142   32.3876   38.9667 H   0  0  0  0  0  0  0  0  0  0  0  0
   44.8451   31.9662   40.1226 H   0  0  0  0  0  0  0  0  0  0  0  0
   45.4373   32.8522   38.7322 H   0  0  0  0  0  0  0  0  0  0  0  0
  1  2  1  0
  1 10  1  0
  3  2  1  0
  4  3  1  0
  4  5  1  0
  5  1  1  0
  6  7  2  0
  8  7  1  0
  9  8  2  0
 10  9  1  0
 10 11  2  0
 11  6  1  0
 12 13  1  0
 12  5  1  0
 14 13  1  0
 15 16  1  0
 15 14  1  0
 16 12  1  0
  1 17  1  6
  2 18  1  0
  2 19  1  0
  3 20  1  0
  3 21  1  0
  4 22  1  0
  4 23  1  0
  5 24  1  1
  6 25  1  0
  7 26  1  0
  8 27  1  0
 13 28  1  0
 13 29  1  0
 14 30  1  0
 14 31  1  0
 15 32  1  0
 15 33  1  0
 16 34  1  0
 16 35  1  0
M  ISO  8  17  13  18  13  19  13  20  13  21  13  22  13  23  13  24  13
M  ISO  8  25  14  26  14  27  14  28  13  29  13  30  13  31  13  32  13
M  ISO  3  33  13  34  13  35  13
M  END
>  <minimizedAffinity>  (1) 
-4.96258259

>  <minimizedRMSD>  (1) 
0.319864929

$$$$
