
     RDKit          3D

 29 31  0  0  1  0  0  0  0  0999 V2000
   46.7790   34.7730   41.9700 C   0  0  1  0  0  0  0  0  0  0  0  0
   47.8300   33.6740   42.0290 C   0  0  0  0  0  0  0  0  0  0  0  0
   48.1540   33.3880   40.5760 C   0  0  0  0  0  0  0  0  0  0  0  0
   46.8440   33.6280   39.8500 C   0  0  0  0  0  0  0  0  0  0  0  0
   45.9210   34.3250   40.8350 C   0  0  1  0  0  0  0  0  0  0  0  0
   45.5710   34.0130   45.3760 C   0  0  0  0  0  0  0  0  0  0  0  0
   44.6970   35.0980   45.6270 C   0  0  0  0  0  0  0  0  0  0  0  0
   44.5340   36.0660   44.6340 C   0  0  0  0  0  0  0  0  0  0  0  0
   45.2270   35.9060   43.4850 N   0  0  0  0  0  0  0  0  0  0  0  0
   46.0570   34.8620   43.2650 C   0  0  0  0  0  0  0  0  0  0  0  0
   46.2230   33.9260   44.2100 N   0  0  0  0  0  0  0  0  0  0  0  0
   44.8120   33.5090   41.2190 N   0  0  0  0  0  0  0  0  0  0  0  0
   43.5570   34.0050   41.0510 C   0  0  0  0  0  0  0  0  0  0  0  0
   42.6690   33.0880   41.4700 N   0  0  0  0  0  0  0  0  0  0  0  0
   43.3840   32.0080   41.9020 C   0  0  0  0  0  0  0  0  0  0  0  0
   44.6770   32.2880   41.7390 N   0  0  0  0  0  0  0  0  0  0  0  0
   47.1702   35.7889   41.8120 H   0  0  0  0  0  0  0  0  0  0  0  0
   48.7251   34.0191   42.5673 H   0  0  0  0  0  0  0  0  0  0  0  0
   47.4750   32.7810   42.5643 H   0  0  0  0  0  0  0  0  0  0  0  0
   48.9347   34.0703   40.2085 H   0  0  0  0  0  0  0  0  0  0  0  0
   48.5411   32.3699   40.4225 H   0  0  0  0  0  0  0  0  0  0  0  0
   47.0099   34.2658   38.9693 H   0  0  0  0  0  0  0  0  0  0  0  0
   46.4066   32.6816   39.4992 H   0  0  0  0  0  0  0  0  0  0  0  0
   45.4334   35.1989   40.3783 H   0  0  0  0  0  0  0  0  0  0  0  0
   45.7151   33.2376   46.1428 H   0  0  0  0  0  0  0  0  0  0  0  0
   44.1584   35.1767   46.5829 H   0  0  0  0  0  0  0  0  0  0  0  0
   43.8659   36.9273   44.7816 H   0  0  0  0  0  0  0  0  0  0  0  0
   43.3095   34.9947   40.6395 H   0  0  0  0  0  0  0  0  0  0  0  0
   42.9681   31.0753   42.3107 H   0  0  0  0  0  0  0  0  0  0  0  0
  1  2  1  0
  1 10  1  0
  3  2  1  0
  4  3  1  0
  4  5  1  0
  5 12  1  0
  5  1  1  0
  6  7  2  0
  8  7  1  0
  9  8  2  0
 10  9  1  0
 10 11  2  0
 11  6  1  0
 12 16  1  0
 13 12  1  0
 13 14  2  0
 14 15  1  0
 16 15  2  0
  1 17  1  6
  2 18  1  0
  2 19  1  0
  3 20  1  0
  3 21  1  0
  4 22  1  0
  4 23  1  0
  5 24  1  6
  6 25  1  0
  7 26  1  0
  8 27  1  0
 13 28  1  0
 15 29  1  0
M  ISO  8  17  13  18  13  19  13  20  13  21  13  22  13  23  13  24  13
M  ISO  5  25  14  26  14  27  14  28  14  29  14
M  END
>  <minimizedAffinity>  (1) 
-4.35576963

>  <minimizedRMSD>  (1) 
1.86768425

$$$$
