
     RDKit          3D

 30 32  0  0  1  0  0  0  0  0999 V2000
   46.7300   34.7560   42.1420 C   0  0  1  0  0  0  0  0  0  0  0  0
   47.7740   33.6570   42.1970 C   0  0  0  0  0  0  0  0  0  0  0  0
   48.0720   33.3170   40.7470 C   0  0  0  0  0  0  0  0  0  0  0  0
   46.8320   33.7210   39.9840 C   0  0  0  0  0  0  0  0  0  0  0  0
   45.8950   34.3570   40.9820 C   0  0  1  0  0  0  0  0  0  0  0  0
   44.4780   35.9480   44.8000 C   0  0  0  0  0  0  0  0  0  0  0  0
   44.6740   35.0070   45.8160 C   0  0  0  0  0  0  0  0  0  0  0  0
   45.5920   33.9540   45.5790 C   0  0  0  0  0  0  0  0  0  0  0  0
   46.2340   33.9100   44.3820 N   0  0  0  0  0  0  0  0  0  0  0  0
   46.0030   34.8560   43.4300 C   0  0  0  0  0  0  0  0  0  0  0  0
   45.1400   35.8540   43.6370 N   0  0  0  0  0  0  0  0  0  0  0  0
   44.8950   33.3450   41.3840 C   0  0  0  0  0  0  0  0  0  0  0  0
   44.7700   32.2370   40.5370 C   0  0  0  0  0  0  0  0  0  0  0  0
   43.8230   31.3850   41.0320 N   0  0  0  0  0  0  0  0  0  0  0  0
   43.3550   31.9410   42.1730 C   0  0  0  0  0  0  0  0  0  0  0  0
   44.0080   33.1010   42.3550 N   0  0  0  0  0  0  0  0  0  0  0  0
   47.1302   35.7716   42.0066 H   0  0  0  0  0  0  0  0  0  0  0  0
   48.6827   34.0134   42.7041 H   0  0  0  0  0  0  0  0  0  0  0  0
   47.4192   32.7810   42.7599 H   0  0  0  0  0  0  0  0  0  0  0  0
   48.9460   33.8815   40.3899 H   0  0  0  0  0  0  0  0  0  0  0  0
   48.3080   32.2509   40.6142 H   0  0  0  0  0  0  0  0  0  0  0  0
   47.0910   34.4420   39.1946 H   0  0  0  0  0  0  0  0  0  0  0  0
   46.3637   32.8504   39.5016 H   0  0  0  0  0  0  0  0  0  0  0  0
   45.3660   35.2302   40.5725 H   0  0  0  0  0  0  0  0  0  0  0  0
   43.7714   36.7764   44.9567 H   0  0  0  0  0  0  0  0  0  0  0  0
   44.1319   35.0821   46.7702 H   0  0  0  0  0  0  0  0  0  0  0  0
   45.7808   33.1892   46.3468 H   0  0  0  0  0  0  0  0  0  0  0  0
   45.3463   32.0768   39.6138 H   0  0  0  0  0  0  0  0  0  0  0  0
   42.5810   31.5201   42.8316 H   0  0  0  0  0  0  0  0  0  0  0  0
   43.8440   33.7316   43.1527 H   0  0  0  0  0  0  0  0  0  0  0  0
  1  2  1  0
  1 10  1  0
  3  2  1  0
  4  3  1  0
  4  5  1  0
  5 12  1  0
  5  1  1  0
  6  7  2  0
  8  7  1  0
  9  8  2  0
 10 11  2  0
 10  9  1  0
 11  6  1  0
 12 16  1  0
 13 14  1  0
 13 12  2  0
 14 15  2  0
 15 16  1  0
  1 17  1  6
  2 18  1  0
  2 19  1  0
  3 20  1  0
  3 21  1  0
  4 22  1  0
  4 23  1  0
  5 24  1  6
  6 25  1  0
  7 26  1  0
  8 27  1  0
 13 28  1  0
 15 29  1  0
 16 30  1  0
M  ISO  8  17  13  18  13  19  13  20  13  21  13  22  13  23  13  24  13
M  ISO  6  25  14  26  14  27  14  28  14  29  14  30   9
M  END
>  <minimizedAffinity>  (1) 
-4.34121275

>  <minimizedRMSD>  (1) 
2.26156235

$$$$
