
     RDKit          3D

 46 49  0  0  1  0  0  0  0  0999 V2000
   44.9780   33.6520   40.6010 C   0  0  2  0  0  0  0  0  0  0  0  0
   46.4890   34.9760   42.1290 C   0  0  1  0  0  0  0  0  0  0  0  0
   47.9860   35.2410   42.0850 C   0  0  0  0  0  0  0  0  0  0  0  0
   48.3720   35.1010   40.6440 C   0  0  0  0  0  0  0  0  0  0  0  0
   47.3670   34.1190   40.0820 C   0  0  0  0  0  0  0  0  0  0  0  0
   46.3460   33.8350   41.1980 C   0  0  2  0  0  0  0  0  0  0  0  0
   46.3180   33.3300   45.4410 C   0  0  0  0  0  0  0  0  0  0  0  0
   45.3390   34.0560   46.1000 C   0  0  0  0  0  0  0  0  0  0  0  0
   44.7360   35.1040   45.4190 C   0  0  0  0  0  0  0  0  0  0  0  0
   45.1670   35.3140   44.1720 N   0  0  0  0  0  0  0  0  0  0  0  0
   46.1060   34.6250   43.5250 C   0  0  0  0  0  0  0  0  0  0  0  0
   46.6740   33.6260   44.1910 N   0  0  0  0  0  0  0  0  0  0  0  0
   45.1390   33.1730   39.1870 C   0  0  0  0  0  0  0  0  0  0  0  0
   44.1150   34.8570   40.7280 C   0  0  0  0  0  0  0  0  0  0  0  0
   42.7420   34.3930   40.4360 N   0  0  0  0  0  0  0  0  0  0  0  0
   41.9930   33.4990   41.1070 C   0  0  0  0  0  0  0  0  0  0  0  0
   40.8090   33.3400   40.5400 N   0  0  0  0  0  0  0  0  0  0  0  0
   40.7580   34.1400   39.4680 C   0  0  0  0  0  0  0  0  0  0  0  0
   39.7330   34.3180   38.5650 C   0  0  0  0  0  0  0  0  0  0  0  0
   38.6210   33.7290   38.6050 O   0  0  0  0  0  0  0  0  0  0  0  0
   40.0040   35.2170   37.5750 N   0  0  0  0  0  0  0  0  0  0  0  0
   41.1930   35.8810   37.4890 C   0  0  0  0  0  0  0  0  0  0  0  0
   41.2730   36.7710   36.3850 N   0  0  0  0  0  0  0  0  0  0  0  0
   42.1650   35.6580   38.4140 N   0  0  0  0  0  0  0  0  0  0  0  0
   41.9580   34.7890   39.4070 C   0  0  0  0  0  0  0  0  0  0  0  0
   44.4330   32.8875   41.1741 H   0  0  0  0  0  0  0  0  0  0  0  0
   45.8474   35.8232   41.8451 H   0  0  0  0  0  0  0  0  0  0  0  0
   48.2081   36.2560   42.4462 H   0  0  0  0  0  0  0  0  0  0  0  0
   48.5441   34.5444   42.7278 H   0  0  0  0  0  0  0  0  0  0  0  0
   48.3027   36.0690   40.1261 H   0  0  0  0  0  0  0  0  0  0  0  0
   49.4099   34.7590   40.5180 H   0  0  0  0  0  0  0  0  0  0  0  0
   46.8606   34.5547   39.2081 H   0  0  0  0  0  0  0  0  0  0  0  0
   47.8622   33.1922   39.7567 H   0  0  0  0  0  0  0  0  0  0  0  0
   46.5139   32.8991   41.7511 H   0  0  0  0  0  0  0  0  0  0  0  0
   46.8106   32.4939   45.9589 H   0  0  0  0  0  0  0  0  0  0  0  0
   45.0485   33.8091   47.1318 H   0  0  0  0  0  0  0  0  0  0  0  0
   43.9514   35.7237   45.8777 H   0  0  0  0  0  0  0  0  0  0  0  0
   45.4895   32.1303   39.1907 H   0  0  0  0  0  0  0  0  0  0  0  0
   44.1714   33.2327   38.6672 H   0  0  0  0  0  0  0  0  0  0  0  0
   45.8741   33.8050   38.6672 H   0  0  0  0  0  0  0  0  0  0  0  0
   44.1738   35.2661   41.7474 H   0  0  0  0  0  0  0  0  0  0  0  0
   44.4293   35.6577   40.0424 H   0  0  0  0  0  0  0  0  0  0  0  0
   42.3235   32.9681   42.0119 H   0  0  0  0  0  0  0  0  0  0  0  0
   39.2821   35.4019   36.8640 H   0  0  0  0  0  0  0  0  0  0  0  0
   42.1291   37.3219   36.2286 H   0  0  0  0  0  0  0  0  0  0  0  0
   40.4749   36.8656   35.7408 H   0  0  0  0  0  0  0  0  0  0  0  0
  1 14  1  0
  1  6  1  0
  2 11  1  0
  3  2  1  0
  4  3  1  0
  5  4  1  0
  5  6  1  0
  6  2  1  0
  7  8  2  0
  9  8  1  0
 10  9  2  0
 11 10  1  0
 11 12  2  0
 12  7  1  0
 13  1  1  0
 15 14  1  0
 15 16  1  0
 17 16  2  0
 18 17  1  0
 19 20  2  0
 19 18  1  0
 21 19  1  0
 22 21  1  0
 22 24  2  0
 23 22  1  0
 24 25  1  0
 25 18  2  0
 25 15  1  0
  1 26  1  1
  2 27  1  6
  3 28  1  0
  3 29  1  0
  4 30  1  0
  4 31  1  0
  5 32  1  0
  5 33  1  0
  6 34  1  1
  7 35  1  0
  8 36  1  0
  9 37  1  0
 13 38  1  0
 13 39  1  0
 13 40  1  0
 14 41  1  0
 14 42  1  0
 16 43  1  0
 21 44  1  0
 23 45  1  0
 23 46  1  0
M  ISO  8  26   8  27  13  28  13  29  13  30  13  31  13  32  13  33  13
M  ISO  8  34  13  35  14  36  14  37  14  38   8  39   8  40   8  41   8
M  ISO  3  42   8  43  14  44   9
M  END
>  <minimizedAffinity>  (1) 
-6.812922

>  <minimizedRMSD>  (1) 
1.11014926

$$$$
