
     RDKit          3D

 45 47  0  0  1  0  0  0  0  0999 V2000
   46.7160   34.9530   42.0380 C   0  0  1  0  0  0  0  0  0  0  0  0
   48.1860   35.3430   42.0330 C   0  0  0  0  0  0  0  0  0  0  0  0
   48.6200   35.2800   40.6040 C   0  0  0  0  0  0  0  0  0  0  0  0
   47.7120   34.2340   39.9870 C   0  0  0  0  0  0  0  0  0  0  0  0
   46.6940   33.8440   41.0550 C   0  0  2  0  0  0  0  0  0  0  0  0
   46.5680   33.1700   45.2800 C   0  0  0  0  0  0  0  0  0  0  0  0
   45.5440   33.8210   45.9500 C   0  0  0  0  0  0  0  0  0  0  0  0
   44.9080   34.8640   45.2940 C   0  0  0  0  0  0  0  0  0  0  0  0
   45.3480   35.1460   44.0650 N   0  0  0  0  0  0  0  0  0  0  0  0
   46.3290   34.5330   43.4060 C   0  0  0  0  0  0  0  0  0  0  0  0
   46.9270   33.5340   44.0520 N   0  0  0  0  0  0  0  0  0  0  0  0
   45.3550   33.5490   40.4300 C   0  0  2  0  0  0  0  0  0  0  0  0
   45.5690   33.2370   38.9820 C   0  0  0  0  0  0  0  0  0  0  0  0
   44.3680   34.6380   40.6570 C   0  0  0  0  0  0  0  0  0  0  0  0
   42.9840   34.1720   40.7500 N   0  0  0  0  0  0  0  0  0  0  0  0
   41.9630   34.6490   40.0180 C   0  0  0  0  0  0  0  0  0  0  0  0
   40.6830   34.1730   40.1520 C   0  0  0  0  0  0  0  0  0  0  0  0
   39.5530   34.7020   39.3420 C   0  0  0  0  0  0  0  0  0  0  0  0
   40.4540   33.1710   41.0720 C   0  0  0  0  0  0  0  0  0  0  0  0
   39.2970   32.7050   41.2280 O   0  0  0  0  0  0  0  0  0  0  0  0
   41.4560   32.6500   41.8410 N   0  0  0  0  0  0  0  0  0  0  0  0
   42.6650   33.1970   41.6200 C   0  0  0  0  0  0  0  0  0  0  0  0
   43.6190   32.7250   42.3290 O   0  0  0  0  0  0  0  0  0  0  0  0
   46.0056   35.7504   41.7744 H   0  0  0  0  0  0  0  0  0  0  0  0
   48.3131   36.3620   42.4272 H   0  0  0  0  0  0  0  0  0  0  0  0
   48.7845   34.6728   42.6675 H   0  0  0  0  0  0  0  0  0  0  0  0
   48.4844   36.2542   40.1115 H   0  0  0  0  0  0  0  0  0  0  0  0
   49.6858   35.0295   40.4973 H   0  0  0  0  0  0  0  0  0  0  0  0
   47.1976   34.6506   39.1085 H   0  0  0  0  0  0  0  0  0  0  0  0
   48.2892   33.3583   39.6552 H   0  0  0  0  0  0  0  0  0  0  0  0
   46.9338   32.9068   41.5785 H   0  0  0  0  0  0  0  0  0  0  0  0
   47.0928   32.3380   45.7723 H   0  0  0  0  0  0  0  0  0  0  0  0
   45.2466   33.5210   46.9656 H   0  0  0  0  0  0  0  0  0  0  0  0
   44.0865   35.4279   45.7601 H   0  0  0  0  0  0  0  0  0  0  0  0
   44.9062   32.6713   40.9180 H   0  0  0  0  0  0  0  0  0  0  0  0
   46.1890   32.3331   38.8894 H   0  0  0  0  0  0  0  0  0  0  0  0
   44.5970   33.0663   38.4962 H   0  0  0  0  0  0  0  0  0  0  0  0
   46.0783   34.0823   38.4962 H   0  0  0  0  0  0  0  0  0  0  0  0
   44.6256   35.1490   41.5964 H   0  0  0  0  0  0  0  0  0  0  0  0
   44.4227   35.3063   39.7850 H   0  0  0  0  0  0  0  0  0  0  0  0
   42.1598   35.4473   39.2873 H   0  0  0  0  0  0  0  0  0  0  0  0
   38.7630   35.0718   40.0122 H   0  0  0  0  0  0  0  0  0  0  0  0
   39.9110   35.5261   38.7074 H   0  0  0  0  0  0  0  0  0  0  0  0
   39.1494   33.8993   38.7074 H   0  0  0  0  0  0  0  0  0  0  0  0
   41.2990   31.9019   42.5314 H   0  0  0  0  0  0  0  0  0  0  0  0
  1 10  1  0
  2  1  1  0
  3  2  1  0
  4  3  1  0
  4  5  1  0
  5  1  1  0
  6  7  2  0
  8  7  1  0
  9  8  2  0
 10 11  2  0
 10  9  1  0
 11  6  1  0
 12 14  1  0
 12  5  1  0
 13 12  1  0
 14 15  1  0
 15 22  1  0
 16 17  2  0
 16 15  1  0
 17 19  1  0
 18 17  1  0
 19 20  2  0
 19 21  1  0
 22 21  1  0
 22 23  2  0
  1 24  1  6
  2 25  1  0
  2 26  1  0
  3 27  1  0
  3 28  1  0
  4 29  1  0
  4 30  1  0
  5 31  1  1
  6 32  1  0
  7 33  1  0
  8 34  1  0
 12 35  1  1
 13 36  1  0
 13 37  1  0
 13 38  1  0
 14 39  1  0
 14 40  1  0
 16 41  1  0
 18 42  1  0
 18 43  1  0
 18 44  1  0
 21 45  1  0
M  ISO  8  24  13  25  13  26  13  27  13  28  13  29  13  30  13  31  13
M  ISO  8  32  14  33  14  34  14  35   8  36   8  37   8  38   8  39   8
M  ISO  6  40   8  41  14  42   8  43   8  44   8  45   9
M  END
>  <minimizedAffinity>  (1) 
-6.29424858

>  <minimizedRMSD>  (1) 
1.36054337

$$$$
