
     RDKit          3D

 42 44  0  0  1  0  0  0  0  0999 V2000
   46.2140   34.9850   41.8880 C   0  0  1  0  0  0  0  0  0  0  0  0
   47.7320   35.0860   41.8330 C   0  0  0  0  0  0  0  0  0  0  0  0
   48.1050   34.7430   40.4140 C   0  0  0  0  0  0  0  0  0  0  0  0
   47.0020   33.8310   39.9350 C   0  0  0  0  0  0  0  0  0  0  0  0
   45.9630   33.7870   41.0490 C   0  0  2  0  0  0  0  0  0  0  0  0
   45.8180   33.6630   45.3180 C   0  0  0  0  0  0  0  0  0  0  0  0
   44.9540   34.5720   45.9070 C   0  0  0  0  0  0  0  0  0  0  0  0
   44.5090   35.6340   45.1340 C   0  0  0  0  0  0  0  0  0  0  0  0
   44.9670   35.6700   43.8800 N   0  0  0  0  0  0  0  0  0  0  0  0
   45.7950   34.8050   43.3000 C   0  0  0  0  0  0  0  0  0  0  0  0
   46.2140   33.7900   44.0580 N   0  0  0  0  0  0  0  0  0  0  0  0
   44.5690   33.6750   40.4760 C   0  0  2  0  0  0  0  0  0  0  0  0
   44.6560   32.9690   39.1620 C   0  0  0  0  0  0  0  0  0  0  0  0
   43.8690   34.9730   40.4100 C   0  0  0  0  0  0  0  0  0  0  0  0
   42.4400   34.7110   40.4280 N   0  0  0  0  0  0  0  0  0  0  0  0
   41.7500   34.1430   41.4000 C   0  0  0  0  0  0  0  0  0  0  0  0
   40.3910   33.9380   41.3100 C   0  0  0  0  0  0  0  0  0  0  0  0
   39.6650   34.3210   40.1840 C   0  0  0  0  0  0  0  0  0  0  0  0
   38.4410   34.1840   40.0030 O   0  0  0  0  0  0  0  0  0  0  0  0
   40.3790   34.9000   39.2000 N   0  0  0  0  0  0  0  0  0  0  0  0
   41.7080   35.0780   39.3350 C   0  0  0  0  0  0  0  0  0  0  0  0
   42.3240   35.6310   38.3660 O   0  0  0  0  0  0  0  0  0  0  0  0
   45.6576   35.8642   41.5310 H   0  0  0  0  0  0  0  0  0  0  0  0
   48.0590   36.1066   42.0808 H   0  0  0  0  0  0  0  0  0  0  0  0
   48.2132   34.4117   42.5567 H   0  0  0  0  0  0  0  0  0  0  0  0
   48.1527   35.6514   39.7955 H   0  0  0  0  0  0  0  0  0  0  0  0
   49.0948   34.2675   40.3483 H   0  0  0  0  0  0  0  0  0  0  0  0
   46.5537   34.2287   39.0126 H   0  0  0  0  0  0  0  0  0  0  0  0
   47.3868   32.8254   39.7098 H   0  0  0  0  0  0  0  0  0  0  0  0
   46.0467   32.8947   41.6868 H   0  0  0  0  0  0  0  0  0  0  0  0
   46.1857   32.8128   45.9112 H   0  0  0  0  0  0  0  0  0  0  0  0
   44.6319   34.4553   46.9523 H   0  0  0  0  0  0  0  0  0  0  0  0
   43.8227   36.3978   45.5285 H   0  0  0  0  0  0  0  0  0  0  0  0
   43.9402   33.0778   41.1527 H   0  0  0  0  0  0  0  0  0  0  0  0
   44.7889   31.8906   39.3333 H   0  0  0  0  0  0  0  0  0  0  0  0
   43.7302   33.1385   38.5927 H   0  0  0  0  0  0  0  0  0  0  0  0
   45.5130   33.3582   38.5927 H   0  0  0  0  0  0  0  0  0  0  0  0
   44.1411   35.4977   39.4823 H   0  0  0  0  0  0  0  0  0  0  0  0
   44.1534   35.6056   41.2637 H   0  0  0  0  0  0  0  0  0  0  0  0
   42.2775   33.8233   42.3108 H   0  0  0  0  0  0  0  0  0  0  0  0
   39.8649   33.4593   42.1491 H   0  0  0  0  0  0  0  0  0  0  0  0
   39.9063   35.2088   38.3386 H   0  0  0  0  0  0  0  0  0  0  0  0
  1 10  1  0
  2  1  1  0
  3  2  1  0
  4  3  1  0
  4  5  1  0
  5  1  1  0
  6  7  2  0
  8  7  1  0
  9  8  2  0
 10  9  1  0
 10 11  2  0
 11  6  1  0
 12  5  1  0
 13 12  1  0
 14 15  1  0
 14 12  1  0
 15 16  1  0
 17 16  2  0
 18 17  1  0
 19 18  2  0
 20 21  1  0
 20 18  1  0
 21 15  1  0
 22 21  2  0
  1 23  1  6
  2 24  1  0
  2 25  1  0
  3 26  1  0
  3 27  1  0
  4 28  1  0
  4 29  1  0
  5 30  1  1
  6 31  1  0
  7 32  1  0
  8 33  1  0
 12 34  1  1
 13 35  1  0
 13 36  1  0
 13 37  1  0
 14 38  1  0
 14 39  1  0
 16 40  1  0
 17 41  1  0
 20 42  1  0
M  ISO  8  23  13  24  13  25  13  26  13  27  13  28  13  29  13  30  13
M  ISO  8  31  14  32  14  33  14  34   8  35   8  36   8  37   8  38   8
M  ISO  4  39   8  40  14  41  14  42   9
M  END
>  <minimizedAffinity>  (1) 
-5.9240284

>  <minimizedRMSD>  (1) 
1.48958647

$$$$
