
     RDKit          3D

 40 42  0  0  1  0  0  0  0  0999 V2000
   46.3680   34.9370   42.1010 C   0  0  1  0  0  0  0  0  0  0  0  0
   47.8770   35.1090   41.9990 C   0  0  0  0  0  0  0  0  0  0  0  0
   48.2100   34.9000   40.5480 C   0  0  0  0  0  0  0  0  0  0  0  0
   47.1050   34.0160   40.0180 C   0  0  0  0  0  0  0  0  0  0  0  0
   46.1250   33.8060   41.1700 C   0  0  2  0  0  0  0  0  0  0  0  0
   46.1710   33.3750   45.4320 C   0  0  0  0  0  0  0  0  0  0  0  0
   45.2310   34.1760   46.0930 C   0  0  0  0  0  0  0  0  0  0  0  0
   44.6650   35.2530   45.3890 C   0  0  0  0  0  0  0  0  0  0  0  0
   45.0890   35.4130   44.1300 N   0  0  0  0  0  0  0  0  0  0  0  0
   45.9930   34.6390   43.5010 C   0  0  0  0  0  0  0  0  0  0  0  0
   46.5270   33.6220   44.1660 N   0  0  0  0  0  0  0  0  0  0  0  0
   44.7230   33.6920   40.6270 C   0  0  2  0  0  0  0  0  0  0  0  0
   44.7780   33.2150   39.2120 C   0  0  0  0  0  0  0  0  0  0  0  0
   43.9510   34.9670   40.7450 C   0  0  0  0  0  0  0  0  0  0  0  0
   42.5130   34.5680   40.8730 C   0  0  0  0  0  0  0  0  0  0  0  0
   41.5160   35.4740   40.5020 C   0  0  0  0  0  0  0  0  0  0  0  0
   40.1550   35.2380   40.5700 C   0  0  0  0  0  0  0  0  0  0  0  0
   39.8140   34.0050   41.0430 N   0  0  0  0  0  0  0  0  0  0  0  0
   40.7770   33.1320   41.3990 C   0  0  0  0  0  0  0  0  0  0  0  0
   42.1130   33.3840   41.3260 N   0  0  0  0  0  0  0  0  0  0  0  0
   45.7700   35.8222   41.8384 H   0  0  0  0  0  0  0  0  0  0  0  0
   48.1708   36.1196   42.3188 H   0  0  0  0  0  0  0  0  0  0  0  0
   48.4125   34.3987   42.6461 H   0  0  0  0  0  0  0  0  0  0  0  0
   48.2271   35.8608   40.0127 H   0  0  0  0  0  0  0  0  0  0  0  0
   49.2032   34.4470   40.4125 H   0  0  0  0  0  0  0  0  0  0  0  0
   46.5987   34.5062   39.1734 H   0  0  0  0  0  0  0  0  0  0  0  0
   47.5032   33.0568   39.6557 H   0  0  0  0  0  0  0  0  0  0  0  0
   46.2668   32.8673   41.7257 H   0  0  0  0  0  0  0  0  0  0  0  0
   46.6254   32.5263   45.9641 H   0  0  0  0  0  0  0  0  0  0  0  0
   44.9437   33.9680   47.1342 H   0  0  0  0  0  0  0  0  0  0  0  0
   43.9203   35.9223   45.8445 H   0  0  0  0  0  0  0  0  0  0  0  0
   44.1799   32.9573   41.2396 H   0  0  0  0  0  0  0  0  0  0  0  0
   44.9040   32.1223   39.1980 H   0  0  0  0  0  0  0  0  0  0  0  0
   43.8430   33.4829   38.6981 H   0  0  0  0  0  0  0  0  0  0  0  0
   45.6275   33.6886   38.6981 H   0  0  0  0  0  0  0  0  0  0  0  0
   44.2728   35.5278   41.6349 H   0  0  0  0  0  0  0  0  0  0  0  0
   44.1126   35.6182   39.8733 H   0  0  0  0  0  0  0  0  0  0  0  0
   41.8402   36.4552   40.1250 H   0  0  0  0  0  0  0  0  0  0  0  0
   39.4070   35.9853   40.2667 H   0  0  0  0  0  0  0  0  0  0  0  0
   40.4617   32.1474   41.7747 H   0  0  0  0  0  0  0  0  0  0  0  0
  1 10  1  0
  2  1  1  0
  3  2  1  0
  4  3  1  0
  4  5  1  0
  5  1  1  0
  6  7  2  0
  8  7  1  0
  9  8  2  0
 10  9  1  0
 10 11  2  0
 11  6  1  0
 12 14  1  0
 12  5  1  0
 13 12  1  0
 14 15  1  0
 15 20  2  0
 16 17  2  0
 16 15  1  0
 17 18  1  0
 18 19  2  0
 20 19  1  0
  1 21  1  6
  2 22  1  0
  2 23  1  0
  3 24  1  0
  3 25  1  0
  4 26  1  0
  4 27  1  0
  5 28  1  1
  6 29  1  0
  7 30  1  0
  8 31  1  0
 12 32  1  1
 13 33  1  0
 13 34  1  0
 13 35  1  0
 14 36  1  0
 14 37  1  0
 16 38  1  0
 17 39  1  0
 19 40  1  0
M  ISO  8  21  13  22  13  23  13  24  13  25  13  26  13  27  13  28  13
M  ISO  8  29  14  30  14  31  14  32   8  33   8  34   8  35   8  36   8
M  ISO  4  37   8  38  14  39  14  40  14
M  END
>  <minimizedAffinity>  (1) 
-5.61103725

>  <minimizedRMSD>  (1) 
1.31244957

$$$$
