
     RDKit          3D

 45 47  0  0  1  0  0  0  0  0999 V2000
   46.3650   35.0350   41.9030 C   0  0  1  0  0  0  0  0  0  0  0  0
   47.8680   35.2830   41.9120 C   0  0  0  0  0  0  0  0  0  0  0  0
   48.3410   34.9620   40.5330 C   0  0  0  0  0  0  0  0  0  0  0  0
   47.3500   33.9510   40.0170 C   0  0  0  0  0  0  0  0  0  0  0  0
   46.2540   33.7980   41.0950 C   0  0  2  0  0  0  0  0  0  0  0  0
   45.8760   33.6830   45.3150 C   0  0  0  0  0  0  0  0  0  0  0  0
   44.9640   34.5640   45.8720 C   0  0  0  0  0  0  0  0  0  0  0  0
   44.5160   35.6160   45.0880 C   0  0  0  0  0  0  0  0  0  0  0  0
   45.0230   35.6670   43.8540 N   0  0  0  0  0  0  0  0  0  0  0  0
   45.9010   34.8260   43.3060 C   0  0  0  0  0  0  0  0  0  0  0  0
   46.3230   33.8240   44.0680 N   0  0  0  0  0  0  0  0  0  0  0  0
   44.9250   33.5760   40.4260 C   0  0  2  0  0  0  0  0  0  0  0  0
   45.1380   32.9930   39.0670 C   0  0  0  0  0  0  0  0  0  0  0  0
   44.0690   34.8030   40.4030 C   0  0  0  0  0  0  0  0  0  0  0  0
   42.6380   34.3860   40.7810 C   0  0  0  0  0  0  0  0  0  0  0  0
   41.8250   34.3590   39.5030 C   0  0  0  0  0  0  0  0  0  0  0  0
   40.9900   35.6070   39.6120 C   0  0  0  0  0  0  0  0  0  0  0  0
   40.6110   35.5920   41.0890 C   0  0  0  0  0  0  0  0  0  0  0  0
   41.9980   35.3880   41.7030 C   0  0  0  0  0  0  0  0  0  0  0  0
   45.7568   35.8570   41.4975 H   0  0  0  0  0  0  0  0  0  0  0  0
   48.0814   36.3343   42.1552 H   0  0  0  0  0  0  0  0  0  0  0  0
   48.3758   34.6663   42.6682 H   0  0  0  0  0  0  0  0  0  0  0  0
   48.3402   35.8634   39.9025 H   0  0  0  0  0  0  0  0  0  0  0  0
   49.3717   34.5778   40.5244 H   0  0  0  0  0  0  0  0  0  0  0  0
   46.9058   34.3049   39.0749 H   0  0  0  0  0  0  0  0  0  0  0  0
   47.8414   32.9870   39.8187 H   0  0  0  0  0  0  0  0  0  0  0  0
   46.3638   32.9264   41.7569 H   0  0  0  0  0  0  0  0  0  0  0  0
   46.2424   32.8411   45.9208 H   0  0  0  0  0  0  0  0  0  0  0  0
   44.6064   34.4332   46.9040 H   0  0  0  0  0  0  0  0  0  0  0  0
   43.7925   36.3577   45.4573 H   0  0  0  0  0  0  0  0  0  0  0  0
   44.3560   32.8522   41.0280 H   0  0  0  0  0  0  0  0  0  0  0  0
   45.5140   31.9639   39.1643 H   0  0  0  0  0  0  0  0  0  0  0  0
   44.1848   32.9847   38.5180 H   0  0  0  0  0  0  0  0  0  0  0  0
   45.8720   33.6012   38.5180 H   0  0  0  0  0  0  0  0  0  0  0  0
   44.4486   35.5375   41.1286 H   0  0  0  0  0  0  0  0  0  0  0  0
   44.0836   35.2626   39.4037 H   0  0  0  0  0  0  0  0  0  0  0  0
   42.6714   33.4099   41.2871 H   0  0  0  0  0  0  0  0  0  0  0  0
   41.1912   33.4612   39.4556 H   0  0  0  0  0  0  0  0  0  0  0  0
   42.4437   34.3272   38.5940 H   0  0  0  0  0  0  0  0  0  0  0  0
   41.5729   36.5040   39.3559 H   0  0  0  0  0  0  0  0  0  0  0  0
   40.1285   35.6310   38.9284 H   0  0  0  0  0  0  0  0  0  0  0  0
   40.1576   36.5427   41.4061 H   0  0  0  0  0  0  0  0  0  0  0  0
   39.8585   34.8412   41.3719 H   0  0  0  0  0  0  0  0  0  0  0  0
   41.9220   34.9906   42.7259 H   0  0  0  0  0  0  0  0  0  0  0  0
   42.5725   36.3219   41.7909 H   0  0  0  0  0  0  0  0  0  0  0  0
  1  2  1  0
  1 10  1  0
  3  2  1  0
  4  3  1  0
  4  5  1  0
  5  1  1  0
  6  7  2  0
  8  7  1  0
  9  8  2  0
 10  9  1  0
 10 11  2  0
 11  6  1  0
 12  5  1  0
 13 12  1  0
 14 12  1  0
 14 15  1  0
 15 19  1  0
 16 17  1  0
 16 15  1  0
 17 18  1  0
 18 19  1  0
  1 20  1  6
  2 21  1  0
  2 22  1  0
  3 23  1  0
  3 24  1  0
  4 25  1  0
  4 26  1  0
  5 27  1  1
  6 28  1  0
  7 29  1  0
  8 30  1  0
 12 31  1  1
 13 32  1  0
 13 33  1  0
 13 34  1  0
 14 35  1  0
 14 36  1  0
 15 37  1  0
 16 38  1  0
 16 39  1  0
 17 40  1  0
 17 41  1  0
 18 42  1  0
 18 43  1  0
 19 44  1  0
 19 45  1  0
M  ISO  8  20  13  21  13  22  13  23  13  24  13  25  13  26  13  27  13
M  ISO  8  28  14  29  14  30  14  31   8  32   8  33   8  34   8  35   8
M  ISO  8  36   8  37  13  38  13  39  13  40  13  41  13  42  13  43  13
M  ISO  2  44  13  45  13
M  END
>  <minimizedAffinity>  (1) 
-5.56930065

>  <minimizedRMSD>  (1) 
1.14352393

$$$$
