
     RDKit          3D

 39 40  0  0  1  0  0  0  0  0999 V2000
   46.3160   34.9530   42.1780 C   0  0  1  0  0  0  0  0  0  0  0  0
   47.8290   35.0710   42.0710 C   0  0  0  0  0  0  0  0  0  0  0  0
   48.1290   34.8800   40.6120 C   0  0  0  0  0  0  0  0  0  0  0  0
   47.0130   33.9910   40.0980 C   0  0  0  0  0  0  0  0  0  0  0  0
   46.0230   33.8340   41.2610 C   0  0  2  0  0  0  0  0  0  0  0  0
   46.1290   33.4230   45.5390 C   0  0  0  0  0  0  0  0  0  0  0  0
   45.1910   34.2100   46.1890 C   0  0  0  0  0  0  0  0  0  0  0  0
   44.6240   35.2610   45.4810 C   0  0  0  0  0  0  0  0  0  0  0  0
   45.0360   35.4250   44.2220 N   0  0  0  0  0  0  0  0  0  0  0  0
   45.9520   34.6570   43.5860 C   0  0  0  0  0  0  0  0  0  0  0  0
   46.4860   33.6540   44.2770 N   0  0  0  0  0  0  0  0  0  0  0  0
   44.6090   33.7800   40.7170 C   0  0  2  0  0  0  0  0  0  0  0  0
   44.6450   33.2570   39.3150 C   0  0  0  0  0  0  0  0  0  0  0  0
   43.9160   35.1060   40.7990 C   0  0  0  0  0  0  0  0  0  0  0  0
   42.5110   34.9300   40.4720 N   0  0  0  0  0  0  0  0  0  0  0  0
   41.5260   35.5990   41.2910 C   0  0  0  0  0  0  0  0  0  0  0  0
   41.7070   35.5610   42.5950 N   0  0  0  0  0  0  0  0  0  0  0  0
   40.3720   36.2780   40.7590 N   0  0  0  0  0  0  0  0  0  0  0  0
   41.0050   36.0400   43.2270 H   0  0  0  0  0  0  0  0  0  0  0  0
   45.7495   35.8581   41.9135 H   0  0  0  0  0  0  0  0  0  0  0  0
   48.1647   36.0626   42.4086 H   0  0  0  0  0  0  0  0  0  0  0  0
   48.3476   34.3329   42.7006 H   0  0  0  0  0  0  0  0  0  0  0  0
   48.1272   35.8464   40.0866 H   0  0  0  0  0  0  0  0  0  0  0  0
   49.1217   34.4356   40.4478 H   0  0  0  0  0  0  0  0  0  0  0  0
   46.5173   34.4607   39.2356 H   0  0  0  0  0  0  0  0  0  0  0  0
   47.3977   33.0162   39.7637 H   0  0  0  0  0  0  0  0  0  0  0  0
   46.1248   32.8949   41.8247 H   0  0  0  0  0  0  0  0  0  0  0  0
   46.5912   32.5845   46.0806 H   0  0  0  0  0  0  0  0  0  0  0  0
   44.9052   34.0083   47.2319 H   0  0  0  0  0  0  0  0  0  0  0  0
   43.8733   35.9249   45.9345 H   0  0  0  0  0  0  0  0  0  0  0  0
   44.0172   33.0962   41.3433 H   0  0  0  0  0  0  0  0  0  0  0  0
   44.7205   32.1598   39.3348 H   0  0  0  0  0  0  0  0  0  0  0  0
   43.7244   33.5518   38.7899 H   0  0  0  0  0  0  0  0  0  0  0  0
   45.5165   33.6751   38.7899 H   0  0  0  0  0  0  0  0  0  0  0  0
   44.0092   35.5078   41.8188 H   0  0  0  0  0  0  0  0  0  0  0  0
   44.3762   35.8089   40.0890 H   0  0  0  0  0  0  0  0  0  0  0  0
   42.2242   34.3427   39.6759 H   0  0  0  0  0  0  0  0  0  0  0  0
   39.7052   36.7367   41.3961 H   0  0  0  0  0  0  0  0  0  0  0  0
   40.2138   36.3047   39.7416 H   0  0  0  0  0  0  0  0  0  0  0  0
  1 10  1  0
  2  1  1  0
  3  2  1  0
  4  3  1  0
  4  5  1  0
  5  1  1  0
  6  7  2  0
  8  7  1  0
  9  8  2  0
 10  9  1  0
 10 11  2  0
 11  6  1  0
 12 14  1  0
 12  5  1  0
 13 12  1  0
 15 14  1  0
 15 16  1  0
 16 17  2  0
 17 19  1  0
 18 16  1  0
  1 20  1  6
  2 21  1  0
  2 22  1  0
  3 23  1  0
  3 24  1  0
  4 25  1  0
  4 26  1  0
  5 27  1  1
  6 28  1  0
  7 29  1  0
  8 30  1  0
 12 31  1  1
 13 32  1  0
 13 33  1  0
 13 34  1  0
 14 35  1  0
 14 36  1  0
 15 37  1  0
 18 38  1  0
 18 39  1  0
M  ISO  8  20  13  21  13  22  13  23  13  24  13  25  13  26  13  27  13
M  ISO  8  28  14  29  14  30  14  31   8  32   8  33   8  34   8  35   8
M  ISO  1  36   8
M  END
>  <minimizedAffinity>  (1) 
-5.53993702

>  <minimizedRMSD>  (1) 
1.04359126

$$$$
