
     RDKit          3D

 45 47  0  0  1  0  0  0  0  0999 V2000
   46.2750   34.9770   42.0160 C   0  0  1  0  0  0  0  0  0  0  0  0
   47.7890   35.1520   41.9550 C   0  0  0  0  0  0  0  0  0  0  0  0
   48.1700   34.8800   40.5380 C   0  0  0  0  0  0  0  0  0  0  0  0
   47.1080   33.9260   40.0330 C   0  0  0  0  0  0  0  0  0  0  0  0
   46.0640   33.8090   41.1600 C   0  0  2  0  0  0  0  0  0  0  0  0
   45.9120   33.5450   45.4020 C   0  0  0  0  0  0  0  0  0  0  0  0
   45.0320   34.4200   46.0240 C   0  0  0  0  0  0  0  0  0  0  0  0
   44.5670   35.4990   45.2920 C   0  0  0  0  0  0  0  0  0  0  0  0
   45.0180   35.6020   44.0280 N   0  0  0  0  0  0  0  0  0  0  0  0
   45.8680   34.7570   43.4260 C   0  0  0  0  0  0  0  0  0  0  0  0
   46.3080   33.7210   44.1480 N   0  0  0  0  0  0  0  0  0  0  0  0
   44.6920   33.6450   40.5690 C   0  0  2  0  0  0  0  0  0  0  0  0
   44.8150   33.2450   39.1290 C   0  0  0  0  0  0  0  0  0  0  0  0
   43.8600   34.8590   40.7390 C   0  0  0  0  0  0  0  0  0  0  0  0
   42.4530   34.5820   40.4330 N   0  0  0  0  0  0  0  0  0  0  0  0
   41.7380   35.7250   40.9680 C   0  0  0  0  0  0  0  0  0  0  0  0
   40.2990   35.6950   40.5160 C   0  0  0  0  0  0  0  0  0  0  0  0
   39.8540   34.3910   40.5720 O   0  0  0  0  0  0  0  0  0  0  0  0
   40.5090   33.5930   41.4830 C   0  0  0  0  0  0  0  0  0  0  0  0
   41.9790   33.4160   41.1460 C   0  0  0  0  0  0  0  0  0  0  0  0
   45.6801   35.8387   41.6790 H   0  0  0  0  0  0  0  0  0  0  0  0
   48.0682   36.1779   42.2371 H   0  0  0  0  0  0  0  0  0  0  0  0
   48.3045   34.4742   42.6514 H   0  0  0  0  0  0  0  0  0  0  0  0
   48.1680   35.8097   39.9501 H   0  0  0  0  0  0  0  0  0  0  0  0
   49.1830   34.4599   40.4518 H   0  0  0  0  0  0  0  0  0  0  0  0
   46.6407   34.3241   39.1202 H   0  0  0  0  0  0  0  0  0  0  0  0
   47.5375   32.9451   39.7812 H   0  0  0  0  0  0  0  0  0  0  0  0
   46.1706   32.9145   41.7912 H   0  0  0  0  0  0  0  0  0  0  0  0
   46.2923   32.6802   45.9654 H   0  0  0  0  0  0  0  0  0  0  0  0
   44.7144   34.2611   47.0651 H   0  0  0  0  0  0  0  0  0  0  0  0
   43.8673   36.2320   45.7199 H   0  0  0  0  0  0  0  0  0  0  0  0
   44.1689   32.8461   41.1150 H   0  0  0  0  0  0  0  0  0  0  0  0
   45.1378   32.1953   39.0663 H   0  0  0  0  0  0  0  0  0  0  0  0
   43.8402   33.3592   38.6322 H   0  0  0  0  0  0  0  0  0  0  0  0
   45.5572   33.8871   38.6322 H   0  0  0  0  0  0  0  0  0  0  0  0
   43.9397   35.2062   41.7797 H   0  0  0  0  0  0  0  0  0  0  0  0
   44.2230   35.6312   40.0448 H   0  0  0  0  0  0  0  0  0  0  0  0
   41.7747   35.6952   42.0670 H   0  0  0  0  0  0  0  0  0  0  0  0
   42.2108   36.6485   40.6024 H   0  0  0  0  0  0  0  0  0  0  0  0
   40.2255   36.0690   39.4841 H   0  0  0  0  0  0  0  0  0  0  0  0
   39.6840   36.3333   41.1675 H   0  0  0  0  0  0  0  0  0  0  0  0
   40.4278   34.0535   42.4787 H   0  0  0  0  0  0  0  0  0  0  0  0
   40.0374   32.5995   41.4587 H   0  0  0  0  0  0  0  0  0  0  0  0
   42.1060   32.5237   40.5154 H   0  0  0  0  0  0  0  0  0  0  0  0
   42.5563   33.2935   42.0743 H   0  0  0  0  0  0  0  0  0  0  0  0
  1 10  1  0
  2  1  1  0
  3  2  1  0
  4  3  1  0
  4  5  1  0
  5  1  1  0
  6  7  2  0
  8  7  1  0
  9  8  2  0
 10  9  1  0
 10 11  2  0
 11  6  1  0
 12 14  1  0
 12  5  1  0
 13 12  1  0
 15 14  1  0
 15 16  1  0
 15 20  1  0
 17 18  1  0
 17 16  1  0
 18 19  1  0
 20 19  1  0
  1 21  1  6
  2 22  1  0
  2 23  1  0
  3 24  1  0
  3 25  1  0
  4 26  1  0
  4 27  1  0
  5 28  1  1
  6 29  1  0
  7 30  1  0
  8 31  1  0
 12 32  1  1
 13 33  1  0
 13 34  1  0
 13 35  1  0
 14 36  1  0
 14 37  1  0
 16 38  1  0
 16 39  1  0
 17 40  1  0
 17 41  1  0
 19 42  1  0
 19 43  1  0
 20 44  1  0
 20 45  1  0
M  ISO  8  21  13  22  13  23  13  24  13  25  13  26  13  27  13  28  13
M  ISO  8  29  14  30  14  31  14  32   8  33   8  34   8  35   8  36   8
M  ISO  8  37   8  38  13  39  13  40  13  41  13  42  13  43  13  44  13
M  ISO  1  45  13
M  END
>  <minimizedAffinity>  (1) 
-5.504004

>  <minimizedRMSD>  (1) 
1.59555352

$$$$
