
     RDKit          3D

 44 46  0  0  1  0  0  0  0  0999 V2000
   46.4110   34.9390   42.1010 C   0  0  1  0  0  0  0  0  0  0  0  0
   47.9140   35.1450   42.0020 C   0  0  0  0  0  0  0  0  0  0  0  0
   48.2600   34.9460   40.5500 C   0  0  0  0  0  0  0  0  0  0  0  0
   47.1800   34.0290   40.0240 C   0  0  0  0  0  0  0  0  0  0  0  0
   46.1860   33.8070   41.1690 C   0  0  2  0  0  0  0  0  0  0  0  0
   46.2850   33.3600   45.4420 C   0  0  0  0  0  0  0  0  0  0  0  0
   45.3130   34.1050   46.1020 C   0  0  0  0  0  0  0  0  0  0  0  0
   44.7030   35.1540   45.4010 C   0  0  0  0  0  0  0  0  0  0  0  0
   45.1190   35.3410   44.1460 N   0  0  0  0  0  0  0  0  0  0  0  0
   46.0530   34.6280   43.5050 C   0  0  0  0  0  0  0  0  0  0  0  0
   46.6300   33.6260   44.1850 N   0  0  0  0  0  0  0  0  0  0  0  0
   44.7790   33.6590   40.6480 C   0  0  2  0  0  0  0  0  0  0  0  0
   44.8650   33.0710   39.2520 C   0  0  0  0  0  0  0  0  0  0  0  0
   44.0600   34.9800   40.6030 C   0  0  0  0  0  0  0  0  0  0  0  0
   42.6590   34.6910   40.4370 N   0  0  0  0  0  0  0  0  0  0  0  0
   41.8710   35.0200   41.5820 C   0  0  0  0  0  0  0  0  0  0  0  0
   40.4630   35.2380   41.0840 C   0  0  0  0  0  0  0  0  0  0  0  0
   40.6760   35.7190   39.6720 C   0  0  0  0  0  0  0  0  0  0  0  0
   42.0460   35.1750   39.2550 C   0  0  0  0  0  0  0  0  0  0  0  0
   45.7922   35.8093   41.8370 H   0  0  0  0  0  0  0  0  0  0  0  0
   48.1834   36.1616   42.3242 H   0  0  0  0  0  0  0  0  0  0  0  0
   48.4624   34.4444   42.6488 H   0  0  0  0  0  0  0  0  0  0  0  0
   48.2500   35.9060   40.0131 H   0  0  0  0  0  0  0  0  0  0  0  0
   49.2674   34.5254   40.4147 H   0  0  0  0  0  0  0  0  0  0  0  0
   46.6718   34.4959   39.1674 H   0  0  0  0  0  0  0  0  0  0  0  0
   47.6066   33.0742   39.6830 H   0  0  0  0  0  0  0  0  0  0  0  0
   46.3411   32.8624   41.7109 H   0  0  0  0  0  0  0  0  0  0  0  0
   46.7795   32.5323   45.9715 H   0  0  0  0  0  0  0  0  0  0  0  0
   45.0322   33.8779   47.1410 H   0  0  0  0  0  0  0  0  0  0  0  0
   43.9272   35.7861   45.8577 H   0  0  0  0  0  0  0  0  0  0  0  0
   44.2082   33.0030   41.3217 H   0  0  0  0  0  0  0  0  0  0  0  0
   45.0239   31.9847   39.3208 H   0  0  0  0  0  0  0  0  0  0  0  0
   43.9280   33.2710   38.7115 H   0  0  0  0  0  0  0  0  0  0  0  0
   45.7054   33.5310   38.7115 H   0  0  0  0  0  0  0  0  0  0  0  0
   44.2235   35.5313   41.5407 H   0  0  0  0  0  0  0  0  0  0  0  0
   44.4332   35.6023   39.7763 H   0  0  0  0  0  0  0  0  0  0  0  0
   41.8936   34.1947   42.3089 H   0  0  0  0  0  0  0  0  0  0  0  0
   42.2580   35.9173   42.0871 H   0  0  0  0  0  0  0  0  0  0  0  0
   39.8879   34.3004   41.1002 H   0  0  0  0  0  0  0  0  0  0  0  0
   39.8883   35.9441   41.7014 H   0  0  0  0  0  0  0  0  0  0  0  0
   39.8895   35.3276   39.0100 H   0  0  0  0  0  0  0  0  0  0  0  0
   40.6356   36.8162   39.6048 H   0  0  0  0  0  0  0  0  0  0  0  0
   41.9262   34.3593   38.5268 H   0  0  0  0  0  0  0  0  0  0  0  0
   42.6576   35.9554   38.7785 H   0  0  0  0  0  0  0  0  0  0  0  0
  1 10  1  0
  2  1  1  0
  3  2  1  0
  4  3  1  0
  4  5  1  0
  5  1  1  0
  6  7  2  0
  8  7  1  0
  9  8  2  0
 10  9  1  0
 10 11  2  0
 11  6  1  0
 12  5  1  0
 13 12  1  0
 14 12  1  0
 15 14  1  0
 15 16  1  0
 17 16  1  0
 18 17  1  0
 19 18  1  0
 19 15  1  0
  1 20  1  6
  2 21  1  0
  2 22  1  0
  3 23  1  0
  3 24  1  0
  4 25  1  0
  4 26  1  0
  5 27  1  1
  6 28  1  0
  7 29  1  0
  8 30  1  0
 12 31  1  1
 13 32  1  0
 13 33  1  0
 13 34  1  0
 14 35  1  0
 14 36  1  0
 16 37  1  0
 16 38  1  0
 17 39  1  0
 17 40  1  0
 18 41  1  0
 18 42  1  0
 19 43  1  0
 19 44  1  0
M  ISO  8  20  13  21  13  22  13  23  13  24  13  25  13  26  13  27  13
M  ISO  8  28  14  29  14  30  14  31   8  32   8  33   8  34   8  35   8
M  ISO  8  36   8  37  13  38  13  39  13  40  13  41  13  42  13  43  13
M  ISO  1  44  13
M  END
>  <minimizedAffinity>  (1) 
-5.46909666

>  <minimizedRMSD>  (1) 
0.844764948

$$$$
