
     RDKit          3D

 37 39  0  0  1  0  0  0  0  0999 V2000
   46.4500   34.9620   42.1190 C   0  0  1  0  0  0  0  0  0  0  0  0
   47.9550   35.1720   42.0360 C   0  0  0  0  0  0  0  0  0  0  0  0
   48.3020   35.0080   40.5910 C   0  0  0  0  0  0  0  0  0  0  0  0
   47.2490   34.0700   40.0500 C   0  0  0  0  0  0  0  0  0  0  0  0
   46.2370   33.8240   41.1930 C   0  0  2  0  0  0  0  0  0  0  0  0
   46.2980   33.3440   45.4440 C   0  0  0  0  0  0  0  0  0  0  0  0
   45.3260   34.0750   46.1090 C   0  0  0  0  0  0  0  0  0  0  0  0
   44.7250   35.1170   45.4180 C   0  0  0  0  0  0  0  0  0  0  0  0
   45.1530   35.3090   44.1680 N   0  0  0  0  0  0  0  0  0  0  0  0
   46.0870   34.6120   43.5240 C   0  0  0  0  0  0  0  0  0  0  0  0
   46.6580   33.6150   44.1900 N   0  0  0  0  0  0  0  0  0  0  0  0
   44.8550   33.7000   40.6210 C   0  0  2  0  0  0  0  0  0  0  0  0
   44.9480   33.2140   39.2090 C   0  0  0  0  0  0  0  0  0  0  0  0
   44.0550   34.9570   40.7480 C   0  0  0  0  0  0  0  0  0  0  0  0
   42.6220   34.5750   41.0410 C   0  0  0  0  0  0  0  0  0  0  0  0
   41.7110   35.5030   41.3870 N   0  0  0  0  0  0  0  0  0  0  0  0
   40.5600   34.9560   41.5910 O   0  0  0  0  0  0  0  0  0  0  0  0
   40.6910   33.6740   41.3860 C   0  0  0  0  0  0  0  0  0  0  0  0
   41.9660   33.4000   41.0410 N   0  0  0  0  0  0  0  0  0  0  0  0
   45.8398   35.8378   41.8534 H   0  0  0  0  0  0  0  0  0  0  0  0
   48.2221   36.1809   42.3834 H   0  0  0  0  0  0  0  0  0  0  0  0
   48.5021   34.4593   42.6706 H   0  0  0  0  0  0  0  0  0  0  0  0
   48.2640   35.9762   40.0703 H   0  0  0  0  0  0  0  0  0  0  0  0
   49.3207   34.6182   40.4484 H   0  0  0  0  0  0  0  0  0  0  0  0
   46.7419   34.5274   39.1877 H   0  0  0  0  0  0  0  0  0  0  0  0
   47.6994   33.1249   39.7125 H   0  0  0  0  0  0  0  0  0  0  0  0
   46.3738   32.8828   41.7457 H   0  0  0  0  0  0  0  0  0  0  0  0
   46.7890   32.5117   45.9695 H   0  0  0  0  0  0  0  0  0  0  0  0
   45.0421   33.8379   47.1450 H   0  0  0  0  0  0  0  0  0  0  0  0
   43.9446   35.7457   45.8716 H   0  0  0  0  0  0  0  0  0  0  0  0
   44.2995   32.9580   41.2133 H   0  0  0  0  0  0  0  0  0  0  0  0
   45.1547   32.1336   39.2060 H   0  0  0  0  0  0  0  0  0  0  0  0
   43.9967   33.4067   38.6915 H   0  0  0  0  0  0  0  0  0  0  0  0
   45.7610   33.7443   38.6915 H   0  0  0  0  0  0  0  0  0  0  0  0
   44.4527   35.5705   41.5699 H   0  0  0  0  0  0  0  0  0  0  0  0
   44.1109   35.5397   39.8167 H   0  0  0  0  0  0  0  0  0  0  0  0
   39.8855   32.9309   41.4801 H   0  0  0  0  0  0  0  0  0  0  0  0
  1 10  1  0
  2  1  1  0
  3  2  1  0
  4  3  1  0
  4  5  1  0
  5  1  1  0
  6  7  2  0
  8  7  1  0
  9  8  2  0
 10  9  1  0
 10 11  2  0
 11  6  1  0
 12 14  1  0
 12  5  1  0
 13 12  1  0
 14 15  1  0
 15 16  2  0
 16 17  1  0
 18 17  1  0
 19 15  1  0
 19 18  2  0
  1 20  1  6
  2 21  1  0
  2 22  1  0
  3 23  1  0
  3 24  1  0
  4 25  1  0
  4 26  1  0
  5 27  1  1
  6 28  1  0
  7 29  1  0
  8 30  1  0
 12 31  1  1
 13 32  1  0
 13 33  1  0
 13 34  1  0
 14 35  1  0
 14 36  1  0
 18 37  1  0
M  ISO  8  20  13  21  13  22  13  23  13  24  13  25  13  26  13  27  13
M  ISO  8  28  14  29  14  30  14  31   8  32   8  33   8  34   8  35   8
M  ISO  2  36   8  37  14
M  END
>  <minimizedAffinity>  (1) 
-5.3431263

>  <minimizedRMSD>  (1) 
1.21756697

$$$$
