
     RDKit          3D

 51 54  0  0  1  0  0  0  0  0999 V2000
   46.2560   35.0670   41.8050 C   0  0  1  0  0  0  0  0  0  0  0  0
   47.7780   35.0650   41.8510 C   0  0  0  0  0  0  0  0  0  0  0  0
   48.1870   34.7730   40.4330 C   0  0  0  0  0  0  0  0  0  0  0  0
   47.1050   33.8370   39.9390 C   0  0  0  0  0  0  0  0  0  0  0  0
   46.0240   33.8460   41.0260 C   0  0  2  0  0  0  0  0  0  0  0  0
   45.5920   33.8750   45.2550 C   0  0  0  0  0  0  0  0  0  0  0  0
   44.7830   34.8860   45.7760 C   0  0  0  0  0  0  0  0  0  0  0  0
   44.4650   35.9660   44.9470 C   0  0  0  0  0  0  0  0  0  0  0  0
   44.9780   35.9130   43.7270 N   0  0  0  0  0  0  0  0  0  0  0  0
   45.7530   34.9580   43.2090 C   0  0  0  0  0  0  0  0  0  0  0  0
   46.0520   33.9280   44.0070 N   0  0  0  0  0  0  0  0  0  0  0  0
   44.6630   33.6440   40.4190 C   0  0  2  0  0  0  0  0  0  0  0  0
   44.8150   33.1710   38.9820 C   0  0  0  0  0  0  0  0  0  0  0  0
   43.8720   34.8470   40.4310 C   0  0  0  0  0  0  0  0  0  0  0  0
   42.6080   34.7400   39.7750 N   0  0  0  0  0  0  0  0  0  0  0  0
   42.3120   35.4590   38.6930 N   0  0  0  0  0  0  0  0  0  0  0  0
   41.0690   35.1440   38.2870 C   0  0  0  0  0  0  0  0  0  0  0  0
   40.5990   34.1940   39.1660 C   0  0  0  0  0  0  0  0  0  0  0  0
   41.6180   33.9550   40.1190 C   0  0  0  0  0  0  0  0  0  0  0  0
   41.2110   32.9860   41.0720 N   0  0  0  0  0  0  0  0  0  0  0  0
   41.8240   31.8120   41.7240 C   0  0  0  0  0  0  0  0  0  0  0  0
   40.7250   30.8050   41.4590 C   0  0  0  0  0  0  0  0  0  0  0  0
   39.4840   31.5750   41.8620 C   0  0  0  0  0  0  0  0  0  0  0  0
   39.8760   32.9950   41.6320 C   0  0  0  0  0  0  0  0  0  0  0  0
   45.7629   35.9523   41.3773 H   0  0  0  0  0  0  0  0  0  0  0  0
   48.1603   36.0446   42.1739 H   0  0  0  0  0  0  0  0  0  0  0  0
   48.1780   34.3307   42.5657 H   0  0  0  0  0  0  0  0  0  0  0  0
   48.2132   35.6949   39.8335 H   0  0  0  0  0  0  0  0  0  0  0  0
   49.1953   34.3397   40.3584 H   0  0  0  0  0  0  0  0  0  0  0  0
   46.6928   34.1964   38.9846 H   0  0  0  0  0  0  0  0  0  0  0  0
   47.4939   32.8237   39.7602 H   0  0  0  0  0  0  0  0  0  0  0  0
   46.0747   33.0047   41.7328 H   0  0  0  0  0  0  0  0  0  0  0  0
   45.8552   33.0158   45.8894 H   0  0  0  0  0  0  0  0  0  0  0  0
   44.4067   34.8346   46.8084 H   0  0  0  0  0  0  0  0  0  0  0  0
   43.8332   36.8010   45.2842 H   0  0  0  0  0  0  0  0  0  0  0  0
   44.1421   32.8909   41.0285 H   0  0  0  0  0  0  0  0  0  0  0  0
   45.1515   32.1238   38.9743 H   0  0  0  0  0  0  0  0  0  0  0  0
   43.8466   33.2487   38.4660 H   0  0  0  0  0  0  0  0  0  0  0  0
   45.5568   33.7983   38.4660 H   0  0  0  0  0  0  0  0  0  0  0  0
   43.6907   35.1268   41.4793 H   0  0  0  0  0  0  0  0  0  0  0  0
   44.4471   35.6009   39.8734 H   0  0  0  0  0  0  0  0  0  0  0  0
   40.5331   35.5630   37.4225 H   0  0  0  0  0  0  0  0  0  0  0  0
   39.6120   33.7094   39.1335 H   0  0  0  0  0  0  0  0  0  0  0  0
   42.7733   31.5234   41.2491 H   0  0  0  0  0  0  0  0  0  0  0  0
   42.1040   31.9451   42.7794 H   0  0  0  0  0  0  0  0  0  0  0  0
   40.6913   30.5212   40.3968 H   0  0  0  0  0  0  0  0  0  0  0  0
   40.8532   29.8571   42.0022 H   0  0  0  0  0  0  0  0  0  0  0  0
   38.6251   31.2960   41.2339 H   0  0  0  0  0  0  0  0  0  0  0  0
   39.1694   31.3760   42.8971 H   0  0  0  0  0  0  0  0  0  0  0  0
   39.8705   33.5463   42.5839 H   0  0  0  0  0  0  0  0  0  0  0  0
   39.1696   33.4890   40.9487 H   0  0  0  0  0  0  0  0  0  0  0  0
  1  2  1  0
  1 10  1  0
  3  2  1  0
  4  3  1  0
  4  5  1  0
  5  1  1  0
  6  7  2  0
  8  7  1  0
  9  8  2  0
 10  9  1  0
 10 11  2  0
 11  6  1  0
 12 14  1  0
 12  5  1  0
 13 12  1  0
 15 19  1  0
 15 14  1  0
 16 15  1  0
 17 16  2  0
 17 18  1  0
 18 19  2  0
 19 20  1  0
 20 24  1  0
 20 21  1  0
 22 21  1  0
 22 23  1  0
 24 23  1  0
  1 25  1  6
  2 26  1  0
  2 27  1  0
  3 28  1  0
  3 29  1  0
  4 30  1  0
  4 31  1  0
  5 32  1  1
  6 33  1  0
  7 34  1  0
  8 35  1  0
 12 36  1  1
 13 37  1  0
 13 38  1  0
 13 39  1  0
 14 40  1  0
 14 41  1  0
 17 42  1  0
 18 43  1  0
 21 44  1  0
 21 45  1  0
 22 46  1  0
 22 47  1  0
 23 48  1  0
 23 49  1  0
 24 50  1  0
 24 51  1  0
M  ISO  8  25  13  26  13  27  13  28  13  29  13  30  13  31  13  32  13
M  ISO  8  33  14  34  14  35  14  36   8  37   8  38   8  39   8  40   8
M  ISO  8  41   8  42  14  43  14  44  13  45  13  46  13  47  13  48  13
M  ISO  3  49  13  50  13  51  13
M  END
>  <minimizedAffinity>  (1) 
-5.92718172

>  <minimizedRMSD>  (1) 
1.53231382

$$$$
