
     RDKit          3D

 41 43  0  0  1  0  0  0  0  0999 V2000
   46.5260   34.9800   42.1200 C   0  0  1  0  0  0  0  0  0  0  0  0
   48.0430   35.1260   42.0820 C   0  0  0  0  0  0  0  0  0  0  0  0
   48.3780   35.0850   40.6180 C   0  0  0  0  0  0  0  0  0  0  0  0
   47.3530   34.1310   40.0450 C   0  0  0  0  0  0  0  0  0  0  0  0
   46.3530   33.8700   41.1750 C   0  0  2  0  0  0  0  0  0  0  0  0
   46.3230   33.3190   45.4310 C   0  0  0  0  0  0  0  0  0  0  0  0
   45.3330   34.0560   46.0820 C   0  0  0  0  0  0  0  0  0  0  0  0
   44.7380   35.1120   45.3850 C   0  0  0  0  0  0  0  0  0  0  0  0
   45.1850   35.3070   44.1530 N   0  0  0  0  0  0  0  0  0  0  0  0
   46.1310   34.6120   43.5150 C   0  0  0  0  0  0  0  0  0  0  0  0
   46.6970   33.6020   44.1870 N   0  0  0  0  0  0  0  0  0  0  0  0
   44.9770   33.6190   40.6230 C   0  0  2  0  0  0  0  0  0  0  0  0
   45.0860   33.1860   39.1710 C   0  0  0  0  0  0  0  0  0  0  0  0
   44.1330   34.7860   40.7120 C   0  0  0  0  0  0  0  0  0  0  0  0
   42.7600   34.5490   40.3920 N   0  0  0  0  0  0  0  0  0  0  0  0
   42.1430   35.2010   39.4050 N   0  0  0  0  0  0  0  0  0  0  0  0
   40.8720   34.7640   39.3290 C   0  0  0  0  0  0  0  0  0  0  0  0
   40.7170   33.8140   40.3050 C   0  0  0  0  0  0  0  0  0  0  0  0
   41.9530   33.6960   40.9780 C   0  0  0  0  0  0  0  0  0  0  0  0
   41.9650   32.7460   42.0300 N   0  0  0  0  0  0  0  0  0  0  0  0
   45.9268   35.8657   41.8621 H   0  0  0  0  0  0  0  0  0  0  0  0
   48.3546   36.0823   42.5273 H   0  0  0  0  0  0  0  0  0  0  0  0
   48.5574   34.3406   42.6552 H   0  0  0  0  0  0  0  0  0  0  0  0
   48.2822   36.0828   40.1651 H   0  0  0  0  0  0  0  0  0  0  0  0
   49.4131   34.7665   40.4252 H   0  0  0  0  0  0  0  0  0  0  0  0
   46.8459   34.5862   39.1815 H   0  0  0  0  0  0  0  0  0  0  0  0
   47.8185   33.1992   39.6914 H   0  0  0  0  0  0  0  0  0  0  0  0
   46.5292   32.9419   41.7386 H   0  0  0  0  0  0  0  0  0  0  0  0
   46.8056   32.4838   45.9598 H   0  0  0  0  0  0  0  0  0  0  0  0
   45.0301   33.8138   47.1114 H   0  0  0  0  0  0  0  0  0  0  0  0
   43.9513   35.7391   45.8298 H   0  0  0  0  0  0  0  0  0  0  0  0
   44.5151   32.8254   41.2287 H   0  0  0  0  0  0  0  0  0  0  0  0
   45.3543   32.1202   39.1254 H   0  0  0  0  0  0  0  0  0  0  0  0
   44.1203   33.3429   38.6681 H   0  0  0  0  0  0  0  0  0  0  0  0
   45.8623   33.7814   38.6681 H   0  0  0  0  0  0  0  0  0  0  0  0
   44.1847   35.1700   41.7415 H   0  0  0  0  0  0  0  0  0  0  0  0
   44.5093   35.5025   39.9670 H   0  0  0  0  0  0  0  0  0  0  0  0
   40.1040   35.1044   38.6189 H   0  0  0  0  0  0  0  0  0  0  0  0
   39.7994   33.2481   40.5236 H   0  0  0  0  0  0  0  0  0  0  0  0
   41.1138   32.2089   42.2486 H   0  0  0  0  0  0  0  0  0  0  0  0
   42.8250   32.5929   42.5758 H   0  0  0  0  0  0  0  0  0  0  0  0
  1 10  1  0
  2  1  1  0
  3  2  1  0
  4  3  1  0
  4  5  1  0
  5  1  1  0
  6  7  2  0
  8  7  1  0
  9  8  2  0
 10  9  1  0
 10 11  2  0
 11  6  1  0
 12 14  1  0
 12  5  1  0
 13 12  1  0
 15 14  1  0
 15 19  1  0
 16 15  1  0
 17 16  2  0
 17 18  1  0
 18 19  2  0
 19 20  1  0
  1 21  1  6
  2 22  1  0
  2 23  1  0
  3 24  1  0
  3 25  1  0
  4 26  1  0
  4 27  1  0
  5 28  1  1
  6 29  1  0
  7 30  1  0
  8 31  1  0
 12 32  1  1
 13 33  1  0
 13 34  1  0
 13 35  1  0
 14 36  1  0
 14 37  1  0
 17 38  1  0
 18 39  1  0
 20 40  1  0
 20 41  1  0
M  ISO  8  21  13  22  13  23  13  24  13  25  13  26  13  27  13  28  13
M  ISO  8  29  14  30  14  31  14  32   8  33   8  34   8  35   8  36   8
M  ISO  3  37   8  38  14  39  14
M  END
>  <minimizedAffinity>  (1) 
-5.58007002

>  <minimizedRMSD>  (1) 
0.723124623

$$$$
