
     RDKit          3D

 17 18  0  0  0  0  0  0  0  0999 V2000
   44.5430   36.0110   44.5190 C   0  0  0  0  0  0  0  0  0  0  0  0
   45.2990   35.9470   43.3150 C   0  0  0  0  0  0  0  0  0  0  0  0
   46.1970   34.8870   43.1900 C   0  0  0  0  0  0  0  0  0  0  0  0
   46.3110   33.9850   44.1960 N   0  0  0  0  0  0  0  0  0  0  0  0
   45.5650   34.0870   45.3330 C   0  0  0  0  0  0  0  0  0  0  0  0
   44.6870   35.0990   45.4870 N   0  0  0  0  0  0  0  0  0  0  0  0
   46.9860   34.7960   41.9650 C   0  0  0  0  0  0  0  0  0  0  0  0
   48.2130   35.3880   41.7390 C   0  0  0  0  0  0  0  0  0  0  0  0
   48.5270   34.9980   40.4430 C   0  0  0  0  0  0  0  0  0  0  0  0
   47.4820   34.1970   39.9650 C   0  0  0  0  0  0  0  0  0  0  0  0
   46.5690   34.1060   40.9300 O   0  0  0  0  0  0  0  0  0  0  0  0
   43.8225   36.8306   44.6571 H   0  0  0  0  0  0  0  0  0  0  0  0
   45.1807   36.6982   42.5202 H   0  0  0  0  0  0  0  0  0  0  0  0
   45.6803   33.3382   46.1305 H   0  0  0  0  0  0  0  0  0  0  0  0
   48.8014   36.0181   42.4222 H   0  0  0  0  0  0  0  0  0  0  0  0
   49.4373   35.2707   39.8890 H   0  0  0  0  0  0  0  0  0  0  0  0
   47.4257   33.7278   38.9717 H   0  0  0  0  0  0  0  0  0  0  0  0
  1  6  2  0
  2  1  1  0
  3  2  2  0
  3  4  1  0
  4  5  2  0
  5  6  1  0
  7  3  1  0
  8  7  2  0
  9  8  1  0
 10  9  2  0
 10 11  1  0
 11  7  1  0
  1 12  1  0
  2 13  1  0
  5 14  1  0
  8 15  1  0
  9 16  1  0
 10 17  1  0
M  ISO  6  12  14  13  14  14  14  15  14  16  14  17  14
M  END
>  <minimizedAffinity>  (1) 
-4.38897896

>  <minimizedRMSD>  (1) 
0.773016334

$$$$
