
     RDKit          3D

 31 34  0  0  0  0  0  0  0  0999 V2000
   47.2040   34.8780   41.9000 C   0  0  0  0  0  0  0  0  0  0  0  0
   48.4160   35.4980   41.7390 C   0  0  0  0  0  0  0  0  0  0  0  0
   48.7920   35.1950   40.4430 C   0  0  0  0  0  0  0  0  0  0  0  0
   47.7890   34.4090   39.8860 C   0  0  0  0  0  0  0  0  0  0  0  0
   46.8520   34.2490   40.8140 O   0  0  0  0  0  0  0  0  0  0  0  0
   47.6360   33.8130   38.6030 N   0  0  0  0  0  0  0  0  0  0  0  0
   48.6320   33.6020   37.6980 C   0  0  0  0  0  0  0  0  0  0  0  0
   48.1040   33.0200   36.6100 N   0  0  0  0  0  0  0  0  0  0  0  0
   46.7810   32.8590   36.8130 C   0  0  0  0  0  0  0  0  0  0  0  0
   45.8430   32.3010   35.9520 C   0  0  0  0  0  0  0  0  0  0  0  0
   46.1790   31.8640   34.8200 O   0  0  0  0  0  0  0  0  0  0  0  0
   44.5800   32.2660   36.4160 N   0  0  0  0  0  0  0  0  0  0  0  0
   44.2770   32.7500   37.6400 C   0  0  0  0  0  0  0  0  0  0  0  0
   42.8950   32.6260   37.9550 N   0  0  0  0  0  0  0  0  0  0  0  0
   45.2330   33.2850   38.4400 N   0  0  0  0  0  0  0  0  0  0  0  0
   46.5090   33.3630   38.0690 C   0  0  0  0  0  0  0  0  0  0  0  0
   44.5720   35.8600   44.3670 C   0  0  0  0  0  0  0  0  0  0  0  0
   45.3810   35.8720   43.2010 C   0  0  0  0  0  0  0  0  0  0  0  0
   46.3640   34.8780   43.0940 C   0  0  0  0  0  0  0  0  0  0  0  0
   46.5030   33.9670   44.0790 N   0  0  0  0  0  0  0  0  0  0  0  0
   45.7010   33.9930   45.1870 C   0  0  0  0  0  0  0  0  0  0  0  0
   44.7440   34.9360   45.3220 N   0  0  0  0  0  0  0  0  0  0  0  0
   48.9664   36.1015   42.4758 H   0  0  0  0  0  0  0  0  0  0  0  0
   49.7173   35.5175   39.9431 H   0  0  0  0  0  0  0  0  0  0  0  0
   49.6913   33.8646   37.8358 H   0  0  0  0  0  0  0  0  0  0  0  0
   43.8344   31.8646   35.8296 H   0  0  0  0  0  0  0  0  0  0  0  0
   42.5417   32.9605   38.8629 H   0  0  0  0  0  0  0  0  0  0  0  0
   42.2479   32.2018   37.2752 H   0  0  0  0  0  0  0  0  0  0  0  0
   43.7894   36.6233   44.4890 H   0  0  0  0  0  0  0  0  0  0  0  0
   45.2427   36.6288   42.4148 H   0  0  0  0  0  0  0  0  0  0  0  0
   45.8371   33.2383   45.9756 H   0  0  0  0  0  0  0  0  0  0  0  0
  1 19  1  0
  2  1  2  0
  3  2  1  0
  4  3  2  0
  4  5  1  0
  5  1  1  0
  6  4  1  0
  7  6  1  0
  8  9  1  0
  8  7  2  0
  9 16  2  0
 10 12  1  0
 10  9  1  0
 11 10  2  0
 12 13  1  0
 13 14  1  0
 13 15  2  0
 16 15  1  0
 16  6  1  0
 17 22  2  0
 18 17  1  0
 19 18  2  0
 19 20  1  0
 20 21  2  0
 21 22  1  0
  2 23  1  0
  3 24  1  0
  7 25  1  0
 12 26  1  0
 14 27  1  0
 14 28  1  0
 17 29  1  0
 18 30  1  0
 21 31  1  0
M  ISO  7  23  14  24  14  25  14  26   9  29  14  30  14  31  14
M  END
>  <minimizedAffinity>  (1) 
-6.25667048

>  <minimizedRMSD>  (1) 
2.28924489

$$$$
