
     RDKit          3D

 27 29  0  0  0  0  0  0  0  0999 V2000
   46.9130   34.7030   41.8200 C   0  0  0  0  0  0  0  0  0  0  0  0
   48.1790   35.1800   41.5610 C   0  0  0  0  0  0  0  0  0  0  0  0
   48.4420   34.7510   40.2660 C   0  0  0  0  0  0  0  0  0  0  0  0
   47.3210   34.0420   39.8190 C   0  0  0  0  0  0  0  0  0  0  0  0
   46.4130   34.0360   40.7980 O   0  0  0  0  0  0  0  0  0  0  0  0
   44.5760   36.1340   44.3500 C   0  0  0  0  0  0  0  0  0  0  0  0
   45.3110   35.9870   43.1470 C   0  0  0  0  0  0  0  0  0  0  0  0
   46.1480   34.8710   43.0500 C   0  0  0  0  0  0  0  0  0  0  0  0
   46.2240   33.9960   44.0820 N   0  0  0  0  0  0  0  0  0  0  0  0
   45.4930   34.1880   45.2150 C   0  0  0  0  0  0  0  0  0  0  0  0
   44.6790   35.2480   45.3430 N   0  0  0  0  0  0  0  0  0  0  0  0
   47.2320   33.4500   38.5260 N   0  0  0  0  0  0  0  0  0  0  0  0
   46.4770   32.3660   38.2750 C   0  0  0  0  0  0  0  0  0  0  0  0
   46.4840   31.8920   36.9580 C   0  0  0  0  0  0  0  0  0  0  0  0
   47.2270   32.5140   35.9850 C   0  0  0  0  0  0  0  0  0  0  0  0
   47.2360   32.0910   34.8030 O   0  0  0  0  0  0  0  0  0  0  0  0
   47.9620   33.5990   36.3110 N   0  0  0  0  0  0  0  0  0  0  0  0
   47.9720   34.0800   37.5900 C   0  0  0  0  0  0  0  0  0  0  0  0
   48.6770   35.0950   37.8280 O   0  0  0  0  0  0  0  0  0  0  0  0
   48.8311   35.7654   42.2259 H   0  0  0  0  0  0  0  0  0  0  0  0
   49.3642   34.9352   39.6953 H   0  0  0  0  0  0  0  0  0  0  0  0
   43.9054   36.9979   44.4680 H   0  0  0  0  0  0  0  0  0  0  0  0
   45.2269   36.7166   42.3281 H   0  0  0  0  0  0  0  0  0  0  0  0
   45.5708   33.4629   46.0385 H   0  0  0  0  0  0  0  0  0  0  0  0
   45.8851   31.8775   39.0631 H   0  0  0  0  0  0  0  0  0  0  0  0
   45.8846   31.0070   36.6982 H   0  0  0  0  0  0  0  0  0  0  0  0
   48.5222   34.0700   35.5863 H   0  0  0  0  0  0  0  0  0  0  0  0
  1  8  1  0
  2  1  2  0
  3  2  1  0
  4  3  2  0
  4  5  1  0
  5  1  1  0
  6 11  2  0
  7  6  1  0
  8  7  2  0
  8  9  1  0
  9 10  2  0
 10 11  1  0
 12  4  1  0
 13 12  1  0
 14 13  2  0
 15 17  1  0
 15 14  1  0
 16 15  2  0
 17 18  1  0
 18 19  2  0
 18 12  1  0
  2 20  1  0
  3 21  1  0
  6 22  1  0
  7 23  1  0
 10 24  1  0
 13 25  1  0
 14 26  1  0
 17 27  1  0
M  ISO  8  20  14  21  14  22  14  23  14  24  14  25  14  26  14  27   9
M  END
>  <minimizedAffinity>  (1) 
-5.8996067

>  <minimizedRMSD>  (1) 
0.338491052

$$$$
