
     RDKit          3D

 27 29  0  0  0  0  0  0  0  0999 V2000
   47.0330   34.8510   42.0210 C   0  0  0  0  0  0  0  0  0  0  0  0
   48.2450   35.4750   41.8110 C   0  0  0  0  0  0  0  0  0  0  0  0
   48.5910   35.0920   40.5220 C   0  0  0  0  0  0  0  0  0  0  0  0
   47.5700   34.2570   40.0260 C   0  0  0  0  0  0  0  0  0  0  0  0
   46.6560   34.1480   40.9790 O   0  0  0  0  0  0  0  0  0  0  0  0
   44.5170   36.0040   44.5290 C   0  0  0  0  0  0  0  0  0  0  0  0
   45.3040   35.9590   43.3440 C   0  0  0  0  0  0  0  0  0  0  0  0
   46.2150   34.9180   43.2290 C   0  0  0  0  0  0  0  0  0  0  0  0
   46.3220   34.0030   44.2270 N   0  0  0  0  0  0  0  0  0  0  0  0
   45.5500   34.0820   45.3470 C   0  0  0  0  0  0  0  0  0  0  0  0
   44.6620   35.0750   45.4840 N   0  0  0  0  0  0  0  0  0  0  0  0
   47.5980   33.6620   38.6930 C   0  0  0  0  0  0  0  0  0  0  0  0
   48.4140   34.1570   37.6950 C   0  0  0  0  0  0  0  0  0  0  0  0
   48.4460   33.6090   36.4470 C   0  0  0  0  0  0  0  0  0  0  0  0
   47.6540   32.5260   36.1390 C   0  0  0  0  0  0  0  0  0  0  0  0
   46.8340   32.0320   37.1450 C   0  0  0  0  0  0  0  0  0  0  0  0
   46.7870   32.5800   38.4310 C   0  0  0  0  0  0  0  0  0  0  0  0
   48.8050   36.1228   42.5014 H   0  0  0  0  0  0  0  0  0  0  0  0
   49.5026   35.3885   39.9824 H   0  0  0  0  0  0  0  0  0  0  0  0
   43.7812   36.8107   44.6626 H   0  0  0  0  0  0  0  0  0  0  0  0
   45.1951   36.7162   42.5536 H   0  0  0  0  0  0  0  0  0  0  0  0
   45.6565   33.3280   46.1408 H   0  0  0  0  0  0  0  0  0  0  0  0
   49.0587   35.0210   37.9139 H   0  0  0  0  0  0  0  0  0  0  0  0
   49.1097   34.0355   35.6804 H   0  0  0  0  0  0  0  0  0  0  0  0
   47.6700   32.0709   35.1377 H   0  0  0  0  0  0  0  0  0  0  0  0
   46.1908   31.1686   36.9197 H   0  0  0  0  0  0  0  0  0  0  0  0
   46.1264   32.1621   39.2049 H   0  0  0  0  0  0  0  0  0  0  0  0
  1  8  1  0
  2  1  2  0
  3  2  1  0
  4  3  2  0
  4  5  1  0
  5  1  1  0
  6 11  2  0
  7  6  1  0
  8  7  2  0
  8  9  1  0
  9 10  2  0
 10 11  1  0
 12  4  1  0
 13 12  2  0
 14 13  1  0
 15 14  2  0
 15 16  1  0
 16 17  2  0
 17 12  1  0
  2 18  1  0
  3 19  1  0
  6 20  1  0
  7 21  1  0
 10 22  1  0
 13 23  1  0
 14 24  1  0
 15 25  1  0
 16 26  1  0
 17 27  1  0
M  ISO  8  18  14  19  14  20  14  21  14  22  14  23  14  24  14  25  14
M  ISO  2  26  14  27  14
M  END
>  <minimizedAffinity>  (1) 
-5.54401684

>  <minimizedRMSD>  (1) 
0.288871646

$$$$
