
     RDKit          3D

 27 29  0  0  0  0  0  0  0  0999 V2000
   44.8310   34.9980   45.7150 C   0  0  0  0  0  0  0  0  0  0  0  0
   44.3460   35.6550   44.5820 C   0  0  0  0  0  0  0  0  0  0  0  0
   44.7670   35.1650   43.3370 C   0  0  0  0  0  0  0  0  0  0  0  0
   45.6070   34.0960   43.2730 N   0  0  0  0  0  0  0  0  0  0  0  0
   46.0490   33.4940   44.4160 C   0  0  0  0  0  0  0  0  0  0  0  0
   45.6710   33.9310   45.6290 N   0  0  0  0  0  0  0  0  0  0  0  0
   46.9310   32.3710   44.3690 N   0  0  0  0  0  0  0  0  0  0  0  0
   47.6590   32.2250   43.2310 C   0  0  0  0  0  0  0  0  0  0  0  0
   48.4300   31.0750   43.4300 C   0  0  0  0  0  0  0  0  0  0  0  0
   48.1550   30.5800   44.6360 N   0  0  0  0  0  0  0  0  0  0  0  0
   47.2420   31.3610   45.2170 C   0  0  0  0  0  0  0  0  0  0  0  0
   46.5710   31.3070   46.5340 C   0  0  0  0  0  0  0  0  0  0  0  0
   45.3770   30.6590   46.7680 C   0  0  0  0  0  0  0  0  0  0  0  0
   44.8800   30.7010   48.0540 C   0  0  0  0  0  0  0  0  0  0  0  0
   45.5510   31.3660   49.0770 C   0  0  0  0  0  0  0  0  0  0  0  0
   46.7490   32.0060   48.8030 C   0  0  0  0  0  0  0  0  0  0  0  0
   47.2780   31.9820   47.5090 C   0  0  0  0  0  0  0  0  0  0  0  0
   44.5239   35.3547   46.7092 H   0  0  0  0  0  0  0  0  0  0  0  0
   43.6661   36.5160   44.6622 H   0  0  0  0  0  0  0  0  0  0  0  0
   44.4178   35.6453   42.4111 H   0  0  0  0  0  0  0  0  0  0  0  0
   47.6450   32.8732   42.3424 H   0  0  0  0  0  0  0  0  0  0  0  0
   49.1449   30.6498   42.7101 H   0  0  0  0  0  0  0  0  0  0  0  0
   44.8435   30.1311   45.9638 H   0  0  0  0  0  0  0  0  0  0  0  0
   43.9287   30.1959   48.2773 H   0  0  0  0  0  0  0  0  0  0  0  0
   45.1333   31.3831   50.0945 H   0  0  0  0  0  0  0  0  0  0  0  0
   47.2851   32.5341   49.6053 H   0  0  0  0  0  0  0  0  0  0  0  0
   48.2278   32.4852   47.2751 H   0  0  0  0  0  0  0  0  0  0  0  0
  2  1  2  0
  3  2  1  0
  4  3  2  0
  4  5  1  0
  5  6  2  0
  6  1  1  0
  7  5  1  0
  7 11  1  0
  8  9  2  0
  8  7  1  0
  9 10  1  0
 10 11  2  0
 11 12  1  0
 12 13  2  0
 12 17  1  0
 13 14  1  0
 14 15  2  0
 16 15  1  0
 17 16  2  0
  1 18  1  0
  2 19  1  0
  3 20  1  0
  8 21  1  0
  9 22  1  0
 13 23  1  0
 14 24  1  0
 15 25  1  0
 16 26  1  0
 17 27  1  0
M  ISO  8  18  14  19  14  20  14  21  14  22  14  23  14  24  14  25  14
M  ISO  2  26  14  27  14
M  END
>  <minimizedAffinity>  (1) 
-4.89729834

>  <minimizedRMSD>  (1) 
3.58796597

$$$$
