
     RDKit          3D

 26 28  0  0  0  0  0  0  0  0999 V2000
   47.0750   34.8660   41.9880 C   0  0  0  0  0  0  0  0  0  0  0  0
   48.2840   35.4980   41.8010 C   0  0  0  0  0  0  0  0  0  0  0  0
   48.6420   35.1350   40.5100 C   0  0  0  0  0  0  0  0  0  0  0  0
   47.6400   34.3160   39.9980 C   0  0  0  0  0  0  0  0  0  0  0  0
   46.7120   34.1820   40.9300 O   0  0  0  0  0  0  0  0  0  0  0  0
   44.5370   35.9790   44.4960 C   0  0  0  0  0  0  0  0  0  0  0  0
   45.3300   35.9350   43.3250 C   0  0  0  0  0  0  0  0  0  0  0  0
   46.2560   34.9170   43.1900 C   0  0  0  0  0  0  0  0  0  0  0  0
   46.3720   33.9900   44.1860 N   0  0  0  0  0  0  0  0  0  0  0  0
   45.5830   34.0710   45.3000 C   0  0  0  0  0  0  0  0  0  0  0  0
   44.6820   35.0510   45.4490 N   0  0  0  0  0  0  0  0  0  0  0  0
   47.5720   33.6900   38.6810 C   0  0  0  0  0  0  0  0  0  0  0  0
   48.4450   34.1520   37.7180 C   0  0  0  0  0  0  0  0  0  0  0  0
   48.4110   33.5830   36.4520 C   0  0  0  0  0  0  0  0  0  0  0  0
   47.4970   32.5750   36.2260 C   0  0  0  0  0  0  0  0  0  0  0  0
   46.6410   32.1550   37.2490 C   0  0  0  0  0  0  0  0  0  0  0  0
   46.6700   32.7040   38.4760 N   0  0  0  0  0  0  0  0  0  0  0  0
   48.8346   36.1378   42.5063 H   0  0  0  0  0  0  0  0  0  0  0  0
   49.5579   35.4412   39.9834 H   0  0  0  0  0  0  0  0  0  0  0  0
   43.7960   36.7818   44.6238 H   0  0  0  0  0  0  0  0  0  0  0  0
   45.2123   36.6948   42.5384 H   0  0  0  0  0  0  0  0  0  0  0  0
   45.6906   33.3146   46.0913 H   0  0  0  0  0  0  0  0  0  0  0  0
   49.1566   34.9582   37.9494 H   0  0  0  0  0  0  0  0  0  0  0  0
   49.0897   33.9244   35.6565 H   0  0  0  0  0  0  0  0  0  0  0  0
   47.4411   32.0990   35.2359 H   0  0  0  0  0  0  0  0  0  0  0  0
   45.9207   31.3495   37.0432 H   0  0  0  0  0  0  0  0  0  0  0  0
  1  8  1  0
  2  1  2  0
  3  2  1  0
  4  3  2  0
  4  5  1  0
  5  1  1  0
  6 11  2  0
  7  6  1  0
  8  7  2  0
  8  9  1  0
  9 10  2  0
 10 11  1  0
 12  4  1  0
 13 12  2  0
 14 13  1  0
 15 14  2  0
 15 16  1  0
 16 17  2  0
 17 12  1  0
  2 18  1  0
  3 19  1  0
  6 20  1  0
  7 21  1  0
 10 22  1  0
 13 23  1  0
 14 24  1  0
 15 25  1  0
 16 26  1  0
M  ISO  8  18  14  19  14  20  14  21  14  22  14  23  14  24  14  25  14
M  ISO  1  26  14
M  END
>  <minimizedAffinity>  (1) 
-5.49563742

>  <minimizedRMSD>  (1) 
0.202642471

$$$$
