
     RDKit          3D

 31 33  0  0  1  0  0  0  0  0999 V2000
   47.0360   34.8420   42.0660 C   0  0  0  0  0  0  0  0  0  0  0  0
   48.2220   35.5140   41.8360 C   0  0  0  0  0  0  0  0  0  0  0  0
   48.5930   35.0910   40.5670 C   0  0  0  0  0  0  0  0  0  0  0  0
   47.6280   34.2010   40.1070 C   0  0  0  0  0  0  0  0  0  0  0  0
   46.6950   34.0750   41.0510 O   0  0  0  0  0  0  0  0  0  0  0  0
   44.5080   36.0200   44.5510 C   0  0  0  0  0  0  0  0  0  0  0  0
   45.3020   35.9620   43.3730 C   0  0  0  0  0  0  0  0  0  0  0  0
   46.2110   34.9230   43.2630 C   0  0  0  0  0  0  0  0  0  0  0  0
   46.3080   34.0120   44.2720 N   0  0  0  0  0  0  0  0  0  0  0  0
   45.5340   34.0960   45.3890 C   0  0  0  0  0  0  0  0  0  0  0  0
   44.6470   35.0920   45.5170 N   0  0  0  0  0  0  0  0  0  0  0  0
   47.6860   33.5330   38.7730 C   0  0  2  0  0  0  0  0  0  0  0  0
   48.3030   32.1650   38.8600 C   0  0  0  0  0  0  0  0  0  0  0  0
   48.9460   31.6330   37.6580 C   0  0  0  0  0  0  0  0  0  0  0  0
   49.0820   32.5000   36.4680 C   0  0  0  0  0  0  0  0  0  0  0  0
   48.1910   33.7050   36.4360 C   0  0  0  0  0  0  0  0  0  0  0  0
   48.3610   34.4180   37.7620 C   0  0  0  0  0  0  0  0  0  0  0  0
   48.7467   36.2165   42.5003 H   0  0  0  0  0  0  0  0  0  0  0  0
   49.4941   35.4052   40.0199 H   0  0  0  0  0  0  0  0  0  0  0  0
   43.7739   36.8298   44.6744 H   0  0  0  0  0  0  0  0  0  0  0  0
   45.1981   36.7150   42.5779 H   0  0  0  0  0  0  0  0  0  0  0  0
   45.6370   33.3457   46.1868 H   0  0  0  0  0  0  0  0  0  0  0  0
   46.6554   33.3748   38.4226 H   0  0  0  0  0  0  0  0  0  0  0  0
   48.2722   31.5846   39.7939 H   0  0  0  0  0  0  0  0  0  0  0  0
   49.3238   30.6001   37.6399 H   0  0  0  0  0  0  0  0  0  0  0  0
   50.1241   32.8490   36.4215 H   0  0  0  0  0  0  0  0  0  0  0  0
   48.7800   31.8811   35.6102 H   0  0  0  0  0  0  0  0  0  0  0  0
   48.4839   34.3694   35.6097 H   0  0  0  0  0  0  0  0  0  0  0  0
   47.1421   33.4131   36.2793 H   0  0  0  0  0  0  0  0  0  0  0  0
   49.4278   34.5356   38.0031 H   0  0  0  0  0  0  0  0  0  0  0  0
   47.9272   35.4287   37.7447 H   0  0  0  0  0  0  0  0  0  0  0  0
  1  8  1  0
  2  1  2  0
  3  2  1  0
  4  3  2  0
  4  5  1  0
  5  1  1  0
  6 11  2  0
  7  6  1  0
  8  7  2  0
  8  9  1  0
  9 10  2  0
 10 11  1  0
 12 13  1  0
 12  4  1  0
 14 13  2  0
 15 14  1  0
 16 15  1  0
 16 17  1  0
 17 12  1  0
  2 18  1  0
  3 19  1  0
  6 20  1  0
  7 21  1  0
 10 22  1  0
 12 23  1  6
 13 24  1  0
 14 25  1  0
 15 26  1  0
 15 27  1  0
 16 28  1  0
 16 29  1  0
 17 30  1  0
 17 31  1  0
M  ISO  8  18  14  19  14  20  14  21  14  22  14  23  13  24  13  25  13
M  ISO  6  26  13  27  13  28  13  29  13  30  13  31  13
M  END
>  <minimizedAffinity>  (1) 
-5.41250706

>  <minimizedRMSD>  (1) 
0.893317699

$$$$
