
     RDKit          3D

 24 26  0  0  0  0  0  0  0  0999 V2000
   47.1870   34.8960   41.9520 C   0  0  0  0  0  0  0  0  0  0  0  0
   48.3930   35.5510   41.8070 C   0  0  0  0  0  0  0  0  0  0  0  0
   48.7770   35.2220   40.5030 C   0  0  0  0  0  0  0  0  0  0  0  0
   47.7890   34.4040   39.9630 C   0  0  0  0  0  0  0  0  0  0  0  0
   46.8480   34.2340   40.8760 O   0  0  0  0  0  0  0  0  0  0  0  0
   44.5610   35.8970   44.4160 C   0  0  0  0  0  0  0  0  0  0  0  0
   45.3750   35.8960   43.2560 C   0  0  0  0  0  0  0  0  0  0  0  0
   46.3440   34.9040   43.1460 C   0  0  0  0  0  0  0  0  0  0  0  0
   46.4620   33.9990   44.1400 N   0  0  0  0  0  0  0  0  0  0  0  0
   45.6650   34.0240   45.2460 C   0  0  0  0  0  0  0  0  0  0  0  0
   44.7240   34.9680   45.3760 N   0  0  0  0  0  0  0  0  0  0  0  0
   47.8530   33.8640   38.6090 C   0  0  0  0  0  0  0  0  0  0  0  0
   48.4830   34.4100   37.5120 C   0  0  0  0  0  0  0  0  0  0  0  0
   48.2630   33.5300   36.4580 C   0  0  0  0  0  0  0  0  0  0  0  0
   47.5110   32.5000   36.9800 C   0  0  0  0  0  0  0  0  0  0  0  0
   47.2860   32.7350   38.2670 O   0  0  0  0  0  0  0  0  0  0  0  0
   48.9230   36.1787   42.5385 H   0  0  0  0  0  0  0  0  0  0  0  0
   49.6956   35.5509   39.9951 H   0  0  0  0  0  0  0  0  0  0  0  0
   43.7851   36.6678   44.5334 H   0  0  0  0  0  0  0  0  0  0  0  0
   45.2450   36.6538   42.4694 H   0  0  0  0  0  0  0  0  0  0  0  0
   45.7952   33.2670   46.0334 H   0  0  0  0  0  0  0  0  0  0  0  0
   49.0473   35.3536   37.4770 H   0  0  0  0  0  0  0  0  0  0  0  0
   48.6163   33.6345   35.4215 H   0  0  0  0  0  0  0  0  0  0  0  0
   47.1542   31.6232   36.4198 H   0  0  0  0  0  0  0  0  0  0  0  0
  1  8  1  0
  2  1  2  0
  3  2  1  0
  4  3  2  0
  4  5  1  0
  5  1  1  0
  6 11  2  0
  7  6  1  0
  8  7  2  0
  8  9  1  0
  9 10  2  0
 10 11  1  0
 12  4  1  0
 13 12  2  0
 14 15  2  0
 14 13  1  0
 15 16  1  0
 16 12  1  0
  2 17  1  0
  3 18  1  0
  6 19  1  0
  7 20  1  0
 10 21  1  0
 13 22  1  0
 14 23  1  0
 15 24  1  0
M  ISO  8  17  14  18  14  19  14  20  14  21  14  22  14  23  14  24  14
M  END
>  <minimizedAffinity>  (1) 
-5.38887024

>  <minimizedRMSD>  (1) 
0.382851571

$$$$
