
     RDKit          3D

 26 27  0  0  0  0  0  0  0  0999 V2000
   47.1900   34.8800   41.9310 C   0  0  0  0  0  0  0  0  0  0  0  0
   48.3860   35.5430   41.7580 C   0  0  0  0  0  0  0  0  0  0  0  0
   48.7740   35.2130   40.4720 C   0  0  0  0  0  0  0  0  0  0  0  0
   47.7940   34.3730   39.9400 C   0  0  0  0  0  0  0  0  0  0  0  0
   46.8620   34.2040   40.8620 O   0  0  0  0  0  0  0  0  0  0  0  0
   44.5720   35.9000   44.3900 C   0  0  0  0  0  0  0  0  0  0  0  0
   45.3810   35.8960   43.2240 C   0  0  0  0  0  0  0  0  0  0  0  0
   46.3560   34.8920   43.1210 C   0  0  0  0  0  0  0  0  0  0  0  0
   46.4780   33.9930   44.1160 N   0  0  0  0  0  0  0  0  0  0  0  0
   45.6830   34.0320   45.2160 C   0  0  0  0  0  0  0  0  0  0  0  0
   44.7290   34.9880   45.3510 N   0  0  0  0  0  0  0  0  0  0  0  0
   47.6940   33.7210   38.6100 C   0  0  0  0  0  0  0  0  0  0  0  0
   48.4120   34.5360   37.5490 C   0  0  0  0  0  0  0  0  0  0  0  0
   48.3240   32.3570   38.6700 C   0  0  0  0  0  0  0  0  0  0  0  0
   48.9117   36.1873   42.4781 H   0  0  0  0  0  0  0  0  0  0  0  0
   49.6880   35.5508   39.9616 H   0  0  0  0  0  0  0  0  0  0  0  0
   43.7976   36.6729   44.5040 H   0  0  0  0  0  0  0  0  0  0  0  0
   45.2492   36.6492   42.4332 H   0  0  0  0  0  0  0  0  0  0  0  0
   45.8137   33.2795   46.0076 H   0  0  0  0  0  0  0  0  0  0  0  0
   46.6287   33.6446   38.3468 H   0  0  0  0  0  0  0  0  0  0  0  0
   49.0644   35.2766   38.0347 H   0  0  0  0  0  0  0  0  0  0  0  0
   49.0198   33.8672   36.9218 H   0  0  0  0  0  0  0  0  0  0  0  0
   47.6719   35.0546   36.9218 H   0  0  0  0  0  0  0  0  0  0  0  0
   48.4603   32.0620   39.7209 H   0  0  0  0  0  0  0  0  0  0  0  0
   47.6709   31.6290   38.1665 H   0  0  0  0  0  0  0  0  0  0  0  0
   49.3017   32.3822   38.1665 H   0  0  0  0  0  0  0  0  0  0  0  0
  1  8  1  0
  2  1  2  0
  3  2  1  0
  4  3  2  0
  4  5  1  0
  5  1  1  0
  6 11  2  0
  7  6  1  0
  8  7  2  0
  8  9  1  0
  9 10  2  0
 10 11  1  0
 12 14  1  0
 12  4  1  0
 13 12  1  0
  2 15  1  0
  3 16  1  0
  6 17  1  0
  7 18  1  0
 10 19  1  0
 12 20  1  0
 13 21  1  0
 13 22  1  0
 13 23  1  0
 14 24  1  0
 14 25  1  0
 14 26  1  0
M  ISO  8  15  14  16  14  17  14  18  14  19  14  20   8  21   8  22   8
M  ISO  4  23   8  24   8  25   8  26   8
M  END
>  <minimizedAffinity>  (1) 
-5.03258371

>  <minimizedRMSD>  (1) 
0.386503458

$$$$
