
     RDKit          3D

 20 21  0  0  0  0  0  0  0  0999 V2000
   47.1130   34.8280   41.8150 C   0  0  0  0  0  0  0  0  0  0  0  0
   48.3340   35.4190   41.6240 C   0  0  0  0  0  0  0  0  0  0  0  0
   48.6700   35.0880   40.3280 C   0  0  0  0  0  0  0  0  0  0  0  0
   47.6370   34.3160   39.8040 C   0  0  0  0  0  0  0  0  0  0  0  0
   46.7140   34.1870   40.7510 O   0  0  0  0  0  0  0  0  0  0  0  0
   44.5890   35.8860   44.3570 C   0  0  0  0  0  0  0  0  0  0  0  0
   45.3500   35.8790   43.1590 C   0  0  0  0  0  0  0  0  0  0  0  0
   46.3100   34.8710   43.0290 C   0  0  0  0  0  0  0  0  0  0  0  0
   46.4560   33.9720   44.0400 N   0  0  0  0  0  0  0  0  0  0  0  0
   45.7080   34.0150   45.1680 C   0  0  0  0  0  0  0  0  0  0  0  0
   44.7770   34.9730   45.3230 N   0  0  0  0  0  0  0  0  0  0  0  0
   47.4490   33.6930   38.4980 C   0  0  0  0  0  0  0  0  0  0  0  0
   47.3240   32.4600   38.2550 O   0  0  0  0  0  0  0  0  0  0  0  0
   47.3800   34.4020   37.3150 O   0  0  0  0  0  0  0  0  0  0  0  0
   48.9136   36.0199   42.3402 H   0  0  0  0  0  0  0  0  0  0  0  0
   49.5904   35.3817   39.8021 H   0  0  0  0  0  0  0  0  0  0  0  0
   43.8226   36.6624   44.4981 H   0  0  0  0  0  0  0  0  0  0  0  0
   45.1921   36.6302   42.3711 H   0  0  0  0  0  0  0  0  0  0  0  0
   45.8621   33.2656   45.9583 H   0  0  0  0  0  0  0  0  0  0  0  0
   47.2511   33.9235   36.4579 H   0  0  0  0  0  0  0  0  0  0  0  0
  1  8  1  0
  2  1  2  0
  3  2  1  0
  4  3  2  0
  4  5  1  0
  5  1  1  0
  6 11  2  0
  7  6  1  0
  8  7  2  0
  8  9  1  0
  9 10  2  0
 10 11  1  0
 12  4  1  0
 13 12  2  0
 14 12  1  0
  2 15  1  0
  3 16  1  0
  6 17  1  0
  7 18  1  0
 10 19  1  0
 14 20  1  0
M  ISO  6  15  14  16  14  17  14  18  14  19  14  20   3
M  END
>  <minimizedAffinity>  (1) 
-4.95905495

>  <minimizedRMSD>  (1) 
0.268595457

$$$$
