
     RDKit          3D

 18 19  0  0  0  0  0  0  0  0999 V2000
   44.5420   36.0020   44.5210 C   0  0  0  0  0  0  0  0  0  0  0  0
   45.3000   35.9500   43.3230 C   0  0  0  0  0  0  0  0  0  0  0  0
   46.2030   34.8980   43.1930 C   0  0  0  0  0  0  0  0  0  0  0  0
   46.3170   33.9920   44.1910 N   0  0  0  0  0  0  0  0  0  0  0  0
   45.5610   34.0860   45.3290 C   0  0  0  0  0  0  0  0  0  0  0  0
   44.6780   35.0940   45.4830 N   0  0  0  0  0  0  0  0  0  0  0  0
   47.0030   34.8090   41.9710 C   0  0  0  0  0  0  0  0  0  0  0  0
   48.2190   35.4050   41.7470 C   0  0  0  0  0  0  0  0  0  0  0  0
   48.5320   35.0040   40.4490 C   0  0  0  0  0  0  0  0  0  0  0  0
   47.4990   34.2010   39.9750 C   0  0  0  0  0  0  0  0  0  0  0  0
   46.5990   34.1190   40.9410 O   0  0  0  0  0  0  0  0  0  0  0  0
   47.4070   33.5950   38.7350 O   0  0  0  0  0  0  0  0  0  0  0  0
   43.8188   36.8193   44.6585 H   0  0  0  0  0  0  0  0  0  0  0  0
   45.1799   36.7060   42.5330 H   0  0  0  0  0  0  0  0  0  0  0  0
   45.6747   33.3338   46.1235 H   0  0  0  0  0  0  0  0  0  0  0  0
   48.8037   36.0432   42.4258 H   0  0  0  0  0  0  0  0  0  0  0  0
   49.4416   35.2763   39.8935 H   0  0  0  0  0  0  0  0  0  0  0  0
   46.6165   33.0426   38.5115 H   0  0  0  0  0  0  0  0  0  0  0  0
  1  6  2  0
  2  1  1  0
  3  2  2  0
  3  4  1  0
  4  5  2  0
  5  6  1  0
  7  3  1  0
  8  7  2  0
  9  8  1  0
 10  9  2  0
 10 11  1  0
 11  7  1  0
 12 10  1  0
  1 13  1  0
  2 14  1  0
  5 15  1  0
  8 16  1  0
  9 17  1  0
 12 18  1  0
M  ISO  6  13  14  14  14  15  14  16  14  17  14  18   3
M  END
>  <minimizedAffinity>  (1) 
-4.59023905

>  <minimizedRMSD>  (1) 
0.0165014099

$$$$
