
     RDKit          3D

 37 40  0  0  0  0  0  0  0  0999 V2000
   46.8970   34.7470   41.8870 C   0  0  0  0  0  0  0  0  0  0  0  0
   48.2130   35.1360   41.6770 C   0  0  0  0  0  0  0  0  0  0  0  0
   48.4640   34.7170   40.3750 C   0  0  0  0  0  0  0  0  0  0  0  0
   47.3040   34.1090   39.8800 C   0  0  0  0  0  0  0  0  0  0  0  0
   46.3940   34.1540   40.8310 O   0  0  0  0  0  0  0  0  0  0  0  0
   47.1540   33.5510   38.5900 N   0  0  0  0  0  0  0  0  0  0  0  0
   46.3010   32.5200   38.4440 C   0  0  0  0  0  0  0  0  0  0  0  0
   46.1250   31.9380   37.2040 C   0  0  0  0  0  0  0  0  0  0  0  0
   46.8300   32.4240   36.1220 C   0  0  0  0  0  0  0  0  0  0  0  0
   46.6580   31.8830   35.0020 O   0  0  0  0  0  0  0  0  0  0  0  0
   47.6750   33.4620   36.3230 N   0  0  0  0  0  0  0  0  0  0  0  0
   47.8370   34.0230   37.5480 C   0  0  0  0  0  0  0  0  0  0  0  0
   48.6350   34.9850   37.6740 O   0  0  0  0  0  0  0  0  0  0  0  0
   45.1750   30.8050   37.1110 C   0  0  0  0  0  0  0  0  0  0  0  0
   44.4830   36.1340   44.3490 C   0  0  0  0  0  0  0  0  0  0  0  0
   45.2260   35.9890   43.1380 C   0  0  0  0  0  0  0  0  0  0  0  0
   46.1150   34.9400   43.0980 C   0  0  0  0  0  0  0  0  0  0  0  0
   46.2390   34.1210   44.1770 N   0  0  0  0  0  0  0  0  0  0  0  0
   45.5040   34.3040   45.3130 C   0  0  0  0  0  0  0  0  0  0  0  0
   44.6310   35.3120   45.3860 N   0  0  0  0  0  0  0  0  0  0  0  0
   45.6950   33.3820   46.4280 C   0  0  0  0  0  0  0  0  0  0  0  0
   46.6780   32.4190   46.4940 C   0  0  0  0  0  0  0  0  0  0  0  0
   46.5350   31.7630   47.6790 N   0  0  0  0  0  0  0  0  0  0  0  0
   45.4690   32.3400   48.3070 C   0  0  0  0  0  0  0  0  0  0  0  0
   44.9430   33.3410   47.5430 N   0  0  0  0  0  0  0  0  0  0  0  0
   48.8925   35.6509   42.3721 H   0  0  0  0  0  0  0  0  0  0  0  0
   49.4104   34.8417   39.8284 H   0  0  0  0  0  0  0  0  0  0  0  0
   45.7436   32.1407   39.3131 H   0  0  0  0  0  0  0  0  0  0  0  0
   48.2090   33.8358   35.5255 H   0  0  0  0  0  0  0  0  0  0  0  0
   44.8981   30.4747   38.1230 H   0  0  0  0  0  0  0  0  0  0  0  0
   44.2726   31.1266   36.5705 H   0  0  0  0  0  0  0  0  0  0  0  0
   45.6490   29.9725   36.5705 H   0  0  0  0  0  0  0  0  0  0  0  0
   43.7590   36.9583   44.4283 H   0  0  0  0  0  0  0  0  0  0  0  0
   45.0952   36.6750   42.2881 H   0  0  0  0  0  0  0  0  0  0  0  0
   47.4408   32.2164   45.7278 H   0  0  0  0  0  0  0  0  0  0  0  0
   45.0865   32.0393   49.2935 H   0  0  0  0  0  0  0  0  0  0  0  0
   44.1375   33.9406   47.7723 H   0  0  0  0  0  0  0  0  0  0  0  0
  1 17  1  0
  2  1  2  0
  3  2  1  0
  4  3  2  0
  4  5  1  0
  5  1  1  0
  6  4  1  0
  7  6  1  0
  8  7  2  0
  9 11  1  0
  9  8  1  0
 10  9  2  0
 11 12  1  0
 12 13  2  0
 12  6  1  0
 14  8  1  0
 15 20  2  0
 16 15  1  0
 17 16  2  0
 17 18  1  0
 18 19  2  0
 19 20  1  0
 19 21  1  0
 21 22  2  0
 21 25  1  0
 22 23  1  0
 23 24  2  0
 25 24  1  0
  2 26  1  0
  3 27  1  0
  7 28  1  0
 11 29  1  0
 14 30  1  0
 14 31  1  0
 14 32  1  0
 15 33  1  0
 16 34  1  0
 22 35  1  0
 24 36  1  0
 25 37  1  0
M  ISO  8  26  14  27  14  28  14  29   9  30   8  31   8  32   8  33  14
M  ISO  4  34  14  35  14  36  14  37   9
M  END
>  <minimizedAffinity>  (1) 
-7.60150099

>  <minimizedRMSD>  (1) 
0.165956751

$$$$
