
     RDKit          3D

 36 39  0  0  0  0  0  0  0  0999 V2000
   46.9290   34.7140   41.8890 C   0  0  0  0  0  0  0  0  0  0  0  0
   48.2080   35.1930   41.6390 C   0  0  0  0  0  0  0  0  0  0  0  0
   48.4440   34.8040   40.3240 C   0  0  0  0  0  0  0  0  0  0  0  0
   47.3110   34.1230   39.8610 C   0  0  0  0  0  0  0  0  0  0  0  0
   46.4300   34.1010   40.8510 O   0  0  0  0  0  0  0  0  0  0  0  0
   44.5080   35.9210   44.4480 C   0  0  0  0  0  0  0  0  0  0  0  0
   45.2250   35.8260   43.2050 C   0  0  0  0  0  0  0  0  0  0  0  0
   46.1830   34.8440   43.1240 C   0  0  0  0  0  0  0  0  0  0  0  0
   46.3930   34.0380   44.2000 N   0  0  0  0  0  0  0  0  0  0  0  0
   45.6980   34.1610   45.3490 C   0  0  0  0  0  0  0  0  0  0  0  0
   44.7510   35.1090   45.4700 N   0  0  0  0  0  0  0  0  0  0  0  0
   45.9890   33.2690   46.4230 N   0  0  0  0  0  0  0  0  0  0  0  0
   46.9800   32.4370   46.8020 C   0  0  0  0  0  0  0  0  0  0  0  0
   46.6140   31.8700   47.9600 N   0  0  0  0  0  0  0  0  0  0  0  0
   45.3990   32.3390   48.3160 C   0  0  0  0  0  0  0  0  0  0  0  0
   45.0260   33.2000   47.3560 N   0  0  0  0  0  0  0  0  0  0  0  0
   47.1570   33.5680   38.5670 N   0  0  0  0  0  0  0  0  0  0  0  0
   46.2910   32.5480   38.4210 C   0  0  0  0  0  0  0  0  0  0  0  0
   46.1020   31.9660   37.1830 C   0  0  0  0  0  0  0  0  0  0  0  0
   46.8070   32.4390   36.1070 C   0  0  0  0  0  0  0  0  0  0  0  0
   46.6290   31.9010   34.9820 O   0  0  0  0  0  0  0  0  0  0  0  0
   47.6620   33.4630   36.3110 N   0  0  0  0  0  0  0  0  0  0  0  0
   47.8380   34.0250   37.5300 C   0  0  0  0  0  0  0  0  0  0  0  0
   48.6510   34.9780   37.6520 O   0  0  0  0  0  0  0  0  0  0  0  0
   45.1240   30.8430   37.1120 C   0  0  0  0  0  0  0  0  0  0  0  0
   48.8742   35.7466   42.3171 H   0  0  0  0  0  0  0  0  0  0  0  0
   49.3610   34.9977   39.7482 H   0  0  0  0  0  0  0  0  0  0  0  0
   43.7317   36.6928   44.5557 H   0  0  0  0  0  0  0  0  0  0  0  0
   45.0176   36.5035   42.3636 H   0  0  0  0  0  0  0  0  0  0  0  0
   47.9193   32.2562   46.2589 H   0  0  0  0  0  0  0  0  0  0  0  0
   44.8271   32.0687   49.2159 H   0  0  0  0  0  0  0  0  0  0  0  0
   45.7312   32.1763   39.2919 H   0  0  0  0  0  0  0  0  0  0  0  0
   48.1989   33.8294   35.5121 H   0  0  0  0  0  0  0  0  0  0  0  0
   44.8510   30.5296   38.1305 H   0  0  0  0  0  0  0  0  0  0  0  0
   44.2224   31.1753   36.5766 H   0  0  0  0  0  0  0  0  0  0  0  0
   45.5770   29.9956   36.5766 H   0  0  0  0  0  0  0  0  0  0  0  0
  1  8  1  0
  2  1  2  0
  3  2  1  0
  4  3  2  0
  4  5  1  0
  5  1  1  0
  6 11  2  0
  7  6  1  0
  8  7  2  0
  8  9  1  0
  9 10  2  0
 10 11  1  0
 10 12  1  0
 12 13  1  0
 12 16  1  0
 13 14  2  0
 14 15  1  0
 16 15  2  0
 17  4  1  0
 18 17  1  0
 19 18  2  0
 20 22  1  0
 20 19  1  0
 21 20  2  0
 22 23  1  0
 23 24  2  0
 23 17  1  0
 25 19  1  0
  2 26  1  0
  3 27  1  0
  6 28  1  0
  7 29  1  0
 13 30  1  0
 15 31  1  0
 18 32  1  0
 22 33  1  0
 25 34  1  0
 25 35  1  0
 25 36  1  0
M  ISO  8  26  14  27  14  28  14  29  14  30  14  31  14  32  14  33   9
M  ISO  3  34   8  35   8  36   8
M  END
>  <minimizedAffinity>  (1) 
-7.4979496

>  <minimizedRMSD>  (1) 
0.22980614

$$$$
