
     RDKit          3D

 38 41  0  0  0  0  0  0  0  0999 V2000
   46.9960   34.7350   41.9580 C   0  0  0  0  0  0  0  0  0  0  0  0
   48.2380   35.3230   41.7210 C   0  0  0  0  0  0  0  0  0  0  0  0
   48.5110   34.9650   40.4030 C   0  0  0  0  0  0  0  0  0  0  0  0
   47.4410   34.1970   39.9310 C   0  0  0  0  0  0  0  0  0  0  0  0
   46.5540   34.0900   40.9100 O   0  0  0  0  0  0  0  0  0  0  0  0
   47.3220   33.6340   38.6370 N   0  0  0  0  0  0  0  0  0  0  0  0
   46.4990   32.5840   38.4620 C   0  0  0  0  0  0  0  0  0  0  0  0
   46.3550   32.0020   37.2200 C   0  0  0  0  0  0  0  0  0  0  0  0
   47.0730   32.5150   36.1570 C   0  0  0  0  0  0  0  0  0  0  0  0
   46.9160   31.9550   35.0410 O   0  0  0  0  0  0  0  0  0  0  0  0
   47.8730   33.5590   36.3930 N   0  0  0  0  0  0  0  0  0  0  0  0
   48.0040   34.1210   37.6180 C   0  0  0  0  0  0  0  0  0  0  0  0
   48.7770   35.1080   37.7680 O   0  0  0  0  0  0  0  0  0  0  0  0
   45.4040   30.8570   37.1390 C   0  0  0  0  0  0  0  0  0  0  0  0
   44.5640   35.8340   44.5560 C   0  0  0  0  0  0  0  0  0  0  0  0
   45.2960   35.7880   43.3280 C   0  0  0  0  0  0  0  0  0  0  0  0
   46.2440   34.8000   43.1950 C   0  0  0  0  0  0  0  0  0  0  0  0
   46.4180   33.9520   44.2160 N   0  0  0  0  0  0  0  0  0  0  0  0
   45.7240   34.0020   45.3690 C   0  0  0  0  0  0  0  0  0  0  0  0
   44.7880   34.9550   45.5380 N   0  0  0  0  0  0  0  0  0  0  0  0
   45.9680   33.0450   46.4370 C   0  0  0  0  0  0  0  0  0  0  0  0
   47.0100   32.1460   46.3520 C   0  0  0  0  0  0  0  0  0  0  0  0
   47.2300   31.2440   47.3720 C   0  0  0  0  0  0  0  0  0  0  0  0
   46.4150   31.2520   48.4520 N   0  0  0  0  0  0  0  0  0  0  0  0
   45.4190   32.1270   48.5110 C   0  0  0  0  0  0  0  0  0  0  0  0
   45.1840   33.0150   47.5300 N   0  0  0  0  0  0  0  0  0  0  0  0
   48.8526   35.9235   42.4078 H   0  0  0  0  0  0  0  0  0  0  0  0
   49.4109   35.2384   39.8326 H   0  0  0  0  0  0  0  0  0  0  0  0
   45.9352   32.1857   39.3184 H   0  0  0  0  0  0  0  0  0  0  0  0
   48.4131   33.9531   35.6095 H   0  0  0  0  0  0  0  0  0  0  0  0
   45.1341   30.5320   38.1546 H   0  0  0  0  0  0  0  0  0  0  0  0
   44.4972   31.1709   36.6013 H   0  0  0  0  0  0  0  0  0  0  0  0
   45.8790   30.0232   36.6013 H   0  0  0  0  0  0  0  0  0  0  0  0
   43.7983   36.6113   44.6957 H   0  0  0  0  0  0  0  0  0  0  0  0
   45.1085   36.5133   42.5225 H   0  0  0  0  0  0  0  0  0  0  0  0
   47.6667   32.1482   45.4695 H   0  0  0  0  0  0  0  0  0  0  0  0
   48.0601   30.5250   47.3081 H   0  0  0  0  0  0  0  0  0  0  0  0
   44.7628   32.1254   49.3938 H   0  0  0  0  0  0  0  0  0  0  0  0
  1 17  1  0
  2  1  2  0
  3  2  1  0
  4  3  2  0
  4  5  1  0
  5  1  1  0
  6  4  1  0
  7  6  1  0
  8  7  2  0
  9 11  1  0
  9  8  1  0
 10  9  2  0
 11 12  1  0
 12 13  2  0
 12  6  1  0
 14  8  1  0
 15 20  2  0
 16 15  1  0
 17 16  2  0
 17 18  1  0
 18 19  2  0
 19 20  1  0
 19 21  1  0
 21 26  1  0
 22 21  2  0
 22 23  1  0
 23 24  2  0
 24 25  1  0
 26 25  2  0
  2 27  1  0
  3 28  1  0
  7 29  1  0
 11 30  1  0
 14 31  1  0
 14 32  1  0
 14 33  1  0
 15 34  1  0
 16 35  1  0
 22 36  1  0
 23 37  1  0
 25 38  1  0
M  ISO  8  27  14  28  14  29  14  30   9  31   8  32   8  33   8  34  14
M  ISO  4  35  14  36  14  37  14  38  14
M  END
>  <minimizedAffinity>  (1) 
-7.39895582

>  <minimizedRMSD>  (1) 
0.379375696

$$$$
