
     RDKit          3D

 46 49  0  0  0  0  0  0  0  0999 V2000
   47.0220   34.5850   42.0950 C   0  0  0  0  0  0  0  0  0  0  0  0
   48.2010   35.2450   41.7920 C   0  0  0  0  0  0  0  0  0  0  0  0
   48.4060   34.9510   40.4490 C   0  0  0  0  0  0  0  0  0  0  0  0
   47.3500   34.1380   40.0210 C   0  0  0  0  0  0  0  0  0  0  0  0
   46.5420   33.9490   41.0590 O   0  0  0  0  0  0  0  0  0  0  0  0
   47.1880   33.6200   38.7120 N   0  0  0  0  0  0  0  0  0  0  0  0
   46.2910   32.6330   38.5340 C   0  0  0  0  0  0  0  0  0  0  0  0
   46.0900   32.0870   37.2850 C   0  0  0  0  0  0  0  0  0  0  0  0
   46.8280   32.5720   36.2140 C   0  0  0  0  0  0  0  0  0  0  0  0
   46.6280   32.0600   35.0860 O   0  0  0  0  0  0  0  0  0  0  0  0
   47.7110   33.5610   36.4570 N   0  0  0  0  0  0  0  0  0  0  0  0
   47.8890   34.0800   37.6940 C   0  0  0  0  0  0  0  0  0  0  0  0
   48.7330   35.0020   37.8430 O   0  0  0  0  0  0  0  0  0  0  0  0
   45.0780   31.0010   37.1710 C   0  0  0  0  0  0  0  0  0  0  0  0
   44.6710   35.3630   44.8770 C   0  0  0  0  0  0  0  0  0  0  0  0
   45.3110   35.4330   43.6000 C   0  0  0  0  0  0  0  0  0  0  0  0
   46.3450   34.5570   43.3750 C   0  0  0  0  0  0  0  0  0  0  0  0
   46.6900   33.6920   44.3670 N   0  0  0  0  0  0  0  0  0  0  0  0
   46.0640   33.6560   45.5600 C   0  0  0  0  0  0  0  0  0  0  0  0
   45.0540   34.4900   45.8200 N   0  0  0  0  0  0  0  0  0  0  0  0
   46.4540   32.7030   46.6350 C   0  0  0  0  0  0  0  0  0  0  0  0
   46.4960   31.3060   46.0690 C   0  0  0  0  0  0  0  0  0  0  0  0
   46.7080   30.3550   47.2210 C   0  0  0  0  0  0  0  0  0  0  0  0
   45.4180   30.2970   48.0040 C   0  0  0  0  0  0  0  0  0  0  0  0
   44.7260   31.6210   48.1310 C   0  0  0  0  0  0  0  0  0  0  0  0
   45.5810   32.8120   47.8490 C   0  0  0  0  0  0  0  0  0  0  0  0
   48.8275   35.8574   42.4571 H   0  0  0  0  0  0  0  0  0  0  0  0
   49.2487   35.2961   39.8319 H   0  0  0  0  0  0  0  0  0  0  0  0
   45.7136   32.2591   39.3924 H   0  0  0  0  0  0  0  0  0  0  0  0
   48.2686   33.9340   35.6754 H   0  0  0  0  0  0  0  0  0  0  0  0
   44.7746   30.6754   38.1770 H   0  0  0  0  0  0  0  0  0  0  0  0
   44.1988   31.3749   36.6259 H   0  0  0  0  0  0  0  0  0  0  0  0
   45.5129   30.1503   36.6259 H   0  0  0  0  0  0  0  0  0  0  0  0
   43.8374   36.0476   45.0927 H   0  0  0  0  0  0  0  0  0  0  0  0
   44.9904   36.1544   42.8340 H   0  0  0  0  0  0  0  0  0  0  0  0
   47.4612   32.9665   46.9900 H   0  0  0  0  0  0  0  0  0  0  0  0
   45.5463   31.0772   45.5632 H   0  0  0  0  0  0  0  0  0  0  0  0
   47.3087   31.2106   45.3338 H   0  0  0  0  0  0  0  0  0  0  0  0
   46.9619   29.3546   46.8405 H   0  0  0  0  0  0  0  0  0  0  0  0
   47.5346   30.6986   47.8604 H   0  0  0  0  0  0  0  0  0  0  0  0
   44.7367   29.5969   47.4983 H   0  0  0  0  0  0  0  0  0  0  0  0
   45.6764   29.9721   49.0226 H   0  0  0  0  0  0  0  0  0  0  0  0
   43.8815   31.6332   47.4262 H   0  0  0  0  0  0  0  0  0  0  0  0
   44.4191   31.7065   49.1838 H   0  0  0  0  0  0  0  0  0  0  0  0
   46.2310   32.9774   48.7209 H   0  0  0  0  0  0  0  0  0  0  0  0
   44.8880   33.6429   47.6508 H   0  0  0  0  0  0  0  0  0  0  0  0
  1 17  1  0
  2  1  2  0
  3  2  1  0
  4  3  2  0
  4  5  1  0
  5  1  1  0
  6  4  1  0
  7  6  1  0
  8  7  2  0
  9 11  1  0
  9  8  1  0
 10  9  2  0
 11 12  1  0
 12 13  2  0
 12  6  1  0
 14  8  1  0
 15 20  2  0
 16 15  1  0
 17 16  2  0
 17 18  1  0
 18 19  2  0
 19 20  1  0
 19 21  1  0
 21 26  1  0
 22 21  1  0
 22 23  1  0
 23 24  1  0
 24 25  1  0
 26 25  1  0
  2 27  1  0
  3 28  1  0
  7 29  1  0
 11 30  1  0
 14 31  1  0
 14 32  1  0
 14 33  1  0
 15 34  1  0
 16 35  1  0
 21 36  1  0
 22 37  1  0
 22 38  1  0
 23 39  1  0
 23 40  1  0
 24 41  1  0
 24 42  1  0
 25 43  1  0
 25 44  1  0
 26 45  1  0
 26 46  1  0
M  ISO  8  27  14  28  14  29  14  30   9  31   8  32   8  33   8  34  14
M  ISO  8  35  14  36  13  37  13  38  13  39  13  40  13  41  13  42  13
M  ISO  4  43  13  44  13  45  13  46  13
M  END
>  <minimizedAffinity>  (1) 
-7.28212118

>  <minimizedRMSD>  (1) 
0.740176141

$$$$
