
     RDKit          3D

 33 35  0  0  0  0  0  0  0  0999 V2000
   46.8840   34.7440   41.9150 C   0  0  0  0  0  0  0  0  0  0  0  0
   48.1930   35.1360   41.6990 C   0  0  0  0  0  0  0  0  0  0  0  0
   48.4450   34.7170   40.3920 C   0  0  0  0  0  0  0  0  0  0  0  0
   47.3090   34.1100   39.9010 C   0  0  0  0  0  0  0  0  0  0  0  0
   46.3860   34.1520   40.8670 O   0  0  0  0  0  0  0  0  0  0  0  0
   47.1290   33.5430   38.6170 N   0  0  0  0  0  0  0  0  0  0  0  0
   46.2650   32.5310   38.4590 C   0  0  0  0  0  0  0  0  0  0  0  0
   46.0650   31.9680   37.2220 C   0  0  0  0  0  0  0  0  0  0  0  0
   46.7620   32.4560   36.1430 C   0  0  0  0  0  0  0  0  0  0  0  0
   46.5650   31.9290   35.0190 O   0  0  0  0  0  0  0  0  0  0  0  0
   47.6200   33.4720   36.3510 N   0  0  0  0  0  0  0  0  0  0  0  0
   47.8080   34.0170   37.5710 C   0  0  0  0  0  0  0  0  0  0  0  0
   48.6310   34.9710   37.6980 O   0  0  0  0  0  0  0  0  0  0  0  0
   45.0930   30.8420   37.1370 C   0  0  0  0  0  0  0  0  0  0  0  0
   44.5120   36.1780   44.3980 C   0  0  0  0  0  0  0  0  0  0  0  0
   45.2630   36.0150   43.1940 C   0  0  0  0  0  0  0  0  0  0  0  0
   46.1100   34.9350   43.1250 C   0  0  0  0  0  0  0  0  0  0  0  0
   46.1840   34.1000   44.1860 N   0  0  0  0  0  0  0  0  0  0  0  0
   45.4720   34.2670   45.3150 C   0  0  0  0  0  0  0  0  0  0  0  0
   44.6220   35.3180   45.4270 N   0  0  0  0  0  0  0  0  0  0  0  0
   45.6050   33.3220   46.4200 C   0  0  0  0  0  0  0  0  0  0  0  0
   46.4380   32.3810   46.3400 O   0  0  0  0  0  0  0  0  0  0  0  0
   44.8090   33.4750   47.5470 O   0  0  0  0  0  0  0  0  0  0  0  0
   48.8726   35.6540   42.3917 H   0  0  0  0  0  0  0  0  0  0  0  0
   49.3906   34.8489   39.8457 H   0  0  0  0  0  0  0  0  0  0  0  0
   45.7106   32.1474   39.3282 H   0  0  0  0  0  0  0  0  0  0  0  0
   48.1511   33.8462   35.5518 H   0  0  0  0  0  0  0  0  0  0  0  0
   44.8151   30.5201   38.1515 H   0  0  0  0  0  0  0  0  0  0  0  0
   44.1933   31.1742   36.5984 H   0  0  0  0  0  0  0  0  0  0  0  0
   45.5530   30.0004   36.5984 H   0  0  0  0  0  0  0  0  0  0  0  0
   43.8237   37.0314   44.4866 H   0  0  0  0  0  0  0  0  0  0  0  0
   45.1675   36.7235   42.3580 H   0  0  0  0  0  0  0  0  0  0  0  0
   44.8918   32.8394   48.3015 H   0  0  0  0  0  0  0  0  0  0  0  0
  1 17  1  0
  2  1  2  0
  3  2  1  0
  4  3  2  0
  4  5  1  0
  5  1  1  0
  6  4  1  0
  7  6  1  0
  8  7  2  0
  9 11  1  0
  9  8  1  0
 10  9  2  0
 11 12  1  0
 12 13  2  0
 12  6  1  0
 14  8  1  0
 15 20  2  0
 16 15  1  0
 17 16  2  0
 17 18  1  0
 18 19  2  0
 19 20  1  0
 19 21  1  0
 21 23  1  0
 22 21  2  0
  2 24  1  0
  3 25  1  0
  7 26  1  0
 11 27  1  0
 14 28  1  0
 14 29  1  0
 14 30  1  0
 15 31  1  0
 16 32  1  0
 23 33  1  0
M  ISO  8  24  14  25  14  26  14  27   9  28   8  29   8  30   8  31  14
M  ISO  2  32  14  33   3
M  END
>  <minimizedAffinity>  (1) 
-6.97424793

>  <minimizedRMSD>  (1) 
0.231898099

$$$$
