
     RDKit          3D

 31 33  0  0  0  0  0  0  0  0999 V2000
   46.9360   34.7240   41.8680 C   0  0  0  0  0  0  0  0  0  0  0  0
   48.2080   35.2110   41.6230 C   0  0  0  0  0  0  0  0  0  0  0  0
   48.4570   34.8220   40.3020 C   0  0  0  0  0  0  0  0  0  0  0  0
   47.3320   34.1320   39.8370 C   0  0  0  0  0  0  0  0  0  0  0  0
   46.4590   34.1110   40.8240 O   0  0  0  0  0  0  0  0  0  0  0  0
   47.1790   33.5710   38.5450 N   0  0  0  0  0  0  0  0  0  0  0  0
   46.3160   32.5510   38.4010 C   0  0  0  0  0  0  0  0  0  0  0  0
   46.1180   31.9600   37.1800 C   0  0  0  0  0  0  0  0  0  0  0  0
   46.8320   32.4430   36.0880 C   0  0  0  0  0  0  0  0  0  0  0  0
   46.6470   31.8980   34.9700 O   0  0  0  0  0  0  0  0  0  0  0  0
   47.6880   33.4740   36.2910 N   0  0  0  0  0  0  0  0  0  0  0  0
   47.8600   34.0360   37.5150 C   0  0  0  0  0  0  0  0  0  0  0  0
   48.6670   34.9900   37.6420 O   0  0  0  0  0  0  0  0  0  0  0  0
   45.1490   30.8390   37.0960 C   0  0  0  0  0  0  0  0  0  0  0  0
   44.5680   35.9750   44.4440 C   0  0  0  0  0  0  0  0  0  0  0  0
   45.2870   35.8860   43.2150 C   0  0  0  0  0  0  0  0  0  0  0  0
   46.1850   34.8520   43.1020 C   0  0  0  0  0  0  0  0  0  0  0  0
   46.3140   34.0160   44.1400 N   0  0  0  0  0  0  0  0  0  0  0  0
   45.6270   34.1120   45.2970 C   0  0  0  0  0  0  0  0  0  0  0  0
   44.7400   35.1120   45.4430 N   0  0  0  0  0  0  0  0  0  0  0  0
   46.0150   32.8480   46.5050 S   0  0  0  0  0  0  0  0  0  0  0  0
   48.8662   35.7704   42.3041 H   0  0  0  0  0  0  0  0  0  0  0  0
   49.3749   35.0231   39.7302 H   0  0  0  0  0  0  0  0  0  0  0  0
   45.7598   32.1846   39.2765 H   0  0  0  0  0  0  0  0  0  0  0  0
   48.2243   33.8424   35.4925 H   0  0  0  0  0  0  0  0  0  0  0  0
   44.8712   30.5176   38.1107 H   0  0  0  0  0  0  0  0  0  0  0  0
   44.2493   31.1716   36.5575 H   0  0  0  0  0  0  0  0  0  0  0  0
   45.6083   29.9969   36.5575 H   0  0  0  0  0  0  0  0  0  0  0  0
   43.8412   36.7907   44.5715 H   0  0  0  0  0  0  0  0  0  0  0  0
   45.1306   36.6079   42.3999 H   0  0  0  0  0  0  0  0  0  0  0  0
   45.8583   33.3586   47.7666 H   0  0  0  0  0  0  0  0  0  0  0  0
  1 17  1  0
  2  1  2  0
  3  2  1  0
  4  3  2  0
  4  5  1  0
  5  1  1  0
  6  4  1  0
  7  6  1  0
  8  7  2  0
  9 11  1  0
  9  8  1  0
 10  9  2  0
 11 12  1  0
 12 13  2  0
 12  6  1  0
 14  8  1  0
 15 20  2  0
 16 15  1  0
 17 16  2  0
 17 18  1  0
 18 19  2  0
 19 20  1  0
 19 21  1  0
  2 22  1  0
  3 23  1  0
  7 24  1  0
 11 25  1  0
 14 26  1  0
 14 27  1  0
 14 28  1  0
 15 29  1  0
 16 30  1  0
 21 31  1  0
M  ISO  8  22  14  23  14  24  14  25   9  26   8  27   8  28   8  29  14
M  ISO  2  30  14  31  11
M  END
>  <minimizedAffinity>  (1) 
-6.41597509

>  <minimizedRMSD>  (1) 
0.053624168

$$$$
