
     RDKit          3D

 24 26  0  0  0  0  0  0  0  0999 V2000
   44.7460   35.1660   45.5820 C   0  0  0  0  0  0  0  0  0  0  0  0
   44.4300   35.8860   44.4290 C   0  0  0  0  0  0  0  0  0  0  0  0
   44.9610   35.4230   43.2190 C   0  0  0  0  0  0  0  0  0  0  0  0
   45.7420   34.3210   43.2170 N   0  0  0  0  0  0  0  0  0  0  0  0
   46.0310   33.6380   44.3580 C   0  0  0  0  0  0  0  0  0  0  0  0
   45.5290   34.0720   45.5170 N   0  0  0  0  0  0  0  0  0  0  0  0
   46.8480   32.4830   44.3600 N   0  0  0  0  0  0  0  0  0  0  0  0
   47.6960   32.3220   43.3140 C   0  0  0  0  0  0  0  0  0  0  0  0
   48.3780   31.1280   43.5460 C   0  0  0  0  0  0  0  0  0  0  0  0
   47.9370   30.6020   44.7040 N   0  0  0  0  0  0  0  0  0  0  0  0
   47.0110   31.4260   45.1910 C   0  0  0  0  0  0  0  0  0  0  0  0
   46.2180   31.3720   46.3730 N   0  0  0  0  0  0  0  0  0  0  0  0
   45.6180   30.3770   47.0320 N   0  0  0  0  0  0  0  0  0  0  0  0
   44.9820   30.8510   48.1080 C   0  0  0  0  0  0  0  0  0  0  0  0
   45.1980   32.2270   48.1220 C   0  0  0  0  0  0  0  0  0  0  0  0
   45.9830   32.5340   47.0140 C   0  0  0  0  0  0  0  0  0  0  0  0
   44.3513   35.4955   46.5544 H   0  0  0  0  0  0  0  0  0  0  0  0
   43.7904   36.7800   44.4691 H   0  0  0  0  0  0  0  0  0  0  0  0
   44.7442   35.9516   42.2790 H   0  0  0  0  0  0  0  0  0  0  0  0
   47.8208   32.9977   42.4550 H   0  0  0  0  0  0  0  0  0  0  0  0
   49.1469   30.6897   42.8927 H   0  0  0  0  0  0  0  0  0  0  0  0
   44.4019   30.2686   48.8390 H   0  0  0  0  0  0  0  0  0  0  0  0
   44.8187   32.9390   48.8698 H   0  0  0  0  0  0  0  0  0  0  0  0
   46.3417   33.5312   46.7190 H   0  0  0  0  0  0  0  0  0  0  0  0
  2  1  2  0
  3  2  1  0
  4  3  2  0
  4  5  1  0
  5  7  1  0
  5  6  2  0
  6  1  1  0
  7 11  1  0
  8  9  2  0
  8  7  1  0
  9 10  1  0
 10 11  2  0
 11 12  1  0
 12 16  1  0
 12 13  1  0
 13 14  2  0
 14 15  1  0
 16 15  2  0
  1 17  1  0
  2 18  1  0
  3 19  1  0
  8 20  1  0
  9 21  1  0
 14 22  1  0
 15 23  1  0
 16 24  1  0
M  ISO  8  17  14  18  14  19  14  20  14  21  14  22  14  23  14  24  14
M  END
>  <minimizedAffinity>  (1) 
-4.87002802

>  <minimizedRMSD>  (1) 
3.15154147

$$$$
