
     RDKit          3D

 38 41  0  0  0  0  0  0  0  0999 V2000
   46.8940   34.7340   41.9070 C   0  0  0  0  0  0  0  0  0  0  0  0
   48.1940   35.1850   41.6820 C   0  0  0  0  0  0  0  0  0  0  0  0
   48.4460   34.7940   40.3750 C   0  0  0  0  0  0  0  0  0  0  0  0
   47.3060   34.1410   39.8920 C   0  0  0  0  0  0  0  0  0  0  0  0
   46.4040   34.1320   40.8500 O   0  0  0  0  0  0  0  0  0  0  0  0
   44.5010   36.0330   44.4360 C   0  0  0  0  0  0  0  0  0  0  0  0
   45.2350   35.9150   43.2160 C   0  0  0  0  0  0  0  0  0  0  0  0
   46.1330   34.8830   43.1290 C   0  0  0  0  0  0  0  0  0  0  0  0
   46.2720   34.0440   44.1910 N   0  0  0  0  0  0  0  0  0  0  0  0
   45.5660   34.1770   45.3310 C   0  0  0  0  0  0  0  0  0  0  0  0
   44.6750   35.1740   45.4590 N   0  0  0  0  0  0  0  0  0  0  0  0
   45.8360   33.2050   46.3440 N   0  0  0  0  0  0  0  0  0  0  0  0
   45.1840   33.1630   47.5120 N   0  0  0  0  0  0  0  0  0  0  0  0
   45.6560   32.1440   48.2550 C   0  0  0  0  0  0  0  0  0  0  0  0
   46.6580   31.5030   47.5250 C   0  0  0  0  0  0  0  0  0  0  0  0
   46.7450   32.1980   46.3270 C   0  0  0  0  0  0  0  0  0  0  0  0
   47.1600   33.5900   38.5950 N   0  0  0  0  0  0  0  0  0  0  0  0
   46.2950   32.5750   38.4320 C   0  0  0  0  0  0  0  0  0  0  0  0
   46.1080   31.9930   37.2090 C   0  0  0  0  0  0  0  0  0  0  0  0
   46.8210   32.4610   36.1280 C   0  0  0  0  0  0  0  0  0  0  0  0
   46.6410   31.9180   35.0090 O   0  0  0  0  0  0  0  0  0  0  0  0
   47.6910   33.4970   36.3420 N   0  0  0  0  0  0  0  0  0  0  0  0
   47.8490   34.0440   37.5630 C   0  0  0  0  0  0  0  0  0  0  0  0
   48.6660   34.9950   37.6880 O   0  0  0  0  0  0  0  0  0  0  0  0
   45.1390   30.8680   37.1090 C   0  0  0  0  0  0  0  0  0  0  0  0
   46.0590   29.3540   37.5840 S   0  0  0  0  0  0  0  0  0  0  0  0
   48.8596   35.7216   42.3742 H   0  0  0  0  0  0  0  0  0  0  0  0
   49.3778   34.9668   39.8165 H   0  0  0  0  0  0  0  0  0  0  0  0
   43.7720   36.8497   44.5432 H   0  0  0  0  0  0  0  0  0  0  0  0
   45.0864   36.6199   42.3847 H   0  0  0  0  0  0  0  0  0  0  0  0
   45.3118   31.8653   49.2619 H   0  0  0  0  0  0  0  0  0  0  0  0
   47.2531   30.6310   47.8340 H   0  0  0  0  0  0  0  0  0  0  0  0
   47.4356   31.9705   45.5016 H   0  0  0  0  0  0  0  0  0  0  0  0
   45.7268   32.2054   39.2984 H   0  0  0  0  0  0  0  0  0  0  0  0
   48.2373   33.8666   35.5509 H   0  0  0  0  0  0  0  0  0  0  0  0
   44.2939   31.0310   37.7940 H   0  0  0  0  0  0  0  0  0  0  0  0
   44.7272   30.7837   36.0925 H   0  0  0  0  0  0  0  0  0  0  0  0
   46.1143   29.2629   38.9498 H   0  0  0  0  0  0  0  0  0  0  0  0
  1  8  1  0
  2  1  2  0
  3  2  1  0
  4  3  2  0
  4  5  1  0
  5  1  1  0
  6 11  2  0
  7  6  1  0
  8  7  2  0
  8  9  1  0
  9 10  2  0
 10 11  1  0
 10 12  1  0
 12 13  1  0
 13 14  2  0
 15 14  1  0
 16 12  1  0
 16 15  2  0
 17  4  1  0
 18 17  1  0
 19 18  2  0
 20 22  1  0
 20 19  1  0
 21 20  2  0
 22 23  1  0
 23 24  2  0
 23 17  1  0
 25 19  1  0
 25 26  1  0
  2 27  1  0
  3 28  1  0
  6 29  1  0
  7 30  1  0
 14 31  1  0
 15 32  1  0
 16 33  1  0
 18 34  1  0
 22 35  1  0
 25 36  1  0
 25 37  1  0
 26 38  1  0
M  ISO  8  27  14  28  14  29  14  30  14  31  14  32  14  33  14  34  14
M  ISO  4  35   9  36   8  37   8  38  11
M  END
>  <minimizedAffinity>  (1) 
-7.20260859

>  <minimizedRMSD>  (1) 
0.11894238

$$$$
