
     RDKit          3D

 35 36  0  0  0  0  0  0  0  0999 V2000
   48.7280   34.5420   41.7670 C   0  0  0  0  0  0  0  0  0  0  0  0
   46.2880   33.5810   44.5400 C   0  0  0  0  0  0  0  0  0  0  0  0
   47.4400   33.5300   43.7300 C   0  0  0  0  0  0  0  0  0  0  0  0
   47.5590   34.4900   42.6930 C   0  0  0  0  0  0  0  0  0  0  0  0
   46.5590   35.3980   42.5420 N   0  0  0  0  0  0  0  0  0  0  0  0
   45.4660   35.4120   43.3440 C   0  0  0  0  0  0  0  0  0  0  0  0
   45.3330   34.5120   44.3340 N   0  0  0  0  0  0  0  0  0  0  0  0
   49.9350   34.0910   42.5780 C   0  0  0  0  0  0  0  0  0  0  0  0
   49.0000   35.9910   41.4640 C   0  0  0  0  0  0  0  0  0  0  0  0
   48.5800   33.7640   40.5410 C   0  0  0  0  0  0  0  0  0  0  0  0
   47.6000   34.1270   39.5120 C   0  0  0  0  0  0  0  0  0  0  0  0
   46.5870   33.1280   39.1070 C   0  0  0  0  0  0  0  0  0  0  0  0
   46.4710   33.2610   37.5800 C   0  0  0  0  0  0  0  0  0  0  0  0
   47.9390   33.3400   37.2350 C   0  0  0  0  0  0  0  0  0  0  0  0
   48.3920   34.4000   38.2260 C   0  0  0  0  0  0  0  0  0  0  0  0
   46.1652   32.8504   45.3531 H   0  0  0  0  0  0  0  0  0  0  0  0
   48.2197   32.7721   43.8963 H   0  0  0  0  0  0  0  0  0  0  0  0
   44.6814   36.1660   43.1834 H   0  0  0  0  0  0  0  0  0  0  0  0
   49.7082   34.1757   43.6510 H   0  0  0  0  0  0  0  0  0  0  0  0
   50.1701   33.0444   42.3345 H   0  0  0  0  0  0  0  0  0  0  0  0
   50.7988   34.7270   42.3345 H   0  0  0  0  0  0  0  0  0  0  0  0
   49.1048   36.5492   42.4060 H   0  0  0  0  0  0  0  0  0  0  0  0
   49.9297   36.0757   40.8823 H   0  0  0  0  0  0  0  0  0  0  0  0
   48.1643   36.4071   40.8823 H   0  0  0  0  0  0  0  0  0  0  0  0
   49.5635   33.7726   40.0484 H   0  0  0  0  0  0  0  0  0  0  0  0
   48.1835   32.8089   40.9159 H   0  0  0  0  0  0  0  0  0  0  0  0
   47.0429   34.9579   39.9694 H   0  0  0  0  0  0  0  0  0  0  0  0
   46.9148   32.1144   39.3813 H   0  0  0  0  0  0  0  0  0  0  0  0
   45.6221   33.2977   39.6071 H   0  0  0  0  0  0  0  0  0  0  0  0
   45.9876   32.3837   37.1255 H   0  0  0  0  0  0  0  0  0  0  0  0
   45.8566   34.1014   37.2246 H   0  0  0  0  0  0  0  0  0  0  0  0
   48.4493   32.3802   37.4035 H   0  0  0  0  0  0  0  0  0  0  0  0
   48.1534   33.5720   36.1813 H   0  0  0  0  0  0  0  0  0  0  0  0
   49.4722   34.3130   38.4144 H   0  0  0  0  0  0  0  0  0  0  0  0
   48.2130   35.4164   37.8454 H   0  0  0  0  0  0  0  0  0  0  0  0
  1  8  1  0
  1  4  1  0
  3  2  2  0
  4  3  1  0
  5  4  2  0
  5  6  1  0
  6  7  2  0
  7  2  1  0
  9  1  1  0
 10  1  1  0
 11 10  1  0
 12 11  1  0
 13 12  1  0
 14 13  1  0
 14 15  1  0
 15 11  1  0
  2 16  1  0
  3 17  1  0
  6 18  1  0
  8 19  1  0
  8 20  1  0
  8 21  1  0
  9 22  1  0
  9 23  1  0
  9 24  1  0
 10 25  1  0
 10 26  1  0
 11 27  1  0
 12 28  1  0
 12 29  1  0
 13 30  1  0
 13 31  1  0
 14 32  1  0
 14 33  1  0
 15 34  1  0
 15 35  1  0
M  ISO  8  16  14  17  14  18  14  19   8  20   8  21   8  22   8  23   8
M  ISO  8  24   8  25   8  26   8  27  13  28  13  29  13  30  13  31  13
M  ISO  4  32  13  33  13  34  13  35  13
M  END
>  <minimizedAffinity>  (1) 
-4.64530563

>  <minimizedRMSD>  (1) 
2.94555545

$$$$
