
     RDKit          3D

 27 28  0  0  0  0  0  0  0  0999 V2000
   48.6220   34.3680   41.9110 C   0  0  0  0  0  0  0  0  0  0  0  0
   45.3370   35.2500   43.6160 C   0  0  0  0  0  0  0  0  0  0  0  0
   46.3870   35.3100   42.6860 C   0  0  0  0  0  0  0  0  0  0  0  0
   47.4670   34.4090   42.8150 C   0  0  0  0  0  0  0  0  0  0  0  0
   47.4190   33.5230   43.8520 N   0  0  0  0  0  0  0  0  0  0  0  0
   46.3930   33.4840   44.7370 C   0  0  0  0  0  0  0  0  0  0  0  0
   45.3590   34.3440   44.6190 N   0  0  0  0  0  0  0  0  0  0  0  0
   48.9420   32.9160   41.6360 C   0  0  0  0  0  0  0  0  0  0  0  0
   49.8260   34.9430   42.6200 C   0  0  0  0  0  0  0  0  0  0  0  0
   48.4340   35.1330   40.6330 C   0  0  0  0  0  0  0  0  0  0  0  0
   47.7320   34.2980   39.6230 C   0  0  0  0  0  0  0  0  0  0  0  0
   48.3110   34.3380   38.3880 N   0  0  0  0  0  0  0  0  0  0  0  0
   47.6220   33.5770   37.5830 O   0  0  0  0  0  0  0  0  0  0  0  0
   46.6290   33.0430   38.2210 C   0  0  0  0  0  0  0  0  0  0  0  0
   46.6750   33.4750   39.4920 N   0  0  0  0  0  0  0  0  0  0  0  0
   44.4896   35.9458   43.5278 H   0  0  0  0  0  0  0  0  0  0  0  0
   46.3689   36.0471   41.8697 H   0  0  0  0  0  0  0  0  0  0  0  0
   46.4029   32.7485   45.5549 H   0  0  0  0  0  0  0  0  0  0  0  0
   49.0602   32.3797   42.5891 H   0  0  0  0  0  0  0  0  0  0  0  0
   48.1222   32.4627   41.0594 H   0  0  0  0  0  0  0  0  0  0  0  0
   49.8764   32.8493   41.0594 H   0  0  0  0  0  0  0  0  0  0  0  0
   49.6790   34.8728   43.7079 H   0  0  0  0  0  0  0  0  0  0  0  0
   50.7248   34.3769   42.3341 H   0  0  0  0  0  0  0  0  0  0  0  0
   49.9507   35.9979   42.3341 H   0  0  0  0  0  0  0  0  0  0  0  0
   47.8367   36.0343   40.8355 H   0  0  0  0  0  0  0  0  0  0  0  0
   49.4218   35.4126   40.2379 H   0  0  0  0  0  0  0  0  0  0  0  0
   45.8807   32.3573   37.7970 H   0  0  0  0  0  0  0  0  0  0  0  0
  1  9  1  0
  1  4  1  0
  2  7  2  0
  3  4  2  0
  3  2  1  0
  4  5  1  0
  5  6  2  0
  7  6  1  0
  8  1  1  0
 10  1  1  0
 11 10  1  0
 12 11  2  0
 13 14  1  0
 13 12  1  0
 14 15  2  0
 15 11  1  0
  2 16  1  0
  3 17  1  0
  6 18  1  0
  8 19  1  0
  8 20  1  0
  8 21  1  0
  9 22  1  0
  9 23  1  0
  9 24  1  0
 10 25  1  0
 10 26  1  0
 14 27  1  0
M  ISO  8  16  14  17  14  18  14  19   8  20   8  21   8  22   8  23   8
M  ISO  4  24   8  25   8  26   8  27  14
M  END
>  <minimizedAffinity>  (1) 
-4.41058064

>  <minimizedRMSD>  (1) 
4.0139327

$$$$
