
     RDKit          3D

 29 30  0  0  0  0  0  0  0  0999 V2000
   48.1470   33.9410   41.1990 C   0  0  0  0  0  0  0  0  0  0  0  0
   46.8440   32.6590   37.8630 C   0  0  0  0  0  0  0  0  0  0  0  0
   47.0260   32.7360   39.2620 C   0  0  0  0  0  0  0  0  0  0  0  0
   47.8740   33.7500   39.7700 C   0  0  0  0  0  0  0  0  0  0  0  0
   48.4690   34.5990   38.8740 N   0  0  0  0  0  0  0  0  0  0  0  0
   48.2640   34.4870   37.5350 C   0  0  0  0  0  0  0  0  0  0  0  0
   47.4600   33.5250   37.0420 N   0  0  0  0  0  0  0  0  0  0  0  0
   48.3750   35.4180   41.4370 C   0  0  0  0  0  0  0  0  0  0  0  0
   49.4320   33.2390   41.5570 C   0  0  0  0  0  0  0  0  0  0  0  0
   47.0760   33.4230   42.1110 C   0  0  0  0  0  0  0  0  0  0  0  0
   46.0190   34.3610   42.3400 N   0  0  0  0  0  0  0  0  0  0  0  0
   45.0760   34.7670   41.4870 N   0  0  0  0  0  0  0  0  0  0  0  0
   44.2690   35.6660   42.1110 C   0  0  0  0  0  0  0  0  0  0  0  0
   44.7560   35.7950   43.3840 C   0  0  0  0  0  0  0  0  0  0  0  0
   45.8600   34.9810   43.5470 C   0  0  0  0  0  0  0  0  0  0  0  0
   46.1904   31.8810   37.4416 H   0  0  0  0  0  0  0  0  0  0  0  0
   46.5232   32.0283   39.9375 H   0  0  0  0  0  0  0  0  0  0  0  0
   48.7592   35.1884   36.8474 H   0  0  0  0  0  0  0  0  0  0  0  0
   48.4054   35.6147   42.5189 H   0  0  0  0  0  0  0  0  0  0  0  0
   49.3303   35.7194   40.9826 H   0  0  0  0  0  0  0  0  0  0  0  0
   47.5551   35.9935   40.9826 H   0  0  0  0  0  0  0  0  0  0  0  0
   49.5284   33.1863   42.6515 H   0  0  0  0  0  0  0  0  0  0  0  0
   49.4221   32.2210   41.1404 H   0  0  0  0  0  0  0  0  0  0  0  0
   50.2832   33.7974   41.1404 H   0  0  0  0  0  0  0  0  0  0  0  0
   46.6454   32.5156   41.6624 H   0  0  0  0  0  0  0  0  0  0  0  0
   47.5481   33.2231   43.0842 H   0  0  0  0  0  0  0  0  0  0  0  0
   43.4001   36.1849   41.6800 H   0  0  0  0  0  0  0  0  0  0  0  0
   44.3318   36.4487   44.1604 H   0  0  0  0  0  0  0  0  0  0  0  0
   46.4759   34.8588   44.4502 H   0  0  0  0  0  0  0  0  0  0  0  0
  1  8  1  0
  1  9  1  0
  1 10  1  0
  2  3  2  0
  3  4  1  0
  4  1  1  0
  5  4  2  0
  6  5  1  0
  7  6  2  0
  7  2  1  0
 10 11  1  0
 11 15  1  0
 12 13  2  0
 12 11  1  0
 13 14  1  0
 14 15  2  0
  2 16  1  0
  3 17  1  0
  6 18  1  0
  8 19  1  0
  8 20  1  0
  8 21  1  0
  9 22  1  0
  9 23  1  0
  9 24  1  0
 10 25  1  0
 10 26  1  0
 13 27  1  0
 14 28  1  0
 15 29  1  0
M  ISO  8  16  14  17  14  18  14  19   8  20   8  21   8  22   8  23   8
M  ISO  6  24   8  25   8  26   8  27  14  28  14  29  14
M  END
>  <minimizedAffinity>  (1) 
-3.8679738

>  <minimizedRMSD>  (1) 
5.3462081

$$$$
