
     RDKit          3D

 28 29  0  0  0  0  0  0  0  0999 V2000
   47.7400   34.0260   40.8510 C   0  0  0  0  0  0  0  0  0  0  0  0
   44.0620   34.7610   41.4550 C   0  0  0  0  0  0  0  0  0  0  0  0
   45.2190   34.2330   40.8520 C   0  0  0  0  0  0  0  0  0  0  0  0
   46.4820   34.5300   41.4070 C   0  0  0  0  0  0  0  0  0  0  0  0
   46.4980   35.3230   42.5110 N   0  0  0  0  0  0  0  0  0  0  0  0
   45.3700   35.8190   43.0720 C   0  0  0  0  0  0  0  0  0  0  0  0
   44.1580   35.5380   42.5440 N   0  0  0  0  0  0  0  0  0  0  0  0
   47.6350   32.5290   40.7060 C   0  0  0  0  0  0  0  0  0  0  0  0
   48.8450   34.2740   41.8690 C   0  0  0  0  0  0  0  0  0  0  0  0
   48.1690   34.6480   39.5770 C   0  0  0  0  0  0  0  0  0  0  0  0
   47.9530   33.8010   38.3950 C   0  0  0  0  0  0  0  0  0  0  0  0
   49.0490   33.1810   37.7960 C   0  0  0  0  0  0  0  0  0  0  0  0
   48.2690   32.2320   36.3540 S   0  0  0  0  0  0  0  0  0  0  0  0
   46.5810   32.9060   36.8980 C   0  0  0  0  0  0  0  0  0  0  0  0
   46.8210   33.5330   37.7930 N   0  0  0  0  0  0  0  0  0  0  0  0
   43.0727   34.5350   41.0304 H   0  0  0  0  0  0  0  0  0  0  0  0
   45.1397   33.5963   39.9585 H   0  0  0  0  0  0  0  0  0  0  0  0
   45.4406   36.4565   43.9657 H   0  0  0  0  0  0  0  0  0  0  0  0
   47.6025   32.0654   41.7030 H   0  0  0  0  0  0  0  0  0  0  0  0
   46.7170   32.2775   40.1546 H   0  0  0  0  0  0  0  0  0  0  0  0
   48.5089   32.1518   40.1546 H   0  0  0  0  0  0  0  0  0  0  0  0
   48.4346   34.1819   42.8854 H   0  0  0  0  0  0  0  0  0  0  0  0
   49.6460   33.5333   41.7285 H   0  0  0  0  0  0  0  0  0  0  0  0
   49.2526   35.2860   41.7285 H   0  0  0  0  0  0  0  0  0  0  0  0
   47.6043   35.5821   39.4409 H   0  0  0  0  0  0  0  0  0  0  0  0
   49.2534   34.8157   39.6542 H   0  0  0  0  0  0  0  0  0  0  0  0
   50.1080   33.2308   38.0892 H   0  0  0  0  0  0  0  0  0  0  0  0
   45.5973   32.7232   36.4408 H   0  0  0  0  0  0  0  0  0  0  0  0
  1  4  1  0
  1  9  1  0
  2  7  2  0
  3  4  2  0
  3  2  1  0
  4  5  1  0
  5  6  2  0
  7  6  1  0
  8  1  1  0
 10  1  1  0
 11 10  1  0
 12 11  2  0
 13 14  1  0
 13 12  1  0
 14 15  2  0
 15 11  1  0
  2 16  1  0
  3 17  1  0
  6 18  1  0
  8 19  1  0
  8 20  1  0
  8 21  1  0
  9 22  1  0
  9 23  1  0
  9 24  1  0
 10 25  1  0
 10 26  1  0
 12 27  1  0
 14 28  1  0
M  ISO  8  16  14  17  14  18  14  19   8  20   8  21   8  22   8  23   8
M  ISO  5  24   8  25   8  26   8  27  14  28  14
M  END
>  <minimizedAffinity>  (1) 
-3.7377212

>  <minimizedRMSD>  (1) 
4.78769779

$$$$
