
     RDKit          3D

 36 38  0  0  0  0  0  0  0  0999 V2000
   46.1060   34.0460   41.9140 C   0  0  0  0  0  0  0  0  0  0  0  0
   44.4520   35.9680   44.7490 C   0  0  0  0  0  0  0  0  0  0  0  0
   44.8870   35.6540   43.4490 C   0  0  0  0  0  0  0  0  0  0  0  0
   45.6160   34.4470   43.2420 C   0  0  0  0  0  0  0  0  0  0  0  0
   45.8550   33.6580   44.3170 N   0  0  0  0  0  0  0  0  0  0  0  0
   45.4270   33.9830   45.5540 C   0  0  0  0  0  0  0  0  0  0  0  0
   44.7390   35.1140   45.7690 N   0  0  0  0  0  0  0  0  0  0  0  0
   45.0530   34.4510   40.8930 C   0  0  0  0  0  0  0  0  0  0  0  0
   46.1600   32.5230   41.8700 C   0  0  0  0  0  0  0  0  0  0  0  0
   47.4260   34.5420   41.5070 C   0  0  0  0  0  0  0  0  0  0  0  0
   48.4110   33.6070   41.0250 C   0  0  0  0  0  0  0  0  0  0  0  0
   49.3050   33.0220   41.9220 C   0  0  0  0  0  0  0  0  0  0  0  0
   50.1100   32.2060   41.2390 N   0  0  0  0  0  0  0  0  0  0  0  0
   49.7860   32.2310   39.9480 C   0  0  0  0  0  0  0  0  0  0  0  0
   48.7550   33.0890   39.8580 N   0  0  0  0  0  0  0  0  0  0  0  0
   47.3910   34.3850   36.8010 N   0  0  0  0  0  0  0  0  0  0  0  0
   48.3220   34.4110   37.7670 N   0  0  0  0  0  0  0  0  0  0  0  0
   48.0520   33.4530   38.6570 C   0  0  0  0  0  0  0  0  0  0  0  0
   46.9140   32.7750   38.2690 C   0  0  0  0  0  0  0  0  0  0  0  0
   46.5250   33.3940   37.0900 C   0  0  0  0  0  0  0  0  0  0  0  0
   43.8868   36.8924   44.9390 H   0  0  0  0  0  0  0  0  0  0  0  0
   44.6686   36.3277   42.6073 H   0  0  0  0  0  0  0  0  0  0  0  0
   45.6451   33.3116   46.3976 H   0  0  0  0  0  0  0  0  0  0  0  0
   44.1497   34.7984   41.4159 H   0  0  0  0  0  0  0  0  0  0  0  0
   45.4464   35.2620   40.2625 H   0  0  0  0  0  0  0  0  0  0  0  0
   44.8016   33.5854   40.2625 H   0  0  0  0  0  0  0  0  0  0  0  0
   46.1740   32.1268   42.8961 H   0  0  0  0  0  0  0  0  0  0  0  0
   45.2749   32.1398   41.3411 H   0  0  0  0  0  0  0  0  0  0  0  0
   47.0700   32.2035   41.3411 H   0  0  0  0  0  0  0  0  0  0  0  0
   47.2600   35.2759   40.7046 H   0  0  0  0  0  0  0  0  0  0  0  0
   47.8622   34.9221   42.4426 H   0  0  0  0  0  0  0  0  0  0  0  0
   49.3403   33.2025   43.0065 H   0  0  0  0  0  0  0  0  0  0  0  0
   50.2605   31.6695   39.1297 H   0  0  0  0  0  0  0  0  0  0  0  0
   47.3463   35.0110   35.9842 H   0  0  0  0  0  0  0  0  0  0  0  0
   46.4251   31.9326   38.7802 H   0  0  0  0  0  0  0  0  0  0  0  0
   45.6477   33.1191   36.4861 H   0  0  0  0  0  0  0  0  0  0  0  0
  1  4  1  0
  2  7  2  0
  3  2  1  0
  4  3  2  0
  4  5  1  0
  5  6  2  0
  6  7  1  0
  8  1  1  0
  9  1  1  0
 10  1  1  0
 11 10  1  0
 11 12  2  0
 13 12  1  0
 14 13  2  0
 15 14  1  0
 15 11  1  0
 16 20  1  0
 16 17  1  0
 17 18  2  0
 18 15  1  0
 19 18  1  0
 20 19  2  0
  2 21  1  0
  3 22  1  0
  6 23  1  0
  8 24  1  0
  8 25  1  0
  8 26  1  0
  9 27  1  0
  9 28  1  0
  9 29  1  0
 10 30  1  0
 10 31  1  0
 12 32  1  0
 14 33  1  0
 16 34  1  0
 19 35  1  0
 20 36  1  0
M  ISO  8  21  14  22  14  23  14  24   8  25   8  26   8  27   8  28   8
M  ISO  8  29   8  30   8  31   8  32  14  33  14  34   9  35  14  36  14
M  END
>  <minimizedAffinity>  (1) 
-5.46409082

>  <minimizedRMSD>  (1) 
1.44458008

$$$$
