
     RDKit          3D

 45 47  0  0  0  0  0  0  0  0999 V2000
   46.3380   34.1020   42.1640 C   0  0  0  0  0  0  0  0  0  0  0  0
   44.4490   36.1290   44.7660 C   0  0  0  0  0  0  0  0  0  0  0  0
   45.0110   35.7710   43.5320 C   0  0  0  0  0  0  0  0  0  0  0  0
   45.7210   34.5430   43.4280 C   0  0  0  0  0  0  0  0  0  0  0  0
   45.8210   33.7740   44.5320 N   0  0  0  0  0  0  0  0  0  0  0  0
   45.2680   34.1460   45.7080 C   0  0  0  0  0  0  0  0  0  0  0  0
   44.5990   35.2910   45.8290 N   0  0  0  0  0  0  0  0  0  0  0  0
   45.3390   34.3570   41.0480 C   0  0  0  0  0  0  0  0  0  0  0  0
   46.5110   32.5850   42.2260 C   0  0  0  0  0  0  0  0  0  0  0  0
   47.6420   34.6720   41.8200 C   0  0  0  0  0  0  0  0  0  0  0  0
   48.7490   33.7950   41.5480 C   0  0  0  0  0  0  0  0  0  0  0  0
   49.7820   33.6600   42.4780 C   0  0  0  0  0  0  0  0  0  0  0  0
   50.6740   32.7980   41.9710 N   0  0  0  0  0  0  0  0  0  0  0  0
   50.2730   32.3740   40.7750 C   0  0  0  0  0  0  0  0  0  0  0  0
   49.1070   32.9980   40.5520 N   0  0  0  0  0  0  0  0  0  0  0  0
   48.3010   32.8370   39.3600 C   0  0  0  0  0  0  0  0  0  0  0  0
   48.8750   31.8230   38.4240 C   0  0  0  0  0  0  0  0  0  0  0  0
   49.5800   32.3980   37.2370 C   0  0  0  0  0  0  0  0  0  0  0  0
   48.6450   33.2420   36.4100 C   0  0  0  0  0  0  0  0  0  0  0  0
   47.7260   34.0500   37.2800 C   0  0  0  0  0  0  0  0  0  0  0  0
   48.3370   34.2040   38.6650 C   0  0  0  0  0  0  0  0  0  0  0  0
   43.8950   37.0732   44.8738 H   0  0  0  0  0  0  0  0  0  0  0  0
   44.9043   36.4300   42.6577 H   0  0  0  0  0  0  0  0  0  0  0  0
   45.3729   33.4888   46.5838 H   0  0  0  0  0  0  0  0  0  0  0  0
   44.3598   34.6069   41.4824 H   0  0  0  0  0  0  0  0  0  0  0  0
   45.6891   35.1946   40.4268 H   0  0  0  0  0  0  0  0  0  0  0  0
   45.2448   33.4541   40.4268 H   0  0  0  0  0  0  0  0  0  0  0  0
   46.5477   32.2628   43.2771 H   0  0  0  0  0  0  0  0  0  0  0  0
   45.6625   32.0983   41.7228 H   0  0  0  0  0  0  0  0  0  0  0  0
   47.4473   32.3019   41.7228 H   0  0  0  0  0  0  0  0  0  0  0  0
   47.4944   35.2890   40.9214 H   0  0  0  0  0  0  0  0  0  0  0  0
   47.9461   35.1943   42.7391 H   0  0  0  0  0  0  0  0  0  0  0  0
   49.8510   34.1691   43.4507 H   0  0  0  0  0  0  0  0  0  0  0  0
   50.7878   31.6637   40.1113 H   0  0  0  0  0  0  0  0  0  0  0  0
   47.2898   32.4973   39.6286 H   0  0  0  0  0  0  0  0  0  0  0  0
   49.5938   31.2072   38.9845 H   0  0  0  0  0  0  0  0  0  0  0  0
   48.0250   31.2457   38.0314 H   0  0  0  0  0  0  0  0  0  0  0  0
   50.4169   33.0223   37.5833 H   0  0  0  0  0  0  0  0  0  0  0  0
   49.9488   31.5702   36.6136 H   0  0  0  0  0  0  0  0  0  0  0  0
   49.2378   33.9248   35.7836 H   0  0  0  0  0  0  0  0  0  0  0  0
   48.0338   32.5734   35.7860 H   0  0  0  0  0  0  0  0  0  0  0  0
   47.5785   35.0440   36.8325 H   0  0  0  0  0  0  0  0  0  0  0  0
   46.7571   33.5359   37.3637 H   0  0  0  0  0  0  0  0  0  0  0  0
   49.3776   34.5493   38.5765 H   0  0  0  0  0  0  0  0  0  0  0  0
   47.7697   34.9427   39.2503 H   0  0  0  0  0  0  0  0  0  0  0  0
  1  9  1  0
  1  4  1  0
  2  7  2  0
  3  2  1  0
  4  3  2  0
  4  5  1  0
  5  6  2  0
  6  7  1  0
  8  1  1  0
 10  1  1  0
 11 10  1  0
 11 12  2  0
 13 12  1  0
 14 13  2  0
 15 14  1  0
 15 11  1  0
 16 15  1  0
 17 16  1  0
 18 17  1  0
 19 18  1  0
 19 20  1  0
 20 21  1  0
 21 16  1  0
  2 22  1  0
  3 23  1  0
  6 24  1  0
  8 25  1  0
  8 26  1  0
  8 27  1  0
  9 28  1  0
  9 29  1  0
  9 30  1  0
 10 31  1  0
 10 32  1  0
 12 33  1  0
 14 34  1  0
 16 35  1  0
 17 36  1  0
 17 37  1  0
 18 38  1  0
 18 39  1  0
 19 40  1  0
 19 41  1  0
 20 42  1  0
 20 43  1  0
 21 44  1  0
 21 45  1  0
M  ISO  8  22  14  23  14  24  14  25   8  26   8  27   8  28   8  29   8
M  ISO  8  30   8  31   8  32   8  33  14  34  14  35  13  36  13  37  13
M  ISO  8  38  13  39  13  40  13  41  13  42  13  43  13  44  13  45  13
M  END
>  <minimizedAffinity>  (1) 
-5.20588446

>  <minimizedRMSD>  (1) 
0.767733932

$$$$
