
     RDKit          3D

 38 40  0  0  0  0  0  0  0  0999 V2000
   45.8950   34.2210   41.9650 C   0  0  0  0  0  0  0  0  0  0  0  0
   44.4120   35.9530   45.0090 C   0  0  0  0  0  0  0  0  0  0  0  0
   44.7800   35.7170   43.6750 C   0  0  0  0  0  0  0  0  0  0  0  0
   45.4780   34.5370   43.3430 C   0  0  0  0  0  0  0  0  0  0  0  0
   45.7580   33.6810   44.3480 N   0  0  0  0  0  0  0  0  0  0  0  0
   45.4070   33.9070   45.6240 C   0  0  0  0  0  0  0  0  0  0  0  0
   44.7380   35.0340   45.9550 N   0  0  0  0  0  0  0  0  0  0  0  0
   44.7710   34.6510   41.0400 C   0  0  0  0  0  0  0  0  0  0  0  0
   45.9830   32.7040   41.8360 C   0  0  0  0  0  0  0  0  0  0  0  0
   47.1690   34.7780   41.5040 C   0  0  0  0  0  0  0  0  0  0  0  0
   48.3370   33.9360   41.4940 C   0  0  0  0  0  0  0  0  0  0  0  0
   49.1010   33.7780   42.6510 C   0  0  0  0  0  0  0  0  0  0  0  0
   50.1150   32.9620   42.3740 N   0  0  0  0  0  0  0  0  0  0  0  0
   50.0650   32.5780   41.1090 C   0  0  0  0  0  0  0  0  0  0  0  0
   48.9710   33.1860   40.5990 N   0  0  0  0  0  0  0  0  0  0  0  0
   48.4810   33.0870   39.2490 C   0  0  0  0  0  0  0  0  0  0  0  0
   48.4500   34.2770   38.5470 C   0  0  0  0  0  0  0  0  0  0  0  0
   47.9930   34.2770   37.2430 C   0  0  0  0  0  0  0  0  0  0  0  0
   47.5850   33.0780   36.6980 C   0  0  0  0  0  0  0  0  0  0  0  0
   47.6260   31.8880   37.4300 C   0  0  0  0  0  0  0  0  0  0  0  0
   48.0800   31.9290   38.7030 N   0  0  0  0  0  0  0  0  0  0  0  0
   43.8678   36.8684   45.2843 H   0  0  0  0  0  0  0  0  0  0  0  0
   44.5256   36.4479   42.8933 H   0  0  0  0  0  0  0  0  0  0  0  0
   45.6645   33.1733   46.4020 H   0  0  0  0  0  0  0  0  0  0  0  0
   43.9092   34.9807   41.6388 H   0  0  0  0  0  0  0  0  0  0  0  0
   45.1155   35.4808   40.4054 H   0  0  0  0  0  0  0  0  0  0  0  0
   44.4737   33.8031   40.4054 H   0  0  0  0  0  0  0  0  0  0  0  0
   46.0092   32.2517   42.8384 H   0  0  0  0  0  0  0  0  0  0  0  0
   45.1050   32.3310   41.2883 H   0  0  0  0  0  0  0  0  0  0  0  0
   46.8983   32.4351   41.2883 H   0  0  0  0  0  0  0  0  0  0  0  0
   47.0139   35.1260   40.4721 H   0  0  0  0  0  0  0  0  0  0  0  0
   47.4060   35.5483   42.2526 H   0  0  0  0  0  0  0  0  0  0  0  0
   48.8995   34.2475   43.6251 H   0  0  0  0  0  0  0  0  0  0  0  0
   50.7631   31.9084   40.5853 H   0  0  0  0  0  0  0  0  0  0  0  0
   48.7847   35.2119   39.0201 H   0  0  0  0  0  0  0  0  0  0  0  0
   47.9558   35.2069   36.6565 H   0  0  0  0  0  0  0  0  0  0  0  0
   47.2181   33.0575   35.6612 H   0  0  0  0  0  0  0  0  0  0  0  0
   47.2964   30.9396   36.9807 H   0  0  0  0  0  0  0  0  0  0  0  0
  1  4  1  0
  2  7  2  0
  3  2  1  0
  4  3  2  0
  4  5  1  0
  5  6  2  0
  6  7  1  0
  8  1  1  0
  9  1  1  0
 10  1  1  0
 11 10  1  0
 11 12  2  0
 13 12  1  0
 14 13  2  0
 15 14  1  0
 15 11  1  0
 16 15  1  0
 17 16  2  0
 18 17  1  0
 19 18  2  0
 19 20  1  0
 20 21  2  0
 21 16  1  0
  2 22  1  0
  3 23  1  0
  6 24  1  0
  8 25  1  0
  8 26  1  0
  8 27  1  0
  9 28  1  0
  9 29  1  0
  9 30  1  0
 10 31  1  0
 10 32  1  0
 12 33  1  0
 14 34  1  0
 17 35  1  0
 18 36  1  0
 19 37  1  0
 20 38  1  0
M  ISO  8  22  14  23  14  24  14  25   8  26   8  27   8  28   8  29   8
M  ISO  8  30   8  31   8  32   8  33  14  34  14  35  14  36  14  37  14
M  ISO  1  38  14
M  END
>  <minimizedAffinity>  (1) 
-5.00344992

>  <minimizedRMSD>  (1) 
1.03014457

$$$$
