
     RDKit          3D

 37 39  0  0  0  0  0  0  0  0999 V2000
   45.8250   34.2140   41.9180 C   0  0  0  0  0  0  0  0  0  0  0  0
   44.4170   35.9590   44.9940 C   0  0  0  0  0  0  0  0  0  0  0  0
   44.7530   35.7250   43.6510 C   0  0  0  0  0  0  0  0  0  0  0  0
   45.4370   34.5360   43.3010 C   0  0  0  0  0  0  0  0  0  0  0  0
   45.7360   33.6700   44.3010 N   0  0  0  0  0  0  0  0  0  0  0  0
   45.4050   33.9130   45.5850 C   0  0  0  0  0  0  0  0  0  0  0  0
   44.7600   35.0300   45.9290 N   0  0  0  0  0  0  0  0  0  0  0  0
   44.6840   34.6560   41.0130 C   0  0  0  0  0  0  0  0  0  0  0  0
   45.9100   32.7030   41.7780 C   0  0  0  0  0  0  0  0  0  0  0  0
   47.0980   34.7750   41.4400 C   0  0  0  0  0  0  0  0  0  0  0  0
   48.2750   33.9430   41.4470 C   0  0  0  0  0  0  0  0  0  0  0  0
   49.0450   33.8420   42.6030 C   0  0  0  0  0  0  0  0  0  0  0  0
   50.0700   33.0250   42.3540 N   0  0  0  0  0  0  0  0  0  0  0  0
   50.0040   32.5900   41.0980 C   0  0  0  0  0  0  0  0  0  0  0  0
   48.9080   33.1650   40.5810 N   0  0  0  0  0  0  0  0  0  0  0  0
   48.4090   33.0040   39.2380 C   0  0  0  0  0  0  0  0  0  0  0  0
   48.4890   34.1940   38.5090 C   0  0  0  0  0  0  0  0  0  0  0  0
   48.0670   34.2660   37.2020 C   0  0  0  0  0  0  0  0  0  0  0  0
   47.5620   33.1320   36.6360 N   0  0  0  0  0  0  0  0  0  0  0  0
   47.5030   31.9960   37.3850 C   0  0  0  0  0  0  0  0  0  0  0  0
   47.9140   31.9090   38.6660 N   0  0  0  0  0  0  0  0  0  0  0  0
   43.8858   36.8769   45.2860 H   0  0  0  0  0  0  0  0  0  0  0  0
   44.4869   36.4598   42.8769 H   0  0  0  0  0  0  0  0  0  0  0  0
   45.6704   33.1798   46.3609 H   0  0  0  0  0  0  0  0  0  0  0  0
   43.8341   34.9853   41.6288 H   0  0  0  0  0  0  0  0  0  0  0  0
   45.0211   35.4886   40.3781 H   0  0  0  0  0  0  0  0  0  0  0  0
   44.3722   33.8136   40.3781 H   0  0  0  0  0  0  0  0  0  0  0  0
   45.9359   32.2431   42.7769 H   0  0  0  0  0  0  0  0  0  0  0  0
   45.0311   32.3357   41.2279 H   0  0  0  0  0  0  0  0  0  0  0  0
   46.8246   32.4366   41.2279 H   0  0  0  0  0  0  0  0  0  0  0  0
   47.3193   35.6517   42.0665 H   0  0  0  0  0  0  0  0  0  0  0  0
   46.9171   34.9669   40.3721 H   0  0  0  0  0  0  0  0  0  0  0  0
   48.8427   34.3490   43.5580 H   0  0  0  0  0  0  0  0  0  0  0  0
   50.6999   31.9049   40.5917 H   0  0  0  0  0  0  0  0  0  0  0  0
   48.8989   35.0934   38.9917 H   0  0  0  0  0  0  0  0  0  0  0  0
   48.1343   35.2050   36.6330 H   0  0  0  0  0  0  0  0  0  0  0  0
   47.0932   31.0904   36.9139 H   0  0  0  0  0  0  0  0  0  0  0  0
  1  4  1  0
  2  7  2  0
  3  2  1  0
  4  3  2  0
  4  5  1  0
  5  6  2  0
  6  7  1  0
  8  1  1  0
  9  1  1  0
 10 11  1  0
 10  1  1  0
 11 12  2  0
 13 12  1  0
 14 13  2  0
 15 14  1  0
 15 11  1  0
 16 15  1  0
 17 16  2  0
 18 17  1  0
 19 18  2  0
 19 20  1  0
 20 21  2  0
 21 16  1  0
  2 22  1  0
  3 23  1  0
  6 24  1  0
  8 25  1  0
  8 26  1  0
  8 27  1  0
  9 28  1  0
  9 29  1  0
  9 30  1  0
 10 31  1  0
 10 32  1  0
 12 33  1  0
 14 34  1  0
 17 35  1  0
 18 36  1  0
 20 37  1  0
M  ISO  8  22  14  23  14  24  14  25   8  26   8  27   8  28   8  29   8
M  ISO  8  30   8  31   8  32   8  33  14  34  14  35  14  36  14  37  14
M  END
>  <minimizedAffinity>  (1) 
-4.9229064

>  <minimizedRMSD>  (1) 
1.08622253

$$$$
