
     RDKit          3D

 41 42  0  0  0  0  0  0  0  0999 V2000
   45.7180   34.0430   41.6070 C   0  0  0  0  0  0  0  0  0  0  0  0
   44.4880   35.9330   44.6780 C   0  0  0  0  0  0  0  0  0  0  0  0
   44.7620   35.6320   43.3360 C   0  0  0  0  0  0  0  0  0  0  0  0
   45.4080   34.4250   43.0000 C   0  0  0  0  0  0  0  0  0  0  0  0
   45.7450   33.5880   44.0120 N   0  0  0  0  0  0  0  0  0  0  0  0
   45.4770   33.8880   45.3020 C   0  0  0  0  0  0  0  0  0  0  0  0
   44.8630   35.0330   45.6340 N   0  0  0  0  0  0  0  0  0  0  0  0
   44.5430   34.5040   40.7700 C   0  0  0  0  0  0  0  0  0  0  0  0
   45.7940   32.5300   41.5390 C   0  0  0  0  0  0  0  0  0  0  0  0
   46.9690   34.5470   41.0310 C   0  0  0  0  0  0  0  0  0  0  0  0
   48.0480   33.6530   40.7420 C   0  0  0  0  0  0  0  0  0  0  0  0
   48.9290   33.2340   41.7570 C   0  0  0  0  0  0  0  0  0  0  0  0
   49.8160   32.4050   41.2170 N   0  0  0  0  0  0  0  0  0  0  0  0
   49.5660   32.2650   39.9290 C   0  0  0  0  0  0  0  0  0  0  0  0
   48.4780   33.0340   39.6360 N   0  0  0  0  0  0  0  0  0  0  0  0
   47.9880   33.1000   38.3270 C   0  0  0  0  0  0  0  0  0  0  0  0
   46.5720   33.0390   38.0060 C   0  0  0  0  0  0  0  0  0  0  0  0
   48.7500   32.1230   37.4550 C   0  0  0  0  0  0  0  0  0  0  0  0
   48.3870   34.4890   37.7500 C   0  0  0  0  0  0  0  0  0  0  0  0
   43.9835   36.8708   44.9537 H   0  0  0  0  0  0  0  0  0  0  0  0
   44.4724   36.3388   42.5444 H   0  0  0  0  0  0  0  0  0  0  0  0
   45.7674   33.1811   46.0931 H   0  0  0  0  0  0  0  0  0  0  0  0
   43.7250   34.8249   41.4317 H   0  0  0  0  0  0  0  0  0  0  0  0
   44.8533   35.3470   40.1352 H   0  0  0  0  0  0  0  0  0  0  0  0
   44.1973   33.6748   40.1352 H   0  0  0  0  0  0  0  0  0  0  0  0
   45.8147   32.1177   42.5586 H   0  0  0  0  0  0  0  0  0  0  0  0
   44.9142   32.1423   41.0045 H   0  0  0  0  0  0  0  0  0  0  0  0
   46.7082   32.2324   41.0045 H   0  0  0  0  0  0  0  0  0  0  0  0
   46.7040   35.0378   40.0829 H   0  0  0  0  0  0  0  0  0  0  0  0
   47.3771   35.1744   41.8371 H   0  0  0  0  0  0  0  0  0  0  0  0
   48.8899   33.5396   42.8130 H   0  0  0  0  0  0  0  0  0  0  0  0
   50.1317   31.6419   39.2207 H   0  0  0  0  0  0  0  0  0  0  0  0
   45.9859   33.0137   38.9365 H   0  0  0  0  0  0  0  0  0  0  0  0
   46.2905   33.9259   37.4193 H   0  0  0  0  0  0  0  0  0  0  0  0
   46.3678   32.1312   37.4193 H   0  0  0  0  0  0  0  0  0  0  0  0
   49.3015   31.4159   38.0921 H   0  0  0  0  0  0  0  0  0  0  0  0
   48.0427   31.5695   36.8199 H   0  0  0  0  0  0  0  0  0  0  0  0
   49.4591   32.6742   36.8199 H   0  0  0  0  0  0  0  0  0  0  0  0
   48.5872   35.1859   38.5772 H   0  0  0  0  0  0  0  0  0  0  0  0
   49.2912   34.3835   37.1325 H   0  0  0  0  0  0  0  0  0  0  0  0
   47.5647   34.8795   37.1325 H   0  0  0  0  0  0  0  0  0  0  0  0
  1  4  1  0
  2  7  2  0
  3  2  1  0
  4  3  2  0
  4  5  1  0
  5  6  2  0
  6  7  1  0
  8  1  1  0
  9  1  1  0
 10  1  1  0
 11 10  1  0
 11 12  2  0
 13 12  1  0
 14 13  2  0
 15 14  1  0
 15 11  1  0
 16 15  1  0
 17 16  1  0
 18 16  1  0
 19 16  1  0
  2 20  1  0
  3 21  1  0
  6 22  1  0
  8 23  1  0
  8 24  1  0
  8 25  1  0
  9 26  1  0
  9 27  1  0
  9 28  1  0
 10 29  1  0
 10 30  1  0
 12 31  1  0
 14 32  1  0
 17 33  1  0
 17 34  1  0
 17 35  1  0
 18 36  1  0
 18 37  1  0
 18 38  1  0
 19 39  1  0
 19 40  1  0
 19 41  1  0
M  ISO  8  20  14  21  14  22  14  23   8  24   8  25   8  26   8  27   8
M  ISO  8  28   8  29   8  30   8  31  14  32  14  33   8  34   8  35   8
M  ISO  6  36   8  37   8  38   8  39   8  40   8  41   8
M  END
>  <minimizedAffinity>  (1) 
-4.56739855

>  <minimizedRMSD>  (1) 
1.57018018

$$$$
