
     RDKit          3D

 37 40  0  0  0  0  0  0  0  0999 V2000
   44.9520   35.7810   44.1210 C   0  0  0  0  0  0  0  0  0  0  0  0
   45.7400   35.5560   42.9680 C   0  0  0  0  0  0  0  0  0  0  0  0
   46.6540   34.4830   42.9480 C   0  0  0  0  0  0  0  0  0  0  0  0
   46.7310   33.7070   44.0600 N   0  0  0  0  0  0  0  0  0  0  0  0
   45.9620   33.9430   45.1600 C   0  0  0  0  0  0  0  0  0  0  0  0
   45.0810   34.9640   45.1960 N   0  0  0  0  0  0  0  0  0  0  0  0
   46.0260   33.1430   46.3340 N   0  0  0  0  0  0  0  0  0  0  0  0
   46.9830   32.1910   46.4650 C   0  0  0  0  0  0  0  0  0  0  0  0
   46.9800   31.4510   47.6430 C   0  0  0  0  0  0  0  0  0  0  0  0
   46.0600   31.6590   48.6380 C   0  0  0  0  0  0  0  0  0  0  0  0
   46.0620   30.8960   49.8410 N   0  0  0  0  0  0  0  0  0  0  0  0
   45.1240   32.6250   48.4500 N   0  0  0  0  0  0  0  0  0  0  0  0
   45.1040   33.3660   47.3070 C   0  0  0  0  0  0  0  0  0  0  0  0
   44.2440   34.2640   47.1210 O   0  0  0  0  0  0  0  0  0  0  0  0
   47.9850   30.4380   47.8030 C   0  0  0  0  0  0  0  0  0  0  0  0
   47.7220   29.2520   47.1140 C   0  0  0  0  0  0  0  0  0  0  0  0
   48.5930   28.1610   47.1580 C   0  0  0  0  0  0  0  0  0  0  0  0
   49.7650   28.2550   47.9120 C   0  0  0  0  0  0  0  0  0  0  0  0
   49.9940   29.4410   48.5800 C   0  0  0  0  0  0  0  0  0  0  0  0
   51.1400   29.5820   49.3380 C   0  0  0  0  0  0  0  0  0  0  0  0
   51.4430   30.7350   50.0370 C   0  0  0  0  0  0  0  0  0  0  0  0
   50.5310   31.7790   49.9480 C   0  0  0  0  0  0  0  0  0  0  0  0
   49.3600   31.7070   49.2040 C   0  0  0  0  0  0  0  0  0  0  0  0
   49.1350   30.5200   48.5380 C   0  0  0  0  0  0  0  0  0  0  0  0
   44.2366   36.6162   44.1457 H   0  0  0  0  0  0  0  0  0  0  0  0
   45.6402   36.2143   42.0924 H   0  0  0  0  0  0  0  0  0  0  0  0
   47.2803   34.2821   42.0663 H   0  0  0  0  0  0  0  0  0  0  0  0
   47.7278   32.0121   45.6756 H   0  0  0  0  0  0  0  0  0  0  0  0
   45.3557   31.0790   50.5681 H   0  0  0  0  0  0  0  0  0  0  0  0
   46.7697   30.1614   49.9837 H   0  0  0  0  0  0  0  0  0  0  0  0
   46.8005   29.1747   46.5183 H   0  0  0  0  0  0  0  0  0  0  0  0
   48.3588   27.2390   46.6056 H   0  0  0  0  0  0  0  0  0  0  0  0
   50.4764   27.4181   47.9710 H   0  0  0  0  0  0  0  0  0  0  0  0
   51.8437   28.7380   49.3876 H   0  0  0  0  0  0  0  0  0  0  0  0
   52.3621   30.8218   50.6351 H   0  0  0  0  0  0  0  0  0  0  0  0
   50.7468   32.7093   50.4939 H   0  0  0  0  0  0  0  0  0  0  0  0
   48.6530   32.5479   49.1491 H   0  0  0  0  0  0  0  0  0  0  0  0
  1  6  2  0
  2  1  1  0
  3  2  2  0
  3  4  1  0
  4  5  2  0
  5  6  1  0
  5  7  1  0
  7  8  1  0
  7 13  1  0
  8  9  2  0
  9 15  1  0
  9 10  1  0
 10 11  1  0
 12 10  2  0
 13 12  1  0
 14 13  2  0
 15 24  2  0
 16 17  2  0
 16 15  1  0
 17 18  1  0
 18 19  2  0
 19 20  1  0
 20 21  2  0
 22 21  1  0
 23 22  2  0
 24 19  1  0
 24 23  1  0
  1 25  1  0
  2 26  1  0
  3 27  1  0
  8 28  1  0
 11 29  1  0
 11 30  1  0
 16 31  1  0
 17 32  1  0
 18 33  1  0
 20 34  1  0
 21 35  1  0
 22 36  1  0
 23 37  1  0
M  ISO  8  25  14  26  14  27  14  28  14  31  14  32  14  33  14  34  14
M  ISO  3  35  14  36  14  37  14
M  END
>  <minimizedAffinity>  (1) 
-6.56945324

>  <minimizedRMSD>  (1) 
1.23426199

$$$$
