
     RDKit          3D

 30 32  0  0  0  0  0  0  0  0999 V2000
   44.6170   35.9330   44.3740 C   0  0  0  0  0  0  0  0  0  0  0  0
   45.2920   35.8310   43.1310 C   0  0  0  0  0  0  0  0  0  0  0  0
   46.2270   34.8080   42.9580 C   0  0  0  0  0  0  0  0  0  0  0  0
   46.4530   33.9550   43.9820 N   0  0  0  0  0  0  0  0  0  0  0  0
   45.7920   34.0760   45.1630 C   0  0  0  0  0  0  0  0  0  0  0  0
   44.8910   35.0500   45.3510 N   0  0  0  0  0  0  0  0  0  0  0  0
   46.0030   33.1920   46.2720 N   0  0  0  0  0  0  0  0  0  0  0  0
   46.9660   32.2640   46.2210 C   0  0  0  0  0  0  0  0  0  0  0  0
   47.1350   31.4350   47.3070 C   0  0  0  0  0  0  0  0  0  0  0  0
   46.3230   31.5640   48.4270 C   0  0  0  0  0  0  0  0  0  0  0  0
   46.4700   30.7220   49.5710 N   0  0  0  0  0  0  0  0  0  0  0  0
   45.3690   32.5180   48.4180 N   0  0  0  0  0  0  0  0  0  0  0  0
   45.2020   33.3320   47.3540 C   0  0  0  0  0  0  0  0  0  0  0  0
   44.3130   34.2270   47.3350 O   0  0  0  0  0  0  0  0  0  0  0  0
   48.1550   30.3960   47.3490 C   0  0  0  0  0  0  0  0  0  0  0  0
   48.2120   29.3670   46.4320 C   0  0  0  0  0  0  0  0  0  0  0  0
   49.1690   28.3740   46.4500 C   0  0  0  0  0  0  0  0  0  0  0  0
   50.1330   28.4220   47.4610 C   0  0  0  0  0  0  0  0  0  0  0  0
   50.0180   29.4780   48.3460 C   0  0  0  0  0  0  0  0  0  0  0  0
   49.0820   30.4380   48.3160 N   0  0  0  0  0  0  0  0  0  0  0  0
   43.8749   36.7283   44.5380 H   0  0  0  0  0  0  0  0  0  0  0  0
   45.0833   36.5434   42.3192 H   0  0  0  0  0  0  0  0  0  0  0  0
   46.7689   34.6986   42.0070 H   0  0  0  0  0  0  0  0  0  0  0  0
   47.6071   32.1660   45.3326 H   0  0  0  0  0  0  0  0  0  0  0  0
   45.8503   30.8455   50.3844 H   0  0  0  0  0  0  0  0  0  0  0  0
   47.1957   29.9912   49.5827 H   0  0  0  0  0  0  0  0  0  0  0  0
   47.4494   29.3367   45.6399 H   0  0  0  0  0  0  0  0  0  0  0  0
   49.1735   27.5731   45.6959 H   0  0  0  0  0  0  0  0  0  0  0  0
   50.9305   27.6693   47.5469 H   0  0  0  0  0  0  0  0  0  0  0  0
   50.7652   29.5363   49.1512 H   0  0  0  0  0  0  0  0  0  0  0  0
  1  6  2  0
  2  1  1  0
  3  2  2  0
  3  4  1  0
  4  5  2  0
  5  6  1  0
  5  7  1  0
  7 13  1  0
  8  7  1  0
  8  9  2  0
  9 15  1  0
  9 10  1  0
 10 11  1  0
 12 10  2  0
 13 12  1  0
 14 13  2  0
 15 20  2  0
 16 17  2  0
 16 15  1  0
 17 18  1  0
 18 19  2  0
 20 19  1  0
  1 21  1  0
  2 22  1  0
  3 23  1  0
  8 24  1  0
 11 25  1  0
 11 26  1  0
 16 27  1  0
 17 28  1  0
 18 29  1  0
 19 30  1  0
M  ISO  8  21  14  22  14  23  14  24  14  27  14  28  14  29  14  30  14
M  END
>  <minimizedAffinity>  (1) 
-5.82932091

>  <minimizedRMSD>  (1) 
0.698768497

$$$$
