
     RDKit          3D

 29 31  0  0  0  0  0  0  0  0999 V2000
   44.6470   35.9390   44.3900 C   0  0  0  0  0  0  0  0  0  0  0  0
   45.2800   35.8060   43.1340 C   0  0  0  0  0  0  0  0  0  0  0  0
   46.1870   34.7500   42.9280 C   0  0  0  0  0  0  0  0  0  0  0  0
   46.4100   33.9050   43.9540 N   0  0  0  0  0  0  0  0  0  0  0  0
   45.7870   34.0570   45.1540 C   0  0  0  0  0  0  0  0  0  0  0  0
   44.9130   35.0640   45.3740 N   0  0  0  0  0  0  0  0  0  0  0  0
   46.0000   33.1840   46.2570 N   0  0  0  0  0  0  0  0  0  0  0  0
   46.9610   32.2500   46.2170 C   0  0  0  0  0  0  0  0  0  0  0  0
   47.1340   31.4240   47.3070 C   0  0  0  0  0  0  0  0  0  0  0  0
   46.3340   31.5540   48.4220 C   0  0  0  0  0  0  0  0  0  0  0  0
   46.4860   30.7130   49.5730 N   0  0  0  0  0  0  0  0  0  0  0  0
   45.3860   32.5020   48.4150 N   0  0  0  0  0  0  0  0  0  0  0  0
   45.2050   33.3180   47.3530 C   0  0  0  0  0  0  0  0  0  0  0  0
   44.3150   34.2160   47.3330 O   0  0  0  0  0  0  0  0  0  0  0  0
   48.1570   30.3850   47.3420 C   0  0  0  0  0  0  0  0  0  0  0  0
   48.2500   29.3450   46.4490 C   0  0  0  0  0  0  0  0  0  0  0  0
   49.2220   28.3710   46.4960 C   0  0  0  0  0  0  0  0  0  0  0  0
   50.1320   28.4590   47.4880 N   0  0  0  0  0  0  0  0  0  0  0  0
   50.0430   29.4730   48.3610 C   0  0  0  0  0  0  0  0  0  0  0  0
   49.0910   30.4190   48.3070 N   0  0  0  0  0  0  0  0  0  0  0  0
   43.9355   36.7600   44.5624 H   0  0  0  0  0  0  0  0  0  0  0  0
   45.0661   36.5205   42.3255 H   0  0  0  0  0  0  0  0  0  0  0  0
   46.6968   34.6186   41.9622 H   0  0  0  0  0  0  0  0  0  0  0  0
   47.6011   32.1445   45.3287 H   0  0  0  0  0  0  0  0  0  0  0  0
   45.8694   30.8395   50.3883 H   0  0  0  0  0  0  0  0  0  0  0  0
   47.2118   29.9822   49.5846 H   0  0  0  0  0  0  0  0  0  0  0  0
   47.5006   29.2869   45.6458 H   0  0  0  0  0  0  0  0  0  0  0  0
   49.2551   27.5568   45.7571 H   0  0  0  0  0  0  0  0  0  0  0  0
   50.7907   29.5334   49.1655 H   0  0  0  0  0  0  0  0  0  0  0  0
  1  6  2  0
  2  1  1  0
  3  2  2  0
  3  4  1  0
  4  5  2  0
  5  6  1  0
  5  7  1  0
  7 13  1  0
  8  7  1  0
  8  9  2  0
  9 15  1  0
  9 10  1  0
 10 11  1  0
 12 10  2  0
 13 12  1  0
 14 13  2  0
 15 20  2  0
 16 17  2  0
 16 15  1  0
 17 18  1  0
 18 19  2  0
 20 19  1  0
  1 21  1  0
  2 22  1  0
  3 23  1  0
  8 24  1  0
 11 25  1  0
 11 26  1  0
 16 27  1  0
 17 28  1  0
 19 29  1  0
M  ISO  7  21  14  22  14  23  14  24  14  27  14  28  14  29  14
M  END
>  <minimizedAffinity>  (1) 
-5.74426651

>  <minimizedRMSD>  (1) 
0.295679897

$$$$
