
     RDKit          3D

 28 30  0  0  0  0  0  0  0  0999 V2000
   44.6260   35.9200   44.3840 C   0  0  0  0  0  0  0  0  0  0  0  0
   45.2690   35.7940   43.1240 C   0  0  0  0  0  0  0  0  0  0  0  0
   46.1760   34.7570   42.9280 C   0  0  0  0  0  0  0  0  0  0  0  0
   46.3960   33.9180   43.9600 N   0  0  0  0  0  0  0  0  0  0  0  0
   45.7820   34.0430   45.1550 C   0  0  0  0  0  0  0  0  0  0  0  0
   44.8970   35.0440   45.3660 N   0  0  0  0  0  0  0  0  0  0  0  0
   45.9860   33.1810   46.2660 N   0  0  0  0  0  0  0  0  0  0  0  0
   46.9520   32.2390   46.1960 C   0  0  0  0  0  0  0  0  0  0  0  0
   47.1310   31.4070   47.3020 C   0  0  0  0  0  0  0  0  0  0  0  0
   46.3540   31.5360   48.4220 C   0  0  0  0  0  0  0  0  0  0  0  0
   46.5130   30.7070   49.5580 N   0  0  0  0  0  0  0  0  0  0  0  0
   45.4020   32.5010   48.4290 N   0  0  0  0  0  0  0  0  0  0  0  0
   45.2110   33.3200   47.3670 C   0  0  0  0  0  0  0  0  0  0  0  0
   44.3320   34.2240   47.3510 O   0  0  0  0  0  0  0  0  0  0  0  0
   48.1840   30.4080   47.1790 C   0  0  0  0  0  0  0  0  0  0  0  0
   48.5070   29.5310   46.1700 C   0  0  0  0  0  0  0  0  0  0  0  0
   49.6020   28.7660   46.5020 C   0  0  0  0  0  0  0  0  0  0  0  0
   49.9180   29.2270   47.7620 C   0  0  0  0  0  0  0  0  0  0  0  0
   49.0790   30.1600   48.0940 O   0  0  0  0  0  0  0  0  0  0  0  0
   43.9066   36.7342   44.5558 H   0  0  0  0  0  0  0  0  0  0  0  0
   45.0530   36.5064   42.3141 H   0  0  0  0  0  0  0  0  0  0  0  0
   46.6943   34.6267   41.9665 H   0  0  0  0  0  0  0  0  0  0  0  0
   47.5767   32.1314   45.2970 H   0  0  0  0  0  0  0  0  0  0  0  0
   45.9066   30.8382   50.3802 H   0  0  0  0  0  0  0  0  0  0  0  0
   47.2351   29.9725   49.5626 H   0  0  0  0  0  0  0  0  0  0  0  0
   47.9600   29.4511   45.2190 H   0  0  0  0  0  0  0  0  0  0  0  0
   50.0998   27.9835   45.9105 H   0  0  0  0  0  0  0  0  0  0  0  0
   50.7477   28.8628   48.3857 H   0  0  0  0  0  0  0  0  0  0  0  0
  1  6  2  0
  2  1  1  0
  3  2  2  0
  3  4  1  0
  4  5  2  0
  5  6  1  0
  5  7  1  0
  7 13  1  0
  8  7  1  0
  8  9  2  0
  9 10  1  0
 10 12  2  0
 10 11  1  0
 13 12  1  0
 14 13  2  0
 15  9  1  0
 15 19  1  0
 16 17  1  0
 16 15  2  0
 17 18  2  0
 18 19  1  0
  1 20  1  0
  2 21  1  0
  3 22  1  0
  8 23  1  0
 11 24  1  0
 11 25  1  0
 16 26  1  0
 17 27  1  0
 18 28  1  0
M  ISO  7  20  14  21  14  22  14  23  14  26  14  27  14  28  14
M  END
>  <minimizedAffinity>  (1) 
-5.69684029

>  <minimizedRMSD>  (1) 
0.250591934

$$$$
