
     RDKit          3D

 24 25  0  0  0  0  0  0  0  0999 V2000
   44.6320   35.8950   44.3660 C   0  0  0  0  0  0  0  0  0  0  0  0
   45.2610   35.7730   43.1170 C   0  0  0  0  0  0  0  0  0  0  0  0
   46.1600   34.7260   42.9230 C   0  0  0  0  0  0  0  0  0  0  0  0
   46.3860   33.8730   43.9490 N   0  0  0  0  0  0  0  0  0  0  0  0
   45.7650   34.0130   45.1440 C   0  0  0  0  0  0  0  0  0  0  0  0
   44.9000   35.0130   45.3430 N   0  0  0  0  0  0  0  0  0  0  0  0
   45.9810   33.1340   46.2380 N   0  0  0  0  0  0  0  0  0  0  0  0
   46.9190   32.1560   46.1610 C   0  0  0  0  0  0  0  0  0  0  0  0
   47.0770   31.3380   47.2600 C   0  0  0  0  0  0  0  0  0  0  0  0
   46.3210   31.4970   48.3930 C   0  0  0  0  0  0  0  0  0  0  0  0
   46.4590   30.6690   49.5450 N   0  0  0  0  0  0  0  0  0  0  0  0
   45.3960   32.4890   48.4230 N   0  0  0  0  0  0  0  0  0  0  0  0
   45.2200   33.3080   47.3560 C   0  0  0  0  0  0  0  0  0  0  0  0
   44.3710   34.2380   47.3510 O   0  0  0  0  0  0  0  0  0  0  0  0
   48.0820   30.2530   47.2390 C   0  0  0  0  0  0  0  0  0  0  0  0
   47.5590   29.0200   47.5630 F   0  0  0  0  0  0  0  0  0  0  0  0
   49.0870   30.5980   48.1240 F   0  0  0  0  0  0  0  0  0  0  0  0
   48.6090   30.0990   45.9530 F   0  0  0  0  0  0  0  0  0  0  0  0
   43.9191   36.7135   44.5448 H   0  0  0  0  0  0  0  0  0  0  0  0
   45.0488   36.4884   42.3088 H   0  0  0  0  0  0  0  0  0  0  0  0
   46.6736   34.5960   41.9590 H   0  0  0  0  0  0  0  0  0  0  0  0
   47.5300   32.0210   45.2563 H   0  0  0  0  0  0  0  0  0  0  0  0
   45.8650   30.8320   50.3705 H   0  0  0  0  0  0  0  0  0  0  0  0
   47.1527   29.9077   49.5519 H   0  0  0  0  0  0  0  0  0  0  0  0
  1  6  2  0
  2  1  1  0
  3  2  2  0
  3  4  1  0
  4  5  2  0
  5  6  1  0
  5  7  1  0
  7 13  1  0
  8  7  1  0
  8  9  2  0
  9 10  1  0
 10 12  2  0
 10 11  1  0
 13 12  1  0
 14 13  2  0
 15  9  1  0
 15 16  1  0
 15 17  1  0
 18 15  1  0
  1 19  1  0
  2 20  1  0
  3 21  1  0
  8 22  1  0
 11 23  1  0
 11 24  1  0
M  ISO  4  19  14  20  14  21  14  22  14
M  END
>  <minimizedAffinity>  (1) 
-5.65127754

>  <minimizedRMSD>  (1) 
0.420111507

$$$$
