
     RDKit          3D

 28 29  0  0  0  0  0  0  0  0999 V2000
   44.5940   35.8910   44.3560 C   0  0  0  0  0  0  0  0  0  0  0  0
   45.2090   35.7590   43.1040 C   0  0  0  0  0  0  0  0  0  0  0  0
   46.1230   34.7280   42.9030 C   0  0  0  0  0  0  0  0  0  0  0  0
   46.3660   33.9040   43.9460 N   0  0  0  0  0  0  0  0  0  0  0  0
   45.7710   34.0380   45.1520 C   0  0  0  0  0  0  0  0  0  0  0  0
   44.8790   35.0350   45.3610 N   0  0  0  0  0  0  0  0  0  0  0  0
   46.0070   33.1890   46.2580 N   0  0  0  0  0  0  0  0  0  0  0  0
   46.9750   32.2660   46.2150 C   0  0  0  0  0  0  0  0  0  0  0  0
   47.1690   31.4640   47.3140 C   0  0  0  0  0  0  0  0  0  0  0  0
   46.3880   31.5970   48.4460 C   0  0  0  0  0  0  0  0  0  0  0  0
   46.5760   30.7720   49.5920 N   0  0  0  0  0  0  0  0  0  0  0  0
   45.4330   32.5360   48.4390 N   0  0  0  0  0  0  0  0  0  0  0  0
   45.2330   33.3330   47.3610 C   0  0  0  0  0  0  0  0  0  0  0  0
   44.3360   34.2160   47.3530 O   0  0  0  0  0  0  0  0  0  0  0  0
   48.1570   30.4430   47.3680 N   0  0  0  0  0  0  0  0  0  0  0  0
   47.8640   29.0750   47.1270 C   0  0  0  0  0  0  0  0  0  0  0  0
   47.2030   28.7650   46.0760 N   0  0  0  0  0  0  0  0  0  0  0  0
   48.3180   28.0540   48.0430 N   0  0  0  0  0  0  0  0  0  0  0  0
   46.8530   29.4140   45.3710 H   0  0  0  0  0  0  0  0  0  0  0  0
   43.8699   36.7021   44.5225 H   0  0  0  0  0  0  0  0  0  0  0  0
   44.9728   36.4607   42.2905 H   0  0  0  0  0  0  0  0  0  0  0  0
   46.6266   34.5900   41.9348 H   0  0  0  0  0  0  0  0  0  0  0  0
   47.6023   32.1516   45.3187 H   0  0  0  0  0  0  0  0  0  0  0  0
   45.9766   30.8967   50.4203 H   0  0  0  0  0  0  0  0  0  0  0  0
   47.3113   30.0508   49.5923 H   0  0  0  0  0  0  0  0  0  0  0  0
   49.1271   30.7073   47.5916 H   0  0  0  0  0  0  0  0  0  0  0  0
   48.1005   27.0640   47.8597 H   0  0  0  0  0  0  0  0  0  0  0  0
   48.8591   28.3161   48.8793 H   0  0  0  0  0  0  0  0  0  0  0  0
  1  6  2  0
  2  1  1  0
  3  2  2  0
  3  4  1  0
  4  5  2  0
  5  6  1  0
  5  7  1  0
  7 13  1  0
  8  7  1  0
  8  9  2  0
  9 15  1  0
  9 10  1  0
 10 11  1  0
 12 10  2  0
 13 12  1  0
 14 13  2  0
 16 15  1  0
 16 18  1  0
 17 16  2  0
 19 17  1  0
  1 20  1  0
  2 21  1  0
  3 22  1  0
  8 23  1  0
 11 24  1  0
 11 25  1  0
 15 26  1  0
 18 27  1  0
 18 28  1  0
M  ISO  4  20  14  21  14  22  14  23  14
M  END
>  <minimizedAffinity>  (1) 
-5.63902855

>  <minimizedRMSD>  (1) 
0.322668076

$$$$
