
     RDKit          3D

 33 35  0  0  0  0  0  0  0  0999 V2000
   44.6580   35.9520   44.3630 C   0  0  0  0  0  0  0  0  0  0  0  0
   45.3230   35.8190   43.1370 C   0  0  0  0  0  0  0  0  0  0  0  0
   46.2500   34.7670   42.9620 C   0  0  0  0  0  0  0  0  0  0  0  0
   46.4470   33.9320   44.0040 N   0  0  0  0  0  0  0  0  0  0  0  0
   45.7880   34.0840   45.1840 C   0  0  0  0  0  0  0  0  0  0  0  0
   44.9070   35.0780   45.3600 N   0  0  0  0  0  0  0  0  0  0  0  0
   45.9880   33.2110   46.2890 N   0  0  0  0  0  0  0  0  0  0  0  0
   46.9640   32.2800   46.2670 C   0  0  0  0  0  0  0  0  0  0  0  0
   47.0930   31.4670   47.3870 C   0  0  0  0  0  0  0  0  0  0  0  0
   46.2600   31.6000   48.4830 C   0  0  0  0  0  0  0  0  0  0  0  0
   46.4080   30.7600   49.6150 N   0  0  0  0  0  0  0  0  0  0  0  0
   45.3030   32.5480   48.4460 N   0  0  0  0  0  0  0  0  0  0  0  0
   45.1610   33.3550   47.3560 C   0  0  0  0  0  0  0  0  0  0  0  0
   44.2650   34.2500   47.3120 O   0  0  0  0  0  0  0  0  0  0  0  0
   48.1300   30.4890   47.3480 N   0  0  0  0  0  0  0  0  0  0  0  0
   48.0770   29.4770   46.3120 C   0  0  0  0  0  0  0  0  0  0  0  0
   49.3350   28.7320   46.1000 C   0  0  0  0  0  0  0  0  0  0  0  0
   50.3590   28.8840   47.0760 N   0  0  0  0  0  0  0  0  0  0  0  0
   49.8770   29.2190   48.3950 C   0  0  0  0  0  0  0  0  0  0  0  0
   49.1920   30.5650   48.3600 C   0  0  0  0  0  0  0  0  0  0  0  0
   43.9346   36.7671   44.5122 H   0  0  0  0  0  0  0  0  0  0  0  0
   45.1253   36.5268   42.3185 H   0  0  0  0  0  0  0  0  0  0  0  0
   46.7903   34.6337   42.0131 H   0  0  0  0  0  0  0  0  0  0  0  0
   47.6301   32.1689   45.3987 H   0  0  0  0  0  0  0  0  0  0  0  0
   45.7802   30.8707   50.4240 H   0  0  0  0  0  0  0  0  0  0  0  0
   47.1433   30.0389   49.6286 H   0  0  0  0  0  0  0  0  0  0  0  0
   47.1671   29.2782   45.7266 H   0  0  0  0  0  0  0  0  0  0  0  0
   49.4746   28.0848   45.2216 H   0  0  0  0  0  0  0  0  0  0  0  0
   51.3590   28.7652   46.8599 H   0  0  0  0  0  0  0  0  0  0  0  0
   49.1613   28.4530   48.7282 H   0  0  0  0  0  0  0  0  0  0  0  0
   50.7258   29.2602   49.0935 H   0  0  0  0  0  0  0  0  0  0  0  0
   49.9151   31.3483   48.0887 H   0  0  0  0  0  0  0  0  0  0  0  0
   48.7729   30.8142   49.3460 H   0  0  0  0  0  0  0  0  0  0  0  0
  1  6  2  0
  2  1  1  0
  3  2  2  0
  3  4  1  0
  4  5  2  0
  5  6  1  0
  5  7  1  0
  7 13  1  0
  8  7  1  0
  8  9  2  0
  9 10  1  0
 10 11  1  0
 12 10  2  0
 13 12  1  0
 14 13  2  0
 15  9  1  0
 15 20  1  0
 16 15  1  0
 17 16  2  0
 17 18  1  0
 18 19  1  0
 20 19  1  0
  1 21  1  0
  2 22  1  0
  3 23  1  0
  8 24  1  0
 11 25  1  0
 11 26  1  0
 16 27  1  0
 17 28  1  0
 18 29  1  0
 19 30  1  0
 19 31  1  0
 20 32  1  0
 20 33  1  0
M  ISO  8  21  14  22  14  23  14  24  14  27  13  28  13  30  13  31  13
M  ISO  2  32  13  33  13
M  END
>  <minimizedAffinity>  (1) 
-5.61075735

>  <minimizedRMSD>  (1) 
0.348601341

$$$$
