
     RDKit          3D

 27 29  0  0  0  0  0  0  0  0999 V2000
   44.6360   35.9330   44.3900 C   0  0  0  0  0  0  0  0  0  0  0  0
   45.2590   35.8010   43.1200 C   0  0  0  0  0  0  0  0  0  0  0  0
   46.1500   34.7500   42.9280 C   0  0  0  0  0  0  0  0  0  0  0  0
   46.3870   33.9020   43.9540 N   0  0  0  0  0  0  0  0  0  0  0  0
   45.7730   34.0560   45.1620 C   0  0  0  0  0  0  0  0  0  0  0  0
   44.9110   35.0580   45.3740 N   0  0  0  0  0  0  0  0  0  0  0  0
   46.0050   33.1760   46.2580 N   0  0  0  0  0  0  0  0  0  0  0  0
   46.9720   32.2480   46.1950 C   0  0  0  0  0  0  0  0  0  0  0  0
   47.1260   31.4320   47.3130 C   0  0  0  0  0  0  0  0  0  0  0  0
   46.3470   31.5470   48.4350 C   0  0  0  0  0  0  0  0  0  0  0  0
   46.5210   30.7080   49.5630 N   0  0  0  0  0  0  0  0  0  0  0  0
   45.4010   32.4950   48.4330 N   0  0  0  0  0  0  0  0  0  0  0  0
   45.2120   33.3160   47.3650 C   0  0  0  0  0  0  0  0  0  0  0  0
   44.3250   34.2130   47.3450 O   0  0  0  0  0  0  0  0  0  0  0  0
   48.1490   30.4330   47.2740 N   0  0  0  0  0  0  0  0  0  0  0  0
   48.3380   29.4820   46.3470 C   0  0  0  0  0  0  0  0  0  0  0  0
   49.4110   28.7280   46.6580 N   0  0  0  0  0  0  0  0  0  0  0  0
   49.8610   29.2700   47.8160 C   0  0  0  0  0  0  0  0  0  0  0  0
   49.0790   30.3200   48.1890 N   0  0  0  0  0  0  0  0  0  0  0  0
   43.9260   36.7539   44.5693 H   0  0  0  0  0  0  0  0  0  0  0  0
   45.0423   36.5119   42.3090 H   0  0  0  0  0  0  0  0  0  0  0  0
   46.6524   34.6115   41.9593 H   0  0  0  0  0  0  0  0  0  0  0  0
   47.6103   32.1374   45.3060 H   0  0  0  0  0  0  0  0  0  0  0  0
   45.9165   30.8236   50.3889 H   0  0  0  0  0  0  0  0  0  0  0  0
   47.2520   29.9824   49.5573 H   0  0  0  0  0  0  0  0  0  0  0  0
   47.7062   29.3378   45.4582 H   0  0  0  0  0  0  0  0  0  0  0  0
   50.7367   28.9111   48.3767 H   0  0  0  0  0  0  0  0  0  0  0  0
  1  6  2  0
  2  1  1  0
  3  2  2  0
  3  4  1  0
  4  5  2  0
  5  6  1  0
  5  7  1  0
  7 13  1  0
  8  7  1  0
  8  9  2  0
  9 10  1  0
 10 11  1  0
 12 10  2  0
 13 12  1  0
 14 13  2  0
 15  9  1  0
 15 19  1  0
 16 17  2  0
 16 15  1  0
 17 18  1  0
 18 19  2  0
  1 20  1  0
  2 21  1  0
  3 22  1  0
  8 23  1  0
 11 24  1  0
 11 25  1  0
 16 26  1  0
 18 27  1  0
M  ISO  6  20  14  21  14  22  14  23  14  26  14  27  14
M  END
>  <minimizedAffinity>  (1) 
-5.60507202

>  <minimizedRMSD>  (1) 
0.224460408

$$$$
