
     RDKit          3D

 22 23  0  0  0  0  0  0  0  0999 V2000
   44.5690   35.9130   44.4080 C   0  0  0  0  0  0  0  0  0  0  0  0
   45.1810   35.8180   43.1490 C   0  0  0  0  0  0  0  0  0  0  0  0
   46.1070   34.8000   42.9240 C   0  0  0  0  0  0  0  0  0  0  0  0
   46.3630   33.9530   43.9480 N   0  0  0  0  0  0  0  0  0  0  0  0
   45.7650   34.0590   45.1530 C   0  0  0  0  0  0  0  0  0  0  0  0
   44.8780   35.0290   45.3770 N   0  0  0  0  0  0  0  0  0  0  0  0
   46.0200   33.1790   46.2420 N   0  0  0  0  0  0  0  0  0  0  0  0
   46.9970   32.2600   46.1550 C   0  0  0  0  0  0  0  0  0  0  0  0
   47.1880   31.4400   47.2480 C   0  0  0  0  0  0  0  0  0  0  0  0
   46.4290   31.5410   48.3860 C   0  0  0  0  0  0  0  0  0  0  0  0
   46.6140   30.7060   49.5160 N   0  0  0  0  0  0  0  0  0  0  0  0
   45.4690   32.4770   48.4110 N   0  0  0  0  0  0  0  0  0  0  0  0
   45.2380   33.3090   47.3640 C   0  0  0  0  0  0  0  0  0  0  0  0
   44.3440   34.1960   47.3630 O   0  0  0  0  0  0  0  0  0  0  0  0
   48.1760   30.4600   47.2500 O   0  0  0  0  0  0  0  0  0  0  0  0
   43.8364   36.7097   44.6042 H   0  0  0  0  0  0  0  0  0  0  0  0
   44.9343   36.5351   42.3522 H   0  0  0  0  0  0  0  0  0  0  0  0
   46.6099   34.6897   41.9519 H   0  0  0  0  0  0  0  0  0  0  0  0
   47.6174   32.1658   45.2515 H   0  0  0  0  0  0  0  0  0  0  0  0
   46.0162   30.8234   50.3465 H   0  0  0  0  0  0  0  0  0  0  0  0
   47.3463   29.9817   49.5068 H   0  0  0  0  0  0  0  0  0  0  0  0
   48.2976   29.8813   48.0440 H   0  0  0  0  0  0  0  0  0  0  0  0
  1  6  2  0
  2  1  1  0
  3  2  2  0
  3  4  1  0
  4  5  2  0
  5  6  1  0
  5  7  1  0
  7 13  1  0
  8  7  1  0
  8  9  2  0
  9 15  1  0
  9 10  1  0
 10 12  2  0
 10 11  1  0
 13 12  1  0
 14 13  2  0
  1 16  1  0
  2 17  1  0
  3 18  1  0
  8 19  1  0
 11 20  1  0
 11 21  1  0
 15 22  1  0
M  ISO  5  16  14  17  14  18  14  19  14  22   3
M  END
>  <minimizedAffinity>  (1) 
-5.39511824

>  <minimizedRMSD>  (1) 
0.101174474

$$$$
