
     RDKit          3D

 40 42  0  0  1  0  0  0  0  0999 V2000
   44.6360   35.9490   44.3280 C   0  0  0  0  0  0  0  0  0  0  0  0
   45.2600   35.7660   43.0680 C   0  0  0  0  0  0  0  0  0  0  0  0
   46.1300   34.7000   42.8880 C   0  0  0  0  0  0  0  0  0  0  0  0
   46.3460   33.8730   43.9400 N   0  0  0  0  0  0  0  0  0  0  0  0
   45.7450   34.0540   45.1380 C   0  0  0  0  0  0  0  0  0  0  0  0
   44.8970   35.0850   45.3300 N   0  0  0  0  0  0  0  0  0  0  0  0
   45.9550   33.2010   46.2580 N   0  0  0  0  0  0  0  0  0  0  0  0
   46.8920   32.2300   46.1970 C   0  0  0  0  0  0  0  0  0  0  0  0
   47.0290   31.4400   47.3220 C   0  0  0  0  0  0  0  0  0  0  0  0
   46.2690   31.6170   48.4440 C   0  0  0  0  0  0  0  0  0  0  0  0
   46.4050   30.8220   49.6060 N   0  0  0  0  0  0  0  0  0  0  0  0
   45.3360   32.6110   48.4570 N   0  0  0  0  0  0  0  0  0  0  0  0
   45.1750   33.4100   47.3610 C   0  0  0  0  0  0  0  0  0  0  0  0
   44.3300   34.3390   47.3230 O   0  0  0  0  0  0  0  0  0  0  0  0
   47.9960   30.3260   47.4030 C   0  0  1  0  0  0  0  0  0  0  0  0
   48.9790   30.4640   48.5060 C   0  0  0  0  0  0  0  0  0  0  0  0
   47.2150   29.0240   47.5150 C   0  0  0  0  0  0  0  0  0  0  0  0
   46.2780   28.8130   46.4520 N   0  0  0  0  0  0  0  0  0  0  0  0
   44.9560   28.7600   46.7850 C   0  0  0  0  0  0  0  0  0  0  0  0
   43.8880   28.5530   45.9420 C   0  0  0  0  0  0  0  0  0  0  0  0
   44.1780   28.3760   44.6070 C   0  0  0  0  0  0  0  0  0  0  0  0
   43.2500   28.1820   43.7880 O   0  0  0  0  0  0  0  0  0  0  0  0
   45.4730   28.4230   44.2520 N   0  0  0  0  0  0  0  0  0  0  0  0
   46.4590   28.6320   45.1360 C   0  0  0  0  0  0  0  0  0  0  0  0
   47.6220   28.6620   44.7140 O   0  0  0  0  0  0  0  0  0  0  0  0
   43.9442   36.7894   44.4870 H   0  0  0  0  0  0  0  0  0  0  0  0
   45.0564   36.4623   42.2412 H   0  0  0  0  0  0  0  0  0  0  0  0
   46.6286   34.5314   41.9221 H   0  0  0  0  0  0  0  0  0  0  0  0
   47.5117   32.0768   45.3012 H   0  0  0  0  0  0  0  0  0  0  0  0
   45.8052   30.9993   50.4244 H   0  0  0  0  0  0  0  0  0  0  0  0
   47.1038   30.0658   49.6338 H   0  0  0  0  0  0  0  0  0  0  0  0
   48.6037   30.3359   46.4862 H   0  0  0  0  0  0  0  0  0  0  0  0
   48.4585   30.3909   49.4723 H   0  0  0  0  0  0  0  0  0  0  0  0
   49.7285   29.6623   48.4317 H   0  0  0  0  0  0  0  0  0  0  0  0
   49.4787   31.4411   48.4317 H   0  0  0  0  0  0  0  0  0  0  0  0
   47.9318   28.1896   47.5149 H   0  0  0  0  0  0  0  0  0  0  0  0
   46.6321   29.0817   48.4461 H   0  0  0  0  0  0  0  0  0  0  0  0
   44.7162   28.8986   47.8496 H   0  0  0  0  0  0  0  0  0  0  0  0
   42.8537   28.5300   46.3158 H   0  0  0  0  0  0  0  0  0  0  0  0
   45.7183   28.2931   43.2601 H   0  0  0  0  0  0  0  0  0  0  0  0
  1  6  2  0
  2  1  1  0
  3  2  2  0
  3  4  1  0
  4  5  2  0
  5  6  1  0
  5  7  1  0
  7 13  1  0
  8  7  1  0
  8  9  2  0
  9 15  1  0
  9 10  1  0
 10 12  2  0
 10 11  1  0
 13 12  1  0
 14 13  2  0
 15 17  1  0
 15 16  1  0
 18 19  1  0
 18 17  1  0
 20 19  2  0
 21 20  1  0
 22 21  2  0
 23 21  1  0
 23 24  1  0
 24 18  1  0
 25 24  2  0
  1 26  1  0
  2 27  1  0
  3 28  1  0
  8 29  1  0
 11 30  1  0
 11 31  1  0
 15 32  1  6
 16 33  1  0
 16 34  1  0
 16 35  1  0
 17 36  1  0
 17 37  1  0
 19 38  1  0
 20 39  1  0
 23 40  1  0
M  ISO  8  26  14  27  14  28  14  29  14  32   8  33   8  34   8  35   8
M  ISO  5  36   8  37   8  38  14  39  14  40   9
M  END
>  <minimizedAffinity>  (1) 
-5.85442448

>  <minimizedRMSD>  (1) 
0.537622333

$$$$
