
     RDKit          3D

 38 40  0  0  1  0  0  0  0  0999 V2000
   44.6620   36.0030   44.3370 C   0  0  0  0  0  0  0  0  0  0  0  0
   45.2350   35.8140   43.0690 C   0  0  0  0  0  0  0  0  0  0  0  0
   46.0590   34.7160   42.8580 C   0  0  0  0  0  0  0  0  0  0  0  0
   46.2720   33.8730   43.8980 N   0  0  0  0  0  0  0  0  0  0  0  0
   45.7140   34.0690   45.1130 C   0  0  0  0  0  0  0  0  0  0  0  0
   44.9090   35.1330   45.3340 N   0  0  0  0  0  0  0  0  0  0  0  0
   45.9200   33.2030   46.2200 N   0  0  0  0  0  0  0  0  0  0  0  0
   46.8470   32.2240   46.1490 C   0  0  0  0  0  0  0  0  0  0  0  0
   46.9830   31.4260   47.2690 C   0  0  0  0  0  0  0  0  0  0  0  0
   46.2370   31.5980   48.3920 C   0  0  0  0  0  0  0  0  0  0  0  0
   46.3800   30.7940   49.5500 N   0  0  0  0  0  0  0  0  0  0  0  0
   45.3120   32.6000   48.4200 N   0  0  0  0  0  0  0  0  0  0  0  0
   45.1550   33.4050   47.3270 C   0  0  0  0  0  0  0  0  0  0  0  0
   44.3140   34.3430   47.3110 O   0  0  0  0  0  0  0  0  0  0  0  0
   47.9600   30.3090   47.3280 C   0  0  1  0  0  0  0  0  0  0  0  0
   49.0100   30.5040   48.3640 C   0  0  0  0  0  0  0  0  0  0  0  0
   47.1890   29.0260   47.5520 C   0  0  0  0  0  0  0  0  0  0  0  0
   46.4560   28.7440   46.2730 C   0  0  0  0  0  0  0  0  0  0  0  0
   45.1050   28.5850   46.1530 C   0  0  0  0  0  0  0  0  0  0  0  0
   44.4600   28.3280   44.9850 C   0  0  0  0  0  0  0  0  0  0  0  0
   45.1990   28.2180   43.8590 N   0  0  0  0  0  0  0  0  0  0  0  0
   46.5550   28.3670   43.9250 C   0  0  0  0  0  0  0  0  0  0  0  0
   47.1420   28.6210   45.1060 N   0  0  0  0  0  0  0  0  0  0  0  0
   44.0067   36.8680   44.5168 H   0  0  0  0  0  0  0  0  0  0  0  0
   45.0341   36.5254   42.2544 H   0  0  0  0  0  0  0  0  0  0  0  0
   46.5242   34.5361   41.8776 H   0  0  0  0  0  0  0  0  0  0  0  0
   47.4604   32.0700   45.2490 H   0  0  0  0  0  0  0  0  0  0  0  0
   45.7876   30.9684   50.3744 H   0  0  0  0  0  0  0  0  0  0  0  0
   47.0763   30.0352   49.5674 H   0  0  0  0  0  0  0  0  0  0  0  0
   48.5070   30.2670   46.3746 H   0  0  0  0  0  0  0  0  0  0  0  0
   48.5588   30.4202   49.3637 H   0  0  0  0  0  0  0  0  0  0  0  0
   49.7877   29.7349   48.2471 H   0  0  0  0  0  0  0  0  0  0  0  0
   49.4597   31.5010   48.2471 H   0  0  0  0  0  0  0  0  0  0  0  0
   47.8801   28.2023   47.7841 H   0  0  0  0  0  0  0  0  0  0  0  0
   46.4927   29.1214   48.3982 H   0  0  0  0  0  0  0  0  0  0  0  0
   44.4966   28.6710   47.0654 H   0  0  0  0  0  0  0  0  0  0  0  0
   43.3664   28.2127   44.9568 H   0  0  0  0  0  0  0  0  0  0  0  0
   47.1646   28.2792   43.0136 H   0  0  0  0  0  0  0  0  0  0  0  0
  1  6  2  0
  2  1  1  0
  3  2  2  0
  3  4  1  0
  4  5  2  0
  5  6  1  0
  5  7  1  0
  7 13  1  0
  8  7  1  0
  8  9  2  0
  9 15  1  0
  9 10  1  0
 10 12  2  0
 10 11  1  0
 13 12  1  0
 14 13  2  0
 15 17  1  0
 15 16  1  0
 18 17  1  0
 19 18  2  0
 20 19  1  0
 21 22  1  0
 21 20  2  0
 22 23  2  0
 23 18  1  0
  1 24  1  0
  2 25  1  0
  3 26  1  0
  8 27  1  0
 11 28  1  0
 11 29  1  0
 15 30  1  6
 16 31  1  0
 16 32  1  0
 16 33  1  0
 17 34  1  0
 17 35  1  0
 19 36  1  0
 20 37  1  0
 22 38  1  0
M  ISO  8  24  14  25  14  26  14  27  14  30   8  31   8  32   8  33   8
M  ISO  5  34   8  35   8  36  14  37  14  38  14
M  END
>  <minimizedAffinity>  (1) 
-5.39870167

>  <minimizedRMSD>  (1) 
0.397510409

$$$$
