
     RDKit          3D

 35 37  0  0  1  0  0  0  0  0999 V2000
   44.6380   35.9450   44.3760 C   0  0  0  0  0  0  0  0  0  0  0  0
   45.2380   35.7820   43.1100 C   0  0  0  0  0  0  0  0  0  0  0  0
   46.1030   34.7170   42.9040 C   0  0  0  0  0  0  0  0  0  0  0  0
   46.3320   33.8760   43.9420 N   0  0  0  0  0  0  0  0  0  0  0  0
   45.7550   34.0410   45.1480 C   0  0  0  0  0  0  0  0  0  0  0  0
   44.9070   35.0740   45.3700 N   0  0  0  0  0  0  0  0  0  0  0  0
   45.9770   33.1690   46.2520 N   0  0  0  0  0  0  0  0  0  0  0  0
   46.9060   32.2200   46.1920 C   0  0  0  0  0  0  0  0  0  0  0  0
   47.0700   31.4060   47.2920 C   0  0  0  0  0  0  0  0  0  0  0  0
   46.3130   31.5540   48.4110 C   0  0  0  0  0  0  0  0  0  0  0  0
   46.4600   30.7370   49.5570 N   0  0  0  0  0  0  0  0  0  0  0  0
   45.3710   32.5360   48.4410 N   0  0  0  0  0  0  0  0  0  0  0  0
   45.2030   33.3480   47.3560 C   0  0  0  0  0  0  0  0  0  0  0  0
   44.3390   34.2700   47.3430 O   0  0  0  0  0  0  0  0  0  0  0  0
   48.0720   30.3140   47.3290 C   0  0  1  0  0  0  0  0  0  0  0  0
   49.0570   30.4680   48.4390 C   0  0  0  0  0  0  0  0  0  0  0  0
   47.3280   29.0130   47.4700 C   0  0  0  0  0  0  0  0  0  0  0  0
   46.5090   28.7250   46.2490 C   0  0  0  0  0  0  0  0  0  0  0  0
   46.7110   28.5510   44.9300 N   0  0  0  0  0  0  0  0  0  0  0  0
   45.5810   28.3240   44.3580 O   0  0  0  0  0  0  0  0  0  0  0  0
   44.6050   28.3380   45.2520 C   0  0  0  0  0  0  0  0  0  0  0  0
   45.1710   28.5910   46.4580 N   0  0  0  0  0  0  0  0  0  0  0  0
   43.9493   36.7842   44.5530 H   0  0  0  0  0  0  0  0  0  0  0  0
   45.0229   36.4903   42.2963 H   0  0  0  0  0  0  0  0  0  0  0  0
   46.5877   34.5601   41.9291 H   0  0  0  0  0  0  0  0  0  0  0  0
   47.5248   32.0885   45.2921 H   0  0  0  0  0  0  0  0  0  0  0  0
   45.8600   30.8913   50.3799 H   0  0  0  0  0  0  0  0  0  0  0  0
   47.1670   29.9880   49.5683 H   0  0  0  0  0  0  0  0  0  0  0  0
   48.6565   30.3420   46.3975 H   0  0  0  0  0  0  0  0  0  0  0  0
   48.5368   30.3867   49.4048 H   0  0  0  0  0  0  0  0  0  0  0  0
   49.8190   29.6781   48.3653 H   0  0  0  0  0  0  0  0  0  0  0  0
   49.5415   31.4528   48.3653 H   0  0  0  0  0  0  0  0  0  0  0  0
   48.0528   28.1987   47.6167 H   0  0  0  0  0  0  0  0  0  0  0  0
   46.6518   29.0891   48.3343 H   0  0  0  0  0  0  0  0  0  0  0  0
   43.5354   28.1750   45.0538 H   0  0  0  0  0  0  0  0  0  0  0  0
  1  6  2  0
  2  1  1  0
  3  2  2  0
  3  4  1  0
  4  5  2  0
  5  6  1  0
  5  7  1  0
  7 13  1  0
  8  7  1  0
  8  9  2  0
  9 15  1  0
  9 10  1  0
 10 12  2  0
 10 11  1  0
 13 12  1  0
 14 13  2  0
 15 17  1  0
 15 16  1  0
 18 22  1  0
 18 17  1  0
 19 18  2  0
 20 19  1  0
 20 21  1  0
 21 22  2  0
  1 23  1  0
  2 24  1  0
  3 25  1  0
  8 26  1  0
 11 27  1  0
 11 28  1  0
 15 29  1  6
 16 30  1  0
 16 31  1  0
 16 32  1  0
 17 33  1  0
 17 34  1  0
 21 35  1  0
M  ISO  8  23  14  24  14  25  14  26  14  29   8  30   8  31   8  32   8
M  ISO  3  33   8  34   8  35  14
M  END
>  <minimizedAffinity>  (1) 
-5.3862505

>  <minimizedRMSD>  (1) 
0.220472232

$$$$
