
     RDKit          3D

 39 41  0  0  1  0  0  0  0  0999 V2000
   47.6810   34.0120   42.1770 C   0  0  2  0  0  0  0  0  0  0  0  0
   48.9550   33.5680   42.6930 C   0  0  0  0  0  0  0  0  0  0  0  0
   49.9510   34.7280   42.5340 C   0  0  0  0  0  0  0  0  0  0  0  0
   49.1880   35.9130   41.9910 C   0  0  0  0  0  0  0  0  0  0  0  0
   48.0300   35.2490   41.3240 C   0  0  1  0  0  0  0  0  0  0  0  0
   46.6380   34.4880   43.1210 C   0  0  0  0  0  0  0  0  0  0  0  0
   46.4580   33.7920   44.3180 C   0  0  0  0  0  0  0  0  0  0  0  0
   45.4970   34.2140   45.2200 C   0  0  0  0  0  0  0  0  0  0  0  0
   44.7710   35.3140   44.8630 N   0  0  0  0  0  0  0  0  0  0  0  0
   44.9620   35.9670   43.7050 C   0  0  0  0  0  0  0  0  0  0  0  0
   45.8980   35.5560   42.8280 N   0  0  0  0  0  0  0  0  0  0  0  0
   48.4190   34.8290   39.9440 C   0  0  0  0  0  0  0  0  0  0  0  0
   47.3790   33.8960   39.4060 C   0  0  0  0  0  0  0  0  0  0  0  0
   48.1110   33.1690   38.2720 C   0  0  0  0  0  0  0  0  0  0  0  0
   47.7980   33.4100   36.9450 C   0  0  0  0  0  0  0  0  0  0  0  0
   48.5090   32.7080   35.9840 C   0  0  0  0  0  0  0  0  0  0  0  0
   49.5010   31.7940   36.3070 C   0  0  0  0  0  0  0  0  0  0  0  0
   49.8050   31.5620   37.6340 C   0  0  0  0  0  0  0  0  0  0  0  0
   49.1060   32.2510   38.5870 C   0  0  0  0  0  0  0  0  0  0  0  0
   47.2394   33.1254   41.6985 H   0  0  0  0  0  0  0  0  0  0  0  0
   48.8568   33.3010   43.7556 H   0  0  0  0  0  0  0  0  0  0  0  0
   49.3053   32.6805   42.1456 H   0  0  0  0  0  0  0  0  0  0  0  0
   50.3916   34.9806   43.5097 H   0  0  0  0  0  0  0  0  0  0  0  0
   50.7659   34.4469   41.8507 H   0  0  0  0  0  0  0  0  0  0  0  0
   48.8558   36.5805   42.7998 H   0  0  0  0  0  0  0  0  0  0  0  0
   49.7793   36.5558   41.3223 H   0  0  0  0  0  0  0  0  0  0  0  0
   47.1682   35.9277   41.2429 H   0  0  0  0  0  0  0  0  0  0  0  0
   47.0777   32.9115   44.5432 H   0  0  0  0  0  0  0  0  0  0  0  0
   45.3272   33.6915   46.1730 H   0  0  0  0  0  0  0  0  0  0  0  0
   44.3467   36.8480   43.4700 H   0  0  0  0  0  0  0  0  0  0  0  0
   48.4906   35.7147   39.2956 H   0  0  0  0  0  0  0  0  0  0  0  0
   49.3945   34.3214   39.9716 H   0  0  0  0  0  0  0  0  0  0  0  0
   47.0474   33.1873   40.1792 H   0  0  0  0  0  0  0  0  0  0  0  0
   46.4689   34.4137   39.0689 H   0  0  0  0  0  0  0  0  0  0  0  0
   47.0156   34.1304   36.6642 H   0  0  0  0  0  0  0  0  0  0  0  0
   48.2772   32.8828   34.9230 H   0  0  0  0  0  0  0  0  0  0  0  0
   50.0412   31.2582   35.5126 H   0  0  0  0  0  0  0  0  0  0  0  0
   50.5878   30.8429   37.9170 H   0  0  0  0  0  0  0  0  0  0  0  0
   49.3411   32.0711   39.6464 H   0  0  0  0  0  0  0  0  0  0  0  0
  1  2  1  0
  1  6  1  0
  3  2  1  0
  4  3  1  0
  5  4  1  0
  5  1  1  0
  6  7  2  0
  7  8  1  0
  9  8  2  0
 10  9  1  0
 11  6  1  0
 11 10  2  0
 12  5  1  0
 13 12  1  0
 14 19  1  0
 14 13  1  0
 15 14  2  0
 16 17  2  0
 16 15  1  0
 17 18  1  0
 18 19  2  0
  1 20  1  6
  2 21  1  0
  2 22  1  0
  3 23  1  0
  3 24  1  0
  4 25  1  0
  4 26  1  0
  5 27  1  6
  7 28  1  0
  8 29  1  0
 10 30  1  0
 12 31  1  0
 12 32  1  0
 13 33  1  0
 13 34  1  0
 15 35  1  0
 16 36  1  0
 17 37  1  0
 18 38  1  0
 19 39  1  0
M  ISO  8  20  13  21  13  22  13  23  13  24  13  25  13  26  13  27  13
M  ISO  8  28  14  29  14  30  14  31   8  32   8  33   8  34   8  35  14
M  ISO  4  36  14  37  14  38  14  39  14
M  END
>  <minimizedAffinity>  (1) 
-5.5361042

>  <minimizedRMSD>  (1) 
6.96094799

$$$$
