
     RDKit          3D

 38 40  0  0  1  0  0  0  0  0999 V2000
   44.6010   35.8710   44.3610 C   0  0  0  0  0  0  0  0  0  0  0  0
   45.2390   35.7460   43.1180 C   0  0  0  0  0  0  0  0  0  0  0  0
   46.1730   34.7290   42.9430 C   0  0  0  0  0  0  0  0  0  0  0  0
   46.4190   33.9070   43.9870 N   0  0  0  0  0  0  0  0  0  0  0  0
   45.7970   34.0410   45.1770 C   0  0  0  0  0  0  0  0  0  0  0  0
   44.8910   35.0190   45.3630 N   0  0  0  0  0  0  0  0  0  0  0  0
   46.0330   33.1760   46.2820 N   0  0  0  0  0  0  0  0  0  0  0  0
   47.0120   32.2550   46.2280 C   0  0  0  0  0  0  0  0  0  0  0  0
   47.1590   31.4410   47.3510 C   0  0  0  0  0  0  0  0  0  0  0  0
   46.3680   31.5570   48.4450 C   0  0  0  0  0  0  0  0  0  0  0  0
   46.5200   30.7470   49.5880 N   0  0  0  0  0  0  0  0  0  0  0  0
   45.3930   32.5080   48.4460 N   0  0  0  0  0  0  0  0  0  0  0  0
   45.2220   33.3200   47.3650 C   0  0  0  0  0  0  0  0  0  0  0  0
   44.3270   34.2100   47.3390 O   0  0  0  0  0  0  0  0  0  0  0  0
   48.1900   30.3690   47.4110 C   0  0  1  0  0  0  0  0  0  0  0  0
   49.0910   30.5090   48.5790 C   0  0  0  0  0  0  0  0  0  0  0  0
   47.4630   29.0380   47.3970 C   0  0  0  0  0  0  0  0  0  0  0  0
   48.4310   27.9620   47.1020 C   0  0  0  0  0  0  0  0  0  0  0  0
   49.3320   27.7950   46.0760 C   0  0  0  0  0  0  0  0  0  0  0  0
   50.1900   26.7310   45.9700 C   0  0  0  0  0  0  0  0  0  0  0  0
   50.1960   25.7630   46.8980 N   0  0  0  0  0  0  0  0  0  0  0  0
   49.3140   25.9090   47.9220 C   0  0  0  0  0  0  0  0  0  0  0  0
   48.4800   26.9470   48.0180 N   0  0  0  0  0  0  0  0  0  0  0  0
   43.8602   36.6688   44.5181 H   0  0  0  0  0  0  0  0  0  0  0  0
   45.0054   36.4392   42.2965 H   0  0  0  0  0  0  0  0  0  0  0  0
   46.6952   34.5983   41.9837 H   0  0  0  0  0  0  0  0  0  0  0  0
   47.6612   32.1496   45.3463 H   0  0  0  0  0  0  0  0  0  0  0  0
   45.8934   30.8732   50.3957 H   0  0  0  0  0  0  0  0  0  0  0  0
   47.2577   30.0287   49.6158 H   0  0  0  0  0  0  0  0  0  0  0  0
   48.8559   30.4433   46.5386 H   0  0  0  0  0  0  0  0  0  0  0  0
   48.5062   30.4181   49.5062 H   0  0  0  0  0  0  0  0  0  0  0  0
   49.8558   29.7189   48.5489 H   0  0  0  0  0  0  0  0  0  0  0  0
   49.5800   31.4939   48.5489 H   0  0  0  0  0  0  0  0  0  0  0  0
   47.0021   28.8596   48.3797 H   0  0  0  0  0  0  0  0  0  0  0  0
   46.6783   29.0523   46.6263 H   0  0  0  0  0  0  0  0  0  0  0  0
   49.3662   28.5643   45.2905 H   0  0  0  0  0  0  0  0  0  0  0  0
   50.8801   26.6707   45.1155 H   0  0  0  0  0  0  0  0  0  0  0  0
   49.2862   25.1379   48.7060 H   0  0  0  0  0  0  0  0  0  0  0  0
  1  6  2  0
  2  1  1  0
  3  2  2  0
  3  4  1  0
  4  5  2  0
  5  6  1  0
  5  7  1  0
  7 13  1  0
  8  7  1  0
  8  9  2  0
  9 15  1  0
  9 10  1  0
 10 12  2  0
 10 11  1  0
 13 12  1  0
 14 13  2  0
 15 16  1  0
 17 15  1  0
 18 17  1  0
 18 23  1  0
 19 18  2  0
 20 19  1  0
 20 21  2  0
 21 22  1  0
 22 23  2  0
  1 24  1  0
  2 25  1  0
  3 26  1  0
  8 27  1  0
 11 28  1  0
 11 29  1  0
 15 30  1  6
 16 31  1  0
 16 32  1  0
 16 33  1  0
 17 34  1  0
 17 35  1  0
 19 36  1  0
 20 37  1  0
 22 38  1  0
M  ISO  8  24  14  25  14  26  14  27  14  30   8  31   8  32   8  33   8
M  ISO  5  34   8  35   8  36  14  37  14  38  14
M  END
>  <minimizedAffinity>  (1) 
-5.3742094

>  <minimizedRMSD>  (1) 
0.443974286

$$$$
