
     RDKit          3D

 37 39  0  0  1  0  0  0  0  0999 V2000
   44.6240   35.9050   44.3940 C   0  0  0  0  0  0  0  0  0  0  0  0
   45.2340   35.7620   43.1380 C   0  0  0  0  0  0  0  0  0  0  0  0
   46.1490   34.7130   42.9340 C   0  0  0  0  0  0  0  0  0  0  0  0
   46.3890   33.8910   43.9750 N   0  0  0  0  0  0  0  0  0  0  0  0
   45.7940   34.0390   45.1790 C   0  0  0  0  0  0  0  0  0  0  0  0
   44.9180   35.0390   45.3860 N   0  0  0  0  0  0  0  0  0  0  0  0
   46.0300   33.1690   46.2790 N   0  0  0  0  0  0  0  0  0  0  0  0
   47.0080   32.2450   46.2190 C   0  0  0  0  0  0  0  0  0  0  0  0
   47.1500   31.4340   47.3310 C   0  0  0  0  0  0  0  0  0  0  0  0
   46.3640   31.5440   48.4340 C   0  0  0  0  0  0  0  0  0  0  0  0
   46.5130   30.7230   49.5780 N   0  0  0  0  0  0  0  0  0  0  0  0
   45.3910   32.4970   48.4410 N   0  0  0  0  0  0  0  0  0  0  0  0
   45.2200   33.3140   47.3630 C   0  0  0  0  0  0  0  0  0  0  0  0
   44.3300   34.2030   47.3440 O   0  0  0  0  0  0  0  0  0  0  0  0
   48.1830   30.3640   47.3930 C   0  0  1  0  0  0  0  0  0  0  0  0
   49.1100   30.5120   48.5500 C   0  0  0  0  0  0  0  0  0  0  0  0
   47.4680   29.0350   47.4280 C   0  0  0  0  0  0  0  0  0  0  0  0
   47.0250   28.7280   46.0240 C   0  0  0  0  0  0  0  0  0  0  0  0
   47.7940   28.6350   44.8700 C   0  0  0  0  0  0  0  0  0  0  0  0
   46.9770   28.3390   43.8250 N   0  0  0  0  0  0  0  0  0  0  0  0
   45.7260   28.2440   44.2890 C   0  0  0  0  0  0  0  0  0  0  0  0
   45.7740   28.4800   45.6100 N   0  0  0  0  0  0  0  0  0  0  0  0
   43.9078   36.7213   44.5692 H   0  0  0  0  0  0  0  0  0  0  0  0
   44.9993   36.4620   42.3226 H   0  0  0  0  0  0  0  0  0  0  0  0
   46.6483   34.5694   41.9644 H   0  0  0  0  0  0  0  0  0  0  0  0
   47.6566   32.1411   45.3367 H   0  0  0  0  0  0  0  0  0  0  0  0
   45.8889   30.8495   50.3875 H   0  0  0  0  0  0  0  0  0  0  0  0
   47.2455   29.9992   49.6006 H   0  0  0  0  0  0  0  0  0  0  0  0
   48.8240   30.4372   46.5021 H   0  0  0  0  0  0  0  0  0  0  0  0
   48.5429   30.4215   49.4882 H   0  0  0  0  0  0  0  0  0  0  0  0
   49.8774   29.7250   48.5080 H   0  0  0  0  0  0  0  0  0  0  0  0
   49.5942   31.4988   48.5080 H   0  0  0  0  0  0  0  0  0  0  0  0
   48.1497   28.2502   47.7876 H   0  0  0  0  0  0  0  0  0  0  0  0
   46.6048   29.0752   48.1086 H   0  0  0  0  0  0  0  0  0  0  0  0
   48.8832   28.7774   44.8121 H   0  0  0  0  0  0  0  0  0  0  0  0
   44.8263   28.0153   43.6988 H   0  0  0  0  0  0  0  0  0  0  0  0
   44.9510   28.4716   46.2292 H   0  0  0  0  0  0  0  0  0  0  0  0
  1  6  2  0
  2  1  1  0
  3  2  2  0
  3  4  1  0
  4  5  2  0
  5  6  1  0
  5  7  1  0
  7 13  1  0
  8  7  1  0
  8  9  2  0
  9 15  1  0
  9 10  1  0
 10 12  2  0
 10 11  1  0
 13 12  1  0
 14 13  2  0
 15 17  1  0
 15 16  1  0
 18 17  1  0
 19 18  2  0
 20 21  2  0
 20 19  1  0
 21 22  1  0
 22 18  1  0
  1 23  1  0
  2 24  1  0
  3 25  1  0
  8 26  1  0
 11 27  1  0
 11 28  1  0
 15 29  1  6
 16 30  1  0
 16 31  1  0
 16 32  1  0
 17 33  1  0
 17 34  1  0
 19 35  1  0
 21 36  1  0
 22 37  1  0
M  ISO  8  23  14  24  14  25  14  26  14  29   8  30   8  31   8  32   8
M  ISO  5  33   8  34   8  35  14  36  14  37   9
M  END
>  <minimizedAffinity>  (1) 
-5.28465414

>  <minimizedRMSD>  (1) 
0.39115265

$$$$
