
     RDKit          3D

 37 39  0  0  1  0  0  0  0  0999 V2000
   44.6250   35.9400   44.4210 C   0  0  0  0  0  0  0  0  0  0  0  0
   45.1840   35.7830   43.1380 C   0  0  0  0  0  0  0  0  0  0  0  0
   46.0400   34.7080   42.8940 C   0  0  0  0  0  0  0  0  0  0  0  0
   46.2940   33.8560   43.9160 N   0  0  0  0  0  0  0  0  0  0  0  0
   45.7480   34.0210   45.1430 C   0  0  0  0  0  0  0  0  0  0  0  0
   44.9140   35.0590   45.4000 N   0  0  0  0  0  0  0  0  0  0  0  0
   46.0010   33.1360   46.2300 N   0  0  0  0  0  0  0  0  0  0  0  0
   46.9530   32.1960   46.1420 C   0  0  0  0  0  0  0  0  0  0  0  0
   47.1280   31.3830   47.2420 C   0  0  0  0  0  0  0  0  0  0  0  0
   46.3840   31.5080   48.3730 C   0  0  0  0  0  0  0  0  0  0  0  0
   46.5620   30.6840   49.5110 N   0  0  0  0  0  0  0  0  0  0  0  0
   45.4270   32.4750   48.4230 N   0  0  0  0  0  0  0  0  0  0  0  0
   45.2320   33.2940   47.3490 C   0  0  0  0  0  0  0  0  0  0  0  0
   44.3550   34.2020   47.3560 O   0  0  0  0  0  0  0  0  0  0  0  0
   48.1380   30.2950   47.2640 C   0  0  1  0  0  0  0  0  0  0  0  0
   49.0100   30.3260   48.4700 C   0  0  0  0  0  0  0  0  0  0  0  0
   47.3970   28.9760   47.1550 C   0  0  0  0  0  0  0  0  0  0  0  0
   48.3350   27.8960   47.6590 C   0  0  0  0  0  0  0  0  0  0  0  0
   47.7120   26.5070   47.7780 C   0  0  0  0  0  0  0  0  0  0  0  0
   48.8170   26.8020   46.8180 C   0  0  0  0  0  0  0  0  0  0  0  0
   43.9502   36.7844   44.6252 H   0  0  0  0  0  0  0  0  0  0  0  0
   44.9486   36.4995   42.3372 H   0  0  0  0  0  0  0  0  0  0  0  0
   46.4939   34.5574   41.9034 H   0  0  0  0  0  0  0  0  0  0  0  0
   47.5652   32.0789   45.2356 H   0  0  0  0  0  0  0  0  0  0  0  0
   45.9709   30.8207   50.3433 H   0  0  0  0  0  0  0  0  0  0  0  0
   47.2826   29.9480   49.5063 H   0  0  0  0  0  0  0  0  0  0  0  0
   48.8229   30.4312   46.4141 H   0  0  0  0  0  0  0  0  0  0  0  0
   48.3851   30.3038   49.3750 H   0  0  0  0  0  0  0  0  0  0  0  0
   49.6766   29.4510   48.4631 H   0  0  0  0  0  0  0  0  0  0  0  0
   49.6127   31.2461   48.4631 H   0  0  0  0  0  0  0  0  0  0  0  0
   46.4861   29.0026   47.7711 H   0  0  0  0  0  0  0  0  0  0  0  0
   47.0962   28.7801   46.1152 H   0  0  0  0  0  0  0  0  0  0  0  0
   48.8678   28.6195   48.2936 H   0  0  0  0  0  0  0  0  0  0  0  0
   47.8993   25.8882   48.6680 H   0  0  0  0  0  0  0  0  0  0  0  0
   46.6973   26.0878   47.7101 H   0  0  0  0  0  0  0  0  0  0  0  0
   48.6099   26.8147   45.7377 H   0  0  0  0  0  0  0  0  0  0  0  0
   49.8068   26.3595   46.6321 H   0  0  0  0  0  0  0  0  0  0  0  0
  1  6  2  0
  2  1  1  0
  3  2  2  0
  3  4  1  0
  4  5  2  0
  5  6  1  0
  5  7  1  0
  7 13  1  0
  8  7  1  0
  8  9  2  0
  9 15  1  0
  9 10  1  0
 10 12  2  0
 10 11  1  0
 13 14  2  0
 13 12  1  0
 15 16  1  0
 17 15  1  0
 17 18  1  0
 18 19  1  0
 20 18  1  0
 20 19  1  0
  1 21  1  0
  2 22  1  0
  3 23  1  0
  8 24  1  0
 11 25  1  0
 11 26  1  0
 15 27  1  6
 16 28  1  0
 16 29  1  0
 16 30  1  0
 17 31  1  0
 17 32  1  0
 18 33  1  0
 19 34  1  0
 19 35  1  0
 20 36  1  0
 20 37  1  0
M  ISO  8  21  14  22  14  23  14  24  14  27   8  28   8  29   8  30   8
M  ISO  7  31   8  32   8  33  13  34  13  35  13  36  13  37  13
M  END
>  <minimizedAffinity>  (1) 
-5.27273369

>  <minimizedRMSD>  (1) 
1.29681373

$$$$
