
     RDKit          3D

 43 46  0  0  1  0  0  0  0  0999 V2000
   46.4750   34.5550   42.1060 C   0  0  0  0  0  0  0  0  0  0  0  0
   47.6340   35.2330   41.8410 C   0  0  0  0  0  0  0  0  0  0  0  0
   48.3270   35.0620   40.6410 C   0  0  0  0  0  0  0  0  0  0  0  0
   47.8200   34.1680   39.6770 C   0  0  0  0  0  0  0  0  0  0  0  0
   46.6430   33.4840   39.9520 C   0  0  0  0  0  0  0  0  0  0  0  0
   46.0040   33.6900   41.1470 C   0  0  0  0  0  0  0  0  0  0  0  0
   44.7920   32.9700   41.4030 N   0  0  0  0  0  0  0  0  0  0  0  0
   44.6490   31.8410   42.1550 C   0  0  0  0  0  0  0  0  0  0  0  0
   43.4060   31.2860   42.2930 C   0  0  0  0  0  0  0  0  0  0  0  0
   42.2920   31.8280   41.7000 C   0  0  0  0  0  0  0  0  0  0  0  0
   41.1810   31.2690   41.8670 O   0  0  0  0  0  0  0  0  0  0  0  0
   42.4780   32.9570   40.9580 N   0  0  0  0  0  0  0  0  0  0  0  0
   43.6940   33.5030   40.8210 C   0  0  0  0  0  0  0  0  0  0  0  0
   43.7150   34.5460   40.1060 O   0  0  0  0  0  0  0  0  0  0  0  0
   41.0150   36.0190   38.9640 N   0  0  0  0  0  0  0  0  0  0  0  0
   40.6990   35.9970   40.3590 C   0  0  0  0  0  0  0  0  0  0  0  0
   40.7300   34.7040   41.0560 C   0  0  0  0  0  0  0  0  0  0  0  0
   41.2880   33.5210   40.3340 C   0  0  1  0  0  0  0  0  0  0  0  0
   41.5320   33.7460   38.8650 C   0  0  0  0  0  0  0  0  0  0  0  0
   40.6140   34.8080   38.2930 C   0  0  0  0  0  0  0  0  0  0  0  0
   44.4000   35.9780   44.9070 C   0  0  0  0  0  0  0  0  0  0  0  0
   44.9740   35.8450   43.6320 C   0  0  0  0  0  0  0  0  0  0  0  0
   45.8250   34.7960   43.3800 C   0  0  0  0  0  0  0  0  0  0  0  0
   46.0880   33.9070   44.3900 N   0  0  0  0  0  0  0  0  0  0  0  0
   45.5190   34.0580   45.6210 C   0  0  0  0  0  0  0  0  0  0  0  0
   44.6870   35.0780   45.8770 N   0  0  0  0  0  0  0  0  0  0  0  0
   48.0300   35.9311   42.5933 H   0  0  0  0  0  0  0  0  0  0  0  0
   49.2568   35.6180   40.4506 H   0  0  0  0  0  0  0  0  0  0  0  0
   48.3470   34.0146   38.7237 H   0  0  0  0  0  0  0  0  0  0  0  0
   46.2262   32.7813   39.2154 H   0  0  0  0  0  0  0  0  0  0  0  0
   45.5214   31.3828   42.6440 H   0  0  0  0  0  0  0  0  0  0  0  0
   43.2951   30.3749   42.8994 H   0  0  0  0  0  0  0  0  0  0  0  0
   41.4765   36.8101   38.4927 H   0  0  0  0  0  0  0  0  0  0  0  0
   40.4401   36.9221   40.8948 H   0  0  0  0  0  0  0  0  0  0  0  0
   40.3515   34.6092   42.0845 H   0  0  0  0  0  0  0  0  0  0  0  0
   40.4792   32.7803   40.4195 H   0  0  0  0  0  0  0  0  0  0  0  0
   42.5753   34.0644   38.7230 H   0  0  0  0  0  0  0  0  0  0  0  0
   41.3289   32.8019   38.3383 H   0  0  0  0  0  0  0  0  0  0  0  0
   40.7531   34.8998   37.2057 H   0  0  0  0  0  0  0  0  0  0  0  0
   39.5503   34.5732   38.4463 H   0  0  0  0  0  0  0  0  0  0  0  0
   43.7168   36.8140   45.1176 H   0  0  0  0  0  0  0  0  0  0  0  0
   44.7441   36.5747   42.8416 H   0  0  0  0  0  0  0  0  0  0  0  0
   45.7463   33.3319   46.4155 H   0  0  0  0  0  0  0  0  0  0  0  0
  1 23  1  0
  2  1  2  0
  3  2  1  0
  4  5  1  0
  4  3  2  0
  5  6  2  0
  6  7  1  0
  6  1  1  0
  7  8  1  0
  8  9  2  0
 10 11  2  0
 10  9  1  0
 12 10  1  0
 13 12  1  0
 13  7  1  0
 14 13  2  0
 15 16  1  0
 16 17  2  0
 18 19  1  0
 18 12  1  0
 18 17  1  0
 20 19  1  0
 20 15  1  0
 21 26  2  0
 22 21  1  0
 23 22  2  0
 23 24  1  0
 24 25  2  0
 25 26  1  0
  2 27  1  0
  3 28  1  0
  4 29  1  0
  5 30  1  0
  8 31  1  0
  9 32  1  0
 15 33  1  0
 16 34  1  0
 17 35  1  0
 18 36  1  6
 19 37  1  0
 19 38  1  0
 20 39  1  0
 20 40  1  0
 21 41  1  0
 22 42  1  0
 25 43  1  0
M  ISO  8  27  14  28  14  29  14  30  14  31  14  32  14  34  13  35  13
M  ISO  8  36  13  37  13  38  13  39  13  40  13  41  14  42  14  43  14
M  END
>  <minimizedAffinity>  (1) 
-6.9777832

>  <minimizedRMSD>  (1) 
0.697924137

$$$$
