
     RDKit          3D

 36 38  0  0  0  0  0  0  0  0999 V2000
   46.5240   34.6270   42.1160 C   0  0  0  0  0  0  0  0  0  0  0  0
   47.7490   35.2020   41.9280 C   0  0  0  0  0  0  0  0  0  0  0  0
   48.4740   35.0540   40.7400 C   0  0  0  0  0  0  0  0  0  0  0  0
   47.9080   34.2830   39.7100 C   0  0  0  0  0  0  0  0  0  0  0  0
   46.6610   33.6960   39.8960 C   0  0  0  0  0  0  0  0  0  0  0  0
   45.9930   33.8760   41.0900 C   0  0  0  0  0  0  0  0  0  0  0  0
   44.7200   33.2660   41.2580 N   0  0  0  0  0  0  0  0  0  0  0  0
   44.4610   32.0480   41.7800 C   0  0  0  0  0  0  0  0  0  0  0  0
   43.1660   31.6060   41.8700 C   0  0  0  0  0  0  0  0  0  0  0  0
   42.1160   32.3800   41.4390 C   0  0  0  0  0  0  0  0  0  0  0  0
   40.9390   31.9300   41.5420 O   0  0  0  0  0  0  0  0  0  0  0  0
   42.4140   33.6030   40.9170 N   0  0  0  0  0  0  0  0  0  0  0  0
   43.6850   34.0230   40.8350 C   0  0  0  0  0  0  0  0  0  0  0  0
   43.8140   35.1860   40.3250 O   0  0  0  0  0  0  0  0  0  0  0  0
   41.2860   34.4130   40.4630 C   0  0  0  0  0  0  0  0  0  0  0  0
   40.7780   35.3580   41.5240 C   0  0  0  0  0  0  0  0  0  0  0  0
   44.4380   36.0380   44.9230 C   0  0  0  0  0  0  0  0  0  0  0  0
   45.0300   35.9230   43.6690 C   0  0  0  0  0  0  0  0  0  0  0  0
   45.8560   34.8440   43.3900 C   0  0  0  0  0  0  0  0  0  0  0  0
   46.0630   33.9210   44.3650 N   0  0  0  0  0  0  0  0  0  0  0  0
   45.4770   34.0490   45.5830 C   0  0  0  0  0  0  0  0  0  0  0  0
   44.6820   35.0790   45.8650 N   0  0  0  0  0  0  0  0  0  0  0  0
   48.1817   35.8038   42.7408 H   0  0  0  0  0  0  0  0  0  0  0  0
   49.4590   35.5277   40.6159 H   0  0  0  0  0  0  0  0  0  0  0  0
   48.4484   34.1447   38.7620 H   0  0  0  0  0  0  0  0  0  0  0  0
   46.2096   33.0914   39.0956 H   0  0  0  0  0  0  0  0  0  0  0  0
   45.2865   31.4120   42.1321 H   0  0  0  0  0  0  0  0  0  0  0  0
   42.9639   30.6120   42.2957 H   0  0  0  0  0  0  0  0  0  0  0  0
   41.6056   35.0029   39.5913 H   0  0  0  0  0  0  0  0  0  0  0  0
   40.4649   33.7252   40.2126 H   0  0  0  0  0  0  0  0  0  0  0  0
   40.9998   34.9453   42.5192 H   0  0  0  0  0  0  0  0  0  0  0  0
   41.2730   36.3341   41.4131 H   0  0  0  0  0  0  0  0  0  0  0  0
   39.6908   35.4835   41.4131 H   0  0  0  0  0  0  0  0  0  0  0  0
   43.7818   36.8903   45.1530 H   0  0  0  0  0  0  0  0  0  0  0  0
   44.8432   36.6868   42.8998 H   0  0  0  0  0  0  0  0  0  0  0  0
   45.6630   33.2857   46.3529 H   0  0  0  0  0  0  0  0  0  0  0  0
  1 19  1  0
  2  1  2  0
  3  2  1  0
  4  5  1  0
  4  3  2  0
  5  6  2  0
  6  7  1  0
  6  1  1  0
  7  8  1  0
  8  9  2  0
 10 11  2  0
 10  9  1  0
 12 10  1  0
 13 12  1  0
 13  7  1  0
 14 13  2  0
 15 12  1  0
 15 16  1  0
 17 22  2  0
 18 17  1  0
 19 18  2  0
 19 20  1  0
 20 21  2  0
 21 22  1  0
  2 23  1  0
  3 24  1  0
  4 25  1  0
  5 26  1  0
  8 27  1  0
  9 28  1  0
 15 29  1  0
 15 30  1  0
 16 31  1  0
 16 32  1  0
 16 33  1  0
 17 34  1  0
 18 35  1  0
 21 36  1  0
M  ISO  8  23  14  24  14  25  14  26  14  27  14  28  14  29   8  30   8
M  ISO  6  31   8  32   8  33   8  34  14  35  14  36  14
M  END
>  <minimizedAffinity>  (1) 
-6.19785786

>  <minimizedRMSD>  (1) 
0.322929323

$$$$
