
     RDKit          3D

 44 48  0  0  0  0  0  0  0  0999 V2000
   46.6130   34.6060   42.1940 C   0  0  0  0  0  0  0  0  0  0  0  0
   47.8150   35.2300   42.0270 C   0  0  0  0  0  0  0  0  0  0  0  0
   48.5320   35.1500   40.8070 C   0  0  0  0  0  0  0  0  0  0  0  0
   47.9640   34.4020   39.7560 C   0  0  0  0  0  0  0  0  0  0  0  0
   46.7470   33.7740   39.9330 C   0  0  0  0  0  0  0  0  0  0  0  0
   46.0940   33.8840   41.1410 C   0  0  0  0  0  0  0  0  0  0  0  0
   44.8370   33.2250   41.2990 N   0  0  0  0  0  0  0  0  0  0  0  0
   44.6120   31.9740   41.7420 C   0  0  0  0  0  0  0  0  0  0  0  0
   43.3280   31.5060   41.8290 C   0  0  0  0  0  0  0  0  0  0  0  0
   42.2530   32.2690   41.4810 C   0  0  0  0  0  0  0  0  0  0  0  0
   41.0820   31.7910   41.5790 O   0  0  0  0  0  0  0  0  0  0  0  0
   42.5050   33.5320   41.0350 N   0  0  0  0  0  0  0  0  0  0  0  0
   43.7540   33.9910   40.9490 C   0  0  0  0  0  0  0  0  0  0  0  0
   43.8690   35.1810   40.5210 O   0  0  0  0  0  0  0  0  0  0  0  0
   41.3730   34.3060   40.6790 C   0  0  0  0  0  0  0  0  0  0  0  0
   41.3340   35.6470   41.0260 C   0  0  0  0  0  0  0  0  0  0  0  0
   40.1220   36.1700   40.5610 C   0  0  0  0  0  0  0  0  0  0  0  0
   39.4770   35.1230   39.9530 N   0  0  0  0  0  0  0  0  0  0  0  0
   40.2150   34.0490   40.0300 N   0  0  0  0  0  0  0  0  0  0  0  0
   44.4670   35.7700   45.0620 C   0  0  0  0  0  0  0  0  0  0  0  0
   45.0400   35.7150   43.7990 C   0  0  0  0  0  0  0  0  0  0  0  0
   45.9600   34.7480   43.4770 C   0  0  0  0  0  0  0  0  0  0  0  0
   46.2960   33.8360   44.4490 N   0  0  0  0  0  0  0  0  0  0  0  0
   45.7140   33.9110   45.6920 C   0  0  0  0  0  0  0  0  0  0  0  0
   44.8190   34.8550   45.9970 N   0  0  0  0  0  0  0  0  0  0  0  0
   46.0470   32.9760   46.7130 N   0  0  0  0  0  0  0  0  0  0  0  0
   45.0920   32.9200   47.6550 N   0  0  0  0  0  0  0  0  0  0  0  0
   45.4730   32.0090   48.5960 C   0  0  0  0  0  0  0  0  0  0  0  0
   46.7140   31.4830   48.2200 C   0  0  0  0  0  0  0  0  0  0  0  0
   47.0420   32.1230   47.0200 C   0  0  0  0  0  0  0  0  0  0  0  0
   48.2383   35.8099   42.8604 H   0  0  0  0  0  0  0  0  0  0  0  0
   49.5011   35.6557   40.6843 H   0  0  0  0  0  0  0  0  0  0  0  0
   48.4907   34.3184   38.7939 H   0  0  0  0  0  0  0  0  0  0  0  0
   46.3017   33.1895   39.1144 H   0  0  0  0  0  0  0  0  0  0  0  0
   45.4555   31.3307   42.0328 H   0  0  0  0  0  0  0  0  0  0  0  0
   43.1584   30.4813   42.1914 H   0  0  0  0  0  0  0  0  0  0  0  0
   42.1145   36.2004   41.5688 H   0  0  0  0  0  0  0  0  0  0  0  0
   39.7618   37.2045   40.6620 H   0  0  0  0  0  0  0  0  0  0  0  0
   38.5515   35.1762   39.5042 H   0  0  0  0  0  0  0  0  0  0  0  0
   43.7315   36.5518   45.3023 H   0  0  0  0  0  0  0  0  0  0  0  0
   44.7518   36.4596   43.0423 H   0  0  0  0  0  0  0  0  0  0  0  0
   44.9027   31.7349   49.4958 H   0  0  0  0  0  0  0  0  0  0  0  0
   47.3065   30.7262   48.7550 H   0  0  0  0  0  0  0  0  0  0  0  0
   47.9552   31.9577   46.4294 H   0  0  0  0  0  0  0  0  0  0  0  0
  1 22  1  0
  2  1  2  0
  3  2  1  0
  4  5  1  0
  4  3  2  0
  5  6  2  0
  6  7  1  0
  6  1  1  0
  7  8  1  0
  8  9  2  0
 10 11  2  0
 10  9  1  0
 12 10  1  0
 13 12  1  0
 13  7  1  0
 14 13  2  0
 15 16  1  0
 15 12  1  0
 17 16  2  0
 18 19  1  0
 18 17  1  0
 19 15  2  0
 20 25  2  0
 21 20  1  0
 22 21  2  0
 22 23  1  0
 23 24  2  0
 24 25  1  0
 24 26  1  0
 26 30  1  0
 26 27  1  0
 27 28  2  0
 29 28  1  0
 30 29  2  0
  2 31  1  0
  3 32  1  0
  4 33  1  0
  5 34  1  0
  8 35  1  0
  9 36  1  0
 16 37  1  0
 17 38  1  0
 18 39  1  0
 20 40  1  0
 21 41  1  0
 28 42  1  0
 29 43  1  0
 30 44  1  0
M  ISO  8  31  14  32  14  33  14  34  14  35  14  36  14  37  14  38  14
M  ISO  6  39   9  40  14  41  14  42  14  43  14  44  14
M  END
>  <minimizedAffinity>  (1) 
-9.04883194

>  <minimizedRMSD>  (1) 
0.204385757

$$$$
