
     RDKit          3D

 45 49  0  0  0  0  0  0  0  0999 V2000
   46.5840   34.6610   42.1920 C   0  0  0  0  0  0  0  0  0  0  0  0
   47.7870   35.2790   42.0180 C   0  0  0  0  0  0  0  0  0  0  0  0
   48.5240   35.1590   40.8290 C   0  0  0  0  0  0  0  0  0  0  0  0
   47.9830   34.3650   39.7850 C   0  0  0  0  0  0  0  0  0  0  0  0
   46.7570   33.7360   39.9630 C   0  0  0  0  0  0  0  0  0  0  0  0
   46.0990   33.9030   41.1550 C   0  0  0  0  0  0  0  0  0  0  0  0
   44.8320   33.2420   41.3150 N   0  0  0  0  0  0  0  0  0  0  0  0
   44.6000   31.9950   41.7700 C   0  0  0  0  0  0  0  0  0  0  0  0
   43.3200   31.5170   41.8600 C   0  0  0  0  0  0  0  0  0  0  0  0
   42.2470   32.2860   41.4930 C   0  0  0  0  0  0  0  0  0  0  0  0
   41.0810   31.8060   41.5920 O   0  0  0  0  0  0  0  0  0  0  0  0
   42.5030   33.5390   41.0380 N   0  0  0  0  0  0  0  0  0  0  0  0
   43.7570   34.0060   40.9500 C   0  0  0  0  0  0  0  0  0  0  0  0
   43.8620   35.1830   40.5130 O   0  0  0  0  0  0  0  0  0  0  0  0
   41.3680   34.3100   40.6650 C   0  0  0  0  0  0  0  0  0  0  0  0
   41.3220   35.6400   41.0040 C   0  0  0  0  0  0  0  0  0  0  0  0
   40.1130   36.1600   40.5250 C   0  0  0  0  0  0  0  0  0  0  0  0
   39.4750   35.1220   39.9160 N   0  0  0  0  0  0  0  0  0  0  0  0
   40.2240   34.0340   40.0040 N   0  0  0  0  0  0  0  0  0  0  0  0
   44.4260   35.9440   45.0110 C   0  0  0  0  0  0  0  0  0  0  0  0
   45.0250   35.8660   43.7550 C   0  0  0  0  0  0  0  0  0  0  0  0
   45.9020   34.8480   43.4570 C   0  0  0  0  0  0  0  0  0  0  0  0
   46.1560   33.9240   44.4430 N   0  0  0  0  0  0  0  0  0  0  0  0
   45.5590   34.0210   45.6610 C   0  0  0  0  0  0  0  0  0  0  0  0
   44.7110   35.0060   45.9510 N   0  0  0  0  0  0  0  0  0  0  0  0
   45.9100   32.9810   46.6240 C   0  0  0  0  0  0  0  0  0  0  0  0
   46.9720   32.1180   46.4410 C   0  0  0  0  0  0  0  0  0  0  0  0
   47.2570   31.1540   47.3840 C   0  0  0  0  0  0  0  0  0  0  0  0
   46.5140   31.0260   48.5020 N   0  0  0  0  0  0  0  0  0  0  0  0
   45.4760   31.8850   48.6570 C   0  0  0  0  0  0  0  0  0  0  0  0
   45.1700   32.8500   47.7410 N   0  0  0  0  0  0  0  0  0  0  0  0
   48.1934   35.8917   42.8361 H   0  0  0  0  0  0  0  0  0  0  0  0
   49.4930   35.6660   40.7103 H   0  0  0  0  0  0  0  0  0  0  0  0
   48.5318   34.2479   38.8389 H   0  0  0  0  0  0  0  0  0  0  0  0
   46.3228   33.1167   39.1643 H   0  0  0  0  0  0  0  0  0  0  0  0
   45.4441   31.3571   42.0710 H   0  0  0  0  0  0  0  0  0  0  0  0
   43.1500   30.4966   42.2339 H   0  0  0  0  0  0  0  0  0  0  0  0
   42.0956   36.1968   41.5530 H   0  0  0  0  0  0  0  0  0  0  0  0
   39.7525   37.1948   40.6210 H   0  0  0  0  0  0  0  0  0  0  0  0
   38.5537   35.1753   39.4585 H   0  0  0  0  0  0  0  0  0  0  0  0
   43.7260   36.7611   45.2398 H   0  0  0  0  0  0  0  0  0  0  0  0
   44.7944   36.6260   42.9939 H   0  0  0  0  0  0  0  0  0  0  0  0
   47.5942   32.2002   45.5376 H   0  0  0  0  0  0  0  0  0  0  0  0
   48.1075   30.4756   47.2213 H   0  0  0  0  0  0  0  0  0  0  0  0
   44.8536   31.8005   49.5600 H   0  0  0  0  0  0  0  0  0  0  0  0
  1 22  1  0
  2  1  2  0
  3  2  1  0
  4  5  1  0
  4  3  2  0
  5  6  2  0
  6  7  1  0
  6  1  1  0
  7  8  1  0
  8  9  2  0
 10 11  2  0
 10  9  1  0
 12 10  1  0
 13 12  1  0
 13  7  1  0
 14 13  2  0
 15 16  1  0
 15 12  1  0
 17 16  2  0
 18 19  1  0
 18 17  1  0
 19 15  2  0
 20 25  2  0
 21 20  1  0
 22 21  2  0
 22 23  1  0
 23 24  2  0
 24 25  1  0
 24 26  1  0
 26 31  1  0
 27 26  2  0
 27 28  1  0
 28 29  2  0
 29 30  1  0
 31 30  2  0
  2 32  1  0
  3 33  1  0
  4 34  1  0
  5 35  1  0
  8 36  1  0
  9 37  1  0
 16 38  1  0
 17 39  1  0
 18 40  1  0
 20 41  1  0
 21 42  1  0
 27 43  1  0
 28 44  1  0
 30 45  1  0
M  ISO  8  32  14  33  14  34  14  35  14  36  14  37  14  38  14  39  14
M  ISO  6  40   9  41  14  42  14  43  14  44  14  45  14
M  END
>  <minimizedAffinity>  (1) 
-8.85194683

>  <minimizedRMSD>  (1) 
0.337426603

$$$$
