
     RDKit          3D

 44 48  0  0  0  0  0  0  0  0999 V2000
   46.5680   34.6810   42.1650 C   0  0  0  0  0  0  0  0  0  0  0  0
   47.7780   35.3010   41.9910 C   0  0  0  0  0  0  0  0  0  0  0  0
   48.5230   35.1570   40.8060 C   0  0  0  0  0  0  0  0  0  0  0  0
   47.9970   34.3510   39.7770 C   0  0  0  0  0  0  0  0  0  0  0  0
   46.7670   33.7240   39.9590 C   0  0  0  0  0  0  0  0  0  0  0  0
   46.0860   33.9010   41.1390 C   0  0  0  0  0  0  0  0  0  0  0  0
   44.8200   33.2440   41.3020 N   0  0  0  0  0  0  0  0  0  0  0  0
   44.5940   31.9960   41.7630 C   0  0  0  0  0  0  0  0  0  0  0  0
   43.3110   31.5180   41.8570 C   0  0  0  0  0  0  0  0  0  0  0  0
   42.2370   32.2860   41.4900 C   0  0  0  0  0  0  0  0  0  0  0  0
   41.0730   31.8050   41.5930 O   0  0  0  0  0  0  0  0  0  0  0  0
   42.5000   33.5470   41.0270 N   0  0  0  0  0  0  0  0  0  0  0  0
   43.7440   33.9980   40.9410 C   0  0  0  0  0  0  0  0  0  0  0  0
   43.8610   35.1910   40.4940 O   0  0  0  0  0  0  0  0  0  0  0  0
   41.3590   34.3120   40.6570 C   0  0  0  0  0  0  0  0  0  0  0  0
   41.3150   35.6550   40.9910 C   0  0  0  0  0  0  0  0  0  0  0  0
   40.1040   36.1560   40.5160 C   0  0  0  0  0  0  0  0  0  0  0  0
   39.4690   35.1160   39.9210 N   0  0  0  0  0  0  0  0  0  0  0  0
   40.2100   34.0380   40.0070 N   0  0  0  0  0  0  0  0  0  0  0  0
   44.4120   36.0390   44.9520 C   0  0  0  0  0  0  0  0  0  0  0  0
   45.0270   35.9270   43.7010 C   0  0  0  0  0  0  0  0  0  0  0  0
   45.8800   34.8920   43.4220 C   0  0  0  0  0  0  0  0  0  0  0  0
   46.1120   33.9680   44.4140 N   0  0  0  0  0  0  0  0  0  0  0  0
   45.4960   34.0980   45.6340 C   0  0  0  0  0  0  0  0  0  0  0  0
   44.6670   35.1100   45.8970 N   0  0  0  0  0  0  0  0  0  0  0  0
   45.7460   33.1120   46.6820 C   0  0  0  0  0  0  0  0  0  0  0  0
   46.9150   32.3510   46.5630 C   0  0  0  0  0  0  0  0  0  0  0  0
   46.9520   31.4840   47.6600 C   0  0  0  0  0  0  0  0  0  0  0  0
   45.7880   31.7860   48.3750 C   0  0  0  0  0  0  0  0  0  0  0  0
   45.1130   32.7420   47.7690 O   0  0  0  0  0  0  0  0  0  0  0  0
   48.1780   35.9290   42.8007 H   0  0  0  0  0  0  0  0  0  0  0  0
   49.4930   35.6617   40.6859 H   0  0  0  0  0  0  0  0  0  0  0  0
   48.5534   34.2181   38.8375 H   0  0  0  0  0  0  0  0  0  0  0  0
   46.3440   33.0920   39.1643 H   0  0  0  0  0  0  0  0  0  0  0  0
   45.4399   31.3605   42.0641 H   0  0  0  0  0  0  0  0  0  0  0  0
   43.1414   30.4987   42.2342 H   0  0  0  0  0  0  0  0  0  0  0  0
   42.0898   36.2202   41.5297 H   0  0  0  0  0  0  0  0  0  0  0  0
   39.7367   37.1890   40.6059 H   0  0  0  0  0  0  0  0  0  0  0  0
   38.5444   35.1655   39.4698 H   0  0  0  0  0  0  0  0  0  0  0  0
   43.7284   36.8745   45.1632 H   0  0  0  0  0  0  0  0  0  0  0  0
   44.8224   36.6826   42.9282 H   0  0  0  0  0  0  0  0  0  0  0  0
   47.6626   32.4215   45.7592 H   0  0  0  0  0  0  0  0  0  0  0  0
   47.7205   30.7359   47.9046 H   0  0  0  0  0  0  0  0  0  0  0  0
   45.4800   31.2953   49.3100 H   0  0  0  0  0  0  0  0  0  0  0  0
  1 22  1  0
  2  1  2  0
  3  2  1  0
  4  5  1  0
  4  3  2  0
  5  6  2  0
  6  7  1  0
  6  1  1  0
  7  8  1  0
  8  9  2  0
 10 11  2  0
 10  9  1  0
 12 10  1  0
 13 12  1  0
 13  7  1  0
 14 13  2  0
 15 16  1  0
 15 12  1  0
 17 16  2  0
 18 19  1  0
 18 17  1  0
 19 15  2  0
 20 25  2  0
 21 20  1  0
 22 21  2  0
 22 23  1  0
 23 24  2  0
 24 25  1  0
 24 26  1  0
 26 30  1  0
 27 26  2  0
 27 28  1  0
 28 29  2  0
 30 29  1  0
  2 31  1  0
  3 32  1  0
  4 33  1  0
  5 34  1  0
  8 35  1  0
  9 36  1  0
 16 37  1  0
 17 38  1  0
 18 39  1  0
 20 40  1  0
 21 41  1  0
 27 42  1  0
 28 43  1  0
 29 44  1  0
M  ISO  8  31  14  32  14  33  14  34  14  35  14  36  14  37  14  38  14
M  ISO  6  39   9  40  14  41  14  42  14  43  14  44  14
M  END
>  <minimizedAffinity>  (1) 
-8.62796688

>  <minimizedRMSD>  (1) 
0.0859600678

$$$$
