
     RDKit          3D

 50 54  0  0  0  0  0  0  0  0999 V2000
   46.6580   34.5490   42.2970 C   0  0  0  0  0  0  0  0  0  0  0  0
   47.8570   35.1740   42.1390 C   0  0  0  0  0  0  0  0  0  0  0  0
   48.5450   35.1570   40.9110 C   0  0  0  0  0  0  0  0  0  0  0  0
   47.9700   34.4770   39.8320 C   0  0  0  0  0  0  0  0  0  0  0  0
   46.7540   33.8430   39.9940 C   0  0  0  0  0  0  0  0  0  0  0  0
   46.1210   33.8890   41.2180 C   0  0  0  0  0  0  0  0  0  0  0  0
   44.8600   33.2250   41.3630 N   0  0  0  0  0  0  0  0  0  0  0  0
   44.6320   31.9700   41.7880 C   0  0  0  0  0  0  0  0  0  0  0  0
   43.3570   31.4890   41.8670 C   0  0  0  0  0  0  0  0  0  0  0  0
   42.2760   32.2690   41.5180 C   0  0  0  0  0  0  0  0  0  0  0  0
   41.1110   31.7870   41.6040 O   0  0  0  0  0  0  0  0  0  0  0  0
   42.5330   33.5290   41.0930 N   0  0  0  0  0  0  0  0  0  0  0  0
   43.7860   33.9920   41.0180 C   0  0  0  0  0  0  0  0  0  0  0  0
   43.8960   35.1920   40.6040 O   0  0  0  0  0  0  0  0  0  0  0  0
   41.3950   34.3140   40.7380 C   0  0  0  0  0  0  0  0  0  0  0  0
   41.3490   35.6410   41.1020 C   0  0  0  0  0  0  0  0  0  0  0  0
   40.1410   36.1610   40.6330 C   0  0  0  0  0  0  0  0  0  0  0  0
   39.5030   35.1260   40.0010 N   0  0  0  0  0  0  0  0  0  0  0  0
   40.2500   34.0500   40.0700 N   0  0  0  0  0  0  0  0  0  0  0  0
   44.5170   35.5200   45.2550 C   0  0  0  0  0  0  0  0  0  0  0  0
   45.0690   35.5330   43.9670 C   0  0  0  0  0  0  0  0  0  0  0  0
   46.0240   34.6210   43.6040 C   0  0  0  0  0  0  0  0  0  0  0  0
   46.4180   33.6990   44.5380 N   0  0  0  0  0  0  0  0  0  0  0  0
   45.8690   33.7020   45.7880 C   0  0  0  0  0  0  0  0  0  0  0  0
   44.9400   34.5870   46.1460 N   0  0  0  0  0  0  0  0  0  0  0  0
   46.2980   32.6940   46.8120 C   0  0  0  0  0  0  0  0  0  0  0  0
   45.3020   32.5280   47.9180 C   0  0  0  0  0  0  0  0  0  0  0  0
   45.1730   31.0130   48.0830 C   0  0  0  0  0  0  0  0  0  0  0  0
   45.4990   30.4690   46.7110 C   0  0  0  0  0  0  0  0  0  0  0  0
   46.5810   31.3620   46.2010 C   0  0  0  0  0  0  0  0  0  0  0  0
   48.3000   35.7064   42.9936 H   0  0  0  0  0  0  0  0  0  0  0  0
   49.5134   35.6672   40.8022 H   0  0  0  0  0  0  0  0  0  0  0  0
   48.4838   34.4475   38.8598 H   0  0  0  0  0  0  0  0  0  0  0  0
   46.2935   33.3050   39.1523 H   0  0  0  0  0  0  0  0  0  0  0  0
   45.4777   31.3272   42.0737 H   0  0  0  0  0  0  0  0  0  0  0  0
   43.1893   30.4593   42.2158 H   0  0  0  0  0  0  0  0  0  0  0  0
   42.1217   36.1905   41.6597 H   0  0  0  0  0  0  0  0  0  0  0  0
   39.7756   37.1922   40.7476 H   0  0  0  0  0  0  0  0  0  0  0  0
   38.5819   35.1838   39.5437 H   0  0  0  0  0  0  0  0  0  0  0  0
   43.7510   36.2561   45.5404 H   0  0  0  0  0  0  0  0  0  0  0  0
   44.7311   36.2849   43.2387 H   0  0  0  0  0  0  0  0  0  0  0  0
   47.2261   33.0975   47.2431 H   0  0  0  0  0  0  0  0  0  0  0  0
   45.6685   32.9916   48.8458 H   0  0  0  0  0  0  0  0  0  0  0  0
   44.3393   33.0107   47.6938 H   0  0  0  0  0  0  0  0  0  0  0  0
   45.8863   30.6387   48.8321 H   0  0  0  0  0  0  0  0  0  0  0  0
   44.1764   30.7078   48.4346 H   0  0  0  0  0  0  0  0  0  0  0  0
   45.8527   29.4297   46.7790 H   0  0  0  0  0  0  0  0  0  0  0  0
   44.6215   30.4550   46.0478 H   0  0  0  0  0  0  0  0  0  0  0  0
   47.5682   30.9932   46.5164 H   0  0  0  0  0  0  0  0  0  0  0  0
   46.5990   31.4055   45.1020 H   0  0  0  0  0  0  0  0  0  0  0  0
  1 22  1  0
  2  1  2  0
  3  2  1  0
  4  5  1  0
  4  3  2  0
  5  6  2  0
  6  7  1  0
  6  1  1  0
  7  8  1  0
  8  9  2  0
 10 11  2  0
 10  9  1  0
 12 10  1  0
 13 12  1  0
 13  7  1  0
 14 13  2  0
 15 12  1  0
 15 16  1  0
 17 16  2  0
 18 19  1  0
 18 17  1  0
 19 15  2  0
 20 25  2  0
 21 20  1  0
 22 21  2  0
 22 23  1  0
 23 24  2  0
 24 25  1  0
 24 26  1  0
 26 27  1  0
 27 28  1  0
 29 28  1  0
 30 29  1  0
 30 26  1  0
  2 31  1  0
  3 32  1  0
  4 33  1  0
  5 34  1  0
  8 35  1  0
  9 36  1  0
 16 37  1  0
 17 38  1  0
 18 39  1  0
 20 40  1  0
 21 41  1  0
 26 42  1  0
 27 43  1  0
 27 44  1  0
 28 45  1  0
 28 46  1  0
 29 47  1  0
 29 48  1  0
 30 49  1  0
 30 50  1  0
M  ISO  8  31  14  32  14  33  14  34  14  35  14  36  14  37  14  38  14
M  ISO  8  39   9  40  14  41  14  42  13  43  13  44  13  45  13  46  13
M  ISO  4  47  13  48  13  49  13  50  13
M  END
>  <minimizedAffinity>  (1) 
-8.58417892

>  <minimizedRMSD>  (1) 
0.391087294

$$$$
