
     RDKit          3D

 40 43  0  0  0  0  0  0  0  0999 V2000
   46.5930   34.6630   42.1660 C   0  0  0  0  0  0  0  0  0  0  0  0
   47.7920   35.2850   41.9960 C   0  0  0  0  0  0  0  0  0  0  0  0
   48.5260   35.1620   40.7970 C   0  0  0  0  0  0  0  0  0  0  0  0
   47.9940   34.3780   39.7610 C   0  0  0  0  0  0  0  0  0  0  0  0
   46.7740   33.7480   39.9400 C   0  0  0  0  0  0  0  0  0  0  0  0
   46.1060   33.9070   41.1390 C   0  0  0  0  0  0  0  0  0  0  0  0
   44.8400   33.2410   41.2960 N   0  0  0  0  0  0  0  0  0  0  0  0
   44.6210   31.9870   41.7380 C   0  0  0  0  0  0  0  0  0  0  0  0
   43.3390   31.5090   41.8260 C   0  0  0  0  0  0  0  0  0  0  0  0
   42.2630   32.2720   41.4750 C   0  0  0  0  0  0  0  0  0  0  0  0
   41.0920   31.7940   41.5700 O   0  0  0  0  0  0  0  0  0  0  0  0
   42.5080   33.5370   41.0310 N   0  0  0  0  0  0  0  0  0  0  0  0
   43.7630   34.0060   40.9450 C   0  0  0  0  0  0  0  0  0  0  0  0
   43.8640   35.2030   40.5150 O   0  0  0  0  0  0  0  0  0  0  0  0
   41.3660   34.3130   40.6710 C   0  0  0  0  0  0  0  0  0  0  0  0
   41.3300   35.6450   41.0300 C   0  0  0  0  0  0  0  0  0  0  0  0
   40.1140   36.1670   40.5610 C   0  0  0  0  0  0  0  0  0  0  0  0
   39.4790   35.1290   39.9440 N   0  0  0  0  0  0  0  0  0  0  0  0
   40.2210   34.0460   40.0150 N   0  0  0  0  0  0  0  0  0  0  0  0
   44.4610   35.9710   44.9960 C   0  0  0  0  0  0  0  0  0  0  0  0
   45.0650   35.8910   43.7430 C   0  0  0  0  0  0  0  0  0  0  0  0
   45.9090   34.8470   43.4380 C   0  0  0  0  0  0  0  0  0  0  0  0
   46.1260   33.9010   44.4120 N   0  0  0  0  0  0  0  0  0  0  0  0
   45.5260   33.9950   45.6340 C   0  0  0  0  0  0  0  0  0  0  0  0
   44.7030   35.0190   45.9200 N   0  0  0  0  0  0  0  0  0  0  0  0
   45.8290   32.9240   46.6060 C   0  0  0  0  0  0  0  0  0  0  0  0
   44.9190   33.0340   47.6430 F   0  0  0  0  0  0  0  0  0  0  0  0
   47.1070   33.0700   47.0980 F   0  0  0  0  0  0  0  0  0  0  0  0
   45.6700   31.6640   46.0580 F   0  0  0  0  0  0  0  0  0  0  0  0
   48.1987   35.8986   42.8134 H   0  0  0  0  0  0  0  0  0  0  0  0
   49.4944   35.6696   40.6767 H   0  0  0  0  0  0  0  0  0  0  0  0
   48.5423   34.2650   38.8141 H   0  0  0  0  0  0  0  0  0  0  0  0
   46.3427   33.1297   39.1390 H   0  0  0  0  0  0  0  0  0  0  0  0
   45.4686   31.3485   42.0275 H   0  0  0  0  0  0  0  0  0  0  0  0
   43.1732   30.4839   42.1889 H   0  0  0  0  0  0  0  0  0  0  0  0
   42.1079   36.1945   41.5803 H   0  0  0  0  0  0  0  0  0  0  0  0
   39.7489   37.1990   40.6687 H   0  0  0  0  0  0  0  0  0  0  0  0
   38.5560   35.1854   39.4903 H   0  0  0  0  0  0  0  0  0  0  0  0
   43.7882   36.8089   45.2311 H   0  0  0  0  0  0  0  0  0  0  0  0
   44.8658   36.6687   42.9910 H   0  0  0  0  0  0  0  0  0  0  0  0
  1 22  1  0
  2  1  2  0
  3  2  1  0
  4  5  1  0
  4  3  2  0
  5  6  2  0
  6  7  1  0
  6  1  1  0
  7  8  1  0
  8  9  2  0
 10 11  2  0
 10  9  1  0
 12 10  1  0
 13 12  1  0
 13  7  1  0
 14 13  2  0
 15 16  1  0
 15 12  1  0
 17 16  2  0
 18 19  1  0
 18 17  1  0
 19 15  2  0
 20 25  2  0
 21 20  1  0
 22 21  2  0
 22 23  1  0
 23 24  2  0
 24 25  1  0
 24 26  1  0
 26 28  1  0
 26 27  1  0
 29 26  1  0
  2 30  1  0
  3 31  1  0
  4 32  1  0
  5 33  1  0
  8 34  1  0
  9 35  1  0
 16 36  1  0
 17 37  1  0
 18 38  1  0
 20 39  1  0
 21 40  1  0
M  ISO  8  30  14  31  14  32  14  33  14  34  14  35  14  36  14  37  14
M  ISO  3  38   9  39  14  40  14
M  END
>  <minimizedAffinity>  (1) 
-8.44072342

>  <minimizedRMSD>  (1) 
0.184061766

$$$$
