
     RDKit          3D

 46 49  0  0  0  0  0  0  0  0999 V2000
   46.6530   34.5550   42.2760 C   0  0  0  0  0  0  0  0  0  0  0  0
   47.8630   35.1850   42.1230 C   0  0  0  0  0  0  0  0  0  0  0  0
   48.5500   35.1770   40.9000 C   0  0  0  0  0  0  0  0  0  0  0  0
   47.9660   34.4980   39.8050 C   0  0  0  0  0  0  0  0  0  0  0  0
   46.7460   33.8640   39.9610 C   0  0  0  0  0  0  0  0  0  0  0  0
   46.1130   33.9040   41.1920 C   0  0  0  0  0  0  0  0  0  0  0  0
   44.8570   33.2440   41.3310 N   0  0  0  0  0  0  0  0  0  0  0  0
   44.6440   31.9790   41.7530 C   0  0  0  0  0  0  0  0  0  0  0  0
   43.3590   31.4990   41.8280 C   0  0  0  0  0  0  0  0  0  0  0  0
   42.2800   32.2730   41.4870 C   0  0  0  0  0  0  0  0  0  0  0  0
   41.1150   31.7850   41.5730 O   0  0  0  0  0  0  0  0  0  0  0  0
   42.5290   33.5360   41.0680 N   0  0  0  0  0  0  0  0  0  0  0  0
   43.7860   34.0040   40.9950 C   0  0  0  0  0  0  0  0  0  0  0  0
   43.8810   35.2010   40.5890 O   0  0  0  0  0  0  0  0  0  0  0  0
   41.3910   34.3150   40.7210 C   0  0  0  0  0  0  0  0  0  0  0  0
   41.3420   35.6450   41.0960 C   0  0  0  0  0  0  0  0  0  0  0  0
   40.1320   36.1690   40.6340 C   0  0  0  0  0  0  0  0  0  0  0  0
   39.4980   35.1400   40.0000 N   0  0  0  0  0  0  0  0  0  0  0  0
   40.2460   34.0480   40.0550 N   0  0  0  0  0  0  0  0  0  0  0  0
   44.5530   35.5170   45.2550 C   0  0  0  0  0  0  0  0  0  0  0  0
   45.0880   35.5560   43.9680 C   0  0  0  0  0  0  0  0  0  0  0  0
   46.0270   34.6210   43.5750 C   0  0  0  0  0  0  0  0  0  0  0  0
   46.3990   33.6640   44.4990 N   0  0  0  0  0  0  0  0  0  0  0  0
   45.8550   33.6560   45.7500 C   0  0  0  0  0  0  0  0  0  0  0  0
   44.9480   34.5640   46.1210 N   0  0  0  0  0  0  0  0  0  0  0  0
   46.2610   32.6230   46.7420 C   0  0  0  0  0  0  0  0  0  0  0  0
   45.2210   32.6810   47.8480 C   0  0  0  0  0  0  0  0  0  0  0  0
   46.1540   31.2430   46.1190 C   0  0  0  0  0  0  0  0  0  0  0  0
   48.3056   35.7101   42.9823 H   0  0  0  0  0  0  0  0  0  0  0  0
   49.5193   35.6863   40.7950 H   0  0  0  0  0  0  0  0  0  0  0  0
   48.4800   34.4741   38.8328 H   0  0  0  0  0  0  0  0  0  0  0  0
   46.2836   33.3335   39.1156 H   0  0  0  0  0  0  0  0  0  0  0  0
   45.4926   31.3381   42.0344 H   0  0  0  0  0  0  0  0  0  0  0  0
   43.1915   30.4672   42.1704 H   0  0  0  0  0  0  0  0  0  0  0  0
   42.1151   36.1912   41.6562 H   0  0  0  0  0  0  0  0  0  0  0  0
   39.7657   37.1990   40.7561 H   0  0  0  0  0  0  0  0  0  0  0  0
   38.5754   35.2031   39.5464 H   0  0  0  0  0  0  0  0  0  0  0  0
   43.8078   36.2651   45.5633 H   0  0  0  0  0  0  0  0  0  0  0  0
   44.7614   36.3342   43.2625 H   0  0  0  0  0  0  0  0  0  0  0  0
   47.2890   32.8001   47.0909 H   0  0  0  0  0  0  0  0  0  0  0  0
   45.7238   32.6530   48.8260 H   0  0  0  0  0  0  0  0  0  0  0  0
   44.6431   33.6128   47.7594 H   0  0  0  0  0  0  0  0  0  0  0  0
   44.5431   31.8193   47.7594 H   0  0  0  0  0  0  0  0  0  0  0  0
   46.0952   30.4853   46.9142 H   0  0  0  0  0  0  0  0  0  0  0  0
   45.2491   31.1913   45.4956 H   0  0  0  0  0  0  0  0  0  0  0  0
   47.0401   31.0524   45.4956 H   0  0  0  0  0  0  0  0  0  0  0  0
  1 22  1  0
  2  1  2  0
  3  2  1  0
  4  5  1  0
  4  3  2  0
  5  6  2  0
  6  7  1  0
  6  1  1  0
  7  8  1  0
  8  9  2  0
 10 11  2  0
 10  9  1  0
 12 10  1  0
 13 12  1  0
 13  7  1  0
 14 13  2  0
 15 12  1  0
 15 16  1  0
 17 16  2  0
 18 19  1  0
 18 17  1  0
 19 15  2  0
 20 25  2  0
 21 20  1  0
 22 21  2  0
 22 23  1  0
 23 24  2  0
 24 25  1  0
 24 26  1  0
 26 27  1  0
 28 26  1  0
  2 29  1  0
  3 30  1  0
  4 31  1  0
  5 32  1  0
  8 33  1  0
  9 34  1  0
 16 35  1  0
 17 36  1  0
 18 37  1  0
 20 38  1  0
 21 39  1  0
 26 40  1  0
 27 41  1  0
 27 42  1  0
 27 43  1  0
 28 44  1  0
 28 45  1  0
 28 46  1  0
M  ISO  8  29  14  30  14  31  14  32  14  33  14  34  14  35  14  36  14
M  ISO  8  37   9  38  14  39  14  40   8  41   8  42   8  43   8  44   8
M  ISO  2  45   8  46   8
M  END
>  <minimizedAffinity>  (1) 
-7.98647356

>  <minimizedRMSD>  (1) 
0.342773616

$$$$
