
     RDKit          3D

 31 33  0  0  0  0  0  0  0  0999 V2000
   45.7450   34.2770   41.5590 C   0  0  0  0  0  0  0  0  0  0  0  0
   45.0850   33.8890   40.4550 N   0  0  0  0  0  0  0  0  0  0  0  0
   45.9330   33.7290   39.4730 O   0  0  0  0  0  0  0  0  0  0  0  0
   47.1410   34.0120   39.9300 C   0  0  0  0  0  0  0  0  0  0  0  0
   47.0500   34.3580   41.2350 N   0  0  0  0  0  0  0  0  0  0  0  0
   44.4760   35.9720   44.6720 C   0  0  0  0  0  0  0  0  0  0  0  0
   44.7480   35.7740   43.3090 C   0  0  0  0  0  0  0  0  0  0  0  0
   45.4000   34.6100   42.9340 C   0  0  0  0  0  0  0  0  0  0  0  0
   45.7490   33.7030   43.9080 N   0  0  0  0  0  0  0  0  0  0  0  0
   45.4670   33.9310   45.2190 C   0  0  0  0  0  0  0  0  0  0  0  0
   44.8300   35.0680   45.5920 N   0  0  0  0  0  0  0  0  0  0  0  0
   48.3990   33.9490   39.1060 C   0  0  0  0  0  0  0  0  0  0  0  0
   48.2060   34.4120   37.7030 C   0  0  0  0  0  0  0  0  0  0  0  0
   48.5270   33.2360   36.7720 C   0  0  0  0  0  0  0  0  0  0  0  0
   47.6930   32.0350   37.1060 C   0  0  0  0  0  0  0  0  0  0  0  0
   48.0990   31.5440   38.4770 C   0  0  0  0  0  0  0  0  0  0  0  0
   48.9820   32.5360   39.1620 C   0  0  0  0  0  0  0  0  0  0  0  0
   43.9607   36.8903   44.9901 H   0  0  0  0  0  0  0  0  0  0  0  0
   44.4517   36.5223   42.5592 H   0  0  0  0  0  0  0  0  0  0  0  0
   45.7568   33.1904   45.9790 H   0  0  0  0  0  0  0  0  0  0  0  0
   49.1195   34.6535   39.5470 H   0  0  0  0  0  0  0  0  0  0  0  0
   47.1643   34.7328   37.5549 H   0  0  0  0  0  0  0  0  0  0  0  0
   48.8660   35.2648   37.4859 H   0  0  0  0  0  0  0  0  0  0  0  0
   49.5903   32.9748   36.8777 H   0  0  0  0  0  0  0  0  0  0  0  0
   48.3023   33.5390   35.7387 H   0  0  0  0  0  0  0  0  0  0  0  0
   46.6281   32.3105   37.1095 H   0  0  0  0  0  0  0  0  0  0  0  0
   47.8492   31.2441   36.3577 H   0  0  0  0  0  0  0  0  0  0  0  0
   47.1957   31.3867   39.0847 H   0  0  0  0  0  0  0  0  0  0  0  0
   48.6548   30.6018   38.3611 H   0  0  0  0  0  0  0  0  0  0  0  0
   49.9656   32.5369   38.6696 H   0  0  0  0  0  0  0  0  0  0  0  0
   49.0693   32.2437   40.2189 H   0  0  0  0  0  0  0  0  0  0  0  0
  1  8  1  0
  2  1  2  0
  3  4  1  0
  3  2  1  0
  4  5  2  0
  5  1  1  0
  6 11  2  0
  7  6  1  0
  8  7  2  0
  8  9  1  0
  9 10  2  0
 10 11  1  0
 12 17  1  0
 12  4  1  0
 13 12  1  0
 14 15  1  0
 14 13  1  0
 15 16  1  0
 16 17  1  0
  6 18  1  0
  7 19  1  0
 10 20  1  0
 12 21  1  0
 13 22  1  0
 13 23  1  0
 14 24  1  0
 14 25  1  0
 15 26  1  0
 15 27  1  0
 16 28  1  0
 16 29  1  0
 17 30  1  0
 17 31  1  0
M  ISO  8  18  14  19  14  20  14  21  13  22  13  23  13  24  13  25  13
M  ISO  6  26  13  27  13  28  13  29  13  30  13  31  13
M  END
>  <minimizedAffinity>  (1) 
-4.59705639

>  <minimizedRMSD>  (1) 
1.87809908

$$$$
