
     RDKit          3D

 42 44  0  0  1  0  0  0  0  0999 V2000
   47.7630   34.8820   41.3630 C   0  0  2  0  0  0  0  0  0  0  0  0
   48.9300   35.6760   41.6580 C   0  0  0  0  0  0  0  0  0  0  0  0
   49.9230   34.7870   42.4220 C   0  0  0  0  0  0  0  0  0  0  0  0
   49.3360   33.3950   42.4750 C   0  0  0  0  0  0  0  0  0  0  0  0
   47.8860   33.6620   42.3280 C   0  0  1  0  0  0  0  0  0  0  0  0
   47.6100   34.2850   40.0160 C   0  0  0  0  0  0  0  0  0  0  0  0
   48.4480   34.7170   38.9900 C   0  0  0  0  0  0  0  0  0  0  0  0
   48.3390   34.1680   37.7230 C   0  0  0  0  0  0  0  0  0  0  0  0
   47.3850   33.2090   37.5660 N   0  0  0  0  0  0  0  0  0  0  0  0
   46.5810   32.8020   38.5670 C   0  0  0  0  0  0  0  0  0  0  0  0
   46.6910   33.3380   39.7950 N   0  0  0  0  0  0  0  0  0  0  0  0
   47.2810   34.0290   43.6470 C   0  0  0  0  0  0  0  0  0  0  0  0
   46.3870   32.9080   44.1310 C   0  0  0  0  0  0  0  0  0  0  0  0
   46.8490   32.2390   45.3040 N   0  0  0  0  0  0  0  0  0  0  0  0
   46.0410   31.0310   45.5230 C   0  0  0  0  0  0  0  0  0  0  0  0
   46.4240   30.4430   46.8650 C   0  0  0  0  0  0  0  0  0  0  0  0
   45.9170   31.2030   47.9170 O   0  0  0  0  0  0  0  0  0  0  0  0
   45.5800   32.4480   47.4160 C   0  0  0  0  0  0  0  0  0  0  0  0
   46.6360   33.0410   46.4990 C   0  0  0  0  0  0  0  0  0  0  0  0
   46.9106   35.5709   41.4568 H   0  0  0  0  0  0  0  0  0  0  0  0
   49.3879   36.0299   40.7225 H   0  0  0  0  0  0  0  0  0  0  0  0
   48.6551   36.5524   42.2632 H   0  0  0  0  0  0  0  0  0  0  0  0
   50.8901   34.7675   41.8982 H   0  0  0  0  0  0  0  0  0  0  0  0
   50.0912   35.1763   43.4370 H   0  0  0  0  0  0  0  0  0  0  0  0
   49.7125   32.7716   41.6506 H   0  0  0  0  0  0  0  0  0  0  0  0
   49.5929   32.8416   43.3903 H   0  0  0  0  0  0  0  0  0  0  0  0
   47.3647   32.7713   41.9473 H   0  0  0  0  0  0  0  0  0  0  0  0
   49.1986   35.4966   39.1869 H   0  0  0  0  0  0  0  0  0  0  0  0
   48.9852   34.4879   36.8923 H   0  0  0  0  0  0  0  0  0  0  0  0
   45.8271   32.0236   38.3779 H   0  0  0  0  0  0  0  0  0  0  0  0
   48.0821   34.2000   44.3812 H   0  0  0  0  0  0  0  0  0  0  0  0
   46.6835   34.9451   43.5300 H   0  0  0  0  0  0  0  0  0  0  0  0
   45.3944   33.3304   44.3463 H   0  0  0  0  0  0  0  0  0  0  0  0
   46.3731   32.1546   43.3296 H   0  0  0  0  0  0  0  0  0  0  0  0
   44.9725   31.2924   45.5222 H   0  0  0  0  0  0  0  0  0  0  0  0
   46.2246   30.3004   44.7215 H   0  0  0  0  0  0  0  0  0  0  0  0
   46.0225   29.4213   46.9357 H   0  0  0  0  0  0  0  0  0  0  0  0
   47.5214   30.4375   46.9397 H   0  0  0  0  0  0  0  0  0  0  0  0
   44.6417   32.3526   46.8498 H   0  0  0  0  0  0  0  0  0  0  0  0
   45.4825   33.1263   48.2765 H   0  0  0  0  0  0  0  0  0  0  0  0
   47.5847   33.1100   47.0515 H   0  0  0  0  0  0  0  0  0  0  0  0
   46.2823   34.0320   46.1782 H   0  0  0  0  0  0  0  0  0  0  0  0
  1  2  1  0
  1  5  1  0
  2  3  1  0
  3  4  1  0
  5  4  1  0
  5 12  1  0
  6  1  1  0
  7  6  2  0
  8  7  1  0
  9  8  2  0
  9 10  1  0
 10 11  2  0
 11  6  1  0
 12 13  1  0
 13 14  1  0
 14 15  1  0
 14 19  1  0
 15 16  1  0
 16 17  1  0
 18 17  1  0
 19 18  1  0
  1 20  1  1
  2 21  1  0
  2 22  1  0
  3 23  1  0
  3 24  1  0
  4 25  1  0
  4 26  1  0
  5 27  1  6
  7 28  1  0
  8 29  1  0
 10 30  1  0
 12 31  1  0
 12 32  1  0
 13 33  1  0
 13 34  1  0
 15 35  1  0
 15 36  1  0
 16 37  1  0
 16 38  1  0
 18 39  1  0
 18 40  1  0
 19 41  1  0
 19 42  1  0
M  ISO  8  20  13  21  13  22  13  23  13  24  13  25  13  26  13  27  13
M  ISO  8  28  14  29  14  30  14  31   8  32   8  33   8  34   8  35  13
M  ISO  7  36  13  37  13  38  13  39  13  40  13  41  13  42  13
M  END
>  <minimizedAffinity>  (1) 
-5.01365137

>  <minimizedRMSD>  (1) 
2.65072846

$$$$
