
     RDKit          3D

 17 18  0  0  0  0  0  0  0  0999 V2000
   44.4630   35.9960   44.7360 C   0  0  0  0  0  0  0  0  0  0  0  0
   44.7310   35.7620   43.3770 C   0  0  0  0  0  0  0  0  0  0  0  0
   45.3700   34.5550   43.0460 C   0  0  0  0  0  0  0  0  0  0  0  0
   45.6980   33.6790   44.0300 N   0  0  0  0  0  0  0  0  0  0  0  0
   45.4200   33.9480   45.3320 C   0  0  0  0  0  0  0  0  0  0  0  0
   44.8060   35.1020   45.6690 N   0  0  0  0  0  0  0  0  0  0  0  0
   45.7020   34.1970   41.6720 C   0  0  0  0  0  0  0  0  0  0  0  0
   45.0660   33.7010   40.6110 N   0  0  0  0  0  0  0  0  0  0  0  0
   45.8800   33.5780   39.6060 O   0  0  0  0  0  0  0  0  0  0  0  0
   47.0690   33.9970   40.0060 C   0  0  0  0  0  0  0  0  0  0  0  0
   46.9950   34.3910   41.2940 N   0  0  0  0  0  0  0  0  0  0  0  0
   48.2690   34.0220   39.1690 C   0  0  0  0  0  0  0  0  0  0  0  0
   48.2120   34.5110   38.0110 O   0  0  0  0  0  0  0  0  0  0  0  0
   43.9635   36.9287   45.0370 H   0  0  0  0  0  0  0  0  0  0  0  0
   44.4522   36.4933   42.6040 H   0  0  0  0  0  0  0  0  0  0  0  0
   45.6957   33.2243   46.1132 H   0  0  0  0  0  0  0  0  0  0  0  0
   49.2170   33.6150   39.5505 H   0  0  0  0  0  0  0  0  0  0  0  0
  1  6  2  0
  2  1  1  0
  3  2  2  0
  3  4  1  0
  4  5  2  0
  5  6  1  0
  7  3  1  0
  8  7  2  0
  9 10  1  0
  9  8  1  0
 10 11  2  0
 11  7  1  0
 12 10  1  0
 13 12  2  0
  1 14  1  0
  2 15  1  0
  5 16  1  0
 12 17  1  0
M  ISO  4  14  14  15  14  16  14  17   6
M  END
>  <minimizedAffinity>  (1) 
-3.78797936

>  <minimizedRMSD>  (1) 
1.67877758

$$$$
