
     RDKit          3D

 28 30  0  0  0  0  0  0  0  0999 V2000
   45.7510   34.1240   41.6950 C   0  0  0  0  0  0  0  0  0  0  0  0
   45.1040   33.9620   40.5230 N   0  0  0  0  0  0  0  0  0  0  0  0
   45.9340   33.5910   39.6000 O   0  0  0  0  0  0  0  0  0  0  0  0
   47.1430   33.5030   40.1500 C   0  0  0  0  0  0  0  0  0  0  0  0
   47.0360   33.8350   41.4600 N   0  0  0  0  0  0  0  0  0  0  0  0
   44.4670   35.9700   44.7050 C   0  0  0  0  0  0  0  0  0  0  0  0
   44.7510   35.7120   43.3540 C   0  0  0  0  0  0  0  0  0  0  0  0
   45.3990   34.5120   43.0560 C   0  0  0  0  0  0  0  0  0  0  0  0
   45.7320   33.6410   44.0560 N   0  0  0  0  0  0  0  0  0  0  0  0
   45.4330   33.9410   45.3480 C   0  0  0  0  0  0  0  0  0  0  0  0
   44.8040   35.1000   45.6620 N   0  0  0  0  0  0  0  0  0  0  0  0
   48.4350   33.1110   39.4920 C   0  0  0  0  0  0  0  0  0  0  0  0
   48.2550   32.7660   38.0990 N   0  0  0  0  0  0  0  0  0  0  0  0
   47.9610   31.4910   37.7250 C   0  0  0  0  0  0  0  0  0  0  0  0
   47.7940   31.1830   36.4050 C   0  0  0  0  0  0  0  0  0  0  0  0
   47.9270   32.1760   35.4620 C   0  0  0  0  0  0  0  0  0  0  0  0
   47.7780   31.9250   34.2260 O   0  0  0  0  0  0  0  0  0  0  0  0
   48.2210   33.4640   35.7970 N   0  0  0  0  0  0  0  0  0  0  0  0
   48.3670   33.6700   37.1190 C   0  0  0  0  0  0  0  0  0  0  0  0
   48.6420   34.8710   37.4490 O   0  0  0  0  0  0  0  0  0  0  0  0
   43.9578   36.9053   44.9806 H   0  0  0  0  0  0  0  0  0  0  0  0
   44.4744   36.4256   42.5638 H   0  0  0  0  0  0  0  0  0  0  0  0
   45.7045   33.2355   46.1471 H   0  0  0  0  0  0  0  0  0  0  0  0
   49.1377   33.9545   39.5603 H   0  0  0  0  0  0  0  0  0  0  0  0
   48.8239   32.2234   40.0126 H   0  0  0  0  0  0  0  0  0  0  0  0
   47.8575   30.7058   38.4884 H   0  0  0  0  0  0  0  0  0  0  0  0
   47.5560   30.1534   36.0994 H   0  0  0  0  0  0  0  0  0  0  0  0
   48.3226   34.2146   35.0990 H   0  0  0  0  0  0  0  0  0  0  0  0
  1  8  1  0
  2  1  2  0
  3  4  1  0
  3  2  1  0
  4  5  2  0
  5  1  1  0
  6 11  2  0
  7  6  1  0
  8  7  2  0
  8  9  1  0
  9 10  2  0
 10 11  1  0
 12  4  1  0
 13 12  1  0
 14 13  1  0
 15 14  2  0
 16 18  1  0
 16 15  1  0
 17 16  2  0
 18 19  1  0
 19 20  2  0
 19 13  1  0
  6 21  1  0
  7 22  1  0
 10 23  1  0
 12 24  1  0
 12 25  1  0
 14 26  1  0
 15 27  1  0
 18 28  1  0
M  ISO  8  21  14  22  14  23  14  24   8  25   8  26  14  27  14  28   9
M  END
>  <minimizedAffinity>  (1) 
-4.98819017

>  <minimizedRMSD>  (1) 
2.8847692

$$$$
