
     RDKit          3D

 32 35  0  0  0  0  0  0  0  0999 V2000
   46.0630   34.4380   42.4430 C   0  0  0  0  0  0  0  0  0  0  0  0
   45.0700   35.2620   42.8000 N   0  0  0  0  0  0  0  0  0  0  0  0
   43.9200   34.6840   42.5640 O   0  0  0  0  0  0  0  0  0  0  0  0
   44.1450   33.4940   42.0570 C   0  0  0  0  0  0  0  0  0  0  0  0
   45.4900   33.3110   41.9690 N   0  0  0  0  0  0  0  0  0  0  0  0
   49.6990   33.5490   42.8210 C   0  0  0  0  0  0  0  0  0  0  0  0
   48.3020   33.3820   42.8850 C   0  0  0  0  0  0  0  0  0  0  0  0
   47.5220   34.4570   42.4400 C   0  0  0  0  0  0  0  0  0  0  0  0
   48.1320   35.5970   41.9720 N   0  0  0  0  0  0  0  0  0  0  0  0
   49.4860   35.6900   41.9370 C   0  0  0  0  0  0  0  0  0  0  0  0
   50.2560   34.6680   42.3620 N   0  0  0  0  0  0  0  0  0  0  0  0
   43.1220   32.4720   41.6300 C   0  0  0  0  0  0  0  0  0  0  0  0
   42.6320   32.8310   40.2700 C   0  0  0  0  0  0  0  0  0  0  0  0
   43.0980   32.2670   39.1050 C   0  0  0  0  0  0  0  0  0  0  0  0
   42.4250   32.8320   38.0660 N   0  0  0  0  0  0  0  0  0  0  0  0
   41.5760   33.7150   38.6120 C   0  0  0  0  0  0  0  0  0  0  0  0
   40.6880   34.5230   37.9150 C   0  0  0  0  0  0  0  0  0  0  0  0
   39.8800   35.3830   38.6330 C   0  0  0  0  0  0  0  0  0  0  0  0
   39.9820   35.4080   40.0080 C   0  0  0  0  0  0  0  0  0  0  0  0
   40.8700   34.6000   40.7160 C   0  0  0  0  0  0  0  0  0  0  0  0
   41.6580   33.7590   39.9690 C   0  0  0  0  0  0  0  0  0  0  0  0
   50.3499   32.7299   43.1606 H   0  0  0  0  0  0  0  0  0  0  0  0
   47.8470   32.4553   43.2648 H   0  0  0  0  0  0  0  0  0  0  0  0
   49.9594   36.6079   41.5583 H   0  0  0  0  0  0  0  0  0  0  0  0
   43.5829   31.4735   41.6064 H   0  0  0  0  0  0  0  0  0  0  0  0
   42.2829   32.4598   42.3411 H   0  0  0  0  0  0  0  0  0  0  0  0
   43.8777   31.4950   39.0270 H   0  0  0  0  0  0  0  0  0  0  0  0
   42.5435   32.6239   37.0642 H   0  0  0  0  0  0  0  0  0  0  0  0
   40.6292   34.4794   36.8174 H   0  0  0  0  0  0  0  0  0  0  0  0
   39.1649   36.0390   38.1150 H   0  0  0  0  0  0  0  0  0  0  0  0
   39.3340   36.0959   40.5709 H   0  0  0  0  0  0  0  0  0  0  0  0
   40.9361   34.6341   41.8135 H   0  0  0  0  0  0  0  0  0  0  0  0
  1  2  2  0
  3  2  1  0
  4  3  1  0
  5  4  2  0
  5  1  1  0
  6  7  2  0
  8  1  1  0
  8  7  1  0
  9  8  2  0
 10  9  1  0
 10 11  2  0
 11  6  1  0
 12  4  1  0
 13 12  1  0
 14 13  2  0
 15 16  1  0
 15 14  1  0
 16 21  2  0
 17 16  1  0
 17 18  2  0
 18 19  1  0
 19 20  2  0
 21 13  1  0
 21 20  1  0
  6 22  1  0
  7 23  1  0
 10 24  1  0
 12 25  1  0
 12 26  1  0
 14 27  1  0
 15 28  1  0
 17 29  1  0
 18 30  1  0
 19 31  1  0
 20 32  1  0
M  ISO  8  22  14  23  14  24  14  25   8  26   8  27  14  28   9  29  14
M  ISO  3  30  14  31  14  32  14
M  END
>  <minimizedAffinity>  (1) 
-4.96184874

>  <minimizedRMSD>  (1) 
7.42788219

$$$$
