
     RDKit          3D

 32 34  0  0  1  0  0  0  0  0999 V2000
   46.0140   32.4410   44.6600 C   0  0  0  0  0  0  0  0  0  0  0  0
   45.6290   31.2050   44.3160 N   0  0  0  0  0  0  0  0  0  0  0  0
   46.3060   30.3280   44.9820 O   0  0  0  0  0  0  0  0  0  0  0  0
   47.1490   30.9610   45.7750 C   0  0  0  0  0  0  0  0  0  0  0  0
   46.9770   32.2810   45.5830 N   0  0  0  0  0  0  0  0  0  0  0  0
   45.6180   35.7100   42.8610 C   0  0  0  0  0  0  0  0  0  0  0  0
   46.0080   34.3880   43.0830 C   0  0  0  0  0  0  0  0  0  0  0  0
   45.6680   33.8160   44.3000 C   0  0  0  0  0  0  0  0  0  0  0  0
   44.9760   34.5420   45.2280 N   0  0  0  0  0  0  0  0  0  0  0  0
   44.6210   35.8330   44.9540 C   0  0  0  0  0  0  0  0  0  0  0  0
   44.9440   36.4080   43.7730 N   0  0  0  0  0  0  0  0  0  0  0  0
   48.1480   30.3790   46.7410 C   0  0  0  0  0  0  0  0  0  0  0  0
   47.4020   30.0120   48.0290 C   0  0  2  0  0  0  0  0  0  0  0  0
   46.0700   29.4780   47.6530 C   0  0  0  0  0  0  0  0  0  0  0  0
   44.9520   29.9750   48.5450 C   0  0  0  0  0  0  0  0  0  0  0  0
   44.9550   31.4850   48.3630 C   0  0  0  0  0  0  0  0  0  0  0  0
   46.1810   32.0160   49.0050 C   0  0  0  0  0  0  0  0  0  0  0  0
   47.4120   31.2090   48.9220 C   0  0  0  0  0  0  0  0  0  0  0  0
   45.8750   36.1891   41.9047 H   0  0  0  0  0  0  0  0  0  0  0  0
   46.5639   33.8214   42.3215 H   0  0  0  0  0  0  0  0  0  0  0  0
   44.0644   36.4130   45.7049 H   0  0  0  0  0  0  0  0  0  0  0  0
   48.6074   29.4791   46.3062 H   0  0  0  0  0  0  0  0  0  0  0  0
   48.9434   31.1083   46.9543 H   0  0  0  0  0  0  0  0  0  0  0  0
   47.8783   29.2104   48.6125 H   0  0  0  0  0  0  0  0  0  0  0  0
   45.8519   29.7808   46.6182 H   0  0  0  0  0  0  0  0  0  0  0  0
   46.1140   28.3845   47.7644 H   0  0  0  0  0  0  0  0  0  0  0  0
   43.9875   29.5485   48.2322 H   0  0  0  0  0  0  0  0  0  0  0  0
   45.0963   29.6822   49.5954 H   0  0  0  0  0  0  0  0  0  0  0  0
   44.9564   31.7328   47.2913 H   0  0  0  0  0  0  0  0  0  0  0  0
   44.0585   31.9290   48.8203 H   0  0  0  0  0  0  0  0  0  0  0  0
   46.1726   32.9837   49.5280 H   0  0  0  0  0  0  0  0  0  0  0  0
   48.3086   31.4797   49.4990 H   0  0  0  0  0  0  0  0  0  0  0  0
  1  5  1  0
  2  1  2  0
  2  3  1  0
  3  4  1  0
  4 12  1  0
  5  4  2  0
  6  7  2  0
  6 11  1  0
  7  8  1  0
  8  1  1  0
  8  9  2  0
 10  9  1  0
 11 10  2  0
 13 12  1  0
 13 18  1  0
 14 13  1  0
 14 15  1  0
 16 15  1  0
 16 17  1  0
 18 17  2  0
  6 19  1  0
  7 20  1  0
 10 21  1  0
 12 22  1  0
 12 23  1  0
 13 24  1  1
 14 25  1  0
 14 26  1  0
 15 27  1  0
 15 28  1  0
 16 29  1  0
 16 30  1  0
 17 31  1  0
 18 32  1  0
M  ISO  8  19  14  20  14  21  14  22   8  23   8  24  13  25  13  26  13
M  ISO  6  27  13  28  13  29  13  30  13  31  13  32  13
M  END
>  <minimizedAffinity>  (1) 
-4.88697195

>  <minimizedRMSD>  (1) 
7.96014166

$$$$
