
     RDKit          3D

 28 30  0  0  0  0  0  0  0  0999 V2000
   47.0670   34.0010   42.5350 C   0  0  0  0  0  0  0  0  0  0  0  0
   47.8570   32.9280   42.2880 N   0  0  0  0  0  0  0  0  0  0  0  0
   48.4300   33.0640   41.1290 O   0  0  0  0  0  0  0  0  0  0  0  0
   48.0250   34.2160   40.6080 C   0  0  0  0  0  0  0  0  0  0  0  0
   47.1770   34.8020   41.4800 N   0  0  0  0  0  0  0  0  0  0  0  0
   44.5540   35.8500   44.6140 C   0  0  0  0  0  0  0  0  0  0  0  0
   45.3430   35.5510   43.4900 C   0  0  0  0  0  0  0  0  0  0  0  0
   46.1870   34.4350   43.6260 C   0  0  0  0  0  0  0  0  0  0  0  0
   46.2210   33.7090   44.7760 N   0  0  0  0  0  0  0  0  0  0  0  0
   45.4330   34.0510   45.8260 C   0  0  0  0  0  0  0  0  0  0  0  0
   44.6020   35.1240   45.7360 N   0  0  0  0  0  0  0  0  0  0  0  0
   48.4190   34.7970   39.2860 C   0  0  0  0  0  0  0  0  0  0  0  0
   47.9690   33.9520   38.1620 C   0  0  0  0  0  0  0  0  0  0  0  0
   46.7420   33.3210   38.1310 C   0  0  0  0  0  0  0  0  0  0  0  0
   46.4080   32.5430   37.0240 C   0  0  0  0  0  0  0  0  0  0  0  0
   47.2560   32.3760   35.9530 C   0  0  0  0  0  0  0  0  0  0  0  0
   48.4810   33.0160   36.0010 C   0  0  0  0  0  0  0  0  0  0  0  0
   48.8170   33.7810   37.0840 C   0  0  0  0  0  0  0  0  0  0  0  0
   43.8725   36.7123   44.5692 H   0  0  0  0  0  0  0  0  0  0  0  0
   45.3029   36.1489   42.5676 H   0  0  0  0  0  0  0  0  0  0  0  0
   45.4662   33.4590   46.7525 H   0  0  0  0  0  0  0  0  0  0  0  0
   47.9660   35.7944   39.1858 H   0  0  0  0  0  0  0  0  0  0  0  0
   49.5168   34.8572   39.2515 H   0  0  0  0  0  0  0  0  0  0  0  0
   46.0373   33.4306   38.9685 H   0  0  0  0  0  0  0  0  0  0  0  0
   45.4284   32.0429   37.0056 H   0  0  0  0  0  0  0  0  0  0  0  0
   46.9699   31.7562   35.0904 H   0  0  0  0  0  0  0  0  0  0  0  0
   49.1879   32.9094   35.1650 H   0  0  0  0  0  0  0  0  0  0  0  0
   49.7981   34.2783   37.0975 H   0  0  0  0  0  0  0  0  0  0  0  0
  1  8  1  0
  2  1  2  0
  3  2  1  0
  4  3  1  0
  4  5  2  0
  5  1  1  0
  6 11  2  0
  7  8  2  0
  7  6  1  0
  8  9  1  0
  9 10  2  0
 11 10  1  0
 12  4  1  0
 13 12  1  0
 14 13  2  0
 15 14  1  0
 16 17  1  0
 16 15  2  0
 17 18  2  0
 18 13  1  0
  6 19  1  0
  7 20  1  0
 10 21  1  0
 12 22  1  0
 12 23  1  0
 14 24  1  0
 15 25  1  0
 16 26  1  0
 17 27  1  0
 18 28  1  0
M  ISO  8  19  14  20  14  21  14  22   8  23   8  24  14  25  14  26  14
M  ISO  2  27  14  28  14
M  END
>  <minimizedAffinity>  (1) 
-4.88196468

>  <minimizedRMSD>  (1) 
2.61072397

$$$$
