
     RDKit          3D

 31 33  0  0  0  0  0  0  0  0999 V2000
   42.5130   34.6690   41.4840 C   0  0  0  0  0  0  0  0  0  0  0  0
   41.4150   35.4400   41.6170 N   0  0  0  0  0  0  0  0  0  0  0  0
   40.3560   34.7640   41.2490 O   0  0  0  0  0  0  0  0  0  0  0  0
   40.7460   33.5600   40.8750 C   0  0  0  0  0  0  0  0  0  0  0  0
   42.0910   33.4800   41.0150 N   0  0  0  0  0  0  0  0  0  0  0  0
   46.2500   34.4140   41.2270 C   0  0  0  0  0  0  0  0  0  0  0  0
   44.8980   34.1960   40.9040 C   0  0  0  0  0  0  0  0  0  0  0  0
   43.9440   34.8130   41.7110 C   0  0  0  0  0  0  0  0  0  0  0  0
   44.3370   35.5880   42.7600 N   0  0  0  0  0  0  0  0  0  0  0  0
   45.6600   35.7670   43.0300 C   0  0  0  0  0  0  0  0  0  0  0  0
   46.6070   35.1720   42.2540 N   0  0  0  0  0  0  0  0  0  0  0  0
   39.8940   32.4240   40.3720 C   0  0  0  0  0  0  0  0  0  0  0  0
   40.7400   29.0070   42.8110 C   0  0  0  0  0  0  0  0  0  0  0  0
   40.5610   30.2620   43.3860 C   0  0  0  0  0  0  0  0  0  0  0  0
   40.2890   31.3500   42.5790 C   0  0  0  0  0  0  0  0  0  0  0  0
   40.1880   31.2250   41.1940 C   0  0  0  0  0  0  0  0  0  0  0  0
   40.3700   29.9660   40.6640 C   0  0  0  0  0  0  0  0  0  0  0  0
   40.6420   28.8700   41.4410 C   0  0  0  0  0  0  0  0  0  0  0  0
   41.0760   27.7570   43.9970 S   0  0  0  0  0  0  0  0  0  0  0  0
   42.4100   27.9140   44.6350 O   0  0  0  0  0  0  0  0  0  0  0  0
   40.9400   26.4150   43.3020 O   0  0  0  0  0  0  0  0  0  0  0  0
   47.0307   33.9433   40.6114 H   0  0  0  0  0  0  0  0  0  0  0  0
   44.6065   33.5655   40.0510 H   0  0  0  0  0  0  0  0  0  0  0  0
   45.9648   36.3957   43.8796 H   0  0  0  0  0  0  0  0  0  0  0  0
   38.8300   32.6872   40.4646 H   0  0  0  0  0  0  0  0  0  0  0  0
   40.1155   32.2227   39.3135 H   0  0  0  0  0  0  0  0  0  0  0  0
   40.6357   30.3868   44.4763 H   0  0  0  0  0  0  0  0  0  0  0  0
   40.1487   32.3387   43.0403 H   0  0  0  0  0  0  0  0  0  0  0  0
   40.2940   29.8354   39.5744 H   0  0  0  0  0  0  0  0  0  0  0  0
   40.7818   27.8839   40.9740 H   0  0  0  0  0  0  0  0  0  0  0  0
   40.1765   27.8545   45.0257 H   0  0  0  0  0  0  0  0  0  0  0  0
  1  2  2  0
  1  8  1  0
  3  2  1  0
  4  5  2  0
  4  3  1  0
  5  1  1  0
  6 11  2  0
  7  6  1  0
  7  8  2  0
  8  9  1  0
  9 10  2  0
 11 10  1  0
 12  4  1  0
 12 16  1  0
 13 14  2  0
 13 19  1  0
 15 14  1  0
 16 15  2  0
 17 16  1  0
 17 18  2  0
 18 13  1  0
 19 20  2  0
 21 19  2  0
  6 22  1  0
  7 23  1  0
 10 24  1  0
 12 25  1  0
 12 26  1  0
 14 27  1  0
 15 28  1  0
 17 29  1  0
 18 30  1  0
 19 31  1  0
M  ISO  8  22  14  23  14  24  14  25   8  26   8  27  14  28  14  29  14
M  ISO  2  30  14  31  11
M  END
>  <minimizedAffinity>  (1) 
-4.27724171

>  <minimizedRMSD>  (1) 
8.06870556

$$$$
