
     RDKit          3D

 36 38  0  0  1  0  0  0  0  0999 V2000
   47.8940   34.9000   41.3180 C   0  0  2  0  0  0  0  0  0  0  0  0
   49.0590   35.6820   41.6450 C   0  0  0  0  0  0  0  0  0  0  0  0
   50.0530   34.7500   42.3630 C   0  0  0  0  0  0  0  0  0  0  0  0
   49.4450   33.3680   42.3760 C   0  0  0  0  0  0  0  0  0  0  0  0
   48.0040   33.6440   42.2350 C   0  0  1  0  0  0  0  0  0  0  0  0
   47.7260   34.3690   39.9670 C   0  0  0  0  0  0  0  0  0  0  0  0
   48.5530   34.8510   38.9420 C   0  0  0  0  0  0  0  0  0  0  0  0
   48.4300   34.3610   37.6550 C   0  0  0  0  0  0  0  0  0  0  0  0
   47.4750   33.4050   37.4570 N   0  0  0  0  0  0  0  0  0  0  0  0
   46.6870   32.9500   38.4460 C   0  0  0  0  0  0  0  0  0  0  0  0
   46.8220   33.4420   39.7000 N   0  0  0  0  0  0  0  0  0  0  0  0
   47.4030   33.9750   43.5600 C   0  0  0  0  0  0  0  0  0  0  0  0
   46.1160   34.7310   43.3980 C   0  0  0  0  0  0  0  0  0  0  0  0
   45.0190   34.3630   44.3450 C   0  0  0  0  0  0  0  0  0  0  0  0
   45.3430   34.1080   45.7510 C   0  0  0  0  0  0  0  0  0  0  0  0
   44.6170   35.3540   45.4600 C   0  0  0  0  0  0  0  0  0  0  0  0
   47.0483   35.5930   41.4390 H   0  0  0  0  0  0  0  0  0  0  0  0
   49.5140   36.0808   40.7264 H   0  0  0  0  0  0  0  0  0  0  0  0
   48.7882   36.5313   42.2895 H   0  0  0  0  0  0  0  0  0  0  0  0
   51.0113   34.7344   41.8232 H   0  0  0  0  0  0  0  0  0  0  0  0
   50.2442   35.1006   43.3880 H   0  0  0  0  0  0  0  0  0  0  0  0
   49.8168   32.7636   41.5355 H   0  0  0  0  0  0  0  0  0  0  0  0
   49.6917   32.7921   43.2801 H   0  0  0  0  0  0  0  0  0  0  0  0
   47.4791   32.7694   41.8233 H   0  0  0  0  0  0  0  0  0  0  0  0
   49.3041   35.6236   39.1633 H   0  0  0  0  0  0  0  0  0  0  0  0
   49.0673   34.7219   36.8343 H   0  0  0  0  0  0  0  0  0  0  0  0
   45.9322   32.1777   38.2366 H   0  0  0  0  0  0  0  0  0  0  0  0
   47.2046   33.0417   44.1074 H   0  0  0  0  0  0  0  0  0  0  0  0
   48.1111   34.6072   44.1158 H   0  0  0  0  0  0  0  0  0  0  0  0
   46.3340   35.8006   43.5339 H   0  0  0  0  0  0  0  0  0  0  0  0
   45.7432   34.4729   42.3958 H   0  0  0  0  0  0  0  0  0  0  0  0
   44.4905   33.8201   43.5476 H   0  0  0  0  0  0  0  0  0  0  0  0
   44.8287   33.2954   46.2850 H   0  0  0  0  0  0  0  0  0  0  0  0
   46.2793   33.8845   46.2832 H   0  0  0  0  0  0  0  0  0  0  0  0
   45.1244   36.3259   45.5485 H   0  0  0  0  0  0  0  0  0  0  0  0
   43.6810   35.8200   45.8016 H   0  0  0  0  0  0  0  0  0  0  0  0
  1  2  1  0
  1  5  1  0
  2  3  1  0
  3  4  1  0
  5  4  1  0
  5 12  1  0
  6  1  1  0
  7  6  2  0
  8  7  1  0
  9  8  2  0
  9 10  1  0
 10 11  2  0
 11  6  1  0
 13 12  1  0
 13 14  1  0
 14 16  1  0
 14 15  1  0
 16 15  1  0
  1 17  1  1
  2 18  1  0
  2 19  1  0
  3 20  1  0
  3 21  1  0
  4 22  1  0
  4 23  1  0
  5 24  1  6
  7 25  1  0
  8 26  1  0
 10 27  1  0
 12 28  1  0
 12 29  1  0
 13 30  1  0
 13 31  1  0
 14 32  1  0
 15 33  1  0
 15 34  1  0
 16 35  1  0
 16 36  1  0
M  ISO  8  17  13  18  13  19  13  20  13  21  13  22  13  23  13  24  13
M  ISO  8  25  14  26  14  27  14  28   8  29   8  30   8  31   8  32  13
M  ISO  4  33  13  34  13  35  13  36  13
M  END
>  <minimizedAffinity>  (1) 
-4.97380209

>  <minimizedRMSD>  (1) 
1.49725866

$$$$
