
     RDKit          3D

 19 20  0  0  0  0  0  0  0  0999 V2000
   45.6580   34.1980   41.6830 C   0  0  0  0  0  0  0  0  0  0  0  0
   44.9830   33.7230   40.6180 N   0  0  0  0  0  0  0  0  0  0  0  0
   45.7880   33.5780   39.6110 O   0  0  0  0  0  0  0  0  0  0  0  0
   46.9960   33.9550   39.9990 C   0  0  0  0  0  0  0  0  0  0  0  0
   46.9200   34.3420   41.2920 N   0  0  0  0  0  0  0  0  0  0  0  0
   44.4610   35.9970   44.7590 C   0  0  0  0  0  0  0  0  0  0  0  0
   44.7090   35.7780   43.3830 C   0  0  0  0  0  0  0  0  0  0  0  0
   45.3380   34.5630   43.0650 C   0  0  0  0  0  0  0  0  0  0  0  0
   45.6750   33.6750   44.0330 N   0  0  0  0  0  0  0  0  0  0  0  0
   45.4100   33.9420   45.3370 C   0  0  0  0  0  0  0  0  0  0  0  0
   44.8010   35.1090   45.6920 N   0  0  0  0  0  0  0  0  0  0  0  0
   48.2550   33.9680   39.1850 C   0  0  0  0  0  0  0  0  0  0  0  0
   48.9370   32.2810   39.1930 S   0  0  0  0  0  0  0  0  0  0  0  0
   43.9710   36.9319   45.0685 H   0  0  0  0  0  0  0  0  0  0  0  0
   44.4276   36.5113   42.6129 H   0  0  0  0  0  0  0  0  0  0  0  0
   45.6882   33.2126   46.1120 H   0  0  0  0  0  0  0  0  0  0  0  0
   48.9799   34.6672   39.6274 H   0  0  0  0  0  0  0  0  0  0  0  0
   48.0446   34.2934   38.1555 H   0  0  0  0  0  0  0  0  0  0  0  0
   49.1060   31.8629   40.4866 H   0  0  0  0  0  0  0  0  0  0  0  0
  1  8  1  0
  2  1  2  0
  3  4  1  0
  3  2  1  0
  4  5  2  0
  5  1  1  0
  6 11  2  0
  7  6  1  0
  8  7  2  0
  8  9  1  0
  9 10  2  0
 10 11  1  0
 12 13  1  0
 12  4  1  0
  6 14  1  0
  7 15  1  0
 10 16  1  0
 12 17  1  0
 12 18  1  0
 13 19  1  0
M  ISO  6  14  14  15  14  16  14  17   8  18   8  19  11
M  END
>  <minimizedAffinity>  (1) 
-3.6141696

>  <minimizedRMSD>  (1) 
0.32981348

$$$$
