
     RDKit          3D

 22 23  0  0  0  0  0  0  0  0999 V2000
   45.9190   34.2100   41.8970 C   0  0  0  0  0  0  0  0  0  0  0  0
   45.3490   34.0800   40.6860 N   0  0  0  0  0  0  0  0  0  0  0  0
   46.2410   33.7230   39.8120 O   0  0  0  0  0  0  0  0  0  0  0  0
   47.4030   33.6150   40.4460 C   0  0  0  0  0  0  0  0  0  0  0  0
   47.2100   33.9170   41.7420 N   0  0  0  0  0  0  0  0  0  0  0  0
   44.4300   36.0070   44.8430 C   0  0  0  0  0  0  0  0  0  0  0  0
   44.7990   35.7660   43.5030 C   0  0  0  0  0  0  0  0  0  0  0  0
   45.4840   34.5720   43.2480 C   0  0  0  0  0  0  0  0  0  0  0  0
   45.7670   33.7130   44.2460 N   0  0  0  0  0  0  0  0  0  0  0  0
   45.3980   33.9760   45.5160 C   0  0  0  0  0  0  0  0  0  0  0  0
   44.7270   35.1290   45.8130 N   0  0  0  0  0  0  0  0  0  0  0  0
   48.7090   33.2270   39.8320 C   0  0  0  0  0  0  0  0  0  0  0  0
   48.3730   32.4870   38.2120 S   0  0  0  0  0  0  0  0  0  0  0  0
   48.2000   33.8370   37.0160 C   0  0  0  0  0  0  0  0  0  0  0  0
   48.7290   33.4800   35.7790 F   0  0  0  0  0  0  0  0  0  0  0  0
   46.8270   33.9900   36.8180 F   0  0  0  0  0  0  0  0  0  0  0  0
   48.7580   34.9980   37.5130 F   0  0  0  0  0  0  0  0  0  0  0  0
   43.8894   36.9307   45.0970 H   0  0  0  0  0  0  0  0  0  0  0  0
   44.5609   36.4792   42.7001 H   0  0  0  0  0  0  0  0  0  0  0  0
   45.6379   33.2600   46.3159 H   0  0  0  0  0  0  0  0  0  0  0  0
   49.3430   34.1177   39.7106 H   0  0  0  0  0  0  0  0  0  0  0  0
   49.2344   32.5078   40.4775 H   0  0  0  0  0  0  0  0  0  0  0  0
  1  8  1  0
  2  1  2  0
  3  4  1  0
  3  2  1  0
  4  5  2  0
  5  1  1  0
  6 11  2  0
  7  6  1  0
  8  7  2  0
  8  9  1  0
  9 10  2  0
 10 11  1  0
 12  4  1  0
 13 12  1  0
 14 17  1  0
 14 13  1  0
 15 14  1  0
 16 14  1  0
  6 18  1  0
  7 19  1  0
 10 20  1  0
 12 21  1  0
 12 22  1  0
M  ISO  5  18  14  19  14  20  14  21   8  22   8
M  END
>  <minimizedAffinity>  (1) 
-4.31194592

>  <minimizedRMSD>  (1) 
1.84399915

$$$$
