
     RDKit          3D

 22 23  0  0  0  0  0  0  0  0999 V2000
   45.6590   34.2000   41.6780 C   0  0  0  0  0  0  0  0  0  0  0  0
   44.9930   33.7300   40.6200 N   0  0  0  0  0  0  0  0  0  0  0  0
   45.8060   33.5880   39.6160 O   0  0  0  0  0  0  0  0  0  0  0  0
   47.0150   33.9690   40.0200 C   0  0  0  0  0  0  0  0  0  0  0  0
   46.9200   34.3490   41.3050 N   0  0  0  0  0  0  0  0  0  0  0  0
   44.4600   36.0050   44.7620 C   0  0  0  0  0  0  0  0  0  0  0  0
   44.7130   35.7750   43.3900 C   0  0  0  0  0  0  0  0  0  0  0  0
   45.3370   34.5670   43.0660 C   0  0  0  0  0  0  0  0  0  0  0  0
   45.6730   33.6750   44.0410 N   0  0  0  0  0  0  0  0  0  0  0  0
   45.4110   33.9410   45.3390 C   0  0  0  0  0  0  0  0  0  0  0  0
   44.8020   35.1090   45.6910 N   0  0  0  0  0  0  0  0  0  0  0  0
   48.2540   33.9710   39.1880 C   0  0  0  0  0  0  0  0  0  0  0  0
   48.9360   32.2850   39.1710 S   0  0  0  0  0  0  0  0  0  0  0  0
   48.0480   31.3070   37.9110 C   0  0  0  0  0  0  0  0  0  0  0  0
   43.9715   36.9411   45.0703 H   0  0  0  0  0  0  0  0  0  0  0  0
   44.4336   36.5078   42.6187 H   0  0  0  0  0  0  0  0  0  0  0  0
   45.6899   33.2128   46.1148 H   0  0  0  0  0  0  0  0  0  0  0  0
   48.0119   34.2843   38.1617 H   0  0  0  0  0  0  0  0  0  0  0  0
   48.9901   34.6725   39.6075 H   0  0  0  0  0  0  0  0  0  0  0  0
   47.3885   30.5806   38.4084 H   0  0  0  0  0  0  0  0  0  0  0  0
   47.4453   31.9793   37.2827 H   0  0  0  0  0  0  0  0  0  0  0  0
   48.7752   30.7718   37.2827 H   0  0  0  0  0  0  0  0  0  0  0  0
  1  8  1  0
  2  1  2  0
  3  4  1  0
  3  2  1  0
  4  5  2  0
  5  1  1  0
  6 11  2  0
  7  6  1  0
  8  7  2  0
  8  9  1  0
  9 10  2  0
 10 11  1  0
 12  4  1  0
 13 12  1  0
 14 13  1  0
  6 15  1  0
  7 16  1  0
 10 17  1  0
 12 18  1  0
 12 19  1  0
 14 20  1  0
 14 21  1  0
 14 22  1  0
M  ISO  8  15  14  16  14  17  14  18   8  19   8  20   8  21   8  22   8
M  END
>  <minimizedAffinity>  (1) 
-3.52353072

>  <minimizedRMSD>  (1) 
0.145979226

$$$$
