
     RDKit          3D

 36 38  0  0  1  0  0  0  0  0999 V2000
   47.7700   34.9860   41.0740 C   0  0  2  0  0  0  0  0  0  0  0  0
   48.9810   35.6620   41.4560 C   0  0  0  0  0  0  0  0  0  0  0  0
   49.7520   34.7330   42.4110 C   0  0  0  0  0  0  0  0  0  0  0  0
   48.9740   33.4370   42.4960 C   0  0  0  0  0  0  0  0  0  0  0  0
   47.5880   33.8470   42.1280 C   0  0  1  0  0  0  0  0  0  0  0  0
   47.7070   34.2920   39.7740 C   0  0  0  0  0  0  0  0  0  0  0  0
   48.5380   34.7140   38.7410 C   0  0  0  0  0  0  0  0  0  0  0  0
   48.4980   34.0810   37.5100 C   0  0  0  0  0  0  0  0  0  0  0  0
   47.6020   33.0360   37.3890 N   0  0  0  0  0  0  0  0  0  0  0  0
   46.8030   32.6410   38.4060 C   0  0  0  0  0  0  0  0  0  0  0  0
   46.8800   33.2860   39.5790 N   0  0  0  0  0  0  0  0  0  0  0  0
   46.8970   34.4660   43.3140 C   0  0  0  0  0  0  0  0  0  0  0  0
   45.8120   35.3650   42.9040 C   0  0  0  0  0  0  0  0  0  0  0  0
   44.6290   34.8610   42.2960 N   0  0  0  0  0  0  0  0  0  0  0  0
   43.7950   35.6590   41.6050 N   0  0  0  0  0  0  0  0  0  0  0  0
   42.7800   34.9910   41.0580 C   0  0  0  0  0  0  0  0  0  0  0  0
   42.9120   33.6620   41.3820 C   0  0  0  0  0  0  0  0  0  0  0  0
   44.0600   33.6720   42.1330 C   0  0  0  0  0  0  0  0  0  0  0  0
   47.0197   35.7878   41.0094 H   0  0  0  0  0  0  0  0  0  0  0  0
   49.5901   35.8725   40.5646 H   0  0  0  0  0  0  0  0  0  0  0  0
   48.7504   36.6177   41.9495 H   0  0  0  0  0  0  0  0  0  0  0  0
   50.7616   34.5420   42.0183 H   0  0  0  0  0  0  0  0  0  0  0  0
   49.8566   35.1927   43.4048 H   0  0  0  0  0  0  0  0  0  0  0  0
   49.3670   32.6937   41.7867 H   0  0  0  0  0  0  0  0  0  0  0  0
   49.0347   32.9614   43.4860 H   0  0  0  0  0  0  0  0  0  0  0  0
   47.0041   32.9862   41.7700 H   0  0  0  0  0  0  0  0  0  0  0  0
   49.2296   35.5539   38.9028 H   0  0  0  0  0  0  0  0  0  0  0  0
   49.1432   34.3925   36.6754 H   0  0  0  0  0  0  0  0  0  0  0  0
   46.1014   31.8043   38.2731 H   0  0  0  0  0  0  0  0  0  0  0  0
   46.4780   33.6646   43.9403 H   0  0  0  0  0  0  0  0  0  0  0  0
   47.6384   35.0568   43.8719 H   0  0  0  0  0  0  0  0  0  0  0  0
   45.4930   35.9022   43.8094 H   0  0  0  0  0  0  0  0  0  0  0  0
   46.2734   35.9426   42.0894 H   0  0  0  0  0  0  0  0  0  0  0  0
   41.9740   35.4287   40.4507 H   0  0  0  0  0  0  0  0  0  0  0  0
   42.2668   32.8134   41.1106 H   0  0  0  0  0  0  0  0  0  0  0  0
   44.4816   32.7554   42.5714 H   0  0  0  0  0  0  0  0  0  0  0  0
  1  2  1  0
  1  5  1  0
  2  3  1  0
  3  4  1  0
  5  4  1  0
  5 12  1  0
  6  1  1  0
  7  6  2  0
  8  7  1  0
  9  8  2  0
  9 10  1  0
 10 11  2  0
 11  6  1  0
 13 12  1  0
 14 13  1  0
 15 14  1  0
 16 17  1  0
 16 15  2  0
 17 18  2  0
 18 14  1  0
  1 19  1  6
  2 20  1  0
  2 21  1  0
  3 22  1  0
  3 23  1  0
  4 24  1  0
  4 25  1  0
  5 26  1  6
  7 27  1  0
  8 28  1  0
 10 29  1  0
 12 30  1  0
 12 31  1  0
 13 32  1  0
 13 33  1  0
 16 34  1  0
 17 35  1  0
 18 36  1  0
M  ISO  8  19  13  20  13  21  13  22  13  23  13  24  13  25  13  26  13
M  ISO  8  27  14  28  14  29  14  30   8  31   8  32   8  33   8  34  14
M  ISO  2  35  14  36  14
M  END
>  <minimizedAffinity>  (1) 
-4.84471989

>  <minimizedRMSD>  (1) 
0.894984782

$$$$
