
     RDKit          3D

 36 39  0  0  0  0  0  0  0  0999 V2000
   46.8520   33.6390   40.0660 C   0  0  0  0  0  0  0  0  0  0  0  0
   43.2750   33.6020   40.6580 C   0  0  0  0  0  0  0  0  0  0  0  0
   43.6620   32.4040   41.1620 N   0  0  0  0  0  0  0  0  0  0  0  0
   44.9490   32.2510   41.0270 O   0  0  0  0  0  0  0  0  0  0  0  0
   45.4280   33.3300   40.4400 C   0  0  0  0  0  0  0  0  0  0  0  0
   44.3800   34.1440   40.2240 N   0  0  0  0  0  0  0  0  0  0  0  0
   40.5170   36.1130   40.9770 C   0  0  0  0  0  0  0  0  0  0  0  0
   41.7760   35.5060   41.2000 C   0  0  0  0  0  0  0  0  0  0  0  0
   42.0250   34.3200   40.5220 C   0  0  0  0  0  0  0  0  0  0  0  0
   41.0920   33.7830   39.6880 N   0  0  0  0  0  0  0  0  0  0  0  0
   39.9010   34.4190   39.5200 C   0  0  0  0  0  0  0  0  0  0  0  0
   39.6180   35.5710   40.1570 N   0  0  0  0  0  0  0  0  0  0  0  0
   47.5460   34.6850   41.3910 S   0  0  0  0  0  0  0  0  0  0  0  0
   47.1770   34.0630   43.0010 C   0  0  0  0  0  0  0  0  0  0  0  0
   47.9050   33.0010   43.4700 C   0  0  0  0  0  0  0  0  0  0  0  0
   47.4370   32.6880   44.7250 N   0  0  0  0  0  0  0  0  0  0  0  0
   46.4300   33.5510   45.0230 C   0  0  0  0  0  0  0  0  0  0  0  0
   45.5780   33.7400   46.1070 C   0  0  0  0  0  0  0  0  0  0  0  0
   44.6270   34.7460   46.0820 C   0  0  0  0  0  0  0  0  0  0  0  0
   44.5010   35.5840   44.9880 C   0  0  0  0  0  0  0  0  0  0  0  0
   45.3360   35.4350   43.8710 C   0  0  0  0  0  0  0  0  0  0  0  0
   46.2450   34.4300   43.9550 C   0  0  0  0  0  0  0  0  0  0  0  0
   45.2050   36.4300   42.7800 C   0  0  0  0  0  0  0  0  0  0  0  0
   47.4296   32.7068   39.9808 H   0  0  0  0  0  0  0  0  0  0  0  0
   46.8965   34.1574   39.0968 H   0  0  0  0  0  0  0  0  0  0  0  0
   40.2753   37.0541   41.4927 H   0  0  0  0  0  0  0  0  0  0  0  0
   42.5201   35.9515   41.8766 H   0  0  0  0  0  0  0  0  0  0  0  0
   39.1499   33.9807   38.8464 H   0  0  0  0  0  0  0  0  0  0  0  0
   48.7198   32.4892   42.9370 H   0  0  0  0  0  0  0  0  0  0  0  0
   47.7876   31.9331   45.3317 H   0  0  0  0  0  0  0  0  0  0  0  0
   45.6605   33.0868   46.9882 H   0  0  0  0  0  0  0  0  0  0  0  0
   43.9603   34.8814   46.9464 H   0  0  0  0  0  0  0  0  0  0  0  0
   43.7375   36.3758   44.9945 H   0  0  0  0  0  0  0  0  0  0  0  0
   45.0730   37.4329   43.2123 H   0  0  0  0  0  0  0  0  0  0  0  0
   46.1129   36.4150   42.1591 H   0  0  0  0  0  0  0  0  0  0  0  0
   44.3320   36.1805   42.1591 H   0  0  0  0  0  0  0  0  0  0  0  0
  1  5  1  0
  1 13  1  0
  2  3  2  0
  4  3  1  0
  5  4  1  0
  6  5  2  0
  6  2  1  0
  7  8  2  0
  9  2  1  0
  9  8  1  0
 10  9  2  0
 11 10  1  0
 11 12  2  0
 12  7  1  0
 13 14  1  0
 14 15  2  0
 14 22  1  0
 15 16  1  0
 16 17  1  0
 17 18  2  0
 19 18  1  0
 20 19  2  0
 21 22  2  0
 21 20  1  0
 22 17  1  0
 23 21  1  0
  1 24  1  0
  1 25  1  0
  7 26  1  0
  8 27  1  0
 11 28  1  0
 15 29  1  0
 16 30  1  0
 18 31  1  0
 19 32  1  0
 20 33  1  0
 23 34  1  0
 23 35  1  0
 23 36  1  0
M  ISO  8  24   8  25   8  26  14  27  14  28  14  29  14  30   9  31  14
M  ISO  5  32  14  33  14  34   8  35   8  36   8
M  END
>  <minimizedAffinity>  (1) 
-5.5797987

>  <minimizedRMSD>  (1) 
0.550954401

$$$$
