
     RDKit          3D

 12 12  0  0  0  0  0  0  0  0999 V2000
   45.4050   34.7560   44.4570 C   0  0  0  0  0  0  0  0  0  0  0  0
   46.4060   34.2100   43.6370 C   0  0  0  0  0  0  0  0  0  0  0  0
   47.1700   33.1610   44.1500 C   0  0  0  0  0  0  0  0  0  0  0  0
   46.8940   32.7350   45.4180 N   0  0  0  0  0  0  0  0  0  0  0  0
   45.9200   33.2880   46.1760 C   0  0  0  0  0  0  0  0  0  0  0  0
   45.1800   34.2940   45.6960 N   0  0  0  0  0  0  0  0  0  0  0  0
   44.6580   35.8340   43.8610 C   0  0  0  0  0  0  0  0  0  0  0  0
   45.1470   36.7910   43.1900 O   0  0  0  0  0  0  0  0  0  0  0  0
   46.5822   34.5970   42.6225 H   0  0  0  0  0  0  0  0  0  0  0  0
   47.9672   32.6932   43.5536 H   0  0  0  0  0  0  0  0  0  0  0  0
   45.7353   32.9089   47.1920 H   0  0  0  0  0  0  0  0  0  0  0  0
   43.5670   35.8255   44.0008 H   0  0  0  0  0  0  0  0  0  0  0  0
  1  6  2  0
  2  3  2  0
  2  1  1  0
  3  4  1  0
  4  5  2  0
  6  5  1  0
  7  1  1  0
  8  7  2  0
  2  9  1  0
  3 10  1  0
  5 11  1  0
  7 12  1  0
M  ISO  4   9  14  10  14  11  14  12   6
M  END
>  <minimizedAffinity>  (1) 
-2.81131339

>  <minimizedRMSD>  (1) 
1.57870984

$$$$
