
     RDKit          3D

 19 19  0  0  0  0  0  0  0  0999 V2000
   44.8090   35.8820   43.7210 C   0  0  0  0  0  0  0  0  0  0  0  0
   45.2900   36.9830   43.3200 O   0  0  0  0  0  0  0  0  0  0  0  0
   43.3800   35.7600   43.5310 N   0  0  0  0  0  0  0  0  0  0  0  0
   42.8470   35.5170   42.2180 C   0  0  0  0  0  0  0  0  0  0  0  0
   43.6230   35.4030   41.1960 N   0  0  0  0  0  0  0  0  0  0  0  0
   41.4520   35.3870   41.9600 N   0  0  0  0  0  0  0  0  0  0  0  0
   43.3100   35.2290   40.2270 H   0  0  0  0  0  0  0  0  0  0  0  0
   45.5180   34.7860   44.3240 C   0  0  0  0  0  0  0  0  0  0  0  0
   46.5190   34.2610   43.5070 C   0  0  0  0  0  0  0  0  0  0  0  0
   47.2500   33.1850   44.0390 C   0  0  0  0  0  0  0  0  0  0  0  0
   46.9320   32.7400   45.2960 N   0  0  0  0  0  0  0  0  0  0  0  0
   45.9500   33.2940   46.0300 C   0  0  0  0  0  0  0  0  0  0  0  0
   45.2350   34.3260   45.5420 N   0  0  0  0  0  0  0  0  0  0  0  0
   42.7442   35.8473   44.3367 H   0  0  0  0  0  0  0  0  0  0  0  0
   41.1197   35.2131   41.0007 H   0  0  0  0  0  0  0  0  0  0  0  0
   40.7757   35.4669   42.7328 H   0  0  0  0  0  0  0  0  0  0  0  0
   46.7243   34.6654   42.5049 H   0  0  0  0  0  0  0  0  0  0  0  0
   48.0574   32.7116   43.4610 H   0  0  0  0  0  0  0  0  0  0  0  0
   45.7298   32.9021   47.0340 H   0  0  0  0  0  0  0  0  0  0  0  0
  1  8  1  0
  2  1  2  0
  3  1  1  0
  4  3  1  0
  5  4  2  0
  6  4  1  0
  7  5  1  0
  8 13  2  0
  9 10  2  0
  9  8  1  0
 10 11  1  0
 11 12  2  0
 13 12  1  0
  3 14  1  0
  6 15  1  0
  6 16  1  0
  9 17  1  0
 10 18  1  0
 12 19  1  0
M  ISO  3  17  14  18  14  19  14
M  END
>  <minimizedAffinity>  (1) 
-4.4596796

>  <minimizedRMSD>  (1) 
0.568469286

$$$$
