
     RDKit          3D

 19 20  0  0  0  0  0  0  0  0999 V2000
   47.1060   33.8960   42.5720 C   0  0  0  0  0  0  0  0  0  0  0  0
   48.3110   34.5930   42.7740 C   0  0  0  0  0  0  0  0  0  0  0  0
   48.9600   35.0950   41.6530 C   0  0  0  0  0  0  0  0  0  0  0  0
   48.3920   34.8810   40.4400 N   0  0  0  0  0  0  0  0  0  0  0  0
   47.2320   34.2070   40.2870 C   0  0  0  0  0  0  0  0  0  0  0  0
   46.5890   33.7150   41.3430 N   0  0  0  0  0  0  0  0  0  0  0  0
   46.4650   33.3920   43.7670 C   0  0  0  0  0  0  0  0  0  0  0  0
   46.5610   32.2120   44.1970 O   0  0  0  0  0  0  0  0  0  0  0  0
   45.6440   34.3100   44.5430 C   0  0  0  0  0  0  0  0  0  0  0  0
   45.0580   35.4680   44.0680 C   0  0  0  0  0  0  0  0  0  0  0  0
   44.3570   36.0730   45.0900 C   0  0  0  0  0  0  0  0  0  0  0  0
   44.5180   35.2900   46.1670 N   0  0  0  0  0  0  0  0  0  0  0  0
   45.2770   34.2500   45.8390 N   0  0  0  0  0  0  0  0  0  0  0  0
   48.7245   34.7354   43.7833 H   0  0  0  0  0  0  0  0  0  0  0  0
   49.9057   35.6491   41.7462 H   0  0  0  0  0  0  0  0  0  0  0  0
   46.8145   34.0632   39.2795 H   0  0  0  0  0  0  0  0  0  0  0  0
   45.1380   35.8469   43.0384 H   0  0  0  0  0  0  0  0  0  0  0  0
   43.7818   37.0089   45.0333 H   0  0  0  0  0  0  0  0  0  0  0  0
   44.1173   35.4667   47.0993 H   0  0  0  0  0  0  0  0  0  0  0  0
  1  2  2  0
  1  7  1  0
  3  2  1  0
  4  3  2  0
  5  4  1  0
  5  6  2  0
  6  1  1  0
  7  8  2  0
  7  9  1  0
  9 13  2  0
 10  9  1  0
 10 11  2  0
 11 12  1  0
 13 12  1  0
  2 14  1  0
  3 15  1  0
  5 16  1  0
 10 17  1  0
 11 18  1  0
 12 19  1  0
M  ISO  6  14  14  15  14  16  14  17  14  18  14  19   9
M  END
>  <minimizedAffinity>  (1) 
-4.23858595

>  <minimizedRMSD>  (1) 
4.04478121

$$$$
