
     RDKit          3D

 19 20  0  0  0  0  0  0  0  0999 V2000
   45.7160   34.6340   43.8830 C   0  0  0  0  0  0  0  0  0  0  0  0
   46.4560   33.5550   44.3750 C   0  0  0  0  0  0  0  0  0  0  0  0
   46.2800   33.1450   45.6980 C   0  0  0  0  0  0  0  0  0  0  0  0
   45.3680   33.8470   46.4450 N   0  0  0  0  0  0  0  0  0  0  0  0
   44.6720   34.8800   45.9410 C   0  0  0  0  0  0  0  0  0  0  0  0
   44.8510   35.2590   44.6800 N   0  0  0  0  0  0  0  0  0  0  0  0
   45.9750   34.9690   42.5120 C   0  0  0  0  0  0  0  0  0  0  0  0
   47.0600   35.4350   42.0690 O   0  0  0  0  0  0  0  0  0  0  0  0
   44.9070   34.7630   41.5090 C   0  0  0  0  0  0  0  0  0  0  0  0
   43.7750   35.5490   41.4080 C   0  0  0  0  0  0  0  0  0  0  0  0
   43.0200   35.0500   40.3580 C   0  0  0  0  0  0  0  0  0  0  0  0
   43.7530   33.9800   39.8840 C   0  0  0  0  0  0  0  0  0  0  0  0
   44.8750   33.8180   40.5770 O   0  0  0  0  0  0  0  0  0  0  0  0
   47.1723   33.0323   43.7241 H   0  0  0  0  0  0  0  0  0  0  0  0
   46.8446   32.3008   46.1206 H   0  0  0  0  0  0  0  0  0  0  0  0
   43.9501   35.4148   46.5757 H   0  0  0  0  0  0  0  0  0  0  0  0
   43.5203   36.4105   42.0428 H   0  0  0  0  0  0  0  0  0  0  0  0
   42.0542   35.4226   39.9860 H   0  0  0  0  0  0  0  0  0  0  0  0
   43.4472   33.3433   39.0407 H   0  0  0  0  0  0  0  0  0  0  0  0
  1  2  2  0
  1  6  1  0
  2  3  1  0
  3  4  2  0
  5  4  1  0
  6  5  2  0
  7  1  1  0
  8  7  2  0
  9  7  1  0
 10  9  2  0
 11 10  1  0
 12 11  2  0
 12 13  1  0
 13  9  1  0
  2 14  1  0
  3 15  1  0
  5 16  1  0
 10 17  1  0
 11 18  1  0
 12 19  1  0
M  ISO  6  14  14  15  14  16  14  17  14  18  14  19  14
M  END
>  <minimizedAffinity>  (1) 
-3.88919854

>  <minimizedRMSD>  (1) 
3.02977371

$$$$
