
     RDKit          3D

 19 20  0  0  0  0  0  0  0  0999 V2000
   45.7330   34.6030   43.9410 C   0  0  0  0  0  0  0  0  0  0  0  0
   46.4980   33.5250   44.4450 C   0  0  0  0  0  0  0  0  0  0  0  0
   46.3090   33.1330   45.7590 C   0  0  0  0  0  0  0  0  0  0  0  0
   45.3890   33.8130   46.5000 N   0  0  0  0  0  0  0  0  0  0  0  0
   44.6760   34.8340   45.9990 C   0  0  0  0  0  0  0  0  0  0  0  0
   44.8400   35.2270   44.7420 N   0  0  0  0  0  0  0  0  0  0  0  0
   45.9790   34.9580   42.5680 C   0  0  0  0  0  0  0  0  0  0  0  0
   47.0730   35.4070   42.1400 O   0  0  0  0  0  0  0  0  0  0  0  0
   44.9050   34.8030   41.5680 C   0  0  0  0  0  0  0  0  0  0  0  0
   43.8030   35.5020   41.3970 C   0  0  0  0  0  0  0  0  0  0  0  0
   42.9290   35.1810   40.3910 C   0  0  0  0  0  0  0  0  0  0  0  0
   43.2760   34.1060   39.5940 C   0  0  0  0  0  0  0  0  0  0  0  0
   44.9200   33.5420   40.3260 S   0  0  0  0  0  0  0  0  0  0  0  0
   47.2287   33.0085   43.8052 H   0  0  0  0  0  0  0  0  0  0  0  0
   46.8826   32.2998   46.1912 H   0  0  0  0  0  0  0  0  0  0  0  0
   43.9462   35.3518   46.6387 H   0  0  0  0  0  0  0  0  0  0  0  0
   43.5823   36.3479   42.0646 H   0  0  0  0  0  0  0  0  0  0  0  0
   42.0011   35.7484   40.2266 H   0  0  0  0  0  0  0  0  0  0  0  0
   42.7266   33.6825   38.7403 H   0  0  0  0  0  0  0  0  0  0  0  0
  1  2  2  0
  1  6  1  0
  2  3  1  0
  3  4  2  0
  5  4  1  0
  6  5  2  0
  7  1  1  0
  8  7  2  0
  9  7  1  0
 10  9  2  0
 11 10  1  0
 12 13  1  0
 12 11  2  0
 13  9  1  0
  2 14  1  0
  3 15  1  0
  5 16  1  0
 10 17  1  0
 11 18  1  0
 12 19  1  0
M  ISO  6  14  14  15  14  16  14  17  14  18  14  19  14
M  END
>  <minimizedAffinity>  (1) 
-3.87842178

>  <minimizedRMSD>  (1) 
3.111763

$$$$
