
     RDKit          3D

 31 32  0  0  1  0  0  0  0  0999 V2000
   47.8160   34.8980   41.4190 C   0  0  2  0  0  0  0  0  0  0  0  0
   49.0420   35.5890   41.7220 C   0  0  0  0  0  0  0  0  0  0  0  0
   49.9890   34.5930   42.4150 C   0  0  0  0  0  0  0  0  0  0  0  0
   49.2820   33.2540   42.4560 C   0  0  0  0  0  0  0  0  0  0  0  0
   47.8640   33.6350   42.3380 C   0  0  1  0  0  0  0  0  0  0  0  0
   47.5970   34.3640   40.0560 C   0  0  0  0  0  0  0  0  0  0  0  0
   48.4700   34.7410   39.0390 C   0  0  0  0  0  0  0  0  0  0  0  0
   48.2870   34.2470   37.7590 C   0  0  0  0  0  0  0  0  0  0  0  0
   47.2350   33.3990   37.5680 N   0  0  0  0  0  0  0  0  0  0  0  0
   46.4000   33.0460   38.5690 C   0  0  0  0  0  0  0  0  0  0  0  0
   46.5920   33.5380   39.8180 N   0  0  0  0  0  0  0  0  0  0  0  0
   47.3230   34.0200   43.6850 C   0  0  0  0  0  0  0  0  0  0  0  0
   45.8940   34.4500   43.5600 C   0  0  0  0  0  0  0  0  0  0  0  0
   45.0490   33.4930   42.8720 N   0  0  0  0  0  0  0  0  0  0  0  0
   47.0196   35.6451   41.5516 H   0  0  0  0  0  0  0  0  0  0  0  0
   49.5022   35.9578   40.7935 H   0  0  0  0  0  0  0  0  0  0  0  0
   48.8443   36.4492   42.3785 H   0  0  0  0  0  0  0  0  0  0  0  0
   50.9264   34.5065   41.8460 H   0  0  0  0  0  0  0  0  0  0  0  0
   50.2373   34.9338   43.4310 H   0  0  0  0  0  0  0  0  0  0  0  0
   49.5926   32.6152   41.6161 H   0  0  0  0  0  0  0  0  0  0  0  0
   49.5040   32.6698   43.3613 H   0  0  0  0  0  0  0  0  0  0  0  0
   47.2718   32.8002   41.9351 H   0  0  0  0  0  0  0  0  0  0  0  0
   49.3018   35.4286   39.2519 H   0  0  0  0  0  0  0  0  0  0  0  0
   48.9588   34.5252   36.9336 H   0  0  0  0  0  0  0  0  0  0  0  0
   45.5639   32.3592   38.3711 H   0  0  0  0  0  0  0  0  0  0  0  0
   47.3853   33.1560   44.3630 H   0  0  0  0  0  0  0  0  0  0  0  0
   47.9168   34.8540   44.0873 H   0  0  0  0  0  0  0  0  0  0  0  0
   45.4894   34.6047   44.5711 H   0  0  0  0  0  0  0  0  0  0  0  0
   45.8897   35.3701   42.9572 H   0  0  0  0  0  0  0  0  0  0  0  0
   44.5440   32.9211   43.5640 H   0  0  0  0  0  0  0  0  0  0  0  0
   44.3710   33.9957   42.2817 H   0  0  0  0  0  0  0  0  0  0  0  0
  1  2  1  0
  1  5  1  0
  2  3  1  0
  3  4  1  0
  5  4  1  0
  5 12  1  0
  6  1  1  0
  7  6  2  0
  8  7  1  0
  9  8  2  0
  9 10  1  0
 10 11  2  0
 11  6  1  0
 13 12  1  0
 14 13  1  0
  1 15  1  1
  2 16  1  0
  2 17  1  0
  3 18  1  0
  3 19  1  0
  4 20  1  0
  4 21  1  0
  5 22  1  6
  7 23  1  0
  8 24  1  0
 10 25  1  0
 12 26  1  0
 12 27  1  0
 13 28  1  0
 13 29  1  0
 14 30  1  0
 14 31  1  0
M  ISO  8  15  13  16  13  17  13  18  13  19  13  20  13  21  13  22  13
M  ISO  8  23  14  24  14  25  14  26   8  27   8  28   8  29   8  30   5
M  ISO  1  31   5
M  END
>  <minimizedAffinity>  (1) 
-4.16753817

>  <minimizedRMSD>  (1) 
0.119773179

$$$$
