
     RDKit          3D

 14 14  0  0  0  0  0  0  0  0999 V2000
   45.4750   34.8140   44.3810 C   0  0  0  0  0  0  0  0  0  0  0  0
   46.4810   34.2580   43.5870 C   0  0  0  0  0  0  0  0  0  0  0  0
   47.1960   33.1900   44.1190 C   0  0  0  0  0  0  0  0  0  0  0  0
   46.8760   32.7550   45.3730 N   0  0  0  0  0  0  0  0  0  0  0  0
   45.8920   33.3310   46.1020 C   0  0  0  0  0  0  0  0  0  0  0  0
   45.2000   34.3530   45.6030 N   0  0  0  0  0  0  0  0  0  0  0  0
   44.7660   35.9110   43.7900 C   0  0  0  0  0  0  0  0  0  0  0  0
   45.2820   36.9060   43.1800 O   0  0  0  0  0  0  0  0  0  0  0  0
   43.3400   35.8030   43.9450 N   0  0  0  0  0  0  0  0  0  0  0  0
   46.6988   34.6488   42.5821 H   0  0  0  0  0  0  0  0  0  0  0  0
   47.9997   32.7076   43.5434 H   0  0  0  0  0  0  0  0  0  0  0  0
   45.6633   32.9537   47.1096 H   0  0  0  0  0  0  0  0  0  0  0  0
   42.7234   36.5332   43.5609 H   0  0  0  0  0  0  0  0  0  0  0  0
   42.9355   34.9954   44.4400 H   0  0  0  0  0  0  0  0  0  0  0  0
  1  6  2  0
  2  3  2  0
  2  1  1  0
  3  4  1  0
  4  5  2  0
  6  5  1  0
  7  9  1  0
  7  1  1  0
  8  7  2  0
  2 10  1  0
  3 11  1  0
  5 12  1  0
  9 13  1  0
  9 14  1  0
M  ISO  3  10  14  11  14  12  14
M  END
>  <minimizedAffinity>  (1) 
-3.62112975

>  <minimizedRMSD>  (1) 
0.140660852

$$$$
