
     RDKit          3D

 25 26  0  0  1  0  0  0  0  0999 V2000
   45.0290   34.1070   43.3950 C   0  0  0  0  0  0  0  0  0  0  0  0
   44.5080   32.9770   42.7650 C   0  0  0  0  0  0  0  0  0  0  0  0
   43.6190   33.1880   41.7020 C   0  0  0  0  0  0  0  0  0  0  0  0
   43.3270   34.4940   41.3590 N   0  0  0  0  0  0  0  0  0  0  0  0
   43.8640   35.5410   42.0060 C   0  0  0  0  0  0  0  0  0  0  0  0
   44.7110   35.3450   43.0200 N   0  0  0  0  0  0  0  0  0  0  0  0
   45.9330   33.8000   44.4750 C   0  0  0  0  0  0  0  0  0  0  0  0
   47.1960   33.5750   44.3410 O   0  0  0  0  0  0  0  0  0  0  0  0
   45.5940   33.7030   45.8000 O   0  0  0  0  0  0  0  0  0  0  0  0
   47.2450   33.1920   47.3990 N   0  0  0  0  0  0  0  0  0  0  0  0
   47.4220   32.0150   48.2670 C   0  0  0  0  0  0  0  0  0  0  0  0
   46.0600   32.0620   48.9730 C   0  0  0  0  0  0  0  0  0  0  0  0
   45.0990   32.5520   47.8880 C   0  0  0  0  0  0  0  0  0  0  0  0
   46.0140   32.7550   46.7240 C   0  0  1  0  0  0  0  0  0  0  0  0
   44.7833   31.9624   43.0888 H   0  0  0  0  0  0  0  0  0  0  0  0
   43.1695   32.3431   41.1598 H   0  0  0  0  0  0  0  0  0  0  0  0
   43.6051   36.5652   41.6994 H   0  0  0  0  0  0  0  0  0  0  0  0
   47.1091   34.0590   47.9381 H   0  0  0  0  0  0  0  0  0  0  0  0
   47.5602   31.0889   47.6898 H   0  0  0  0  0  0  0  0  0  0  0  0
   48.3055   32.0274   48.9221 H   0  0  0  0  0  0  0  0  0  0  0  0
   45.7699   31.0630   49.3304 H   0  0  0  0  0  0  0  0  0  0  0  0
   46.0646   32.7122   49.8603 H   0  0  0  0  0  0  0  0  0  0  0  0
   44.3311   31.7967   47.6647 H   0  0  0  0  0  0  0  0  0  0  0  0
   44.5371   33.4545   48.1706 H   0  0  0  0  0  0  0  0  0  0  0  0
   46.0973   31.8474   46.1081 H   0  0  0  0  0  0  0  0  0  0  0  0
  1  7  1  0
  2  1  2  0
  3  2  1  0
  4  3  2  0
  4  5  1  0
  5  6  2  0
  6  1  1  0
  7  9  1  0
  8  7  2  0
 10 11  1  0
 11 12  1  0
 13 12  1  0
 14  9  1  0
 14 10  1  0
 14 13  1  0
  2 15  1  0
  3 16  1  0
  5 17  1  0
 10 18  1  0
 11 19  1  0
 11 20  1  0
 12 21  1  0
 12 22  1  0
 13 23  1  0
 13 24  1  0
 14 25  1  6
M  ISO  8  15  14  16  14  17  14  18   5  19  13  20  13  21  13  22  13
M  ISO  3  23  13  24  13  25  13
M  END
>  <minimizedAffinity>  (1) 
-4.32077837

>  <minimizedRMSD>  (1) 
5.94710159

$$$$
