
     RDKit          3D

 25 27  0  0  0  0  0  0  0  0999 V2000
   44.7560   35.2010   45.5200 C   0  0  0  0  0  0  0  0  0  0  0  0
   44.2740   35.7230   44.3000 C   0  0  0  0  0  0  0  0  0  0  0  0
   44.6610   35.0600   43.1080 C   0  0  0  0  0  0  0  0  0  0  0  0
   45.4680   33.9670   43.1990 N   0  0  0  0  0  0  0  0  0  0  0  0
   45.9130   33.4940   44.4060 C   0  0  0  0  0  0  0  0  0  0  0  0
   45.5480   34.1170   45.5120 N   0  0  0  0  0  0  0  0  0  0  0  0
   46.7560   32.3610   44.4890 N   0  0  0  0  0  0  0  0  0  0  0  0
   47.4710   32.0450   43.3760 C   0  0  0  0  0  0  0  0  0  0  0  0
   48.2030   30.9150   43.7360 C   0  0  0  0  0  0  0  0  0  0  0  0
   47.9340   30.5840   44.9940 N   0  0  0  0  0  0  0  0  0  0  0  0
   47.0370   31.4670   45.4850 C   0  0  0  0  0  0  0  0  0  0  0  0
   46.4490   31.4990   46.8020 C   0  0  0  0  0  0  0  0  0  0  0  0
   45.5750   30.4740   47.0950 C   0  0  0  0  0  0  0  0  0  0  0  0
   44.9080   30.3010   48.2630 C   0  0  0  0  0  0  0  0  0  0  0  0
   45.1160   31.2180   49.2400 N   0  0  0  0  0  0  0  0  0  0  0  0
   45.9620   32.2390   49.0010 C   0  0  0  0  0  0  0  0  0  0  0  0
   46.5830   32.3410   47.8240 N   0  0  0  0  0  0  0  0  0  0  0  0
   44.4840   35.6800   46.4722 H   0  0  0  0  0  0  0  0  0  0  0  0
   43.6235   36.6097   44.2752 H   0  0  0  0  0  0  0  0  0  0  0  0
   44.3159   35.4217   42.1282 H   0  0  0  0  0  0  0  0  0  0  0  0
   47.4714   32.5656   42.4070 H   0  0  0  0  0  0  0  0  0  0  0  0
   48.8999   30.3772   43.0764 H   0  0  0  0  0  0  0  0  0  0  0  0
   45.4024   29.7260   46.3072 H   0  0  0  0  0  0  0  0  0  0  0  0
   44.2258   29.4511   48.4118 H   0  0  0  0  0  0  0  0  0  0  0  0
   46.1421   32.9934   49.7810 H   0  0  0  0  0  0  0  0  0  0  0  0
  2  1  2  0
  3  4  2  0
  3  2  1  0
  4  5  1  0
  5  7  1  0
  5  6  2  0
  6  1  1  0
  7 11  1  0
  8  9  2  0
  8  7  1  0
  9 10  1  0
 10 11  2  0
 11 12  1  0
 12 13  2  0
 12 17  1  0
 13 14  1  0
 14 15  2  0
 16 15  1  0
 17 16  2  0
  1 18  1  0
  2 19  1  0
  3 20  1  0
  8 21  1  0
  9 22  1  0
 13 23  1  0
 14 24  1  0
 16 25  1  0
M  ISO  8  18  14  19  14  20  14  21  14  22  14  23  14  24  14  25  14
M  END
>  <minimizedAffinity>  (1) 
-4.76035118

>  <minimizedRMSD>  (1) 
3.26873064

$$$$
