
     RDKit          3D

 32 34  0  0  0  0  0  0  0  0999 V2000
   48.6460   34.2650   41.6940 C   0  0  0  0  0  0  0  0  0  0  0  0
   48.4100   32.8290   41.3290 C   0  0  0  0  0  0  0  0  0  0  0  0
   49.1530   32.3760   40.1790 N   0  0  0  0  0  0  0  0  0  0  0  0
   50.2840   31.7150   39.8850 C   0  0  0  0  0  0  0  0  0  0  0  0
   50.4690   31.6160   38.5690 N   0  0  0  0  0  0  0  0  0  0  0  0
   49.4380   32.2250   37.9280 C   0  0  0  0  0  0  0  0  0  0  0  0
   49.2030   32.3730   36.5840 C   0  0  0  0  0  0  0  0  0  0  0  0
   48.0910   33.0280   36.2190 N   0  0  0  0  0  0  0  0  0  0  0  0
   47.2900   33.4910   37.1950 C   0  0  0  0  0  0  0  0  0  0  0  0
   47.5130   33.3510   38.5110 N   0  0  0  0  0  0  0  0  0  0  0  0
   48.6240   32.6960   38.9590 C   0  0  0  0  0  0  0  0  0  0  0  0
   50.0950   31.8560   35.6150 N   0  0  0  0  0  0  0  0  0  0  0  0
   47.5430   35.0190   41.5830 O   0  0  0  0  0  0  0  0  0  0  0  0
   46.2360   34.7530   41.9370 C   0  0  0  0  0  0  0  0  0  0  0  0
   45.6540   34.5360   40.8690 O   0  0  0  0  0  0  0  0  0  0  0  0
   45.7340   34.7500   43.2930 C   0  0  0  0  0  0  0  0  0  0  0  0
   44.9620   35.8550   43.5700 C   0  0  0  0  0  0  0  0  0  0  0  0
   44.4880   35.9210   44.8910 C   0  0  0  0  0  0  0  0  0  0  0  0
   44.8290   34.9070   45.7630 N   0  0  0  0  0  0  0  0  0  0  0  0
   45.5890   33.8660   45.4050 C   0  0  0  0  0  0  0  0  0  0  0  0
   46.0590   33.7720   44.1430 N   0  0  0  0  0  0  0  0  0  0  0  0
   48.9983   34.3093   42.7351 H   0  0  0  0  0  0  0  0  0  0  0  0
   49.3922   34.6659   40.9923 H   0  0  0  0  0  0  0  0  0  0  0  0
   48.6931   32.2045   42.1892 H   0  0  0  0  0  0  0  0  0  0  0  0
   47.3449   32.7427   41.0681 H   0  0  0  0  0  0  0  0  0  0  0  0
   50.9734   31.3054   40.6380 H   0  0  0  0  0  0  0  0  0  0  0  0
   46.3792   34.0273   36.8903 H   0  0  0  0  0  0  0  0  0  0  0  0
   49.8951   31.9809   34.6123 H   0  0  0  0  0  0  0  0  0  0  0  0
   50.9443   31.3548   35.9123 H   0  0  0  0  0  0  0  0  0  0  0  0
   44.7343   36.6246   42.8178 H   0  0  0  0  0  0  0  0  0  0  0  0
   43.8599   36.7610   45.2224 H   0  0  0  0  0  0  0  0  0  0  0  0
   45.8315   33.0849   46.1405 H   0  0  0  0  0  0  0  0  0  0  0  0
  2  1  1  0
  3  2  1  0
  4  3  1  0
  5  4  2  0
  6  5  1  0
  6 11  2  0
  7  6  1  0
  8  7  2  0
  8  9  1  0
  9 10  2  0
 10 11  1  0
 11  3  1  0
 12  7  1  0
 13  1  1  0
 13 14  1  0
 14 16  1  0
 15 14  2  0
 16 17  2  0
 16 21  1  0
 17 18  1  0
 18 19  2  0
 20 19  1  0
 21 20  2  0
  1 22  1  0
  1 23  1  0
  2 24  1  0
  2 25  1  0
  4 26  1  0
  9 27  1  0
 12 28  1  0
 12 29  1  0
 17 30  1  0
 18 31  1  0
 20 32  1  0
M  ISO  8  22   8  23   8  24   8  25   8  26  14  27  14  30  14  31  14
M  ISO  1  32  14
M  END
>  <minimizedAffinity>  (1) 
-4.80249023

>  <minimizedRMSD>  (1) 
1.57229328

$$$$
