
     RDKit          3D

 33 35  0  0  0  0  0  0  0  0999 V2000
   50.3000   34.0660   42.4090 C   0  0  0  0  0  0  0  0  0  0  0  0
   49.9610   32.7090   42.2870 N   0  0  0  0  0  0  0  0  0  0  0  0
   48.9930   31.8760   42.7740 C   0  0  0  0  0  0  0  0  0  0  0  0
   49.0870   30.6360   42.3090 N   0  0  0  0  0  0  0  0  0  0  0  0
   50.1490   30.6030   41.4720 C   0  0  0  0  0  0  0  0  0  0  0  0
   50.6900   29.5760   40.7270 C   0  0  0  0  0  0  0  0  0  0  0  0
   50.1970   28.4190   40.7440 O   0  0  0  0  0  0  0  0  0  0  0  0
   51.7710   29.7940   39.9570 N   0  0  0  0  0  0  0  0  0  0  0  0
   52.2760   31.0280   39.9550 C   0  0  0  0  0  0  0  0  0  0  0  0
   53.4180   31.4440   39.2000 N   0  0  0  0  0  0  0  0  0  0  0  0
   51.7500   32.0300   40.6820 N   0  0  0  0  0  0  0  0  0  0  0  0
   50.6650   31.8700   41.4740 C   0  0  0  0  0  0  0  0  0  0  0  0
   49.2910   35.1090   42.7020 C   0  0  0  0  0  0  0  0  0  0  0  0
   48.2900   35.1560   41.7910 O   0  0  0  0  0  0  0  0  0  0  0  0
   46.9680   34.7760   41.9020 C   0  0  0  0  0  0  0  0  0  0  0  0
   46.6650   34.4000   40.7580 O   0  0  0  0  0  0  0  0  0  0  0  0
   46.1940   34.8390   43.1160 C   0  0  0  0  0  0  0  0  0  0  0  0
   45.3750   35.9410   43.1540 C   0  0  0  0  0  0  0  0  0  0  0  0
   44.6200   36.0700   44.3360 C   0  0  0  0  0  0  0  0  0  0  0  0
   44.7580   35.1160   45.3200 N   0  0  0  0  0  0  0  0  0  0  0  0
   45.5930   34.0630   45.1890 C   0  0  0  0  0  0  0  0  0  0  0  0
   46.3010   33.9490   44.0720 N   0  0  0  0  0  0  0  0  0  0  0  0
   50.7688   34.3519   41.4558 H   0  0  0  0  0  0  0  0  0  0  0  0
   50.9044   34.0685   43.3281 H   0  0  0  0  0  0  0  0  0  0  0  0
   48.2144   32.2003   43.4801 H   0  0  0  0  0  0  0  0  0  0  0  0
   52.1904   29.0407   39.3935 H   0  0  0  0  0  0  0  0  0  0  0  0
   53.7443   32.4194   39.2550 H   0  0  0  0  0  0  0  0  0  0  0  0
   53.9138   30.7681   38.6015 H   0  0  0  0  0  0  0  0  0  0  0  0
   48.8542   34.9045   43.6906 H   0  0  0  0  0  0  0  0  0  0  0  0
   49.8069   36.0800   42.6700 H   0  0  0  0  0  0  0  0  0  0  0  0
   45.3137   36.6646   42.3278 H   0  0  0  0  0  0  0  0  0  0  0  0
   43.9322   36.9178   44.4710 H   0  0  0  0  0  0  0  0  0  0  0  0
   45.6846   33.3156   45.9908 H   0  0  0  0  0  0  0  0  0  0  0  0
  1 13  1  0
  2  1  1  0
  2  3  1  0
  4  3  2  0
  5 12  2  0
  5  4  1  0
  6  7  2  0
  6  5  1  0
  8  6  1  0
  9  8  1  0
  9 11  2  0
 10  9  1  0
 11 12  1  0
 12  2  1  0
 14 15  1  0
 14 13  1  0
 15 17  1  0
 16 15  2  0
 17 18  2  0
 17 22  1  0
 18 19  1  0
 19 20  2  0
 21 20  1  0
 22 21  2  0
  1 23  1  0
  1 24  1  0
  3 25  1  0
  8 26  1  0
 10 27  1  0
 10 28  1  0
 13 29  1  0
 13 30  1  0
 18 31  1  0
 19 32  1  0
 21 33  1  0
M  ISO  8  23   8  24   8  25  14  26   9  29   8  30   8  31  14  32  14
M  ISO  1  33  14
M  END
>  <minimizedAffinity>  (1) 
-4.69467449

>  <minimizedRMSD>  (1) 
1.81768036

$$$$
