
     RDKit          3D

 25 26  0  0  0  0  0  0  0  0999 V2000
   48.0920   35.3520   41.7630 O   0  0  0  0  0  0  0  0  0  0  0  0
   49.2710   34.9310   42.2720 C   0  0  0  0  0  0  0  0  0  0  0  0
   49.2450   33.4390   42.5940 C   0  0  0  0  0  0  0  0  0  0  0  0
   50.0630   32.6920   41.6020 C   0  0  0  0  0  0  0  0  0  0  0  0
   49.3090   32.2860   40.4730 C   0  0  0  0  0  0  0  0  0  0  0  0
   50.5130   31.3860   39.3990 S   0  0  0  0  0  0  0  0  0  0  0  0
   51.8700   31.7180   40.6880 C   0  0  0  0  0  0  0  0  0  0  0  0
   51.3020   32.2830   41.4580 N   0  0  0  0  0  0  0  0  0  0  0  0
   46.8130   34.8420   41.9430 C   0  0  0  0  0  0  0  0  0  0  0  0
   46.5100   34.3540   40.8460 O   0  0  0  0  0  0  0  0  0  0  0  0
   46.0690   34.9140   43.1760 C   0  0  0  0  0  0  0  0  0  0  0  0
   45.2970   36.0540   43.2510 C   0  0  0  0  0  0  0  0  0  0  0  0
   44.5790   36.1910   44.4530 C   0  0  0  0  0  0  0  0  0  0  0  0
   44.7030   35.2120   45.4160 N   0  0  0  0  0  0  0  0  0  0  0  0
   45.4860   34.1290   45.2490 C   0  0  0  0  0  0  0  0  0  0  0  0
   46.1850   33.9740   44.1060 N   0  0  0  0  0  0  0  0  0  0  0  0
   50.0661   35.1234   41.5366 H   0  0  0  0  0  0  0  0  0  0  0  0
   49.4576   35.4808   43.2063 H   0  0  0  0  0  0  0  0  0  0  0  0
   49.6554   33.2763   43.6015 H   0  0  0  0  0  0  0  0  0  0  0  0
   48.2068   33.0779   42.5522 H   0  0  0  0  0  0  0  0  0  0  0  0
   48.2415   32.4669   40.2788 H   0  0  0  0  0  0  0  0  0  0  0  0
   52.9312   31.4288   40.6752 H   0  0  0  0  0  0  0  0  0  0  0  0
   45.2467   36.7943   42.4390 H   0  0  0  0  0  0  0  0  0  0  0  0
   43.9304   37.0633   44.6215 H   0  0  0  0  0  0  0  0  0  0  0  0
   45.5553   33.3718   46.0439 H   0  0  0  0  0  0  0  0  0  0  0  0
  1  9  1  0
  1  2  1  0
  2  3  1  0
  4  3  1  0
  5  4  2  0
  6  5  1  0
  6  7  1  0
  7  8  2  0
  8  4  1  0
  9 11  1  0
 10  9  2  0
 11 12  2  0
 11 16  1  0
 12 13  1  0
 13 14  2  0
 15 14  1  0
 16 15  2  0
  2 17  1  0
  2 18  1  0
  3 19  1  0
  3 20  1  0
  5 21  1  0
  7 22  1  0
 12 23  1  0
 13 24  1  0
 15 25  1  0
M  ISO  8  17   8  18   8  19   8  20   8  21  14  22  14  23  14  24  14
M  ISO  1  25  14
M  END
>  <minimizedAffinity>  (1) 
-4.28065443

>  <minimizedRMSD>  (1) 
1.00444663

$$$$
