
     RDKit          3D

 26 27  0  0  0  0  0  0  0  0999 V2000
   48.1070   35.3250   41.7350 O   0  0  0  0  0  0  0  0  0  0  0  0
   49.2760   34.9650   42.3200 C   0  0  0  0  0  0  0  0  0  0  0  0
   49.3390   33.4960   42.6290 C   0  0  0  0  0  0  0  0  0  0  0  0
   49.8360   32.7720   41.4920 N   0  0  0  0  0  0  0  0  0  0  0  0
   51.1260   32.3070   41.5610 C   0  0  0  0  0  0  0  0  0  0  0  0
   51.5310   31.6000   40.4500 C   0  0  0  0  0  0  0  0  0  0  0  0
   50.4240   31.6340   39.6520 N   0  0  0  0  0  0  0  0  0  0  0  0
   49.4600   32.3210   40.2870 C   0  0  0  0  0  0  0  0  0  0  0  0
   46.8370   34.8210   41.9380 C   0  0  0  0  0  0  0  0  0  0  0  0
   46.5410   34.3190   40.8460 O   0  0  0  0  0  0  0  0  0  0  0  0
   46.0850   34.8980   43.1660 C   0  0  0  0  0  0  0  0  0  0  0  0
   45.3100   36.0340   43.2300 C   0  0  0  0  0  0  0  0  0  0  0  0
   44.5870   36.1810   44.4250 C   0  0  0  0  0  0  0  0  0  0  0  0
   44.7030   35.2200   45.4020 N   0  0  0  0  0  0  0  0  0  0  0  0
   45.4980   34.1290   45.2400 C   0  0  0  0  0  0  0  0  0  0  0  0
   46.1940   33.9740   44.1050 N   0  0  0  0  0  0  0  0  0  0  0  0
   50.1028   35.2178   41.6399 H   0  0  0  0  0  0  0  0  0  0  0  0
   49.3534   35.5095   43.2726 H   0  0  0  0  0  0  0  0  0  0  0  0
   50.0098   33.3330   43.4854 H   0  0  0  0  0  0  0  0  0  0  0  0
   48.3281   33.1358   42.8707 H   0  0  0  0  0  0  0  0  0  0  0  0
   51.7795   32.4836   42.4281 H   0  0  0  0  0  0  0  0  0  0  0  0
   52.5042   31.1261   40.2546 H   0  0  0  0  0  0  0  0  0  0  0  0
   48.4613   32.4961   39.8605 H   0  0  0  0  0  0  0  0  0  0  0  0
   45.2610   36.7672   42.4114 H   0  0  0  0  0  0  0  0  0  0  0  0
   43.9358   37.0543   44.5777 H   0  0  0  0  0  0  0  0  0  0  0  0
   45.5698   33.3756   46.0382 H   0  0  0  0  0  0  0  0  0  0  0  0
  1  9  1  0
  1  2  1  0
  2  3  1  0
  4  5  1  0
  4  3  1  0
  6  5  2  0
  7  8  2  0
  7  6  1  0
  8  4  1  0
  9 11  1  0
 10  9  2  0
 11 12  2  0
 11 16  1  0
 12 13  1  0
 13 14  2  0
 15 14  1  0
 16 15  2  0
  2 17  1  0
  2 18  1  0
  3 19  1  0
  3 20  1  0
  5 21  1  0
  6 22  1  0
  8 23  1  0
 12 24  1  0
 13 25  1  0
 15 26  1  0
M  ISO  8  17   8  18   8  19   8  20   8  21  14  22  14  23  14  24  14
M  ISO  2  25  14  26  14
M  END
>  <minimizedAffinity>  (1) 
-4.21024179

>  <minimizedRMSD>  (1) 
0.825845897

$$$$
