
     RDKit          3D

 26 27  0  0  0  0  0  0  0  0999 V2000
   46.9760   34.8960   42.0030 C   0  0  0  0  0  0  0  0  0  0  0  0
   46.7030   34.5000   40.8600 O   0  0  0  0  0  0  0  0  0  0  0  0
   46.1870   34.8990   43.2130 C   0  0  0  0  0  0  0  0  0  0  0  0
   45.3370   35.9840   43.2760 C   0  0  0  0  0  0  0  0  0  0  0  0
   44.5770   36.0460   44.4580 C   0  0  0  0  0  0  0  0  0  0  0  0
   44.7300   35.0750   45.4070 N   0  0  0  0  0  0  0  0  0  0  0  0
   45.5830   34.0550   45.2570 C   0  0  0  0  0  0  0  0  0  0  0  0
   46.3320   33.9620   44.1350 N   0  0  0  0  0  0  0  0  0  0  0  0
   48.2770   35.3830   41.9230 O   0  0  0  0  0  0  0  0  0  0  0  0
   49.4170   34.8970   42.4440 C   0  0  0  0  0  0  0  0  0  0  0  0
   49.4290   33.3640   42.4450 C   0  0  0  0  0  0  0  0  0  0  0  0
   50.8460   32.9380   42.2380 C   0  0  0  0  0  0  0  0  0  0  0  0
   51.2400   32.0630   41.1140 C   0  0  0  0  0  0  0  0  0  0  0  0
   51.1190   31.4850   42.5170 C   0  0  0  0  0  0  0  0  0  0  0  0
   45.2606   36.7331   42.4741 H   0  0  0  0  0  0  0  0  0  0  0  0
   43.8653   36.8695   44.6170 H   0  0  0  0  0  0  0  0  0  0  0  0
   45.6748   33.2933   46.0452 H   0  0  0  0  0  0  0  0  0  0  0  0
   50.2659   35.2602   41.8461 H   0  0  0  0  0  0  0  0  0  0  0  0
   49.4936   35.2422   43.4856 H   0  0  0  0  0  0  0  0  0  0  0  0
   49.0571   32.9840   43.4080 H   0  0  0  0  0  0  0  0  0  0  0  0
   48.7795   32.9659   41.6515 H   0  0  0  0  0  0  0  0  0  0  0  0
   51.2294   33.9132   42.5725 H   0  0  0  0  0  0  0  0  0  0  0  0
   50.5031   31.7933   40.3431 H   0  0  0  0  0  0  0  0  0  0  0  0
   52.0309   32.0886   40.3500 H   0  0  0  0  0  0  0  0  0  0  0  0
   52.0200   31.1872   43.0734 H   0  0  0  0  0  0  0  0  0  0  0  0
   50.5655   30.6554   42.9812 H   0  0  0  0  0  0  0  0  0  0  0  0
  1  3  1  0
  2  1  2  0
  3  4  2  0
  3  8  1  0
  4  5  1  0
  5  6  2  0
  7  6  1  0
  8  7  2  0
  9  1  1  0
  9 10  1  0
 10 11  1  0
 12 11  1  0
 12 14  1  0
 13 12  1  0
 13 14  1  0
  4 15  1  0
  5 16  1  0
  7 17  1  0
 10 18  1  0
 10 19  1  0
 11 20  1  0
 11 21  1  0
 12 22  1  0
 13 23  1  0
 13 24  1  0
 14 25  1  0
 14 26  1  0
M  ISO  8  15  14  16  14  17  14  18   8  19   8  20   8  21   8  22  13
M  ISO  4  23  13  24  13  25  13  26  13
M  END
>  <minimizedAffinity>  (1) 
-4.12501001

>  <minimizedRMSD>  (1) 
1.04240429

$$$$
