
     RDKit          3D

 39 41  0  0  0  0  0  0  0  0999 V2000
   47.3480   34.6920   42.5720 C   0  0  0  0  0  0  0  0  0  0  0  0
   46.2470   35.0860   41.8520 C   0  0  0  0  0  0  0  0  0  0  0  0
   45.0370   34.8440   42.5300 C   0  0  0  0  0  0  0  0  0  0  0  0
   45.0350   34.2810   43.7560 N   0  0  0  0  0  0  0  0  0  0  0  0
   46.1890   33.9270   44.3820 C   0  0  0  0  0  0  0  0  0  0  0  0
   47.3470   34.1430   43.7650 N   0  0  0  0  0  0  0  0  0  0  0  0
   46.1350   33.3360   45.6760 N   0  0  0  0  0  0  0  0  0  0  0  0
   46.8840   32.3000   46.1080 C   0  0  0  0  0  0  0  0  0  0  0  0
   46.6880   31.8610   47.4090 C   0  0  0  0  0  0  0  0  0  0  0  0
   47.5140   30.7180   47.8840 C   0  0  0  0  0  0  0  0  0  0  0  0
   45.7650   32.4490   48.2490 C   0  0  0  0  0  0  0  0  0  0  0  0
   45.6020   32.0410   49.4160 O   0  0  0  0  0  0  0  0  0  0  0  0
   45.0320   33.4880   47.7790 N   0  0  0  0  0  0  0  0  0  0  0  0
   45.2340   33.8980   46.5220 C   0  0  0  0  0  0  0  0  0  0  0  0
   44.4920   34.8790   46.1840 O   0  0  0  0  0  0  0  0  0  0  0  0
   48.5780   34.9910   41.8710 C   0  0  0  0  0  0  0  0  0  0  0  0
   48.8190   35.4710   40.7880 O   0  0  0  0  0  0  0  0  0  0  0  0
   49.8370   34.7520   42.3810 O   0  0  0  0  0  0  0  0  0  0  0  0
   50.6050   33.6590   42.3830 C   0  0  0  0  0  0  0  0  0  0  0  0
   49.9480   32.4750   41.7470 C   0  0  0  0  0  0  0  0  0  0  0  0
   50.6640   31.9560   40.6030 N   0  0  0  0  0  0  0  0  0  0  0  0
   51.9880   31.8020   40.7130 N   0  0  0  0  0  0  0  0  0  0  0  0
   52.5100   31.2960   39.5970 C   0  0  0  0  0  0  0  0  0  0  0  0
   51.4780   31.1070   38.6970 C   0  0  0  0  0  0  0  0  0  0  0  0
   50.3850   31.5340   39.3900 C   0  0  0  0  0  0  0  0  0  0  0  0
   46.3043   35.5419   40.8526 H   0  0  0  0  0  0  0  0  0  0  0  0
   44.0831   35.1169   42.0550 H   0  0  0  0  0  0  0  0  0  0  0  0
   47.6244   31.8202   45.4510 H   0  0  0  0  0  0  0  0  0  0  0  0
   47.5236   30.7047   48.9839 H   0  0  0  0  0  0  0  0  0  0  0  0
   47.0865   29.7761   47.5096 H   0  0  0  0  0  0  0  0  0  0  0  0
   48.5424   30.8283   47.5096 H   0  0  0  0  0  0  0  0  0  0  0  0
   44.3339   33.9521   48.3775 H   0  0  0  0  0  0  0  0  0  0  0  0
   51.5314   33.8818   41.8333 H   0  0  0  0  0  0  0  0  0  0  0  0
   50.8000   33.3989   43.4339 H   0  0  0  0  0  0  0  0  0  0  0  0
   49.8697   31.6761   42.4990 H   0  0  0  0  0  0  0  0  0  0  0  0
   48.9646   32.8097   41.3851 H   0  0  0  0  0  0  0  0  0  0  0  0
   53.5721   31.0691   39.4227 H   0  0  0  0  0  0  0  0  0  0  0  0
   51.5270   30.7094   37.6725 H   0  0  0  0  0  0  0  0  0  0  0  0
   49.3667   31.5262   38.9740 H   0  0  0  0  0  0  0  0  0  0  0  0
  1  6  2  0
  2  3  2  0
  2  1  1  0
  3  4  1  0
  4  5  2  0
  5  7  1  0
  6  5  1  0
  7  8  1  0
  7 14  1  0
  8  9  2  0
  9 10  1  0
  9 11  1  0
 11 12  2  0
 13 11  1  0
 14 13  1  0
 15 14  2  0
 16 18  1  0
 16  1  1  0
 17 16  2  0
 18 19  1  0
 20 19  1  0
 21 22  1  0
 21 20  1  0
 23 22  2  0
 24 25  2  0
 24 23  1  0
 25 21  1  0
  2 26  1  0
  3 27  1  0
  8 28  1  0
 10 29  1  0
 10 30  1  0
 10 31  1  0
 13 32  1  0
 19 33  1  0
 19 34  1  0
 20 35  1  0
 20 36  1  0
 23 37  1  0
 24 38  1  0
 25 39  1  0
M  ISO  8  26  14  27  14  28  14  29   8  30   8  31   8  32   9  33   8
M  ISO  6  34   8  35   8  36   8  37  14  38  14  39  14
M  END
>  <minimizedAffinity>  (1) 
-6.4527998

>  <minimizedRMSD>  (1) 
1.61543608

$$$$
