
     RDKit          3D

 37 40  0  0  0  0  0  0  0  0999 V2000
   46.0790   34.8520   43.1880 C   0  0  0  0  0  0  0  0  0  0  0  0
   45.2710   35.9630   43.2680 C   0  0  0  0  0  0  0  0  0  0  0  0
   44.5910   36.0590   44.4960 C   0  0  0  0  0  0  0  0  0  0  0  0
   44.7730   35.1160   45.4390 N   0  0  0  0  0  0  0  0  0  0  0  0
   45.5940   34.0550   45.2650 C   0  0  0  0  0  0  0  0  0  0  0  0
   46.2510   33.9360   44.1120 N   0  0  0  0  0  0  0  0  0  0  0  0
   45.7630   33.0760   46.2850 N   0  0  0  0  0  0  0  0  0  0  0  0
   45.0830   33.2980   47.4360 C   0  0  0  0  0  0  0  0  0  0  0  0
   45.3620   32.2710   48.2860 N   0  0  0  0  0  0  0  0  0  0  0  0
   46.2020   31.4100   47.6930 C   0  0  0  0  0  0  0  0  0  0  0  0
   46.8510   30.2290   47.9620 C   0  0  0  0  0  0  0  0  0  0  0  0
   47.6550   29.6540   47.0440 N   0  0  0  0  0  0  0  0  0  0  0  0
   47.8570   30.2130   45.8180 C   0  0  0  0  0  0  0  0  0  0  0  0
   47.2370   31.3840   45.4980 N   0  0  0  0  0  0  0  0  0  0  0  0
   46.4420   31.9370   46.4300 C   0  0  0  0  0  0  0  0  0  0  0  0
   46.7870   34.8110   41.9240 C   0  0  0  0  0  0  0  0  0  0  0  0
   46.5300   34.3220   40.8480 O   0  0  0  0  0  0  0  0  0  0  0  0
   48.0150   35.3890   41.7060 O   0  0  0  0  0  0  0  0  0  0  0  0
   49.2220   35.1510   42.2290 C   0  0  0  0  0  0  0  0  0  0  0  0
   49.4040   33.7270   42.6520 C   0  0  0  0  0  0  0  0  0  0  0  0
   49.9150   32.8700   41.6020 N   0  0  0  0  0  0  0  0  0  0  0  0
   51.1920   32.4730   41.6890 N   0  0  0  0  0  0  0  0  0  0  0  0
   51.5180   31.6780   40.6720 C   0  0  0  0  0  0  0  0  0  0  0  0
   50.4040   31.5400   39.8710 C   0  0  0  0  0  0  0  0  0  0  0  0
   49.4670   32.2990   40.5060 C   0  0  0  0  0  0  0  0  0  0  0  0
   45.1676   36.6989   42.4569 H   0  0  0  0  0  0  0  0  0  0  0  0
   43.9118   36.9033   44.6851 H   0  0  0  0  0  0  0  0  0  0  0  0
   44.4243   34.1536   47.6460 H   0  0  0  0  0  0  0  0  0  0  0  0
   46.7129   29.7454   48.9403 H   0  0  0  0  0  0  0  0  0  0  0  0
   48.5180   29.7212   45.0891 H   0  0  0  0  0  0  0  0  0  0  0  0
   49.9851   35.3932   41.4747 H   0  0  0  0  0  0  0  0  0  0  0  0
   49.3211   35.7772   43.1279 H   0  0  0  0  0  0  0  0  0  0  0  0
   50.1100   33.7024   43.4952 H   0  0  0  0  0  0  0  0  0  0  0  0
   48.4104   33.3429   42.9263 H   0  0  0  0  0  0  0  0  0  0  0  0
   52.5006   31.2140   40.5012 H   0  0  0  0  0  0  0  0  0  0  0  0
   50.2974   30.9580   38.9437 H   0  0  0  0  0  0  0  0  0  0  0  0
   48.4377   32.4217   40.1378 H   0  0  0  0  0  0  0  0  0  0  0  0
  1  2  2  0
  1  6  1  0
  2  3  1  0
  3  4  2  0
  5  4  1  0
  5  7  1  0
  6  5  2  0
  7 15  1  0
  7  8  1  0
  8  9  2  0
 10 11  2  0
 10  9  1  0
 12 11  1  0
 13 12  2  0
 14 13  1  0
 14 15  2  0
 15 10  1  0
 16  1  1  0
 17 16  2  0
 18 16  1  0
 18 19  1  0
 19 20  1  0
 21 22  1  0
 21 20  1  0
 23 22  2  0
 24 25  2  0
 24 23  1  0
 25 21  1  0
  2 26  1  0
  3 27  1  0
  8 28  1  0
 11 29  1  0
 13 30  1  0
 19 31  1  0
 19 32  1  0
 20 33  1  0
 20 34  1  0
 23 35  1  0
 24 36  1  0
 25 37  1  0
M  ISO  8  26  14  27  14  28  14  29  14  30  14  31   8  32   8  33   8
M  ISO  4  34   8  35  14  36  14  37  14
M  END
>  <minimizedAffinity>  (1) 
-5.95747709

>  <minimizedRMSD>  (1) 
0.0788420215

$$$$
