
     RDKit          3D

 40 43  0  0  0  0  0  0  0  0999 V2000
   44.7430   34.5500   43.1940 C   0  0  0  0  0  0  0  0  0  0  0  0
   44.2930   35.6080   43.9690 C   0  0  0  0  0  0  0  0  0  0  0  0
   44.6230   35.4670   45.3210 C   0  0  0  0  0  0  0  0  0  0  0  0
   45.3080   34.3870   45.7400 N   0  0  0  0  0  0  0  0  0  0  0  0
   45.7050   33.4030   44.9100 C   0  0  0  0  0  0  0  0  0  0  0  0
   45.4100   33.5000   43.6080 N   0  0  0  0  0  0  0  0  0  0  0  0
   46.4270   32.2860   45.4170 N   0  0  0  0  0  0  0  0  0  0  0  0
   47.2790   31.5180   44.7140 C   0  0  0  0  0  0  0  0  0  0  0  0
   47.7790   30.5510   45.5180 N   0  0  0  0  0  0  0  0  0  0  0  0
   47.2200   30.7320   46.7440 C   0  0  0  0  0  0  0  0  0  0  0  0
   47.4090   29.9990   47.9200 C   0  0  0  0  0  0  0  0  0  0  0  0
   48.1890   29.0080   47.9520 O   0  0  0  0  0  0  0  0  0  0  0  0
   46.7230   30.3970   49.0070 N   0  0  0  0  0  0  0  0  0  0  0  0
   45.8850   31.4650   48.9620 C   0  0  0  0  0  0  0  0  0  0  0  0
   45.2130   31.7950   50.1700 N   0  0  0  0  0  0  0  0  0  0  0  0
   45.7200   32.1610   47.8000 N   0  0  0  0  0  0  0  0  0  0  0  0
   46.3680   31.8250   46.6800 C   0  0  0  0  0  0  0  0  0  0  0  0
   44.4180   34.7520   41.7940 C   0  0  0  0  0  0  0  0  0  0  0  0
   43.3860   34.9720   41.2040 O   0  0  0  0  0  0  0  0  0  0  0  0
   45.3440   34.7240   40.7780 O   0  0  0  0  0  0  0  0  0  0  0  0
   46.2810   33.8310   40.4470 C   0  0  0  0  0  0  0  0  0  0  0  0
   45.7230   32.6160   39.7730 C   0  0  0  0  0  0  0  0  0  0  0  0
   45.8050   32.6660   38.3280 N   0  0  0  0  0  0  0  0  0  0  0  0
   47.0230   32.6540   37.7720 N   0  0  0  0  0  0  0  0  0  0  0  0
   46.9530   32.6850   36.4470 C   0  0  0  0  0  0  0  0  0  0  0  0
   45.6240   32.7190   36.0990 C   0  0  0  0  0  0  0  0  0  0  0  0
   44.9830   32.7060   37.3050 C   0  0  0  0  0  0  0  0  0  0  0  0
   43.7363   36.4660   43.5642 H   0  0  0  0  0  0  0  0  0  0  0  0
   44.3220   36.2403   46.0431 H   0  0  0  0  0  0  0  0  0  0  0  0
   47.5300   31.6547   43.6518 H   0  0  0  0  0  0  0  0  0  0  0  0
   46.8357   29.8812   49.8914 H   0  0  0  0  0  0  0  0  0  0  0  0
   44.5648   32.5950   50.1968 H   0  0  0  0  0  0  0  0  0  0  0  0
   45.3741   31.2341   51.0187 H   0  0  0  0  0  0  0  0  0  0  0  0
   46.9973   34.3119   39.7646 H   0  0  0  0  0  0  0  0  0  0  0  0
   46.7602   33.4977   41.3794 H   0  0  0  0  0  0  0  0  0  0  0  0
   46.2828   31.7361   40.1229 H   0  0  0  0  0  0  0  0  0  0  0  0
   44.6557   32.5635   40.0341 H   0  0  0  0  0  0  0  0  0  0  0  0
   47.8057   32.6837   35.7521 H   0  0  0  0  0  0  0  0  0  0  0  0
   45.1828   32.7494   35.0918 H   0  0  0  0  0  0  0  0  0  0  0  0
   43.8881   32.7269   37.4088 H   0  0  0  0  0  0  0  0  0  0  0  0
  1  6  1  0
  1  2  2  0
  2  3  1  0
  3  4  2  0
  5  7  1  0
  5  4  1  0
  6  5  2  0
  7 17  1  0
  8  7  1  0
  8  9  2  0
  9 10  1  0
 10 11  1  0
 11 12  2  0
 11 13  1  0
 14 13  1  0
 14 15  1  0
 16 14  2  0
 17 10  2  0
 17 16  1  0
 18  1  1  0
 19 18  2  0
 20 18  1  0
 21 20  1  0
 22 21  1  0
 23 22  1  0
 24 23  1  0
 25 24  2  0
 26 25  1  0
 26 27  2  0
 27 23  1  0
  2 28  1  0
  3 29  1  0
  8 30  1  0
 13 31  1  0
 15 32  1  0
 15 33  1  0
 21 34  1  0
 21 35  1  0
 22 36  1  0
 22 37  1  0
 25 38  1  0
 26 39  1  0
 27 40  1  0
M  ISO  8  28  14  29  14  30  14  31   9  34   8  35   8  36   8  37   8
M  ISO  3  38  14  39  14  40  14
M  END
>  <minimizedAffinity>  (1) 
-5.94176054

>  <minimizedRMSD>  (1) 
3.55134439

$$$$
