
     RDKit          3D

 36 38  0  0  0  0  0  0  0  0999 V2000
   46.7880   34.8220   42.0660 C   0  0  0  0  0  0  0  0  0  0  0  0
   46.5360   34.3500   40.9810 O   0  0  0  0  0  0  0  0  0  0  0  0
   46.1020   34.7900   43.3440 C   0  0  0  0  0  0  0  0  0  0  0  0
   45.1930   35.8100   43.4520 C   0  0  0  0  0  0  0  0  0  0  0  0
   44.5270   35.8400   44.6960 C   0  0  0  0  0  0  0  0  0  0  0  0
   44.8220   34.9050   45.6400 N   0  0  0  0  0  0  0  0  0  0  0  0
   45.7470   33.9320   45.4250 C   0  0  0  0  0  0  0  0  0  0  0  0
   46.3850   33.8870   44.2580 N   0  0  0  0  0  0  0  0  0  0  0  0
   45.9960   32.9730   46.4980 C   0  0  0  0  0  0  0  0  0  0  0  0
   45.1940   32.9700   47.6210 C   0  0  0  0  0  0  0  0  0  0  0  0
   45.4290   32.0600   48.6400 C   0  0  0  0  0  0  0  0  0  0  0  0
   46.4860   31.1800   48.4720 C   0  0  0  0  0  0  0  0  0  0  0  0
   47.3010   31.1720   47.3490 C   0  0  0  0  0  0  0  0  0  0  0  0
   47.0520   32.0850   46.3430 C   0  0  0  0  0  0  0  0  0  0  0  0
   47.9770   35.4720   41.8500 O   0  0  0  0  0  0  0  0  0  0  0  0
   49.2320   35.1880   42.2150 C   0  0  0  0  0  0  0  0  0  0  0  0
   49.4130   33.7640   42.6330 C   0  0  0  0  0  0  0  0  0  0  0  0
   49.9010   32.9030   41.5740 N   0  0  0  0  0  0  0  0  0  0  0  0
   51.1610   32.4660   41.6510 N   0  0  0  0  0  0  0  0  0  0  0  0
   51.4680   31.6670   40.6420 C   0  0  0  0  0  0  0  0  0  0  0  0
   50.3550   31.5620   39.8420 C   0  0  0  0  0  0  0  0  0  0  0  0
   49.4370   32.3460   40.4760 C   0  0  0  0  0  0  0  0  0  0  0  0
   45.0011   36.5349   42.6472 H   0  0  0  0  0  0  0  0  0  0  0  0
   43.7737   36.6148   44.9015 H   0  0  0  0  0  0  0  0  0  0  0  0
   44.3673   33.6905   47.7077 H   0  0  0  0  0  0  0  0  0  0  0  0
   44.8027   32.0375   49.5440 H   0  0  0  0  0  0  0  0  0  0  0  0
   46.6895   30.4504   49.2697 H   0  0  0  0  0  0  0  0  0  0  0  0
   48.1288   30.4529   47.2617 H   0  0  0  0  0  0  0  0  0  0  0  0
   47.6771   32.1081   45.4382 H   0  0  0  0  0  0  0  0  0  0  0  0
   49.8985   35.3904   41.3637 H   0  0  0  0  0  0  0  0  0  0  0  0
   49.4714   35.8181   43.0843 H   0  0  0  0  0  0  0  0  0  0  0  0
   50.1334   33.7349   43.4638 H   0  0  0  0  0  0  0  0  0  0  0  0
   48.4217   33.3859   42.9233 H   0  0  0  0  0  0  0  0  0  0  0  0
   52.4378   31.1759   40.4738 H   0  0  0  0  0  0  0  0  0  0  0  0
   50.2340   30.9844   38.9137 H   0  0  0  0  0  0  0  0  0  0  0  0
   48.4120   32.4975   40.1067 H   0  0  0  0  0  0  0  0  0  0  0  0
  1  3  1  0
  2  1  2  0
  3  4  2  0
  3  8  1  0
  4  5  1  0
  5  6  2  0
  7  6  1  0
  7  9  1  0
  8  7  2  0
  9 10  2  0
 10 11  1  0
 12 11  2  0
 13 12  1  0
 14  9  1  0
 14 13  2  0
 15  1  1  0
 15 16  1  0
 16 17  1  0
 18 19  1  0
 18 17  1  0
 20 19  2  0
 21 22  2  0
 21 20  1  0
 22 18  1  0
  4 23  1  0
  5 24  1  0
 10 25  1  0
 11 26  1  0
 12 27  1  0
 13 28  1  0
 14 29  1  0
 16 30  1  0
 16 31  1  0
 17 32  1  0
 17 33  1  0
 20 34  1  0
 21 35  1  0
 22 36  1  0
M  ISO  8  23  14  24  14  25  14  26  14  27  14  28  14  29  14  30   8
M  ISO  6  31   8  32   8  33   8  34  14  35  14  36  14
M  END
>  <minimizedAffinity>  (1) 
-5.71494007

>  <minimizedRMSD>  (1) 
0.582440376

$$$$
