
     RDKit          3D

 39 41  0  0  0  0  0  0  0  0999 V2000
   47.9720   35.5330   41.8730 O   0  0  0  0  0  0  0  0  0  0  0  0
   49.2430   35.2240   42.1490 C   0  0  0  0  0  0  0  0  0  0  0  0
   49.4120   33.8140   42.6170 C   0  0  0  0  0  0  0  0  0  0  0  0
   49.9240   32.9190   41.6000 N   0  0  0  0  0  0  0  0  0  0  0  0
   51.1890   32.5040   41.6990 N   0  0  0  0  0  0  0  0  0  0  0  0
   51.5150   31.6750   40.7210 C   0  0  0  0  0  0  0  0  0  0  0  0
   50.4050   31.5200   39.9180 C   0  0  0  0  0  0  0  0  0  0  0  0
   49.4750   32.3130   40.5190 C   0  0  0  0  0  0  0  0  0  0  0  0
   46.7950   34.8560   42.0730 C   0  0  0  0  0  0  0  0  0  0  0  0
   46.5880   34.3630   40.9850 O   0  0  0  0  0  0  0  0  0  0  0  0
   46.0760   34.8190   43.3290 C   0  0  0  0  0  0  0  0  0  0  0  0
   45.2900   35.9420   43.4810 C   0  0  0  0  0  0  0  0  0  0  0  0
   44.6010   35.9540   44.7130 C   0  0  0  0  0  0  0  0  0  0  0  0
   44.7540   34.9400   45.5860 N   0  0  0  0  0  0  0  0  0  0  0  0
   45.5570   33.8750   45.3360 C   0  0  0  0  0  0  0  0  0  0  0  0
   46.2210   33.8300   44.1840 N   0  0  0  0  0  0  0  0  0  0  0  0
   45.7040   32.7770   46.3130 C   0  0  0  0  0  0  0  0  0  0  0  0
   45.1420   33.1530   47.6500 C   0  0  0  0  0  0  0  0  0  0  0  0
   45.9110   32.2540   48.5900 C   0  0  0  0  0  0  0  0  0  0  0  0
   47.3160   32.3360   48.0850 C   0  0  0  0  0  0  0  0  0  0  0  0
   47.1440   32.4120   46.5850 C   0  0  0  0  0  0  0  0  0  0  0  0
   49.8440   35.3658   41.2387 H   0  0  0  0  0  0  0  0  0  0  0  0
   49.5727   35.8838   42.9651 H   0  0  0  0  0  0  0  0  0  0  0  0
   50.1119   33.8116   43.4656 H   0  0  0  0  0  0  0  0  0  0  0  0
   48.4132   33.4462   42.8947 H   0  0  0  0  0  0  0  0  0  0  0  0
   52.4944   31.1960   40.5749 H   0  0  0  0  0  0  0  0  0  0  0  0
   50.2968   30.9053   39.0122 H   0  0  0  0  0  0  0  0  0  0  0  0
   48.4498   32.4357   40.1395 H   0  0  0  0  0  0  0  0  0  0  0  0
   45.2091   36.7388   42.7270 H   0  0  0  0  0  0  0  0  0  0  0  0
   43.9365   36.7948   44.9609 H   0  0  0  0  0  0  0  0  0  0  0  0
   45.1677   31.9341   45.8527 H   0  0  0  0  0  0  0  0  0  0  0  0
   45.3258   34.2140   47.8748 H   0  0  0  0  0  0  0  0  0  0  0  0
   44.0511   33.0299   47.7184 H   0  0  0  0  0  0  0  0  0  0  0  0
   45.8440   32.6193   49.6254 H   0  0  0  0  0  0  0  0  0  0  0  0
   45.5234   31.2247   48.6095 H   0  0  0  0  0  0  0  0  0  0  0  0
   47.8209   33.2345   48.4695 H   0  0  0  0  0  0  0  0  0  0  0  0
   47.9377   31.4865   48.4039 H   0  0  0  0  0  0  0  0  0  0  0  0
   47.3773   31.4380   46.1301 H   0  0  0  0  0  0  0  0  0  0  0  0
   47.8228   33.1626   46.1540 H   0  0  0  0  0  0  0  0  0  0  0  0
  1  9  1  0
  1  2  1  0
  2  3  1  0
  4  5  1  0
  4  3  1  0
  6  5  2  0
  7  8  2  0
  7  6  1  0
  8  4  1  0
  9 11  1  0
 10  9  2  0
 11 12  2  0
 11 16  1  0
 12 13  1  0
 13 14  2  0
 15 14  1  0
 15 17  1  0
 16 15  2  0
 17 21  1  0
 17 18  1  0
 18 19  1  0
 20 19  1  0
 21 20  1  0
  2 22  1  0
  2 23  1  0
  3 24  1  0
  3 25  1  0
  6 26  1  0
  7 27  1  0
  8 28  1  0
 12 29  1  0
 13 30  1  0
 17 31  1  0
 18 32  1  0
 18 33  1  0
 19 34  1  0
 19 35  1  0
 20 36  1  0
 20 37  1  0
 21 38  1  0
 21 39  1  0
M  ISO  8  22   8  23   8  24   8  25   8  26  14  27  14  28  14  29  14
M  ISO  8  30  14  31  13  32  13  33  13  34  13  35  13  36  13  37  13
M  ISO  2  38  13  39  13
M  END
>  <minimizedAffinity>  (1) 
-5.39416742

>  <minimizedRMSD>  (1) 
0.304957777

$$$$
