
     RDKit          3D

 31 33  0  0  0  0  0  0  0  0999 V2000
   46.8580   34.8060   42.0070 C   0  0  0  0  0  0  0  0  0  0  0  0
   46.6260   34.3050   40.9310 O   0  0  0  0  0  0  0  0  0  0  0  0
   46.1560   34.7950   43.2750 C   0  0  0  0  0  0  0  0  0  0  0  0
   45.2050   35.7820   43.3340 C   0  0  0  0  0  0  0  0  0  0  0  0
   44.5260   35.8280   44.5660 C   0  0  0  0  0  0  0  0  0  0  0  0
   44.8430   34.9450   45.5420 N   0  0  0  0  0  0  0  0  0  0  0  0
   45.8060   33.9980   45.3830 C   0  0  0  0  0  0  0  0  0  0  0  0
   46.4570   33.9410   44.2270 N   0  0  0  0  0  0  0  0  0  0  0  0
   46.0750   33.0910   46.4960 C   0  0  0  0  0  0  0  0  0  0  0  0
   47.0380   32.2200   46.8610 N   0  0  0  0  0  0  0  0  0  0  0  0
   46.7140   31.6840   48.0010 O   0  0  0  0  0  0  0  0  0  0  0  0
   45.5480   32.1740   48.4190 C   0  0  0  0  0  0  0  0  0  0  0  0
   45.1480   33.0550   47.4770 N   0  0  0  0  0  0  0  0  0  0  0  0
   48.0430   35.4660   41.7870 O   0  0  0  0  0  0  0  0  0  0  0  0
   49.3010   35.1840   42.1430 C   0  0  0  0  0  0  0  0  0  0  0  0
   49.4780   33.7690   42.5980 C   0  0  0  0  0  0  0  0  0  0  0  0
   49.9700   32.8850   41.5620 N   0  0  0  0  0  0  0  0  0  0  0  0
   51.2370   32.4610   41.6470 N   0  0  0  0  0  0  0  0  0  0  0  0
   51.5450   31.6440   40.6520 C   0  0  0  0  0  0  0  0  0  0  0  0
   50.4270   31.5100   39.8560 C   0  0  0  0  0  0  0  0  0  0  0  0
   49.5090   32.3000   40.4800 C   0  0  0  0  0  0  0  0  0  0  0  0
   44.9941   36.4691   42.5013 H   0  0  0  0  0  0  0  0  0  0  0  0
   43.7403   36.5790   44.7353 H   0  0  0  0  0  0  0  0  0  0  0  0
   45.0170   31.9131   49.3463 H   0  0  0  0  0  0  0  0  0  0  0  0
   49.9574   35.3585   41.2777 H   0  0  0  0  0  0  0  0  0  0  0  0
   49.5565   35.8362   42.9911 H   0  0  0  0  0  0  0  0  0  0  0  0
   50.1941   33.7590   43.4329 H   0  0  0  0  0  0  0  0  0  0  0  0
   48.4855   33.3985   42.8942 H   0  0  0  0  0  0  0  0  0  0  0  0
   52.5187   31.1588   40.4893 H   0  0  0  0  0  0  0  0  0  0  0  0
   50.3059   30.9116   38.9410 H   0  0  0  0  0  0  0  0  0  0  0  0
   48.4808   32.4349   40.1131 H   0  0  0  0  0  0  0  0  0  0  0  0
  1  3  1  0
  2  1  2  0
  3  4  2  0
  3  8  1  0
  4  5  1  0
  5  6  2  0
  7  6  1  0
  7  9  1  0
  8  7  2  0
  9 10  2  0
  9 13  1  0
 10 11  1  0
 11 12  1  0
 13 12  2  0
 14  1  1  0
 14 15  1  0
 15 16  1  0
 17 18  1  0
 17 16  1  0
 19 18  2  0
 20 21  2  0
 20 19  1  0
 21 17  1  0
  4 22  1  0
  5 23  1  0
 12 24  1  0
 15 25  1  0
 15 26  1  0
 16 27  1  0
 16 28  1  0
 19 29  1  0
 20 30  1  0
 21 31  1  0
M  ISO  8  22  14  23  14  24  14  25   8  26   8  27   8  28   8  29  14
M  ISO  2  30  14  31  14
M  END
>  <minimizedAffinity>  (1) 
-5.30468941

>  <minimizedRMSD>  (1) 
0.37527588

$$$$
