
     RDKit          3D

 29 30  0  0  0  0  0  0  0  0999 V2000
   49.2680   35.1490   42.2190 C   0  0  0  0  0  0  0  0  0  0  0  0
   49.4350   33.7220   42.6370 C   0  0  0  0  0  0  0  0  0  0  0  0
   49.9470   32.8670   41.5850 N   0  0  0  0  0  0  0  0  0  0  0  0
   51.2190   32.4610   41.6640 N   0  0  0  0  0  0  0  0  0  0  0  0
   51.5460   31.6690   40.6560 C   0  0  0  0  0  0  0  0  0  0  0  0
   50.4390   31.5360   39.8580 C   0  0  0  0  0  0  0  0  0  0  0  0
   49.4990   32.2970   40.4890 C   0  0  0  0  0  0  0  0  0  0  0  0
   48.0550   35.4110   41.7160 O   0  0  0  0  0  0  0  0  0  0  0  0
   46.8330   34.8190   41.9230 C   0  0  0  0  0  0  0  0  0  0  0  0
   46.5980   34.3140   40.8480 O   0  0  0  0  0  0  0  0  0  0  0  0
   46.1070   34.8660   43.1750 C   0  0  0  0  0  0  0  0  0  0  0  0
   45.2580   35.9440   43.2190 C   0  0  0  0  0  0  0  0  0  0  0  0
   44.5610   36.0410   44.4420 C   0  0  0  0  0  0  0  0  0  0  0  0
   44.7590   35.1320   45.4180 N   0  0  0  0  0  0  0  0  0  0  0  0
   45.6280   34.0990   45.2670 C   0  0  0  0  0  0  0  0  0  0  0  0
   46.3020   33.9770   44.1270 N   0  0  0  0  0  0  0  0  0  0  0  0
   45.8460   33.0980   46.3440 C   0  0  0  0  0  0  0  0  0  0  0  0
   49.4292   35.7920   43.0968 H   0  0  0  0  0  0  0  0  0  0  0  0
   50.0021   35.3456   41.4237 H   0  0  0  0  0  0  0  0  0  0  0  0
   50.1347   33.6874   43.4851 H   0  0  0  0  0  0  0  0  0  0  0  0
   48.4368   33.3443   42.9035 H   0  0  0  0  0  0  0  0  0  0  0  0
   52.5278   31.2020   40.4885 H   0  0  0  0  0  0  0  0  0  0  0  0
   50.3339   30.9544   38.9303 H   0  0  0  0  0  0  0  0  0  0  0  0
   48.4708   32.4209   40.1182 H   0  0  0  0  0  0  0  0  0  0  0  0
   45.1344   36.6559   42.3896 H   0  0  0  0  0  0  0  0  0  0  0  0
   43.8500   36.8652   44.6006 H   0  0  0  0  0  0  0  0  0  0  0  0
   45.7399   33.5853   47.3244 H   0  0  0  0  0  0  0  0  0  0  0  0
   45.1022   32.2928   46.2523 H   0  0  0  0  0  0  0  0  0  0  0  0
   46.8573   32.6751   46.2523 H   0  0  0  0  0  0  0  0  0  0  0  0
  1  2  1  0
  3  4  1  0
  3  2  1  0
  5  4  2  0
  6  7  2  0
  6  5  1  0
  7  3  1  0
  8  9  1  0
  8  1  1  0
  9 11  1  0
 10  9  2  0
 11 12  2  0
 11 16  1  0
 12 13  1  0
 13 14  2  0
 15 14  1  0
 15 17  1  0
 16 15  2  0
  1 18  1  0
  1 19  1  0
  2 20  1  0
  2 21  1  0
  5 22  1  0
  6 23  1  0
  7 24  1  0
 12 25  1  0
 13 26  1  0
 17 27  1  0
 17 28  1  0
 17 29  1  0
M  ISO  8  18   8  19   8  20   8  21   8  22  14  23  14  24  14  25  14
M  ISO  4  26  14  27   8  28   8  29   8
M  END
>  <minimizedAffinity>  (1) 
-4.57802439

>  <minimizedRMSD>  (1) 
0.0491889156

$$$$
