
     RDKit          3D

 42 44  0  0  0  0  0  0  0  0999 V2000
   46.8860   34.3350   42.4450 C   0  0  0  0  0  0  0  0  0  0  0  0
   47.3810   35.2070   41.8420 O   0  0  0  0  0  0  0  0  0  0  0  0
   46.4530   34.0980   43.8230 C   0  0  0  0  0  0  0  0  0  0  0  0
   47.1260   33.0380   44.3460 C   0  0  0  0  0  0  0  0  0  0  0  0
   46.7260   32.7470   45.6570 C   0  0  0  0  0  0  0  0  0  0  0  0
   45.7640   33.4990   46.2520 N   0  0  0  0  0  0  0  0  0  0  0  0
   45.1640   34.5360   45.6260 C   0  0  0  0  0  0  0  0  0  0  0  0
   45.5420   34.8010   44.4060 N   0  0  0  0  0  0  0  0  0  0  0  0
   44.1590   35.2500   46.3280 N   0  0  0  0  0  0  0  0  0  0  0  0
   47.2410   31.7260   46.4280 O   0  0  0  0  0  0  0  0  0  0  0  0
   47.0530   30.3620   46.2880 C   0  0  0  0  0  0  0  0  0  0  0  0
   47.1100   29.6050   47.5960 C   0  0  0  0  0  0  0  0  0  0  0  0
   45.7220   29.8810   48.1480 C   0  0  0  0  0  0  0  0  0  0  0  0
   44.8450   29.5720   46.9530 C   0  0  0  0  0  0  0  0  0  0  0  0
   45.6140   30.1440   45.8030 C   0  0  0  0  0  0  0  0  0  0  0  0
   46.7530   33.3930   41.4650 O   0  0  0  0  0  0  0  0  0  0  0  0
   46.0150   33.2740   40.3900 C   0  0  0  0  0  0  0  0  0  0  0  0
   44.6570   32.7680   40.6330 C   0  0  0  0  0  0  0  0  0  0  0  0
   43.6620   33.8440   40.6880 N   0  0  0  0  0  0  0  0  0  0  0  0
   42.9950   34.1810   39.6010 N   0  0  0  0  0  0  0  0  0  0  0  0
   42.1440   35.1420   39.7970 C   0  0  0  0  0  0  0  0  0  0  0  0
   42.2360   35.4950   41.1430 C   0  0  0  0  0  0  0  0  0  0  0  0
   43.1970   34.6360   41.5960 C   0  0  0  0  0  0  0  0  0  0  0  0
   47.8970   32.4732   43.8014 H   0  0  0  0  0  0  0  0  0  0  0  0
   43.6830   36.0452   45.8785 H   0  0  0  0  0  0  0  0  0  0  0  0
   43.9054   34.9732   47.2871 H   0  0  0  0  0  0  0  0  0  0  0  0
   47.8461   30.0063   45.6138 H   0  0  0  0  0  0  0  0  0  0  0  0
   47.2743   28.5295   47.4340 H   0  0  0  0  0  0  0  0  0  0  0  0
   47.9322   29.9079   48.2610 H   0  0  0  0  0  0  0  0  0  0  0  0
   45.4899   29.2204   48.9964 H   0  0  0  0  0  0  0  0  0  0  0  0
   45.5943   30.9000   48.5420 H   0  0  0  0  0  0  0  0  0  0  0  0
   44.7085   28.4869   46.8347 H   0  0  0  0  0  0  0  0  0  0  0  0
   43.8318   29.9906   47.0435 H   0  0  0  0  0  0  0  0  0  0  0  0
   45.1713   31.1017   45.4919 H   0  0  0  0  0  0  0  0  0  0  0  0
   45.5904   29.4640   44.9387 H   0  0  0  0  0  0  0  0  0  0  0  0
   46.5211   32.5814   39.7014 H   0  0  0  0  0  0  0  0  0  0  0  0
   45.9008   34.2870   39.9766 H   0  0  0  0  0  0  0  0  0  0  0  0
   44.3864   32.0776   39.8205 H   0  0  0  0  0  0  0  0  0  0  0  0
   44.6573   32.2607   41.6090 H   0  0  0  0  0  0  0  0  0  0  0  0
   41.4782   35.5914   39.0455 H   0  0  0  0  0  0  0  0  0  0  0  0
   41.6791   36.2654   41.6965 H   0  0  0  0  0  0  0  0  0  0  0  0
   43.5434   34.6204   42.6399 H   0  0  0  0  0  0  0  0  0  0  0  0
  1  3  1  0
  2  1  2  0
  3  4  2  0
  3  8  1  0
  4  5  1  0
  5  6  2  0
  5 10  1  0
  7  6  1  0
  7  9  1  0
  8  7  2  0
 11 10  1  0
 11 12  1  0
 12 13  1  0
 14 13  1  0
 15 11  1  0
 15 14  1  0
 16  1  1  0
 17 18  1  0
 17 16  1  0
 18 19  1  0
 19 23  1  0
 20 21  2  0
 20 19  1  0
 21 22  1  0
 22 23  2  0
  4 24  1  0
  9 25  1  0
  9 26  1  0
 11 27  1  0
 12 28  1  0
 12 29  1  0
 13 30  1  0
 13 31  1  0
 14 32  1  0
 14 33  1  0
 15 34  1  0
 15 35  1  0
 17 36  1  0
 17 37  1  0
 18 38  1  0
 18 39  1  0
 21 40  1  0
 22 41  1  0
 23 42  1  0
M  ISO  8  24  14  27  13  28  13  29  13  30  13  31  13  32  13  33  13
M  ISO  8  34  13  35  13  36   8  37   8  38   8  39   8  40  14  41  14
M  ISO  1  42  14
M  END
>  <minimizedAffinity>  (1) 
-5.01756954

>  <minimizedRMSD>  (1) 
6.38698626

$$$$
