
     RDKit          3D

 33 34  0  0  0  0  0  0  0  0999 V2000
   46.9280   33.4980   42.8300 C   0  0  0  0  0  0  0  0  0  0  0  0
   46.9990   32.3400   42.6830 O   0  0  0  0  0  0  0  0  0  0  0  0
   46.0780   34.4330   43.5690 C   0  0  0  0  0  0  0  0  0  0  0  0
   45.9520   35.6010   42.8780 C   0  0  0  0  0  0  0  0  0  0  0  0
   45.1630   36.5390   43.5780 C   0  0  0  0  0  0  0  0  0  0  0  0
   44.6400   36.2220   44.7770 N   0  0  0  0  0  0  0  0  0  0  0  0
   44.8370   35.0140   45.3670 C   0  0  0  0  0  0  0  0  0  0  0  0
   45.5650   34.1550   44.7190 N   0  0  0  0  0  0  0  0  0  0  0  0
   44.2410   34.7990   46.6350 N   0  0  0  0  0  0  0  0  0  0  0  0
   44.8850   37.8090   43.0860 O   0  0  0  0  0  0  0  0  0  0  0  0
   45.2330   38.9620   43.8090 C   0  0  0  0  0  0  0  0  0  0  0  0
   45.5690   40.1100   43.0580 N   0  0  0  0  0  0  0  0  0  0  0  0
   45.2950   39.1400   45.0400 O   0  0  0  0  0  0  0  0  0  0  0  0
   47.9660   33.9140   42.0430 O   0  0  0  0  0  0  0  0  0  0  0  0
   49.2150   34.2410   42.2600 C   0  0  0  0  0  0  0  0  0  0  0  0
   50.1160   33.1020   42.4900 C   0  0  0  0  0  0  0  0  0  0  0  0
   50.4340   32.3860   41.2510 N   0  0  0  0  0  0  0  0  0  0  0  0
   51.6720   31.9900   41.0100 N   0  0  0  0  0  0  0  0  0  0  0  0
   51.8000   31.3660   39.8800 C   0  0  0  0  0  0  0  0  0  0  0  0
   50.5390   31.3280   39.2900 C   0  0  0  0  0  0  0  0  0  0  0  0
   49.7730   31.9820   40.2160 C   0  0  0  0  0  0  0  0  0  0  0  0
   46.4091   35.7895   41.8954 H   0  0  0  0  0  0  0  0  0  0  0  0
   44.3659   33.8971   47.1165 H   0  0  0  0  0  0  0  0  0  0  0  0
   43.6831   35.5447   47.0749 H   0  0  0  0  0  0  0  0  0  0  0  0
   45.8317   40.9818   43.5396 H   0  0  0  0  0  0  0  0  0  0  0  0
   45.5514   40.0754   42.0287 H   0  0  0  0  0  0  0  0  0  0  0  0
   49.5812   34.7964   41.3840 H   0  0  0  0  0  0  0  0  0  0  0  0
   49.2246   34.8370   43.1845 H   0  0  0  0  0  0  0  0  0  0  0  0
   51.0512   33.4745   42.9334 H   0  0  0  0  0  0  0  0  0  0  0  0
   49.6046   32.3987   43.1637 H   0  0  0  0  0  0  0  0  0  0  0  0
   52.7287   30.9463   39.4661 H   0  0  0  0  0  0  0  0  0  0  0  0
   50.2371   30.8866   38.3287 H   0  0  0  0  0  0  0  0  0  0  0  0
   48.6929   32.1489   40.0912 H   0  0  0  0  0  0  0  0  0  0  0  0
  1  3  1  0
  2  1  2  0
  3  8  1  0
  4  3  2  0
  4  5  1  0
  5  6  2  0
  6  7  1  0
  7  9  1  0
  8  7  2  0
 10  5  1  0
 10 11  1  0
 11 13  2  0
 12 11  1  0
 14 15  1  0
 14  1  1  0
 15 16  1  0
 17 16  1  0
 18 17  1  0
 19 18  2  0
 20 19  1  0
 20 21  2  0
 21 17  1  0
  4 22  1  0
  9 23  1  0
  9 24  1  0
 12 25  1  0
 12 26  1  0
 15 27  1  0
 15 28  1  0
 16 29  1  0
 16 30  1  0
 19 31  1  0
 20 32  1  0
 21 33  1  0
M  ISO  8  22  14  27   8  28   8  29   8  30   8  31  14  32  14  33  14
M  END
>  <minimizedAffinity>  (1) 
-4.82448483

>  <minimizedRMSD>  (1) 
1.6858232

$$$$
