
     RDKit          3D

 35 37  0  0  0  0  0  0  0  0999 V2000
   48.6650   34.7340   41.9710 C   0  0  0  0  0  0  0  0  0  0  0  0
   49.4590   35.2960   42.6230 O   0  0  0  0  0  0  0  0  0  0  0  0
   48.6310   34.0520   40.6790 C   0  0  0  0  0  0  0  0  0  0  0  0
   49.3350   32.8890   40.7510 C   0  0  0  0  0  0  0  0  0  0  0  0
   49.3630   32.2030   39.5340 C   0  0  0  0  0  0  0  0  0  0  0  0
   48.7270   32.7230   38.4520 N   0  0  0  0  0  0  0  0  0  0  0  0
   48.0530   33.8990   38.5020 C   0  0  0  0  0  0  0  0  0  0  0  0
   48.0320   34.5290   39.6430 N   0  0  0  0  0  0  0  0  0  0  0  0
   47.4280   34.3550   37.3120 N   0  0  0  0  0  0  0  0  0  0  0  0
   49.9990   30.9980   39.3190 O   0  0  0  0  0  0  0  0  0  0  0  0
   51.3600   30.9870   39.0800 C   0  0  0  0  0  0  0  0  0  0  0  0
   51.3400   30.2860   37.7830 C   0  0  0  0  0  0  0  0  0  0  0  0
   53.1420   30.2230   37.3770 S   0  0  0  0  0  0  0  0  0  0  0  0
   53.5950   31.1300   38.9860 C   0  0  0  0  0  0  0  0  0  0  0  0
   52.5590   31.3140   39.4940 N   0  0  0  0  0  0  0  0  0  0  0  0
   47.5680   34.8410   42.7720 O   0  0  0  0  0  0  0  0  0  0  0  0
   46.7250   33.9920   43.3100 C   0  0  0  0  0  0  0  0  0  0  0  0
   47.3570   32.9110   44.0840 C   0  0  0  0  0  0  0  0  0  0  0  0
   46.7420   32.7310   45.4020 N   0  0  0  0  0  0  0  0  0  0  0  0
   47.1130   31.7340   46.1770 N   0  0  0  0  0  0  0  0  0  0  0  0
   46.4860   31.6920   47.3130 C   0  0  0  0  0  0  0  0  0  0  0  0
   45.5980   32.7670   47.3160 C   0  0  0  0  0  0  0  0  0  0  0  0
   45.8360   33.3390   46.0960 C   0  0  0  0  0  0  0  0  0  0  0  0
   49.8275   32.5290   41.6663 H   0  0  0  0  0  0  0  0  0  0  0  0
   46.9072   35.2437   37.3118 H   0  0  0  0  0  0  0  0  0  0  0  0
   47.4952   33.7972   36.4487 H   0  0  0  0  0  0  0  0  0  0  0  0
   50.4824   29.9031   37.2104 H   0  0  0  0  0  0  0  0  0  0  0  0
   54.5932   31.4135   39.3510 H   0  0  0  0  0  0  0  0  0  0  0  0
   46.0570   34.5505   43.9822 H   0  0  0  0  0  0  0  0  0  0  0  0
   46.1924   33.5099   42.4770 H   0  0  0  0  0  0  0  0  0  0  0  0
   47.2630   31.9715   43.5196 H   0  0  0  0  0  0  0  0  0  0  0  0
   48.4108   33.1845   44.2414 H   0  0  0  0  0  0  0  0  0  0  0  0
   46.6275   30.9533   48.1157 H   0  0  0  0  0  0  0  0  0  0  0  0
   44.8886   33.0758   48.0980 H   0  0  0  0  0  0  0  0  0  0  0  0
   45.3054   34.2338   45.7384 H   0  0  0  0  0  0  0  0  0  0  0  0
  1  2  2  0
  1 16  1  0
  3  4  2  0
  3  1  1  0
  5  4  1  0
  6  7  1  0
  6  5  2  0
  7  8  2  0
  8  3  1  0
  9  7  1  0
 10  5  1  0
 11 10  1  0
 11 15  1  0
 12 11  2  0
 13 12  1  0
 13 14  1  0
 14 15  2  0
 16 17  1  0
 17 18  1  0
 18 19  1  0
 19 23  1  0
 19 20  1  0
 20 21  2  0
 21 22  1  0
 23 22  2  0
  4 24  1  0
  9 25  1  0
  9 26  1  0
 12 27  1  0
 14 28  1  0
 17 29  1  0
 17 30  1  0
 18 31  1  0
 18 32  1  0
 21 33  1  0
 22 34  1  0
 23 35  1  0
M  ISO  8  24  14  27  14  28  14  29   8  30   8  31   8  32   8  33  14
M  ISO  2  34  14  35  14
M  END
>  <minimizedAffinity>  (1) 
-4.38245583

>  <minimizedRMSD>  (1) 
8.28269863

$$$$
