
     RDKit          3D

 36 38  0  0  0  0  0  0  0  0999 V2000
   47.9120   34.2850   41.5230 C   0  0  0  0  0  0  0  0  0  0  0  0
   47.9550   34.8680   40.5100 O   0  0  0  0  0  0  0  0  0  0  0  0
   46.8790   33.8340   42.4550 C   0  0  0  0  0  0  0  0  0  0  0  0
   47.3360   33.9540   43.7470 C   0  0  0  0  0  0  0  0  0  0  0  0
   46.3640   33.4940   44.6700 C   0  0  0  0  0  0  0  0  0  0  0  0
   45.1760   33.0200   44.2350 N   0  0  0  0  0  0  0  0  0  0  0  0
   44.8500   32.9570   42.9210 C   0  0  0  0  0  0  0  0  0  0  0  0
   45.7370   33.3780   42.0700 N   0  0  0  0  0  0  0  0  0  0  0  0
   43.5750   32.4330   42.5890 N   0  0  0  0  0  0  0  0  0  0  0  0
   46.5840   33.5100   46.0350 O   0  0  0  0  0  0  0  0  0  0  0  0
   46.3590   32.4160   46.8560 C   0  0  0  0  0  0  0  0  0  0  0  0
   47.2540   31.2350   46.8730 C   0  0  0  0  0  0  0  0  0  0  0  0
   47.3920   32.2490   47.9760 C   0  0  0  0  0  0  0  0  0  0  0  0
   49.2400   34.0530   41.7300 O   0  0  0  0  0  0  0  0  0  0  0  0
   50.0100   32.9910   41.7120 C   0  0  0  0  0  0  0  0  0  0  0  0
   49.4570   31.8510   40.9670 C   0  0  0  0  0  0  0  0  0  0  0  0
   49.7890   31.8980   39.5400 N   0  0  0  0  0  0  0  0  0  0  0  0
   50.9940   31.5490   39.1260 N   0  0  0  0  0  0  0  0  0  0  0  0
   51.1410   31.6370   37.8390 C   0  0  0  0  0  0  0  0  0  0  0  0
   49.9290   32.0880   37.3220 C   0  0  0  0  0  0  0  0  0  0  0  0
   49.1670   32.2160   38.4520 C   0  0  0  0  0  0  0  0  0  0  0  0
   48.3224   34.3530   44.0259 H   0  0  0  0  0  0  0  0  0  0  0  0
   43.2863   32.3670   41.6025 H   0  0  0  0  0  0  0  0  0  0  0  0
   42.9375   32.1184   43.3343 H   0  0  0  0  0  0  0  0  0  0  0  0
   45.2684   32.5043   46.7425 H   0  0  0  0  0  0  0  0  0  0  0  0
   46.8400   30.2405   47.0955 H   0  0  0  0  0  0  0  0  0  0  0  0
   47.9514   30.7902   46.1479 H   0  0  0  0  0  0  0  0  0  0  0  0
   48.2741   32.9048   48.0190 H   0  0  0  0  0  0  0  0  0  0  0  0
   47.3641   32.2249   49.0754 H   0  0  0  0  0  0  0  0  0  0  0  0
   50.9694   33.2697   41.2516 H   0  0  0  0  0  0  0  0  0  0  0  0
   50.1143   32.6619   42.7564 H   0  0  0  0  0  0  0  0  0  0  0  0
   49.8623   30.9213   41.3929 H   0  0  0  0  0  0  0  0  0  0  0  0
   48.3615   31.8933   41.0566 H   0  0  0  0  0  0  0  0  0  0  0  0
   52.0497   31.4004   37.2661 H   0  0  0  0  0  0  0  0  0  0  0  0
   49.6549   32.2893   36.2759 H   0  0  0  0  0  0  0  0  0  0  0  0
   48.1216   32.5580   38.4359 H   0  0  0  0  0  0  0  0  0  0  0  0
  1 14  1  0
  1  3  1  0
  2  1  2  0
  3  4  2  0
  4  5  1  0
  5 10  1  0
  6  5  2  0
  7  6  1  0
  8  3  1  0
  8  7  2  0
  9  7  1  0
 10 11  1  0
 11 12  1  0
 11 13  1  0
 12 13  1  0
 15 14  1  0
 16 15  1  0
 17 16  1  0
 18 17  1  0
 19 18  2  0
 20 19  1  0
 20 21  2  0
 21 17  1  0
  4 22  1  0
  9 23  1  0
  9 24  1  0
 11 25  1  0
 12 26  1  0
 12 27  1  0
 13 28  1  0
 13 29  1  0
 15 30  1  0
 15 31  1  0
 16 32  1  0
 16 33  1  0
 19 34  1  0
 20 35  1  0
 21 36  1  0
M  ISO  8  22  14  25  13  26  13  27  13  28  13  29  13  30   8  31   8
M  ISO  5  32   8  33   8  34  14  35  14  36  14
M  END
>  <minimizedAffinity>  (1) 
-4.10915995

>  <minimizedRMSD>  (1) 
3.17515135

$$$$
