
     RDKit          3D

 27 28  0  0  0  0  0  0  0  0999 V2000
   45.0010   34.8620   45.0720 C   0  0  0  0  0  0  0  0  0  0  0  0
   45.8460   34.6250   43.9900 C   0  0  0  0  0  0  0  0  0  0  0  0
   46.8140   33.6360   44.0980 C   0  0  0  0  0  0  0  0  0  0  0  0
   46.8940   32.9470   45.2510 N   0  0  0  0  0  0  0  0  0  0  0  0
   46.0670   33.1870   46.2970 C   0  0  0  0  0  0  0  0  0  0  0  0
   45.1160   34.1530   46.1990 N   0  0  0  0  0  0  0  0  0  0  0  0
   46.1600   32.4450   47.5230 N   0  0  0  0  0  0  0  0  0  0  0  0
   44.9690   31.9360   48.1720 C   0  0  0  0  0  0  0  0  0  0  0  0
   45.2440   30.6160   48.8130 C   0  0  0  0  0  0  0  0  0  0  0  0
   46.4500   30.7380   49.6050 N   0  0  0  0  0  0  0  0  0  0  0  0
   47.6060   30.8770   48.7440 C   0  0  0  0  0  0  0  0  0  0  0  0
   47.5000   32.2330   48.0730 C   0  0  0  0  0  0  0  0  0  0  0  0
   45.6440   35.4610   42.7800 C   0  0  0  0  0  0  0  0  0  0  0  0
   46.8380   35.5960   42.0800 F   0  0  0  0  0  0  0  0  0  0  0  0
   45.1760   36.7330   43.0500 F   0  0  0  0  0  0  0  0  0  0  0  0
   44.7620   34.8710   41.8780 F   0  0  0  0  0  0  0  0  0  0  0  0
   44.2295   35.6425   44.9978 H   0  0  0  0  0  0  0  0  0  0  0  0
   47.4975   33.4213   43.2633 H   0  0  0  0  0  0  0  0  0  0  0  0
   44.6431   32.6509   48.9418 H   0  0  0  0  0  0  0  0  0  0  0  0
   44.1808   31.8060   47.4158 H   0  0  0  0  0  0  0  0  0  0  0  0
   44.4007   30.3340   49.4605 H   0  0  0  0  0  0  0  0  0  0  0  0
   45.3725   29.8404   48.0437 H   0  0  0  0  0  0  0  0  0  0  0  0
   46.3760   31.5678   50.2107 H   0  0  0  0  0  0  0  0  0  0  0  0
   48.5292   30.8215   49.3395 H   0  0  0  0  0  0  0  0  0  0  0  0
   47.6372   30.0709   47.9962 H   0  0  0  0  0  0  0  0  0  0  0  0
   48.2361   32.2889   47.2575 H   0  0  0  0  0  0  0  0  0  0  0  0
   47.6965   33.0115   48.8249 H   0  0  0  0  0  0  0  0  0  0  0  0
  1  6  2  0
  2  3  2  0
  2  1  1  0
  3  4  1  0
  4  5  2  0
  5  7  1  0
  6  5  1  0
  7 12  1  0
  7  8  1  0
  8  9  1  0
  9 10  1  0
 11 10  1  0
 12 11  1  0
 13 15  1  0
 13  2  1  0
 14 13  1  0
 16 13  1  0
  1 17  1  0
  3 18  1  0
  8 19  1  0
  8 20  1  0
  9 21  1  0
  9 22  1  0
 10 23  1  0
 11 24  1  0
 11 25  1  0
 12 26  1  0
 12 27  1  0
M  ISO  8  17  14  18  14  19  13  20  13  21  13  22  13  23   5  24  13
M  ISO  3  25  13  26  13  27  13
M  END
>  <minimizedAffinity>  (1) 
-5.81414318

>  <minimizedRMSD>  (1) 
0.208848402

$$$$
