
     RDKit          3D

 26 28  0  0  0  0  0  0  0  0999 V2000
   45.3550   34.1330   45.6630 C   0  0  0  0  0  0  0  0  0  0  0  0
   45.5280   34.5220   44.3310 C   0  0  0  0  0  0  0  0  0  0  0  0
   46.2690   33.7050   43.4740 C   0  0  0  0  0  0  0  0  0  0  0  0
   46.7880   32.5640   43.9750 N   0  0  0  0  0  0  0  0  0  0  0  0
   46.6110   32.2030   45.2660 C   0  0  0  0  0  0  0  0  0  0  0  0
   45.9030   32.9760   46.1010 N   0  0  0  0  0  0  0  0  0  0  0  0
   47.1340   31.0160   45.8510 N   0  0  0  0  0  0  0  0  0  0  0  0
   47.1540   29.7650   45.3530 C   0  0  0  0  0  0  0  0  0  0  0  0
   47.7520   28.9570   46.2610 N   0  0  0  0  0  0  0  0  0  0  0  0
   48.1050   29.7180   47.3310 C   0  0  0  0  0  0  0  0  0  0  0  0
   48.7400   29.3910   48.5230 C   0  0  0  0  0  0  0  0  0  0  0  0
   48.9790   30.3340   49.4320 N   0  0  0  0  0  0  0  0  0  0  0  0
   48.6030   31.5940   49.1840 C   0  0  0  0  0  0  0  0  0  0  0  0
   47.9820   31.9250   48.0230 N   0  0  0  0  0  0  0  0  0  0  0  0
   47.7130   31.0140   47.0660 C   0  0  0  0  0  0  0  0  0  0  0  0
   44.9030   35.8000   43.9090 C   0  0  0  0  0  0  0  0  0  0  0  0
   45.6730   36.4200   42.9380 F   0  0  0  0  0  0  0  0  0  0  0  0
   44.7470   36.6920   44.9520 F   0  0  0  0  0  0  0  0  0  0  0  0
   43.6580   35.6090   43.3400 F   0  0  0  0  0  0  0  0  0  0  0  0
   49.1550   28.0530   48.8170 N   0  0  0  0  0  0  0  0  0  0  0  0
   44.7757   34.7651   46.3520 H   0  0  0  0  0  0  0  0  0  0  0  0
   46.4251   33.9833   42.4213 H   0  0  0  0  0  0  0  0  0  0  0  0
   46.7537   29.4530   44.3771 H   0  0  0  0  0  0  0  0  0  0  0  0
   48.8004   32.3747   49.9334 H   0  0  0  0  0  0  0  0  0  0  0  0
   49.6234   27.8436   49.7101 H   0  0  0  0  0  0  0  0  0  0  0  0
   48.9852   27.2996   48.1355 H   0  0  0  0  0  0  0  0  0  0  0  0
  1  6  2  0
  2  1  1  0
  3  4  1  0
  3  2  2  0
  4  5  2  0
  5  7  1  0
  5  6  1  0
  7 15  1  0
  8  7  1  0
  8  9  2  0
  9 10  1  0
 10 11  2  0
 11 20  1  0
 11 12  1  0
 13 12  2  0
 14 13  1  0
 15 10  1  0
 15 14  2  0
 16  2  1  0
 16 18  1  0
 17 16  1  0
 19 16  1  0
  1 21  1  0
  3 22  1  0
  8 23  1  0
 13 24  1  0
 20 25  1  0
 20 26  1  0
M  ISO  4  21  14  22  14  23  14  24  14
M  END
>  <minimizedAffinity>  (1) 
-5.35503578

>  <minimizedRMSD>  (1) 
3.09615684

$$$$
