
     RDKit          3D

 21 22  0  0  0  0  0  0  0  0999 V2000
   45.0280   34.9600   44.9210 C   0  0  0  0  0  0  0  0  0  0  0  0
   45.8920   34.7670   43.8440 C   0  0  0  0  0  0  0  0  0  0  0  0
   46.8370   33.7510   43.9180 C   0  0  0  0  0  0  0  0  0  0  0  0
   46.8700   32.9980   45.0380 N   0  0  0  0  0  0  0  0  0  0  0  0
   46.0330   33.1880   46.0770 C   0  0  0  0  0  0  0  0  0  0  0  0
   45.1130   34.1720   46.0120 N   0  0  0  0  0  0  0  0  0  0  0  0
   46.0740   32.3690   47.2840 C   0  0  0  0  0  0  0  0  0  0  0  0
   47.2680   31.8640   47.7580 C   0  0  0  0  0  0  0  0  0  0  0  0
   47.2840   31.0910   48.9010 C   0  0  0  0  0  0  0  0  0  0  0  0
   46.1430   30.8110   49.5800 N   0  0  0  0  0  0  0  0  0  0  0  0
   44.9880   31.3140   49.1010 C   0  0  0  0  0  0  0  0  0  0  0  0
   44.9570   32.0730   47.9820 N   0  0  0  0  0  0  0  0  0  0  0  0
   45.7220   35.6850   42.6900 C   0  0  0  0  0  0  0  0  0  0  0  0
   46.9430   35.8090   42.0120 F   0  0  0  0  0  0  0  0  0  0  0  0
   45.3320   36.9620   43.0530 F   0  0  0  0  0  0  0  0  0  0  0  0
   44.8470   35.2020   41.7540 F   0  0  0  0  0  0  0  0  0  0  0  0
   44.2731   35.7591   44.8806 H   0  0  0  0  0  0  0  0  0  0  0  0
   47.5366   33.5660   43.0896 H   0  0  0  0  0  0  0  0  0  0  0  0
   48.2062   32.0776   47.2249 H   0  0  0  0  0  0  0  0  0  0  0  0
   48.2413   30.6936   49.2693 H   0  0  0  0  0  0  0  0  0  0  0  0
   44.0486   31.1023   49.6326 H   0  0  0  0  0  0  0  0  0  0  0  0
  1  6  2  0
  2  3  2  0
  2  1  1  0
  3  4  1  0
  4  5  2  0
  5  7  1  0
  6  5  1  0
  7  8  2  0
  7 12  1  0
  8  9  1  0
  9 10  2  0
 11 10  1  0
 12 11  2  0
 13 15  1  0
 13  2  1  0
 14 13  1  0
 16 13  1  0
  1 17  1  0
  3 18  1  0
  8 19  1  0
  9 20  1  0
 11 21  1  0
M  ISO  5  17  14  18  14  19  14  20  14  21  14
M  END
>  <minimizedAffinity>  (1) 
-5.09386778

>  <minimizedRMSD>  (1) 
0.246863499

$$$$
