
     RDKit          3D

 18 19  0  0  0  0  0  0  0  0999 V2000
   44.9750   34.9310   45.1100 C   0  0  0  0  0  0  0  0  0  0  0  0
   45.8350   34.6790   44.0370 C   0  0  0  0  0  0  0  0  0  0  0  0
   46.7600   33.6370   44.1400 C   0  0  0  0  0  0  0  0  0  0  0  0
   46.7680   32.9230   45.2940 N   0  0  0  0  0  0  0  0  0  0  0  0
   45.9340   33.1790   46.3160 C   0  0  0  0  0  0  0  0  0  0  0  0
   45.0430   34.1830   46.2160 N   0  0  0  0  0  0  0  0  0  0  0  0
   45.9720   32.3820   47.5510 C   0  0  0  0  0  0  0  0  0  0  0  0
   47.0230   31.9410   48.2850 N   0  0  0  0  0  0  0  0  0  0  0  0
   46.5790   31.2670   49.3060 O   0  0  0  0  0  0  0  0  0  0  0  0
   45.2850   31.2260   49.3060 C   0  0  0  0  0  0  0  0  0  0  0  0
   44.8740   31.9210   48.2100 N   0  0  0  0  0  0  0  0  0  0  0  0
   45.7090   35.5450   42.8410 C   0  0  0  0  0  0  0  0  0  0  0  0
   46.9560   35.6860   42.2220 F   0  0  0  0  0  0  0  0  0  0  0  0
   45.2520   36.8160   43.1390 F   0  0  0  0  0  0  0  0  0  0  0  0
   44.8860   35.0110   41.8800 F   0  0  0  0  0  0  0  0  0  0  0  0
   44.2403   35.7470   45.0441 H   0  0  0  0  0  0  0  0  0  0  0  0
   47.4539   33.4047   43.3187 H   0  0  0  0  0  0  0  0  0  0  0  0
   44.6430   30.7270   50.0469 H   0  0  0  0  0  0  0  0  0  0  0  0
  1  6  2  0
  2  3  2  0
  2  1  1  0
  3  4  1  0
  4  5  2  0
  5  7  1  0
  6  5  1  0
  7 11  1  0
  7  8  2  0
  8  9  1  0
  9 10  1  0
 11 10  2  0
 12 14  1  0
 12  2  1  0
 13 12  1  0
 15 12  1  0
  1 16  1  0
  3 17  1  0
 10 18  1  0
M  ISO  3  16  14  17  14  18  14
M  END
>  <minimizedAffinity>  (1) 
-5.02782869

>  <minimizedRMSD>  (1) 
0.110390827

$$$$
