
     RDKit          3D

 19 20  0  0  0  0  0  0  0  0999 V2000
   44.7700   35.0540   45.1400 C   0  0  0  0  0  0  0  0  0  0  0  0
   45.4590   34.9070   43.9390 C   0  0  0  0  0  0  0  0  0  0  0  0
   46.4500   33.9330   43.8340 C   0  0  0  0  0  0  0  0  0  0  0  0
   46.6920   33.1700   44.9200 N   0  0  0  0  0  0  0  0  0  0  0  0
   46.0160   33.3240   46.0770 C   0  0  0  0  0  0  0  0  0  0  0  0
   45.0600   34.2590   46.1910 N   0  0  0  0  0  0  0  0  0  0  0  0
   46.3060   32.4710   47.2520 C   0  0  0  0  0  0  0  0  0  0  0  0
   47.4870   31.6630   47.3460 C   0  0  0  0  0  0  0  0  0  0  0  0
   47.2310   30.8860   49.0000 S   0  0  0  0  0  0  0  0  0  0  0  0
   45.5790   31.7980   49.2520 C   0  0  0  0  0  0  0  0  0  0  0  0
   45.4510   32.4280   48.2880 N   0  0  0  0  0  0  0  0  0  0  0  0
   45.0720   35.8280   42.8340 C   0  0  0  0  0  0  0  0  0  0  0  0
   45.7490   35.4730   41.6660 F   0  0  0  0  0  0  0  0  0  0  0  0
   45.3610   37.1560   43.0970 F   0  0  0  0  0  0  0  0  0  0  0  0
   43.7370   35.7350   42.5100 F   0  0  0  0  0  0  0  0  0  0  0  0
   43.9867   35.8207   45.2323 H   0  0  0  0  0  0  0  0  0  0  0  0
   47.0140   33.7915   42.9003 H   0  0  0  0  0  0  0  0  0  0  0  0
   48.3144   31.5406   46.6316 H   0  0  0  0  0  0  0  0  0  0  0  0
   44.9006   31.7401   50.1159 H   0  0  0  0  0  0  0  0  0  0  0  0
  1  6  2  0
  2  1  1  0
  3  2  2  0
  3  4  1  0
  4  5  2  0
  5  6  1  0
  5  7  1  0
  7  8  2  0
  7 11  1  0
  8  9  1  0
  9 10  1  0
 11 10  2  0
 12 14  1  0
 12  2  1  0
 13 12  1  0
 15 12  1  0
  1 16  1  0
  3 17  1  0
  8 18  1  0
 10 19  1  0
M  ISO  4  16  14  17  14  18  14  19  14
M  END
>  <minimizedAffinity>  (1) 
-4.82648182

>  <minimizedRMSD>  (1) 
0.706952333

$$$$
