
     RDKit          3D

 25 25  0  0  0  0  0  0  0  0999 V2000
   45.1540   34.7370   44.9950 C   0  0  0  0  0  0  0  0  0  0  0  0
   46.0050   34.5950   43.9020 C   0  0  0  0  0  0  0  0  0  0  0  0
   46.9670   33.5980   43.9420 C   0  0  0  0  0  0  0  0  0  0  0  0
   47.0370   32.8080   45.0370 N   0  0  0  0  0  0  0  0  0  0  0  0
   46.2020   32.9640   46.0840 C   0  0  0  0  0  0  0  0  0  0  0  0
   45.2670   33.9230   46.0610 N   0  0  0  0  0  0  0  0  0  0  0  0
   45.8120   35.5290   42.7760 C   0  0  0  0  0  0  0  0  0  0  0  0
   47.0320   35.7510   42.1300 F   0  0  0  0  0  0  0  0  0  0  0  0
   45.3130   36.7600   43.1550 F   0  0  0  0  0  0  0  0  0  0  0  0
   44.9790   35.0170   41.7930 F   0  0  0  0  0  0  0  0  0  0  0  0
   46.2840   32.0860   47.2950 C   0  0  0  0  0  0  0  0  0  0  0  0
   45.0970   32.2280   48.1800 C   0  0  0  0  0  0  0  0  0  0  0  0
   46.2900   30.6590   46.7730 C   0  0  0  0  0  0  0  0  0  0  0  0
   47.5690   32.3650   48.0340 C   0  0  0  0  0  0  0  0  0  0  0  0
   44.3827   35.5212   44.9872 H   0  0  0  0  0  0  0  0  0  0  0  0
   47.6595   33.4524   43.0999 H   0  0  0  0  0  0  0  0  0  0  0  0
   45.4171   32.1897   49.2317 H   0  0  0  0  0  0  0  0  0  0  0  0
   44.6047   33.1914   47.9814 H   0  0  0  0  0  0  0  0  0  0  0  0
   44.3914   31.4079   47.9814 H   0  0  0  0  0  0  0  0  0  0  0  0
   46.2929   29.9584   47.6210 H   0  0  0  0  0  0  0  0  0  0  0  0
   45.3926   30.4890   46.1600 H   0  0  0  0  0  0  0  0  0  0  0  0
   47.1888   30.4966   46.1600 H   0  0  0  0  0  0  0  0  0  0  0  0
   47.3848   32.3250   49.1177 H   0  0  0  0  0  0  0  0  0  0  0  0
   48.3202   31.6090   47.7616 H   0  0  0  0  0  0  0  0  0  0  0  0
   47.9391   33.3644   47.7616 H   0  0  0  0  0  0  0  0  0  0  0  0
  1  6  2  0
  2  3  2  0
  2  1  1  0
  3  4  1  0
  4  5  2  0
  5 11  1  0
  6  5  1  0
  7  9  1  0
  7  2  1  0
  8  7  1  0
 10  7  1  0
 11 14  1  0
 11 12  1  0
 13 11  1  0
  1 15  1  0
  3 16  1  0
 12 17  1  0
 12 18  1  0
 12 19  1  0
 13 20  1  0
 13 21  1  0
 13 22  1  0
 14 23  1  0
 14 24  1  0
 14 25  1  0
M  ISO  8  15  14  16  14  17   8  18   8  19   8  20   8  21   8  22   8
M  ISO  3  23   8  24   8  25   8
M  END
>  <minimizedAffinity>  (1) 
-4.68410873

>  <minimizedRMSD>  (1) 
0.386117548

$$$$
