
     RDKit          3D

 16 16  0  0  0  0  0  0  0  0999 V2000
   44.7320   35.2910   45.1410 C   0  0  0  0  0  0  0  0  0  0  0  0
   45.5950   34.8700   44.1140 C   0  0  0  0  0  0  0  0  0  0  0  0
   46.3810   33.7280   44.3160 C   0  0  0  0  0  0  0  0  0  0  0  0
   46.2630   33.0870   45.5030 N   0  0  0  0  0  0  0  0  0  0  0  0
   45.4280   33.5090   46.4770 C   0  0  0  0  0  0  0  0  0  0  0  0
   44.6700   34.6000   46.2980 N   0  0  0  0  0  0  0  0  0  0  0  0
   45.6080   35.6790   42.8740 C   0  0  0  0  0  0  0  0  0  0  0  0
   46.8950   35.6910   42.3260 F   0  0  0  0  0  0  0  0  0  0  0  0
   45.2390   36.9950   43.0650 F   0  0  0  0  0  0  0  0  0  0  0  0
   44.8000   35.1550   41.8930 F   0  0  0  0  0  0  0  0  0  0  0  0
   45.4270   32.6770   47.7280 C   0  0  0  0  0  0  0  0  0  0  0  0
   44.1065   36.1850   45.0009 H   0  0  0  0  0  0  0  0  0  0  0  0
   47.0692   33.3651   43.5384 H   0  0  0  0  0  0  0  0  0  0  0  0
   45.4278   33.3375   48.6076 H   0  0  0  0  0  0  0  0  0  0  0  0
   44.5281   32.0433   47.7462 H   0  0  0  0  0  0  0  0  0  0  0  0
   46.3244   32.0411   47.7462 H   0  0  0  0  0  0  0  0  0  0  0  0
  1  6  2  0
  2  3  2  0
  2  1  1  0
  3  4  1  0
  4  5  2  0
  5 11  1  0
  6  5  1  0
  7  9  1  0
  7  2  1  0
  8  7  1  0
 10  7  1  0
  1 12  1  0
  3 13  1  0
 11 14  1  0
 11 15  1  0
 11 16  1  0
M  ISO  5  12  14  13  14  14   8  15   8  16   8
M  END
>  <minimizedAffinity>  (1) 
-3.95033097

>  <minimizedRMSD>  (1) 
0.466985047

$$$$
