
     RDKit          3D

 29 31  0  0  0  0  0  0  0  0999 V2000
   44.4360   35.6130   44.7800 C   0  0  0  0  0  0  0  0  0  0  0  0
   45.0230   34.8390   43.7750 C   0  0  0  0  0  0  0  0  0  0  0  0
   45.6520   33.6420   44.1270 C   0  0  0  0  0  0  0  0  0  0  0  0
   45.6600   33.2920   45.4320 N   0  0  0  0  0  0  0  0  0  0  0  0
   45.0900   34.0460   46.3830 C   0  0  0  0  0  0  0  0  0  0  0  0
   44.4840   35.1960   46.0600 N   0  0  0  0  0  0  0  0  0  0  0  0
   45.2150   33.4900   47.6870 N   0  0  0  0  0  0  0  0  0  0  0  0
   46.2440   32.8640   43.1170 N   0  0  0  0  0  0  0  0  0  0  0  0
   45.8510   31.7950   42.3710 C   0  0  0  0  0  0  0  0  0  0  0  0
   46.8420   31.4360   41.5220 N   0  0  0  0  0  0  0  0  0  0  0  0
   47.8890   32.2820   41.7220 C   0  0  0  0  0  0  0  0  0  0  0  0
   49.1270   32.3310   41.1050 C   0  0  0  0  0  0  0  0  0  0  0  0
   49.4560   31.5130   40.1990 O   0  0  0  0  0  0  0  0  0  0  0  0
   50.0120   33.2690   41.4720 N   0  0  0  0  0  0  0  0  0  0  0  0
   49.6430   34.1290   42.4360 C   0  0  0  0  0  0  0  0  0  0  0  0
   50.5510   35.1420   42.8590 N   0  0  0  0  0  0  0  0  0  0  0  0
   48.4440   34.0920   43.0420 N   0  0  0  0  0  0  0  0  0  0  0  0
   47.5020   33.1640   42.7140 C   0  0  0  0  0  0  0  0  0  0  0  0
   44.9440   35.3400   42.3740 C   0  0  0  0  0  0  0  0  0  0  0  0
   46.1940   35.5270   41.8540 F   0  0  0  0  0  0  0  0  0  0  0  0
   44.2450   36.5120   42.2670 F   0  0  0  0  0  0  0  0  0  0  0  0
   44.3270   34.4060   41.5430 F   0  0  0  0  0  0  0  0  0  0  0  0
   43.9364   36.5597   44.5265 H   0  0  0  0  0  0  0  0  0  0  0  0
   44.8144   33.9831   48.4977 H   0  0  0  0  0  0  0  0  0  0  0  0
   45.7061   32.5944   47.8201 H   0  0  0  0  0  0  0  0  0  0  0  0
   44.8731   31.2970   42.4470 H   0  0  0  0  0  0  0  0  0  0  0  0
   50.9409   33.3281   41.0309 H   0  0  0  0  0  0  0  0  0  0  0  0
   50.2753   35.8050   43.5975 H   0  0  0  0  0  0  0  0  0  0  0  0
   51.4831   35.2114   42.4263 H   0  0  0  0  0  0  0  0  0  0  0  0
  1  6  2  0
  2  3  2  0
  2  1  1  0
  3  4  1  0
  4  5  2  0
  5  7  1  0
  6  5  1  0
  8  3  1  0
  9  8  1  0
 10 11  1  0
 10  9  2  0
 11 18  2  0
 12 14  1  0
 12 11  1  0
 13 12  2  0
 14 15  1  0
 15 16  1  0
 15 17  2  0
 18 17  1  0
 18  8  1  0
 19  2  1  0
 20 19  1  0
 21 19  1  0
 22 19  1  0
  1 23  1  0
  7 24  1  0
  7 25  1  0
  9 26  1  0
 14 27  1  0
 16 28  1  0
 16 29  1  0
M  ISO  3  23  14  26  14  27   9
M  END
>  <minimizedAffinity>  (1) 
-6.43479586

>  <minimizedRMSD>  (1) 
1.10984766

$$$$
