
     RDKit          3D

 29 31  0  0  0  0  0  0  0  0999 V2000
   44.5190   35.6170   44.6520 C   0  0  0  0  0  0  0  0  0  0  0  0
   45.1350   34.7770   43.6960 C   0  0  0  0  0  0  0  0  0  0  0  0
   45.7280   33.5850   44.0970 C   0  0  0  0  0  0  0  0  0  0  0  0
   45.6480   33.3480   45.4440 N   0  0  0  0  0  0  0  0  0  0  0  0
   45.0790   34.1210   46.3290 C   0  0  0  0  0  0  0  0  0  0  0  0
   44.5110   35.2580   45.9500 N   0  0  0  0  0  0  0  0  0  0  0  0
   45.1640   33.5630   47.6400 N   0  0  0  0  0  0  0  0  0  0  0  0
   46.3440   32.6740   43.1430 C   0  0  0  0  0  0  0  0  0  0  0  0
   45.8130   31.6260   42.5370 N   0  0  0  0  0  0  0  0  0  0  0  0
   46.3270   30.7870   41.6630 C   0  0  0  0  0  0  0  0  0  0  0  0
   47.5850   30.9600   41.2750 N   0  0  0  0  0  0  0  0  0  0  0  0
   48.2770   31.9920   41.8000 C   0  0  0  0  0  0  0  0  0  0  0  0
   49.5620   32.1250   41.3570 C   0  0  0  0  0  0  0  0  0  0  0  0
   50.3160   33.1620   41.8450 C   0  0  0  0  0  0  0  0  0  0  0  0
   49.7670   34.0540   42.7740 C   0  0  0  0  0  0  0  0  0  0  0  0
   48.4640   33.8230   43.1480 C   0  0  0  0  0  0  0  0  0  0  0  0
   47.6410   32.8230   42.7200 C   0  0  0  0  0  0  0  0  0  0  0  0
   45.1220   35.2440   42.2810 C   0  0  0  0  0  0  0  0  0  0  0  0
   46.3670   35.5980   41.8730 F   0  0  0  0  0  0  0  0  0  0  0  0
   44.3010   36.3420   42.0830 F   0  0  0  0  0  0  0  0  0  0  0  0
   44.6480   34.2590   41.4400 F   0  0  0  0  0  0  0  0  0  0  0  0
   44.0482   36.5599   44.3369 H   0  0  0  0  0  0  0  0  0  0  0  0
   44.7562   34.0658   48.4411 H   0  0  0  0  0  0  0  0  0  0  0  0
   45.6331   32.6575   47.7849 H   0  0  0  0  0  0  0  0  0  0  0  0
   45.7257   29.9580   41.2615 H   0  0  0  0  0  0  0  0  0  0  0  0
   49.9822   31.4178   40.6267 H   0  0  0  0  0  0  0  0  0  0  0  0
   51.3541   33.2929   41.5057 H   0  0  0  0  0  0  0  0  0  0  0  0
   50.3469   34.8946   43.1828 H   0  0  0  0  0  0  0  0  0  0  0  0
   48.0356   34.5265   43.8771 H   0  0  0  0  0  0  0  0  0  0  0  0
  1  6  2  0
  2  3  2  0
  2  1  1  0
  3  4  1  0
  4  5  2  0
  5  7  1  0
  6  5  1  0
  8  3  1  0
  9  8  2  0
 10  9  1  0
 11 10  2  0
 11 12  1  0
 12 17  2  0
 13 12  1  0
 13 14  2  0
 14 15  1  0
 15 16  2  0
 17  8  1  0
 17 16  1  0
 18  2  1  0
 19 18  1  0
 20 18  1  0
 21 18  1  0
  1 22  1  0
  7 23  1  0
  7 24  1  0
 10 25  1  0
 13 26  1  0
 14 27  1  0
 15 28  1  0
 16 29  1  0
M  ISO  6  22  14  25  14  26  14  27  14  28  14  29  14
M  END
>  <minimizedAffinity>  (1) 
-5.63172913

>  <minimizedRMSD>  (1) 
1.10599458

$$$$
