
     RDKit          3D

 48 51  0  0  1  0  0  0  0  0999 V2000
   47.8160   34.4990   41.3700 C   0  0  2  0  0  0  0  0  0  0  0  0
   48.6100   35.6290   41.6970 C   0  0  0  0  0  0  0  0  0  0  0  0
   49.9300   35.1060   42.3030 C   0  0  0  0  0  0  0  0  0  0  0  0
   49.8820   33.5900   42.2560 C   0  0  0  0  0  0  0  0  0  0  0  0
   48.4370   33.3340   42.2080 C   0  0  1  0  0  0  0  0  0  0  0  0
   47.7550   33.9650   39.9880 C   0  0  0  0  0  0  0  0  0  0  0  0
   48.3650   34.6870   38.9790 C   0  0  0  0  0  0  0  0  0  0  0  0
   48.3420   34.2260   37.6770 C   0  0  0  0  0  0  0  0  0  0  0  0
   47.6930   33.0430   37.4700 N   0  0  0  0  0  0  0  0  0  0  0  0
   47.1100   32.3630   38.4620 C   0  0  0  0  0  0  0  0  0  0  0  0
   47.1290   32.8050   39.7300 N   0  0  0  0  0  0  0  0  0  0  0  0
   47.8550   33.3340   43.5820 C   0  0  0  0  0  0  0  0  0  0  0  0
   46.4300   32.8820   43.5650 C   0  0  0  0  0  0  0  0  0  0  0  0
   45.6500   33.9260   44.3140 C   0  0  0  0  0  0  0  0  0  0  0  0
   45.0520   35.0640   43.8410 C   0  0  0  0  0  0  0  0  0  0  0  0
   44.4680   35.6910   44.8990 N   0  0  0  0  0  0  0  0  0  0  0  0
   44.7000   34.9590   45.9890 C   0  0  0  0  0  0  0  0  0  0  0  0
   45.4060   33.8960   45.6620 N   0  0  0  0  0  0  0  0  0  0  0  0
   47.1800   33.2000   47.0770 N   0  0  0  0  0  0  0  0  0  0  0  0
   47.3400   32.2460   48.1760 C   0  0  0  0  0  0  0  0  0  0  0  0
   45.9660   32.1050   48.7930 C   0  0  0  0  0  0  0  0  0  0  0  0
   45.0500   32.7280   47.7910 C   0  0  0  0  0  0  0  0  0  0  0  0
   45.8810   32.8250   46.5510 C   0  0  1  0  0  0  0  0  0  0  0  0
   46.7888   34.8457   41.5559 H   0  0  0  0  0  0  0  0  0  0  0  0
   48.8191   36.2165   40.7909 H   0  0  0  0  0  0  0  0  0  0  0  0
   48.0848   36.2788   42.4125 H   0  0  0  0  0  0  0  0  0  0  0  0
   50.7847   35.4734   41.7161 H   0  0  0  0  0  0  0  0  0  0  0  0
   50.0486   35.4588   43.3381 H   0  0  0  0  0  0  0  0  0  0  0  0
   50.3872   33.2013   41.3595 H   0  0  0  0  0  0  0  0  0  0  0  0
   50.3919   33.1028   43.1002 H   0  0  0  0  0  0  0  0  0  0  0  0
   48.2264   32.3510   41.7615 H   0  0  0  0  0  0  0  0  0  0  0  0
   48.8718   35.6345   39.2145 H   0  0  0  0  0  0  0  0  0  0  0  0
   48.8189   34.7799   36.8549 H   0  0  0  0  0  0  0  0  0  0  0  0
   46.6006   31.4152   38.2335 H   0  0  0  0  0  0  0  0  0  0  0  0
   48.4396   32.6543   44.2194 H   0  0  0  0  0  0  0  0  0  0  0  0
   47.8904   34.3606   43.9755 H   0  0  0  0  0  0  0  0  0  0  0  0
   46.0669   32.8045   42.5296 H   0  0  0  0  0  0  0  0  0  0  0  0
   46.3186   31.8900   44.0272 H   0  0  0  0  0  0  0  0  0  0  0  0
   45.0449   35.4086   42.7964 H   0  0  0  0  0  0  0  0  0  0  0  0
   44.3552   35.2047   47.0043 H   0  0  0  0  0  0  0  0  0  0  0  0
   47.1805   34.1714   47.4196 H   0  0  0  0  0  0  0  0  0  0  0  0
   47.6914   31.2759   47.7947 H   0  0  0  0  0  0  0  0  0  0  0  0
   48.0833   32.5905   48.9101 H   0  0  0  0  0  0  0  0  0  0  0  0
   45.7139   31.0453   48.9465 H   0  0  0  0  0  0  0  0  0  0  0  0
   45.8967   32.5820   49.7818 H   0  0  0  0  0  0  0  0  0  0  0  0
   44.1672   32.0941   47.6213 H   0  0  0  0  0  0  0  0  0  0  0  0
   44.6648   33.7046   48.1196 H   0  0  0  0  0  0  0  0  0  0  0  0
   45.8640   31.8973   45.9602 H   0  0  0  0  0  0  0  0  0  0  0  0
  1  2  1  0
  1  5  1  0
  2  3  1  0
  4  3  1  0
  5  4  1  0
  5 12  1  0
  6  1  1  0
  7  6  2  0
  8  7  1  0
  9  8  2  0
  9 10  1  0
 10 11  2  0
 11  6  1  0
 13 12  1  0
 13 14  1  0
 14 18  1  0
 15 14  2  0
 15 16  1  0
 16 17  2  0
 18 17  1  0
 19 20  1  0
 20 21  1  0
 22 21  1  0
 23 18  1  0
 23 19  1  0
 23 22  1  0
  1 24  1  1
  2 25  1  0
  2 26  1  0
  3 27  1  0
  3 28  1  0
  4 29  1  0
  4 30  1  0
  5 31  1  6
  7 32  1  0
  8 33  1  0
 10 34  1  0
 12 35  1  0
 12 36  1  0
 13 37  1  0
 13 38  1  0
 15 39  1  0
 17 40  1  0
 19 41  1  0
 20 42  1  0
 20 43  1  0
 21 44  1  0
 21 45  1  0
 22 46  1  0
 22 47  1  0
 23 48  1  6
M  ISO  8  24  13  25  13  26  13  27  13  28  13  29  13  30  13  31  13
M  ISO  8  32  14  33  14  34  14  35   8  36   8  37   8  38   8  39  14
M  ISO  8  40  14  41   5  42  13  43  13  44  13  45  13  46  13  47  13
M  ISO  1  48  13
M  END
>  <minimizedAffinity>  (1) 
-6.6954298

>  <minimizedRMSD>  (1) 
0.827404976

$$$$
