
     RDKit          3D

 23 24  0  0  0  0  0  0  0  0999 V2000
   44.5990   35.7380   45.0090 C   0  0  0  0  0  0  0  0  0  0  0  0
   45.3410   35.1010   44.0120 C   0  0  0  0  0  0  0  0  0  0  0  0
   45.9190   33.8650   44.2980 C   0  0  0  0  0  0  0  0  0  0  0  0
   45.7420   33.3260   45.5330 N   0  0  0  0  0  0  0  0  0  0  0  0
   45.0190   33.9740   46.4670 C   0  0  0  0  0  0  0  0  0  0  0  0
   44.4560   35.1640   46.2060 N   0  0  0  0  0  0  0  0  0  0  0  0
   44.9540   33.2470   47.6920 N   0  0  0  0  0  0  0  0  0  0  0  0
   46.6950   33.1810   43.2750 C   0  0  0  0  0  0  0  0  0  0  0  0
   48.0810   33.3090   43.4010 C   0  0  0  0  0  0  0  0  0  0  0  0
   48.9380   32.6970   42.4850 C   0  0  0  0  0  0  0  0  0  0  0  0
   48.4500   31.9770   41.4700 N   0  0  0  0  0  0  0  0  0  0  0  0
   47.1040   31.8640   41.3660 C   0  0  0  0  0  0  0  0  0  0  0  0
   46.2600   32.4450   42.2370 N   0  0  0  0  0  0  0  0  0  0  0  0
   45.4720   35.7790   42.7040 C   0  0  0  0  0  0  0  0  0  0  0  0
   46.7930   35.8170   42.2960 F   0  0  0  0  0  0  0  0  0  0  0  0
   45.0150   37.0760   42.7210 F   0  0  0  0  0  0  0  0  0  0  0  0
   44.7880   35.1150   41.7040 F   0  0  0  0  0  0  0  0  0  0  0  0
   44.1320   36.7134   44.8080 H   0  0  0  0  0  0  0  0  0  0  0  0
   44.4306   33.6311   48.4917 H   0  0  0  0  0  0  0  0  0  0  0  0
   45.4304   32.3378   47.7772 H   0  0  0  0  0  0  0  0  0  0  0  0
   48.5005   33.8978   44.2301 H   0  0  0  0  0  0  0  0  0  0  0  0
   50.0263   32.8083   42.5995 H   0  0  0  0  0  0  0  0  0  0  0  0
   46.6853   31.2743   40.5372 H   0  0  0  0  0  0  0  0  0  0  0  0
  1  6  2  0
  2  3  2  0
  2  1  1  0
  3  4  1  0
  4  5  2  0
  5  7  1  0
  6  5  1  0
  8  9  2  0
  8  3  1  0
 10  9  1  0
 11 10  2  0
 12 11  1  0
 12 13  2  0
 13  8  1  0
 14 16  1  0
 14  2  1  0
 15 14  1  0
 17 14  1  0
  1 18  1  0
  7 19  1  0
  7 20  1  0
  9 21  1  0
 10 22  1  0
 12 23  1  0
M  ISO  4  18  14  21  14  22  14  23  14
M  END
>  <minimizedAffinity>  (1) 
-5.02233934

>  <minimizedRMSD>  (1) 
0.559314549

$$$$
