
     RDKit          3D

 28 29  0  0  0  0  0  0  0  0999 V2000
   44.6110   35.6320   44.9050 C   0  0  0  0  0  0  0  0  0  0  0  0
   45.4430   34.9890   44.0020 C   0  0  0  0  0  0  0  0  0  0  0  0
   46.0710   33.8090   44.4020 C   0  0  0  0  0  0  0  0  0  0  0  0
   45.8470   33.3400   45.6520 N   0  0  0  0  0  0  0  0  0  0  0  0
   45.0310   33.9900   46.5080 C   0  0  0  0  0  0  0  0  0  0  0  0
   44.4300   35.1140   46.1300 N   0  0  0  0  0  0  0  0  0  0  0  0
   44.9270   33.3510   47.7670 N   0  0  0  0  0  0  0  0  0  0  0  0
   46.9300   33.0950   43.5210 N   0  0  0  0  0  0  0  0  0  0  0  0
   48.3120   33.1270   43.0920 C   0  0  0  0  0  0  0  0  0  0  0  0
   48.4550   33.3450   41.6090 C   0  0  0  0  0  0  0  0  0  0  0  0
   47.3230   32.9330   40.9450 O   0  0  0  0  0  0  0  0  0  0  0  0
   46.9110   31.7310   41.5190 C   0  0  0  0  0  0  0  0  0  0  0  0
   46.2030   32.0090   42.8510 C   0  0  0  0  0  0  0  0  0  0  0  0
   45.6350   35.5870   42.6610 C   0  0  0  0  0  0  0  0  0  0  0  0
   46.9760   35.8450   42.4240 F   0  0  0  0  0  0  0  0  0  0  0  0
   44.9340   36.7640   42.5050 F   0  0  0  0  0  0  0  0  0  0  0  0
   45.2290   34.7420   41.6500 F   0  0  0  0  0  0  0  0  0  0  0  0
   44.1008   36.5635   44.6188 H   0  0  0  0  0  0  0  0  0  0  0  0
   44.3310   33.7565   48.5027 H   0  0  0  0  0  0  0  0  0  0  0  0
   45.4474   32.4806   47.9473 H   0  0  0  0  0  0  0  0  0  0  0  0
   48.8253   33.9448   43.6190 H   0  0  0  0  0  0  0  0  0  0  0  0
   48.7561   32.1488   43.3285 H   0  0  0  0  0  0  0  0  0  0  0  0
   48.6174   34.4156   41.4155 H   0  0  0  0  0  0  0  0  0  0  0  0
   49.3111   32.7571   41.2463 H   0  0  0  0  0  0  0  0  0  0  0  0
   46.2171   31.2188   40.8362 H   0  0  0  0  0  0  0  0  0  0  0  0
   47.7895   31.0941   41.6998 H   0  0  0  0  0  0  0  0  0  0  0  0
   45.1619   32.3123   42.6664 H   0  0  0  0  0  0  0  0  0  0  0  0
   46.1920   31.1059   43.4790 H   0  0  0  0  0  0  0  0  0  0  0  0
  1  6  2  0
  2  3  2  0
  2  1  1  0
  3  4  1  0
  4  5  2  0
  5  7  1  0
  6  5  1  0
  8  3  1  0
  9  8  1  0
 10  9  1  0
 11 12  1  0
 11 10  1  0
 12 13  1  0
 13  8  1  0
 14  2  1  0
 15 14  1  0
 16 14  1  0
 17 14  1  0
  1 18  1  0
  7 19  1  0
  7 20  1  0
  9 21  1  0
  9 22  1  0
 10 23  1  0
 10 24  1  0
 12 25  1  0
 12 26  1  0
 13 27  1  0
 13 28  1  0
M  ISO  8  18  14  21  13  22  13  23  13  24  13  25  13  26  13  27  13
M  ISO  1  28  13
M  END
>  <minimizedAffinity>  (1) 
-4.96276283

>  <minimizedRMSD>  (1) 
0.534235239

$$$$
