
     RDKit          3D

 27 27  0  0  0  0  0  0  0  0999 V2000
   44.6350   35.6600   44.9030 C   0  0  0  0  0  0  0  0  0  0  0  0
   45.4230   34.9610   43.9760 C   0  0  0  0  0  0  0  0  0  0  0  0
   46.0260   33.7370   44.3310 C   0  0  0  0  0  0  0  0  0  0  0  0
   45.7560   33.3450   45.6200 N   0  0  0  0  0  0  0  0  0  0  0  0
   45.0080   34.0160   46.4840 C   0  0  0  0  0  0  0  0  0  0  0  0
   44.4500   35.1670   46.1300 N   0  0  0  0  0  0  0  0  0  0  0  0
   44.9170   33.3450   47.7440 N   0  0  0  0  0  0  0  0  0  0  0  0
   45.5800   35.5190   42.6350 C   0  0  0  0  0  0  0  0  0  0  0  0
   46.8300   35.8230   42.3100 F   0  0  0  0  0  0  0  0  0  0  0  0
   44.8640   36.6890   42.4630 F   0  0  0  0  0  0  0  0  0  0  0  0
   45.0750   34.7020   41.6220 F   0  0  0  0  0  0  0  0  0  0  0  0
   46.9110   32.9500   43.4440 C   0  0  0  0  0  0  0  0  0  0  0  0
   48.1190   33.9210   43.2170 C   0  0  0  0  0  0  0  0  0  0  0  0
   47.5990   31.7740   44.0080 C   0  0  0  0  0  0  0  0  0  0  0  0
   46.4200   32.8140   42.0170 C   0  0  0  0  0  0  0  0  0  0  0  0
   44.1692   36.6151   44.6186 H   0  0  0  0  0  0  0  0  0  0  0  0
   44.3645   33.7582   48.5088 H   0  0  0  0  0  0  0  0  0  0  0  0
   45.4040   32.4487   47.8865 H   0  0  0  0  0  0  0  0  0  0  0  0
   48.5189   34.2424   44.1900 H   0  0  0  0  0  0  0  0  0  0  0  0
   48.9059   33.4012   42.6508 H   0  0  0  0  0  0  0  0  0  0  0  0
   47.7805   34.8012   42.6508 H   0  0  0  0  0  0  0  0  0  0  0  0
   47.5698   31.8240   45.1065 H   0  0  0  0  0  0  0  0  0  0  0  0
   47.0950   30.8569   43.6691 H   0  0  0  0  0  0  0  0  0  0  0  0
   48.6455   31.7639   43.6691 H   0  0  0  0  0  0  0  0  0  0  0  0
   45.3599   32.5204   42.0204 H   0  0  0  0  0  0  0  0  0  0  0  0
   46.5321   33.7770   41.4973 H   0  0  0  0  0  0  0  0  0  0  0  0
   47.0116   32.0459   41.4973 H   0  0  0  0  0  0  0  0  0  0  0  0
  1  6  2  0
  2  3  2  0
  2  1  1  0
  3  4  1  0
  4  5  2  0
  5  7  1  0
  6  5  1  0
  8  2  1  0
  9  8  1  0
 10  8  1  0
 11  8  1  0
 12 14  1  0
 12  3  1  0
 13 12  1  0
 15 12  1  0
  1 16  1  0
  7 17  1  0
  7 18  1  0
 13 19  1  0
 13 20  1  0
 13 21  1  0
 14 22  1  0
 14 23  1  0
 14 24  1  0
 15 25  1  0
 15 26  1  0
 15 27  1  0
M  ISO  8  16  14  19   8  20   8  21   8  22   8  23   8  24   8  25   8
M  ISO  2  26   8  27   8
M  END
>  <minimizedAffinity>  (1) 
-4.88033676

>  <minimizedRMSD>  (1) 
0.318745703

$$$$
