
     RDKit          3D

 22 23  0  0  0  0  0  0  0  0999 V2000
   44.6010   35.7280   44.9660 C   0  0  0  0  0  0  0  0  0  0  0  0
   45.3610   35.0530   43.9920 C   0  0  0  0  0  0  0  0  0  0  0  0
   45.9340   33.8280   44.3210 C   0  0  0  0  0  0  0  0  0  0  0  0
   45.7170   33.3590   45.5810 N   0  0  0  0  0  0  0  0  0  0  0  0
   44.9950   34.0180   46.4840 C   0  0  0  0  0  0  0  0  0  0  0  0
   44.4400   35.1880   46.1850 N   0  0  0  0  0  0  0  0  0  0  0  0
   44.9200   33.3160   47.7190 N   0  0  0  0  0  0  0  0  0  0  0  0
   46.6990   33.0470   43.3610 C   0  0  0  0  0  0  0  0  0  0  0  0
   48.0790   32.9950   43.4310 C   0  0  0  0  0  0  0  0  0  0  0  0
   48.6220   32.2070   42.4400 C   0  0  0  0  0  0  0  0  0  0  0  0
   47.4980   31.7850   41.7660 C   0  0  0  0  0  0  0  0  0  0  0  0
   46.4710   32.2920   42.3360 O   0  0  0  0  0  0  0  0  0  0  0  0
   45.5210   35.6930   42.6670 C   0  0  0  0  0  0  0  0  0  0  0  0
   46.8380   35.8010   42.3290 F   0  0  0  0  0  0  0  0  0  0  0  0
   44.9770   36.9630   42.6210 F   0  0  0  0  0  0  0  0  0  0  0  0
   44.9010   34.9620   41.6690 F   0  0  0  0  0  0  0  0  0  0  0  0
   44.1391   36.6977   44.7286 H   0  0  0  0  0  0  0  0  0  0  0  0
   44.3901   33.7151   48.5069 H   0  0  0  0  0  0  0  0  0  0  0  0
   45.3956   32.4086   47.8253 H   0  0  0  0  0  0  0  0  0  0  0  0
   48.6748   33.5222   44.1907 H   0  0  0  0  0  0  0  0  0  0  0  0
   49.6784   31.9753   42.2394 H   0  0  0  0  0  0  0  0  0  0  0  0
   47.4852   31.1241   40.8867 H   0  0  0  0  0  0  0  0  0  0  0  0
  1  6  2  0
  2  3  2  0
  2  1  1  0
  3  4  1  0
  4  5  2  0
  5  7  1  0
  6  5  1  0
  8  9  2  0
  8  3  1  0
 10  9  1  0
 11 12  1  0
 11 10  2  0
 12  8  1  0
 13  2  1  0
 14 13  1  0
 15 13  1  0
 16 13  1  0
  1 17  1  0
  7 18  1  0
  7 19  1  0
  9 20  1  0
 10 21  1  0
 11 22  1  0
M  ISO  4  17  14  20  14  21  14  22  14
M  END
>  <minimizedAffinity>  (1) 
-4.87548637

>  <minimizedRMSD>  (1) 
0.295603037

$$$$
