
     RDKit          3D

 31 32  0  0  0  0  0  0  0  0999 V2000
   44.6230   35.7700   45.0050 C   0  0  0  0  0  0  0  0  0  0  0  0
   45.3410   35.1100   44.0020 C   0  0  0  0  0  0  0  0  0  0  0  0
   45.8850   33.8600   44.2670 C   0  0  0  0  0  0  0  0  0  0  0  0
   45.6940   33.3280   45.5020 N   0  0  0  0  0  0  0  0  0  0  0  0
   45.0050   33.9710   46.4520 C   0  0  0  0  0  0  0  0  0  0  0  0
   44.4750   35.1740   46.2110 N   0  0  0  0  0  0  0  0  0  0  0  0
   44.9050   33.2670   47.6780 N   0  0  0  0  0  0  0  0  0  0  0  0
   46.6380   33.1530   43.2370 C   0  0  0  0  0  0  0  0  0  0  0  0
   47.8880   32.5940   43.8870 C   0  0  0  0  0  0  0  0  0  0  0  0
   47.6300   31.1120   44.1880 C   0  0  0  0  0  0  0  0  0  0  0  0
   47.6790   30.3960   42.8580 C   0  0  0  0  0  0  0  0  0  0  0  0
   46.5650   30.9520   42.0220 C   0  0  0  0  0  0  0  0  0  0  0  0
   45.7650   32.0190   42.7320 C   0  0  0  0  0  0  0  0  0  0  0  0
   45.4850   35.7860   42.6950 C   0  0  0  0  0  0  0  0  0  0  0  0
   46.7720   35.7910   42.2550 F   0  0  0  0  0  0  0  0  0  0  0  0
   44.9980   37.0680   42.6920 F   0  0  0  0  0  0  0  0  0  0  0  0
   44.7710   35.1120   41.6930 F   0  0  0  0  0  0  0  0  0  0  0  0
   44.1843   36.7608   44.8158 H   0  0  0  0  0  0  0  0  0  0  0  0
   44.3931   33.6817   48.4697 H   0  0  0  0  0  0  0  0  0  0  0  0
   45.3442   32.3406   47.7772 H   0  0  0  0  0  0  0  0  0  0  0  0
   46.9161   33.8112   42.4007 H   0  0  0  0  0  0  0  0  0  0  0  0
   48.7437   32.6946   43.2031 H   0  0  0  0  0  0  0  0  0  0  0  0
   48.1208   33.1417   44.8121 H   0  0  0  0  0  0  0  0  0  0  0  0
   48.4061   30.7191   44.8613 H   0  0  0  0  0  0  0  0  0  0  0  0
   46.6595   30.9674   44.6852 H   0  0  0  0  0  0  0  0  0  0  0  0
   48.6466   30.5763   42.3669 H   0  0  0  0  0  0  0  0  0  0  0  0
   47.5665   29.3099   42.9914 H   0  0  0  0  0  0  0  0  0  0  0  0
   45.8873   30.1293   41.7504 H   0  0  0  0  0  0  0  0  0  0  0  0
   47.0216   31.4196   41.1372 H   0  0  0  0  0  0  0  0  0  0  0  0
   45.0224   32.4291   42.0317 H   0  0  0  0  0  0  0  0  0  0  0  0
   45.2812   31.5531   43.6032 H   0  0  0  0  0  0  0  0  0  0  0  0
  1  6  2  0
  2  3  2  0
  2  1  1  0
  3  4  1  0
  4  5  2  0
  5  7  1  0
  6  5  1  0
  8  9  1  0
  8  3  1  0
  9 10  1  0
 11 10  1  0
 12 13  1  0
 12 11  1  0
 13  8  1  0
 14  2  1  0
 15 14  1  0
 16 14  1  0
 17 14  1  0
  1 18  1  0
  7 19  1  0
  7 20  1  0
  8 21  1  0
  9 22  1  0
  9 23  1  0
 10 24  1  0
 10 25  1  0
 11 26  1  0
 11 27  1  0
 12 28  1  0
 12 29  1  0
 13 30  1  0
 13 31  1  0
M  ISO  8  18  14  21  13  22  13  23  13  24  13  25  13  26  13  27  13
M  ISO  4  28  13  29  13  30  13  31  13
M  END
>  <minimizedAffinity>  (1) 
-4.74060583

>  <minimizedRMSD>  (1) 
1.27970684

$$$$
