
     RDKit          3D

 41 44  0  0  1  0  0  0  0  0999 V2000
   47.9250   34.7000   41.4250 C   0  0  2  0  0  0  0  0  0  0  0  0
   48.9630   35.6040   41.7720 C   0  0  0  0  0  0  0  0  0  0  0  0
   50.1520   34.7610   42.2820 C   0  0  0  0  0  0  0  0  0  0  0  0
   49.7620   33.3000   42.1580 C   0  0  0  0  0  0  0  0  0  0  0  0
   48.2960   33.3740   42.1660 C   0  0  1  0  0  0  0  0  0  0  0  0
   47.6930   34.2830   40.0210 C   0  0  0  0  0  0  0  0  0  0  0  0
   48.5160   34.8020   39.0390 C   0  0  0  0  0  0  0  0  0  0  0  0
   48.3520   34.4470   37.7180 C   0  0  0  0  0  0  0  0  0  0  0  0
   47.3320   33.5610   37.4650 N   0  0  0  0  0  0  0  0  0  0  0  0
   46.5480   33.0710   38.4290 C   0  0  0  0  0  0  0  0  0  0  0  0
   46.7120   33.4200   39.7160 N   0  0  0  0  0  0  0  0  0  0  0  0
   47.7880   33.4250   43.5700 C   0  0  0  0  0  0  0  0  0  0  0  0
   46.3810   32.9110   43.6450 C   0  0  0  0  0  0  0  0  0  0  0  0
   45.5640   34.0200   44.2450 C   0  0  0  0  0  0  0  0  0  0  0  0
   44.9160   35.0520   43.6260 C   0  0  0  0  0  0  0  0  0  0  0  0
   44.3150   35.7990   44.5980 N   0  0  0  0  0  0  0  0  0  0  0  0
   44.5860   35.2440   45.7710 C   0  0  0  0  0  0  0  0  0  0  0  0
   45.3340   34.1760   45.5860 N   0  0  0  0  0  0  0  0  0  0  0  0
   45.8440   33.2940   46.5820 C   0  0  0  0  0  0  0  0  0  0  0  0
   46.9340   32.5540   46.8770 N   0  0  0  0  0  0  0  0  0  0  0  0
   46.7290   31.9500   48.0130 O   0  0  0  0  0  0  0  0  0  0  0  0
   45.5620   32.2360   48.5080 C   0  0  0  0  0  0  0  0  0  0  0  0
   44.9810   33.0870   47.6180 N   0  0  0  0  0  0  0  0  0  0  0  0
   47.0105   35.2545   41.6823 H   0  0  0  0  0  0  0  0  0  0  0  0
   49.2655   36.1870   40.8896 H   0  0  0  0  0  0  0  0  0  0  0  0
   48.6242   36.3089   42.5455 H   0  0  0  0  0  0  0  0  0  0  0  0
   51.0451   34.9643   41.6728 H   0  0  0  0  0  0  0  0  0  0  0  0
   50.3848   35.0123   43.3273 H   0  0  0  0  0  0  0  0  0  0  0  0
   50.1372   32.7125   43.0089 H   0  0  0  0  0  0  0  0  0  0  0  0
   50.1763   32.8043   41.2677 H   0  0  0  0  0  0  0  0  0  0  0  0
   47.8502   32.4942   41.6789 H   0  0  0  0  0  0  0  0  0  0  0  0
   49.3127   35.5080   39.3161 H   0  0  0  0  0  0  0  0  0  0  0  0
   48.9944   34.8459   36.9191 H   0  0  0  0  0  0  0  0  0  0  0  0
   45.7483   32.3642   38.1626 H   0  0  0  0  0  0  0  0  0  0  0  0
   48.4332   32.8052   44.2099 H   0  0  0  0  0  0  0  0  0  0  0  0
   47.8008   34.4703   43.9124 H   0  0  0  0  0  0  0  0  0  0  0  0
   46.0103   32.6649   42.6390 H   0  0  0  0  0  0  0  0  0  0  0  0
   46.3197   31.9941   44.2496 H   0  0  0  0  0  0  0  0  0  0  0  0
   44.8845   35.2452   42.5436 H   0  0  0  0  0  0  0  0  0  0  0  0
   44.2402   35.6172   46.7463 H   0  0  0  0  0  0  0  0  0  0  0  0
   45.1324   31.8669   49.4510 H   0  0  0  0  0  0  0  0  0  0  0  0
  1  2  1  0
  1  5  1  0
  2  3  1  0
  4  5  1  0
  4  3  1  0
  5 12  1  0
  6  1  1  0
  7  6  2  0
  8  7  1  0
  9  8  2  0
  9 10  1  0
 10 11  2  0
 11  6  1  0
 12 13  1  0
 13 14  1  0
 14 18  1  0
 15 14  2  0
 15 16  1  0
 16 17  2  0
 18 17  1  0
 18 19  1  0
 19 20  2  0
 19 23  1  0
 20 21  1  0
 21 22  1  0
 23 22  2  0
  1 24  1  1
  2 25  1  0
  2 26  1  0
  3 27  1  0
  3 28  1  0
  4 29  1  0
  4 30  1  0
  5 31  1  6
  7 32  1  0
  8 33  1  0
 10 34  1  0
 12 35  1  0
 12 36  1  0
 13 37  1  0
 13 38  1  0
 15 39  1  0
 17 40  1  0
 22 41  1  0
M  ISO  8  24  13  25  13  26  13  27  13  28  13  29  13  30  13  31  13
M  ISO  8  32  14  33  14  34  14  35   8  36   8  37   8  38   8  39  14
M  ISO  2  40  14  41  14
M  END
>  <minimizedAffinity>  (1) 
-6.51957512

>  <minimizedRMSD>  (1) 
0.896144509

$$$$
