
     RDKit          3D

 35 36  0  0  1  0  0  0  0  0999 V2000
   47.5840   34.2590   42.2860 C   0  0  1  0  0  0  0  0  0  0  0  0
   48.5360   35.4930   42.3320 C   0  0  0  0  0  0  0  0  0  0  0  0
   49.9230   34.9620   42.4280 C   0  0  0  0  0  0  0  0  0  0  0  0
   49.8720   33.4680   42.4010 C   0  0  0  0  0  0  0  0  0  0  0  0
   48.4440   33.0630   42.1440 C   0  0  2  0  0  0  0  0  0  0  0  0
   44.9260   34.5710   44.9360 C   0  0  0  0  0  0  0  0  0  0  0  0
   45.6200   34.7730   43.7600 C   0  0  0  0  0  0  0  0  0  0  0  0
   46.8470   34.1780   43.5710 C   0  0  0  0  0  0  0  0  0  0  0  0
   47.3450   33.3930   44.5710 N   0  0  0  0  0  0  0  0  0  0  0  0
   46.6410   33.2080   45.7150 C   0  0  0  0  0  0  0  0  0  0  0  0
   45.4600   33.7860   45.8940 N   0  0  0  0  0  0  0  0  0  0  0  0
   47.2900   32.3100   46.5980 N   0  0  0  0  0  0  0  0  0  0  0  0
   45.0150   35.6660   42.7470 C   0  0  0  0  0  0  0  0  0  0  0  0
   45.5210   36.9430   42.8370 F   0  0  0  0  0  0  0  0  0  0  0  0
   43.6560   35.7570   42.8580 F   0  0  0  0  0  0  0  0  0  0  0  0
   45.2880   35.3210   41.4660 F   0  0  0  0  0  0  0  0  0  0  0  0
   48.3650   32.3540   40.8910 N   0  0  0  0  0  0  0  0  0  0  0  0
   48.2600   33.0930   39.6710 C   0  0  0  0  0  0  0  0  0  0  0  0
   48.2610   34.3780   39.7520 N   0  0  0  0  0  0  0  0  0  0  0  0
   48.1630   32.3680   38.4560 N   0  0  0  0  0  0  0  0  0  0  0  0
   48.1940   35.0340   38.9620 H   0  0  0  0  0  0  0  0  0  0  0  0
   46.8641   34.3329   41.4575 H   0  0  0  0  0  0  0  0  0  0  0  0
   48.4226   36.0932   41.4171 H   0  0  0  0  0  0  0  0  0  0  0  0
   48.3011   36.1413   43.1891 H   0  0  0  0  0  0  0  0  0  0  0  0
   50.5178   35.3267   41.5776 H   0  0  0  0  0  0  0  0  0  0  0  0
   50.3886   35.3024   43.3647 H   0  0  0  0  0  0  0  0  0  0  0  0
   50.5201   33.0855   41.5987 H   0  0  0  0  0  0  0  0  0  0  0  0
   50.2240   33.0532   43.3571 H   0  0  0  0  0  0  0  0  0  0  0  0
   48.0609   32.3445   42.8836 H   0  0  0  0  0  0  0  0  0  0  0  0
   43.9460   35.0461   45.0905 H   0  0  0  0  0  0  0  0  0  0  0  0
   46.8614   32.0807   47.5061 H   0  0  0  0  0  0  0  0  0  0  0  0
   48.1904   31.8865   46.3318 H   0  0  0  0  0  0  0  0  0  0  0  0
   48.3840   31.3243   40.8747 H   0  0  0  0  0  0  0  0  0  0  0  0
   48.1686   31.3381   38.4690 H   0  0  0  0  0  0  0  0  0  0  0  0
   48.0869   32.8714   37.5606 H   0  0  0  0  0  0  0  0  0  0  0  0
  1  2  1  0
  1  8  1  0
  2  3  1  0
  4  3  1  0
  5  1  1  0
  5  4  1  0
  6 11  2  0
  7  6  1  0
  8  7  2  0
  8  9  1  0
  9 10  2  0
 10 11  1  0
 10 12  1  0
 13 14  1  0
 13 15  1  0
 13  7  1  0
 16 13  1  0
 17  5  1  0
 18 19  2  0
 18 17  1  0
 20 18  1  0
 21 19  1  0
  1 22  1  6
  2 23  1  0
  2 24  1  0
  3 25  1  0
  3 26  1  0
  4 27  1  0
  4 28  1  0
  5 29  1  1
  6 30  1  0
 12 31  1  0
 12 32  1  0
 17 33  1  0
 20 34  1  0
 20 35  1  0
M  ISO  8  22  13  23  13  24  13  25  13  26  13  27  13  28  13  29  13
M  ISO  1  30  14
M  END
>  <minimizedAffinity>  (1) 
-5.48694897

>  <minimizedRMSD>  (1) 
0.561368287

$$$$
