
     RDKit          3D

 36 38  0  0  1  0  0  0  0  0999 V2000
   47.5200   34.2510   42.2790 C   0  0  1  0  0  0  0  0  0  0  0  0
   48.3760   35.5530   42.2480 C   0  0  0  0  0  0  0  0  0  0  0  0
   49.8020   35.1300   42.3390 C   0  0  0  0  0  0  0  0  0  0  0  0
   49.8600   33.6420   42.4050 C   0  0  0  0  0  0  0  0  0  0  0  0
   48.4660   33.1160   42.1820 C   0  0  2  0  0  0  0  0  0  0  0  0
   44.8960   34.5670   44.9490 C   0  0  0  0  0  0  0  0  0  0  0  0
   45.5750   34.7690   43.7600 C   0  0  0  0  0  0  0  0  0  0  0  0
   46.8050   34.1810   43.5700 C   0  0  0  0  0  0  0  0  0  0  0  0
   47.3140   33.4160   44.5790 N   0  0  0  0  0  0  0  0  0  0  0  0
   46.6300   33.2300   45.7370 C   0  0  0  0  0  0  0  0  0  0  0  0
   45.4460   33.7930   45.9210 N   0  0  0  0  0  0  0  0  0  0  0  0
   47.3330   32.3780   46.6370 N   0  0  0  0  0  0  0  0  0  0  0  0
   44.9590   35.6670   42.7590 C   0  0  0  0  0  0  0  0  0  0  0  0
   45.4830   36.9440   42.8430 F   0  0  0  0  0  0  0  0  0  0  0  0
   43.6070   35.7740   42.8990 F   0  0  0  0  0  0  0  0  0  0  0  0
   45.2180   35.3190   41.4770 F   0  0  0  0  0  0  0  0  0  0  0  0
   48.4190   32.3320   40.9260 C   0  0  0  0  0  0  0  0  0  0  0  0
   47.2610   31.7800   40.4000 C   0  0  0  0  0  0  0  0  0  0  0  0
   47.3250   31.0650   39.2210 C   0  0  0  0  0  0  0  0  0  0  0  0
   48.5020   30.9050   38.5880 N   0  0  0  0  0  0  0  0  0  0  0  0
   49.6500   31.4400   39.0930 C   0  0  0  0  0  0  0  0  0  0  0  0
   49.5600   32.1220   40.2270 N   0  0  0  0  0  0  0  0  0  0  0  0
   46.7874   34.2286   41.4588 H   0  0  0  0  0  0  0  0  0  0  0  0
   48.2017   36.0991   41.3092 H   0  0  0  0  0  0  0  0  0  0  0  0
   48.1081   36.2226   43.0786 H   0  0  0  0  0  0  0  0  0  0  0  0
   50.3491   35.4820   41.4520 H   0  0  0  0  0  0  0  0  0  0  0  0
   50.2624   35.5616   43.2399 H   0  0  0  0  0  0  0  0  0  0  0  0
   50.5337   33.2589   41.6244 H   0  0  0  0  0  0  0  0  0  0  0  0
   50.2417   33.3156   43.3837 H   0  0  0  0  0  0  0  0  0  0  0  0
   48.1549   32.3998   42.9568 H   0  0  0  0  0  0  0  0  0  0  0  0
   43.9120   35.0326   45.1070 H   0  0  0  0  0  0  0  0  0  0  0  0
   46.9265   32.1522   47.5561 H   0  0  0  0  0  0  0  0  0  0  0  0
   48.2477   31.9879   46.3685 H   0  0  0  0  0  0  0  0  0  0  0  0
   46.2994   31.9107   40.9179 H   0  0  0  0  0  0  0  0  0  0  0  0
   46.4106   30.6243   38.7972 H   0  0  0  0  0  0  0  0  0  0  0  0
   50.6141   31.3109   38.5794 H   0  0  0  0  0  0  0  0  0  0  0  0
  1  8  1  0
  2  1  1  0
  2  3  1  0
  3  4  1  0
  5  1  1  0
  5  4  1  0
  6 11  2  0
  7  6  1  0
  8  7  2  0
  8  9  1  0
  9 10  2  0
 10 11  1  0
 10 12  1  0
 13 14  1  0
 13 15  1  0
 13  7  1  0
 16 13  1  0
 17  5  1  0
 18 17  2  0
 19 18  1  0
 20 21  1  0
 20 19  2  0
 21 22  2  0
 22 17  1  0
  1 23  1  6
  2 24  1  0
  2 25  1  0
  3 26  1  0
  3 27  1  0
  4 28  1  0
  4 29  1  0
  5 30  1  1
  6 31  1  0
 12 32  1  0
 12 33  1  0
 18 34  1  0
 19 35  1  0
 21 36  1  0
M  ISO  8  23  13  24  13  25  13  26  13  27  13  28  13  29  13  30  13
M  ISO  4  31  14  34  14  35  14  36  14
M  END
>  <minimizedAffinity>  (1) 
-5.46765423

>  <minimizedRMSD>  (1) 
0.598947883

$$$$
