
     RDKit          3D

 38 40  0  0  1  0  0  0  0  0999 V2000
   47.5310   34.1850   42.3190 C   0  0  1  0  0  0  0  0  0  0  0  0
   48.4640   35.4270   42.3000 C   0  0  0  0  0  0  0  0  0  0  0  0
   49.8620   34.9130   42.3880 C   0  0  0  0  0  0  0  0  0  0  0  0
   49.8260   33.4200   42.4310 C   0  0  0  0  0  0  0  0  0  0  0  0
   48.3990   32.9910   42.2090 C   0  0  2  0  0  0  0  0  0  0  0  0
   44.8980   34.5910   44.9750 C   0  0  0  0  0  0  0  0  0  0  0  0
   45.5860   34.7590   43.7870 C   0  0  0  0  0  0  0  0  0  0  0  0
   46.8100   34.1450   43.6110 C   0  0  0  0  0  0  0  0  0  0  0  0
   47.2960   33.3870   44.6350 N   0  0  0  0  0  0  0  0  0  0  0  0
   46.6070   33.2340   45.7900 C   0  0  0  0  0  0  0  0  0  0  0  0
   45.4300   33.8280   45.9500 N   0  0  0  0  0  0  0  0  0  0  0  0
   47.2850   32.3810   46.7070 N   0  0  0  0  0  0  0  0  0  0  0  0
   44.9960   35.6560   42.7670 C   0  0  0  0  0  0  0  0  0  0  0  0
   45.5340   36.9270   42.8460 F   0  0  0  0  0  0  0  0  0  0  0  0
   43.6450   35.7840   42.8950 F   0  0  0  0  0  0  0  0  0  0  0  0
   45.2570   35.2860   41.4930 F   0  0  0  0  0  0  0  0  0  0  0  0
   48.2990   32.2260   40.9500 C   0  0  0  0  0  0  0  0  0  0  0  0
   49.3880   31.7190   40.2750 C   0  0  0  0  0  0  0  0  0  0  0  0
   49.2180   31.0120   39.1000 C   0  0  0  0  0  0  0  0  0  0  0  0
   47.9390   30.8030   38.5830 C   0  0  0  0  0  0  0  0  0  0  0  0
   46.8150   31.2990   39.2340 C   0  0  0  0  0  0  0  0  0  0  0  0
   47.0310   32.0040   40.4120 C   0  0  0  0  0  0  0  0  0  0  0  0
   46.8001   34.2207   41.4977 H   0  0  0  0  0  0  0  0  0  0  0  0
   48.3254   35.9913   41.3660 H   0  0  0  0  0  0  0  0  0  0  0  0
   48.2379   36.1052   43.1361 H   0  0  0  0  0  0  0  0  0  0  0  0
   50.4332   35.2435   41.5080 H   0  0  0  0  0  0  0  0  0  0  0  0
   50.3455   35.3008   43.2967 H   0  0  0  0  0  0  0  0  0  0  0  0
   50.4691   33.0066   41.6401 H   0  0  0  0  0  0  0  0  0  0  0  0
   50.1928   33.0530   43.4009 H   0  0  0  0  0  0  0  0  0  0  0  0
   48.0414   32.2915   42.9789 H   0  0  0  0  0  0  0  0  0  0  0  0
   43.9225   35.0773   45.1230 H   0  0  0  0  0  0  0  0  0  0  0  0
   46.8687   32.1798   47.6274 H   0  0  0  0  0  0  0  0  0  0  0  0
   48.1916   31.9653   46.4498 H   0  0  0  0  0  0  0  0  0  0  0  0
   50.4004   31.8783   40.6746 H   0  0  0  0  0  0  0  0  0  0  0  0
   50.0949   30.6122   38.5698 H   0  0  0  0  0  0  0  0  0  0  0  0
   47.8182   30.2378   37.6471 H   0  0  0  0  0  0  0  0  0  0  0  0
   45.8021   31.1408   38.8353 H   0  0  0  0  0  0  0  0  0  0  0  0
   46.1585   32.4072   40.9470 H   0  0  0  0  0  0  0  0  0  0  0  0
  1  8  1  0
  2  1  1  0
  2  3  1  0
  3  4  1  0
  5  1  1  0
  5  4  1  0
  6 11  2  0
  7  6  1  0
  8  7  2  0
  8  9  1  0
  9 10  2  0
 10 11  1  0
 10 12  1  0
 13 14  1  0
 13 15  1  0
 13  7  1  0
 16 13  1  0
 17  5  1  0
 18 17  2  0
 19 18  1  0
 20 19  2  0
 20 21  1  0
 21 22  2  0
 22 17  1  0
  1 23  1  6
  2 24  1  0
  2 25  1  0
  3 26  1  0
  3 27  1  0
  4 28  1  0
  4 29  1  0
  5 30  1  1
  6 31  1  0
 12 32  1  0
 12 33  1  0
 18 34  1  0
 19 35  1  0
 20 36  1  0
 21 37  1  0
 22 38  1  0
M  ISO  8  23  13  24  13  25  13  26  13  27  13  28  13  29  13  30  13
M  ISO  6  31  14  34  14  35  14  36  14  37  14  38  14
M  END
>  <minimizedAffinity>  (1) 
-5.40166807

>  <minimizedRMSD>  (1) 
0.77165705

$$$$
