
     RDKit          3D

 34 36  0  0  1  0  0  0  0  0999 V2000
   47.2940   34.1900   42.2790 C   0  0  1  0  0  0  0  0  0  0  0  0
   48.1260   35.4950   42.0780 C   0  0  0  0  0  0  0  0  0  0  0  0
   49.5590   35.1110   42.2150 C   0  0  0  0  0  0  0  0  0  0  0  0
   49.6460   33.6420   42.4570 C   0  0  0  0  0  0  0  0  0  0  0  0
   48.2620   33.0750   42.3340 C   0  0  2  0  0  0  0  0  0  0  0  0
   44.6760   34.8100   44.9040 C   0  0  0  0  0  0  0  0  0  0  0  0
   45.3480   34.8690   43.6980 C   0  0  0  0  0  0  0  0  0  0  0  0
   46.5830   34.2740   43.5720 C   0  0  0  0  0  0  0  0  0  0  0  0
   47.1080   33.6420   44.6610 N   0  0  0  0  0  0  0  0  0  0  0  0
   46.4260   33.5960   45.8390 C   0  0  0  0  0  0  0  0  0  0  0  0
   45.2380   34.1670   45.9590 N   0  0  0  0  0  0  0  0  0  0  0  0
   47.1350   32.8590   46.8300 N   0  0  0  0  0  0  0  0  0  0  0  0
   44.7200   35.6270   42.5900 C   0  0  0  0  0  0  0  0  0  0  0  0
   45.1430   36.9430   42.5830 F   0  0  0  0  0  0  0  0  0  0  0  0
   43.3580   35.6410   42.6670 F   0  0  0  0  0  0  0  0  0  0  0  0
   45.0630   35.1840   41.3560 F   0  0  0  0  0  0  0  0  0  0  0  0
   48.2180   32.1400   41.2330 N   0  0  0  0  0  0  0  0  0  0  0  0
   47.4650   31.0620   41.1080 C   0  0  0  0  0  0  0  0  0  0  0  0
   47.7340   30.4610   39.9130 N   0  0  0  0  0  0  0  0  0  0  0  0
   48.6800   31.2020   39.3030 C   0  0  0  0  0  0  0  0  0  0  0  0
   48.9550   32.2210   40.1350 N   0  0  0  0  0  0  0  0  0  0  0  0
   46.5631   34.0469   41.4695 H   0  0  0  0  0  0  0  0  0  0  0  0
   47.8573   36.2382   42.8432 H   0  0  0  0  0  0  0  0  0  0  0  0
   47.9279   35.9443   41.0937 H   0  0  0  0  0  0  0  0  0  0  0  0
   50.0991   35.3654   41.2911 H   0  0  0  0  0  0  0  0  0  0  0  0
   50.0108   35.6543   43.0580 H   0  0  0  0  0  0  0  0  0  0  0  0
   50.3082   33.1783   41.7110 H   0  0  0  0  0  0  0  0  0  0  0  0
   50.0566   33.4407   43.4574 H   0  0  0  0  0  0  0  0  0  0  0  0
   47.9720   32.4802   43.2127 H   0  0  0  0  0  0  0  0  0  0  0  0
   43.6883   35.2828   45.0087 H   0  0  0  0  0  0  0  0  0  0  0  0
   46.7337   32.7439   47.7716 H   0  0  0  0  0  0  0  0  0  0  0  0
   48.0491   32.4410   46.6052 H   0  0  0  0  0  0  0  0  0  0  0  0
   46.7359   30.7051   41.8503 H   0  0  0  0  0  0  0  0  0  0  0  0
   49.1360   31.0110   38.3204 H   0  0  0  0  0  0  0  0  0  0  0  0
  1  5  1  0
  1  8  1  0
  2  3  1  0
  2  1  1  0
  3  4  1  0
  5  4  1  0
  6 11  2  0
  7  6  1  0
  8  7  2  0
  8  9  1  0
  9 10  2  0
 10 11  1  0
 10 12  1  0
 13 15  1  0
 13  7  1  0
 14 13  1  0
 16 13  1  0
 17  5  1  0
 18 17  1  0
 19 18  2  0
 20 19  1  0
 20 21  2  0
 21 17  1  0
  1 22  1  6
  2 23  1  0
  2 24  1  0
  3 25  1  0
  3 26  1  0
  4 27  1  0
  4 28  1  0
  5 29  1  1
  6 30  1  0
 12 31  1  0
 12 32  1  0
 18 33  1  0
 20 34  1  0
M  ISO  8  22  13  23  13  24  13  25  13  26  13  27  13  28  13  29  13
M  ISO  3  30  14  33  14  34  14
M  END
>  <minimizedAffinity>  (1) 
-5.30885124

>  <minimizedRMSD>  (1) 
0.385473788

$$$$
