
     RDKit          3D

 31 32  0  0  1  0  0  0  0  0999 V2000
   47.2780   34.1930   42.2730 C   0  0  1  0  0  0  0  0  0  0  0  0
   48.1280   35.4840   42.0760 C   0  0  0  0  0  0  0  0  0  0  0  0
   49.5550   35.0890   42.2170 C   0  0  0  0  0  0  0  0  0  0  0  0
   49.6230   33.6120   42.4460 C   0  0  0  0  0  0  0  0  0  0  0  0
   48.2300   33.0630   42.3120 C   0  0  2  0  0  0  0  0  0  0  0  0
   44.6640   34.8190   44.9050 C   0  0  0  0  0  0  0  0  0  0  0  0
   45.3340   34.8710   43.6970 C   0  0  0  0  0  0  0  0  0  0  0  0
   46.5700   34.2760   43.5690 C   0  0  0  0  0  0  0  0  0  0  0  0
   47.0930   33.6470   44.6610 N   0  0  0  0  0  0  0  0  0  0  0  0
   46.4240   33.6050   45.8370 C   0  0  0  0  0  0  0  0  0  0  0  0
   45.2300   34.1830   45.9510 N   0  0  0  0  0  0  0  0  0  0  0  0
   47.1250   32.8700   46.8280 N   0  0  0  0  0  0  0  0  0  0  0  0
   44.7040   35.6330   42.5890 C   0  0  0  0  0  0  0  0  0  0  0  0
   45.1280   36.9470   42.5830 F   0  0  0  0  0  0  0  0  0  0  0  0
   43.3430   35.6460   42.6660 F   0  0  0  0  0  0  0  0  0  0  0  0
   45.0470   35.1930   41.3560 F   0  0  0  0  0  0  0  0  0  0  0  0
   48.1730   32.0980   41.1560 C   0  0  0  0  0  0  0  0  0  0  0  0
   49.2560   32.3470   40.3700 F   0  0  0  0  0  0  0  0  0  0  0  0
   47.0250   32.2550   40.4060 F   0  0  0  0  0  0  0  0  0  0  0  0
   48.3050   30.8300   41.6900 F   0  0  0  0  0  0  0  0  0  0  0  0
   46.5398   34.0683   41.4671 H   0  0  0  0  0  0  0  0  0  0  0  0
   47.8650   36.2301   42.8403 H   0  0  0  0  0  0  0  0  0  0  0  0
   47.9397   35.9320   41.0892 H   0  0  0  0  0  0  0  0  0  0  0  0
   50.1030   35.3469   41.2988 H   0  0  0  0  0  0  0  0  0  0  0  0
   50.0094   35.6214   43.0656 H   0  0  0  0  0  0  0  0  0  0  0  0
   50.2822   33.1471   41.6982 H   0  0  0  0  0  0  0  0  0  0  0  0
   50.0273   33.3958   43.4459 H   0  0  0  0  0  0  0  0  0  0  0  0
   47.9281   32.4595   43.1807 H   0  0  0  0  0  0  0  0  0  0  0  0
   43.6770   35.2926   45.0123 H   0  0  0  0  0  0  0  0  0  0  0  0
   46.7228   32.7624   47.7701 H   0  0  0  0  0  0  0  0  0  0  0  0
   48.0360   32.4441   46.6052 H   0  0  0  0  0  0  0  0  0  0  0  0
  1  5  1  0
  1  8  1  0
  2  3  1  0
  2  1  1  0
  3  4  1  0
  5  4  1  0
  6 11  2  0
  7  6  1  0
  8  7  2  0
  8  9  1  0
  9 10  2  0
 10 11  1  0
 10 12  1  0
 13 15  1  0
 13  7  1  0
 14 13  1  0
 16 13  1  0
 17 20  1  0
 17  5  1  0
 18 17  1  0
 19 17  1  0
  1 21  1  6
  2 22  1  0
  2 23  1  0
  3 24  1  0
  3 25  1  0
  4 26  1  0
  4 27  1  0
  5 28  1  1
  6 29  1  0
 12 30  1  0
 12 31  1  0
M  ISO  8  21  13  22  13  23  13  24  13  25  13  26  13  27  13  28  13
M  ISO  1  29  14
M  END
>  <minimizedAffinity>  (1) 
-5.28603172

>  <minimizedRMSD>  (1) 
0.11476741

$$$$
