
     RDKit          3D

 41 43  0  0  1  0  0  0  0  0999 V2000
   47.4910   34.1250   42.3710 C   0  0  1  0  0  0  0  0  0  0  0  0
   48.6730   35.1460   42.4700 C   0  0  0  0  0  0  0  0  0  0  0  0
   49.9120   34.3430   42.4700 C   0  0  0  0  0  0  0  0  0  0  0  0
   49.5690   32.9130   42.3020 C   0  0  0  0  0  0  0  0  0  0  0  0
   48.0810   32.8520   42.0460 C   0  0  2  0  0  0  0  0  0  0  0  0
   44.9050   34.6750   45.0210 C   0  0  0  0  0  0  0  0  0  0  0  0
   45.5750   34.7950   43.8120 C   0  0  0  0  0  0  0  0  0  0  0  0
   46.7570   34.1110   43.6410 C   0  0  0  0  0  0  0  0  0  0  0  0
   47.2370   33.3460   44.6470 N   0  0  0  0  0  0  0  0  0  0  0  0
   46.5770   33.2400   45.8150 C   0  0  0  0  0  0  0  0  0  0  0  0
   45.4300   33.8970   45.9920 N   0  0  0  0  0  0  0  0  0  0  0  0
   47.2520   32.3910   46.7380 N   0  0  0  0  0  0  0  0  0  0  0  0
   44.9900   35.6880   42.7970 C   0  0  0  0  0  0  0  0  0  0  0  0
   45.4670   36.9830   42.9550 F   0  0  0  0  0  0  0  0  0  0  0  0
   43.6380   35.7610   42.8510 F   0  0  0  0  0  0  0  0  0  0  0  0
   45.2930   35.3530   41.5420 F   0  0  0  0  0  0  0  0  0  0  0  0
   47.7510   32.2420   40.7490 C   0  0  0  0  0  0  0  0  0  0  0  0
   47.4020   30.8870   40.5980 C   0  0  0  0  0  0  0  0  0  0  0  0
   46.9730   30.3570   39.3900 C   0  0  0  0  0  0  0  0  0  0  0  0
   46.8930   31.2550   38.3210 C   0  0  0  0  0  0  0  0  0  0  0  0
   47.2470   32.5870   38.4800 C   0  0  0  0  0  0  0  0  0  0  0  0
   47.6810   33.0690   39.6800 C   0  0  0  0  0  0  0  0  0  0  0  0
   48.1380   34.4350   39.2700 C   0  0  0  0  0  0  0  0  0  0  0  0
   46.7580   34.3909   41.5951 H   0  0  0  0  0  0  0  0  0  0  0  0
   48.6608   35.8283   41.6073 H   0  0  0  0  0  0  0  0  0  0  0  0
   48.5950   35.7627   43.3775 H   0  0  0  0  0  0  0  0  0  0  0  0
   50.5587   34.6655   41.6407 H   0  0  0  0  0  0  0  0  0  0  0  0
   50.4427   34.4848   43.4230 H   0  0  0  0  0  0  0  0  0  0  0  0
   50.1184   32.4888   41.4487 H   0  0  0  0  0  0  0  0  0  0  0  0
   49.8414   32.3325   43.1958 H   0  0  0  0  0  0  0  0  0  0  0  0
   47.5909   32.1399   42.7263 H   0  0  0  0  0  0  0  0  0  0  0  0
   43.9569   35.2076   45.1867 H   0  0  0  0  0  0  0  0  0  0  0  0
   46.8517   32.2246   47.6723 H   0  0  0  0  0  0  0  0  0  0  0  0
   48.1405   31.9434   46.4712 H   0  0  0  0  0  0  0  0  0  0  0  0
   47.4721   30.2225   41.4718 H   0  0  0  0  0  0  0  0  0  0  0  0
   46.7115   29.2943   39.2796 H   0  0  0  0  0  0  0  0  0  0  0  0
   46.5444   30.9002   37.3399 H   0  0  0  0  0  0  0  0  0  0  0  0
   47.1762   33.2691   37.6199 H   0  0  0  0  0  0  0  0  0  0  0  0
   48.3400   35.0387   40.1671 H   0  0  0  0  0  0  0  0  0  0  0  0
   49.0566   34.3499   38.6709 H   0  0  0  0  0  0  0  0  0  0  0  0
   47.3531   34.9198   38.6709 H   0  0  0  0  0  0  0  0  0  0  0  0
  1  2  1  0
  1  8  1  0
  2  3  1  0
  4  3  1  0
  5  4  1  0
  5  1  1  0
  6 11  2  0
  7  6  1  0
  8  7  2  0
  8  9  1  0
  9 10  2  0
 10 11  1  0
 10 12  1  0
 13 15  1  0
 13 14  1  0
 13  7  1  0
 16 13  1  0
 17  5  1  0
 18 17  2  0
 19 18  1  0
 20 21  1  0
 20 19  2  0
 21 22  2  0
 22 17  1  0
 23 22  1  0
  1 24  1  6
  2 25  1  0
  2 26  1  0
  3 27  1  0
  3 28  1  0
  4 29  1  0
  4 30  1  0
  5 31  1  1
  6 32  1  0
 12 33  1  0
 12 34  1  0
 18 35  1  0
 19 36  1  0
 20 37  1  0
 21 38  1  0
 23 39  1  0
 23 40  1  0
 23 41  1  0
M  ISO  8  24  13  25  13  26  13  27  13  28  13  29  13  30  13  31  13
M  ISO  8  32  14  35  14  36  14  37  14  38  14  39   8  40   8  41   8
M  END
>  <minimizedAffinity>  (1) 
-5.77342272

>  <minimizedRMSD>  (1) 
0.427914768

$$$$
