
     RDKit          3D

 46 49  0  0  1  0  0  0  0  0999 V2000
   47.3620   33.9870   42.3760 C   0  0  1  0  0  0  0  0  0  0  0  0
   48.0180   35.3360   41.9990 C   0  0  0  0  0  0  0  0  0  0  0  0
   49.4660   35.1550   42.1600 C   0  0  0  0  0  0  0  0  0  0  0  0
   49.7420   33.7820   42.5930 C   0  0  0  0  0  0  0  0  0  0  0  0
   48.4350   33.0030   42.5650 C   0  0  2  0  0  0  0  0  0  0  0  0
   44.7260   34.8530   44.9030 C   0  0  0  0  0  0  0  0  0  0  0  0
   45.3960   34.8050   43.6860 C   0  0  0  0  0  0  0  0  0  0  0  0
   46.5770   34.1220   43.6160 C   0  0  0  0  0  0  0  0  0  0  0  0
   47.0540   33.5180   44.7290 N   0  0  0  0  0  0  0  0  0  0  0  0
   46.4020   33.5690   45.8980 C   0  0  0  0  0  0  0  0  0  0  0  0
   45.2530   34.2310   45.9710 N   0  0  0  0  0  0  0  0  0  0  0  0
   47.0720   32.8740   46.9330 N   0  0  0  0  0  0  0  0  0  0  0  0
   44.7810   35.5090   42.5510 C   0  0  0  0  0  0  0  0  0  0  0  0
   45.1840   36.8380   42.5450 F   0  0  0  0  0  0  0  0  0  0  0  0
   43.4330   35.5160   42.5660 F   0  0  0  0  0  0  0  0  0  0  0  0
   45.1220   35.0270   41.3550 F   0  0  0  0  0  0  0  0  0  0  0  0
   48.4670   31.8810   41.5780 C   0  0  0  0  0  0  0  0  0  0  0  0
   48.4150   30.5340   41.9820 C   0  0  0  0  0  0  0  0  0  0  0  0
   48.4240   29.5060   41.0890 C   0  0  0  0  0  0  0  0  0  0  0  0
   48.4850   29.8320   39.7170 C   0  0  0  0  0  0  0  0  0  0  0  0
   48.5350   31.1740   39.3580 C   0  0  0  0  0  0  0  0  0  0  0  0
   48.5330   32.1890   40.2710 C   0  0  0  0  0  0  0  0  0  0  0  0
   48.6220   33.2830   39.4800 O   0  0  0  0  0  0  0  0  0  0  0  0
   47.8230   34.0620   38.7260 C   0  0  0  0  0  0  0  0  0  0  0  0
   47.3780   33.6680   37.3540 C   0  0  0  0  0  0  0  0  0  0  0  0
   48.5140   34.6120   37.4560 C   0  0  0  0  0  0  0  0  0  0  0  0
   46.6778   33.6643   41.5774 H   0  0  0  0  0  0  0  0  0  0  0  0
   47.6582   36.1331   42.6662 H   0  0  0  0  0  0  0  0  0  0  0  0
   47.7657   35.6267   40.9686 H   0  0  0  0  0  0  0  0  0  0  0  0
   49.9681   35.3445   41.1998 H   0  0  0  0  0  0  0  0  0  0  0  0
   49.8417   35.8602   42.9160 H   0  0  0  0  0  0  0  0  0  0  0  0
   50.4683   33.3154   41.9113 H   0  0  0  0  0  0  0  0  0  0  0  0
   50.1631   33.7814   43.6092 H   0  0  0  0  0  0  0  0  0  0  0  0
   48.2516   32.4731   43.5114 H   0  0  0  0  0  0  0  0  0  0  0  0
   43.7730   35.3953   44.9909 H   0  0  0  0  0  0  0  0  0  0  0  0
   46.6661   32.8430   47.8792 H   0  0  0  0  0  0  0  0  0  0  0  0
   47.9655   32.3992   46.7401 H   0  0  0  0  0  0  0  0  0  0  0  0
   48.3654   30.3035   43.0564 H   0  0  0  0  0  0  0  0  0  0  0  0
   48.3851   28.4592   41.4248 H   0  0  0  0  0  0  0  0  0  0  0  0
   48.4928   29.0432   38.9504 H   0  0  0  0  0  0  0  0  0  0  0  0
   48.5782   31.4299   38.2891 H   0  0  0  0  0  0  0  0  0  0  0  0
   47.2696   34.4246   39.6048 H   0  0  0  0  0  0  0  0  0  0  0  0
   46.4089   34.0243   36.9747 H   0  0  0  0  0  0  0  0  0  0  0  0
   47.2330   32.7021   36.8480 H   0  0  0  0  0  0  0  0  0  0  0  0
   49.5305   34.2833   37.1940 H   0  0  0  0  0  0  0  0  0  0  0  0
   48.7385   35.6126   37.0580 H   0  0  0  0  0  0  0  0  0  0  0  0
  1  5  1  0
  1  8  1  0
  2  3  1  0
  2  1  1  0
  3  4  1  0
  5  4  1  0
  6 11  2  0
  7  6  1  0
  8  7  2  0
  8  9  1  0
  9 10  2  0
 10 11  1  0
 10 12  1  0
 13 15  1  0
 13  7  1  0
 14 13  1  0
 16 13  1  0
 17 18  2  0
 17  5  1  0
 19 18  1  0
 20 19  2  0
 21 20  1  0
 21 22  2  0
 22 17  1  0
 23 22  1  0
 24 23  1  0
 25 26  1  0
 25 24  1  0
 26 24  1  0
  1 27  1  6
  2 28  1  0
  2 29  1  0
  3 30  1  0
  3 31  1  0
  4 32  1  0
  4 33  1  0
  5 34  1  1
  6 35  1  0
 12 36  1  0
 12 37  1  0
 18 38  1  0
 19 39  1  0
 20 40  1  0
 21 41  1  0
 24 42  1  0
 25 43  1  0
 25 44  1  0
 26 45  1  0
 26 46  1  0
M  ISO  8  27  13  28  13  29  13  30  13  31  13  32  13  33  13  34  13
M  ISO  8  35  14  38  14  39  14  40  14  41  14  42  13  43  13  44  13
M  ISO  2  45  13  46  13
M  END
>  <minimizedAffinity>  (1) 
-6.18396807

>  <minimizedRMSD>  (1) 
1.91721106

$$$$
