
     RDKit          3D

 23 25  0  0  0  0  0  0  0  0999 V2000
   44.8350   35.0080   45.4880 C   0  0  0  0  0  0  0  0  0  0  0  0
   44.4200   36.0520   44.6360 C   0  0  0  0  0  0  0  0  0  0  0  0
   44.9370   36.0640   43.3310 C   0  0  0  0  0  0  0  0  0  0  0  0
   45.8010   35.0800   42.9600 N   0  0  0  0  0  0  0  0  0  0  0  0
   46.1680   34.1000   43.8190 C   0  0  0  0  0  0  0  0  0  0  0  0
   45.6850   34.0760   45.0610 N   0  0  0  0  0  0  0  0  0  0  0  0
   44.3880   34.8740   46.8370 N   0  0  0  0  0  0  0  0  0  0  0  0
   47.0800   33.0780   43.3980 N   0  0  0  0  0  0  0  0  0  0  0  0
   46.8330   31.7590   43.3040 C   0  0  0  0  0  0  0  0  0  0  0  0
   47.9600   31.1630   42.8700 N   0  0  0  0  0  0  0  0  0  0  0  0
   48.9000   32.1110   42.6970 C   0  0  0  0  0  0  0  0  0  0  0  0
   50.2150   32.0580   42.2760 C   0  0  0  0  0  0  0  0  0  0  0  0
   50.9260   33.2140   42.2020 N   0  0  0  0  0  0  0  0  0  0  0  0
   50.3700   34.3940   42.5320 C   0  0  0  0  0  0  0  0  0  0  0  0
   49.0770   34.5020   42.9540 N   0  0  0  0  0  0  0  0  0  0  0  0
   48.3550   33.3550   43.0320 C   0  0  0  0  0  0  0  0  0  0  0  0
   43.7188   36.8265   44.9803 H   0  0  0  0  0  0  0  0  0  0  0  0
   44.6492   36.8539   42.6215 H   0  0  0  0  0  0  0  0  0  0  0  0
   44.7239   34.0907   47.4154 H   0  0  0  0  0  0  0  0  0  0  0  0
   43.7296   35.5606   47.2320 H   0  0  0  0  0  0  0  0  0  0  0  0
   45.8824   31.2579   43.5391 H   0  0  0  0  0  0  0  0  0  0  0  0
   50.6781   31.0976   42.0056 H   0  0  0  0  0  0  0  0  0  0  0  0
   50.9808   35.3059   42.4588 H   0  0  0  0  0  0  0  0  0  0  0  0
  1  7  1  0
  2  1  2  0
  3  2  1  0
  4  3  2  0
  4  5  1  0
  5  6  2  0
  6  1  1  0
  8  5  1  0
  9  8  1  0
 10  9  2  0
 11 10  1  0
 11 16  2  0
 12 11  1  0
 13 12  2  0
 13 14  1  0
 14 15  2  0
 15 16  1  0
 16  8  1  0
  2 17  1  0
  3 18  1  0
  7 19  1  0
  7 20  1  0
  9 21  1  0
 12 22  1  0
 14 23  1  0
M  ISO  5  17  14  18  14  21  14  22  14  23  14
M  END
>  <minimizedAffinity>  (1) 
-5.57996178

>  <minimizedRMSD>  (1) 
4.71767044

$$$$
