
     RDKit          3D

 25 26  0  0  0  0  0  0  0  0999 V2000
   45.1850   35.8540   43.0730 C   0  0  0  0  0  0  0  0  0  0  0  0
   45.3780   35.0720   41.9190 C   0  0  0  0  0  0  0  0  0  0  0  0
   45.6850   33.7050   42.1180 C   0  0  0  0  0  0  0  0  0  0  0  0
   45.7740   33.2340   43.4030 N   0  0  0  0  0  0  0  0  0  0  0  0
   45.5770   34.0360   44.4570 C   0  0  0  0  0  0  0  0  0  0  0  0
   45.2840   35.3460   44.3090 N   0  0  0  0  0  0  0  0  0  0  0  0
   44.8730   37.2350   43.0360 N   0  0  0  0  0  0  0  0  0  0  0  0
   45.7090   33.3790   45.7120 N   0  0  0  0  0  0  0  0  0  0  0  0
   46.4640   32.2880   45.9360 C   0  0  0  0  0  0  0  0  0  0  0  0
   46.4920   31.7620   47.2070 C   0  0  0  0  0  0  0  0  0  0  0  0
   47.3420   30.5520   47.4090 C   0  0  0  0  0  0  0  0  0  0  0  0
   45.7990   32.2700   48.2840 C   0  0  0  0  0  0  0  0  0  0  0  0
   45.8800   31.7250   49.4240 O   0  0  0  0  0  0  0  0  0  0  0  0
   45.0510   33.3710   48.0070 N   0  0  0  0  0  0  0  0  0  0  0  0
   45.0170   33.8940   46.7690 C   0  0  0  0  0  0  0  0  0  0  0  0
   44.3000   34.9140   46.5950 O   0  0  0  0  0  0  0  0  0  0  0  0
   45.2942   35.5028   40.9104 H   0  0  0  0  0  0  0  0  0  0  0  0
   45.8486   33.0350   41.2611 H   0  0  0  0  0  0  0  0  0  0  0  0
   44.7756   37.7169   42.1309 H   0  0  0  0  0  0  0  0  0  0  0  0
   44.7435   37.7574   43.9142 H   0  0  0  0  0  0  0  0  0  0  0  0
   47.0446   31.8279   45.1229 H   0  0  0  0  0  0  0  0  0  0  0  0
   47.4701   30.3696   48.4862 H   0  0  0  0  0  0  0  0  0  0  0  0
   46.8562   29.6810   46.9449 H   0  0  0  0  0  0  0  0  0  0  0  0
   48.3261   30.7136   46.9449 H   0  0  0  0  0  0  0  0  0  0  0  0
   44.5012   33.8118   48.7582 H   0  0  0  0  0  0  0  0  0  0  0  0
  1  6  2  0
  2  3  2  0
  2  1  1  0
  3  4  1  0
  4  5  2  0
  5  8  1  0
  6  5  1  0
  7  1  1  0
  8  9  1  0
  8 15  1  0
  9 10  2  0
 10 11  1  0
 10 12  1  0
 12 13  2  0
 14 12  1  0
 15 14  1  0
 16 15  2  0
  2 17  1  0
  3 18  1  0
  7 19  1  0
  7 20  1  0
  9 21  1  0
 11 22  1  0
 11 23  1  0
 11 24  1  0
 14 25  1  0
M  ISO  7  17  14  18  14  21  14  22   8  23   8  24   8  25   9
M  END
>  <minimizedAffinity>  (1) 
-5.48261261

>  <minimizedRMSD>  (1) 
1.77916265

$$$$
