
     RDKit          3D

 25 27  0  0  0  0  0  0  0  0999 V2000
   44.9460   35.1470   44.0800 C   0  0  0  0  0  0  0  0  0  0  0  0
   45.8650   35.3590   43.0380 C   0  0  0  0  0  0  0  0  0  0  0  0
   47.0310   34.5690   43.0070 C   0  0  0  0  0  0  0  0  0  0  0  0
   47.2080   33.6420   43.9870 N   0  0  0  0  0  0  0  0  0  0  0  0
   46.3010   33.4730   44.9640 C   0  0  0  0  0  0  0  0  0  0  0  0
   45.1890   34.2140   45.0090 N   0  0  0  0  0  0  0  0  0  0  0  0
   43.7380   35.8640   44.2360 N   0  0  0  0  0  0  0  0  0  0  0  0
   46.5080   32.4810   45.9960 N   0  0  0  0  0  0  0  0  0  0  0  0
   47.0530   32.5280   47.2300 C   0  0  0  0  0  0  0  0  0  0  0  0
   46.9880   31.2960   47.7670 N   0  0  0  0  0  0  0  0  0  0  0  0
   46.4040   30.4590   46.8820 C   0  0  0  0  0  0  0  0  0  0  0  0
   46.1000   29.1090   46.9330 C   0  0  0  0  0  0  0  0  0  0  0  0
   45.5000   28.5730   45.8440 N   0  0  0  0  0  0  0  0  0  0  0  0
   45.1980   29.2720   44.7560 C   0  0  0  0  0  0  0  0  0  0  0  0
   45.4860   30.5720   44.6980 N   0  0  0  0  0  0  0  0  0  0  0  0
   46.0910   31.2070   45.7430 C   0  0  0  0  0  0  0  0  0  0  0  0
   46.4080   28.3290   48.0820 N   0  0  0  0  0  0  0  0  0  0  0  0
   45.6788   36.1214   42.2672 H   0  0  0  0  0  0  0  0  0  0  0  0
   47.7791   34.6983   42.2110 H   0  0  0  0  0  0  0  0  0  0  0  0
   43.4836   36.5977   43.5594 H   0  0  0  0  0  0  0  0  0  0  0  0
   43.1121   35.6528   45.0263 H   0  0  0  0  0  0  0  0  0  0  0  0
   47.4774   33.4202   47.7135 H   0  0  0  0  0  0  0  0  0  0  0  0
   44.7102   28.7781   43.9027 H   0  0  0  0  0  0  0  0  0  0  0  0
   46.1742   27.3261   48.1014 H   0  0  0  0  0  0  0  0  0  0  0  0
   46.8648   28.7671   48.8945 H   0  0  0  0  0  0  0  0  0  0  0  0
  1  7  1  0
  1  6  2  0
  2  1  1  0
  3  2  2  0
  3  4  1  0
  4  5  2  0
  5  6  1  0
  5  8  1  0
  8  9  1  0
  9 10  2  0
 11 12  2  0
 11 10  1  0
 12 17  1  0
 13 12  1  0
 14 13  2  0
 15 14  1  0
 15 16  2  0
 16  8  1  0
 16 11  1  0
  2 18  1  0
  3 19  1  0
  7 20  1  0
  7 21  1  0
  9 22  1  0
 14 23  1  0
 17 24  1  0
 17 25  1  0
M  ISO  4  18  14  19  14  22  14  23  14
M  END
>  <minimizedAffinity>  (1) 
-5.36175251

>  <minimizedRMSD>  (1) 
1.31694627

$$$$
