
     RDKit          3D

 19 20  0  0  0  0  0  0  0  0999 V2000
   44.9710   35.0170   44.4910 C   0  0  0  0  0  0  0  0  0  0  0  0
   45.9440   34.8190   43.4940 C   0  0  0  0  0  0  0  0  0  0  0  0
   46.9420   33.8650   43.7450 C   0  0  0  0  0  0  0  0  0  0  0  0
   46.9060   33.1920   44.9370 N   0  0  0  0  0  0  0  0  0  0  0  0
   45.9580   33.4140   45.8580 C   0  0  0  0  0  0  0  0  0  0  0  0
   44.9900   34.3220   45.6440 N   0  0  0  0  0  0  0  0  0  0  0  0
   43.8990   35.9520   44.3750 N   0  0  0  0  0  0  0  0  0  0  0  0
   46.0480   32.6390   47.0460 C   0  0  0  0  0  0  0  0  0  0  0  0
   45.2480   32.5250   48.1200 C   0  0  0  0  0  0  0  0  0  0  0  0
   45.5540   31.6960   49.1630 C   0  0  0  0  0  0  0  0  0  0  0  0
   46.7890   30.9610   49.0220 C   0  0  0  0  0  0  0  0  0  0  0  0
   47.4680   31.5190   47.3440 S   0  0  0  0  0  0  0  0  0  0  0  0
   45.9231   35.3900   42.5541 H   0  0  0  0  0  0  0  0  0  0  0  0
   47.7308   33.6635   43.0053 H   0  0  0  0  0  0  0  0  0  0  0  0
   43.8069   36.5272   43.5255 H   0  0  0  0  0  0  0  0  0  0  0  0
   43.2174   36.0516   45.1408 H   0  0  0  0  0  0  0  0  0  0  0  0
   44.3208   33.1155   48.1609 H   0  0  0  0  0  0  0  0  0  0  0  0
   44.9060   31.5960   50.0462 H   0  0  0  0  0  0  0  0  0  0  0  0
   47.2331   30.2426   49.7267 H   0  0  0  0  0  0  0  0  0  0  0  0
  1  6  2  0
  2  3  2  0
  2  1  1  0
  3  4  1  0
  4  5  2  0
  5  8  1  0
  6  5  1  0
  7  1  1  0
  8 12  1  0
  8  9  2  0
  9 10  1  0
 11 10  2  0
 12 11  1  0
  2 13  1  0
  3 14  1  0
  7 15  1  0
  7 16  1  0
  9 17  1  0
 10 18  1  0
 11 19  1  0
M  ISO  5  13  14  14  14  17  14  18  14  19  14
M  END
>  <minimizedAffinity>  (1) 
-4.7595315

>  <minimizedRMSD>  (1) 
0.349720925

$$$$
