
     RDKit          3D

 15 15  0  0  0  0  0  0  0  0999 V2000
   44.9500   35.0450   44.4020 C   0  0  0  0  0  0  0  0  0  0  0  0
   45.8940   34.9070   43.3810 C   0  0  0  0  0  0  0  0  0  0  0  0
   46.9450   33.9970   43.5860 C   0  0  0  0  0  0  0  0  0  0  0  0
   46.9800   33.3020   44.7670 N   0  0  0  0  0  0  0  0  0  0  0  0
   46.0480   33.4720   45.7130 C   0  0  0  0  0  0  0  0  0  0  0  0
   45.0480   34.3340   45.5250 N   0  0  0  0  0  0  0  0  0  0  0  0
   43.8360   35.9260   44.3290 N   0  0  0  0  0  0  0  0  0  0  0  0
   46.1930   32.6620   46.9510 C   0  0  0  0  0  0  0  0  0  0  0  0
   47.4070   32.8670   47.5670 F   0  0  0  0  0  0  0  0  0  0  0  0
   45.2090   33.0150   47.8610 F   0  0  0  0  0  0  0  0  0  0  0  0
   46.0890   31.3180   46.7190 F   0  0  0  0  0  0  0  0  0  0  0  0
   45.8172   35.4893   42.4509 H   0  0  0  0  0  0  0  0  0  0  0  0
   47.7191   33.8464   42.8191 H   0  0  0  0  0  0  0  0  0  0  0  0
   43.6939   36.5083   43.4914 H   0  0  0  0  0  0  0  0  0  0  0  0
   43.1712   35.9818   45.1138 H   0  0  0  0  0  0  0  0  0  0  0  0
  1  6  2  0
  2  3  2  0
  2  1  1  0
  3  4  1  0
  4  5  2  0
  5  8  1  0
  6  5  1  0
  7  1  1  0
  8  9  1  0
  8 10  1  0
 11  8  1  0
  2 12  1  0
  3 13  1  0
  7 14  1  0
  7 15  1  0
M  ISO  2  12  14  13  14
M  END
>  <minimizedAffinity>  (1) 
-4.32303953

>  <minimizedRMSD>  (1) 
0.233184829

$$$$
