
     RDKit          3D

 24 25  0  0  0  0  0  0  0  0999 V2000
   44.9890   34.9630   44.4940 C   0  0  0  0  0  0  0  0  0  0  0  0
   45.9130   34.7440   43.4530 C   0  0  0  0  0  0  0  0  0  0  0  0
   46.9670   33.8330   43.6940 C   0  0  0  0  0  0  0  0  0  0  0  0
   47.0230   33.2190   44.9220 N   0  0  0  0  0  0  0  0  0  0  0  0
   46.1120   33.4720   45.8660 C   0  0  0  0  0  0  0  0  0  0  0  0
   45.1070   34.3240   45.6740 N   0  0  0  0  0  0  0  0  0  0  0  0
   43.8880   35.8480   44.3900 N   0  0  0  0  0  0  0  0  0  0  0  0
   46.2400   32.7960   47.1110 N   0  0  0  0  0  0  0  0  0  0  0  0
   45.1850   32.4050   48.0270 C   0  0  0  0  0  0  0  0  0  0  0  0
   45.5880   30.9900   48.4630 C   0  0  0  0  0  0  0  0  0  0  0  0
   47.0470   30.8510   48.0110 C   0  0  0  0  0  0  0  0  0  0  0  0
   47.4160   32.3130   47.8110 C   0  0  0  0  0  0  0  0  0  0  0  0
   45.8178   35.2630   42.4878 H   0  0  0  0  0  0  0  0  0  0  0  0
   47.7204   33.6219   42.9208 H   0  0  0  0  0  0  0  0  0  0  0  0
   43.7303   36.3736   43.5184 H   0  0  0  0  0  0  0  0  0  0  0  0
   43.2451   35.9659   45.1860 H   0  0  0  0  0  0  0  0  0  0  0  0
   45.1436   33.0848   48.8908 H   0  0  0  0  0  0  0  0  0  0  0  0
   44.1862   32.4413   47.5675 H   0  0  0  0  0  0  0  0  0  0  0  0
   45.5069   30.8814   49.5546 H   0  0  0  0  0  0  0  0  0  0  0  0
   44.9389   30.2166   48.0265 H   0  0  0  0  0  0  0  0  0  0  0  0
   47.6686   30.3776   48.7853 H   0  0  0  0  0  0  0  0  0  0  0  0
   47.1937   30.2160   47.1249 H   0  0  0  0  0  0  0  0  0  0  0  0
   48.3241   32.4215   47.1999 H   0  0  0  0  0  0  0  0  0  0  0  0
   47.6488   32.8554   48.7392 H   0  0  0  0  0  0  0  0  0  0  0  0
  1  6  2  0
  2  3  2  0
  2  1  1  0
  3  4  1  0
  4  5  2  0
  5  8  1  0
  6  5  1  0
  7  1  1  0
  8 12  1  0
  8  9  1  0
  9 10  1  0
 11 10  1  0
 12 11  1  0
  2 13  1  0
  3 14  1  0
  7 15  1  0
  7 16  1  0
  9 17  1  0
  9 18  1  0
 10 19  1  0
 10 20  1  0
 11 21  1  0
 11 22  1  0
 12 23  1  0
 12 24  1  0
M  ISO  8  13  14  14  14  17  13  18  13  19  13  20  13  21  13  22  13
M  ISO  2  23  13  24  13
M  END
>  <minimizedAffinity>  (1) 
-4.83542109

>  <minimizedRMSD>  (1) 
0.248810217

$$$$
