
     RDKit          3D

 27 28  0  0  1  0  0  0  0  0999 V2000
   45.0330   35.0190   44.5840 C   0  0  0  0  0  0  0  0  0  0  0  0
   45.8610   34.8820   43.4430 C   0  0  0  0  0  0  0  0  0  0  0  0
   46.8350   33.8650   43.4660 C   0  0  0  0  0  0  0  0  0  0  0  0
   46.9320   33.0730   44.5780 N   0  0  0  0  0  0  0  0  0  0  0  0
   46.1150   33.2590   45.6230 C   0  0  0  0  0  0  0  0  0  0  0  0
   45.1750   34.2080   45.6500 N   0  0  0  0  0  0  0  0  0  0  0  0
   44.0240   35.9930   44.6910 N   0  0  0  0  0  0  0  0  0  0  0  0
   46.2750   32.3980   46.7410 N   0  0  0  0  0  0  0  0  0  0  0  0
   45.2460   31.9570   47.6790 C   0  0  0  0  0  0  0  0  0  0  0  0
   45.5840   30.4850   47.9060 C   0  0  0  0  0  0  0  0  0  0  0  0
   46.9680   30.2910   47.3030 C   0  0  0  0  0  0  0  0  0  0  0  0
   47.4530   31.7270   47.2620 C   0  0  2  0  0  0  0  0  0  0  0  0
   47.7980   32.2310   48.6240 C   0  0  0  0  0  0  0  0  0  0  0  0
   45.7476   35.5446   42.5723 H   0  0  0  0  0  0  0  0  0  0  0  0
   47.5046   33.7103   42.6071 H   0  0  0  0  0  0  0  0  0  0  0  0
   43.8571   36.6491   43.9147 H   0  0  0  0  0  0  0  0  0  0  0  0
   43.4520   36.0502   45.5456 H   0  0  0  0  0  0  0  0  0  0  0  0
   45.3019   32.5237   48.6201 H   0  0  0  0  0  0  0  0  0  0  0  0
   44.2246   32.1104   47.3005 H   0  0  0  0  0  0  0  0  0  0  0  0
   45.5969   30.2544   48.9815 H   0  0  0  0  0  0  0  0  0  0  0  0
   44.8398   29.8185   47.4456 H   0  0  0  0  0  0  0  0  0  0  0  0
   47.6062   29.6646   47.9435 H   0  0  0  0  0  0  0  0  0  0  0  0
   46.9774   29.7752   46.3314 H   0  0  0  0  0  0  0  0  0  0  0  0
   48.3686   31.8770   46.6711 H   0  0  0  0  0  0  0  0  0  0  0  0
   47.3482   31.5739   49.3829 H   0  0  0  0  0  0  0  0  0  0  0  0
   48.8911   32.2379   48.7464 H   0  0  0  0  0  0  0  0  0  0  0  0
   47.4089   33.2526   48.7464 H   0  0  0  0  0  0  0  0  0  0  0  0
  1  7  1  0
  1  6  2  0
  2  3  2  0
  2  1  1  0
  3  4  1  0
  4  5  2  0
  5  6  1  0
  5  8  1  0
  8 12  1  0
  8  9  1  0
  9 10  1  0
 11 10  1  0
 12 11  1  0
 12 13  1  0
  2 14  1  0
  3 15  1  0
  7 16  1  0
  7 17  1  0
  9 18  1  0
  9 19  1  0
 10 20  1  0
 10 21  1  0
 11 22  1  0
 11 23  1  0
 12 24  1  6
 13 25  1  0
 13 26  1  0
 13 27  1  0
M  ISO  8  14  14  15  14  18  13  19  13  20  13  21  13  22  13  23  13
M  ISO  4  24  13  25   8  26   8  27   8
M  END
>  <minimizedAffinity>  (1) 
-4.63362169

>  <minimizedRMSD>  (1) 
0.558341205

$$$$
