
     RDKit          3D

 28 29  0  0  1  0  0  0  0  0999 V2000
   45.1890   34.5940   45.3870 C   0  0  0  0  0  0  0  0  0  0  0  0
   44.5460   35.7060   44.8310 C   0  0  0  0  0  0  0  0  0  0  0  0
   44.9060   36.0840   43.5360 C   0  0  0  0  0  0  0  0  0  0  0  0
   45.8680   35.3530   42.8700 N   0  0  0  0  0  0  0  0  0  0  0  0
   46.4430   34.2990   43.4600 C   0  0  0  0  0  0  0  0  0  0  0  0
   46.1190   33.9230   44.6840 N   0  0  0  0  0  0  0  0  0  0  0  0
   47.4280   33.5820   42.7190 N   0  0  0  0  0  0  0  0  0  0  0  0
   47.7670   32.1850   42.8240 C   0  0  0  0  0  0  0  0  0  0  0  0
   47.9070   31.7470   41.3560 C   0  0  0  0  0  0  0  0  0  0  0  0
   47.9800   33.0490   40.5740 C   0  0  0  0  0  0  0  0  0  0  0  0
   48.3360   34.0470   41.6870 C   0  0  2  0  0  0  0  0  0  0  0  0
   49.7530   33.9410   42.0580 C   0  0  0  0  0  0  0  0  0  0  0  0
   50.0750   34.7700   42.8950 O   0  0  0  0  0  0  0  0  0  0  0  0
   50.7880   33.0410   41.6100 N   0  0  0  0  0  0  0  0  0  0  0  0
   44.9060   34.1040   46.6870 N   0  0  0  0  0  0  0  0  0  0  0  0
   43.7833   36.2630   45.3949 H   0  0  0  0  0  0  0  0  0  0  0  0
   44.4301   36.9509   43.0544 H   0  0  0  0  0  0  0  0  0  0  0  0
   48.7130   32.0483   43.3685 H   0  0  0  0  0  0  0  0  0  0  0  0
   47.0195   31.5999   43.3797 H   0  0  0  0  0  0  0  0  0  0  0  0
   48.8234   31.1557   41.2126 H   0  0  0  0  0  0  0  0  0  0  0  0
   47.0724   31.1095   41.0289 H   0  0  0  0  0  0  0  0  0  0  0  0
   48.7618   33.0116   39.8011 H   0  0  0  0  0  0  0  0  0  0  0  0
   47.0606   33.2966   40.0231 H   0  0  0  0  0  0  0  0  0  0  0  0
   48.2260   35.1137   41.4418 H   0  0  0  0  0  0  0  0  0  0  0  0
   51.7411   33.1213   41.9921 H   0  0  0  0  0  0  0  0  0  0  0  0
   50.5737   32.3183   40.9081 H   0  0  0  0  0  0  0  0  0  0  0  0
   45.4091   33.2809   47.0479 H   0  0  0  0  0  0  0  0  0  0  0  0
   44.1973   34.5711   47.2705 H   0  0  0  0  0  0  0  0  0  0  0  0
  1 15  1  0
  2  1  2  0
  3  2  1  0
  4  5  1  0
  4  3  2  0
  5  6  2  0
  6  1  1  0
  7  8  1  0
  7  5  1  0
  9  8  1  0
 10  9  1  0
 10 11  1  0
 11 12  1  0
 11  7  1  0
 12 13  2  0
 14 12  1  0
  2 16  1  0
  3 17  1  0
  8 18  1  0
  8 19  1  0
  9 20  1  0
  9 21  1  0
 10 22  1  0
 10 23  1  0
 11 24  1  6
 14 25  1  0
 14 26  1  0
 15 27  1  0
 15 28  1  0
M  ISO  8  16  14  17  14  18  13  19  13  20  13  21  13  22  13  23  13
M  ISO  1  24  13
M  END
>  <minimizedAffinity>  (1) 
-4.9530983

>  <minimizedRMSD>  (1) 
0.898192286

$$$$
