
     RDKit          3D

 41 43  0  0  0  0  0  0  0  0999 V2000
   45.3265   34.2007   45.6736 C   0  0  0  0  0  0  0  0  0  0  0  0
   44.5566   35.3556   45.5237 C   0  0  0  0  0  0  0  0  0  0  0  0
   44.6818   36.0871   44.3309 C   0  0  0  0  0  0  0  0  0  0  0  0
   45.5533   35.6297   43.3752 N   0  0  0  0  0  0  0  0  0  0  0  0
   46.2651   34.5179   43.5720 C   0  0  0  0  0  0  0  0  0  0  0  0
   46.1762   33.7956   44.6877 N   0  0  0  0  0  0  0  0  0  0  0  0
   45.2980   33.3735   46.8195 N   0  0  0  0  0  0  0  0  0  0  0  0
   47.1388   34.1166   42.5387 N   0  0  0  0  0  0  0  0  0  0  0  0
   47.5547   32.7670   42.1913 C   0  0  0  0  0  0  0  0  0  0  0  0
   47.4886   32.7234   40.6685 C   0  0  0  0  0  0  0  0  0  0  0  0
   47.3766   34.1814   40.2574 C   0  0  0  0  0  0  0  0  0  0  0  0
   47.8664   34.8580   41.5445 C   0  0  2  0  0  0  0  0  0  0  0  0
   49.3026   34.8680   41.6339 C   0  0  0  0  0  0  0  0  0  0  0  0
   49.7379   35.3816   42.6522 O   0  0  0  0  0  0  0  0  0  0  0  0
   43.9016   35.6390   46.3217 H   0  0  0  0  0  0  0  0  0  0  0  0
   44.0926   36.9844   44.1986 H   0  0  0  0  0  0  0  0  0  0  0  0
   44.6260   32.6399   47.1404 H   0  0  0  0  0  0  0  0  0  0  0  0
   45.9728   33.3237   47.6152 H   0  0  0  0  0  0  0  0  0  0  0  0
   46.8800   31.9942   42.5924 H   0  0  0  0  0  0  0  0  0  0  0  0
   48.6044   32.6578   42.5586 H   0  0  0  0  0  0  0  0  0  0  0  0
   48.4787   32.3262   40.3250 H   0  0  0  0  0  0  0  0  0  0  0  0
   46.6405   32.1200   40.2980 H   0  0  0  0  0  0  0  0  0  0  0  0
   48.0559   34.3622   39.4154 H   0  0  0  0  0  0  0  0  0  0  0  0
   46.3255   34.4242   40.0481 H   0  0  0  0  0  0  0  0  0  0  0  0
   47.5237   35.9363   41.5477 H   0  0  0  0  0  0  0  0  0  0  0  0
   50.7147   34.8779   41.7221 N   0  0  0  0  0  0  0  0  0  0  0  0
   51.4867   36.0616   41.5029 C   0  0  0  0  0  0  0  0  0  0  0  0
   52.9366   35.7243   41.7708 C   0  0  0  0  0  0  0  0  0  0  0  0
   53.2677   34.3277   41.2817 C   0  0  0  0  0  0  0  0  0  0  0  0
   54.3500   34.1875   41.5047 H   0  0  0  0  0  0  0  0  0  0  0  0
   52.5246   33.3442   42.1592 C   0  0  0  0  0  0  0  0  0  0  0  0
   51.0375   33.5065   42.0541 C   0  0  0  0  0  0  0  0  0  0  0  0
   51.3809   36.4950   40.4829 H   0  0  0  0  0  0  0  0  0  0  0  0
   51.2504   36.8986   42.2163 H   0  0  0  0  0  0  0  0  0  0  0  0
   53.5347   36.4821   41.1964 H   0  0  0  0  0  0  0  0  0  0  0  0
   53.1724   35.8610   42.8332 H   0  0  0  0  0  0  0  0  0  0  0  0
   53.0360   34.2504   40.2168 H   0  0  0  0  0  0  0  0  0  0  0  0
   52.8000   32.3130   41.9449 H   0  0  0  0  0  0  0  0  0  0  0  0
   52.8776   33.5584   43.2028 H   0  0  0  0  0  0  0  0  0  0  0  0
   50.6013   33.1870   43.0310 H   0  0  0  0  0  0  0  0  0  0  0  0
   50.6901   32.7700   41.3023 H   0  0  0  0  0  0  0  0  0  0  0  0
  1  7  1  0
  2  1  2  0
  3  2  1  0
  4  5  1  0
  4  3  2  0
  5  6  2  0
  6  1  1  0
  8  5  1  0
  9  8  1  0
 10  9  1  0
 11 10  1  0
 11 12  1  0
 12 13  1  0
 12  8  1  0
 13 14  2  0
  2 15  1  0
  3 16  1  0
  7 17  1  0
  7 18  1  0
  9 19  1  0
  9 20  1  0
 10 21  1  0
 10 22  1  0
 11 23  1  0
 11 24  1  0
 12 25  1  6
 26 27  1  0
 27 28  1  0
 28 29  1  0
 29 30  1  0
 29 31  1  0
 31 32  1  0
 32 26  1  0
 27 33  1  0
 27 34  1  0
 28 35  1  0
 28 36  1  0
 29 37  1  0
 31 38  1  0
 31 39  1  0
 32 40  1  0
 32 41  1  0
 13 26  1  0
M  END
>  <DihAtoms>  (1) 
11,12,25,26

>  <DihDeg>  (1) 
-0.03478680238555719

$$$$
