
     RDKit          3D

 53 57  0  0  1  0  0  0  0  0999 V2000
   47.8460   31.6340   43.3260 C   0  0  0  0  0  0  0  0  0  0  0  0
   46.8320   31.0400   42.9800 O   0  0  0  0  0  0  0  0  0  0  0  0
   44.0120   34.9790   40.7880 C   0  0  0  0  0  0  0  0  0  0  0  0
   43.6630   35.8480   41.8080 C   0  0  0  0  0  0  0  0  0  0  0  0
   44.5200   35.9430   42.9340 C   0  0  0  0  0  0  0  0  0  0  0  0
   45.6480   35.1630   42.9430 N   0  0  0  0  0  0  0  0  0  0  0  0
   45.9380   34.3350   41.9250 C   0  0  0  0  0  0  0  0  0  0  0  0
   45.1450   34.2540   40.8950 N   0  0  0  0  0  0  0  0  0  0  0  0
   47.1340   33.5820   42.0230 N   0  0  0  0  0  0  0  0  0  0  0  0
   47.9790   33.1270   40.9480 C   0  0  0  0  0  0  0  0  0  0  0  0
   49.3820   33.3710   41.4540 C   0  0  0  0  0  0  0  0  0  0  0  0
   49.2060   33.6320   42.8790 C   0  0  0  0  0  0  0  0  0  0  0  0
   47.8560   33.0770   43.2040 C   0  0  2  0  0  0  0  0  0  0  0  0
   43.2510   34.8040   39.6350 N   0  0  0  0  0  0  0  0  0  0  0  0
   48.7340   30.5990   43.7560 C   0  0  2  0  0  0  0  0  0  0  0  0
   49.3480   29.8900   42.6030 C   0  0  0  0  0  0  0  0  0  0  0  0
   50.0240   28.7920   43.3980 C   0  0  0  0  0  0  0  0  0  0  0  0
   48.9680   28.3260   44.3370 C   0  0  0  0  0  0  0  0  0  0  0  0
   48.0310   29.5340   44.5190 C   0  0  1  0  0  0  0  0  0  0  0  0
   48.1090   29.8620   45.9920 C   0  0  0  0  0  0  0  0  0  0  0  0
   49.1210   29.4150   46.8500 C   0  0  0  0  0  0  0  0  0  0  0  0
   48.9500   29.8700   48.1000 N   0  0  0  0  0  0  0  0  0  0  0  0
   47.8510   30.6160   48.1210 C   0  0  0  0  0  0  0  0  0  0  0  0
   47.1690   31.3380   49.0850 C   0  0  0  0  0  0  0  0  0  0  0  0
   46.0250   32.0400   48.8360 C   0  0  0  0  0  0  0  0  0  0  0  0
   45.5350   32.0150   47.5380 C   0  0  0  0  0  0  0  0  0  0  0  0
   46.1840   31.3130   46.5650 C   0  0  0  0  0  0  0  0  0  0  0  0
   47.3360   30.6150   46.8460 C   0  0  0  0  0  0  0  0  0  0  0  0
   42.7441   36.4496   41.7465 H   0  0  0  0  0  0  0  0  0  0  0  0
   44.2881   36.6185   43.7706 H   0  0  0  0  0  0  0  0  0  0  0  0
   47.7888   33.7037   40.0308 H   0  0  0  0  0  0  0  0  0  0  0  0
   47.8011   32.0731   40.6881 H   0  0  0  0  0  0  0  0  0  0  0  0
   50.0143   32.4851   41.2944 H   0  0  0  0  0  0  0  0  0  0  0  0
   49.8811   34.2003   40.9314 H   0  0  0  0  0  0  0  0  0  0  0  0
   49.9856   33.1237   43.4654 H   0  0  0  0  0  0  0  0  0  0  0  0
   49.2837   34.7029   43.1181 H   0  0  0  0  0  0  0  0  0  0  0  0
   47.4338   33.3709   44.1763 H   0  0  0  0  0  0  0  0  0  0  0  0
   42.3780   35.3357   39.5085 H   0  0  0  0  0  0  0  0  0  0  0  0
   43.5612   34.1429   38.9086 H   0  0  0  0  0  0  0  0  0  0  0  0
   49.4824   31.1152   44.3753 H   0  0  0  0  0  0  0  0  0  0  0  0
   50.0676   30.5184   42.0577 H   0  0  0  0  0  0  0  0  0  0  0  0
   48.6648   29.5685   41.8030 H   0  0  0  0  0  0  0  0  0  0  0  0
   50.3488   27.9743   42.7377 H   0  0  0  0  0  0  0  0  0  0  0  0
   50.9288   29.1407   43.9173 H   0  0  0  0  0  0  0  0  0  0  0  0
   48.4201   27.4733   43.9095 H   0  0  0  0  0  0  0  0  0  0  0  0
   49.3893   27.9836   45.2937 H   0  0  0  0  0  0  0  0  0  0  0  0
   46.9865   29.3969   44.2024 H   0  0  0  0  0  0  0  0  0  0  0  0
   49.9548   28.7693   46.5370 H   0  0  0  0  0  0  0  0  0  0  0  0
   49.5639   29.6750   48.9037 H   0  0  0  0  0  0  0  0  0  0  0  0
   47.5712   31.3466   50.1088 H   0  0  0  0  0  0  0  0  0  0  0  0
   45.5130   32.6020   49.6310 H   0  0  0  0  0  0  0  0  0  0  0  0
   44.6154   32.5660   47.2916 H   0  0  0  0  0  0  0  0  0  0  0  0
   45.7808   31.3048   45.5416 H   0  0  0  0  0  0  0  0  0  0  0  0
  1 15  1  0
  2  1  2  0
  3  8  2  0
  3  4  1  0
  4  5  2  0
  5  6  1  0
  7  9  1  0
  7  6  2  0
  8  7  1  0
  9 13  1  0
 10 11  1  0
 10  9  1  0
 11 12  1  0
 12 13  1  0
 13  1  1  0
 14  3  1  0
 15 19  1  0
 16 17  1  0
 16 15  1  0
 17 18  1  0
 18 19  1  0
 19 20  1  0
 20 28  1  0
 20 21  2  0
 21 22  1  0
 22 23  1  0
 23 24  2  0
 25 24  1  0
 26 25  2  0
 27 28  2  0
 27 26  1  0
 28 23  1  0
  4 29  1  0
  5 30  1  0
 10 31  1  0
 10 32  1  0
 11 33  1  0
 11 34  1  0
 12 35  1  0
 12 36  1  0
 13 37  1  1
 14 38  1  0
 14 39  1  0
 15 40  1  1
 16 41  1  0
 16 42  1  0
 17 43  1  0
 17 44  1  0
 18 45  1  0
 18 46  1  0
 19 47  1  6
 21 48  1  0
 22 49  1  0
 24 50  1  0
 25 51  1  0
 26 52  1  0
 27 53  1  0
M  ISO  8  29  14  30  14  31  13  32  13  33  13  34  13  35  13  36  13
M  ISO  8  37  13  40  13  41  13  42  13  43  13  44  13  45  13  46  13
M  ISO  7  47  13  48  14  49   9  50  14  51  14  52  14  53  14
M  END
>  <minimizedAffinity>  (1) 
-5.80583429

>  <minimizedRMSD>  (1) 
5.10166693

$$$$
