
     RDKit          3D

 46 49  0  0  1  0  0  0  0  0999 V2000
   45.4770   34.1730   45.4610 C   0  0  0  0  0  0  0  0  0  0  0  0
   44.6760   35.3030   45.4370 C   0  0  0  0  0  0  0  0  0  0  0  0
   44.3380   35.8450   44.1850 C   0  0  0  0  0  0  0  0  0  0  0  0
   44.8200   35.2240   43.0610 N   0  0  0  0  0  0  0  0  0  0  0  0
   45.5970   34.1270   43.1400 C   0  0  0  0  0  0  0  0  0  0  0  0
   45.9080   33.6280   44.3020 N   0  0  0  0  0  0  0  0  0  0  0  0
   46.0360   33.5530   41.9210 N   0  0  0  0  0  0  0  0  0  0  0  0
   46.3220   32.1670   41.6540 C   0  0  0  0  0  0  0  0  0  0  0  0
   45.7300   31.9220   40.2860 C   0  0  0  0  0  0  0  0  0  0  0  0
   45.4500   33.2650   39.7750 C   0  0  0  0  0  0  0  0  0  0  0  0
   46.2990   34.1680   40.6100 C   0  0  2  0  0  0  0  0  0  0  0  0
   45.8860   33.5360   46.6400 N   0  0  0  0  0  0  0  0  0  0  0  0
   47.6970   34.1570   40.2250 C   0  0  0  0  0  0  0  0  0  0  0  0
   48.5150   34.5510   41.0490 O   0  0  0  0  0  0  0  0  0  0  0  0
   48.4840   33.7880   39.0840 C   0  0  2  0  0  0  0  0  0  0  0  0
   47.8400   34.2150   37.8180 C   0  0  0  0  0  0  0  0  0  0  0  0
   48.7990   33.5220   36.8800 C   0  0  0  0  0  0  0  0  0  0  0  0
   48.9730   32.1600   37.4710 C   0  0  0  0  0  0  0  0  0  0  0  0
   48.6260   32.3140   38.9610 C   0  0  1  0  0  0  0  0  0  0  0  0
   49.8090   31.8790   39.7350 C   0  0  0  0  0  0  0  0  0  0  0  0
   49.9650   31.7080   41.1050 C   0  0  0  0  0  0  0  0  0  0  0  0
   51.1850   31.2890   41.5670 C   0  0  0  0  0  0  0  0  0  0  0  0
   52.2050   31.0490   40.7080 C   0  0  0  0  0  0  0  0  0  0  0  0
   51.3870   31.4520   39.0280 S   0  0  0  0  0  0  0  0  0  0  0  0
   44.3155   35.7621   46.3693 H   0  0  0  0  0  0  0  0  0  0  0  0
   43.7051   36.7415   44.1088 H   0  0  0  0  0  0  0  0  0  0  0  0
   47.4072   31.9871   41.6472 H   0  0  0  0  0  0  0  0  0  0  0  0
   45.9047   31.4962   42.4194 H   0  0  0  0  0  0  0  0  0  0  0  0
   46.4480   31.3988   39.6374 H   0  0  0  0  0  0  0  0  0  0  0  0
   44.8326   31.2869   40.3208 H   0  0  0  0  0  0  0  0  0  0  0  0
   45.7273   33.3426   38.7134 H   0  0  0  0  0  0  0  0  0  0  0  0
   44.3820   33.5212   39.8356 H   0  0  0  0  0  0  0  0  0  0  0  0
   46.0723   35.2422   40.5406 H   0  0  0  0  0  0  0  0  0  0  0  0
   46.4826   32.6977   46.5922 H   0  0  0  0  0  0  0  0  0  0  0  0
   45.5901   33.9060   47.5546 H   0  0  0  0  0  0  0  0  0  0  0  0
   49.4567   34.2778   39.2384 H   0  0  0  0  0  0  0  0  0  0  0  0
   46.8110   33.8383   37.7215 H   0  0  0  0  0  0  0  0  0  0  0  0
   47.7069   35.2974   37.6743 H   0  0  0  0  0  0  0  0  0  0  0  0
   49.7601   34.0556   36.8409 H   0  0  0  0  0  0  0  0  0  0  0  0
   48.4249   33.4872   35.8461 H   0  0  0  0  0  0  0  0  0  0  0  0
   48.2928   31.4419   36.9897 H   0  0  0  0  0  0  0  0  0  0  0  0
   49.9946   31.7787   37.3262 H   0  0  0  0  0  0  0  0  0  0  0  0
   47.7468   31.7489   39.3042 H   0  0  0  0  0  0  0  0  0  0  0  0
   49.1336   31.9032   41.7983 H   0  0  0  0  0  0  0  0  0  0  0  0
   51.3380   31.1459   42.6469 H   0  0  0  0  0  0  0  0  0  0  0  0
   53.2303   30.7121   40.9207 H   0  0  0  0  0  0  0  0  0  0  0  0
  1 12  1  0
  2  1  2  0
  3  2  1  0
  4  5  1  0
  4  3  2  0
  5  6  2  0
  6  1  1  0
  7  5  1  0
  8  7  1  0
  9  8  1  0
 10  9  1  0
 10 11  1  0
 11  7  1  0
 13 11  1  0
 13 14  2  0
 15 13  1  0
 16 15  1  0
 17 18  1  0
 17 16  1  0
 18 19  1  0
 19 15  1  0
 19 20  1  0
 20 21  2  0
 21 22  1  0
 23 22  2  0
 24 20  1  0
 24 23  1  0
  2 25  1  0
  3 26  1  0
  8 27  1  0
  8 28  1  0
  9 29  1  0
  9 30  1  0
 10 31  1  0
 10 32  1  0
 11 33  1  1
 12 34  1  0
 12 35  1  0
 15 36  1  1
 16 37  1  0
 16 38  1  0
 17 39  1  0
 17 40  1  0
 18 41  1  0
 18 42  1  0
 19 43  1  1
 21 44  1  0
 22 45  1  0
 23 46  1  0
M  ISO  8  25  14  26  14  27  13  28  13  29  13  30  13  31  13  32  13
M  ISO  8  33  13  36  13  37  13  38  13  39  13  40  13  41  13  42  13
M  ISO  4  43  13  44  14  45  14  46  14
M  END
>  <minimizedAffinity>  (1) 
-5.48564911

>  <minimizedRMSD>  (1) 
3.29645085

$$$$
