
     RDKit          3D

 42 44  0  0  1  0  0  0  0  0999 V2000
   47.8350   34.6440   41.3490 C   0  0  2  0  0  0  0  0  0  0  0  0
   48.7320   35.6770   41.7300 C   0  0  0  0  0  0  0  0  0  0  0  0
   50.0090   35.0020   42.2740 C   0  0  0  0  0  0  0  0  0  0  0  0
   49.8240   33.5030   42.1400 C   0  0  0  0  0  0  0  0  0  0  0  0
   48.3610   33.3780   42.1060 C   0  0  1  0  0  0  0  0  0  0  0  0
   47.7070   34.2040   39.9400 C   0  0  0  0  0  0  0  0  0  0  0  0
   48.4850   34.8360   38.9870 C   0  0  0  0  0  0  0  0  0  0  0  0
   48.4100   34.4620   37.6610 C   0  0  0  0  0  0  0  0  0  0  0  0
   47.5340   33.4490   37.3740 N   0  0  0  0  0  0  0  0  0  0  0  0
   46.7960   32.8570   38.3170 C   0  0  0  0  0  0  0  0  0  0  0  0
   46.8670   33.2190   39.6020 N   0  0  0  0  0  0  0  0  0  0  0  0
   47.8030   33.3620   43.4930 C   0  0  0  0  0  0  0  0  0  0  0  0
   46.3760   32.9100   43.4860 C   0  0  0  0  0  0  0  0  0  0  0  0
   45.6110   33.9480   44.2560 C   0  0  0  0  0  0  0  0  0  0  0  0
   44.9810   35.0750   43.8050 C   0  0  0  0  0  0  0  0  0  0  0  0
   44.4250   35.7000   44.8840 N   0  0  0  0  0  0  0  0  0  0  0  0
   44.7070   34.9740   45.9620 C   0  0  0  0  0  0  0  0  0  0  0  0
   45.4150   33.9220   45.6110 N   0  0  0  0  0  0  0  0  0  0  0  0
   45.9390   32.8590   46.4820 C   0  0  0  0  0  0  0  0  0  0  0  0
   45.1620   32.8070   47.7910 C   0  0  0  0  0  0  0  0  0  0  0  0
   46.8453   35.0686   41.5729 H   0  0  0  0  0  0  0  0  0  0  0  0
   48.9787   36.3011   40.8584 H   0  0  0  0  0  0  0  0  0  0  0  0
   48.2778   36.3230   42.4958 H   0  0  0  0  0  0  0  0  0  0  0  0
   50.8831   35.3263   41.6903 H   0  0  0  0  0  0  0  0  0  0  0  0
   50.1764   35.2795   43.3252 H   0  0  0  0  0  0  0  0  0  0  0  0
   50.2791   33.1254   41.2125 H   0  0  0  0  0  0  0  0  0  0  0  0
   50.3002   32.9236   42.9447 H   0  0  0  0  0  0  0  0  0  0  0  0
   48.0572   32.4437   41.6113 H   0  0  0  0  0  0  0  0  0  0  0  0
   49.1689   35.6431   39.2885 H   0  0  0  0  0  0  0  0  0  0  0  0
   49.0165   34.9476   36.8823 H   0  0  0  0  0  0  0  0  0  0  0  0
   46.1095   32.0477   38.0277 H   0  0  0  0  0  0  0  0  0  0  0  0
   48.3964   32.6736   44.1127 H   0  0  0  0  0  0  0  0  0  0  0  0
   47.8482   34.3816   43.9033 H   0  0  0  0  0  0  0  0  0  0  0  0
   46.0004   32.8451   42.4542 H   0  0  0  0  0  0  0  0  0  0  0  0
   46.2665   31.9120   43.9354 H   0  0  0  0  0  0  0  0  0  0  0  0
   44.9312   35.4165   42.7606 H   0  0  0  0  0  0  0  0  0  0  0  0
   44.3962   35.2158   46.9891 H   0  0  0  0  0  0  0  0  0  0  0  0
   45.8457   31.8912   45.9675 H   0  0  0  0  0  0  0  0  0  0  0  0
   46.9951   33.0713   46.7046 H   0  0  0  0  0  0  0  0  0  0  0  0
   45.8643   32.8540   48.6364 H   0  0  0  0  0  0  0  0  0  0  0  0
   44.4703   33.6609   47.8410 H   0  0  0  0  0  0  0  0  0  0  0  0
   44.5903   31.8686   47.8410 H   0  0  0  0  0  0  0  0  0  0  0  0
  1  2  1  0
  1  5  1  0
  2  3  1  0
  4  3  1  0
  5  4  1  0
  5 12  1  0
  6  1  1  0
  7  6  2  0
  8  7  1  0
  9  8  2  0
  9 10  1  0
 10 11  2  0
 11  6  1  0
 13 12  1  0
 13 14  1  0
 14 18  1  0
 15 14  2  0
 15 16  1  0
 16 17  2  0
 18 17  1  0
 18 19  1  0
 19 20  1  0
  1 21  1  1
  2 22  1  0
  2 23  1  0
  3 24  1  0
  3 25  1  0
  4 26  1  0
  4 27  1  0
  5 28  1  6
  7 29  1  0
  8 30  1  0
 10 31  1  0
 12 32  1  0
 12 33  1  0
 13 34  1  0
 13 35  1  0
 15 36  1  0
 17 37  1  0
 19 38  1  0
 19 39  1  0
 20 40  1  0
 20 41  1  0
 20 42  1  0
M  ISO  8  21  13  22  13  23  13  24  13  25  13  26  13  27  13  28  13
M  ISO  8  29  14  30  14  31  14  32   8  33   8  34   8  35   8  36  14
M  ISO  6  37  14  38   8  39   8  40   8  41   8  42   8
M  END
>  <minimizedAffinity>  (1) 
-5.48604774

>  <minimizedRMSD>  (1) 
0.843149304

$$$$
