
     RDKit          3D

 47 50  0  0  1  0  0  0  0  0999 V2000
   45.2450   34.1360   45.5680 C   0  0  0  0  0  0  0  0  0  0  0  0
   44.6290   35.3890   45.5310 C   0  0  0  0  0  0  0  0  0  0  0  0
   44.4690   36.0110   44.2890 C   0  0  0  0  0  0  0  0  0  0  0  0
   44.9260   35.3560   43.1740 N   0  0  0  0  0  0  0  0  0  0  0  0
   45.5150   34.1470   43.2610 C   0  0  0  0  0  0  0  0  0  0  0  0
   45.6620   33.5720   44.4180 N   0  0  0  0  0  0  0  0  0  0  0  0
   45.9410   33.5440   42.0530 N   0  0  0  0  0  0  0  0  0  0  0  0
   46.0340   32.1360   41.7540 C   0  0  0  0  0  0  0  0  0  0  0  0
   45.4920   32.0240   40.3470 C   0  0  0  0  0  0  0  0  0  0  0  0
   45.4550   33.4060   39.8680 C   0  0  0  0  0  0  0  0  0  0  0  0
   46.3800   34.1450   40.7820 C   0  0  2  0  0  0  0  0  0  0  0  0
   45.4570   33.4160   46.7420 N   0  0  0  0  0  0  0  0  0  0  0  0
   47.7820   33.9250   40.4790 C   0  0  0  0  0  0  0  0  0  0  0  0
   48.5830   34.0190   41.4030 O   0  0  0  0  0  0  0  0  0  0  0  0
   48.5820   33.5950   39.3380 C   0  0  2  0  0  0  0  0  0  0  0  0
   48.0710   34.2440   38.1080 C   0  0  0  0  0  0  0  0  0  0  0  0
   48.9980   33.5590   37.1350 C   0  0  0  0  0  0  0  0  0  0  0  0
   48.9700   32.1300   37.5600 C   0  0  0  0  0  0  0  0  0  0  0  0
   48.5490   32.1390   39.0400 C   0  0  1  0  0  0  0  0  0  0  0  0
   49.6210   31.4690   39.8270 C   0  0  0  0  0  0  0  0  0  0  0  0
   49.2960   30.5120   40.7840 C   0  0  0  0  0  0  0  0  0  0  0  0
   50.3220   29.9210   41.4850 C   0  0  0  0  0  0  0  0  0  0  0  0
   51.6210   30.2600   41.2530 N   0  0  0  0  0  0  0  0  0  0  0  0
   51.9190   31.1810   40.3290 C   0  0  0  0  0  0  0  0  0  0  0  0
   50.9320   31.7680   39.6360 N   0  0  0  0  0  0  0  0  0  0  0  0
   44.2790   35.8736   46.4544 H   0  0  0  0  0  0  0  0  0  0  0  0
   43.9900   36.9980   44.2084 H   0  0  0  0  0  0  0  0  0  0  0  0
   47.0789   31.7950   41.7988 H   0  0  0  0  0  0  0  0  0  0  0  0
   45.4799   31.5134   42.4718 H   0  0  0  0  0  0  0  0  0  0  0  0
   46.1564   31.4111   39.7202 H   0  0  0  0  0  0  0  0  0  0  0  0
   44.5056   31.5384   40.3119 H   0  0  0  0  0  0  0  0  0  0  0  0
   45.8066   33.4662   38.8275 H   0  0  0  0  0  0  0  0  0  0  0  0
   44.4375   33.8239   39.8759 H   0  0  0  0  0  0  0  0  0  0  0  0
   46.3283   35.2429   40.7371 H   0  0  0  0  0  0  0  0  0  0  0  0
   45.9174   32.4954   46.7055 H   0  0  0  0  0  0  0  0  0  0  0  0
   45.1533   33.8044   47.6463 H   0  0  0  0  0  0  0  0  0  0  0  0
   49.5961   33.9357   39.5942 H   0  0  0  0  0  0  0  0  0  0  0  0
   47.0135   34.0090   37.9172 H   0  0  0  0  0  0  0  0  0  0  0  0
   48.0729   35.3439   38.0964 H   0  0  0  0  0  0  0  0  0  0  0  0
   50.0159   33.9695   37.2087 H   0  0  0  0  0  0  0  0  0  0  0  0
   48.6913   33.6966   36.0876 H   0  0  0  0  0  0  0  0  0  0  0  0
   48.2420   31.5660   36.9584 H   0  0  0  0  0  0  0  0  0  0  0  0
   49.9489   31.6479   37.4213 H   0  0  0  0  0  0  0  0  0  0  0  0
   47.5910   31.6451   39.2596 H   0  0  0  0  0  0  0  0  0  0  0  0
   48.2484   30.2359   40.9746 H   0  0  0  0  0  0  0  0  0  0  0  0
   50.0893   29.1616   42.2460 H   0  0  0  0  0  0  0  0  0  0  0  0
   52.9672   31.4550   40.1389 H   0  0  0  0  0  0  0  0  0  0  0  0
  1 12  1  0
  2  1  2  0
  3  2  1  0
  4  5  1  0
  4  3  2  0
  5  6  2  0
  6  1  1  0
  7  5  1  0
  8  7  1  0
  9  8  1  0
 10  9  1  0
 10 11  1  0
 11  7  1  0
 13 11  1  0
 13 14  2  0
 15 13  1  0
 16 15  1  0
 17 18  1  0
 17 16  1  0
 18 19  1  0
 19 15  1  0
 19 20  1  0
 20 21  2  0
 21 22  1  0
 23 22  2  0
 24 23  1  0
 25 20  1  0
 25 24  2  0
  2 26  1  0
  3 27  1  0
  8 28  1  0
  8 29  1  0
  9 30  1  0
  9 31  1  0
 10 32  1  0
 10 33  1  0
 11 34  1  1
 12 35  1  0
 12 36  1  0
 15 37  1  1
 16 38  1  0
 16 39  1  0
 17 40  1  0
 17 41  1  0
 18 42  1  0
 18 43  1  0
 19 44  1  6
 21 45  1  0
 22 46  1  0
 24 47  1  0
M  ISO  8  26  14  27  14  28  13  29  13  30  13  31  13  32  13  33  13
M  ISO  8  34  13  37  13  38  13  39  13  40  13  41  13  42  13  43  13
M  ISO  4  44  13  45  14  46  14  47  14
M  END
>  <minimizedAffinity>  (1) 
-5.40108967

>  <minimizedRMSD>  (1) 
3.34173679

$$$$
