
     RDKit          3D

 46 49  0  0  1  0  0  0  0  0999 V2000
   45.1070   34.1770   45.7590 C   0  0  0  0  0  0  0  0  0  0  0  0
   44.5790   35.4600   45.7280 C   0  0  0  0  0  0  0  0  0  0  0  0
   44.5060   36.1130   44.4870 C   0  0  0  0  0  0  0  0  0  0  0  0
   44.9630   35.4430   43.3800 N   0  0  0  0  0  0  0  0  0  0  0  0
   45.4660   34.2000   43.4640 C   0  0  0  0  0  0  0  0  0  0  0  0
   45.5310   33.5980   44.6150 N   0  0  0  0  0  0  0  0  0  0  0  0
   45.8990   33.5930   42.2600 N   0  0  0  0  0  0  0  0  0  0  0  0
   45.9110   32.1840   41.9350 C   0  0  0  0  0  0  0  0  0  0  0  0
   45.4230   32.1410   40.5070 C   0  0  0  0  0  0  0  0  0  0  0  0
   45.5030   33.5290   40.0490 C   0  0  0  0  0  0  0  0  0  0  0  0
   46.4300   34.1860   41.0190 C   0  0  2  0  0  0  0  0  0  0  0  0
   45.2370   33.4180   46.9310 N   0  0  0  0  0  0  0  0  0  0  0  0
   47.8280   33.8800   40.7730 C   0  0  0  0  0  0  0  0  0  0  0  0
   48.3080   34.2420   39.7040 O   0  0  0  0  0  0  0  0  0  0  0  0
   48.9130   33.2370   41.4570 C   0  0  2  0  0  0  0  0  0  0  0  0
   49.8760   34.2230   42.0010 C   0  0  0  0  0  0  0  0  0  0  0  0
   50.9230   33.2400   42.4580 C   0  0  0  0  0  0  0  0  0  0  0  0
   51.0400   32.2860   41.3190 C   0  0  0  0  0  0  0  0  0  0  0  0
   49.7310   32.4020   40.5240 C   0  0  1  0  0  0  0  0  0  0  0  0
   49.0490   31.0870   40.3980 C   0  0  0  0  0  0  0  0  0  0  0  0
   48.4780   30.4630   39.2890 C   0  0  0  0  0  0  0  0  0  0  0  0
   48.0000   29.2700   39.7740 C   0  0  0  0  0  0  0  0  0  0  0  0
   48.2750   29.1980   41.0850 N   0  0  0  0  0  0  0  0  0  0  0  0
   48.9070   30.2850   41.4810 N   0  0  0  0  0  0  0  0  0  0  0  0
   44.2282   35.9507   46.6479 H   0  0  0  0  0  0  0  0  0  0  0  0
   44.0952   37.1301   44.4047 H   0  0  0  0  0  0  0  0  0  0  0  0
   46.9278   31.7719   42.0145 H   0  0  0  0  0  0  0  0  0  0  0  0
   45.2889   31.5845   42.6159 H   0  0  0  0  0  0  0  0  0  0  0  0
   46.0674   31.4923   39.8955 H   0  0  0  0  0  0  0  0  0  0  0  0
   44.4050   31.7322   40.4256 H   0  0  0  0  0  0  0  0  0  0  0  0
   45.9083   33.5794   39.0276 H   0  0  0  0  0  0  0  0  0  0  0  0
   44.5177   34.0169   40.0135 H   0  0  0  0  0  0  0  0  0  0  0  0
   46.4487   35.2856   40.9949 H   0  0  0  0  0  0  0  0  0  0  0  0
   45.6374   32.4700   46.8888 H   0  0  0  0  0  0  0  0  0  0  0  0
   44.9320   33.8086   47.8340 H   0  0  0  0  0  0  0  0  0  0  0  0
   48.4378   32.6382   42.2479 H   0  0  0  0  0  0  0  0  0  0  0  0
   50.2541   34.9095   41.2291 H   0  0  0  0  0  0  0  0  0  0  0  0
   49.4888   34.9143   42.7640 H   0  0  0  0  0  0  0  0  0  0  0  0
   51.8813   33.7470   42.6439 H   0  0  0  0  0  0  0  0  0  0  0  0
   50.6551   32.7430   43.4020 H   0  0  0  0  0  0  0  0  0  0  0  0
   51.8967   32.5546   40.6835 H   0  0  0  0  0  0  0  0  0  0  0  0
   51.2028   31.2576   41.6737 H   0  0  0  0  0  0  0  0  0  0  0  0
   49.8789   32.7894   39.5051 H   0  0  0  0  0  0  0  0  0  0  0  0
   48.4228   30.8413   38.2576 H   0  0  0  0  0  0  0  0  0  0  0  0
   47.4783   28.5013   39.1851 H   0  0  0  0  0  0  0  0  0  0  0  0
   48.0276   28.4061   41.6954 H   0  0  0  0  0  0  0  0  0  0  0  0
  1 12  1  0
  2  1  2  0
  3  2  1  0
  4  5  1  0
  4  3  2  0
  5  6  2  0
  6  1  1  0
  7  5  1  0
  8  7  1  0
  9  8  1  0
 10  9  1  0
 10 11  1  0
 11  7  1  0
 13 11  1  0
 13 15  1  0
 14 13  2  0
 15 16  1  0
 16 17  1  0
 18 17  1  0
 19 18  1  0
 19 15  1  0
 20 19  1  0
 20 24  2  0
 21 22  2  0
 21 20  1  0
 22 23  1  0
 23 24  1  0
  2 25  1  0
  3 26  1  0
  8 27  1  0
  8 28  1  0
  9 29  1  0
  9 30  1  0
 10 31  1  0
 10 32  1  0
 11 33  1  1
 12 34  1  0
 12 35  1  0
 15 36  1  1
 16 37  1  0
 16 38  1  0
 17 39  1  0
 17 40  1  0
 18 41  1  0
 18 42  1  0
 19 43  1  6
 21 44  1  0
 22 45  1  0
 23 46  1  0
M  ISO  8  25  14  26  14  27  13  28  13  29  13  30  13  31  13  32  13
M  ISO  8  33  13  36  13  37  13  38  13  39  13  40  13  41  13  42  13
M  ISO  4  43  13  44  14  45  14  46   9
M  END
>  <minimizedAffinity>  (1) 
-5.32668591

>  <minimizedRMSD>  (1) 
3.44681501

$$$$
