
     RDKit          3D

 46 49  0  0  1  0  0  0  0  0999 V2000
   45.2470   34.1380   45.5730 C   0  0  0  0  0  0  0  0  0  0  0  0
   44.6250   35.3760   45.5450 C   0  0  0  0  0  0  0  0  0  0  0  0
   44.4530   36.0130   44.2930 C   0  0  0  0  0  0  0  0  0  0  0  0
   44.9170   35.3610   43.1780 N   0  0  0  0  0  0  0  0  0  0  0  0
   45.5150   34.1570   43.2630 C   0  0  0  0  0  0  0  0  0  0  0  0
   45.6690   33.5770   44.4180 N   0  0  0  0  0  0  0  0  0  0  0  0
   45.9430   33.5610   42.0520 N   0  0  0  0  0  0  0  0  0  0  0  0
   46.0440   32.1560   41.7510 C   0  0  0  0  0  0  0  0  0  0  0  0
   45.5090   32.0380   40.3450 C   0  0  0  0  0  0  0  0  0  0  0  0
   45.4640   33.4200   39.8630 C   0  0  0  0  0  0  0  0  0  0  0  0
   46.3770   34.1660   40.7820 C   0  0  2  0  0  0  0  0  0  0  0  0
   45.4660   33.4150   46.7430 N   0  0  0  0  0  0  0  0  0  0  0  0
   47.7810   33.9600   40.4780 C   0  0  0  0  0  0  0  0  0  0  0  0
   48.5840   34.0890   41.3950 O   0  0  0  0  0  0  0  0  0  0  0  0
   48.5830   33.6160   39.3410 C   0  0  2  0  0  0  0  0  0  0  0  0
   48.0740   34.2370   38.0990 C   0  0  0  0  0  0  0  0  0  0  0  0
   48.9940   33.5260   37.1350 C   0  0  0  0  0  0  0  0  0  0  0  0
   48.9670   32.1000   37.5920 C   0  0  0  0  0  0  0  0  0  0  0  0
   48.5470   32.1490   39.0700 C   0  0  1  0  0  0  0  0  0  0  0  0
   49.6210   31.5300   39.8290 N   0  0  0  0  0  0  0  0  0  0  0  0
   50.8850   31.7210   39.4830 N   0  0  0  0  0  0  0  0  0  0  0  0
   51.7010   31.0620   40.3130 C   0  0  0  0  0  0  0  0  0  0  0  0
   50.8420   30.4430   41.2060 C   0  0  0  0  0  0  0  0  0  0  0  0
   49.5370   30.7340   40.9050 C   0  0  0  0  0  0  0  0  0  0  0  0
   44.2738   35.8516   46.4726 H   0  0  0  0  0  0  0  0  0  0  0  0
   43.9648   36.9957   44.2163 H   0  0  0  0  0  0  0  0  0  0  0  0
   47.0907   31.8211   41.7993 H   0  0  0  0  0  0  0  0  0  0  0  0
   45.4889   31.5314   42.4663 H   0  0  0  0  0  0  0  0  0  0  0  0
   46.1800   31.4287   39.7217 H   0  0  0  0  0  0  0  0  0  0  0  0
   44.5262   31.5454   40.3071 H   0  0  0  0  0  0  0  0  0  0  0  0
   45.8219   33.4816   38.8247 H   0  0  0  0  0  0  0  0  0  0  0  0
   44.4434   33.8303   39.8630 H   0  0  0  0  0  0  0  0  0  0  0  0
   46.3124   35.2634   40.7419 H   0  0  0  0  0  0  0  0  0  0  0  0
   45.9342   32.4985   46.7020 H   0  0  0  0  0  0  0  0  0  0  0  0
   45.1598   33.7968   47.6493 H   0  0  0  0  0  0  0  0  0  0  0  0
   49.5949   33.9684   39.5898 H   0  0  0  0  0  0  0  0  0  0  0  0
   47.0146   34.0033   37.9171 H   0  0  0  0  0  0  0  0  0  0  0  0
   48.0838   35.3364   38.0629 H   0  0  0  0  0  0  0  0  0  0  0  0
   50.0132   33.9358   37.1930 H   0  0  0  0  0  0  0  0  0  0  0  0
   48.6791   33.6405   36.0873 H   0  0  0  0  0  0  0  0  0  0  0  0
   48.2385   31.5220   37.0045 H   0  0  0  0  0  0  0  0  0  0  0  0
   49.9440   31.6117   37.4619 H   0  0  0  0  0  0  0  0  0  0  0  0
   47.5892   31.6634   39.3082 H   0  0  0  0  0  0  0  0  0  0  0  0
   52.8000   31.0211   40.2914 H   0  0  0  0  0  0  0  0  0  0  0  0
   51.1633   29.8050   42.0425 H   0  0  0  0  0  0  0  0  0  0  0  0
   48.6300   30.3933   41.4258 H   0  0  0  0  0  0  0  0  0  0  0  0
  1 12  1  0
  2  1  2  0
  3  2  1  0
  4  5  1  0
  4  3  2  0
  5  6  2  0
  6  1  1  0
  7  5  1  0
  8  7  1  0
  9  8  1  0
 10  9  1  0
 10 11  1  0
 11  7  1  0
 13 11  1  0
 13 14  2  0
 15 13  1  0
 16 15  1  0
 17 18  1  0
 17 16  1  0
 18 19  1  0
 19 15  1  0
 19 20  1  0
 20 24  1  0
 21 20  1  0
 21 22  2  0
 22 23  1  0
 24 23  2  0
  2 25  1  0
  3 26  1  0
  8 27  1  0
  8 28  1  0
  9 29  1  0
  9 30  1  0
 10 31  1  0
 10 32  1  0
 11 33  1  1
 12 34  1  0
 12 35  1  0
 15 36  1  1
 16 37  1  0
 16 38  1  0
 17 39  1  0
 17 40  1  0
 18 41  1  0
 18 42  1  0
 19 43  1  6
 22 44  1  0
 23 45  1  0
 24 46  1  0
M  ISO  8  25  14  26  14  27  13  28  13  29  13  30  13  31  13  32  13
M  ISO  8  33  13  36  13  37  13  38  13  39  13  40  13  41  13  42  13
M  ISO  4  43  13  44  14  45  14  46  14
M  END
>  <minimizedAffinity>  (1) 
-5.32157755

>  <minimizedRMSD>  (1) 
3.23566675

$$$$
