
     RDKit          3D

 49 52  0  0  1  0  0  0  0  0999 V2000
   48.5840   32.8770   41.1790 C   0  0  0  0  0  0  0  0  0  0  0  0
   49.3390   33.5530   41.8680 O   0  0  0  0  0  0  0  0  0  0  0  0
   45.0600   34.5780   45.3030 C   0  0  0  0  0  0  0  0  0  0  0  0
   44.6810   35.8410   44.8600 C   0  0  0  0  0  0  0  0  0  0  0  0
   44.9000   36.1610   43.5110 C   0  0  0  0  0  0  0  0  0  0  0  0
   45.4740   35.2060   42.7100 N   0  0  0  0  0  0  0  0  0  0  0  0
   45.8220   34.0010   43.1850 C   0  0  0  0  0  0  0  0  0  0  0  0
   45.6200   33.7060   44.4360 N   0  0  0  0  0  0  0  0  0  0  0  0
   46.3980   33.0850   42.2690 N   0  0  0  0  0  0  0  0  0  0  0  0
   46.3100   31.6470   42.2890 C   0  0  0  0  0  0  0  0  0  0  0  0
   46.0930   31.2710   40.8430 C   0  0  0  0  0  0  0  0  0  0  0  0
   46.4070   32.4930   40.1040 C   0  0  0  0  0  0  0  0  0  0  0  0
   47.2100   33.3150   41.0610 C   0  0  2  0  0  0  0  0  0  0  0  0
   44.9010   34.1320   46.6220 N   0  0  0  0  0  0  0  0  0  0  0  0
   49.4080   31.7990   40.7050 C   0  0  2  0  0  0  0  0  0  0  0  0
   50.4040   31.3870   41.7240 C   0  0  0  0  0  0  0  0  0  0  0  0
   51.2180   30.4580   40.8530 C   0  0  0  0  0  0  0  0  0  0  0  0
   51.3750   31.2000   39.5620 C   0  0  0  0  0  0  0  0  0  0  0  0
   50.2350   32.2250   39.5340 C   0  0  1  0  0  0  0  0  0  0  0  0
   49.4510   32.0390   38.2860 C   0  0  0  0  0  0  0  0  0  0  0  0
   49.1440   32.9990   37.3450 C   0  0  0  0  0  0  0  0  0  0  0  0
   48.4080   32.7000   36.2190 C   0  0  0  0  0  0  0  0  0  0  0  0
   47.9400   31.4230   35.9750 C   0  0  0  0  0  0  0  0  0  0  0  0
   48.2080   30.4210   36.8670 C   0  0  0  0  0  0  0  0  0  0  0  0
   48.9480   30.7710   37.9780 C   0  0  0  0  0  0  0  0  0  0  0  0
   44.2230   36.5679   45.5469 H   0  0  0  0  0  0  0  0  0  0  0  0
   44.6204   37.1459   43.1087 H   0  0  0  0  0  0  0  0  0  0  0  0
   47.2412   31.2041   42.6721 H   0  0  0  0  0  0  0  0  0  0  0  0
   45.5059   31.2824   42.9452 H   0  0  0  0  0  0  0  0  0  0  0  0
   46.7658   30.4525   40.5475 H   0  0  0  0  0  0  0  0  0  0  0  0
   45.0713   30.9122   40.6496 H   0  0  0  0  0  0  0  0  0  0  0  0
   46.9938   32.2621   39.2027 H   0  0  0  0  0  0  0  0  0  0  0  0
   45.5031   33.0169   39.7597 H   0  0  0  0  0  0  0  0  0  0  0  0
   47.3549   34.3705   40.7874 H   0  0  0  0  0  0  0  0  0  0  0  0
   45.2034   33.1831   46.8848 H   0  0  0  0  0  0  0  0  0  0  0  0
   44.4817   34.7531   47.3287 H   0  0  0  0  0  0  0  0  0  0  0  0
   48.7096   30.9870   40.4543 H   0  0  0  0  0  0  0  0  0  0  0  0
   50.9962   32.2361   42.0959 H   0  0  0  0  0  0  0  0  0  0  0  0
   49.9985   30.9519   42.6493 H   0  0  0  0  0  0  0  0  0  0  0  0
   52.1990   30.2573   41.3084 H   0  0  0  0  0  0  0  0  0  0  0  0
   50.7347   29.4791   40.7179 H   0  0  0  0  0  0  0  0  0  0  0  0
   52.3497   31.7088   39.5277 H   0  0  0  0  0  0  0  0  0  0  0  0
   51.3348   30.5229   38.6960 H   0  0  0  0  0  0  0  0  0  0  0  0
   50.5631   33.2743   39.5718 H   0  0  0  0  0  0  0  0  0  0  0  0
   49.4957   34.0301   37.4971 H   0  0  0  0  0  0  0  0  0  0  0  0
   48.1873   33.4987   35.4956 H   0  0  0  0  0  0  0  0  0  0  0  0
   47.3546   31.2131   35.0677 H   0  0  0  0  0  0  0  0  0  0  0  0
   47.8529   29.3922   36.7073 H   0  0  0  0  0  0  0  0  0  0  0  0
   49.1652   29.9677   38.6974 H   0  0  0  0  0  0  0  0  0  0  0  0
  1  2  2  0
  3 14  1  0
  4  3  2  0
  5  4  1  0
  6  7  1  0
  6  5  2  0
  7  8  2  0
  8  3  1  0
  9 10  1  0
  9  7  1  0
 11 10  1  0
 12 11  1  0
 12 13  1  0
 13  1  1  0
 13  9  1  0
 15  1  1  0
 15 16  1  0
 17 16  1  0
 18 17  1  0
 19 18  1  0
 19 15  1  0
 20 19  1  0
 21 20  2  0
 22 21  1  0
 23 22  2  0
 23 24  1  0
 24 25  2  0
 25 20  1  0
  4 26  1  0
  5 27  1  0
 10 28  1  0
 10 29  1  0
 11 30  1  0
 11 31  1  0
 12 32  1  0
 12 33  1  0
 13 34  1  6
 14 35  1  0
 14 36  1  0
 15 37  1  6
 16 38  1  0
 16 39  1  0
 17 40  1  0
 17 41  1  0
 18 42  1  0
 18 43  1  0
 19 44  1  1
 21 45  1  0
 22 46  1  0
 23 47  1  0
 24 48  1  0
 25 49  1  0
M  ISO  8  26  14  27  14  28  13  29  13  30  13  31  13  32  13  33  13
M  ISO  8  34  13  37  13  38  13  39  13  40  13  41  13  42  13  43  13
M  ISO  6  44  13  45  14  46  14  47  14  48  14  49  14
M  END
>  <minimizedAffinity>  (1) 
-4.83216095

>  <minimizedRMSD>  (1) 
4.55140114

$$$$
