
     RDKit          3D

 29 30  0  0  0  0  0  0  0  0999 V2000
   45.6880   33.6060   41.4330 C   0  0  0  0  0  0  0  0  0  0  0  0
   45.3790   34.4070   42.6630 C   0  0  0  0  0  0  0  0  0  0  0  0
   45.4390   33.6790   43.8600 C   0  0  0  0  0  0  0  0  0  0  0  0
   45.1560   34.3820   45.0570 C   0  0  0  0  0  0  0  0  0  0  0  0
   44.8490   35.6990   44.9800 N   0  0  0  0  0  0  0  0  0  0  0  0
   44.8010   36.3680   43.7920 C   0  0  0  0  0  0  0  0  0  0  0  0
   45.0660   35.7220   42.6500 N   0  0  0  0  0  0  0  0  0  0  0  0
   44.5050   33.4860   40.5380 C   0  0  0  0  0  0  0  0  0  0  0  0
   46.0970   32.1800   41.8160 C   0  0  0  0  0  0  0  0  0  0  0  0
   46.8290   34.2560   40.7340 C   0  0  0  0  0  0  0  0  0  0  0  0
   48.1090   34.1950   41.3650 C   0  0  0  0  0  0  0  0  0  0  0  0
   48.8360   35.0750   42.2270 C   0  0  0  0  0  0  0  0  0  0  0  0
   50.0600   34.7250   42.6600 C   0  0  0  0  0  0  0  0  0  0  0  0
   50.6540   33.4590   42.2600 C   0  0  0  0  0  0  0  0  0  0  0  0
   49.2610   32.7750   41.1650 S   0  0  0  0  0  0  0  0  0  0  0  0
   45.6946   32.6091   43.8692 H   0  0  0  0  0  0  0  0  0  0  0  0
   45.1850   33.8686   46.0294 H   0  0  0  0  0  0  0  0  0  0  0  0
   44.5447   37.4375   43.7726 H   0  0  0  0  0  0  0  0  0  0  0  0
   43.5930   33.3935   41.1461 H   0  0  0  0  0  0  0  0  0  0  0  0
   44.4331   34.3815   39.9032 H   0  0  0  0  0  0  0  0  0  0  0  0
   44.6144   32.5943   39.9032 H   0  0  0  0  0  0  0  0  0  0  0  0
   46.1234   32.0879   42.9118 H   0  0  0  0  0  0  0  0  0  0  0  0
   45.3673   31.4665   41.4056 H   0  0  0  0  0  0  0  0  0  0  0  0
   47.0940   31.9617   41.4056 H   0  0  0  0  0  0  0  0  0  0  0  0
   46.5750   35.3186   40.6058 H   0  0  0  0  0  0  0  0  0  0  0  0
   46.9485   33.6854   39.8012 H   0  0  0  0  0  0  0  0  0  0  0  0
   48.3953   36.0348   42.5346 H   0  0  0  0  0  0  0  0  0  0  0  0
   50.6175   35.4028   43.3232 H   0  0  0  0  0  0  0  0  0  0  0  0
   51.6303   33.0227   42.5178 H   0  0  0  0  0  0  0  0  0  0  0  0
  1  9  1  0
  1  2  1  0
  2  3  2  0
  3  4  1  0
  5  4  2  0
  6  5  1  0
  7  2  1  0
  7  6  2  0
  8  1  1  0
 10 11  1  0
 10  1  1  0
 11 12  2  0
 12 13  1  0
 14 13  2  0
 15 11  1  0
 15 14  1  0
  3 16  1  0
  4 17  1  0
  6 18  1  0
  8 19  1  0
  8 20  1  0
  8 21  1  0
  9 22  1  0
  9 23  1  0
  9 24  1  0
 10 25  1  0
 10 26  1  0
 12 27  1  0
 13 28  1  0
 14 29  1  0
M  ISO  8  16  14  17  14  18  14  19   8  20   8  21   8  22   8  23   8
M  ISO  6  24   8  25   8  26   8  27  14  28  14  29  14
M  END
>  <minimizedAffinity>  (1) 
-4.22929239

>  <minimizedRMSD>  (1) 
2.99091291

$$$$
