
     RDKit          3D

 38 39  0  0  0  0  0  0  0  0999 V2000
   45.9270   34.5080   42.6280 C   0  0  0  0  0  0  0  0  0  0  0  0
   47.4170   34.5850   42.5000 C   0  0  0  0  0  0  0  0  0  0  0  0
   48.0840   33.4400   42.9460 C   0  0  0  0  0  0  0  0  0  0  0  0
   49.5020   33.4560   42.8490 C   0  0  0  0  0  0  0  0  0  0  0  0
   50.1120   34.5640   42.3370 N   0  0  0  0  0  0  0  0  0  0  0  0
   49.4090   35.6520   41.9180 C   0  0  0  0  0  0  0  0  0  0  0  0
   48.0770   35.6600   41.9990 N   0  0  0  0  0  0  0  0  0  0  0  0
   45.3330   35.8200   43.0210 C   0  0  0  0  0  0  0  0  0  0  0  0
   45.5170   33.5020   43.7050 C   0  0  0  0  0  0  0  0  0  0  0  0
   45.3760   34.0550   41.3330 C   0  0  0  0  0  0  0  0  0  0  0  0
   43.9470   33.9030   41.2420 C   0  0  0  0  0  0  0  0  0  0  0  0
   43.0180   32.8710   41.5130 C   0  0  0  0  0  0  0  0  0  0  0  0
   41.7090   33.0410   41.3150 C   0  0  0  0  0  0  0  0  0  0  0  0
   41.2300   34.2850   40.8210 C   0  0  0  0  0  0  0  0  0  0  0  0
   42.8320   35.2380   40.6490 S   0  0  0  0  0  0  0  0  0  0  0  0
   40.0300   34.8840   40.4820 C   0  0  0  0  0  0  0  0  0  0  0  0
   40.1450   36.3900   40.6120 C   0  0  0  0  0  0  0  0  0  0  0  0
   39.6130   34.6130   39.0310 C   0  0  0  0  0  0  0  0  0  0  0  0
   47.5405   32.5733   43.3503 H   0  0  0  0  0  0  0  0  0  0  0  0
   50.0963   32.5917   43.1804 H   0  0  0  0  0  0  0  0  0  0  0  0
   49.9398   36.5258   41.5121 H   0  0  0  0  0  0  0  0  0  0  0  0
   45.2997   35.8935   44.1180 H   0  0  0  0  0  0  0  0  0  0  0  0
   45.9490   36.6370   42.6173 H   0  0  0  0  0  0  0  0  0  0  0  0
   44.3126   35.8962   42.6173 H   0  0  0  0  0  0  0  0  0  0  0  0
   45.6943   33.9370   44.6996 H   0  0  0  0  0  0  0  0  0  0  0  0
   44.4492   33.2618   43.5949 H   0  0  0  0  0  0  0  0  0  0  0  0
   46.1127   32.5838   43.5949 H   0  0  0  0  0  0  0  0  0  0  0  0
   45.6800   34.7868   40.5701 H   0  0  0  0  0  0  0  0  0  0  0  0
   45.7781   33.0407   41.1935 H   0  0  0  0  0  0  0  0  0  0  0  0
   43.3828   31.9064   41.8957 H   0  0  0  0  0  0  0  0  0  0  0  0
   41.0055   32.2239   41.5326 H   0  0  0  0  0  0  0  0  0  0  0  0
   39.2826   34.4568   41.1668 H   0  0  0  0  0  0  0  0  0  0  0  0
   40.1660   36.6656   41.6767 H   0  0  0  0  0  0  0  0  0  0  0  0
   41.0717   36.7302   40.1268 H   0  0  0  0  0  0  0  0  0  0  0  0
   39.2807   36.8670   40.1268 H   0  0  0  0  0  0  0  0  0  0  0  0
   38.6907   34.0136   39.0204 H   0  0  0  0  0  0  0  0  0  0  0  0
   39.4352   35.5686   38.5160 H   0  0  0  0  0  0  0  0  0  0  0  0
   40.4140   34.0624   38.5160 H   0  0  0  0  0  0  0  0  0  0  0  0
  1  8  1  0
  1  9  1  0
  2  1  1  0
  2  3  2  0
  4  3  1  0
  5  4  2  0
  6  7  2  0
  6  5  1  0
  7  2  1  0
 10  1  1  0
 11 10  1  0
 11 12  2  0
 13 12  1  0
 14 13  2  0
 15 14  1  0
 15 11  1  0
 16 17  1  0
 16 14  1  0
 18 16  1  0
  3 19  1  0
  4 20  1  0
  6 21  1  0
  8 22  1  0
  8 23  1  0
  8 24  1  0
  9 25  1  0
  9 26  1  0
  9 27  1  0
 10 28  1  0
 10 29  1  0
 12 30  1  0
 13 31  1  0
 16 32  1  0
 17 33  1  0
 17 34  1  0
 17 35  1  0
 18 36  1  0
 18 37  1  0
 18 38  1  0
M  ISO  8  19  14  20  14  21  14  22   8  23   8  24   8  25   8  26   8
M  ISO  8  27   8  28   8  29   8  30  14  31  14  32   8  33   8  34   8
M  ISO  4  35   8  36   8  37   8  38   8
M  END
>  <minimizedAffinity>  (1) 
-4.98530483

>  <minimizedRMSD>  (1) 
7.10527754

$$$$
