
     RDKit          3D

 30 31  0  0  0  0  0  0  0  0999 V2000
   45.2760   33.5090   41.5450 C   0  0  0  0  0  0  0  0  0  0  0  0
   45.1120   34.2270   42.8430 C   0  0  0  0  0  0  0  0  0  0  0  0
   45.4530   33.4790   43.9670 C   0  0  0  0  0  0  0  0  0  0  0  0
   45.3240   34.0940   45.2320 C   0  0  0  0  0  0  0  0  0  0  0  0
   44.8740   35.3800   45.2850 N   0  0  0  0  0  0  0  0  0  0  0  0
   44.5490   36.0780   44.1470 C   0  0  0  0  0  0  0  0  0  0  0  0
   44.6740   35.4920   42.9590 N   0  0  0  0  0  0  0  0  0  0  0  0
   43.9850   33.4120   40.7950 C   0  0  0  0  0  0  0  0  0  0  0  0
   45.7410   32.0630   41.7800 C   0  0  0  0  0  0  0  0  0  0  0  0
   46.3070   34.2040   40.7460 C   0  0  0  0  0  0  0  0  0  0  0  0
   47.6060   34.3650   41.3340 C   0  0  0  0  0  0  0  0  0  0  0  0
   48.3110   35.4240   41.9510 C   0  0  0  0  0  0  0  0  0  0  0  0
   49.5510   35.2620   42.4150 C   0  0  0  0  0  0  0  0  0  0  0  0
   50.1830   33.9830   42.2830 C   0  0  0  0  0  0  0  0  0  0  0  0
   48.8200   32.9910   41.4140 S   0  0  0  0  0  0  0  0  0  0  0  0
   51.3330   33.5030   42.6130 O   0  0  0  0  0  0  0  0  0  0  0  0
   45.8111   32.4432   43.8728 H   0  0  0  0  0  0  0  0  0  0  0  0
   45.5804   33.5486   46.1522 H   0  0  0  0  0  0  0  0  0  0  0  0
   44.1878   37.1146   44.2176 H   0  0  0  0  0  0  0  0  0  0  0  0
   43.1502   33.3493   41.5086 H   0  0  0  0  0  0  0  0  0  0  0  0
   43.8605   34.3033   40.1625 H   0  0  0  0  0  0  0  0  0  0  0  0
   43.9951   32.5121   40.1625 H   0  0  0  0  0  0  0  0  0  0  0  0
   45.8034   31.8690   42.8610 H   0  0  0  0  0  0  0  0  0  0  0  0
   45.0212   31.3676   41.3236 H   0  0  0  0  0  0  0  0  0  0  0  0
   46.7312   31.9175   41.3236 H   0  0  0  0  0  0  0  0  0  0  0  0
   45.9231   35.2088   40.5157 H   0  0  0  0  0  0  0  0  0  0  0  0
   46.4730   33.5518   39.8759 H   0  0  0  0  0  0  0  0  0  0  0  0
   47.8249   36.4057   42.0508 H   0  0  0  0  0  0  0  0  0  0  0  0
   50.0812   36.0991   42.8926 H   0  0  0  0  0  0  0  0  0  0  0  0
   51.5513   32.5585   42.4122 H   0  0  0  0  0  0  0  0  0  0  0  0
  1  9  1  0
  1  2  1  0
  2  7  1  0
  2  3  2  0
  3  4  1  0
  4  5  2  0
  6  5  1  0
  7  6  2  0
  8  1  1  0
 10 11  1  0
 10  1  1  0
 11 15  1  0
 11 12  2  0
 12 13  1  0
 14 13  2  0
 14 16  1  0
 15 14  1  0
  3 17  1  0
  4 18  1  0
  6 19  1  0
  8 20  1  0
  8 21  1  0
  8 22  1  0
  9 23  1  0
  9 24  1  0
  9 25  1  0
 10 26  1  0
 10 27  1  0
 12 28  1  0
 13 29  1  0
 16 30  1  0
M  ISO  8  17  14  18  14  19  14  20   8  21   8  22   8  23   8  24   8
M  ISO  6  25   8  26   8  27   8  28  14  29  14  30   3
M  END
>  <minimizedAffinity>  (1) 
-4.96763611

>  <minimizedRMSD>  (1) 
0.547581077

$$$$
