
     RDKit          3D

 41 42  0  0  0  0  0  0  0  0999 V2000
   46.2350   34.0400   41.8720 C   0  0  0  0  0  0  0  0  0  0  0  0
   45.6690   34.5660   43.1510 C   0  0  0  0  0  0  0  0  0  0  0  0
   45.8220   33.7220   44.2540 C   0  0  0  0  0  0  0  0  0  0  0  0
   45.3030   34.1820   45.4870 C   0  0  0  0  0  0  0  0  0  0  0  0
   44.6970   35.3900   45.5370 N   0  0  0  0  0  0  0  0  0  0  0  0
   44.5700   36.1780   44.4430 C   0  0  0  0  0  0  0  0  0  0  0  0
   45.0540   35.7590   43.2730 N   0  0  0  0  0  0  0  0  0  0  0  0
   45.2860   34.1930   40.7380 C   0  0  0  0  0  0  0  0  0  0  0  0
   46.5430   32.5360   41.9980 C   0  0  0  0  0  0  0  0  0  0  0  0
   47.5110   34.7410   41.6050 C   0  0  0  0  0  0  0  0  0  0  0  0
   48.7280   33.9870   41.6990 C   0  0  0  0  0  0  0  0  0  0  0  0
   49.8790   34.0570   42.5220 C   0  0  0  0  0  0  0  0  0  0  0  0
   50.8770   33.1970   42.3490 C   0  0  0  0  0  0  0  0  0  0  0  0
   50.8000   32.1900   41.3270 C   0  0  0  0  0  0  0  0  0  0  0  0
   49.1260   32.5870   40.6130 S   0  0  0  0  0  0  0  0  0  0  0  0
   51.5590   31.1330   40.8080 C   0  0  0  0  0  0  0  0  0  0  0  0
   50.7160   30.3540   39.8430 C   0  0  0  0  0  0  0  0  0  0  0  0
   51.9680   30.1880   41.9330 C   0  0  0  0  0  0  0  0  0  0  0  0
   52.8140   31.5420   40.0330 C   0  0  0  0  0  0  0  0  0  0  0  0
   46.3223   32.7462   44.1677 H   0  0  0  0  0  0  0  0  0  0  0  0
   45.3912   33.5651   46.3934 H   0  0  0  0  0  0  0  0  0  0  0  0
   44.0717   37.1557   44.5188 H   0  0  0  0  0  0  0  0  0  0  0  0
   44.2709   34.3567   41.1289 H   0  0  0  0  0  0  0  0  0  0  0  0
   45.5854   35.0545   40.1230 H   0  0  0  0  0  0  0  0  0  0  0  0
   45.2995   33.2811   40.1230 H   0  0  0  0  0  0  0  0  0  0  0  0
   46.5993   32.2611   43.0616 H   0  0  0  0  0  0  0  0  0  0  0  0
   45.7449   31.9562   41.5112 H   0  0  0  0  0  0  0  0  0  0  0  0
   47.5047   32.3166   41.5112 H   0  0  0  0  0  0  0  0  0  0  0  0
   47.5844   35.5709   42.3233 H   0  0  0  0  0  0  0  0  0  0  0  0
   47.4486   35.0295   40.5453 H   0  0  0  0  0  0  0  0  0  0  0  0
   49.9467   34.8253   43.3063 H   0  0  0  0  0  0  0  0  0  0  0  0
   51.7675   33.2563   42.9921 H   0  0  0  0  0  0  0  0  0  0  0  0
   50.0197   29.7106   40.4009 H   0  0  0  0  0  0  0  0  0  0  0  0
   50.1454   31.0496   39.2101 H   0  0  0  0  0  0  0  0  0  0  0  0
   51.3645   29.7304   39.2101 H   0  0  0  0  0  0  0  0  0  0  0  0
   51.7625   30.6629   42.9037 H   0  0  0  0  0  0  0  0  0  0  0  0
   51.3940   29.2530   41.8534 H   0  0  0  0  0  0  0  0  0  0  0  0
   53.0425   29.9665   41.8534 H   0  0  0  0  0  0  0  0  0  0  0  0
   53.6139   31.8027   40.7417 H   0  0  0  0  0  0  0  0  0  0  0  0
   53.1433   30.7047   39.4002 H   0  0  0  0  0  0  0  0  0  0  0  0
   52.5867   32.4126   39.4002 H   0  0  0  0  0  0  0  0  0  0  0  0
  1  9  1  0
  1  2  1  0
  2  7  1  0
  2  3  2  0
  3  4  1  0
  4  5  2  0
  6  5  1  0
  7  6  2  0
  8  1  1  0
 10 11  1  0
 10  1  1  0
 11 12  2  0
 13 12  1  0
 14 13  2  0
 15 14  1  0
 15 11  1  0
 16 14  1  0
 16 18  1  0
 17 16  1  0
 19 16  1  0
  3 20  1  0
  4 21  1  0
  6 22  1  0
  8 23  1  0
  8 24  1  0
  8 25  1  0
  9 26  1  0
  9 27  1  0
  9 28  1  0
 10 29  1  0
 10 30  1  0
 12 31  1  0
 13 32  1  0
 17 33  1  0
 17 34  1  0
 17 35  1  0
 18 36  1  0
 18 37  1  0
 18 38  1  0
 19 39  1  0
 19 40  1  0
 19 41  1  0
M  ISO  8  20  14  21  14  22  14  23   8  24   8  25   8  26   8  27   8
M  ISO  8  28   8  29   8  30   8  31  14  32  14  33   8  34   8  35   8
M  ISO  6  36   8  37   8  38   8  39   8  40   8  41   8
M  END
>  <minimizedAffinity>  (1) 
-4.85236835

>  <minimizedRMSD>  (1) 
1.50545156

$$$$
