
     RDKit          3D

 36 38  0  0  0  0  0  0  0  0999 V2000
   46.1660   33.9920   41.8200 C   0  0  0  0  0  0  0  0  0  0  0  0
   45.6290   34.5100   43.1300 C   0  0  0  0  0  0  0  0  0  0  0  0
   45.8560   33.6670   44.2290 C   0  0  0  0  0  0  0  0  0  0  0  0
   45.3720   34.1120   45.4830 C   0  0  0  0  0  0  0  0  0  0  0  0
   44.7290   35.3030   45.5560 N   0  0  0  0  0  0  0  0  0  0  0  0
   44.5300   36.0890   44.4630 C   0  0  0  0  0  0  0  0  0  0  0  0
   44.9810   35.6840   43.2720 N   0  0  0  0  0  0  0  0  0  0  0  0
   45.1840   34.1470   40.7210 C   0  0  0  0  0  0  0  0  0  0  0  0
   46.4770   32.5010   41.9260 C   0  0  0  0  0  0  0  0  0  0  0  0
   47.4220   34.7180   41.5350 C   0  0  0  0  0  0  0  0  0  0  0  0
   48.6620   34.0030   41.6890 C   0  0  0  0  0  0  0  0  0  0  0  0
   49.7810   34.1100   42.5510 C   0  0  0  0  0  0  0  0  0  0  0  0
   50.8020   33.2680   42.4310 C   0  0  0  0  0  0  0  0  0  0  0  0
   50.7980   32.2420   41.4370 C   0  0  0  0  0  0  0  0  0  0  0  0
   49.1340   32.5740   40.6300 S   0  0  0  0  0  0  0  0  0  0  0  0
   51.5910   31.2010   40.9700 C   0  0  0  0  0  0  0  0  0  0  0  0
   52.7570   31.5780   40.0200 C   0  0  0  0  0  0  0  0  0  0  0  0
   51.5540   30.9010   39.4780 C   0  0  0  0  0  0  0  0  0  0  0  0
   46.3839   32.7079   44.1214 H   0  0  0  0  0  0  0  0  0  0  0  0
   45.5158   33.4997   46.3854 H   0  0  0  0  0  0  0  0  0  0  0  0
   44.0024   37.0494   44.5591 H   0  0  0  0  0  0  0  0  0  0  0  0
   44.1813   34.3053   41.1448 H   0  0  0  0  0  0  0  0  0  0  0  0
   45.4609   35.0126   40.1012 H   0  0  0  0  0  0  0  0  0  0  0  0
   45.1808   33.2382   40.1012 H   0  0  0  0  0  0  0  0  0  0  0  0
   46.5370   32.2134   42.9860 H   0  0  0  0  0  0  0  0  0  0  0  0
   45.6798   31.9243   41.4342 H   0  0  0  0  0  0  0  0  0  0  0  0
   47.4383   32.2911   41.4342 H   0  0  0  0  0  0  0  0  0  0  0  0
   47.4586   35.5867   42.2089 H   0  0  0  0  0  0  0  0  0  0  0  0
   47.3689   34.9510   40.4613 H   0  0  0  0  0  0  0  0  0  0  0  0
   49.8049   34.8933   43.3229 H   0  0  0  0  0  0  0  0  0  0  0  0
   51.6640   33.3625   43.1078 H   0  0  0  0  0  0  0  0  0  0  0  0
   51.4755   30.6160   41.8944 H   0  0  0  0  0  0  0  0  0  0  0  0
   52.9492   32.6337   39.7781 H   0  0  0  0  0  0  0  0  0  0  0  0
   53.8380   31.3755   39.9988 H   0  0  0  0  0  0  0  0  0  0  0  0
   50.8628   31.4577   38.8281 H   0  0  0  0  0  0  0  0  0  0  0  0
   51.3911   29.9892   38.8846 H   0  0  0  0  0  0  0  0  0  0  0  0
  1  9  1  0
  1  2  1  0
  2  7  1  0
  2  3  2  0
  3  4  1  0
  4  5  2  0
  6  5  1  0
  7  6  2  0
  8  1  1  0
 10 11  1  0
 10  1  1  0
 11 12  2  0
 13 12  1  0
 14 13  2  0
 15 14  1  0
 15 11  1  0
 16 14  1  0
 17 16  1  0
 18 17  1  0
 18 16  1  0
  3 19  1  0
  4 20  1  0
  6 21  1  0
  8 22  1  0
  8 23  1  0
  8 24  1  0
  9 25  1  0
  9 26  1  0
  9 27  1  0
 10 28  1  0
 10 29  1  0
 12 30  1  0
 13 31  1  0
 16 32  1  0
 17 33  1  0
 17 34  1  0
 18 35  1  0
 18 36  1  0
M  ISO  8  19  14  20  14  21  14  22   8  23   8  24   8  25   8  26   8
M  ISO  8  27   8  28   8  29   8  30  14  31  14  32  13  33  13  34  13
M  ISO  2  35  13  36  13
M  END
>  <minimizedAffinity>  (1) 
-4.75667238

>  <minimizedRMSD>  (1) 
1.3800174

$$$$
