
     RDKit          3D

 31 32  0  0  0  0  0  0  0  0999 V2000
   46.1910   34.0410   41.9670 C   0  0  0  0  0  0  0  0  0  0  0  0
   45.6340   34.5340   43.2730 C   0  0  0  0  0  0  0  0  0  0  0  0
   45.8740   33.6840   44.3520 C   0  0  0  0  0  0  0  0  0  0  0  0
   45.3640   34.1080   45.6080 C   0  0  0  0  0  0  0  0  0  0  0  0
   44.6870   35.2890   45.6820 N   0  0  0  0  0  0  0  0  0  0  0  0
   44.4830   36.0800   44.5870 C   0  0  0  0  0  0  0  0  0  0  0  0
   44.9560   35.6990   43.3960 N   0  0  0  0  0  0  0  0  0  0  0  0
   45.2220   34.2250   40.8510 C   0  0  0  0  0  0  0  0  0  0  0  0
   46.5000   32.5340   42.0510 C   0  0  0  0  0  0  0  0  0  0  0  0
   47.4620   34.7460   41.7000 C   0  0  0  0  0  0  0  0  0  0  0  0
   48.6680   33.9940   41.7280 C   0  0  0  0  0  0  0  0  0  0  0  0
   49.8090   33.9300   42.5640 C   0  0  0  0  0  0  0  0  0  0  0  0
   50.8130   33.0940   42.3100 C   0  0  0  0  0  0  0  0  0  0  0  0
   50.7460   32.2340   41.1650 C   0  0  0  0  0  0  0  0  0  0  0  0
   49.0760   32.7420   40.4690 S   0  0  0  0  0  0  0  0  0  0  0  0
   51.5960   31.2380   40.5800 C   0  0  0  0  0  0  0  0  0  0  0  0
   52.7540   31.6660   40.3420 O   0  0  0  0  0  0  0  0  0  0  0  0
   46.4264   32.7397   44.2371 H   0  0  0  0  0  0  0  0  0  0  0  0
   45.5130   33.4927   46.5075 H   0  0  0  0  0  0  0  0  0  0  0  0
   43.9317   37.0268   44.6849 H   0  0  0  0  0  0  0  0  0  0  0  0
   44.2200   34.4153   41.2631 H   0  0  0  0  0  0  0  0  0  0  0  0
   45.5327   35.0802   40.2329 H   0  0  0  0  0  0  0  0  0  0  0  0
   45.1976   33.3154   40.2329 H   0  0  0  0  0  0  0  0  0  0  0  0
   46.5622   32.2307   43.1065 H   0  0  0  0  0  0  0  0  0  0  0  0
   45.6994   31.9672   41.5532 H   0  0  0  0  0  0  0  0  0  0  0  0
   47.4591   32.3280   41.5532 H   0  0  0  0  0  0  0  0  0  0  0  0
   47.5571   35.5424   42.4528 H   0  0  0  0  0  0  0  0  0  0  0  0
   47.3737   35.0791   40.6554 H   0  0  0  0  0  0  0  0  0  0  0  0
   49.8670   34.5869   43.4444 H   0  0  0  0  0  0  0  0  0  0  0  0
   51.6889   33.0631   42.9747 H   0  0  0  0  0  0  0  0  0  0  0  0
   51.2699   30.2101   40.3629 H   0  0  0  0  0  0  0  0  0  0  0  0
  1  9  1  0
  1  2  1  0
  2  7  1  0
  2  3  2  0
  3  4  1  0
  4  5  2  0
  6  5  1  0
  7  6  2  0
  8  1  1  0
 10 11  1  0
 10  1  1  0
 11 12  2  0
 13 12  1  0
 14 13  2  0
 15 14  1  0
 15 11  1  0
 16 14  1  0
 17 16  2  0
  3 18  1  0
  4 19  1  0
  6 20  1  0
  8 21  1  0
  8 22  1  0
  8 23  1  0
  9 24  1  0
  9 25  1  0
  9 26  1  0
 10 27  1  0
 10 28  1  0
 12 29  1  0
 13 30  1  0
 16 31  1  0
M  ISO  8  18  14  19  14  20  14  21   8  22   8  23   8  24   8  25   8
M  ISO  6  26   8  27   8  28   8  29  14  30  14  31   6
M  END
>  <minimizedAffinity>  (1) 
-4.65186548

>  <minimizedRMSD>  (1) 
1.36972773

$$$$
