
     RDKit          3D

 39 41  0  0  1  0  0  0  0  0999 V2000
   47.9280   34.5440   41.2400 C   0  0  2  0  0  0  0  0  0  0  0  0
   48.7100   35.6740   41.5970 C   0  0  0  0  0  0  0  0  0  0  0  0
   49.9740   35.1580   42.3160 C   0  0  0  0  0  0  0  0  0  0  0  0
   49.9130   33.6430   42.3100 C   0  0  0  0  0  0  0  0  0  0  0  0
   48.4720   33.3990   42.1580 C   0  0  1  0  0  0  0  0  0  0  0  0
   47.9700   33.9700   39.8760 C   0  0  0  0  0  0  0  0  0  0  0  0
   48.4410   34.7640   38.8470 C   0  0  0  0  0  0  0  0  0  0  0  0
   48.5090   34.2780   37.5570 C   0  0  0  0  0  0  0  0  0  0  0  0
   48.0840   32.9850   37.3840 N   0  0  0  0  0  0  0  0  0  0  0  0
   47.6320   32.2420   38.3980 C   0  0  0  0  0  0  0  0  0  0  0  0
   47.5670   32.7140   39.6520 N   0  0  0  0  0  0  0  0  0  0  0  0
   47.7850   33.4530   43.4850 C   0  0  0  0  0  0  0  0  0  0  0  0
   46.3380   33.1040   43.3550 C   0  0  0  0  0  0  0  0  0  0  0  0
   45.5800   34.2140   44.0260 C   0  0  0  0  0  0  0  0  0  0  0  0
   45.0550   35.3580   43.4810 C   0  0  0  0  0  0  0  0  0  0  0  0
   44.4590   36.0540   44.4910 N   0  0  0  0  0  0  0  0  0  0  0  0
   44.6140   35.3610   45.6140 C   0  0  0  0  0  0  0  0  0  0  0  0
   45.2820   34.2550   45.3640 N   0  0  0  0  0  0  0  0  0  0  0  0
   45.6600   33.2160   46.3340 C   0  0  0  0  0  0  0  0  0  0  0  0
   46.8932   34.9051   41.3331 H   0  0  0  0  0  0  0  0  0  0  0  0
   48.9944   36.2339   40.6939 H   0  0  0  0  0  0  0  0  0  0  0  0
   48.1393   36.3469   42.2539 H   0  0  0  0  0  0  0  0  0  0  0  0
   50.8746   35.5001   41.7850 H   0  0  0  0  0  0  0  0  0  0  0  0
   50.0180   35.5407   43.3464 H   0  0  0  0  0  0  0  0  0  0  0  0
   50.4812   33.2229   41.4669 H   0  0  0  0  0  0  0  0  0  0  0  0
   50.3511   33.1767   43.2048 H   0  0  0  0  0  0  0  0  0  0  0  0
   48.2869   32.4040   41.7271 H   0  0  0  0  0  0  0  0  0  0  0  0
   48.7649   35.7937   39.0585 H   0  0  0  0  0  0  0  0  0  0  0  0
   48.8803   34.8885   36.7207 H   0  0  0  0  0  0  0  0  0  0  0  0
   47.3030   31.2115   38.1986 H   0  0  0  0  0  0  0  0  0  0  0  0
   48.2670   32.7387   44.1687 H   0  0  0  0  0  0  0  0  0  0  0  0
   47.8639   34.4772   43.8784 H   0  0  0  0  0  0  0  0  0  0  0  0
   46.0555   33.0357   42.2941 H   0  0  0  0  0  0  0  0  0  0  0  0
   46.1164   32.1301   43.8159 H   0  0  0  0  0  0  0  0  0  0  0  0
   45.1054   35.6586   42.4241 H   0  0  0  0  0  0  0  0  0  0  0  0
   44.2406   35.6656   46.6028 H   0  0  0  0  0  0  0  0  0  0  0  0
   45.5204   33.5997   47.3554 H   0  0  0  0  0  0  0  0  0  0  0  0
   45.0271   32.3285   46.1860 H   0  0  0  0  0  0  0  0  0  0  0  0
   46.7152   32.9427   46.1860 H   0  0  0  0  0  0  0  0  0  0  0  0
  1  2  1  0
  1  5  1  0
  2  3  1  0
  4  3  1  0
  5  4  1  0
  5 12  1  0
  6  1  1  0
  7  6  2  0
  8  7  1  0
  9  8  2  0
  9 10  1  0
 10 11  2  0
 11  6  1  0
 13 12  1  0
 13 14  1  0
 14 18  1  0
 15 14  2  0
 15 16  1  0
 16 17  2  0
 18 17  1  0
 18 19  1  0
  1 20  1  1
  2 21  1  0
  2 22  1  0
  3 23  1  0
  3 24  1  0
  4 25  1  0
  4 26  1  0
  5 27  1  6
  7 28  1  0
  8 29  1  0
 10 30  1  0
 12 31  1  0
 12 32  1  0
 13 33  1  0
 13 34  1  0
 15 35  1  0
 17 36  1  0
 19 37  1  0
 19 38  1  0
 19 39  1  0
M  ISO  8  20  13  21  13  22  13  23  13  24  13  25  13  26  13  27  13
M  ISO  8  28  14  29  14  30  14  31   8  32   8  33   8  34   8  35  14
M  ISO  4  36  14  37   8  38   8  39   8
M  END
>  <minimizedAffinity>  (1) 
-5.42408657

>  <minimizedRMSD>  (1) 
0.223670572

$$$$
