
     RDKit          3D

 37 38  0  0  0  0  0  0  0  0999 V2000
   46.7430   34.4210   40.7850 C   0  0  0  0  0  0  0  0  0  0  0  0
   48.0210   33.8530   41.1210 C   0  0  0  0  0  0  0  0  0  0  0  0
   49.0950   34.2230   41.9500 C   0  0  0  0  0  0  0  0  0  0  0  0
   50.1760   33.4690   42.0510 C   0  0  0  0  0  0  0  0  0  0  0  0
   50.2470   32.2680   41.3060 C   0  0  0  0  0  0  0  0  0  0  0  0
   48.6200   32.2900   40.4290 S   0  0  0  0  0  0  0  0  0  0  0  0
   51.1170   31.2730   41.1390 N   0  0  0  0  0  0  0  0  0  0  0  0
   52.1280   31.3320   40.1540 C   0  0  0  0  0  0  0  0  0  0  0  0
   51.8760   32.0660   39.1030 N   0  0  0  0  0  0  0  0  0  0  0  0
   53.3820   30.6380   40.2570 N   0  0  0  0  0  0  0  0  0  0  0  0
   52.5890   32.1710   38.3510 H   0  0  0  0  0  0  0  0  0  0  0  0
   51.2740   33.7520   42.8380 O   0  0  0  0  0  0  0  0  0  0  0  0
   45.5370   33.8090   41.3900 C   0  0  0  0  0  0  0  0  0  0  0  0
   45.2940   34.4490   42.7070 C   0  0  0  0  0  0  0  0  0  0  0  0
   45.4860   33.6120   43.7950 C   0  0  0  0  0  0  0  0  0  0  0  0
   45.2750   34.1460   45.0860 C   0  0  0  0  0  0  0  0  0  0  0  0
   44.8950   35.4550   45.1840 N   0  0  0  0  0  0  0  0  0  0  0  0
   44.7180   36.2430   44.0980 C   0  0  0  0  0  0  0  0  0  0  0  0
   44.9190   35.7300   42.8950 N   0  0  0  0  0  0  0  0  0  0  0  0
   44.3600   33.9720   40.4690 C   0  0  0  0  0  0  0  0  0  0  0  0
   45.7780   32.3160   41.5040 C   0  0  0  0  0  0  0  0  0  0  0  0
   46.7630   35.4779   41.0893 H   0  0  0  0  0  0  0  0  0  0  0  0
   46.6341   34.2414   39.7052 H   0  0  0  0  0  0  0  0  0  0  0  0
   49.0343   35.1583   42.5258 H   0  0  0  0  0  0  0  0  0  0  0  0
   51.0510   30.4409   41.7424 H   0  0  0  0  0  0  0  0  0  0  0  0
   54.0799   30.7210   39.5040 H   0  0  0  0  0  0  0  0  0  0  0  0
   53.5830   30.0575   41.0838 H   0  0  0  0  0  0  0  0  0  0  0  0
   52.0443   33.1304   42.8549 H   0  0  0  0  0  0  0  0  0  0  0  0
   45.7931   32.5647   43.6577 H   0  0  0  0  0  0  0  0  0  0  0  0
   45.4124   33.5269   45.9848 H   0  0  0  0  0  0  0  0  0  0  0  0
   44.4119   37.2932   44.2136 H   0  0  0  0  0  0  0  0  0  0  0  0
   43.4436   34.0989   41.0641 H   0  0  0  0  0  0  0  0  0  0  0  0
   44.5108   34.8578   39.8345 H   0  0  0  0  0  0  0  0  0  0  0  0
   44.2644   33.0785   39.8345 H   0  0  0  0  0  0  0  0  0  0  0  0
   45.8238   32.0320   42.5657 H   0  0  0  0  0  0  0  0  0  0  0  0
   44.9558   31.7734   41.0145 H   0  0  0  0  0  0  0  0  0  0  0  0
   46.7291   32.0597   41.0145 H   0  0  0  0  0  0  0  0  0  0  0  0
  1  2  1  0
  1 13  1  0
  2  3  2  0
  3  4  1  0
  4 12  1  0
  5  4  2  0
  6  2  1  0
  6  5  1  0
  7  5  1  0
  8 10  1  0
  8  7  1  0
  9  8  2  0
 11  9  1  0
 13 21  1  0
 13 14  1  0
 14 19  1  0
 14 15  2  0
 15 16  1  0
 16 17  2  0
 18 17  1  0
 19 18  2  0
 20 13  1  0
  1 22  1  0
  1 23  1  0
  3 24  1  0
  7 25  1  0
 10 26  1  0
 10 27  1  0
 12 28  1  0
 15 29  1  0
 16 30  1  0
 18 31  1  0
 20 32  1  0
 20 33  1  0
 20 34  1  0
 21 35  1  0
 21 36  1  0
 21 37  1  0
M  ISO  8  22   8  23   8  24  14  28   3  29  14  30  14  31  14  32   8
M  ISO  5  33   8  34   8  35   8  36   8  37   8
M  END
>  <minimizedAffinity>  (1) 
-5.14307547

>  <minimizedRMSD>  (1) 
0.498022884

$$$$
