
     RDKit          3D

 28 30  0  0  0  0  0  0  0  0999 V2000
   46.6560   34.4240   41.5670 C   0  0  0  0  0  0  0  0  0  0  0  0
   47.7470   35.1900   41.9550 C   0  0  0  0  0  0  0  0  0  0  0  0
   48.7710   35.4310   41.0130 C   0  0  0  0  0  0  0  0  0  0  0  0
   48.6210   34.8870   39.7630 N   0  0  0  0  0  0  0  0  0  0  0  0
   47.5300   34.1460   39.4390 C   0  0  0  0  0  0  0  0  0  0  0  0
   46.5750   33.9280   40.3370 N   0  0  0  0  0  0  0  0  0  0  0  0
   47.3760   33.5710   38.1050 C   0  0  0  0  0  0  0  0  0  0  0  0
   46.3040   33.1240   37.4070 N   0  0  0  0  0  0  0  0  0  0  0  0
   46.7050   32.6960   36.2450 O   0  0  0  0  0  0  0  0  0  0  0  0
   48.0010   32.8290   36.1210 C   0  0  0  0  0  0  0  0  0  0  0  0
   48.4690   33.3870   37.2890 N   0  0  0  0  0  0  0  0  0  0  0  0
   48.7920   32.4530   34.9500 C   0  0  0  0  0  0  0  0  0  0  0  0
   49.6210   31.3510   34.9670 C   0  0  0  0  0  0  0  0  0  0  0  0
   50.1750   31.3510   33.6810 C   0  0  0  0  0  0  0  0  0  0  0  0
   49.6550   32.4370   32.9720 C   0  0  0  0  0  0  0  0  0  0  0  0
   48.8230   33.0670   33.7940 O   0  0  0  0  0  0  0  0  0  0  0  0
   45.6240   34.1910   42.5470 C   0  0  0  0  0  0  0  0  0  0  0  0
   44.6860   33.3590   42.2650 O   0  0  0  0  0  0  0  0  0  0  0  0
   45.6750   34.8740   43.7680 O   0  0  0  0  0  0  0  0  0  0  0  0
   44.7870   35.9360   43.9730 C   0  0  0  0  0  0  0  0  0  0  0  0
   43.5110   35.6420   43.4870 F   0  0  0  0  0  0  0  0  0  0  0  0
   44.6770   36.1910   45.3220 F   0  0  0  0  0  0  0  0  0  0  0  0
   45.2830   37.0150   43.2850 F   0  0  0  0  0  0  0  0  0  0  0  0
   47.8123   35.6001   42.9736 H   0  0  0  0  0  0  0  0  0  0  0  0
   49.6552   36.0321   41.2719 H   0  0  0  0  0  0  0  0  0  0  0  0
   49.8027   30.6443   35.7901 H   0  0  0  0  0  0  0  0  0  0  0  0
   50.8986   30.6186   33.2937 H   0  0  0  0  0  0  0  0  0  0  0  0
   49.8892   32.7162   31.9341 H   0  0  0  0  0  0  0  0  0  0  0  0
  1  2  2  0
  1 17  1  0
  3  2  1  0
  4  3  2  0
  5  4  1  0
  5  6  2  0
  6  1  1  0
  7  5  1  0
  8  7  2  0
  9  8  1  0
 10  9  1  0
 10 11  2  0
 11  7  1  0
 12 13  2  0
 12 10  1  0
 14 13  1  0
 15 14  2  0
 15 16  1  0
 16 12  1  0
 17 19  1  0
 18 17  2  0
 19 20  1  0
 20 22  1  0
 21 20  1  0
 23 20  1  0
  2 24  1  0
  3 25  1  0
 13 26  1  0
 14 27  1  0
 15 28  1  0
M  ISO  5  24  14  25  14  26  14  27  14  28  14
M  END
>  <minimizedAffinity>  (1) 
-5.35252857

>  <minimizedRMSD>  (1) 
2.84023118

$$$$
