
     RDKit          3D

 26 27  0  0  0  0  0  0  0  0999 V2000
   44.4700   35.8840   44.3620 C   0  0  0  0  0  0  0  0  0  0  0  0
   44.9710   35.2400   43.2130 C   0  0  0  0  0  0  0  0  0  0  0  0
   45.6330   34.0340   43.3630 C   0  0  0  0  0  0  0  0  0  0  0  0
   45.7610   33.5390   44.6360 N   0  0  0  0  0  0  0  0  0  0  0  0
   45.2760   34.1670   45.7220 C   0  0  0  0  0  0  0  0  0  0  0  0
   44.6320   35.3380   45.5890 N   0  0  0  0  0  0  0  0  0  0  0  0
   46.3150   33.1250   41.9860 S   0  0  0  0  0  0  0  0  0  0  0  0
   50.6480   34.1690   42.7120 N   0  0  0  0  0  0  0  0  0  0  0  0
   50.3830   32.9230   42.0790 C   0  0  0  0  0  0  0  0  0  0  0  0
   48.9560   32.4980   42.3480 C   0  0  0  0  0  0  0  0  0  0  0  0
   48.0360   33.5390   41.7600 C   0  0  0  0  0  0  0  0  0  0  0  0
   48.3470   34.8510   42.4680 C   0  0  0  0  0  0  0  0  0  0  0  0
   49.7930   35.2470   42.2780 C   0  0  0  0  0  0  0  0  0  0  0  0
   43.9405   36.8428   44.2598 H   0  0  0  0  0  0  0  0  0  0  0  0
   44.8385   35.6870   42.2167 H   0  0  0  0  0  0  0  0  0  0  0  0
   45.4068   33.7215   46.7192 H   0  0  0  0  0  0  0  0  0  0  0  0
   50.5249   34.0480   43.7274 H   0  0  0  0  0  0  0  0  0  0  0  0
   51.0706   32.1605   42.4738 H   0  0  0  0  0  0  0  0  0  0  0  0
   50.5286   33.0314   40.9941 H   0  0  0  0  0  0  0  0  0  0  0  0
   48.7631   31.5223   41.8781 H   0  0  0  0  0  0  0  0  0  0  0  0
   48.7841   32.4066   43.4306 H   0  0  0  0  0  0  0  0  0  0  0  0
   48.2023   33.6060   40.6747 H   0  0  0  0  0  0  0  0  0  0  0  0
   47.7018   35.6417   42.0574 H   0  0  0  0  0  0  0  0  0  0  0  0
   48.1616   34.7178   43.5440 H   0  0  0  0  0  0  0  0  0  0  0  0
   49.9789   35.4569   41.2143 H   0  0  0  0  0  0  0  0  0  0  0  0
   50.0077   36.1473   42.8725 H   0  0  0  0  0  0  0  0  0  0  0  0
  1  6  2  0
  2  3  2  0
  2  1  1  0
  3  4  1  0
  4  5  2  0
  6  5  1  0
  7  3  1  0
  9 10  1  0
  9  8  1  0
 11  7  1  0
 11 10  1  0
 11 12  1  0
 13 12  1  0
 13  8  1  0
  1 14  1  0
  2 15  1  0
  5 16  1  0
  8 17  1  0
  9 18  1  0
  9 19  1  0
 10 20  1  0
 10 21  1  0
 11 22  1  0
 12 23  1  0
 12 24  1  0
 13 25  1  0
 13 26  1  0
M  ISO  8  14  14  15  14  16  14  17   5  18  13  19  13  20  13  21  13
M  ISO  5  22  13  23  13  24  13  25  13  26  13
M  END
>  <minimizedAffinity>  (1) 
-4.35004425

>  <minimizedRMSD>  (1) 
1.41086805

$$$$
