
     RDKit          3D

 18 19  0  0  0  0  0  0  0  0999 V2000
   44.5290   36.0470   44.5700 C   0  0  0  0  0  0  0  0  0  0  0  0
   45.1760   35.9380   43.3290 C   0  0  0  0  0  0  0  0  0  0  0  0
   46.0240   34.8500   43.1080 C   0  0  0  0  0  0  0  0  0  0  0  0
   46.1700   33.9440   44.1370 N   0  0  0  0  0  0  0  0  0  0  0  0
   45.5380   34.0790   45.3050 C   0  0  0  0  0  0  0  0  0  0  0  0
   44.7190   35.1260   45.5270 N   0  0  0  0  0  0  0  0  0  0  0  0
   46.8820   34.6370   41.5630 S   0  0  0  0  0  0  0  0  0  0  0  0
   48.5780   34.0380   41.8340 C   0  0  0  0  0  0  0  0  0  0  0  0
   49.6280   34.5740   42.4620 C   0  0  0  0  0  0  0  0  0  0  0  0
   50.7960   33.9380   42.5330 C   0  0  0  0  0  0  0  0  0  0  0  0
   50.8040   32.7540   41.9350 C   0  0  0  0  0  0  0  0  0  0  0  0
   49.2130   32.4940   41.2640 S   0  0  0  0  0  0  0  0  0  0  0  0
   43.8581   36.8978   44.7602 H   0  0  0  0  0  0  0  0  0  0  0  0
   45.0184   36.6944   42.5460 H   0  0  0  0  0  0  0  0  0  0  0  0
   45.6872   33.3278   46.0946 H   0  0  0  0  0  0  0  0  0  0  0  0
   49.5256   35.5636   42.9314 H   0  0  0  0  0  0  0  0  0  0  0  0
   51.6761   34.3574   43.0424 H   0  0  0  0  0  0  0  0  0  0  0  0
   51.6571   32.0623   41.8731 H   0  0  0  0  0  0  0  0  0  0  0  0
  1  6  2  0
  2  1  1  0
  3  2  2  0
  3  4  1  0
  4  5  2  0
  5  6  1  0
  7  8  1  0
  7  3  1  0
  8  9  2  0
  9 10  1  0
 11 10  2  0
 12  8  1  0
 12 11  1  0
  1 13  1  0
  2 14  1  0
  5 15  1  0
  9 16  1  0
 10 17  1  0
 11 18  1  0
M  ISO  6  13  14  14  14  15  14  16  14  17  14  18  14
M  END
>  <minimizedAffinity>  (1) 
-4.20750761

>  <minimizedRMSD>  (1) 
1.60409129

$$$$
