
     RDKit          3D

 18 19  0  0  0  0  0  0  0  0999 V2000
   44.5080   35.9230   44.6910 C   0  0  0  0  0  0  0  0  0  0  0  0
   45.2160   35.8520   43.4780 C   0  0  0  0  0  0  0  0  0  0  0  0
   46.1270   34.8010   43.3190 C   0  0  0  0  0  0  0  0  0  0  0  0
   46.2850   33.8920   44.3550 N   0  0  0  0  0  0  0  0  0  0  0  0
   45.5890   34.0000   45.4930 C   0  0  0  0  0  0  0  0  0  0  0  0
   44.7050   35.0100   45.6580 N   0  0  0  0  0  0  0  0  0  0  0  0
   47.0800   34.6180   41.8160 S   0  0  0  0  0  0  0  0  0  0  0  0
   45.9630   34.0120   40.5330 C   0  0  0  0  0  0  0  0  0  0  0  0
   46.5840   33.1340   39.6380 C   0  0  0  0  0  0  0  0  0  0  0  0
   45.6330   32.7600   38.7340 N   0  0  0  0  0  0  0  0  0  0  0  0
   44.4830   33.3890   39.0700 C   0  0  0  0  0  0  0  0  0  0  0  0
   44.6780   34.1500   40.1630 N   0  0  0  0  0  0  0  0  0  0  0  0
   43.7840   36.7356   44.8506 H   0  0  0  0  0  0  0  0  0  0  0  0
   45.0596   36.5956   42.6827 H   0  0  0  0  0  0  0  0  0  0  0  0
   45.7366   33.2643   46.2973 H   0  0  0  0  0  0  0  0  0  0  0  0
   47.6345   32.8086   39.6591 H   0  0  0  0  0  0  0  0  0  0  0  0
   43.5297   33.2927   38.5298 H   0  0  0  0  0  0  0  0  0  0  0  0
   43.9700   34.7332   40.6316 H   0  0  0  0  0  0  0  0  0  0  0  0
  1  6  2  0
  2  1  1  0
  3  2  2  0
  3  4  1  0
  4  5  2  0
  5  6  1  0
  7  3  1  0
  8  7  1  0
  9  8  2  0
 10 11  2  0
 10  9  1  0
 11 12  1  0
 12  8  1  0
  1 13  1  0
  2 14  1  0
  5 15  1  0
  9 16  1  0
 11 17  1  0
 12 18  1  0
M  ISO  6  13  14  14  14  15  14  16  14  17  14  18   9
M  END
>  <minimizedAffinity>  (1) 
-3.67388582

>  <minimizedRMSD>  (1) 
1.02982259

$$$$
