
     RDKit          3D

 18 19  0  0  0  0  0  0  0  0999 V2000
   44.6630   35.7400   44.2750 C   0  0  0  0  0  0  0  0  0  0  0  0
   45.5450   35.7690   43.1670 C   0  0  0  0  0  0  0  0  0  0  0  0
   46.5620   34.8290   43.1350 C   0  0  0  0  0  0  0  0  0  0  0  0
   46.6660   33.9210   44.1710 N   0  0  0  0  0  0  0  0  0  0  0  0
   45.8170   33.9250   45.1990 C   0  0  0  0  0  0  0  0  0  0  0  0
   44.8240   34.8190   45.2600 N   0  0  0  0  0  0  0  0  0  0  0  0
   47.7210   34.7840   41.7860 S   0  0  0  0  0  0  0  0  0  0  0  0
   47.0970   34.0910   40.2800 C   0  0  0  0  0  0  0  0  0  0  0  0
   48.0520   34.2180   39.0650 C   0  0  0  0  0  0  0  0  0  0  0  0
   47.6600   32.8900   39.6360 C   0  0  0  0  0  0  0  0  0  0  0  0
   43.8416   36.4689   44.3381 H   0  0  0  0  0  0  0  0  0  0  0  0
   45.4268   36.5098   42.3625 H   0  0  0  0  0  0  0  0  0  0  0  0
   45.9344   33.1857   46.0050 H   0  0  0  0  0  0  0  0  0  0  0  0
   46.0664   34.3516   40.5626 H   0  0  0  0  0  0  0  0  0  0  0  0
   49.0744   34.6009   39.1992 H   0  0  0  0  0  0  0  0  0  0  0  0
   48.0121   34.6955   38.0748 H   0  0  0  0  0  0  0  0  0  0  0  0
   47.0006   32.2253   39.0586 H   0  0  0  0  0  0  0  0  0  0  0  0
   48.2281   32.0240   40.0066 H   0  0  0  0  0  0  0  0  0  0  0  0
  1  6  2  0
  2  1  1  0
  3  2  2  0
  3  4  1  0
  4  5  2  0
  5  6  1  0
  7  3  1  0
  8  7  1  0
  9 10  1  0
  9  8  1  0
 10  8  1  0
  1 11  1  0
  2 12  1  0
  5 13  1  0
  8 14  1  0
  9 15  1  0
  9 16  1  0
 10 17  1  0
 10 18  1  0
M  ISO  8  11  14  12  14  13  14  14  13  15  13  16  13  17  13  18  13
M  END
>  <minimizedAffinity>  (1) 
-3.27162313

>  <minimizedRMSD>  (1) 
0.702976704

$$$$
