
     RDKit          3D

 35 37  0  0  0  0  0  0  0  0999 V2000
   48.6500   34.0110   41.5180 C   0  0  0  0  0  0  0  0  0  0  0  0
   49.6350   34.4830   42.3990 C   0  0  0  0  0  0  0  0  0  0  0  0
   50.7990   33.7610   42.5520 C   0  0  0  0  0  0  0  0  0  0  0  0
   51.0270   32.5680   41.8530 C   0  0  0  0  0  0  0  0  0  0  0  0
   50.0450   32.0950   40.9730 C   0  0  0  0  0  0  0  0  0  0  0  0
   48.9070   32.8390   40.8500 C   0  0  0  0  0  0  0  0  0  0  0  0
   47.8910   32.3900   39.9680 N   0  0  0  0  0  0  0  0  0  0  0  0
   48.1120   32.3870   38.5370 C   0  0  0  0  0  0  0  0  0  0  0  0
   47.2070   33.4300   37.8970 C   0  0  0  0  0  0  0  0  0  0  0  0
   45.8960   33.4400   38.5230 N   0  0  0  0  0  0  0  0  0  0  0  0
   45.6170   32.1610   39.1800 C   0  0  0  0  0  0  0  0  0  0  0  0
   46.5650   31.8970   40.3230 C   0  0  0  0  0  0  0  0  0  0  0  0
   47.1960   34.9940   41.3840 S   0  0  0  0  0  0  0  0  0  0  0  0
   44.6460   35.8280   44.4320 C   0  0  0  0  0  0  0  0  0  0  0  0
   45.3250   35.9320   43.2140 C   0  0  0  0  0  0  0  0  0  0  0  0
   46.2810   34.9500   42.9070 C   0  0  0  0  0  0  0  0  0  0  0  0
   46.4830   33.9460   43.8430 N   0  0  0  0  0  0  0  0  0  0  0  0
   45.8130   33.8830   44.9970 C   0  0  0  0  0  0  0  0  0  0  0  0
   44.8940   34.8100   45.3110 N   0  0  0  0  0  0  0  0  0  0  0  0
   49.4802   35.4165   42.9599 H   0  0  0  0  0  0  0  0  0  0  0  0
   51.5710   34.1317   43.2424 H   0  0  0  0  0  0  0  0  0  0  0  0
   51.9647   32.0103   41.9935 H   0  0  0  0  0  0  0  0  0  0  0  0
   50.1850   31.1634   40.4051 H   0  0  0  0  0  0  0  0  0  0  0  0
   49.1636   32.6304   38.3251 H   0  0  0  0  0  0  0  0  0  0  0  0
   47.8835   31.3924   38.1264 H   0  0  0  0  0  0  0  0  0  0  0  0
   47.0927   33.1989   36.8276 H   0  0  0  0  0  0  0  0  0  0  0  0
   47.6659   34.4206   38.0316 H   0  0  0  0  0  0  0  0  0  0  0  0
   45.8639   34.1931   39.2250 H   0  0  0  0  0  0  0  0  0  0  0  0
   44.5879   32.1777   39.5682 H   0  0  0  0  0  0  0  0  0  0  0  0
   45.7478   31.3605   38.4370 H   0  0  0  0  0  0  0  0  0  0  0  0
   46.6143   30.8156   40.5182 H   0  0  0  0  0  0  0  0  0  0  0  0
   46.2080   32.4127   41.2267 H   0  0  0  0  0  0  0  0  0  0  0  0
   43.8917   36.5858   44.6903 H   0  0  0  0  0  0  0  0  0  0  0  0
   45.1167   36.7577   42.5176 H   0  0  0  0  0  0  0  0  0  0  0  0
   46.0169   33.0610   45.6990 H   0  0  0  0  0  0  0  0  0  0  0  0
  1  2  2  0
  2  3  1  0
  4  3  2  0
  5  4  1  0
  6  5  2  0
  6  1  1  0
  7 12  1  0
  7  6  1  0
  8  7  1  0
  9 10  1  0
  9  8  1  0
 10 11  1  0
 11 12  1  0
 13  1  1  0
 13 16  1  0
 14 19  2  0
 15 14  1  0
 16 15  2  0
 16 17  1  0
 17 18  2  0
 18 19  1  0
  2 20  1  0
  3 21  1  0
  4 22  1  0
  5 23  1  0
  8 24  1  0
  8 25  1  0
  9 26  1  0
  9 27  1  0
 10 28  1  0
 11 29  1  0
 11 30  1  0
 12 31  1  0
 12 32  1  0
 14 33  1  0
 15 34  1  0
 18 35  1  0
M  ISO  8  20  14  21  14  22  14  23  14  24  13  25  13  26  13  27  13
M  ISO  8  28   5  29  13  30  13  31  13  32  13  33  14  34  14  35  14
M  END
>  <minimizedAffinity>  (1) 
-5.02417517

>  <minimizedRMSD>  (1) 
1.14883018

$$$$
