
     RDKit          3D

 31 33  0  0  0  0  0  0  0  0999 V2000
   48.7020   34.0370   41.5690 C   0  0  0  0  0  0  0  0  0  0  0  0
   49.7370   34.2230   42.4840 C   0  0  0  0  0  0  0  0  0  0  0  0
   50.8340   33.3920   42.4460 C   0  0  0  0  0  0  0  0  0  0  0  0
   50.9370   32.3640   41.5090 C   0  0  0  0  0  0  0  0  0  0  0  0
   49.9070   32.1750   40.5930 C   0  0  0  0  0  0  0  0  0  0  0  0
   48.8060   33.0150   40.6400 C   0  0  0  0  0  0  0  0  0  0  0  0
   47.7230   32.8210   39.6820 C   0  0  0  0  0  0  0  0  0  0  0  0
   47.8790   33.5160   38.4820 C   0  0  0  0  0  0  0  0  0  0  0  0
   46.8800   33.3670   37.5400 C   0  0  0  0  0  0  0  0  0  0  0  0
   45.7500   32.5890   37.6960 C   0  0  0  0  0  0  0  0  0  0  0  0
   45.6430   31.9220   38.9010 C   0  0  0  0  0  0  0  0  0  0  0  0
   46.6100   32.0310   39.8870 C   0  0  0  0  0  0  0  0  0  0  0  0
   47.3320   35.1310   41.6730 S   0  0  0  0  0  0  0  0  0  0  0  0
   44.6920   35.3860   44.7570 C   0  0  0  0  0  0  0  0  0  0  0  0
   45.3520   35.6710   43.5510 C   0  0  0  0  0  0  0  0  0  0  0  0
   46.4260   34.8590   43.1790 C   0  0  0  0  0  0  0  0  0  0  0  0
   46.7810   33.8140   44.0210 N   0  0  0  0  0  0  0  0  0  0  0  0
   46.1240   33.5710   45.1710 C   0  0  0  0  0  0  0  0  0  0  0  0
   45.0810   34.3510   45.5440 N   0  0  0  0  0  0  0  0  0  0  0  0
   49.6777   35.0281   43.2312 H   0  0  0  0  0  0  0  0  0  0  0  0
   51.6476   33.5422   43.1709 H   0  0  0  0  0  0  0  0  0  0  0  0
   51.8218   31.7106   41.4944 H   0  0  0  0  0  0  0  0  0  0  0  0
   49.9657   31.3718   39.8437 H   0  0  0  0  0  0  0  0  0  0  0  0
   48.7564   34.1526   38.2951 H   0  0  0  0  0  0  0  0  0  0  0  0
   46.9935   33.9110   36.5907 H   0  0  0  0  0  0  0  0  0  0  0  0
   44.9840   32.5056   36.9110 H   0  0  0  0  0  0  0  0  0  0  0  0
   44.7643   31.2858   39.0829 H   0  0  0  0  0  0  0  0  0  0  0  0
   46.4905   31.4867   40.8354 H   0  0  0  0  0  0  0  0  0  0  0  0
   43.8441   36.0131   45.0697 H   0  0  0  0  0  0  0  0  0  0  0  0
   45.0321   36.5107   42.9165 H   0  0  0  0  0  0  0  0  0  0  0  0
   46.4363   32.7334   45.8120 H   0  0  0  0  0  0  0  0  0  0  0  0
  1 13  1  0
  1  2  2  0
  3  2  1  0
  4  3  2  0
  5  6  2  0
  5  4  1  0
  6  1  1  0
  7 12  1  0
  7  6  1  0
  8  7  2  0
  9 10  2  0
  9  8  1  0
 10 11  1  0
 11 12  2  0
 13 16  1  0
 14 19  2  0
 15 14  1  0
 16 15  2  0
 16 17  1  0
 17 18  2  0
 18 19  1  0
  2 20  1  0
  3 21  1  0
  4 22  1  0
  5 23  1  0
  8 24  1  0
  9 25  1  0
 10 26  1  0
 11 27  1  0
 12 28  1  0
 14 29  1  0
 15 30  1  0
 18 31  1  0
M  ISO  8  20  14  21  14  22  14  23  14  24  14  25  14  26  14  27  14
M  ISO  4  28  14  29  14  30  14  31  14
M  END
>  <minimizedAffinity>  (1) 
-4.86838007

>  <minimizedRMSD>  (1) 
1.51662421

$$$$
