
     RDKit          3D

 30 32  0  0  0  0  0  0  0  0999 V2000
   48.3600   33.9820   41.6710 C   0  0  0  0  0  0  0  0  0  0  0  0
   49.2390   34.7080   42.4500 C   0  0  0  0  0  0  0  0  0  0  0  0
   50.5080   34.2360   42.6410 C   0  0  0  0  0  0  0  0  0  0  0  0
   50.9370   33.0430   42.0720 C   0  0  0  0  0  0  0  0  0  0  0  0
   50.0520   32.3190   41.2920 C   0  0  0  0  0  0  0  0  0  0  0  0
   48.7810   32.7840   41.0960 C   0  0  0  0  0  0  0  0  0  0  0  0
   47.7920   32.0780   40.2880 C   0  0  0  0  0  0  0  0  0  0  0  0
   46.9590   31.1030   40.7980 C   0  0  0  0  0  0  0  0  0  0  0  0
   46.0270   30.4350   40.0500 C   0  0  0  0  0  0  0  0  0  0  0  0
   45.8740   30.7110   38.7190 C   0  0  0  0  0  0  0  0  0  0  0  0
   46.7020   31.6810   38.2060 C   0  0  0  0  0  0  0  0  0  0  0  0
   47.6080   32.3200   38.9700 N   0  0  0  0  0  0  0  0  0  0  0  0
   46.7240   34.6480   41.4610 S   0  0  0  0  0  0  0  0  0  0  0  0
   44.5580   36.0830   44.5810 C   0  0  0  0  0  0  0  0  0  0  0  0
   45.1510   35.9840   43.3120 C   0  0  0  0  0  0  0  0  0  0  0  0
   45.9420   34.8530   43.0300 C   0  0  0  0  0  0  0  0  0  0  0  0
   46.0830   33.9160   44.0230 N   0  0  0  0  0  0  0  0  0  0  0  0
   45.5110   34.0270   45.2280 C   0  0  0  0  0  0  0  0  0  0  0  0
   44.7460   35.1030   45.5200 N   0  0  0  0  0  0  0  0  0  0  0  0
   48.9221   35.6549   42.9115 H   0  0  0  0  0  0  0  0  0  0  0  0
   51.2075   34.8157   43.2612 H   0  0  0  0  0  0  0  0  0  0  0  0
   51.9621   32.6803   42.2386 H   0  0  0  0  0  0  0  0  0  0  0  0
   50.3701   31.3723   40.8311 H   0  0  0  0  0  0  0  0  0  0  0  0
   47.0488   30.8485   41.8644 H   0  0  0  0  0  0  0  0  0  0  0  0
   45.3953   29.6692   40.5238 H   0  0  0  0  0  0  0  0  0  0  0  0
   45.1329   30.1882   38.0966 H   0  0  0  0  0  0  0  0  0  0  0  0
   46.6221   31.9427   37.1406 H   0  0  0  0  0  0  0  0  0  0  0  0
   43.9357   36.9569   44.8239 H   0  0  0  0  0  0  0  0  0  0  0  0
   45.0016   36.7699   42.5570 H   0  0  0  0  0  0  0  0  0  0  0  0
   45.6636   33.2411   45.9824 H   0  0  0  0  0  0  0  0  0  0  0  0
  1  2  2  0
  2  3  1  0
  4  3  2  0
  5  4  1  0
  6  5  2  0
  6  1  1  0
  7  8  2  0
  7  6  1  0
  9  8  1  0
 10  9  2  0
 11 10  1  0
 11 12  2  0
 12  7  1  0
 13  1  1  0
 13 16  1  0
 14 19  2  0
 15 14  1  0
 16 15  2  0
 16 17  1  0
 17 18  2  0
 18 19  1  0
  2 20  1  0
  3 21  1  0
  4 22  1  0
  5 23  1  0
  8 24  1  0
  9 25  1  0
 10 26  1  0
 11 27  1  0
 14 28  1  0
 15 29  1  0
 18 30  1  0
M  ISO  8  20  14  21  14  22  14  23  14  24  14  25  14  26  14  27  14
M  ISO  3  28  14  29  14  30  14
M  END
>  <minimizedAffinity>  (1) 
-4.77247143

>  <minimizedRMSD>  (1) 
0.275380939

$$$$
