
     RDKit          3D

 29 31  0  0  0  0  0  0  0  0999 V2000
   48.3670   33.9830   41.6700 C   0  0  0  0  0  0  0  0  0  0  0  0
   49.2520   34.7050   42.4560 C   0  0  0  0  0  0  0  0  0  0  0  0
   50.5210   34.2200   42.6410 C   0  0  0  0  0  0  0  0  0  0  0  0
   50.9410   33.0300   42.0630 C   0  0  0  0  0  0  0  0  0  0  0  0
   50.0520   32.3160   41.2800 C   0  0  0  0  0  0  0  0  0  0  0  0
   48.7830   32.7880   41.0870 C   0  0  0  0  0  0  0  0  0  0  0  0
   47.7870   32.0960   40.2770 C   0  0  0  0  0  0  0  0  0  0  0  0
   46.9440   31.1320   40.7920 C   0  0  0  0  0  0  0  0  0  0  0  0
   46.0080   30.4810   40.0330 C   0  0  0  0  0  0  0  0  0  0  0  0
   45.8650   30.7550   38.7260 N   0  0  0  0  0  0  0  0  0  0  0  0
   46.6860   31.7000   38.2050 C   0  0  0  0  0  0  0  0  0  0  0  0
   47.6020   32.3320   38.9630 N   0  0  0  0  0  0  0  0  0  0  0  0
   46.7390   34.6610   41.4670 S   0  0  0  0  0  0  0  0  0  0  0  0
   44.5560   36.0760   44.5820 C   0  0  0  0  0  0  0  0  0  0  0  0
   45.1550   35.9750   43.3230 C   0  0  0  0  0  0  0  0  0  0  0  0
   45.9500   34.8590   43.0360 C   0  0  0  0  0  0  0  0  0  0  0  0
   46.1030   33.9020   44.0280 N   0  0  0  0  0  0  0  0  0  0  0  0
   45.5120   34.0320   45.2300 C   0  0  0  0  0  0  0  0  0  0  0  0
   44.7450   35.1020   45.5180 N   0  0  0  0  0  0  0  0  0  0  0  0
   48.9412   35.6511   42.9233 H   0  0  0  0  0  0  0  0  0  0  0  0
   51.2257   34.7896   43.2647 H   0  0  0  0  0  0  0  0  0  0  0  0
   51.9644   32.6607   42.2250 H   0  0  0  0  0  0  0  0  0  0  0  0
   50.3651   31.3703   40.8134 H   0  0  0  0  0  0  0  0  0  0  0  0
   47.0275   30.8754   41.8584 H   0  0  0  0  0  0  0  0  0  0  0  0
   45.3636   29.7222   40.5010 H   0  0  0  0  0  0  0  0  0  0  0  0
   46.6018   31.9562   37.1386 H   0  0  0  0  0  0  0  0  0  0  0  0
   43.9278   36.9471   44.8196 H   0  0  0  0  0  0  0  0  0  0  0  0
   45.0039   36.7612   42.5686 H   0  0  0  0  0  0  0  0  0  0  0  0
   45.6575   33.2511   45.9909 H   0  0  0  0  0  0  0  0  0  0  0  0
  1  2  2  0
  2  3  1  0
  4  3  2  0
  5  4  1  0
  6  5  2  0
  6  1  1  0
  7  8  2  0
  7  6  1  0
  9  8  1  0
 10  9  2  0
 11 10  1  0
 11 12  2  0
 12  7  1  0
 13  1  1  0
 13 16  1  0
 14 19  2  0
 15 14  1  0
 16 15  2  0
 16 17  1  0
 17 18  2  0
 18 19  1  0
  2 20  1  0
  3 21  1  0
  4 22  1  0
  5 23  1  0
  8 24  1  0
  9 25  1  0
 11 26  1  0
 14 27  1  0
 15 28  1  0
 18 29  1  0
M  ISO  8  20  14  21  14  22  14  23  14  24  14  25  14  26  14  27  14
M  ISO  2  28  14  29  14
M  END
>  <minimizedAffinity>  (1) 
-4.76192713

>  <minimizedRMSD>  (1) 
0.290519059

$$$$
