
     RDKit          3D

 29 31  0  0  0  0  0  0  0  0999 V2000
   48.3640   33.9870   41.6750 C   0  0  0  0  0  0  0  0  0  0  0  0
   49.2440   34.7220   42.4510 C   0  0  0  0  0  0  0  0  0  0  0  0
   50.5220   34.2330   42.6380 C   0  0  0  0  0  0  0  0  0  0  0  0
   50.9440   33.0350   42.0730 C   0  0  0  0  0  0  0  0  0  0  0  0
   50.0520   32.3150   41.3020 C   0  0  0  0  0  0  0  0  0  0  0  0
   48.7710   32.7830   41.1020 C   0  0  0  0  0  0  0  0  0  0  0  0
   47.7880   32.0650   40.2980 C   0  0  0  0  0  0  0  0  0  0  0  0
   46.9600   31.1080   40.8030 C   0  0  0  0  0  0  0  0  0  0  0  0
   46.0160   30.4070   40.0600 C   0  0  0  0  0  0  0  0  0  0  0  0
   45.9280   30.7160   38.7320 N   0  0  0  0  0  0  0  0  0  0  0  0
   46.7380   31.6630   38.2000 C   0  0  0  0  0  0  0  0  0  0  0  0
   47.6320   32.3050   38.9740 N   0  0  0  0  0  0  0  0  0  0  0  0
   46.7300   34.6490   41.4580 S   0  0  0  0  0  0  0  0  0  0  0  0
   44.5570   36.0820   44.5860 C   0  0  0  0  0  0  0  0  0  0  0  0
   45.1500   35.9800   43.3210 C   0  0  0  0  0  0  0  0  0  0  0  0
   45.9440   34.8560   43.0310 C   0  0  0  0  0  0  0  0  0  0  0  0
   46.0930   33.9040   44.0220 N   0  0  0  0  0  0  0  0  0  0  0  0
   45.5100   34.0280   45.2260 C   0  0  0  0  0  0  0  0  0  0  0  0
   44.7520   35.0940   45.5190 N   0  0  0  0  0  0  0  0  0  0  0  0
   48.9326   35.6730   42.9078 H   0  0  0  0  0  0  0  0  0  0  0  0
   51.2282   34.8096   43.2534 H   0  0  0  0  0  0  0  0  0  0  0  0
   51.9679   32.6676   42.2366 H   0  0  0  0  0  0  0  0  0  0  0  0
   50.3653   31.3643   40.8458 H   0  0  0  0  0  0  0  0  0  0  0  0
   47.0441   30.8731   41.8743 H   0  0  0  0  0  0  0  0  0  0  0  0
   45.3723   29.6419   40.5187 H   0  0  0  0  0  0  0  0  0  0  0  0
   46.6644   31.9081   37.1302 H   0  0  0  0  0  0  0  0  0  0  0  0
   43.9344   36.9548   44.8321 H   0  0  0  0  0  0  0  0  0  0  0  0
   44.9971   36.7661   42.5669 H   0  0  0  0  0  0  0  0  0  0  0  0
   45.6569   33.2431   45.9826 H   0  0  0  0  0  0  0  0  0  0  0  0
  1  2  2  0
  2  3  1  0
  4  3  2  0
  5  4  1  0
  6  5  2  0
  6  1  1  0
  7  8  2  0
  7  6  1  0
  9  8  1  0
 10  9  2  0
 11 10  1  0
 11 12  2  0
 12  7  1  0
 13  1  1  0
 13 16  1  0
 14 19  2  0
 15 14  1  0
 16 15  2  0
 16 17  1  0
 17 18  2  0
 18 19  1  0
  2 20  1  0
  3 21  1  0
  4 22  1  0
  5 23  1  0
  8 24  1  0
  9 25  1  0
 11 26  1  0
 14 27  1  0
 15 28  1  0
 18 29  1  0
M  ISO  8  20  14  21  14  22  14  23  14  24  14  25  14  26  14  27  14
M  ISO  2  28  14  29  14
M  END
>  <minimizedAffinity>  (1) 
-4.761693

>  <minimizedRMSD>  (1) 
0.268483549

$$$$
