
     RDKit          3D

 28 30  0  0  0  0  0  0  0  0999 V2000
   48.3160   33.9960   41.6690 C   0  0  0  0  0  0  0  0  0  0  0  0
   49.2280   34.7300   42.4230 C   0  0  0  0  0  0  0  0  0  0  0  0
   50.5000   34.2340   42.6070 C   0  0  0  0  0  0  0  0  0  0  0  0
   50.9100   33.0070   42.0580 C   0  0  0  0  0  0  0  0  0  0  0  0
   49.9900   32.2710   41.3010 C   0  0  0  0  0  0  0  0  0  0  0  0
   48.7340   32.7900   41.1350 C   0  0  0  0  0  0  0  0  0  0  0  0
   47.7280   32.1220   40.3850 N   0  0  0  0  0  0  0  0  0  0  0  0
   46.6990   31.3470   40.6880 N   0  0  0  0  0  0  0  0  0  0  0  0
   46.0520   30.9730   39.5670 C   0  0  0  0  0  0  0  0  0  0  0  0
   46.7240   31.5560   38.4880 C   0  0  0  0  0  0  0  0  0  0  0  0
   47.7780   32.2750   39.0480 C   0  0  0  0  0  0  0  0  0  0  0  0
   46.7070   34.6920   41.4750 S   0  0  0  0  0  0  0  0  0  0  0  0
   44.5420   36.0720   44.6360 C   0  0  0  0  0  0  0  0  0  0  0  0
   45.1280   35.9950   43.3560 C   0  0  0  0  0  0  0  0  0  0  0  0
   45.9230   34.8870   43.0550 C   0  0  0  0  0  0  0  0  0  0  0  0
   46.0900   33.9240   44.0350 N   0  0  0  0  0  0  0  0  0  0  0  0
   45.5090   34.0360   45.2510 C   0  0  0  0  0  0  0  0  0  0  0  0
   44.7430   35.0960   45.5520 N   0  0  0  0  0  0  0  0  0  0  0  0
   48.9365   35.6937   42.8661 H   0  0  0  0  0  0  0  0  0  0  0  0
   51.2178   34.8170   43.2027 H   0  0  0  0  0  0  0  0  0  0  0  0
   51.9317   32.6327   42.2194 H   0  0  0  0  0  0  0  0  0  0  0  0
   50.2680   31.3054   40.8534 H   0  0  0  0  0  0  0  0  0  0  0  0
   45.1617   30.3294   39.5109 H   0  0  0  0  0  0  0  0  0  0  0  0
   46.4731   31.4658   37.4208 H   0  0  0  0  0  0  0  0  0  0  0  0
   48.5223   32.8656   38.4937 H   0  0  0  0  0  0  0  0  0  0  0  0
   43.9130   36.9369   44.8937 H   0  0  0  0  0  0  0  0  0  0  0  0
   44.9630   36.7885   42.6123 H   0  0  0  0  0  0  0  0  0  0  0  0
   45.6662   33.2485   46.0027 H   0  0  0  0  0  0  0  0  0  0  0  0
  1  2  2  0
  2  3  1  0
  4  3  2  0
  5  4  1  0
  6  5  2  0
  6  1  1  0
  7  8  1  0
  7  6  1  0
  9  8  2  0
 10 11  2  0
 10  9  1  0
 11  7  1  0
 12  1  1  0
 12 15  1  0
 13 18  2  0
 14 13  1  0
 15 14  2  0
 15 16  1  0
 16 17  2  0
 17 18  1  0
  2 19  1  0
  3 20  1  0
  4 21  1  0
  5 22  1  0
  9 23  1  0
 10 24  1  0
 11 25  1  0
 13 26  1  0
 14 27  1  0
 17 28  1  0
M  ISO  8  19  14  20  14  21  14  22  14  23  14  24  14  25  14  26  14
M  ISO  2  27  14  28  14
M  END
>  <minimizedAffinity>  (1) 
-4.7195425

>  <minimizedRMSD>  (1) 
0.316664189

$$$$
