
     RDKit          3D

 27 29  0  0  0  0  0  0  0  0999 V2000
   48.3440   34.0090   41.7090 C   0  0  0  0  0  0  0  0  0  0  0  0
   49.2440   34.7720   42.4340 C   0  0  0  0  0  0  0  0  0  0  0  0
   50.5130   34.2780   42.6160 C   0  0  0  0  0  0  0  0  0  0  0  0
   50.9120   33.0530   42.1010 C   0  0  0  0  0  0  0  0  0  0  0  0
   50.0020   32.3040   41.3790 C   0  0  0  0  0  0  0  0  0  0  0  0
   48.7320   32.7750   41.1840 C   0  0  0  0  0  0  0  0  0  0  0  0
   47.7110   32.0470   40.4360 C   0  0  0  0  0  0  0  0  0  0  0  0
   47.6760   32.1930   38.9710 C   0  0  0  0  0  0  0  0  0  0  0  0
   46.3110   31.1670   38.4130 S   0  0  0  0  0  0  0  0  0  0  0  0
   45.9540   30.6670   40.2120 C   0  0  0  0  0  0  0  0  0  0  0  0
   46.7390   31.2280   40.7820 N   0  0  0  0  0  0  0  0  0  0  0  0
   46.7060   34.6660   41.4850 S   0  0  0  0  0  0  0  0  0  0  0  0
   44.5370   36.0700   44.6490 C   0  0  0  0  0  0  0  0  0  0  0  0
   45.1170   35.9980   43.3620 C   0  0  0  0  0  0  0  0  0  0  0  0
   45.9190   34.8730   43.0700 C   0  0  0  0  0  0  0  0  0  0  0  0
   46.0830   33.9200   44.0560 N   0  0  0  0  0  0  0  0  0  0  0  0
   45.5060   34.0320   45.2730 C   0  0  0  0  0  0  0  0  0  0  0  0
   44.7430   35.0940   45.5660 N   0  0  0  0  0  0  0  0  0  0  0  0
   48.9511   35.7462   42.8524 H   0  0  0  0  0  0  0  0  0  0  0  0
   51.2377   34.8743   43.1898 H   0  0  0  0  0  0  0  0  0  0  0  0
   51.9353   32.6841   42.2645 H   0  0  0  0  0  0  0  0  0  0  0  0
   50.2983   31.3304   40.9616 H   0  0  0  0  0  0  0  0  0  0  0  0
   48.3463   32.8034   38.3480 H   0  0  0  0  0  0  0  0  0  0  0  0
   45.1726   29.9953   40.5970 H   0  0  0  0  0  0  0  0  0  0  0  0
   43.9075   36.9333   44.9106 H   0  0  0  0  0  0  0  0  0  0  0  0
   44.9499   36.7887   42.6158 H   0  0  0  0  0  0  0  0  0  0  0  0
   45.6636   33.2470   46.0273 H   0  0  0  0  0  0  0  0  0  0  0  0
  1  2  2  0
  2  3  1  0
  4  3  2  0
  5  4  1  0
  6  5  2  0
  6  1  1  0
  7 11  1  0
  7  6  1  0
  8  7  2  0
  9  8  1  0
  9 10  1  0
 10 11  2  0
 12  1  1  0
 12 15  1  0
 13 18  2  0
 14 13  1  0
 15 14  2  0
 15 16  1  0
 16 17  2  0
 17 18  1  0
  2 19  1  0
  3 20  1  0
  4 21  1  0
  5 22  1  0
  8 23  1  0
 10 24  1  0
 13 25  1  0
 14 26  1  0
 17 27  1  0
M  ISO  8  19  14  20  14  21  14  22  14  23  14  24  14  25  14  26  14
M  ISO  1  27  14
M  END
>  <minimizedAffinity>  (1) 
-4.70502329

>  <minimizedRMSD>  (1) 
0.270896792

$$$$
