
     RDKit          3D

 28 30  0  0  0  0  0  0  0  0999 V2000
   48.3240   33.9750   41.6620 C   0  0  0  0  0  0  0  0  0  0  0  0
   49.2250   34.7020   42.4260 C   0  0  0  0  0  0  0  0  0  0  0  0
   50.5100   34.2380   42.6260 C   0  0  0  0  0  0  0  0  0  0  0  0
   50.9200   33.0320   42.0640 C   0  0  0  0  0  0  0  0  0  0  0  0
   50.0250   32.3000   41.3000 C   0  0  0  0  0  0  0  0  0  0  0  0
   48.7540   32.7890   41.1180 C   0  0  0  0  0  0  0  0  0  0  0  0
   47.8080   32.0210   40.3130 C   0  0  0  0  0  0  0  0  0  0  0  0
   46.9890   30.9800   40.7590 C   0  0  0  0  0  0  0  0  0  0  0  0
   46.2320   30.4970   39.7040 C   0  0  0  0  0  0  0  0  0  0  0  0
   46.5960   31.2450   38.6390 N   0  0  0  0  0  0  0  0  0  0  0  0
   47.5120   32.1260   39.0060 N   0  0  0  0  0  0  0  0  0  0  0  0
   46.7050   34.6500   41.4610 S   0  0  0  0  0  0  0  0  0  0  0  0
   44.5510   36.0750   44.6100 C   0  0  0  0  0  0  0  0  0  0  0  0
   45.1330   35.9800   43.3410 C   0  0  0  0  0  0  0  0  0  0  0  0
   45.9260   34.8490   43.0510 C   0  0  0  0  0  0  0  0  0  0  0  0
   46.0800   33.9000   44.0420 N   0  0  0  0  0  0  0  0  0  0  0  0
   45.5010   34.0350   45.2430 C   0  0  0  0  0  0  0  0  0  0  0  0
   44.7380   35.1090   45.5420 N   0  0  0  0  0  0  0  0  0  0  0  0
   48.9133   35.6560   42.8762 H   0  0  0  0  0  0  0  0  0  0  0  0
   51.2145   34.8251   43.2334 H   0  0  0  0  0  0  0  0  0  0  0  0
   51.9440   32.6639   42.2248 H   0  0  0  0  0  0  0  0  0  0  0  0
   50.3269   31.3441   40.8472 H   0  0  0  0  0  0  0  0  0  0  0  0
   46.9512   30.6016   41.7912 H   0  0  0  0  0  0  0  0  0  0  0  0
   45.4944   29.6813   39.7280 H   0  0  0  0  0  0  0  0  0  0  0  0
   46.2177   31.1444   37.6863 H   0  0  0  0  0  0  0  0  0  0  0  0
   43.9305   36.9495   44.8555 H   0  0  0  0  0  0  0  0  0  0  0  0
   44.9764   36.7669   42.5885 H   0  0  0  0  0  0  0  0  0  0  0  0
   45.6504   33.2536   46.0026 H   0  0  0  0  0  0  0  0  0  0  0  0
  1  2  2  0
  2  3  1  0
  4  3  2  0
  5  4  1  0
  6  5  2  0
  6  1  1  0
  7  8  1  0
  7  6  1  0
  9  8  2  0
 10 11  1  0
 10  9  1  0
 11  7  2  0
 12  1  1  0
 12 15  1  0
 13 18  2  0
 14 13  1  0
 15 14  2  0
 15 16  1  0
 16 17  2  0
 17 18  1  0
  2 19  1  0
  3 20  1  0
  4 21  1  0
  5 22  1  0
  8 23  1  0
  9 24  1  0
 10 25  1  0
 13 26  1  0
 14 27  1  0
 17 28  1  0
M  ISO  8  19  14  20  14  21  14  22  14  23  14  24  14  25   9  26  14
M  ISO  2  27  14  28  14
M  END
>  <minimizedAffinity>  (1) 
-4.67818213

>  <minimizedRMSD>  (1) 
0.212427005

$$$$
