
     RDKit          3D

 24 25  0  0  0  0  0  0  0  0999 V2000
   48.3110   33.9620   41.7030 C   0  0  0  0  0  0  0  0  0  0  0  0
   49.2400   34.7470   42.4030 C   0  0  0  0  0  0  0  0  0  0  0  0
   50.5180   34.3000   42.6040 C   0  0  0  0  0  0  0  0  0  0  0  0
   50.9380   33.0550   42.1230 C   0  0  0  0  0  0  0  0  0  0  0  0
   50.0310   32.2680   41.4310 C   0  0  0  0  0  0  0  0  0  0  0  0
   48.7580   32.7400   41.2420 C   0  0  0  0  0  0  0  0  0  0  0  0
   47.6990   31.9630   40.5030 C   0  0  0  0  0  0  0  0  0  0  0  0
   46.6480   31.8460   41.4240 F   0  0  0  0  0  0  0  0  0  0  0  0
   47.2120   32.7650   39.4630 F   0  0  0  0  0  0  0  0  0  0  0  0
   48.1470   30.7580   40.0490 F   0  0  0  0  0  0  0  0  0  0  0  0
   46.6960   34.6230   41.4950 S   0  0  0  0  0  0  0  0  0  0  0  0
   44.5330   36.0800   44.6280 C   0  0  0  0  0  0  0  0  0  0  0  0
   45.1260   35.9720   43.3450 C   0  0  0  0  0  0  0  0  0  0  0  0
   45.9130   34.8490   43.0680 C   0  0  0  0  0  0  0  0  0  0  0  0
   46.0650   33.9050   44.0770 N   0  0  0  0  0  0  0  0  0  0  0  0
   45.4910   34.0380   45.2730 C   0  0  0  0  0  0  0  0  0  0  0  0
   44.7280   35.1160   45.5580 N   0  0  0  0  0  0  0  0  0  0  0  0
   48.9385   35.7301   42.7936 H   0  0  0  0  0  0  0  0  0  0  0  0
   51.2295   34.9326   43.1550 H   0  0  0  0  0  0  0  0  0  0  0  0
   51.9681   32.7076   42.2908 H   0  0  0  0  0  0  0  0  0  0  0  0
   50.3271   31.2831   41.0408 H   0  0  0  0  0  0  0  0  0  0  0  0
   43.9098   36.9536   44.8696 H   0  0  0  0  0  0  0  0  0  0  0  0
   44.9711   36.7524   42.5854 H   0  0  0  0  0  0  0  0  0  0  0  0
   45.6404   33.2607   46.0369 H   0  0  0  0  0  0  0  0  0  0  0  0
  1  2  2  0
  2  3  1  0
  4  3  2  0
  5  4  1  0
  6  5  2  0
  6  1  1  0
  7  6  1  0
  7  8  1  0
  9  7  1  0
 10  7  1  0
 11  1  1  0
 11 14  1  0
 12 17  2  0
 13 12  1  0
 14 13  2  0
 14 15  1  0
 15 16  2  0
 16 17  1  0
  2 18  1  0
  3 19  1  0
  4 20  1  0
  5 21  1  0
 12 22  1  0
 13 23  1  0
 16 24  1  0
M  ISO  7  18  14  19  14  20  14  21  14  22  14  23  14  24  14
M  END
>  <minimizedAffinity>  (1) 
-4.6625843

>  <minimizedRMSD>  (1) 
0.192622915

$$$$
