
     RDKit          3D

 22 23  0  0  0  0  0  0  0  0999 V2000
   48.3000   33.9280   41.6980 C   0  0  0  0  0  0  0  0  0  0  0  0
   49.1950   34.7290   42.3980 C   0  0  0  0  0  0  0  0  0  0  0  0
   50.4840   34.2900   42.5920 C   0  0  0  0  0  0  0  0  0  0  0  0
   50.9230   33.0570   42.1040 C   0  0  0  0  0  0  0  0  0  0  0  0
   50.0290   32.2650   41.4090 C   0  0  0  0  0  0  0  0  0  0  0  0
   48.7350   32.7080   41.2150 C   0  0  0  0  0  0  0  0  0  0  0  0
   47.7450   31.9920   40.5270 O   0  0  0  0  0  0  0  0  0  0  0  0
   46.6600   34.5420   41.4790 S   0  0  0  0  0  0  0  0  0  0  0  0
   44.5560   36.0930   44.5940 C   0  0  0  0  0  0  0  0  0  0  0  0
   45.1240   35.9690   43.3220 C   0  0  0  0  0  0  0  0  0  0  0  0
   45.8870   34.8150   43.0600 C   0  0  0  0  0  0  0  0  0  0  0  0
   46.0240   33.8900   44.0670 N   0  0  0  0  0  0  0  0  0  0  0  0
   45.4570   34.0480   45.2850 C   0  0  0  0  0  0  0  0  0  0  0  0
   44.7260   35.1470   45.5490 N   0  0  0  0  0  0  0  0  0  0  0  0
   48.8754   35.7046   42.7930 H   0  0  0  0  0  0  0  0  0  0  0  0
   51.1884   34.9273   43.1466 H   0  0  0  0  0  0  0  0  0  0  0  0
   51.9581   32.7236   42.2694 H   0  0  0  0  0  0  0  0  0  0  0  0
   50.3455   31.2887   41.0131 H   0  0  0  0  0  0  0  0  0  0  0  0
   46.8371   32.3739   40.4272 H   0  0  0  0  0  0  0  0  0  0  0  0
   43.9540   36.9840   44.8258 H   0  0  0  0  0  0  0  0  0  0  0  0
   44.9800   36.7441   42.5549 H   0  0  0  0  0  0  0  0  0  0  0  0
   45.5933   33.2787   46.0593 H   0  0  0  0  0  0  0  0  0  0  0  0
  1  2  2  0
  2  3  1  0
  4  3  2  0
  5  4  1  0
  6  5  2  0
  6  1  1  0
  7  6  1  0
  8  1  1  0
  8 11  1  0
  9 14  2  0
 10  9  1  0
 11 10  2  0
 11 12  1  0
 12 13  2  0
 13 14  1  0
  2 15  1  0
  3 16  1  0
  4 17  1  0
  5 18  1  0
  7 19  1  0
  9 20  1  0
 10 21  1  0
 13 22  1  0
M  ISO  8  15  14  16  14  17  14  18  14  19   3  20  14  21  14  22  14
M  END
>  <minimizedAffinity>  (1) 
-4.63015938

>  <minimizedRMSD>  (1) 
0.0257800501

$$$$
