
     RDKit          3D

 33 35  0  0  0  0  0  0  0  0999 V2000
   44.4970   36.0210   44.5330 C   0  0  0  0  0  0  0  0  0  0  0  0
   45.1090   35.9720   43.2770 C   0  0  0  0  0  0  0  0  0  0  0  0
   46.0090   34.9210   43.0250 C   0  0  0  0  0  0  0  0  0  0  0  0
   46.2340   34.0000   44.0330 N   0  0  0  0  0  0  0  0  0  0  0  0
   45.6170   34.0940   45.2250 C   0  0  0  0  0  0  0  0  0  0  0  0
   44.7600   35.0890   45.4770 N   0  0  0  0  0  0  0  0  0  0  0  0
   45.8750   33.1270   46.2370 N   0  0  0  0  0  0  0  0  0  0  0  0
   45.2400   33.1670   47.4090 C   0  0  0  0  0  0  0  0  0  0  0  0
   45.4280   32.2660   48.4550 C   0  0  0  0  0  0  0  0  0  0  0  0
   46.3480   31.2690   48.2230 C   0  0  0  0  0  0  0  0  0  0  0  0
   46.5580   30.3410   49.2670 N   0  0  0  0  0  0  0  0  0  0  0  0
   46.9770   31.2350   47.0550 N   0  0  0  0  0  0  0  0  0  0  0  0
   46.7670   32.1350   46.0540 C   0  0  0  0  0  0  0  0  0  0  0  0
   47.3860   32.0600   44.9650 O   0  0  0  0  0  0  0  0  0  0  0  0
   46.8440   34.7610   41.4630 S   0  0  0  0  0  0  0  0  0  0  0  0
   48.4260   34.0080   41.6840 C   0  0  0  0  0  0  0  0  0  0  0  0
   49.3860   34.7370   42.3740 C   0  0  0  0  0  0  0  0  0  0  0  0
   50.6380   34.1850   42.5690 C   0  0  0  0  0  0  0  0  0  0  0  0
   50.9590   32.9090   42.0880 C   0  0  0  0  0  0  0  0  0  0  0  0
   50.0000   32.1970   41.4060 C   0  0  0  0  0  0  0  0  0  0  0  0
   48.7470   32.7560   41.2140 C   0  0  0  0  0  0  0  0  0  0  0  0
   47.7000   32.1250   40.5380 O   0  0  0  0  0  0  0  0  0  0  0  0
   43.7888   36.8322   44.7575 H   0  0  0  0  0  0  0  0  0  0  0  0
   44.8936   36.7310   42.5105 H   0  0  0  0  0  0  0  0  0  0  0  0
   44.5099   33.9754   47.5620 H   0  0  0  0  0  0  0  0  0  0  0  0
   44.8773   32.3462   49.4039 H   0  0  0  0  0  0  0  0  0  0  0  0
   47.2356   29.5747   49.1463 H   0  0  0  0  0  0  0  0  0  0  0  0
   46.0336   30.4306   50.1490 H   0  0  0  0  0  0  0  0  0  0  0  0
   49.1530   35.7403   42.7601 H   0  0  0  0  0  0  0  0  0  0  0  0
   51.4001   34.7609   43.1145 H   0  0  0  0  0  0  0  0  0  0  0  0
   51.9601   32.4841   42.2528 H   0  0  0  0  0  0  0  0  0  0  0  0
   50.2258   31.1933   41.0167 H   0  0  0  0  0  0  0  0  0  0  0  0
   46.8284   32.5835   40.4371 H   0  0  0  0  0  0  0  0  0  0  0  0
  1  6  2  0
  2  1  1  0
  3  2  2  0
  3  4  1  0
  4  5  2  0
  5  6  1  0
  5  7  1  0
  7  8  1  0
  8  9  2  0
 10  9  1  0
 10 11  1  0
 12 10  2  0
 13  7  1  0
 13 12  1  0
 14 13  2  0
 15 16  1  0
 15  3  1  0
 16 17  2  0
 17 18  1  0
 19 18  2  0
 20 19  1  0
 21 20  2  0
 21 16  1  0
 22 21  1  0
  1 23  1  0
  2 24  1  0
  8 25  1  0
  9 26  1  0
 11 27  1  0
 11 28  1  0
 17 29  1  0
 18 30  1  0
 19 31  1  0
 20 32  1  0
 22 33  1  0
M  ISO  8  23  14  24  14  25  14  26  14  29  14  30  14  31  14  32  14
M  ISO  1  33   3
M  END
>  <minimizedAffinity>  (1) 
-6.87139511

>  <minimizedRMSD>  (1) 
0.280684561

$$$$
