
     RDKit          3D

 35 38  0  0  0  0  0  0  0  0999 V2000
   44.5380   36.1260   44.5860 C   0  0  0  0  0  0  0  0  0  0  0  0
   45.1070   36.0170   43.3190 C   0  0  0  0  0  0  0  0  0  0  0  0
   45.9000   34.8870   43.0500 C   0  0  0  0  0  0  0  0  0  0  0  0
   46.0660   33.9620   44.0500 N   0  0  0  0  0  0  0  0  0  0  0  0
   45.5000   34.1030   45.2610 C   0  0  0  0  0  0  0  0  0  0  0  0
   44.7380   35.1820   45.5270 N   0  0  0  0  0  0  0  0  0  0  0  0
   45.7070   33.1100   46.2610 N   0  0  0  0  0  0  0  0  0  0  0  0
   45.2030   33.0260   47.5170 C   0  0  0  0  0  0  0  0  0  0  0  0
   45.6810   31.9030   48.1010 N   0  0  0  0  0  0  0  0  0  0  0  0
   46.4800   31.2940   47.2040 C   0  0  0  0  0  0  0  0  0  0  0  0
   47.2360   30.1390   47.2060 C   0  0  0  0  0  0  0  0  0  0  0  0
   47.9670   29.7600   46.1200 N   0  0  0  0  0  0  0  0  0  0  0  0
   47.9730   30.5140   44.9950 C   0  0  0  0  0  0  0  0  0  0  0  0
   47.2310   31.6340   45.0100 N   0  0  0  0  0  0  0  0  0  0  0  0
   46.5000   32.0440   46.0510 C   0  0  0  0  0  0  0  0  0  0  0  0
   47.2730   29.3030   48.3580 N   0  0  0  0  0  0  0  0  0  0  0  0
   46.6820   34.6360   41.4620 S   0  0  0  0  0  0  0  0  0  0  0  0
   48.3040   33.9690   41.6760 C   0  0  0  0  0  0  0  0  0  0  0  0
   49.2290   34.7470   42.3780 C   0  0  0  0  0  0  0  0  0  0  0  0
   50.5010   34.2690   42.5680 C   0  0  0  0  0  0  0  0  0  0  0  0
   50.8960   33.0140   42.0730 C   0  0  0  0  0  0  0  0  0  0  0  0
   49.9720   32.2600   41.3830 C   0  0  0  0  0  0  0  0  0  0  0  0
   48.7000   32.7390   41.1930 C   0  0  0  0  0  0  0  0  0  0  0  0
   47.6910   32.0550   40.5100 O   0  0  0  0  0  0  0  0  0  0  0  0
   43.9132   36.9997   44.8231 H   0  0  0  0  0  0  0  0  0  0  0  0
   44.9414   36.7897   42.5538 H   0  0  0  0  0  0  0  0  0  0  0  0
   44.5192   33.7504   47.9836 H   0  0  0  0  0  0  0  0  0  0  0  0
   48.5581   30.2230   44.1102 H   0  0  0  0  0  0  0  0  0  0  0  0
   47.8394   28.4427   48.3520 H   0  0  0  0  0  0  0  0  0  0  0  0
   46.7334   29.5585   49.1973 H   0  0  0  0  0  0  0  0  0  0  0  0
   48.9403   35.7319   42.7739 H   0  0  0  0  0  0  0  0  0  0  0  0
   51.2284   34.8819   43.1204 H   0  0  0  0  0  0  0  0  0  0  0  0
   51.9190   32.6426   42.2328 H   0  0  0  0  0  0  0  0  0  0  0  0
   50.2538   31.2742   40.9845 H   0  0  0  0  0  0  0  0  0  0  0  0
   46.7948   32.4639   40.4118 H   0  0  0  0  0  0  0  0  0  0  0  0
  1  6  2  0
  2  1  1  0
  3  2  2  0
  3  4  1  0
  4  5  2  0
  5  6  1  0
  5  7  1  0
  7  8  1  0
  8  9  2  0
 10 11  2  0
 10  9  1  0
 11 16  1  0
 12 11  1  0
 13 14  1  0
 13 12  2  0
 14 15  2  0
 15  7  1  0
 15 10  1  0
 17 18  1  0
 17  3  1  0
 18 19  2  0
 19 20  1  0
 21 20  2  0
 22 21  1  0
 23 22  2  0
 23 18  1  0
 24 23  1  0
  1 25  1  0
  2 26  1  0
  8 27  1  0
 13 28  1  0
 16 29  1  0
 16 30  1  0
 19 31  1  0
 20 32  1  0
 21 33  1  0
 22 34  1  0
 24 35  1  0
M  ISO  8  25  14  26  14  27  14  28  14  31  14  32  14  33  14  34  14
M  ISO  1  35   3
M  END
>  <minimizedAffinity>  (1) 
-6.83857155

>  <minimizedRMSD>  (1) 
0.12844564

$$$$
