
     RDKit          3D

 53 56  0  0  1  0  0  0  0  0999 V2000
   47.8550   33.3160   43.4690 C   0  0  0  0  0  0  0  0  0  0  0  0
   47.8470   34.5460   41.2830 C   0  0  2  0  0  0  0  0  0  0  0  0
   48.6140   35.6580   41.6620 C   0  0  0  0  0  0  0  0  0  0  0  0
   49.9420   35.1180   42.2590 C   0  0  0  0  0  0  0  0  0  0  0  0
   49.9040   33.6060   42.1720 C   0  0  0  0  0  0  0  0  0  0  0  0
   48.4720   33.3460   42.1010 C   0  0  1  0  0  0  0  0  0  0  0  0
   47.7940   34.0320   39.8920 C   0  0  0  0  0  0  0  0  0  0  0  0
   48.4260   34.7660   38.9180 C   0  0  0  0  0  0  0  0  0  0  0  0
   48.4280   34.3520   37.6060 C   0  0  0  0  0  0  0  0  0  0  0  0
   47.7590   33.1700   37.3540 N   0  0  0  0  0  0  0  0  0  0  0  0
   47.1580   32.4860   38.3190 C   0  0  0  0  0  0  0  0  0  0  0  0
   47.1650   32.9010   39.5960 N   0  0  0  0  0  0  0  0  0  0  0  0
   46.4400   32.8380   43.4250 C   0  0  0  0  0  0  0  0  0  0  0  0
   45.6360   33.8440   44.1790 C   0  0  0  0  0  0  0  0  0  0  0  0
   44.7920   34.8010   43.7130 C   0  0  0  0  0  0  0  0  0  0  0  0
   44.2850   35.4830   44.7710 N   0  0  0  0  0  0  0  0  0  0  0  0
   44.8130   34.9470   45.8740 C   0  0  0  0  0  0  0  0  0  0  0  0
   45.6170   33.9730   45.5460 N   0  0  0  0  0  0  0  0  0  0  0  0
   46.3980   33.1200   46.4710 C   0  0  0  0  0  0  0  0  0  0  0  0
   45.4820   32.2830   47.2610 N   0  0  0  0  0  0  0  0  0  0  0  0
   45.6320   30.9580   46.7650 C   0  0  0  0  0  0  0  0  0  0  0  0
   45.0680   29.8980   47.6790 C   0  0  0  0  0  0  0  0  0  0  0  0
   45.5290   30.0160   49.0260 N   0  0  0  0  0  0  0  0  0  0  0  0
   45.1920   31.3210   49.4990 C   0  0  0  0  0  0  0  0  0  0  0  0
   45.7430   32.4410   48.6540 C   0  0  0  0  0  0  0  0  0  0  0  0
   48.4402   32.6399   44.1096 H   0  0  0  0  0  0  0  0  0  0  0  0
   47.8594   34.3401   43.8704 H   0  0  0  0  0  0  0  0  0  0  0  0
   46.8197   34.9006   41.4529 H   0  0  0  0  0  0  0  0  0  0  0  0
   48.8237   36.2878   40.7849 H   0  0  0  0  0  0  0  0  0  0  0  0
   48.0751   36.2710   42.3995 H   0  0  0  0  0  0  0  0  0  0  0  0
   50.7961   35.5051   41.6840 H   0  0  0  0  0  0  0  0  0  0  0  0
   50.0544   35.4414   43.3044 H   0  0  0  0  0  0  0  0  0  0  0  0
   50.4217   33.2437   41.2716 H   0  0  0  0  0  0  0  0  0  0  0  0
   50.4072   33.0994   43.0088 H   0  0  0  0  0  0  0  0  0  0  0  0
   48.2843   32.3699   41.6299 H   0  0  0  0  0  0  0  0  0  0  0  0
   48.9388   35.6999   39.1915 H   0  0  0  0  0  0  0  0  0  0  0  0
   48.9288   34.9239   36.8109 H   0  0  0  0  0  0  0  0  0  0  0  0
   46.6381   31.5504   38.0652 H   0  0  0  0  0  0  0  0  0  0  0  0
   46.0914   32.7745   42.3836 H   0  0  0  0  0  0  0  0  0  0  0  0
   46.3422   31.8351   43.8663 H   0  0  0  0  0  0  0  0  0  0  0  0
   44.5586   34.9913   42.6550 H   0  0  0  0  0  0  0  0  0  0  0  0
   44.6024   35.2762   46.9022 H   0  0  0  0  0  0  0  0  0  0  0  0
   47.0752   32.4755   45.8913 H   0  0  0  0  0  0  0  0  0  0  0  0
   46.9864   33.7573   47.1475 H   0  0  0  0  0  0  0  0  0  0  0  0
   45.1165   30.8901   45.7956 H   0  0  0  0  0  0  0  0  0  0  0  0
   46.7122   30.7675   46.6817 H   0  0  0  0  0  0  0  0  0  0  0  0
   43.9711   29.9807   47.6759 H   0  0  0  0  0  0  0  0  0  0  0  0
   45.4088   28.9232   47.3000 H   0  0  0  0  0  0  0  0  0  0  0  0
   45.0739   29.3034   49.6142 H   0  0  0  0  0  0  0  0  0  0  0  0
   44.0957   31.4094   49.5183 H   0  0  0  0  0  0  0  0  0  0  0  0
   45.6431   31.4239   50.4970 H   0  0  0  0  0  0  0  0  0  0  0  0
   46.8322   32.4852   48.8015 H   0  0  0  0  0  0  0  0  0  0  0  0
   45.2411   33.3658   48.9747 H   0  0  0  0  0  0  0  0  0  0  0  0
  2  3  1  0
  2  6  1  0
  3  4  1  0
  5  4  1  0
  6  5  1  0
  6  1  1  0
  7  2  1  0
  8  7  2  0
  9  8  1  0
 10  9  2  0
 10 11  1  0
 11 12  2  0
 12  7  1  0
 13  1  1  0
 13 14  1  0
 14 18  1  0
 15 14  2  0
 15 16  1  0
 16 17  2  0
 18 17  1  0
 18 19  1  0
 19 20  1  0
 20 25  1  0
 21 20  1  0
 21 22  1  0
 22 23  1  0
 23 24  1  0
 25 24  1  0
  1 26  1  0
  1 27  1  0
  2 28  1  1
  3 29  1  0
  3 30  1  0
  4 31  1  0
  4 32  1  0
  5 33  1  0
  5 34  1  0
  6 35  1  6
  8 36  1  0
  9 37  1  0
 11 38  1  0
 13 39  1  0
 13 40  1  0
 15 41  1  0
 17 42  1  0
 19 43  1  0
 19 44  1  0
 21 45  1  0
 21 46  1  0
 22 47  1  0
 22 48  1  0
 23 49  1  0
 24 50  1  0
 24 51  1  0
 25 52  1  0
 25 53  1  0
M  ISO  8  26   8  27   8  28  13  29  13  30  13  31  13  32  13  33  13
M  ISO  8  34  13  35  13  36  14  37  14  38  14  39   8  40   8  41  14
M  ISO  8  42  14  43   8  44   8  45  13  46  13  47  13  48  13  49   5
M  ISO  4  50  13  51  13  52  13  53  13
M  END
>  <minimizedAffinity>  (1) 
-6.4071641

>  <minimizedRMSD>  (1) 
0.930042267

$$$$
