
     RDKit          3D

 33 36  0  0  0  0  0  0  0  0999 V2000
   44.4850   36.1980   44.6620 C   0  0  0  0  0  0  0  0  0  0  0  0
   45.0410   35.9860   43.4060 C   0  0  0  0  0  0  0  0  0  0  0  0
   45.7830   34.8210   43.1830 C   0  0  0  0  0  0  0  0  0  0  0  0
   45.9120   33.9510   44.2420 N   0  0  0  0  0  0  0  0  0  0  0  0
   45.3650   34.1760   45.4530 C   0  0  0  0  0  0  0  0  0  0  0  0
   44.6560   35.2900   45.6650 N   0  0  0  0  0  0  0  0  0  0  0  0
   45.6140   33.1610   46.4030 N   0  0  0  0  0  0  0  0  0  0  0  0
   45.1040   33.1220   47.6470 C   0  0  0  0  0  0  0  0  0  0  0  0
   45.5270   32.0430   48.2940 N   0  0  0  0  0  0  0  0  0  0  0  0
   46.3310   31.3980   47.3990 C   0  0  0  0  0  0  0  0  0  0  0  0
   47.0600   30.2220   47.4780 C   0  0  0  0  0  0  0  0  0  0  0  0
   47.7930   29.7850   46.4330 N   0  0  0  0  0  0  0  0  0  0  0  0
   47.8410   30.4740   45.2810 C   0  0  0  0  0  0  0  0  0  0  0  0
   47.1500   31.6010   45.1870 N   0  0  0  0  0  0  0  0  0  0  0  0
   46.4060   32.0770   46.1980 C   0  0  0  0  0  0  0  0  0  0  0  0
   46.5370   34.4420   41.6260 S   0  0  0  0  0  0  0  0  0  0  0  0
   48.2130   33.9120   41.8630 C   0  0  0  0  0  0  0  0  0  0  0  0
   49.1070   34.8500   42.3640 C   0  0  0  0  0  0  0  0  0  0  0  0
   50.4150   34.4760   42.5610 C   0  0  0  0  0  0  0  0  0  0  0  0
   50.8640   33.1790   42.2700 C   0  0  0  0  0  0  0  0  0  0  0  0
   49.9700   32.2620   41.7740 C   0  0  0  0  0  0  0  0  0  0  0  0
   48.6590   32.6400   41.5770 C   0  0  0  0  0  0  0  0  0  0  0  0
   47.6570   31.7930   41.0770 O   0  0  0  0  0  0  0  0  0  0  0  0
   43.8994   37.1101   44.8495 H   0  0  0  0  0  0  0  0  0  0  0  0
   44.9000   36.7219   42.6007 H   0  0  0  0  0  0  0  0  0  0  0  0
   44.4289   33.8804   48.0702 H   0  0  0  0  0  0  0  0  0  0  0  0
   47.0407   29.6351   48.4082 H   0  0  0  0  0  0  0  0  0  0  0  0
   48.4410   30.1106   44.4337 H   0  0  0  0  0  0  0  0  0  0  0  0
   48.7746   35.8720   42.5985 H   0  0  0  0  0  0  0  0  0  0  0  0
   51.1287   35.2132   42.9574 H   0  0  0  0  0  0  0  0  0  0  0  0
   51.9152   32.9011   42.4365 H   0  0  0  0  0  0  0  0  0  0  0  0
   50.2960   31.2385   41.5368 H   0  0  0  0  0  0  0  0  0  0  0  0
   46.7343   32.1325   40.9609 H   0  0  0  0  0  0  0  0  0  0  0  0
  1  6  2  0
  2  1  1  0
  3  2  2  0
  3  4  1  0
  4  5  2  0
  5  6  1  0
  5  7  1  0
  7  8  1  0
  8  9  2  0
 10 11  2  0
 10  9  1  0
 12 11  1  0
 13 12  2  0
 14 13  1  0
 14 15  2  0
 15  7  1  0
 15 10  1  0
 16 17  1  0
 16  3  1  0
 17 18  2  0
 18 19  1  0
 20 19  2  0
 21 20  1  0
 22 21  2  0
 22 17  1  0
 23 22  1  0
  1 24  1  0
  2 25  1  0
  8 26  1  0
 11 27  1  0
 13 28  1  0
 18 29  1  0
 19 30  1  0
 20 31  1  0
 21 32  1  0
 23 33  1  0
M  ISO  8  24  14  25  14  26  14  27  14  28  14  29  14  30  14  31  14
M  ISO  2  32  14  33   3
M  END
>  <minimizedAffinity>  (1) 
-6.49780941

>  <minimizedRMSD>  (1) 
0.32427904

$$$$
