
     RDKit          3D

 32 34  0  0  0  0  0  0  0  0999 V2000
   44.4650   35.8950   44.7800 C   0  0  0  0  0  0  0  0  0  0  0  0
   45.0140   35.8120   43.5070 C   0  0  0  0  0  0  0  0  0  0  0  0
   45.9030   34.7720   43.2060 C   0  0  0  0  0  0  0  0  0  0  0  0
   46.1820   33.8740   44.2210 N   0  0  0  0  0  0  0  0  0  0  0  0
   45.6300   33.9870   45.4420 C   0  0  0  0  0  0  0  0  0  0  0  0
   44.7810   34.9860   45.7200 N   0  0  0  0  0  0  0  0  0  0  0  0
   45.9600   33.0130   46.4730 C   0  0  0  0  0  0  0  0  0  0  0  0
   47.0270   32.1530   46.3070 C   0  0  0  0  0  0  0  0  0  0  0  0
   47.3350   31.2260   47.2970 C   0  0  0  0  0  0  0  0  0  0  0  0
   46.5700   31.1680   48.4440 C   0  0  0  0  0  0  0  0  0  0  0  0
   45.4990   32.0180   48.6310 C   0  0  0  0  0  0  0  0  0  0  0  0
   45.2140   32.9310   47.6330 C   0  0  0  0  0  0  0  0  0  0  0  0
   46.6550   34.5830   41.6090 S   0  0  0  0  0  0  0  0  0  0  0  0
   48.3000   33.9540   41.7800 C   0  0  0  0  0  0  0  0  0  0  0  0
   49.2250   34.7340   42.4560 C   0  0  0  0  0  0  0  0  0  0  0  0
   50.5100   34.2890   42.6130 C   0  0  0  0  0  0  0  0  0  0  0  0
   50.9210   33.0590   42.1060 C   0  0  0  0  0  0  0  0  0  0  0  0
   50.0070   32.2800   41.4340 C   0  0  0  0  0  0  0  0  0  0  0  0
   48.7020   32.7300   41.2730 C   0  0  0  0  0  0  0  0  0  0  0  0
   47.6900   32.0360   40.6150 O   0  0  0  0  0  0  0  0  0  0  0  0
   43.7667   36.7099   45.0214 H   0  0  0  0  0  0  0  0  0  0  0  0
   44.7528   36.5571   42.7411 H   0  0  0  0  0  0  0  0  0  0  0  0
   47.6341   32.2009   45.3910 H   0  0  0  0  0  0  0  0  0  0  0  0
   48.1858   30.5412   47.1661 H   0  0  0  0  0  0  0  0  0  0  0  0
   46.8181   30.4316   49.2226 H   0  0  0  0  0  0  0  0  0  0  0  0
   44.8907   31.9704   49.5463 H   0  0  0  0  0  0  0  0  0  0  0  0
   44.3638   33.6160   47.7670 H   0  0  0  0  0  0  0  0  0  0  0  0
   48.9267   35.7101   42.8661 H   0  0  0  0  0  0  0  0  0  0  0  0
   51.2344   34.9174   43.1519 H   0  0  0  0  0  0  0  0  0  0  0  0
   51.9576   32.7162   42.2402 H   0  0  0  0  0  0  0  0  0  0  0  0
   50.3084   31.3041   41.0255 H   0  0  0  0  0  0  0  0  0  0  0  0
   46.7844   32.4298   40.5450 H   0  0  0  0  0  0  0  0  0  0  0  0
  1  6  2  0
  2  1  1  0
  3  2  2  0
  3  4  1  0
  4  5  2  0
  5  6  1  0
  5  7  1  0
  7 12  1  0
  8  7  2  0
  8  9  1  0
  9 10  2  0
 10 11  1  0
 12 11  2  0
 13 14  1  0
 13  3  1  0
 14 15  2  0
 15 16  1  0
 17 16  2  0
 18 17  1  0
 19 18  2  0
 19 14  1  0
 20 19  1  0
  1 21  1  0
  2 22  1  0
  8 23  1  0
  9 24  1  0
 10 25  1  0
 11 26  1  0
 12 27  1  0
 15 28  1  0
 16 29  1  0
 17 30  1  0
 18 31  1  0
 20 32  1  0
M  ISO  8  21  14  22  14  23  14  24  14  25  14  26  14  27  14  28  14
M  ISO  4  29  14  30  14  31  14  32   3
M  END
>  <minimizedAffinity>  (1) 
-6.25872564

>  <minimizedRMSD>  (1) 
0.357088596

$$$$
