
     RDKit          3D

 28 30  0  0  0  0  0  0  0  0999 V2000
   46.5330   34.4240   41.5740 S   0  0  0  0  0  0  0  0  0  0  0  0
   44.4280   36.1630   44.5780 C   0  0  0  0  0  0  0  0  0  0  0  0
   44.9730   35.9520   43.3120 C   0  0  0  0  0  0  0  0  0  0  0  0
   45.7810   34.8060   43.1420 C   0  0  0  0  0  0  0  0  0  0  0  0
   45.9730   33.9900   44.2170 N   0  0  0  0  0  0  0  0  0  0  0  0
   45.4250   34.2340   45.4260 C   0  0  0  0  0  0  0  0  0  0  0  0
   44.6480   35.3260   45.6090 N   0  0  0  0  0  0  0  0  0  0  0  0
   45.7560   33.2530   46.4050 N   0  0  0  0  0  0  0  0  0  0  0  0
   46.8390   32.4720   46.2660 C   0  0  0  0  0  0  0  0  0  0  0  0
   46.8740   31.6550   47.3500 N   0  0  0  0  0  0  0  0  0  0  0  0
   45.8100   31.9430   48.1460 C   0  0  0  0  0  0  0  0  0  0  0  0
   45.1300   32.9480   47.5280 N   0  0  0  0  0  0  0  0  0  0  0  0
   48.2170   33.9300   41.8160 C   0  0  0  0  0  0  0  0  0  0  0  0
   49.0740   34.8460   42.3980 C   0  0  0  0  0  0  0  0  0  0  0  0
   50.3800   34.5060   42.6030 C   0  0  0  0  0  0  0  0  0  0  0  0
   50.8950   33.2490   42.2430 C   0  0  0  0  0  0  0  0  0  0  0  0
   50.0270   32.3310   41.6570 C   0  0  0  0  0  0  0  0  0  0  0  0
   48.7120   32.6960   41.4590 C   0  0  0  0  0  0  0  0  0  0  0  0
   47.7390   31.8550   40.8760 O   0  0  0  0  0  0  0  0  0  0  0  0
   43.7941   37.0472   44.7404 H   0  0  0  0  0  0  0  0  0  0  0  0
   44.7820   36.6478   42.4817 H   0  0  0  0  0  0  0  0  0  0  0  0
   47.5590   32.4904   45.4346 H   0  0  0  0  0  0  0  0  0  0  0  0
   45.5502   31.4602   49.0996 H   0  0  0  0  0  0  0  0  0  0  0  0
   48.7065   35.8399   42.6932 H   0  0  0  0  0  0  0  0  0  0  0  0
   51.0533   35.2421   43.0665 H   0  0  0  0  0  0  0  0  0  0  0  0
   51.9514   32.9978   42.4187 H   0  0  0  0  0  0  0  0  0  0  0  0
   50.3834   31.3342   41.3579 H   0  0  0  0  0  0  0  0  0  0  0  0
   46.8101   32.1778   40.7617 H   0  0  0  0  0  0  0  0  0  0  0  0
  1 13  1  0
  1  4  1  0
  2  7  2  0
  3  2  1  0
  4  3  2  0
  4  5  1  0
  5  6  2  0
  6  7  1  0
  6  8  1  0
  8 12  1  0
  9  8  1  0
  9 10  2  0
 10 11  1  0
 12 11  2  0
 13 14  2  0
 14 15  1  0
 16 15  2  0
 17 16  1  0
 18 17  2  0
 18 13  1  0
 19 18  1  0
  2 20  1  0
  3 21  1  0
  9 22  1  0
 11 23  1  0
 14 24  1  0
 15 25  1  0
 16 26  1  0
 17 27  1  0
 19 28  1  0
M  ISO  8  20  14  21  14  22  14  23  14  24  14  25  14  26  14  27  14
M  ISO  1  28   3
M  END
>  <minimizedAffinity>  (1) 
-6.01795197

>  <minimizedRMSD>  (1) 
0.31030345

$$$$
