
     RDKit          3D

 29 31  0  0  0  0  0  0  0  0999 V2000
   46.6380   34.5350   41.6050 S   0  0  0  0  0  0  0  0  0  0  0  0
   48.2920   33.9400   41.7910 C   0  0  0  0  0  0  0  0  0  0  0  0
   49.1900   34.7530   42.4580 C   0  0  0  0  0  0  0  0  0  0  0  0
   50.4900   34.3280   42.6260 C   0  0  0  0  0  0  0  0  0  0  0  0
   50.9380   33.1030   42.1460 C   0  0  0  0  0  0  0  0  0  0  0  0
   50.0320   32.2990   41.4810 C   0  0  0  0  0  0  0  0  0  0  0  0
   48.7240   32.7170   41.3090 C   0  0  0  0  0  0  0  0  0  0  0  0
   47.7270   31.9830   40.6520 O   0  0  0  0  0  0  0  0  0  0  0  0
   44.4890   35.9530   44.7600 C   0  0  0  0  0  0  0  0  0  0  0  0
   45.0500   35.8400   43.4890 C   0  0  0  0  0  0  0  0  0  0  0  0
   45.8850   34.7540   43.1980 C   0  0  0  0  0  0  0  0  0  0  0  0
   46.0990   33.8570   44.2050 N   0  0  0  0  0  0  0  0  0  0  0  0
   45.5460   33.9870   45.4260 C   0  0  0  0  0  0  0  0  0  0  0  0
   44.7480   35.0210   45.7100 N   0  0  0  0  0  0  0  0  0  0  0  0
   45.8650   32.9280   46.4460 C   0  0  0  0  0  0  0  0  0  0  0  0
   45.2480   32.8680   47.7070 C   0  0  0  0  0  0  0  0  0  0  0  0
   45.6560   31.8360   48.5120 C   0  0  0  0  0  0  0  0  0  0  0  0
   46.5920   30.9480   48.0950 C   0  0  0  0  0  0  0  0  0  0  0  0
   47.0110   31.5240   46.4180 S   0  0  0  0  0  0  0  0  0  0  0  0
   48.8697   35.7294   42.8506 H   0  0  0  0  0  0  0  0  0  0  0  0
   51.1975   34.9807   43.1583 H   0  0  0  0  0  0  0  0  0  0  0  0
   51.9806   32.7837   42.2909 H   0  0  0  0  0  0  0  0  0  0  0  0
   50.3517   31.3231   41.0869 H   0  0  0  0  0  0  0  0  0  0  0  0
   46.8124   32.3530   40.5706 H   0  0  0  0  0  0  0  0  0  0  0  0
   43.8320   36.8037   44.9937 H   0  0  0  0  0  0  0  0  0  0  0  0
   44.8385   36.5980   42.7204 H   0  0  0  0  0  0  0  0  0  0  0  0
   44.4901   33.5985   48.0262 H   0  0  0  0  0  0  0  0  0  0  0  0
   45.2161   31.7264   49.5142 H   0  0  0  0  0  0  0  0  0  0  0  0
   47.0013   30.0846   48.6400 H   0  0  0  0  0  0  0  0  0  0  0  0
  1  2  1  0
  1 11  1  0
  2  3  2  0
  3  4  1  0
  5  4  2  0
  6  5  1  0
  7  6  2  0
  7  2  1  0
  8  7  1  0
  9 14  2  0
 10  9  1  0
 11 10  2  0
 11 12  1  0
 12 13  2  0
 13 14  1  0
 13 15  1  0
 15 16  2  0
 16 17  1  0
 18 17  2  0
 19 15  1  0
 19 18  1  0
  3 20  1  0
  4 21  1  0
  5 22  1  0
  6 23  1  0
  8 24  1  0
  9 25  1  0
 10 26  1  0
 16 27  1  0
 17 28  1  0
 18 29  1  0
M  ISO  8  20  14  21  14  22  14  23  14  24   3  25  14  26  14  27  14
M  ISO  2  28  14  29  14
M  END
>  <minimizedAffinity>  (1) 
-5.82618999

>  <minimizedRMSD>  (1) 
0.244039342

$$$$
