
     RDKit          3D

 54 57  0  0  1  0  0  0  0  0999 V2000
   47.9060   33.3220   43.4020 C   0  0  0  0  0  0  0  0  0  0  0  0
   48.0820   34.3630   41.1290 C   0  0  2  0  0  0  0  0  0  0  0  0
   48.6180   35.6100   41.4990 C   0  0  0  0  0  0  0  0  0  0  0  0
   49.8880   35.3290   42.3410 C   0  0  0  0  0  0  0  0  0  0  0  0
   50.0740   33.8200   42.4010 C   0  0  0  0  0  0  0  0  0  0  0  0
   48.7210   33.3370   42.1450 C   0  0  1  0  0  0  0  0  0  0  0  0
   48.3290   33.7420   39.8010 C   0  0  0  0  0  0  0  0  0  0  0  0
   48.3290   34.5720   38.7040 C   0  0  0  0  0  0  0  0  0  0  0  0
   48.5500   34.0680   37.4420 C   0  0  0  0  0  0  0  0  0  0  0  0
   48.7670   32.7090   37.3670 N   0  0  0  0  0  0  0  0  0  0  0  0
   48.7600   31.9420   38.4490 C   0  0  0  0  0  0  0  0  0  0  0  0
   48.5430   32.4370   39.6780 N   0  0  0  0  0  0  0  0  0  0  0  0
   46.4480   33.1380   43.1060 C   0  0  0  0  0  0  0  0  0  0  0  0
   45.7170   34.0850   43.9940 C   0  0  0  0  0  0  0  0  0  0  0  0
   45.2290   35.3230   43.7100 C   0  0  0  0  0  0  0  0  0  0  0  0
   44.6400   35.8170   44.8310 N   0  0  0  0  0  0  0  0  0  0  0  0
   44.7660   34.8950   45.7830 C   0  0  0  0  0  0  0  0  0  0  0  0
   45.4130   33.8390   45.3040 N   0  0  0  0  0  0  0  0  0  0  0  0
   45.7350   32.6210   46.0360 C   0  0  0  0  0  0  0  0  0  0  0  0
   45.9190   32.8140   47.4440 N   0  0  0  0  0  0  0  0  0  0  0  0
   45.0360   32.0790   48.2900 C   0  0  0  0  0  0  0  0  0  0  0  0
   45.6480   30.8460   48.9190 C   0  0  0  0  0  0  0  0  0  0  0  0
   46.5140   30.0600   47.9660 C   0  0  0  0  0  0  0  0  0  0  0  0
   47.5450   30.9780   47.3900 C   0  0  0  0  0  0  0  0  0  0  0  0
   47.2730   32.4190   47.7690 C   0  0  0  0  0  0  0  0  0  0  0  0
   48.2487   32.4948   44.0410 H   0  0  0  0  0  0  0  0  0  0  0  0
   48.0368   34.2883   43.9111 H   0  0  0  0  0  0  0  0  0  0  0  0
   47.0015   34.5686   41.1140 H   0  0  0  0  0  0  0  0  0  0  0  0
   48.8810   36.1889   40.6014 H   0  0  0  0  0  0  0  0  0  0  0  0
   47.8868   36.1942   42.0769 H   0  0  0  0  0  0  0  0  0  0  0  0
   50.7636   35.7965   41.8670 H   0  0  0  0  0  0  0  0  0  0  0  0
   49.7812   35.7462   43.3532 H   0  0  0  0  0  0  0  0  0  0  0  0
   50.7753   33.4727   41.6280 H   0  0  0  0  0  0  0  0  0  0  0  0
   50.5001   33.4631   43.3502 H   0  0  0  0  0  0  0  0  0  0  0  0
   48.7438   32.3097   41.7524 H   0  0  0  0  0  0  0  0  0  0  0  0
   48.1506   35.6493   38.8364 H   0  0  0  0  0  0  0  0  0  0  0  0
   48.5532   34.7102   36.5489 H   0  0  0  0  0  0  0  0  0  0  0  0
   48.9382   30.8625   38.3355 H   0  0  0  0  0  0  0  0  0  0  0  0
   46.2417   33.3695   42.0506 H   0  0  0  0  0  0  0  0  0  0  0  0
   46.1324   32.0994   43.2839 H   0  0  0  0  0  0  0  0  0  0  0  0
   45.2991   35.8361   42.7395 H   0  0  0  0  0  0  0  0  0  0  0  0
   44.3904   34.9932   46.8122 H   0  0  0  0  0  0  0  0  0  0  0  0
   44.9140   31.9036   45.8904 H   0  0  0  0  0  0  0  0  0  0  0  0
   46.6939   32.2571   45.6385 H   0  0  0  0  0  0  0  0  0  0  0  0
   44.7004   32.7458   49.0979 H   0  0  0  0  0  0  0  0  0  0  0  0
   44.2125   31.7273   47.6512 H   0  0  0  0  0  0  0  0  0  0  0  0
   46.2646   31.1593   49.7743 H   0  0  0  0  0  0  0  0  0  0  0  0
   44.8198   30.1899   49.2249 H   0  0  0  0  0  0  0  0  0  0  0  0
   47.0088   29.2393   48.5060 H   0  0  0  0  0  0  0  0  0  0  0  0
   45.8968   29.6355   47.1605 H   0  0  0  0  0  0  0  0  0  0  0  0
   47.5328   30.8875   46.2938 H   0  0  0  0  0  0  0  0  0  0  0  0
   48.5278   30.6927   47.7935 H   0  0  0  0  0  0  0  0  0  0  0  0
   47.9739   33.0688   47.2244 H   0  0  0  0  0  0  0  0  0  0  0  0
   47.4061   32.5174   48.8565 H   0  0  0  0  0  0  0  0  0  0  0  0
  2  3  1  0
  2  6  1  0
  3  4  1  0
  4  5  1  0
  6  5  1  0
  6  1  1  0
  7  2  1  0
  8  7  2  0
  9  8  1  0
 10  9  2  0
 10 11  1  0
 11 12  2  0
 12  7  1  0
 13  1  1  0
 13 14  1  0
 14 18  1  0
 15 14  2  0
 15 16  1  0
 16 17  2  0
 18 17  1  0
 18 19  1  0
 19 20  1  0
 20 25  1  0
 20 21  1  0
 21 22  1  0
 23 22  1  0
 24 25  1  0
 24 23  1  0
  1 26  1  0
  1 27  1  0
  2 28  1  1
  3 29  1  0
  3 30  1  0
  4 31  1  0
  4 32  1  0
  5 33  1  0
  5 34  1  0
  6 35  1  6
  8 36  1  0
  9 37  1  0
 11 38  1  0
 13 39  1  0
 13 40  1  0
 15 41  1  0
 17 42  1  0
 19 43  1  0
 19 44  1  0
 21 45  1  0
 21 46  1  0
 22 47  1  0
 22 48  1  0
 23 49  1  0
 23 50  1  0
 24 51  1  0
 24 52  1  0
 25 53  1  0
 25 54  1  0
M  ISO  8  26   8  27   8  28  13  29  13  30  13  31  13  32  13  33  13
M  ISO  8  34  13  35  13  36  14  37  14  38  14  39   8  40   8  41  14
M  ISO  8  42  14  43   8  44   8  45  13  46  13  47  13  48  13  49  13
M  ISO  5  50  13  51  13  52  13  53  13  54  13
M  END
>  <minimizedAffinity>  (1) 
-6.29977655

>  <minimizedRMSD>  (1) 
0.899259567

$$$$
