
     RDKit          3D

 34 35  0  0  0  0  0  0  0  0999 V2000
   46.4510   34.3770   42.1690 S   0  0  0  0  0  0  0  0  0  0  0  0
   48.1450   33.8730   42.2040 C   0  0  0  0  0  0  0  0  0  0  0  0
   49.0960   34.8290   42.5210 C   0  0  0  0  0  0  0  0  0  0  0  0
   50.4150   34.4780   42.5580 C   0  0  0  0  0  0  0  0  0  0  0  0
   50.8490   33.1690   42.2860 C   0  0  0  0  0  0  0  0  0  0  0  0
   49.8820   32.2230   41.9700 C   0  0  0  0  0  0  0  0  0  0  0  0
   48.5610   32.5910   41.9370 C   0  0  0  0  0  0  0  0  0  0  0  0
   47.5160   31.7070   41.6300 O   0  0  0  0  0  0  0  0  0  0  0  0
   44.4990   35.4640   45.5690 C   0  0  0  0  0  0  0  0  0  0  0  0
   44.9650   35.5010   44.2580 C   0  0  0  0  0  0  0  0  0  0  0  0
   45.7920   34.4470   43.8200 C   0  0  0  0  0  0  0  0  0  0  0  0
   46.0910   33.4410   44.7200 N   0  0  0  0  0  0  0  0  0  0  0  0
   45.6140   33.4520   45.9820 C   0  0  0  0  0  0  0  0  0  0  0  0
   44.8240   34.4470   46.4170 N   0  0  0  0  0  0  0  0  0  0  0  0
   46.0340   32.2840   46.8300 C   0  0  0  0  0  0  0  0  0  0  0  0
   47.3670   32.5380   47.5000 C   0  0  0  0  0  0  0  0  0  0  0  0
   45.0250   32.1070   47.9720 C   0  0  0  0  0  0  0  0  0  0  0  0
   46.0340   30.9920   46.0610 C   0  0  0  0  0  0  0  0  0  0  0  0
   48.7910   35.8627   42.7412 H   0  0  0  0  0  0  0  0  0  0  0  0
   51.1626   35.2449   42.8089 H   0  0  0  0  0  0  0  0  0  0  0  0
   51.9158   32.9033   42.3221 H   0  0  0  0  0  0  0  0  0  0  0  0
   50.1737   31.1859   41.7478 H   0  0  0  0  0  0  0  0  0  0  0  0
   46.5804   32.0305   41.6216 H   0  0  0  0  0  0  0  0  0  0  0  0
   43.8516   36.2765   45.9304 H   0  0  0  0  0  0  0  0  0  0  0  0
   44.6960   36.3278   43.5841 H   0  0  0  0  0  0  0  0  0  0  0  0
   47.2389   32.5136   48.5922 H   0  0  0  0  0  0  0  0  0  0  0  0
   48.0836   31.7602   47.1974 H   0  0  0  0  0  0  0  0  0  0  0  0
   47.7474   33.5248   47.1974 H   0  0  0  0  0  0  0  0  0  0  0  0
   45.5442   32.1981   48.9375 H   0  0  0  0  0  0  0  0  0  0  0  0
   44.2485   32.8826   47.8987 H   0  0  0  0  0  0  0  0  0  0  0  0
   44.5588   31.1134   47.8987 H   0  0  0  0  0  0  0  0  0  0  0  0
   47.0711   30.6769   45.8735 H   0  0  0  0  0  0  0  0  0  0  0  0
   45.5155   30.2176   46.6452 H   0  0  0  0  0  0  0  0  0  0  0  0
   45.5155   31.1363   45.1017 H   0  0  0  0  0  0  0  0  0  0  0  0
  1  2  1  0
  1 11  1  0
  2  3  2  0
  3  4  1  0
  5  4  2  0
  6  5  1  0
  7  6  2  0
  7  2  1  0
  8  7  1  0
  9 14  2  0
 10  9  1  0
 11 10  2  0
 11 12  1  0
 12 13  2  0
 13 14  1  0
 13 15  1  0
 15 16  1  0
 15 17  1  0
 18 15  1  0
  3 19  1  0
  4 20  1  0
  5 21  1  0
  6 22  1  0
  8 23  1  0
  9 24  1  0
 10 25  1  0
 16 26  1  0
 16 27  1  0
 16 28  1  0
 17 29  1  0
 17 30  1  0
 17 31  1  0
 18 32  1  0
 18 33  1  0
 18 34  1  0
M  ISO  8  19  14  20  14  21  14  22  14  23   3  24  14  25  14  26   8
M  ISO  8  27   8  28   8  29   8  30   8  31   8  32   8  33   8  34   8
M  END
>  <minimizedAffinity>  (1) 
-5.10211468

>  <minimizedRMSD>  (1) 
0.861955643

$$$$
