
     RDKit          3D

 24 25  0  0  0  0  0  0  0  0999 V2000
   48.2830   33.9400   41.7260 C   0  0  0  0  0  0  0  0  0  0  0  0
   49.1300   34.7940   42.4020 C   0  0  0  0  0  0  0  0  0  0  0  0
   50.4340   34.4150   42.6180 C   0  0  0  0  0  0  0  0  0  0  0  0
   50.9210   33.1760   42.1630 C   0  0  0  0  0  0  0  0  0  0  0  0
   50.0590   32.3250   41.4830 C   0  0  0  0  0  0  0  0  0  0  0  0
   48.7520   32.7190   41.2750 C   0  0  0  0  0  0  0  0  0  0  0  0
   47.8020   31.9410   40.6050 O   0  0  0  0  0  0  0  0  0  0  0  0
   46.6160   34.4860   41.4820 S   0  0  0  0  0  0  0  0  0  0  0  0
   44.5670   36.1960   44.5390 C   0  0  0  0  0  0  0  0  0  0  0  0
   45.1390   36.0270   43.2680 C   0  0  0  0  0  0  0  0  0  0  0  0
   45.8420   34.8280   43.0490 C   0  0  0  0  0  0  0  0  0  0  0  0
   45.9230   33.9170   44.0670 N   0  0  0  0  0  0  0  0  0  0  0  0
   45.3520   34.1310   45.2780 C   0  0  0  0  0  0  0  0  0  0  0  0
   44.6770   35.2640   45.5100 N   0  0  0  0  0  0  0  0  0  0  0  0
   45.4500   33.1690   46.3230 N   0  0  0  0  0  0  0  0  0  0  0  0
   48.7662   35.7669   42.7640 H   0  0  0  0  0  0  0  0  0  0  0  0
   51.1102   35.0944   43.1576 H   0  0  0  0  0  0  0  0  0  0  0  0
   51.9668   32.8860   42.3427 H   0  0  0  0  0  0  0  0  0  0  0  0
   50.4128   31.3505   41.1152 H   0  0  0  0  0  0  0  0  0  0  0  0
   46.8791   32.2793   40.4874 H   0  0  0  0  0  0  0  0  0  0  0  0
   44.0096   37.1202   44.7513 H   0  0  0  0  0  0  0  0  0  0  0  0
   45.0425   36.7924   42.4839 H   0  0  0  0  0  0  0  0  0  0  0  0
   45.0083   33.3527   47.2352 H   0  0  0  0  0  0  0  0  0  0  0  0
   45.9626   32.2894   46.1668 H   0  0  0  0  0  0  0  0  0  0  0  0
  1  2  2  0
  2  3  1  0
  4  3  2  0
  5  4  1  0
  6  5  2  0
  6  1  1  0
  7  6  1  0
  8  1  1  0
  8 11  1  0
  9 14  2  0
 10  9  1  0
 11 10  2  0
 11 12  1  0
 12 13  2  0
 13 14  1  0
 13 15  1  0
  2 16  1  0
  3 17  1  0
  4 18  1  0
  5 19  1  0
  7 20  1  0
  9 21  1  0
 10 22  1  0
 15 23  1  0
 15 24  1  0
M  ISO  7  16  14  17  14  18  14  19  14  20   3  21  14  22  14
M  END
>  <minimizedAffinity>  (1) 
-5.09725523

>  <minimizedRMSD>  (1) 
0.108531021

$$$$
