
     RDKit          3D

 35 37  0  0  0  0  0  0  0  0999 V2000
   47.0580   34.6930   42.0620 S   0  0  0  0  0  0  0  0  0  0  0  0
   48.5730   33.7940   41.8740 C   0  0  0  0  0  0  0  0  0  0  0  0
   49.6830   34.3020   42.5140 C   0  0  0  0  0  0  0  0  0  0  0  0
   50.8860   33.6450   42.4030 C   0  0  0  0  0  0  0  0  0  0  0  0
   51.0160   32.4750   41.6600 C   0  0  0  0  0  0  0  0  0  0  0  0
   49.8890   31.9770   41.0220 C   0  0  0  0  0  0  0  0  0  0  0  0
   48.6820   32.6330   41.1310 C   0  0  0  0  0  0  0  0  0  0  0  0
   47.4910   32.2260   40.5370 O   0  0  0  0  0  0  0  0  0  0  0  0
   44.8310   34.9020   45.4460 C   0  0  0  0  0  0  0  0  0  0  0  0
   45.3100   35.2060   44.1730 C   0  0  0  0  0  0  0  0  0  0  0  0
   46.3650   34.3980   43.6820 C   0  0  0  0  0  0  0  0  0  0  0  0
   46.8370   33.3900   44.4750 N   0  0  0  0  0  0  0  0  0  0  0  0
   46.3360   33.1390   45.7050 C   0  0  0  0  0  0  0  0  0  0  0  0
   45.3400   33.8920   46.1830 N   0  0  0  0  0  0  0  0  0  0  0  0
   46.8600   32.0380   46.5580 C   0  0  0  0  0  0  0  0  0  0  0  0
   45.7620   31.0050   46.8240 C   0  0  0  0  0  0  0  0  0  0  0  0
   45.0630   31.5350   48.0450 C   0  0  0  0  0  0  0  0  0  0  0  0
   46.1900   32.0290   48.8970 C   0  0  0  0  0  0  0  0  0  0  0  0
   47.2090   32.5870   47.9270 C   0  0  0  0  0  0  0  0  0  0  0  0
   49.6073   35.2246   43.1082 H   0  0  0  0  0  0  0  0  0  0  0  0
   51.7691   34.0549   42.9150 H   0  0  0  0  0  0  0  0  0  0  0  0
   51.9847   31.9599   41.5809 H   0  0  0  0  0  0  0  0  0  0  0  0
   49.9593   31.0547   40.4267 H   0  0  0  0  0  0  0  0  0  0  0  0
   46.6661   32.7577   40.6669 H   0  0  0  0  0  0  0  0  0  0  0  0
   44.0113   35.5048   45.8639 H   0  0  0  0  0  0  0  0  0  0  0  0
   44.8901   36.0315   43.5795 H   0  0  0  0  0  0  0  0  0  0  0  0
   47.7243   31.5979   46.0391 H   0  0  0  0  0  0  0  0  0  0  0  0
   45.0691   30.9407   45.9721 H   0  0  0  0  0  0  0  0  0  0  0  0
   46.1581   29.9887   46.9667 H   0  0  0  0  0  0  0  0  0  0  0  0
   44.3781   32.3548   47.7827 H   0  0  0  0  0  0  0  0  0  0  0  0
   44.4411   30.7798   48.5479 H   0  0  0  0  0  0  0  0  0  0  0  0
   45.8393   32.8150   49.5820 H   0  0  0  0  0  0  0  0  0  0  0  0
   46.6135   31.2285   49.5214 H   0  0  0  0  0  0  0  0  0  0  0  0
   48.2211   32.2674   48.2160 H   0  0  0  0  0  0  0  0  0  0  0  0
   47.1912   33.6869   47.9265 H   0  0  0  0  0  0  0  0  0  0  0  0
  1 11  1  0
  2  1  1  0
  2  3  2  0
  4  3  1  0
  5  4  2  0
  6  7  2  0
  6  5  1  0
  7  2  1  0
  8  7  1  0
  9 14  2  0
 10  9  1  0
 11 10  2  0
 11 12  1  0
 12 13  2  0
 13 14  1  0
 13 15  1  0
 15 16  1  0
 15 19  1  0
 16 17  1  0
 17 18  1  0
 19 18  1  0
  3 20  1  0
  4 21  1  0
  5 22  1  0
  6 23  1  0
  8 24  1  0
  9 25  1  0
 10 26  1  0
 15 27  1  0
 16 28  1  0
 16 29  1  0
 17 30  1  0
 17 31  1  0
 18 32  1  0
 18 33  1  0
 19 34  1  0
 19 35  1  0
M  ISO  8  20  14  21  14  22  14  23  14  24   3  25  14  26  14  27  13
M  ISO  8  28  13  29  13  30  13  31  13  32  13  33  13  34  13  35  13
M  END
>  <minimizedAffinity>  (1) 
-5.59644365

>  <minimizedRMSD>  (1) 
1.29576612

$$$$
