
     RDKit          3D

 46 50  0  0  1  0  0  0  0  0999 V2000
   46.2420   31.1710   47.0390 C   0  0  2  0  0  0  0  0  0  0  0  0
   44.9880   30.5040   47.6370 C   0  0  0  0  0  0  0  0  0  0  0  0
   44.8940   31.0940   49.0120 C   0  0  0  0  0  0  0  0  0  0  0  0
   46.3040   31.1540   49.4630 C   0  0  0  0  0  0  0  0  0  0  0  0
   47.1260   31.4690   48.2200 C   0  0  1  0  0  0  0  0  0  0  0  0
   48.3740   30.7650   48.2260 N   0  0  0  0  0  0  0  0  0  0  0  0
   48.6160   29.7000   47.4050 C   0  0  0  0  0  0  0  0  0  0  0  0
   49.8610   29.2430   47.6270 N   0  0  0  0  0  0  0  0  0  0  0  0
   50.4310   29.9970   48.5800 C   0  0  0  0  0  0  0  0  0  0  0  0
   51.6770   29.9500   49.1650 C   0  0  0  0  0  0  0  0  0  0  0  0
   51.8900   30.8890   50.1030 N   0  0  0  0  0  0  0  0  0  0  0  0
   50.9970   31.8100   50.4700 C   0  0  0  0  0  0  0  0  0  0  0  0
   49.7850   31.8470   49.8930 N   0  0  0  0  0  0  0  0  0  0  0  0
   49.4950   30.9410   48.9450 C   0  0  0  0  0  0  0  0  0  0  0  0
   44.7150   34.4930   46.5270 C   0  0  0  0  0  0  0  0  0  0  0  0
   45.0890   34.8600   45.2360 C   0  0  0  0  0  0  0  0  0  0  0  0
   45.8860   33.9440   44.5200 C   0  0  0  0  0  0  0  0  0  0  0  0
   46.2440   32.7610   45.1240 N   0  0  0  0  0  0  0  0  0  0  0  0
   45.8530   32.4560   46.3770 C   0  0  0  0  0  0  0  0  0  0  0  0
   45.0920   33.3240   47.0710 N   0  0  0  0  0  0  0  0  0  0  0  0
   46.4230   34.3090   42.8550 S   0  0  0  0  0  0  0  0  0  0  0  0
   48.0980   33.8000   42.6230 C   0  0  0  0  0  0  0  0  0  0  0  0
   49.0450   34.8120   42.6520 C   0  0  0  0  0  0  0  0  0  0  0  0
   50.3740   34.4990   42.4780 C   0  0  0  0  0  0  0  0  0  0  0  0
   50.7980   33.1820   42.2750 C   0  0  0  0  0  0  0  0  0  0  0  0
   49.8370   32.1830   42.2490 C   0  0  0  0  0  0  0  0  0  0  0  0
   48.5050   32.4980   42.4220 C   0  0  0  0  0  0  0  0  0  0  0  0
   47.4630   31.5890   42.4160 O   0  0  0  0  0  0  0  0  0  0  0  0
   46.7388   30.5338   46.2926 H   0  0  0  0  0  0  0  0  0  0  0  0
   44.0939   30.7467   47.0439 H   0  0  0  0  0  0  0  0  0  0  0  0
   45.0528   29.4060   47.6475 H   0  0  0  0  0  0  0  0  0  0  0  0
   44.4494   32.0996   48.9782 H   0  0  0  0  0  0  0  0  0  0  0  0
   44.2544   30.5058   49.6865 H   0  0  0  0  0  0  0  0  0  0  0  0
   46.4314   31.9450   50.2167 H   0  0  0  0  0  0  0  0  0  0  0  0
   46.6203   30.2085   49.9278 H   0  0  0  0  0  0  0  0  0  0  0  0
   47.4280   32.5259   48.1781 H   0  0  0  0  0  0  0  0  0  0  0  0
   47.9047   29.2824   46.6773 H   0  0  0  0  0  0  0  0  0  0  0  0
   52.4364   29.2043   48.8871 H   0  0  0  0  0  0  0  0  0  0  0  0
   51.2549   32.5425   51.2490 H   0  0  0  0  0  0  0  0  0  0  0  0
   44.0926   35.1808   47.1183 H   0  0  0  0  0  0  0  0  0  0  0  0
   44.7772   35.8189   44.7964 H   0  0  0  0  0  0  0  0  0  0  0  0
   48.7371   35.8557   42.8126 H   0  0  0  0  0  0  0  0  0  0  0  0
   51.1217   35.3055   42.4992 H   0  0  0  0  0  0  0  0  0  0  0  0
   51.8637   32.9454   42.1398 H   0  0  0  0  0  0  0  0  0  0  0  0
   50.1373   31.1368   42.0901 H   0  0  0  0  0  0  0  0  0  0  0  0
   46.5329   31.9013   42.5481 H   0  0  0  0  0  0  0  0  0  0  0  0
  1  2  1  0
  1  5  1  0
  2  3  1  0
  3  4  1  0
  5  6  1  0
  5  4  1  0
  6 14  1  0
  7  8  2  0
  7  6  1  0
  8  9  1  0
  9 14  2  0
  9 10  1  0
 10 11  2  0
 11 12  1  0
 13 12  2  0
 14 13  1  0
 15 20  2  0
 16 15  1  0
 17 18  1  0
 17 16  2  0
 18 19  2  0
 19  1  1  0
 19 20  1  0
 21 17  1  0
 22 23  2  0
 22 21  1  0
 24 23  1  0
 25 24  2  0
 26 25  1  0
 26 27  2  0
 27 22  1  0
 28 27  1  0
  1 29  1  6
  2 30  1  0
  2 31  1  0
  3 32  1  0
  3 33  1  0
  4 34  1  0
  4 35  1  0
  5 36  1  1
  7 37  1  0
 10 38  1  0
 12 39  1  0
 15 40  1  0
 16 41  1  0
 23 42  1  0
 24 43  1  0
 25 44  1  0
 26 45  1  0
 28 46  1  0
M  ISO  8  29  13  30  13  31  13  32  13  33  13  34  13  35  13  36  13
M  ISO  8  37  14  38  14  39  14  40  14  41  14  42  14  43  14  44  14
M  ISO  2  45  14  46   3
M  END
>  <minimizedAffinity>  (1) 
-6.22717142

>  <minimizedRMSD>  (1) 
1.58154607

$$$$
