
     RDKit          3D

 43 46  0  0  1  0  0  0  0  0999 V2000
   44.6970   34.7560   46.1050 C   0  0  0  0  0  0  0  0  0  0  0  0
   45.1060   35.0620   44.8120 C   0  0  0  0  0  0  0  0  0  0  0  0
   46.0120   34.1820   44.1950 C   0  0  0  0  0  0  0  0  0  0  0  0
   46.4340   33.0870   44.8940 N   0  0  0  0  0  0  0  0  0  0  0  0
   46.0100   32.8280   46.1500 C   0  0  0  0  0  0  0  0  0  0  0  0
   45.1500   33.6550   46.7490 N   0  0  0  0  0  0  0  0  0  0  0  0
   46.4750   31.6280   46.9120 C   0  0  2  0  0  0  0  0  0  0  0  0
   45.2920   30.7190   47.2300 C   0  0  0  0  0  0  0  0  0  0  0  0
   44.7730   31.2520   48.5310 C   0  0  0  0  0  0  0  0  0  0  0  0
   46.0090   31.5890   49.3050 C   0  0  0  0  0  0  0  0  0  0  0  0
   46.9960   32.0670   48.2700 C   0  0  1  0  0  0  0  0  0  0  0  0
   48.2940   31.3890   48.5310 C   0  0  0  0  0  0  0  0  0  0  0  0
   48.5930   30.1270   48.0190 C   0  0  0  0  0  0  0  0  0  0  0  0
   49.8460   29.5900   48.3340 C   0  0  0  0  0  0  0  0  0  0  0  0
   50.7190   30.2890   49.1090 N   0  0  0  0  0  0  0  0  0  0  0  0
   50.4020   31.5080   49.5900 C   0  0  0  0  0  0  0  0  0  0  0  0
   49.1880   32.0430   49.2930 N   0  0  0  0  0  0  0  0  0  0  0  0
   46.6030   34.4830   42.5300 S   0  0  0  0  0  0  0  0  0  0  0  0
   48.2400   33.8380   42.3380 C   0  0  0  0  0  0  0  0  0  0  0  0
   49.2750   34.6790   42.6430 C   0  0  0  0  0  0  0  0  0  0  0  0
   50.5710   34.2370   42.5150 C   0  0  0  0  0  0  0  0  0  0  0  0
   50.8610   32.9370   42.0780 C   0  0  0  0  0  0  0  0  0  0  0  0
   49.7980   32.1050   41.7760 C   0  0  0  0  0  0  0  0  0  0  0  0
   48.5140   32.5590   41.9080 C   0  0  0  0  0  0  0  0  0  0  0  0
   47.3720   31.7950   41.6280 O   0  0  0  0  0  0  0  0  0  0  0  0
   43.9887   35.4242   46.6167 H   0  0  0  0  0  0  0  0  0  0  0  0
   44.7352   35.9577   44.2921 H   0  0  0  0  0  0  0  0  0  0  0  0
   47.2378   31.1198   46.3038 H   0  0  0  0  0  0  0  0  0  0  0  0
   44.5244   30.7853   46.4449 H   0  0  0  0  0  0  0  0  0  0  0  0
   45.5739   29.6572   47.2868 H   0  0  0  0  0  0  0  0  0  0  0  0
   44.1573   32.1489   48.3680 H   0  0  0  0  0  0  0  0  0  0  0  0
   44.1287   30.5315   49.0561 H   0  0  0  0  0  0  0  0  0  0  0  0
   45.8023   32.3824   50.0383 H   0  0  0  0  0  0  0  0  0  0  0  0
   46.3895   30.7277   49.8737 H   0  0  0  0  0  0  0  0  0  0  0  0
   47.1244   33.1590   48.3029 H   0  0  0  0  0  0  0  0  0  0  0  0
   47.8742   29.5769   47.3939 H   0  0  0  0  0  0  0  0  0  0  0  0
   50.1269   28.5971   47.9530 H   0  0  0  0  0  0  0  0  0  0  0  0
   51.1170   32.0629   50.2152 H   0  0  0  0  0  0  0  0  0  0  0  0
   49.0717   35.7033   42.9888 H   0  0  0  0  0  0  0  0  0  0  0  0
   51.3985   34.9188   42.7610 H   0  0  0  0  0  0  0  0  0  0  0  0
   51.9000   32.5898   41.9785 H   0  0  0  0  0  0  0  0  0  0  0  0
   49.9850   31.0779   41.4295 H   0  0  0  0  0  0  0  0  0  0  0  0
   46.4716   32.1891   41.7463 H   0  0  0  0  0  0  0  0  0  0  0  0
  1  6  2  0
  2  1  1  0
  3  2  2  0
  3  4  1  0
  4  5  2  0
  5  6  1  0
  5  7  1  0
  7  8  1  0
  7 11  1  0
  8  9  1  0
  9 10  1  0
 11 12  1  0
 11 10  1  0
 12 17  2  0
 13 14  2  0
 13 12  1  0
 14 15  1  0
 15 16  2  0
 17 16  1  0
 18  3  1  0
 19 18  1  0
 19 20  2  0
 21 20  1  0
 22 21  2  0
 23 24  2  0
 23 22  1  0
 24 19  1  0
 25 24  1  0
  1 26  1  0
  2 27  1  0
  7 28  1  6
  8 29  1  0
  8 30  1  0
  9 31  1  0
  9 32  1  0
 10 33  1  0
 10 34  1  0
 11 35  1  6
 13 36  1  0
 14 37  1  0
 16 38  1  0
 20 39  1  0
 21 40  1  0
 22 41  1  0
 23 42  1  0
 25 43  1  0
M  ISO  8  26  14  27  14  28  13  29  13  30  13  31  13  32  13  33  13
M  ISO  8  34  13  35  13  36  14  37  14  38  14  39  14  40  14  41  14
M  ISO  2  42  14  43   3
M  END
>  <minimizedAffinity>  (1) 
-6.19508791

>  <minimizedRMSD>  (1) 
0.751063049

$$$$
