
     RDKit          3D

 45 48  0  0  1  0  0  0  0  0999 V2000
   44.7330   34.4880   46.5070 C   0  0  0  0  0  0  0  0  0  0  0  0
   45.0940   34.8340   45.2030 C   0  0  0  0  0  0  0  0  0  0  0  0
   45.9260   33.9180   44.5120 C   0  0  0  0  0  0  0  0  0  0  0  0
   46.3170   32.7720   45.1510 N   0  0  0  0  0  0  0  0  0  0  0  0
   45.9390   32.4860   46.4130 C   0  0  0  0  0  0  0  0  0  0  0  0
   45.1510   33.3370   47.0890 N   0  0  0  0  0  0  0  0  0  0  0  0
   46.3630   31.2510   47.1080 C   0  0  2  0  0  0  0  0  0  0  0  0
   45.1360   30.3860   47.4610 C   0  0  0  0  0  0  0  0  0  0  0  0
   44.7290   30.9100   48.8080 C   0  0  0  0  0  0  0  0  0  0  0  0
   46.0470   31.1160   49.5080 C   0  0  0  0  0  0  0  0  0  0  0  0
   46.9790   31.6020   48.4350 C   0  0  1  0  0  0  0  0  0  0  0  0
   48.3700   31.1350   48.5660 C   0  0  0  0  0  0  0  0  0  0  0  0
   48.7550   30.0320   47.8640 C   0  0  0  0  0  0  0  0  0  0  0  0
   50.0450   29.5410   47.9420 C   0  0  0  0  0  0  0  0  0  0  0  0
   50.9650   30.1820   48.7510 C   0  0  0  0  0  0  0  0  0  0  0  0
   50.6290   31.3050   49.4860 C   0  0  0  0  0  0  0  0  0  0  0  0
   49.3270   31.7480   49.3670 C   0  0  0  0  0  0  0  0  0  0  0  0
   46.4470   34.2610   42.8400 S   0  0  0  0  0  0  0  0  0  0  0  0
   48.1370   33.7750   42.6180 C   0  0  0  0  0  0  0  0  0  0  0  0
   49.0680   34.7870   42.6390 C   0  0  0  0  0  0  0  0  0  0  0  0
   50.3990   34.4800   42.4730 C   0  0  0  0  0  0  0  0  0  0  0  0
   50.8350   33.1610   42.2820 C   0  0  0  0  0  0  0  0  0  0  0  0
   49.8750   32.1560   42.2650 C   0  0  0  0  0  0  0  0  0  0  0  0
   48.5420   32.4690   42.4320 C   0  0  0  0  0  0  0  0  0  0  0  0
   47.5110   31.5500   42.4310 O   0  0  0  0  0  0  0  0  0  0  0  0
   44.0890   35.1711   47.0802 H   0  0  0  0  0  0  0  0  0  0  0  0
   44.7504   35.7690   44.7364 H   0  0  0  0  0  0  0  0  0  0  0  0
   47.0620   30.7239   46.4420 H   0  0  0  0  0  0  0  0  0  0  0  0
   44.3309   30.5225   46.7240 H   0  0  0  0  0  0  0  0  0  0  0  0
   45.3523   29.3075   47.4629 H   0  0  0  0  0  0  0  0  0  0  0  0
   44.1800   31.8584   48.7132 H   0  0  0  0  0  0  0  0  0  0  0  0
   44.0536   30.2313   49.3495 H   0  0  0  0  0  0  0  0  0  0  0  0
   45.9490   31.8671   50.3056 H   0  0  0  0  0  0  0  0  0  0  0  0
   46.4105   30.1956   49.9884 H   0  0  0  0  0  0  0  0  0  0  0  0
   47.0859   32.6924   48.5332 H   0  0  0  0  0  0  0  0  0  0  0  0
   48.0231   29.5211   47.2211 H   0  0  0  0  0  0  0  0  0  0  0  0
   50.3364   28.6499   47.3666 H   0  0  0  0  0  0  0  0  0  0  0  0
   51.9906   29.7890   48.8118 H   0  0  0  0  0  0  0  0  0  0  0  0
   51.3594   31.8168   50.1299 H   0  0  0  0  0  0  0  0  0  0  0  0
   49.0290   32.6386   49.9397 H   0  0  0  0  0  0  0  0  0  0  0  0
   48.7521   35.8303   42.7869 H   0  0  0  0  0  0  0  0  0  0  0  0
   51.1414   35.2915   42.4906 H   0  0  0  0  0  0  0  0  0  0  0  0
   51.9022   32.9292   42.1499 H   0  0  0  0  0  0  0  0  0  0  0  0
   50.1788   31.1090   42.1181 H   0  0  0  0  0  0  0  0  0  0  0  0
   46.5772   31.8535   42.5574 H   0  0  0  0  0  0  0  0  0  0  0  0
  1  6  2  0
  2  1  1  0
  3  4  1  0
  3  2  2  0
  4  5  2  0
  5  6  1  0
  5  7  1  0
  7  8  1  0
  7 11  1  0
  8  9  1  0
  9 10  1  0
 11 12  1  0
 11 10  1  0
 12 17  2  0
 13 14  2  0
 13 12  1  0
 14 15  1  0
 15 16  2  0
 17 16  1  0
 18  3  1  0
 19 20  2  0
 19 18  1  0
 21 20  1  0
 22 21  2  0
 23 22  1  0
 23 24  2  0
 24 19  1  0
 25 24  1  0
  1 26  1  0
  2 27  1  0
  7 28  1  6
  8 29  1  0
  8 30  1  0
  9 31  1  0
  9 32  1  0
 10 33  1  0
 10 34  1  0
 11 35  1  6
 13 36  1  0
 14 37  1  0
 15 38  1  0
 16 39  1  0
 17 40  1  0
 20 41  1  0
 21 42  1  0
 22 43  1  0
 23 44  1  0
 25 45  1  0
M  ISO  8  26  14  27  14  28  13  29  13  30  13  31  13  32  13  33  13
M  ISO  8  34  13  35  13  36  14  37  14  38  14  39  14  40  14  41  14
M  ISO  4  42  14  43  14  44  14  45   3
M  END
>  <minimizedAffinity>  (1) 
-6.17112541

>  <minimizedRMSD>  (1) 
1.2618624

$$$$
