
     RDKit          3D

 50 53  0  0  1  0  0  0  0  0999 V2000
   44.6450   34.6220   46.4090 C   0  0  0  0  0  0  0  0  0  0  0  0
   45.0390   34.9880   45.1250 C   0  0  0  0  0  0  0  0  0  0  0  0
   45.9090   34.1050   44.4520 C   0  0  0  0  0  0  0  0  0  0  0  0
   46.3070   32.9620   45.0950 N   0  0  0  0  0  0  0  0  0  0  0  0
   45.8960   32.6520   46.3430 C   0  0  0  0  0  0  0  0  0  0  0  0
   45.0670   33.4830   46.9950 N   0  0  0  0  0  0  0  0  0  0  0  0
   46.3380   31.4030   47.0330 C   0  0  2  0  0  0  0  0  0  0  0  0
   45.1000   30.6280   47.5250 C   0  0  0  0  0  0  0  0  0  0  0  0
   44.8240   31.2000   48.8740 C   0  0  0  0  0  0  0  0  0  0  0  0
   46.1790   31.3730   49.4590 C   0  0  0  0  0  0  0  0  0  0  0  0
   47.0770   31.7670   48.2930 C   0  0  1  0  0  0  0  0  0  0  0  0
   48.3240   31.1160   48.3970 N   0  0  0  0  0  0  0  0  0  0  0  0
   49.0680   31.3040   49.5830 C   0  0  0  0  0  0  0  0  0  0  0  0
   50.5360   31.0160   49.2370 C   0  0  0  0  0  0  0  0  0  0  0  0
   50.6640   29.5420   48.9720 C   0  0  0  0  0  0  0  0  0  0  0  0
   49.4250   28.9460   48.3790 C   0  0  0  0  0  0  0  0  0  0  0  0
   48.5720   29.9790   47.6290 C   0  0  0  0  0  0  0  0  0  0  0  0
   46.4860   34.4620   42.7980 S   0  0  0  0  0  0  0  0  0  0  0  0
   48.1330   33.8770   42.5760 C   0  0  0  0  0  0  0  0  0  0  0  0
   49.1350   34.8280   42.6320 C   0  0  0  0  0  0  0  0  0  0  0  0
   50.4450   34.4430   42.4680 C   0  0  0  0  0  0  0  0  0  0  0  0
   50.7930   33.1210   42.2470 C   0  0  0  0  0  0  0  0  0  0  0  0
   49.7780   32.1620   42.1900 C   0  0  0  0  0  0  0  0  0  0  0  0
   48.4630   32.5610   42.3570 C   0  0  0  0  0  0  0  0  0  0  0  0
   47.3780   31.7020   42.3220 O   0  0  0  0  0  0  0  0  0  0  0  0
   43.9658   35.2849   46.9650 H   0  0  0  0  0  0  0  0  0  0  0  0
   44.6889   35.9204   44.6580 H   0  0  0  0  0  0  0  0  0  0  0  0
   46.9532   30.8213   46.3307 H   0  0  0  0  0  0  0  0  0  0  0  0
   44.2458   30.7884   46.8508 H   0  0  0  0  0  0  0  0  0  0  0  0
   45.2668   29.5411   47.5538 H   0  0  0  0  0  0  0  0  0  0  0  0
   44.3041   32.1660   48.7930 H   0  0  0  0  0  0  0  0  0  0  0  0
   44.1707   30.5606   49.4859 H   0  0  0  0  0  0  0  0  0  0  0  0
   46.1702   32.1649   50.2224 H   0  0  0  0  0  0  0  0  0  0  0  0
   46.5306   30.4556   49.9538 H   0  0  0  0  0  0  0  0  0  0  0  0
   47.2969   32.8448   48.2907 H   0  0  0  0  0  0  0  0  0  0  0  0
   48.9589   32.3393   49.9382 H   0  0  0  0  0  0  0  0  0  0  0  0
   48.7127   30.6361   50.3815 H   0  0  0  0  0  0  0  0  0  0  0  0
   50.8279   31.5841   48.3414 H   0  0  0  0  0  0  0  0  0  0  0  0
   51.1927   31.3160   50.0669 H   0  0  0  0  0  0  0  0  0  0  0  0
   51.4989   29.3823   48.2739 H   0  0  0  0  0  0  0  0  0  0  0  0
   50.8378   29.0470   49.9389 H   0  0  0  0  0  0  0  0  0  0  0  0
   49.7179   28.1533   47.6748 H   0  0  0  0  0  0  0  0  0  0  0  0
   48.8174   28.5505   49.2063 H   0  0  0  0  0  0  0  0  0  0  0  0
   49.1030   30.2790   46.7135 H   0  0  0  0  0  0  0  0  0  0  0  0
   47.6039   29.5116   47.3960 H   0  0  0  0  0  0  0  0  0  0  0  0
   48.8861   35.8852   42.8065 H   0  0  0  0  0  0  0  0  0  0  0  0
   51.2370   35.2050   42.5136 H   0  0  0  0  0  0  0  0  0  0  0  0
   51.8465   32.8317   42.1190 H   0  0  0  0  0  0  0  0  0  0  0  0
   50.0209   31.1036   42.0147 H   0  0  0  0  0  0  0  0  0  0  0  0
   46.4622   32.0558   42.4493 H   0  0  0  0  0  0  0  0  0  0  0  0
  1  6  2  0
  2  1  1  0
  3  4  1  0
  3  2  2  0
  4  5  2  0
  5  6  1  0
  5  7  1  0
  7  8  1  0
  7 11  1  0
  8  9  1  0
  9 10  1  0
 11 12  1  0
 11 10  1  0
 12 13  1  0
 14 13  1  0
 15 14  1  0
 16 15  1  0
 17 16  1  0
 17 12  1  0
 18  3  1  0
 19 20  2  0
 19 18  1  0
 21 20  1  0
 22 21  2  0
 23 22  1  0
 23 24  2  0
 24 19  1  0
 25 24  1  0
  1 26  1  0
  2 27  1  0
  7 28  1  6
  8 29  1  0
  8 30  1  0
  9 31  1  0
  9 32  1  0
 10 33  1  0
 10 34  1  0
 11 35  1  6
 13 36  1  0
 13 37  1  0
 14 38  1  0
 14 39  1  0
 15 40  1  0
 15 41  1  0
 16 42  1  0
 16 43  1  0
 17 44  1  0
 17 45  1  0
 20 46  1  0
 21 47  1  0
 22 48  1  0
 23 49  1  0
 25 50  1  0
M  ISO  8  26  14  27  14  28  13  29  13  30  13  31  13  32  13  33  13
M  ISO  8  34  13  35  13  36  13  37  13  38  13  39  13  40  13  41  13
M  ISO  8  42  13  43  13  44  13  45  13  46  14  47  14  48  14  49  14
M  ISO  1  50   3
M  END
>  <minimizedAffinity>  (1) 
-5.97641659

>  <minimizedRMSD>  (1) 
1.27569354

$$$$
