
     RDKit          3D

 38 40  0  0  1  0  0  0  0  0999 V2000
   44.7610   34.3520   46.6560 C   0  0  0  0  0  0  0  0  0  0  0  0
   45.1000   34.7390   45.3620 C   0  0  0  0  0  0  0  0  0  0  0  0
   45.8270   33.8040   44.5860 C   0  0  0  0  0  0  0  0  0  0  0  0
   46.1450   32.6000   45.1510 N   0  0  0  0  0  0  0  0  0  0  0  0
   45.7900   32.2710   46.4190 C   0  0  0  0  0  0  0  0  0  0  0  0
   45.1040   33.1450   47.1600 N   0  0  0  0  0  0  0  0  0  0  0  0
   46.1400   30.9630   47.0180 C   0  0  2  0  0  0  0  0  0  0  0  0
   44.9010   30.3260   47.6700 C   0  0  0  0  0  0  0  0  0  0  0  0
   44.9040   30.8900   49.0610 C   0  0  0  0  0  0  0  0  0  0  0  0
   46.3420   30.8740   49.4380 C   0  0  0  0  0  0  0  0  0  0  0  0
   47.1130   31.1550   48.1550 C   0  0  2  0  0  0  0  0  0  0  0  0
   47.7740   32.4950   48.1570 C   0  0  0  0  0  0  0  0  0  0  0  0
   46.3130   34.1940   42.9130 S   0  0  0  0  0  0  0  0  0  0  0  0
   48.0150   33.7750   42.6610 C   0  0  0  0  0  0  0  0  0  0  0  0
   48.9150   34.8270   42.6610 C   0  0  0  0  0  0  0  0  0  0  0  0
   50.2510   34.5620   42.4700 C   0  0  0  0  0  0  0  0  0  0  0  0
   50.7340   33.2650   42.2770 C   0  0  0  0  0  0  0  0  0  0  0  0
   49.8190   32.2360   42.2820 C   0  0  0  0  0  0  0  0  0  0  0  0
   48.4780   32.4980   42.4730 C   0  0  0  0  0  0  0  0  0  0  0  0
   47.4620   31.5350   42.4970 O   0  0  0  0  0  0  0  0  0  0  0  0
   44.1954   35.0514   47.2892 H   0  0  0  0  0  0  0  0  0  0  0  0
   44.8166   35.7237   44.9619 H   0  0  0  0  0  0  0  0  0  0  0  0
   46.5543   30.3404   46.2113 H   0  0  0  0  0  0  0  0  0  0  0  0
   43.9844   30.6109   47.1328 H   0  0  0  0  0  0  0  0  0  0  0  0
   44.9280   29.2264   47.6548 H   0  0  0  0  0  0  0  0  0  0  0  0
   44.5063   31.9155   49.0705 H   0  0  0  0  0  0  0  0  0  0  0  0
   44.2720   30.3186   49.7567 H   0  0  0  0  0  0  0  0  0  0  0  0
   46.5498   31.6519   50.1874 H   0  0  0  0  0  0  0  0  0  0  0  0
   46.6327   29.9100   49.8810 H   0  0  0  0  0  0  0  0  0  0  0  0
   47.9573   30.4581   48.0476 H   0  0  0  0  0  0  0  0  0  0  0  0
   47.9356   32.8226   49.1946 H   0  0  0  0  0  0  0  0  0  0  0  0
   48.7420   32.4271   47.6389 H   0  0  0  0  0  0  0  0  0  0  0  0
   47.1310   33.2218   47.6389 H   0  0  0  0  0  0  0  0  0  0  0  0
   48.5667   35.8595   42.8115 H   0  0  0  0  0  0  0  0  0  0  0  0
   50.9638   35.3998   42.4691 H   0  0  0  0  0  0  0  0  0  0  0  0
   51.8066   33.0730   42.1265 H   0  0  0  0  0  0  0  0  0  0  0  0
   50.1588   31.2004   42.1330 H   0  0  0  0  0  0  0  0  0  0  0  0
   46.5220   31.8106   42.6404 H   0  0  0  0  0  0  0  0  0  0  0  0
  1  6  2  0
  2  1  1  0
  3  4  1  0
  3  2  2  0
  4  5  2  0
  5  7  1  0
  5  6  1  0
  7  8  1  0
  7 11  1  0
  8  9  1  0
  9 10  1  0
 11 12  1  0
 11 10  1  0
 13  3  1  0
 14 15  2  0
 14 13  1  0
 16 15  1  0
 17 18  1  0
 17 16  2  0
 18 19  2  0
 19 20  1  0
 19 14  1  0
  1 21  1  0
  2 22  1  0
  7 23  1  6
  8 24  1  0
  8 25  1  0
  9 26  1  0
  9 27  1  0
 10 28  1  0
 10 29  1  0
 11 30  1  6
 12 31  1  0
 12 32  1  0
 12 33  1  0
 15 34  1  0
 16 35  1  0
 17 36  1  0
 18 37  1  0
 20 38  1  0
M  ISO  8  21  14  22  14  23  13  24  13  25  13  26  13  27  13  28  13
M  ISO  8  29  13  30  13  31   8  32   8  33   8  34  14  35  14  36  14
M  ISO  2  37  14  38   3
M  END
>  <minimizedAffinity>  (1) 
-5.12464428

>  <minimizedRMSD>  (1) 
1.31979275

$$$$
