
     RDKit          3D

 32 34  0  0  0  0  0  0  0  0999 V2000
   46.7080   34.6640   42.0310 C   0  0  0  0  0  0  0  0  0  0  0  0
   47.9220   35.2810   41.8800 C   0  0  0  0  0  0  0  0  0  0  0  0
   48.5400   35.1160   40.6850 C   0  0  0  0  0  0  0  0  0  0  0  0
   47.9830   34.3880   39.7130 N   0  0  0  0  0  0  0  0  0  0  0  0
   46.7760   33.7820   39.8830 C   0  0  0  0  0  0  0  0  0  0  0  0
   46.1470   33.9360   41.0670 N   0  0  0  0  0  0  0  0  0  0  0  0
   46.1900   33.0070   38.8420 N   0  0  0  0  0  0  0  0  0  0  0  0
   45.0930   32.0910   39.0150 C   0  0  0  0  0  0  0  0  0  0  0  0
   44.0330   32.2800   37.9580 C   0  0  0  0  0  0  0  0  0  0  0  0
   44.5420   32.3290   36.6250 N   0  0  0  0  0  0  0  0  0  0  0  0
   45.6340   33.2330   36.4490 C   0  0  0  0  0  0  0  0  0  0  0  0
   46.7150   33.1280   37.4970 C   0  0  0  0  0  0  0  0  0  0  0  0
   44.4970   35.9840   44.7530 C   0  0  0  0  0  0  0  0  0  0  0  0
   45.1480   35.9000   43.4890 C   0  0  0  0  0  0  0  0  0  0  0  0
   46.0050   34.8150   43.3050 C   0  0  0  0  0  0  0  0  0  0  0  0
   46.1720   33.9130   44.3160 N   0  0  0  0  0  0  0  0  0  0  0  0
   45.5240   34.0410   45.5060 C   0  0  0  0  0  0  0  0  0  0  0  0
   44.6930   35.0780   45.7080 N   0  0  0  0  0  0  0  0  0  0  0  0
   48.3716   35.8790   42.6864 H   0  0  0  0  0  0  0  0  0  0  0  0
   49.5176   35.5899   40.5124 H   0  0  0  0  0  0  0  0  0  0  0  0
   45.4759   31.0615   38.9551 H   0  0  0  0  0  0  0  0  0  0  0  0
   44.6359   32.2864   39.9963 H   0  0  0  0  0  0  0  0  0  0  0  0
   43.3235   31.4422   38.0264 H   0  0  0  0  0  0  0  0  0  0  0  0
   43.5601   33.2538   38.1532 H   0  0  0  0  0  0  0  0  0  0  0  0
   44.8595   31.3842   36.3654 H   0  0  0  0  0  0  0  0  0  0  0  0
   46.0883   33.0344   35.4671 H   0  0  0  0  0  0  0  0  0  0  0  0
   45.2152   34.2465   36.5352 H   0  0  0  0  0  0  0  0  0  0  0  0
   47.3292   32.2417   37.2794 H   0  0  0  0  0  0  0  0  0  0  0  0
   47.3041   34.0561   37.4561 H   0  0  0  0  0  0  0  0  0  0  0  0
   43.8118   36.8227   44.9456 H   0  0  0  0  0  0  0  0  0  0  0  0
   44.9839   36.6498   42.7010 H   0  0  0  0  0  0  0  0  0  0  0  0
   45.6801   33.2971   46.3011 H   0  0  0  0  0  0  0  0  0  0  0  0
  1 15  1  0
  2  1  2  0
  3  2  1  0
  4  5  1  0
  4  3  2  0
  5  6  2  0
  6  1  1  0
  7  8  1  0
  7  5  1  0
  9  8  1  0
 10  9  1  0
 11 10  1  0
 11 12  1  0
 12  7  1  0
 13 18  2  0
 14 13  1  0
 15 14  2  0
 15 16  1  0
 16 17  2  0
 17 18  1  0
  2 19  1  0
  3 20  1  0
  8 21  1  0
  8 22  1  0
  9 23  1  0
  9 24  1  0
 10 25  1  0
 11 26  1  0
 11 27  1  0
 12 28  1  0
 12 29  1  0
 13 30  1  0
 14 31  1  0
 17 32  1  0
M  ISO  8  19  14  20  14  21  13  22  13  23  13  24  13  25   5  26  13
M  ISO  6  27  13  28  13  29  13  30  14  31  14  32  14
M  END
>  <minimizedAffinity>  (1) 
-5.55128193

>  <minimizedRMSD>  (1) 
0.118241906

$$$$
