
     RDKit          3D

 33 35  0  0  0  0  0  0  0  0999 V2000
   46.8290   34.7070   42.0350 C   0  0  0  0  0  0  0  0  0  0  0  0
   48.0120   35.4160   41.9000 C   0  0  0  0  0  0  0  0  0  0  0  0
   48.6670   35.2960   40.7180 C   0  0  0  0  0  0  0  0  0  0  0  0
   48.1730   34.5140   39.7280 N   0  0  0  0  0  0  0  0  0  0  0  0
   47.0160   33.8360   39.8920 C   0  0  0  0  0  0  0  0  0  0  0  0
   46.3610   33.9470   41.0560 N   0  0  0  0  0  0  0  0  0  0  0  0
   46.5560   33.0350   38.8140 N   0  0  0  0  0  0  0  0  0  0  0  0
   45.7770   31.8510   39.1260 C   0  0  0  0  0  0  0  0  0  0  0  0
   44.4030   32.1470   38.5280 C   0  0  0  0  0  0  0  0  0  0  0  0
   44.6080   32.1250   37.0290 C   0  0  0  0  0  0  0  0  0  0  0  0
   45.5930   33.1500   36.5520 C   0  0  0  0  0  0  0  0  0  0  0  0
   46.7950   33.2960   37.4360 C   0  0  0  0  0  0  0  0  0  0  0  0
   44.5070   35.9270   44.7050 C   0  0  0  0  0  0  0  0  0  0  0  0
   45.2000   35.8620   43.4670 C   0  0  0  0  0  0  0  0  0  0  0  0
   46.0980   34.8110   43.2880 C   0  0  0  0  0  0  0  0  0  0  0  0
   46.2670   33.9140   44.2860 N   0  0  0  0  0  0  0  0  0  0  0  0
   45.5780   34.0130   45.4630 C   0  0  0  0  0  0  0  0  0  0  0  0
   44.7090   35.0170   45.6550 N   0  0  0  0  0  0  0  0  0  0  0  0
   48.4016   36.0464   42.7129 H   0  0  0  0  0  0  0  0  0  0  0  0
   49.6102   35.8400   40.5616 H   0  0  0  0  0  0  0  0  0  0  0  0
   46.2209   30.9573   38.6632 H   0  0  0  0  0  0  0  0  0  0  0  0
   45.7341   31.6438   40.2055 H   0  0  0  0  0  0  0  0  0  0  0  0
   43.6775   31.3770   38.8292 H   0  0  0  0  0  0  0  0  0  0  0  0
   44.0041   33.1121   38.8737 H   0  0  0  0  0  0  0  0  0  0  0  0
   44.9735   31.1283   36.7408 H   0  0  0  0  0  0  0  0  0  0  0  0
   43.6397   32.3609   36.5633 H   0  0  0  0  0  0  0  0  0  0  0  0
   45.9351   32.8602   35.5475 H   0  0  0  0  0  0  0  0  0  0  0  0
   45.0729   34.1193   36.5582 H   0  0  0  0  0  0  0  0  0  0  0  0
   47.5664   32.5955   37.0836 H   0  0  0  0  0  0  0  0  0  0  0  0
   47.1033   34.3498   37.3688 H   0  0  0  0  0  0  0  0  0  0  0  0
   43.7912   36.7433   44.8817 H   0  0  0  0  0  0  0  0  0  0  0  0
   45.0345   36.6122   42.6797 H   0  0  0  0  0  0  0  0  0  0  0  0
   45.7368   33.2667   46.2553 H   0  0  0  0  0  0  0  0  0  0  0  0
  1 15  1  0
  2  1  2  0
  3  2  1  0
  4  5  1  0
  4  3  2  0
  5  6  2  0
  6  1  1  0
  7  8  1  0
  7  5  1  0
  9  8  1  0
 10  9  1  0
 11 10  1  0
 11 12  1  0
 12  7  1  0
 13 18  2  0
 14 13  1  0
 15 14  2  0
 15 16  1  0
 16 17  2  0
 17 18  1  0
  2 19  1  0
  3 20  1  0
  8 21  1  0
  8 22  1  0
  9 23  1  0
  9 24  1  0
 10 25  1  0
 10 26  1  0
 11 27  1  0
 11 28  1  0
 12 29  1  0
 12 30  1  0
 13 31  1  0
 14 32  1  0
 17 33  1  0
M  ISO  8  19  14  20  14  21  13  22  13  23  13  24  13  25  13  26  13
M  ISO  7  27  13  28  13  29  13  30  13  31  14  32  14  33  14
M  END
>  <minimizedAffinity>  (1) 
-5.40934563

>  <minimizedRMSD>  (1) 
0.151984468

$$$$
