
     RDKit          3D

 30 32  0  0  0  0  0  0  0  0999 V2000
   46.7650   34.7080   42.0310 C   0  0  0  0  0  0  0  0  0  0  0  0
   47.9890   35.3240   41.9120 C   0  0  0  0  0  0  0  0  0  0  0  0
   48.6350   35.1850   40.7230 C   0  0  0  0  0  0  0  0  0  0  0  0
   48.0760   34.4670   39.7200 N   0  0  0  0  0  0  0  0  0  0  0  0
   46.8700   33.8720   39.8680 C   0  0  0  0  0  0  0  0  0  0  0  0
   46.2250   34.0030   41.0340 N   0  0  0  0  0  0  0  0  0  0  0  0
   46.3490   33.1360   38.7680 N   0  0  0  0  0  0  0  0  0  0  0  0
   45.2420   32.2020   38.8830 C   0  0  0  0  0  0  0  0  0  0  0  0
   44.5120   32.4550   37.5820 C   0  0  0  0  0  0  0  0  0  0  0  0
   45.4480   33.2160   36.6760 C   0  0  0  0  0  0  0  0  0  0  0  0
   46.7840   33.1590   37.3850 C   0  0  0  0  0  0  0  0  0  0  0  0
   44.4930   35.9490   44.7260 C   0  0  0  0  0  0  0  0  0  0  0  0
   45.1590   35.8900   43.4790 C   0  0  0  0  0  0  0  0  0  0  0  0
   46.0420   34.8350   43.2900 C   0  0  0  0  0  0  0  0  0  0  0  0
   46.2190   33.9270   44.2960 N   0  0  0  0  0  0  0  0  0  0  0  0
   45.5590   34.0210   45.4800 C   0  0  0  0  0  0  0  0  0  0  0  0
   44.7000   35.0310   45.6870 N   0  0  0  0  0  0  0  0  0  0  0  0
   48.4252   35.9022   42.7399 H   0  0  0  0  0  0  0  0  0  0  0  0
   49.6169   35.6584   40.5754 H   0  0  0  0  0  0  0  0  0  0  0  0
   45.5961   31.1628   38.9517 H   0  0  0  0  0  0  0  0  0  0  0  0
   44.6246   32.3402   39.7828 H   0  0  0  0  0  0  0  0  0  0  0  0
   44.2334   31.4984   37.1158 H   0  0  0  0  0  0  0  0  0  0  0  0
   43.5922   33.0314   37.7602 H   0  0  0  0  0  0  0  0  0  0  0  0
   45.1142   34.2574   36.5571 H   0  0  0  0  0  0  0  0  0  0  0  0
   45.4914   32.7894   35.6630 H   0  0  0  0  0  0  0  0  0  0  0  0
   47.3454   32.2507   37.1208 H   0  0  0  0  0  0  0  0  0  0  0  0
   47.4711   33.9806   37.1344 H   0  0  0  0  0  0  0  0  0  0  0  0
   43.7853   36.7696   44.9150 H   0  0  0  0  0  0  0  0  0  0  0  0
   44.9856   36.6437   42.6968 H   0  0  0  0  0  0  0  0  0  0  0  0
   45.7284   33.2711   46.2668 H   0  0  0  0  0  0  0  0  0  0  0  0
  1 14  1  0
  2  1  2  0
  3  2  1  0
  4  5  1  0
  4  3  2  0
  5  6  2  0
  6  1  1  0
  7  8  1  0
  7  5  1  0
  9  8  1  0
 10 11  1  0
 10  9  1  0
 11  7  1  0
 12 17  2  0
 13 12  1  0
 14 13  2  0
 14 15  1  0
 15 16  2  0
 16 17  1  0
  2 18  1  0
  3 19  1  0
  8 20  1  0
  8 21  1  0
  9 22  1  0
  9 23  1  0
 10 24  1  0
 10 25  1  0
 11 26  1  0
 11 27  1  0
 12 28  1  0
 13 29  1  0
 16 30  1  0
M  ISO  8  18  14  19  14  20  13  21  13  22  13  23  13  24  13  25  13
M  ISO  5  26  13  27  13  28  14  29  14  30  14
M  END
>  <minimizedAffinity>  (1) 
-5.35941362

>  <minimizedRMSD>  (1) 
0.0677631572

$$$$
