
     RDKit          3D

 26 28  0  0  0  0  0  0  0  0999 V2000
   46.7990   34.7100   41.9840 C   0  0  0  0  0  0  0  0  0  0  0  0
   48.0150   35.3270   41.8760 C   0  0  0  0  0  0  0  0  0  0  0  0
   48.6530   35.1920   40.6840 C   0  0  0  0  0  0  0  0  0  0  0  0
   48.1120   34.4930   39.6840 N   0  0  0  0  0  0  0  0  0  0  0  0
   46.8990   33.8880   39.8180 C   0  0  0  0  0  0  0  0  0  0  0  0
   46.2580   34.0170   40.9990 N   0  0  0  0  0  0  0  0  0  0  0  0
   44.5100   35.9350   44.6870 C   0  0  0  0  0  0  0  0  0  0  0  0
   45.1800   35.8980   43.4260 C   0  0  0  0  0  0  0  0  0  0  0  0
   46.0690   34.8250   43.2490 C   0  0  0  0  0  0  0  0  0  0  0  0
   46.2280   33.9280   44.2480 N   0  0  0  0  0  0  0  0  0  0  0  0
   45.5640   34.0120   45.4260 C   0  0  0  0  0  0  0  0  0  0  0  0
   44.7090   35.0190   45.6360 N   0  0  0  0  0  0  0  0  0  0  0  0
   46.2970   33.1220   38.7340 C   0  0  0  0  0  0  0  0  0  0  0  0
   46.7760   33.3460   37.4430 C   0  0  0  0  0  0  0  0  0  0  0  0
   46.2280   32.6370   36.3920 C   0  0  0  0  0  0  0  0  0  0  0  0
   45.2440   31.7390   36.5960 N   0  0  0  0  0  0  0  0  0  0  0  0
   44.7980   31.5410   37.8550 C   0  0  0  0  0  0  0  0  0  0  0  0
   45.3150   32.2170   38.8940 N   0  0  0  0  0  0  0  0  0  0  0  0
   48.4517   35.9001   42.7072 H   0  0  0  0  0  0  0  0  0  0  0  0
   49.6342   35.6680   40.5404 H   0  0  0  0  0  0  0  0  0  0  0  0
   43.8008   36.7525   44.8836 H   0  0  0  0  0  0  0  0  0  0  0  0
   45.0115   36.6569   42.6478 H   0  0  0  0  0  0  0  0  0  0  0  0
   45.7274   33.2548   46.2069 H   0  0  0  0  0  0  0  0  0  0  0  0
   47.5786   34.0768   37.2647 H   0  0  0  0  0  0  0  0  0  0  0  0
   46.6009   32.8081   35.3714 H   0  0  0  0  0  0  0  0  0  0  0  0
   43.9947   30.8110   38.0334 H   0  0  0  0  0  0  0  0  0  0  0  0
  1  9  1  0
  2  1  2  0
  3  2  1  0
  4  5  1  0
  4  3  2  0
  5  6  2  0
  6  1  1  0
  7 12  2  0
  8  7  1  0
  9  8  2  0
  9 10  1  0
 10 11  2  0
 11 12  1  0
 13 18  1  0
 13  5  1  0
 14 13  2  0
 15 16  2  0
 15 14  1  0
 16 17  1  0
 17 18  2  0
  2 19  1  0
  3 20  1  0
  7 21  1  0
  8 22  1  0
 11 23  1  0
 14 24  1  0
 15 25  1  0
 17 26  1  0
M  ISO  8  19  14  20  14  21  14  22  14  23  14  24  14  25  14  26  14
M  END
>  <minimizedAffinity>  (1) 
-5.12119961

>  <minimizedRMSD>  (1) 
0.404074758

$$$$
