
     RDKit          3D

 46 49  0  0  1  0  0  0  0  0999 V2000
   48.0400   33.1560   43.3730 C   0  0  0  0  0  0  0  0  0  0  0  0
   48.0260   34.2800   41.1320 C   0  0  2  0  0  0  0  0  0  0  0  0
   48.5150   35.5360   41.5220 C   0  0  0  0  0  0  0  0  0  0  0  0
   49.8510   35.2920   42.2740 C   0  0  0  0  0  0  0  0  0  0  0  0
   50.1160   33.8000   42.2640 C   0  0  0  0  0  0  0  0  0  0  0  0
   48.7790   33.2540   42.0710 C   0  0  1  0  0  0  0  0  0  0  0  0
   48.2180   33.7200   39.7720 C   0  0  0  0  0  0  0  0  0  0  0  0
   48.3460   34.6110   38.7330 C   0  0  0  0  0  0  0  0  0  0  0  0
   48.5340   34.1670   37.4430 C   0  0  0  0  0  0  0  0  0  0  0  0
   48.5800   32.7970   37.2830 N   0  0  0  0  0  0  0  0  0  0  0  0
   48.4530   31.9720   38.3120 C   0  0  0  0  0  0  0  0  0  0  0  0
   48.2710   32.4070   39.5670 N   0  0  0  0  0  0  0  0  0  0  0  0
   46.6100   32.7660   43.1630 C   0  0  0  0  0  0  0  0  0  0  0  0
   45.7980   33.7180   43.9730 C   0  0  0  0  0  0  0  0  0  0  0  0
   44.8600   34.6130   43.5580 C   0  0  0  0  0  0  0  0  0  0  0  0
   44.3820   35.2690   44.6490 N   0  0  0  0  0  0  0  0  0  0  0  0
   45.0200   34.7810   45.7200 C   0  0  0  0  0  0  0  0  0  0  0  0
   45.8700   33.8540   45.3350 N   0  0  0  0  0  0  0  0  0  0  0  0
   46.7630   33.0750   46.2100 C   0  0  0  0  0  0  0  0  0  0  0  0
   45.9060   32.3340   47.1690 C   0  0  0  0  0  0  0  0  0  0  0  0
   45.6700   30.9620   47.0330 C   0  0  0  0  0  0  0  0  0  0  0  0
   44.8490   30.5090   48.0390 C   0  0  0  0  0  0  0  0  0  0  0  0
   44.5990   31.6110   48.7690 N   0  0  0  0  0  0  0  0  0  0  0  0
   45.2180   32.6630   48.2540 N   0  0  0  0  0  0  0  0  0  0  0  0
   48.5279   32.3994   44.0051 H   0  0  0  0  0  0  0  0  0  0  0  0
   48.0614   34.1432   43.8577 H   0  0  0  0  0  0  0  0  0  0  0  0
   46.9374   34.4296   41.1836 H   0  0  0  0  0  0  0  0  0  0  0  0
   48.6898   36.1645   40.6363 H   0  0  0  0  0  0  0  0  0  0  0  0
   47.7912   36.0548   42.1678 H   0  0  0  0  0  0  0  0  0  0  0  0
   50.6699   35.8219   41.7655 H   0  0  0  0  0  0  0  0  0  0  0  0
   49.7874   35.6663   43.3064 H   0  0  0  0  0  0  0  0  0  0  0  0
   50.7853   33.5188   41.4375 H   0  0  0  0  0  0  0  0  0  0  0  0
   50.6171   33.4333   43.1720 H   0  0  0  0  0  0  0  0  0  0  0  0
   48.8329   32.2426   41.6418 H   0  0  0  0  0  0  0  0  0  0  0  0
   48.2977   35.6913   38.9344 H   0  0  0  0  0  0  0  0  0  0  0  0
   48.6406   34.8595   36.5950 H   0  0  0  0  0  0  0  0  0  0  0  0
   48.4987   30.8882   38.1295 H   0  0  0  0  0  0  0  0  0  0  0  0
   46.3445   32.8476   42.0986 H   0  0  0  0  0  0  0  0  0  0  0  0
   46.4290   31.7244   43.4668 H   0  0  0  0  0  0  0  0  0  0  0  0
   44.5428   34.7775   42.5176 H   0  0  0  0  0  0  0  0  0  0  0  0
   44.8587   35.1045   46.7589 H   0  0  0  0  0  0  0  0  0  0  0  0
   47.3548   32.3680   45.6101 H   0  0  0  0  0  0  0  0  0  0  0  0
   47.4607   33.7376   46.7431 H   0  0  0  0  0  0  0  0  0  0  0  0
   46.0840   30.3322   46.2318 H   0  0  0  0  0  0  0  0  0  0  0  0
   44.4826   29.4856   48.2073 H   0  0  0  0  0  0  0  0  0  0  0  0
   44.0078   31.6337   49.6121 H   0  0  0  0  0  0  0  0  0  0  0  0
  2  3  1  0
  2  6  1  0
  3  4  1  0
  5  4  1  0
  6  5  1  0
  6  1  1  0
  7  2  1  0
  8  7  2  0
  9  8  1  0
 10  9  2  0
 10 11  1  0
 11 12  2  0
 12  7  1  0
 13  1  1  0
 13 14  1  0
 14 18  1  0
 15 14  2  0
 15 16  1  0
 16 17  2  0
 18 17  1  0
 18 19  1  0
 19 20  1  0
 20 24  2  0
 21 20  1  0
 21 22  2  0
 22 23  1  0
 24 23  1  0
  1 25  1  0
  1 26  1  0
  2 27  1  1
  3 28  1  0
  3 29  1  0
  4 30  1  0
  4 31  1  0
  5 32  1  0
  5 33  1  0
  6 34  1  6
  8 35  1  0
  9 36  1  0
 11 37  1  0
 13 38  1  0
 13 39  1  0
 15 40  1  0
 17 41  1  0
 19 42  1  0
 19 43  1  0
 21 44  1  0
 22 45  1  0
 23 46  1  0
M  ISO  8  25   8  26   8  27  13  28  13  29  13  30  13  31  13  32  13
M  ISO  8  33  13  34  13  35  14  36  14  37  14  38   8  39   8  40  14
M  ISO  6  41  14  42   8  43   8  44  14  45  14  46   9
M  END
>  <minimizedAffinity>  (1) 
-5.87169123

>  <minimizedRMSD>  (1) 
1.17601001

$$$$
