
     RDKit          3D

 34 36  0  0  0  0  0  0  0  0999 V2000
   46.8380   34.6880   42.0380 C   0  0  0  0  0  0  0  0  0  0  0  0
   47.9800   35.4200   41.8690 C   0  0  0  0  0  0  0  0  0  0  0  0
   48.6420   35.2770   40.6970 C   0  0  0  0  0  0  0  0  0  0  0  0
   48.1720   34.4400   39.7490 N   0  0  0  0  0  0  0  0  0  0  0  0
   47.0410   33.7200   39.9250 C   0  0  0  0  0  0  0  0  0  0  0  0
   46.3930   33.8700   41.0960 N   0  0  0  0  0  0  0  0  0  0  0  0
   44.5100   35.9340   44.6930 C   0  0  0  0  0  0  0  0  0  0  0  0
   45.2030   35.8700   43.4550 C   0  0  0  0  0  0  0  0  0  0  0  0
   46.0980   34.8120   43.2820 C   0  0  0  0  0  0  0  0  0  0  0  0
   46.2600   33.9080   44.2930 N   0  0  0  0  0  0  0  0  0  0  0  0
   45.5660   34.0210   45.4630 C   0  0  0  0  0  0  0  0  0  0  0  0
   44.7000   35.0330   45.6490 N   0  0  0  0  0  0  0  0  0  0  0  0
   46.4750   32.7820   38.9200 C   0  0  0  0  0  0  0  0  0  0  0  0
   46.7150   33.2930   37.5340 C   0  0  0  0  0  0  0  0  0  0  0  0
   45.4850   33.2730   36.6600 C   0  0  0  0  0  0  0  0  0  0  0  0
   44.7550   31.9460   36.7850 C   0  0  0  0  0  0  0  0  0  0  0  0
   44.4070   31.6210   38.1980 C   0  0  0  0  0  0  0  0  0  0  0  0
   44.9910   32.5800   39.1950 C   0  0  0  0  0  0  0  0  0  0  0  0
   48.3463   36.0980   42.6539 H   0  0  0  0  0  0  0  0  0  0  0  0
   49.5665   35.8453   40.5169 H   0  0  0  0  0  0  0  0  0  0  0  0
   43.7960   36.7530   44.8644 H   0  0  0  0  0  0  0  0  0  0  0  0
   45.0419   36.6206   42.6672 H   0  0  0  0  0  0  0  0  0  0  0  0
   45.7163   33.2782   46.2603 H   0  0  0  0  0  0  0  0  0  0  0  0
   46.9782   31.8072   39.0007 H   0  0  0  0  0  0  0  0  0  0  0  0
   47.0751   34.3301   37.6035 H   0  0  0  0  0  0  0  0  0  0  0  0
   47.4526   32.6237   37.0672 H   0  0  0  0  0  0  0  0  0  0  0  0
   45.7848   33.4223   35.6122 H   0  0  0  0  0  0  0  0  0  0  0  0
   44.8096   34.0786   36.9838 H   0  0  0  0  0  0  0  0  0  0  0  0
   43.8279   31.9956   36.1951 H   0  0  0  0  0  0  0  0  0  0  0  0
   45.4261   31.1572   36.4144 H   0  0  0  0  0  0  0  0  0  0  0  0
   43.3118   31.6375   38.2994 H   0  0  0  0  0  0  0  0  0  0  0  0
   44.8315   30.6298   38.4158 H   0  0  0  0  0  0  0  0  0  0  0  0
   44.8609   32.1744   40.2092 H   0  0  0  0  0  0  0  0  0  0  0  0
   44.4742   33.5473   39.1094 H   0  0  0  0  0  0  0  0  0  0  0  0
  1  9  1  0
  2  1  2  0
  3  2  1  0
  4  5  1  0
  4  3  2  0
  5  6  2  0
  6  1  1  0
  7 12  2  0
  8  7  1  0
  9  8  2  0
  9 10  1  0
 10 11  2  0
 11 12  1  0
 13 18  1  0
 13  5  1  0
 14 13  1  0
 15 16  1  0
 15 14  1  0
 16 17  1  0
 17 18  1  0
  2 19  1  0
  3 20  1  0
  7 21  1  0
  8 22  1  0
 11 23  1  0
 13 24  1  0
 14 25  1  0
 14 26  1  0
 15 27  1  0
 15 28  1  0
 16 29  1  0
 16 30  1  0
 17 31  1  0
 17 32  1  0
 18 33  1  0
 18 34  1  0
M  ISO  8  19  14  20  14  21  14  22  14  23  14  24  13  25  13  26  13
M  ISO  8  27  13  28  13  29  13  30  13  31  13  32  13  33  13  34  13
M  END
>  <minimizedAffinity>  (1) 
-5.1199007

>  <minimizedRMSD>  (1) 
0.372902095

$$$$
