
     RDKit          3D

 25 27  0  0  0  0  0  0  0  0999 V2000
   46.8540   34.7550   41.9320 C   0  0  0  0  0  0  0  0  0  0  0  0
   48.0720   35.3640   41.8290 C   0  0  0  0  0  0  0  0  0  0  0  0
   48.7110   35.2080   40.6320 C   0  0  0  0  0  0  0  0  0  0  0  0
   48.1770   34.5060   39.6280 N   0  0  0  0  0  0  0  0  0  0  0  0
   46.9630   33.9080   39.7510 C   0  0  0  0  0  0  0  0  0  0  0  0
   46.3230   34.0540   40.9270 N   0  0  0  0  0  0  0  0  0  0  0  0
   44.5060   35.9960   44.5750 C   0  0  0  0  0  0  0  0  0  0  0  0
   45.2110   35.9300   43.3380 C   0  0  0  0  0  0  0  0  0  0  0  0
   46.1030   34.8720   43.1820 C   0  0  0  0  0  0  0  0  0  0  0  0
   46.2630   33.9680   44.1830 N   0  0  0  0  0  0  0  0  0  0  0  0
   45.5660   34.0720   45.3460 C   0  0  0  0  0  0  0  0  0  0  0  0
   44.7060   35.0690   45.5330 N   0  0  0  0  0  0  0  0  0  0  0  0
   46.2870   33.1210   38.7260 C   0  0  0  0  0  0  0  0  0  0  0  0
   46.6660   33.3280   37.3990 C   0  0  0  0  0  0  0  0  0  0  0  0
   45.8960   32.4800   36.6220 C   0  0  0  0  0  0  0  0  0  0  0  0
   45.0810   31.7960   37.5300 C   0  0  0  0  0  0  0  0  0  0  0  0
   45.3490   32.2070   38.7480 O   0  0  0  0  0  0  0  0  0  0  0  0
   48.5098   35.9423   42.6560 H   0  0  0  0  0  0  0  0  0  0  0  0
   49.6967   35.6751   40.4898 H   0  0  0  0  0  0  0  0  0  0  0  0
   43.7904   36.8129   44.7499 H   0  0  0  0  0  0  0  0  0  0  0  0
   45.0581   36.6777   42.5458 H   0  0  0  0  0  0  0  0  0  0  0  0
   45.7149   33.3247   46.1393 H   0  0  0  0  0  0  0  0  0  0  0  0
   47.4312   34.0314   37.0389 H   0  0  0  0  0  0  0  0  0  0  0  0
   45.9198   32.3682   35.5280 H   0  0  0  0  0  0  0  0  0  0  0  0
   44.3333   31.0338   37.2654 H   0  0  0  0  0  0  0  0  0  0  0  0
  1  9  1  0
  2  1  2  0
  3  2  1  0
  4  5  1  0
  4  3  2  0
  5  6  2  0
  6  1  1  0
  7 12  2  0
  8  7  1  0
  9  8  2  0
  9 10  1  0
 10 11  2  0
 11 12  1  0
 13 17  1  0
 13  5  1  0
 14 13  2  0
 15 14  1  0
 15 16  2  0
 16 17  1  0
  2 18  1  0
  3 19  1  0
  7 20  1  0
  8 21  1  0
 11 22  1  0
 14 23  1  0
 15 24  1  0
 16 25  1  0
M  ISO  8  18  14  19  14  20  14  21  14  22  14  23  14  24  14  25  14
M  END
>  <minimizedAffinity>  (1) 
-4.9746027

>  <minimizedRMSD>  (1) 
0.342135787

$$$$
