
     RDKit          3D

 20 21  0  0  0  0  0  0  0  0999 V2000
   46.7950   34.6980   42.0170 C   0  0  0  0  0  0  0  0  0  0  0  0
   47.9910   35.3450   41.8710 C   0  0  0  0  0  0  0  0  0  0  0  0
   48.6380   35.2140   40.6870 C   0  0  0  0  0  0  0  0  0  0  0  0
   48.1000   34.4670   39.7000 N   0  0  0  0  0  0  0  0  0  0  0  0
   46.9090   33.8250   39.8510 C   0  0  0  0  0  0  0  0  0  0  0  0
   46.2920   33.9750   41.0390 N   0  0  0  0  0  0  0  0  0  0  0  0
   46.3640   33.0360   38.7790 N   0  0  0  0  0  0  0  0  0  0  0  0
   44.5020   35.9450   44.6980 C   0  0  0  0  0  0  0  0  0  0  0  0
   45.1820   35.8820   43.4480 C   0  0  0  0  0  0  0  0  0  0  0  0
   46.0730   34.8140   43.2710 C   0  0  0  0  0  0  0  0  0  0  0  0
   46.2420   33.9110   44.2730 N   0  0  0  0  0  0  0  0  0  0  0  0
   45.5590   34.0270   45.4490 C   0  0  0  0  0  0  0  0  0  0  0  0
   44.7040   35.0330   45.6480 N   0  0  0  0  0  0  0  0  0  0  0  0
   48.4134   35.9508   42.6862 H   0  0  0  0  0  0  0  0  0  0  0  0
   49.6034   35.7175   40.5303 H   0  0  0  0  0  0  0  0  0  0  0  0
   45.4623   32.5535   38.9016 H   0  0  0  0  0  0  0  0  0  0  0  0
   46.8754   32.9535   37.8888 H   0  0  0  0  0  0  0  0  0  0  0  0
   43.7935   36.7658   44.8833 H   0  0  0  0  0  0  0  0  0  0  0  0
   45.0165   36.6331   42.6615 H   0  0  0  0  0  0  0  0  0  0  0  0
   45.7150   33.2820   46.2431 H   0  0  0  0  0  0  0  0  0  0  0  0
  1 10  1  0
  2  1  2  0
  3  2  1  0
  4  5  1  0
  4  3  2  0
  5  6  2  0
  6  1  1  0
  7  5  1  0
  8 13  2  0
  9  8  1  0
 10  9  2  0
 10 11  1  0
 11 12  2  0
 12 13  1  0
  2 14  1  0
  3 15  1  0
  7 16  1  0
  7 17  1  0
  8 18  1  0
  9 19  1  0
 12 20  1  0
M  ISO  5  14  14  15  14  18  14  19  14  20  14
M  END
>  <minimizedAffinity>  (1) 
-4.58471918

>  <minimizedRMSD>  (1) 
0.0274316259

$$$$
