
     RDKit          3D

 20 21  0  0  0  0  0  0  0  0999 V2000
   46.7860   34.7240   41.9600 C   0  0  0  0  0  0  0  0  0  0  0  0
   47.9960   35.3500   41.8240 C   0  0  0  0  0  0  0  0  0  0  0  0
   48.6570   35.2020   40.6490 C   0  0  0  0  0  0  0  0  0  0  0  0
   48.1280   34.4600   39.6580 N   0  0  0  0  0  0  0  0  0  0  0  0
   46.9330   33.8460   39.8010 C   0  0  0  0  0  0  0  0  0  0  0  0
   46.2940   34.0060   40.9730 N   0  0  0  0  0  0  0  0  0  0  0  0
   44.5050   36.0180   44.6220 C   0  0  0  0  0  0  0  0  0  0  0  0
   45.1860   35.9470   43.3720 C   0  0  0  0  0  0  0  0  0  0  0  0
   46.0540   34.8650   43.2090 C   0  0  0  0  0  0  0  0  0  0  0  0
   46.2060   33.9600   44.2140 N   0  0  0  0  0  0  0  0  0  0  0  0
   45.5300   34.0740   45.3900 C   0  0  0  0  0  0  0  0  0  0  0  0
   44.6820   35.1060   45.5830 N   0  0  0  0  0  0  0  0  0  0  0  0
   46.2690   33.0230   38.7980 C   0  0  0  0  0  0  0  0  0  0  0  0
   46.3180   33.2580   37.5570 O   0  0  0  0  0  0  0  0  0  0  0  0
   48.4183   35.9533   42.6411 H   0  0  0  0  0  0  0  0  0  0  0  0
   49.6315   35.6913   40.5048 H   0  0  0  0  0  0  0  0  0  0  0  0
   43.8102   36.8516   44.8020 H   0  0  0  0  0  0  0  0  0  0  0  0
   45.0370   36.6990   42.5832 H   0  0  0  0  0  0  0  0  0  0  0  0
   45.6749   33.3253   46.1827 H   0  0  0  0  0  0  0  0  0  0  0  0
   45.6939   32.1498   39.1396 H   0  0  0  0  0  0  0  0  0  0  0  0
  1  9  1  0
  2  1  2  0
  3  2  1  0
  4  5  1  0
  4  3  2  0
  5  6  2  0
  6  1  1  0
  7 12  2  0
  8  7  1  0
  9  8  2  0
  9 10  1  0
 10 11  2  0
 11 12  1  0
 13  5  1  0
 14 13  2  0
  2 15  1  0
  3 16  1  0
  7 17  1  0
  8 18  1  0
 11 19  1  0
 13 20  1  0
M  ISO  6  15  14  16  14  17  14  18  14  19  14  20   6
M  END
>  <minimizedAffinity>  (1) 
-4.54708576

>  <minimizedRMSD>  (1) 
0.103537694

$$$$
