
     RDKit          3D

 28 30  0  0  0  0  0  0  0  0999 V2000
   47.0120   34.8340   41.9600 C   0  0  0  0  0  0  0  0  0  0  0  0
   48.2220   35.5000   41.9490 C   0  0  0  0  0  0  0  0  0  0  0  0
   48.9390   35.4450   40.7990 C   0  0  0  0  0  0  0  0  0  0  0  0
   48.4780   34.7710   39.7330 N   0  0  0  0  0  0  0  0  0  0  0  0
   47.2880   34.1250   39.7660 C   0  0  0  0  0  0  0  0  0  0  0  0
   46.5610   34.1720   40.9120 N   0  0  0  0  0  0  0  0  0  0  0  0
   46.8630   33.4310   38.5980 N   0  0  0  0  0  0  0  0  0  0  0  0
   45.9740   32.4250   38.8330 C   0  0  0  0  0  0  0  0  0  0  0  0
   45.4780   31.6650   37.7700 C   0  0  0  0  0  0  0  0  0  0  0  0
   45.9540   32.0160   36.5240 C   0  0  0  0  0  0  0  0  0  0  0  0
   45.4780   31.3000   35.5820 O   0  0  0  0  0  0  0  0  0  0  0  0
   46.8320   33.0070   36.2840 N   0  0  0  0  0  0  0  0  0  0  0  0
   47.2770   33.7080   37.3480 C   0  0  0  0  0  0  0  0  0  0  0  0
   48.0940   34.6410   37.1900 O   0  0  0  0  0  0  0  0  0  0  0  0
   44.5310   35.8700   44.5600 C   0  0  0  0  0  0  0  0  0  0  0  0
   45.2740   35.8840   43.3490 C   0  0  0  0  0  0  0  0  0  0  0  0
   46.2220   34.8740   43.1750 C   0  0  0  0  0  0  0  0  0  0  0  0
   46.3790   33.9510   44.1580 N   0  0  0  0  0  0  0  0  0  0  0  0
   45.6410   33.9800   45.3070 C   0  0  0  0  0  0  0  0  0  0  0  0
   44.7200   34.9420   45.4990 N   0  0  0  0  0  0  0  0  0  0  0  0
   48.5865   36.0484   42.8302 H   0  0  0  0  0  0  0  0  0  0  0  0
   49.9098   35.9587   40.7388 H   0  0  0  0  0  0  0  0  0  0  0  0
   45.6463   32.2108   39.8610 H   0  0  0  0  0  0  0  0  0  0  0  0
   44.7592   30.8453   37.9167 H   0  0  0  0  0  0  0  0  0  0  0  0
   47.1511   33.2216   35.3285 H   0  0  0  0  0  0  0  0  0  0  0  0
   43.7746   36.6507   44.7287 H   0  0  0  0  0  0  0  0  0  0  0  0
   45.1096   36.6560   42.5829 H   0  0  0  0  0  0  0  0  0  0  0  0
   45.8004   33.2131   46.0793 H   0  0  0  0  0  0  0  0  0  0  0  0
  1 17  1  0
  2  1  2  0
  3  2  1  0
  4  5  1  0
  4  3  2  0
  5  6  2  0
  6  1  1  0
  7  8  1  0
  7  5  1  0
  9  8  2  0
 10  9  1  0
 11 10  2  0
 12 10  1  0
 12 13  1  0
 13  7  1  0
 14 13  2  0
 15 20  2  0
 16 15  1  0
 17 16  2  0
 17 18  1  0
 18 19  2  0
 19 20  1  0
  2 21  1  0
  3 22  1  0
  8 23  1  0
  9 24  1  0
 12 25  1  0
 15 26  1  0
 16 27  1  0
 19 28  1  0
M  ISO  8  21  14  22  14  23  14  24  14  25   9  26  14  27  14  28  14
M  END
>  <minimizedAffinity>  (1) 
-6.01441288

>  <minimizedRMSD>  (1) 
0.550514758

$$$$
