
     RDKit          3D

 39 43  0  0  0  0  0  0  0  0999 V2000
   46.9600   34.8770   42.0080 C   0  0  0  0  0  0  0  0  0  0  0  0
   48.1960   35.4980   42.0180 C   0  0  0  0  0  0  0  0  0  0  0  0
   48.9360   35.4040   40.8830 C   0  0  0  0  0  0  0  0  0  0  0  0
   48.4700   34.7350   39.8150 N   0  0  0  0  0  0  0  0  0  0  0  0
   47.2620   34.1360   39.8270 C   0  0  0  0  0  0  0  0  0  0  0  0
   46.5110   34.2180   40.9460 N   0  0  0  0  0  0  0  0  0  0  0  0
   46.8390   33.4470   38.6590 N   0  0  0  0  0  0  0  0  0  0  0  0
   45.9110   32.4660   38.8780 C   0  0  0  0  0  0  0  0  0  0  0  0
   45.4160   31.7150   37.8060 C   0  0  0  0  0  0  0  0  0  0  0  0
   45.9220   32.0370   36.5690 C   0  0  0  0  0  0  0  0  0  0  0  0
   45.4520   31.3380   35.6180 O   0  0  0  0  0  0  0  0  0  0  0  0
   46.8390   33.0030   36.3370 N   0  0  0  0  0  0  0  0  0  0  0  0
   47.2830   33.6960   37.4040 C   0  0  0  0  0  0  0  0  0  0  0  0
   48.1350   34.6070   37.2560 O   0  0  0  0  0  0  0  0  0  0  0  0
   44.4470   35.9920   44.5360 C   0  0  0  0  0  0  0  0  0  0  0  0
   45.2110   35.9690   43.3440 C   0  0  0  0  0  0  0  0  0  0  0  0
   46.1460   34.9570   43.2020 C   0  0  0  0  0  0  0  0  0  0  0  0
   46.2870   34.0420   44.2070 N   0  0  0  0  0  0  0  0  0  0  0  0
   45.5190   34.1140   45.3400 C   0  0  0  0  0  0  0  0  0  0  0  0
   44.6060   35.0900   45.4920 N   0  0  0  0  0  0  0  0  0  0  0  0
   45.7210   33.1190   46.3510 N   0  0  0  0  0  0  0  0  0  0  0  0
   45.3240   33.0480   47.6360 C   0  0  0  0  0  0  0  0  0  0  0  0
   45.7690   31.8970   48.1830 N   0  0  0  0  0  0  0  0  0  0  0  0
   46.4600   31.2060   47.2660 C   0  0  0  0  0  0  0  0  0  0  0  0
   47.1340   30.0220   47.1860 C   0  0  0  0  0  0  0  0  0  0  0  0
   47.7550   29.5930   46.0500 N   0  0  0  0  0  0  0  0  0  0  0  0
   47.7090   30.3680   44.9350 C   0  0  0  0  0  0  0  0  0  0  0  0
   47.0490   31.5200   45.0200 N   0  0  0  0  0  0  0  0  0  0  0  0
   46.4240   31.9690   46.1350 C   0  0  0  0  0  0  0  0  0  0  0  0
   48.5616   36.0413   42.9018 H   0  0  0  0  0  0  0  0  0  0  0  0
   49.9265   35.8802   40.8377 H   0  0  0  0  0  0  0  0  0  0  0  0
   45.5531   32.2671   39.8990 H   0  0  0  0  0  0  0  0  0  0  0  0
   44.6701   30.9184   37.9442 H   0  0  0  0  0  0  0  0  0  0  0  0
   47.1831   33.2006   35.3865 H   0  0  0  0  0  0  0  0  0  0  0  0
   43.6970   36.7851   44.6721 H   0  0  0  0  0  0  0  0  0  0  0  0
   45.0673   36.7268   42.5598 H   0  0  0  0  0  0  0  0  0  0  0  0
   44.7287   33.8107   48.1593 H   0  0  0  0  0  0  0  0  0  0  0  0
   47.1785   29.3832   48.0804 H   0  0  0  0  0  0  0  0  0  0  0  0
   48.1975   30.0557   44.0002 H   0  0  0  0  0  0  0  0  0  0  0  0
  1  2  2  0
  1 17  1  0
  3  2  1  0
  4  5  1  0
  4  3  2  0
  5  6  2  0
  6  1  1  0
  7  8  1  0
  7  5  1  0
  9  8  2  0
 10  9  1  0
 11 10  2  0
 12 10  1  0
 12 13  1  0
 13  7  1  0
 14 13  2  0
 15 20  2  0
 16 15  1  0
 17 16  2  0
 17 18  1  0
 18 19  2  0
 19 20  1  0
 19 21  1  0
 21 22  1  0
 22 23  2  0
 24 23  1  0
 25 24  2  0
 26 25  1  0
 27 28  1  0
 27 26  2  0
 28 29  2  0
 29 21  1  0
 29 24  1  0
  2 30  1  0
  3 31  1  0
  8 32  1  0
  9 33  1  0
 12 34  1  0
 15 35  1  0
 16 36  1  0
 22 37  1  0
 25 38  1  0
 27 39  1  0
M  ISO  8  30  14  31  14  32  14  33  14  34   9  35  14  36  14  37  14
M  ISO  2  38  14  39  14
M  END
>  <minimizedAffinity>  (1) 
-7.92885351

>  <minimizedRMSD>  (1) 
0.169042021

$$$$
