
     RDKit          3D

 42 45  0  0  0  0  0  0  0  0999 V2000
   46.9920   34.8100   42.0410 C   0  0  0  0  0  0  0  0  0  0  0  0
   48.2100   35.4820   42.0290 C   0  0  0  0  0  0  0  0  0  0  0  0
   48.9190   35.4270   40.8750 C   0  0  0  0  0  0  0  0  0  0  0  0
   48.4480   34.7500   39.8030 N   0  0  0  0  0  0  0  0  0  0  0  0
   47.2670   34.1100   39.8470 C   0  0  0  0  0  0  0  0  0  0  0  0
   46.5390   34.1520   40.9930 N   0  0  0  0  0  0  0  0  0  0  0  0
   46.8360   33.4180   38.6810 N   0  0  0  0  0  0  0  0  0  0  0  0
   45.9440   32.4090   38.9250 C   0  0  0  0  0  0  0  0  0  0  0  0
   45.4420   31.6490   37.8630 C   0  0  0  0  0  0  0  0  0  0  0  0
   45.9110   32.0020   36.6120 C   0  0  0  0  0  0  0  0  0  0  0  0
   45.4270   31.2830   35.6750 O   0  0  0  0  0  0  0  0  0  0  0  0
   46.7860   32.9910   36.3700 N   0  0  0  0  0  0  0  0  0  0  0  0
   47.2430   33.6970   37.4290 C   0  0  0  0  0  0  0  0  0  0  0  0
   48.0570   34.6290   37.2670 O   0  0  0  0  0  0  0  0  0  0  0  0
   44.5100   35.8500   44.6360 C   0  0  0  0  0  0  0  0  0  0  0  0
   45.2440   35.8530   43.4310 C   0  0  0  0  0  0  0  0  0  0  0  0
   46.2120   34.8500   43.2570 C   0  0  0  0  0  0  0  0  0  0  0  0
   46.3800   33.9500   44.2510 N   0  0  0  0  0  0  0  0  0  0  0  0
   45.6460   33.9850   45.4040 C   0  0  0  0  0  0  0  0  0  0  0  0
   44.7170   34.9390   45.5800 N   0  0  0  0  0  0  0  0  0  0  0  0
   45.8790   33.0010   46.4070 N   0  0  0  0  0  0  0  0  0  0  0  0
   46.8930   31.9880   46.1760 C   0  0  0  0  0  0  0  0  0  0  0  0
   47.5260   31.4940   47.4550 C   0  0  0  0  0  0  0  0  0  0  0  0
   46.4340   31.0550   48.3080 N   0  0  0  0  0  0  0  0  0  0  0  0
   45.7140   32.2160   48.7280 C   0  0  0  0  0  0  0  0  0  0  0  0
   45.1180   33.0270   47.6190 C   0  0  0  0  0  0  0  0  0  0  0  0
   48.5783   36.0291   42.9094 H   0  0  0  0  0  0  0  0  0  0  0  0
   49.8900   35.9396   40.8095 H   0  0  0  0  0  0  0  0  0  0  0  0
   45.6221   32.1958   39.9550 H   0  0  0  0  0  0  0  0  0  0  0  0
   44.7248   30.8286   38.0132 H   0  0  0  0  0  0  0  0  0  0  0  0
   47.0981   33.2044   35.4119 H   0  0  0  0  0  0  0  0  0  0  0  0
   43.7451   36.6237   44.7981 H   0  0  0  0  0  0  0  0  0  0  0  0
   45.0648   36.6129   42.6562 H   0  0  0  0  0  0  0  0  0  0  0  0
   46.4270   31.1346   45.6616 H   0  0  0  0  0  0  0  0  0  0  0  0
   47.6871   32.4457   45.5677 H   0  0  0  0  0  0  0  0  0  0  0  0
   48.2056   30.6551   47.2443 H   0  0  0  0  0  0  0  0  0  0  0  0
   48.1183   32.2845   47.9391 H   0  0  0  0  0  0  0  0  0  0  0  0
   45.8097   30.4266   47.7824 H   0  0  0  0  0  0  0  0  0  0  0  0
   44.8976   31.8904   49.3894 H   0  0  0  0  0  0  0  0  0  0  0  0
   46.4463   32.8682   49.2264 H   0  0  0  0  0  0  0  0  0  0  0  0
   45.0403   34.0710   47.9567 H   0  0  0  0  0  0  0  0  0  0  0  0
   44.1381   32.5828   47.3900 H   0  0  0  0  0  0  0  0  0  0  0  0
  1 17  1  0
  2  1  2  0
  3  2  1  0
  4  5  1  0
  4  3  2  0
  5  6  2  0
  6  1  1  0
  7  8  1  0
  7  5  1  0
  9  8  2  0
 10  9  1  0
 11 10  2  0
 12 10  1  0
 12 13  1  0
 13  7  1  0
 14 13  2  0
 15 20  2  0
 16 15  1  0
 17 16  2  0
 17 18  1  0
 18 19  2  0
 19 20  1  0
 19 21  1  0
 21 26  1  0
 22 21  1  0
 22 23  1  0
 23 24  1  0
 24 25  1  0
 26 25  1  0
  2 27  1  0
  3 28  1  0
  8 29  1  0
  9 30  1  0
 12 31  1  0
 15 32  1  0
 16 33  1  0
 22 34  1  0
 22 35  1  0
 23 36  1  0
 23 37  1  0
 24 38  1  0
 25 39  1  0
 25 40  1  0
 26 41  1  0
 26 42  1  0
M  ISO  8  27  14  28  14  29  14  30  14  31   9  32  14  33  14  34  13
M  ISO  8  35  13  36  13  37  13  38   5  39  13  40  13  41  13  42  13
M  END
>  <minimizedAffinity>  (1) 
-7.70533895

>  <minimizedRMSD>  (1) 
0.0980945826

$$$$
