
     RDKit          3D

 38 41  0  0  0  0  0  0  0  0999 V2000
   47.0200   34.8060   42.0170 C   0  0  0  0  0  0  0  0  0  0  0  0
   48.2230   35.4850   41.9880 C   0  0  0  0  0  0  0  0  0  0  0  0
   48.9280   35.4470   40.8300 C   0  0  0  0  0  0  0  0  0  0  0  0
   48.4580   34.7740   39.7740 N   0  0  0  0  0  0  0  0  0  0  0  0
   47.2770   34.1130   39.8190 C   0  0  0  0  0  0  0  0  0  0  0  0
   46.5560   34.1400   40.9700 N   0  0  0  0  0  0  0  0  0  0  0  0
   46.8460   33.4170   38.6440 N   0  0  0  0  0  0  0  0  0  0  0  0
   45.9750   32.4080   38.8910 C   0  0  0  0  0  0  0  0  0  0  0  0
   45.4700   31.6410   37.8280 C   0  0  0  0  0  0  0  0  0  0  0  0
   45.9250   31.9970   36.5820 C   0  0  0  0  0  0  0  0  0  0  0  0
   45.4530   31.2870   35.6350 O   0  0  0  0  0  0  0  0  0  0  0  0
   46.7860   32.9950   36.3420 N   0  0  0  0  0  0  0  0  0  0  0  0
   47.2450   33.7050   37.3980 C   0  0  0  0  0  0  0  0  0  0  0  0
   48.0460   34.6420   37.2290 O   0  0  0  0  0  0  0  0  0  0  0  0
   44.5090   35.7800   44.6150 C   0  0  0  0  0  0  0  0  0  0  0  0
   45.2440   35.7910   43.4030 C   0  0  0  0  0  0  0  0  0  0  0  0
   46.2490   34.8290   43.2370 C   0  0  0  0  0  0  0  0  0  0  0  0
   46.4610   33.9470   44.2430 N   0  0  0  0  0  0  0  0  0  0  0  0
   45.7220   33.9800   45.3960 C   0  0  0  0  0  0  0  0  0  0  0  0
   44.7610   34.8910   45.5660 N   0  0  0  0  0  0  0  0  0  0  0  0
   45.9970   33.0020   46.4430 C   0  0  0  0  0  0  0  0  0  0  0  0
   47.0360   32.1020   46.3080 C   0  0  0  0  0  0  0  0  0  0  0  0
   47.2960   31.1690   47.3130 C   0  0  0  0  0  0  0  0  0  0  0  0
   46.4850   31.1830   48.4300 C   0  0  0  0  0  0  0  0  0  0  0  0
   45.4350   32.0570   48.6200 C   0  0  0  0  0  0  0  0  0  0  0  0
   45.2210   32.9700   47.5800 C   0  0  0  0  0  0  0  0  0  0  0  0
   48.5933   36.0332   42.8669 H   0  0  0  0  0  0  0  0  0  0  0  0
   49.8917   35.9726   40.7589 H   0  0  0  0  0  0  0  0  0  0  0  0
   45.6638   32.1900   39.9233 H   0  0  0  0  0  0  0  0  0  0  0  0
   44.7609   30.8144   37.9825 H   0  0  0  0  0  0  0  0  0  0  0  0
   47.0892   33.2150   35.3825 H   0  0  0  0  0  0  0  0  0  0  0  0
   43.7136   36.5239   44.7697 H   0  0  0  0  0  0  0  0  0  0  0  0
   45.0320   36.5314   42.6176 H   0  0  0  0  0  0  0  0  0  0  0  0
   47.6619   32.1206   45.4036 H   0  0  0  0  0  0  0  0  0  0  0  0
   48.1199   30.4464   47.2181 H   0  0  0  0  0  0  0  0  0  0  0  0
   46.6899   30.4476   49.2219 H   0  0  0  0  0  0  0  0  0  0  0  0
   44.8097   32.0382   49.5248 H   0  0  0  0  0  0  0  0  0  0  0  0
   44.3974   33.6929   47.6755 H   0  0  0  0  0  0  0  0  0  0  0  0
  1 17  1  0
  2  1  2  0
  3  2  1  0
  4  5  1  0
  4  3  2  0
  5  6  2  0
  6  1  1  0
  7  8  1  0
  7  5  1  0
  9  8  2  0
 10  9  1  0
 11 10  2  0
 12 10  1  0
 12 13  1  0
 13  7  1  0
 14 13  2  0
 15 20  2  0
 16 15  1  0
 17 16  2  0
 17 18  1  0
 18 19  2  0
 19 20  1  0
 19 21  1  0
 21 26  1  0
 22 21  2  0
 22 23  1  0
 23 24  2  0
 24 25  1  0
 26 25  2  0
  2 27  1  0
  3 28  1  0
  8 29  1  0
  9 30  1  0
 12 31  1  0
 15 32  1  0
 16 33  1  0
 22 34  1  0
 23 35  1  0
 24 36  1  0
 25 37  1  0
 26 38  1  0
M  ISO  8  27  14  28  14  29  14  30  14  31   9  32  14  33  14  34  14
M  ISO  4  35  14  36  14  37  14  38  14
M  END
>  <minimizedAffinity>  (1) 
-7.62935114

>  <minimizedRMSD>  (1) 
0.249362558

$$$$
