
     RDKit          3D

 35 38  0  0  0  0  0  0  0  0999 V2000
   47.0670   34.7630   41.9750 C   0  0  0  0  0  0  0  0  0  0  0  0
   48.2380   35.5090   41.9710 C   0  0  0  0  0  0  0  0  0  0  0  0
   48.9420   35.5210   40.8100 C   0  0  0  0  0  0  0  0  0  0  0  0
   48.5150   34.8430   39.7370 N   0  0  0  0  0  0  0  0  0  0  0  0
   47.3700   34.1220   39.7680 C   0  0  0  0  0  0  0  0  0  0  0  0
   46.6490   34.0970   40.9220 N   0  0  0  0  0  0  0  0  0  0  0  0
   46.9740   33.4260   38.5940 N   0  0  0  0  0  0  0  0  0  0  0  0
   46.1560   32.3650   38.8160 C   0  0  0  0  0  0  0  0  0  0  0  0
   45.6910   31.5910   37.7410 C   0  0  0  0  0  0  0  0  0  0  0  0
   46.1270   31.9930   36.4980 C   0  0  0  0  0  0  0  0  0  0  0  0
   45.6900   31.2750   35.5500 O   0  0  0  0  0  0  0  0  0  0  0  0
   46.9330   33.0380   36.2720 N   0  0  0  0  0  0  0  0  0  0  0  0
   47.3540   33.7520   37.3350 C   0  0  0  0  0  0  0  0  0  0  0  0
   48.1110   34.7430   37.1930 O   0  0  0  0  0  0  0  0  0  0  0  0
   44.6490   35.6680   44.6730 C   0  0  0  0  0  0  0  0  0  0  0  0
   45.3850   35.7380   43.4680 C   0  0  0  0  0  0  0  0  0  0  0  0
   46.2930   34.7290   43.1980 C   0  0  0  0  0  0  0  0  0  0  0  0
   46.4300   33.7220   44.1030 N   0  0  0  0  0  0  0  0  0  0  0  0
   45.7050   33.6810   45.2590 C   0  0  0  0  0  0  0  0  0  0  0  0
   44.8140   34.6570   45.5390 N   0  0  0  0  0  0  0  0  0  0  0  0
   45.9020   32.5570   46.2030 C   0  0  0  0  0  0  0  0  0  0  0  0
   45.4680   32.8110   47.6370 C   0  0  0  0  0  0  0  0  0  0  0  0
   46.9070   32.6810   47.3010 C   0  0  0  0  0  0  0  0  0  0  0  0
   48.5771   36.0605   42.8603 H   0  0  0  0  0  0  0  0  0  0  0  0
   49.8775   36.0965   40.7499 H   0  0  0  0  0  0  0  0  0  0  0  0
   45.8562   32.1107   39.8434 H   0  0  0  0  0  0  0  0  0  0  0  0
   45.0263   30.7258   37.8814 H   0  0  0  0  0  0  0  0  0  0  0  0
   47.2223   33.2885   35.3157 H   0  0  0  0  0  0  0  0  0  0  0  0
   43.9237   36.4615   44.9060 H   0  0  0  0  0  0  0  0  0  0  0  0
   45.2400   36.5712   42.7646 H   0  0  0  0  0  0  0  0  0  0  0  0
   45.7120   31.8030   45.4249 H   0  0  0  0  0  0  0  0  0  0  0  0
   45.0551   33.7898   47.9226 H   0  0  0  0  0  0  0  0  0  0  0  0
   44.7845   32.3180   48.3440 H   0  0  0  0  0  0  0  0  0  0  0  0
   47.4670   31.7938   47.6315 H   0  0  0  0  0  0  0  0  0  0  0  0
   47.7951   33.3092   47.4640 H   0  0  0  0  0  0  0  0  0  0  0  0
  1 17  1  0
  2  1  2  0
  3  2  1  0
  4  5  1  0
  4  3  2  0
  5  6  2  0
  6  1  1  0
  7  8  1  0
  7  5  1  0
  9  8  2  0
 10  9  1  0
 11 10  2  0
 12 10  1  0
 12 13  1  0
 13  7  1  0
 14 13  2  0
 15 20  2  0
 16 15  1  0
 17 16  2  0
 17 18  1  0
 18 19  2  0
 19 20  1  0
 19 21  1  0
 21 23  1  0
 21 22  1  0
 23 22  1  0
  2 24  1  0
  3 25  1  0
  8 26  1  0
  9 27  1  0
 12 28  1  0
 15 29  1  0
 16 30  1  0
 21 31  1  0
 22 32  1  0
 22 33  1  0
 23 34  1  0
 23 35  1  0
M  ISO  8  24  14  25  14  26  14  27  14  28   9  29  14  30  14  31  13
M  ISO  4  32  13  33  13  34  13  35  13
M  END
>  <minimizedAffinity>  (1) 
-6.54277182

>  <minimizedRMSD>  (1) 
0.2578879

$$$$
