
     RDKit          3D

 29 31  0  0  0  0  0  0  0  0999 V2000
   46.9670   34.8580   41.9650 C   0  0  0  0  0  0  0  0  0  0  0  0
   48.2000   35.4820   41.9710 C   0  0  0  0  0  0  0  0  0  0  0  0
   48.9370   35.3990   40.8330 C   0  0  0  0  0  0  0  0  0  0  0  0
   48.4700   34.7360   39.7630 N   0  0  0  0  0  0  0  0  0  0  0  0
   47.2650   34.1350   39.7780 C   0  0  0  0  0  0  0  0  0  0  0  0
   46.5180   34.2090   40.9060 N   0  0  0  0  0  0  0  0  0  0  0  0
   46.8360   33.4490   38.6030 N   0  0  0  0  0  0  0  0  0  0  0  0
   45.9170   32.4720   38.8290 C   0  0  0  0  0  0  0  0  0  0  0  0
   45.4160   31.7270   37.7570 C   0  0  0  0  0  0  0  0  0  0  0  0
   45.9150   32.0570   36.5250 C   0  0  0  0  0  0  0  0  0  0  0  0
   45.4230   31.3450   35.5880 O   0  0  0  0  0  0  0  0  0  0  0  0
   46.8190   33.0140   36.2900 N   0  0  0  0  0  0  0  0  0  0  0  0
   47.2750   33.7090   37.3560 C   0  0  0  0  0  0  0  0  0  0  0  0
   48.1180   34.6160   37.2100 O   0  0  0  0  0  0  0  0  0  0  0  0
   44.5370   36.0370   44.5440 C   0  0  0  0  0  0  0  0  0  0  0  0
   45.3030   36.0160   43.3560 C   0  0  0  0  0  0  0  0  0  0  0  0
   46.1630   34.9290   43.1580 C   0  0  0  0  0  0  0  0  0  0  0  0
   46.2000   33.9800   44.1150 N   0  0  0  0  0  0  0  0  0  0  0  0
   45.4460   34.0370   45.2450 C   0  0  0  0  0  0  0  0  0  0  0  0
   44.6200   35.0670   45.4500 N   0  0  0  0  0  0  0  0  0  0  0  0
   45.4840   33.0630   46.2260 O   0  0  0  0  0  0  0  0  0  0  0  0
   48.5677   36.0211   42.8565 H   0  0  0  0  0  0  0  0  0  0  0  0
   49.9255   35.8794   40.7877 H   0  0  0  0  0  0  0  0  0  0  0  0
   45.5688   32.2685   39.8524 H   0  0  0  0  0  0  0  0  0  0  0  0
   44.6710   30.9293   37.8940 H   0  0  0  0  0  0  0  0  0  0  0  0
   47.1539   33.2132   35.3365 H   0  0  0  0  0  0  0  0  0  0  0  0
   43.8530   36.8794   44.7241 H   0  0  0  0  0  0  0  0  0  0  0  0
   45.2262   36.8244   42.6140 H   0  0  0  0  0  0  0  0  0  0  0  0
   44.9153   33.1495   47.0317 H   0  0  0  0  0  0  0  0  0  0  0  0
  1  2  2  0
  1 17  1  0
  3  2  1  0
  4  5  1  0
  4  3  2  0
  5  6  2  0
  6  1  1  0
  7  8  1  0
  7  5  1  0
  9  8  2  0
 10  9  1  0
 11 10  2  0
 12 10  1  0
 12 13  1  0
 13  7  1  0
 14 13  2  0
 15 20  2  0
 16 15  1  0
 17 16  2  0
 17 18  1  0
 18 19  2  0
 19 20  1  0
 19 21  1  0
  2 22  1  0
  3 23  1  0
  8 24  1  0
  9 25  1  0
 12 26  1  0
 15 27  1  0
 16 28  1  0
 21 29  1  0
M  ISO  8  22  14  23  14  24  14  25  14  26   9  27  14  28  14  29   3
M  END
>  <minimizedAffinity>  (1) 
-6.43041468

>  <minimizedRMSD>  (1) 
0.119567402

$$$$
