
     RDKit          3D

 41 44  0  0  0  0  0  0  0  0999 V2000
   44.5830   35.5130   44.6320 C   0  0  0  0  0  0  0  0  0  0  0  0
   45.2770   35.5720   43.3990 C   0  0  0  0  0  0  0  0  0  0  0  0
   46.3640   34.7340   43.2330 C   0  0  0  0  0  0  0  0  0  0  0  0
   46.7100   33.9040   44.2540 N   0  0  0  0  0  0  0  0  0  0  0  0
   46.0150   33.8740   45.4310 C   0  0  0  0  0  0  0  0  0  0  0  0
   44.9510   34.6770   45.6270 N   0  0  0  0  0  0  0  0  0  0  0  0
   47.1030   34.7580   41.9940 C   0  0  0  0  0  0  0  0  0  0  0  0
   48.2770   35.4990   41.9520 C   0  0  0  0  0  0  0  0  0  0  0  0
   48.9400   35.4960   40.7650 C   0  0  0  0  0  0  0  0  0  0  0  0
   48.4760   34.8100   39.7030 N   0  0  0  0  0  0  0  0  0  0  0  0
   47.3320   34.1020   39.7830 C   0  0  0  0  0  0  0  0  0  0  0  0
   46.6570   34.0910   40.9460 N   0  0  0  0  0  0  0  0  0  0  0  0
   46.9010   33.4000   38.6200 N   0  0  0  0  0  0  0  0  0  0  0  0
   46.0800   32.3530   38.8630 C   0  0  0  0  0  0  0  0  0  0  0  0
   45.5780   31.5720   37.8100 C   0  0  0  0  0  0  0  0  0  0  0  0
   45.9900   31.9650   36.5490 C   0  0  0  0  0  0  0  0  0  0  0  0
   45.5170   31.2390   35.6240 O   0  0  0  0  0  0  0  0  0  0  0  0
   46.7980   32.9960   36.3040 N   0  0  0  0  0  0  0  0  0  0  0  0
   47.2440   33.7030   37.3580 C   0  0  0  0  0  0  0  0  0  0  0  0
   48.0080   34.6830   37.1760 O   0  0  0  0  0  0  0  0  0  0  0  0
   46.4730   32.9320   46.4820 C   0  0  0  0  0  0  0  0  0  0  0  0
   45.3660   32.6740   47.5030 C   0  0  0  0  0  0  0  0  0  0  0  0
   45.2800   31.2430   47.8500 C   0  0  0  0  0  0  0  0  0  0  0  0
   45.2470   30.0790   47.1080 C   0  0  0  0  0  0  0  0  0  0  0  0
   45.1610   28.9720   47.9300 C   0  0  0  0  0  0  0  0  0  0  0  0
   45.1440   29.5160   49.1690 N   0  0  0  0  0  0  0  0  0  0  0  0
   45.2130   30.8160   49.1410 N   0  0  0  0  0  0  0  0  0  0  0  0
   43.7145   36.1705   44.7847 H   0  0  0  0  0  0  0  0  0  0  0  0
   44.9622   36.2606   42.6011 H   0  0  0  0  0  0  0  0  0  0  0  0
   48.6478   36.0545   42.8260 H   0  0  0  0  0  0  0  0  0  0  0  0
   49.8758   36.0663   40.6700 H   0  0  0  0  0  0  0  0  0  0  0  0
   45.8020   32.1103   39.8992 H   0  0  0  0  0  0  0  0  0  0  0  0
   44.9092   30.7144   37.9746 H   0  0  0  0  0  0  0  0  0  0  0  0
   47.0713   33.2427   35.3420 H   0  0  0  0  0  0  0  0  0  0  0  0
   46.7587   31.9793   46.0121 H   0  0  0  0  0  0  0  0  0  0  0  0
   47.3339   33.3773   47.0021 H   0  0  0  0  0  0  0  0  0  0  0  0
   45.5777   33.2517   48.4148 H   0  0  0  0  0  0  0  0  0  0  0  0
   44.4071   32.9823   47.0609 H   0  0  0  0  0  0  0  0  0  0  0  0
   45.2842   30.0385   46.0094 H   0  0  0  0  0  0  0  0  0  0  0  0
   45.1171   27.9099   47.6471 H   0  0  0  0  0  0  0  0  0  0  0  0
   45.0833   28.9639   50.0364 H   0  0  0  0  0  0  0  0  0  0  0  0
  1  6  2  0
  2  1  1  0
  3  2  2  0
  3  4  1  0
  4  5  2  0
  5  6  1  0
  5 21  1  0
  7  3  1  0
  8  7  2  0
  9  8  1  0
 10 11  1  0
 10  9  2  0
 11 12  2  0
 12  7  1  0
 13 14  1  0
 13 11  1  0
 15 14  2  0
 16 15  1  0
 17 16  2  0
 18 16  1  0
 18 19  1  0
 19 13  1  0
 20 19  2  0
 21 22  1  0
 22 23  1  0
 23 27  2  0
 24 23  1  0
 24 25  2  0
 25 26  1  0
 27 26  1  0
  1 28  1  0
  2 29  1  0
  8 30  1  0
  9 31  1  0
 14 32  1  0
 15 33  1  0
 18 34  1  0
 21 35  1  0
 21 36  1  0
 22 37  1  0
 22 38  1  0
 24 39  1  0
 25 40  1  0
 26 41  1  0
M  ISO  8  28  14  29  14  30  14  31  14  32  14  33  14  34   9  35   8
M  ISO  6  36   8  37   8  38   8  39  14  40  14  41   9
M  END
>  <minimizedAffinity>  (1) 
-7.19423294

>  <minimizedRMSD>  (1) 
0.79879576

$$$$
