
     RDKit          3D

 43 46  0  0  0  0  0  0  0  0999 V2000
   44.5640   35.5170   44.5800 C   0  0  0  0  0  0  0  0  0  0  0  0
   45.2600   35.5660   43.3540 C   0  0  0  0  0  0  0  0  0  0  0  0
   46.3630   34.7620   43.1910 C   0  0  0  0  0  0  0  0  0  0  0  0
   46.7210   33.9600   44.2300 N   0  0  0  0  0  0  0  0  0  0  0  0
   46.0460   33.9170   45.4100 C   0  0  0  0  0  0  0  0  0  0  0  0
   44.9530   34.7090   45.5860 N   0  0  0  0  0  0  0  0  0  0  0  0
   47.1040   34.7770   41.9550 C   0  0  0  0  0  0  0  0  0  0  0  0
   48.2830   35.5060   41.9120 C   0  0  0  0  0  0  0  0  0  0  0  0
   48.9510   35.4930   40.7290 C   0  0  0  0  0  0  0  0  0  0  0  0
   48.4840   34.8090   39.6680 N   0  0  0  0  0  0  0  0  0  0  0  0
   47.3350   34.1130   39.7460 C   0  0  0  0  0  0  0  0  0  0  0  0
   46.6530   34.1090   40.9100 N   0  0  0  0  0  0  0  0  0  0  0  0
   46.8850   33.4030   38.5870 N   0  0  0  0  0  0  0  0  0  0  0  0
   46.0500   32.3670   38.8340 C   0  0  0  0  0  0  0  0  0  0  0  0
   45.5480   31.6050   37.7770 C   0  0  0  0  0  0  0  0  0  0  0  0
   45.9670   31.9920   36.5210 C   0  0  0  0  0  0  0  0  0  0  0  0
   45.4790   31.2620   35.5990 O   0  0  0  0  0  0  0  0  0  0  0  0
   46.7870   33.0080   36.2710 N   0  0  0  0  0  0  0  0  0  0  0  0
   47.2340   33.7020   37.3240 C   0  0  0  0  0  0  0  0  0  0  0  0
   48.0150   34.6760   37.1420 O   0  0  0  0  0  0  0  0  0  0  0  0
   46.5270   33.0080   46.4710 C   0  0  0  0  0  0  0  0  0  0  0  0
   45.4160   32.7330   47.4960 C   0  0  0  0  0  0  0  0  0  0  0  0
   45.3390   31.2330   47.5960 C   0  0  0  0  0  0  0  0  0  0  0  0
   45.0440   30.5840   48.7630 C   0  0  0  0  0  0  0  0  0  0  0  0
   44.9690   29.2110   48.8740 C   0  0  0  0  0  0  0  0  0  0  0  0
   45.2120   28.4730   47.7220 C   0  0  0  0  0  0  0  0  0  0  0  0
   45.5110   29.1120   46.5360 C   0  0  0  0  0  0  0  0  0  0  0  0
   45.5700   30.4750   46.4900 N   0  0  0  0  0  0  0  0  0  0  0  0
   43.6794   36.1559   44.7187 H   0  0  0  0  0  0  0  0  0  0  0  0
   44.9271   36.2335   42.5455 H   0  0  0  0  0  0  0  0  0  0  0  0
   48.6556   36.0623   42.7848 H   0  0  0  0  0  0  0  0  0  0  0  0
   49.8931   36.0532   40.6364 H   0  0  0  0  0  0  0  0  0  0  0  0
   45.7664   32.1249   39.8689 H   0  0  0  0  0  0  0  0  0  0  0  0
   44.8665   30.7561   37.9348 H   0  0  0  0  0  0  0  0  0  0  0  0
   47.0658   33.2502   35.3095 H   0  0  0  0  0  0  0  0  0  0  0  0
   46.8421   32.0572   46.0163 H   0  0  0  0  0  0  0  0  0  0  0  0
   47.3740   33.4838   46.9869 H   0  0  0  0  0  0  0  0  0  0  0  0
   45.6725   33.1726   48.4712 H   0  0  0  0  0  0  0  0  0  0  0  0
   44.4560   33.1762   47.1929 H   0  0  0  0  0  0  0  0  0  0  0  0
   44.8563   31.1896   49.6619 H   0  0  0  0  0  0  0  0  0  0  0  0
   44.7280   28.7231   49.8300 H   0  0  0  0  0  0  0  0  0  0  0  0
   45.1658   27.3745   47.7556 H   0  0  0  0  0  0  0  0  0  0  0  0
   45.7019   28.5226   45.6271 H   0  0  0  0  0  0  0  0  0  0  0  0
  1  6  2  0
  2  1  1  0
  3  2  2  0
  3  4  1  0
  4  5  2  0
  5  6  1  0
  5 21  1  0
  7  3  1  0
  8  7  2  0
  9  8  1  0
 10 11  1  0
 10  9  2  0
 11 12  2  0
 12  7  1  0
 13 14  1  0
 13 11  1  0
 15 14  2  0
 16 15  1  0
 17 16  2  0
 18 16  1  0
 18 19  1  0
 19 13  1  0
 20 19  2  0
 21 22  1  0
 22 23  1  0
 23 24  2  0
 24 25  1  0
 26 25  2  0
 27 26  1  0
 28 27  2  0
 28 23  1  0
  1 29  1  0
  2 30  1  0
  8 31  1  0
  9 32  1  0
 14 33  1  0
 15 34  1  0
 18 35  1  0
 21 36  1  0
 21 37  1  0
 22 38  1  0
 22 39  1  0
 24 40  1  0
 25 41  1  0
 26 42  1  0
 27 43  1  0
M  ISO  8  29  14  30  14  31  14  32  14  33  14  34  14  35   9  36   8
M  ISO  7  37   8  38   8  39   8  40  14  41  14  42  14  43  14
M  END
>  <minimizedAffinity>  (1) 
-6.84907579

>  <minimizedRMSD>  (1) 
1.08482373

$$$$
