
     RDKit          3D

 25 26  0  0  1  0  0  0  0  0999 V2000
   47.1450   31.3710   46.5710 C   0  0  0  0  0  0  0  0  0  0  0  0
   46.7420   32.3160   45.6040 C   0  0  0  0  0  0  0  0  0  0  0  0
   45.7950   33.2650   45.9520 C   0  0  0  0  0  0  0  0  0  0  0  0
   45.2680   33.2750   47.2120 N   0  0  0  0  0  0  0  0  0  0  0  0
   45.6920   32.3350   48.1130 C   0  0  0  0  0  0  0  0  0  0  0  0
   46.6090   31.4100   47.7920 N   0  0  0  0  0  0  0  0  0  0  0  0
   47.2680   32.3610   44.2380 C   0  0  0  0  0  0  0  0  0  0  0  0
   48.0890   31.5750   43.7450 O   0  0  0  0  0  0  0  0  0  0  0  0
   46.7670   33.4170   43.4400 O   0  0  0  0  0  0  0  0  0  0  0  0
   49.0190   34.1590   43.1170 N   0  0  0  0  0  0  0  0  0  0  0  0
   49.5630   35.3080   42.3760 C   0  0  0  0  0  0  0  0  0  0  0  0
   48.6980   35.2770   41.1340 C   0  0  0  0  0  0  0  0  0  0  0  0
   47.3130   35.0050   41.7120 C   0  0  0  0  0  0  0  0  0  0  0  0
   47.6120   34.4940   43.0910 C   0  0  1  0  0  0  0  0  0  0  0  0
   47.8959   30.6074   46.3199 H   0  0  0  0  0  0  0  0  0  0  0  0
   45.4672   34.0111   45.2131 H   0  0  0  0  0  0  0  0  0  0  0  0
   45.2688   32.3385   49.1283 H   0  0  0  0  0  0  0  0  0  0  0  0
   49.2097   33.2681   42.6365 H   0  0  0  0  0  0  0  0  0  0  0  0
   49.4364   36.2471   42.9346 H   0  0  0  0  0  0  0  0  0  0  0  0
   50.6442   35.2544   42.1805 H   0  0  0  0  0  0  0  0  0  0  0  0
   49.0099   34.4732   40.4508 H   0  0  0  0  0  0  0  0  0  0  0  0
   48.7531   36.1978   40.5347 H   0  0  0  0  0  0  0  0  0  0  0  0
   46.7149   35.9272   41.7540 H   0  0  0  0  0  0  0  0  0  0  0  0
   46.7244   34.2987   41.1082 H   0  0  0  0  0  0  0  0  0  0  0  0
   47.4071   35.2579   43.8555 H   0  0  0  0  0  0  0  0  0  0  0  0
  1  6  2  0
  2  3  2  0
  2  1  1  0
  3  4  1  0
  4  5  2  0
  6  5  1  0
  7  2  1  0
  8  7  2  0
  9  7  1  0
 11 10  1  0
 12 13  1  0
 12 11  1  0
 13 14  1  0
 14 10  1  0
 14  9  1  0
  1 15  1  0
  3 16  1  0
  5 17  1  0
 10 18  1  0
 11 19  1  0
 11 20  1  0
 12 21  1  0
 12 22  1  0
 13 23  1  0
 13 24  1  0
 14 25  1  1
M  ISO  8  15  14  16  14  17  14  18   5  19  13  20  13  21  13  22  13
M  ISO  3  23  13  24  13  25  13
M  END
>  <minimizedAffinity>  (1) 
-4.10645819

>  <minimizedRMSD>  (1) 
5.54720306

$$$$
