
     RDKit          3D

 26 27  0  0  0  0  0  0  0  0999 V2000
   45.6870   33.7020   45.8480 C   0  0  0  0  0  0  0  0  0  0  0  0
   46.6490   32.7430   45.4940 C   0  0  0  0  0  0  0  0  0  0  0  0
   46.9570   31.7000   46.3650 C   0  0  0  0  0  0  0  0  0  0  0  0
   46.2920   31.6520   47.5620 N   0  0  0  0  0  0  0  0  0  0  0  0
   45.3610   32.6130   47.8590 C   0  0  0  0  0  0  0  0  0  0  0  0
   45.0630   33.6170   47.0220 N   0  0  0  0  0  0  0  0  0  0  0  0
   47.3850   32.7600   44.2170 C   0  0  0  0  0  0  0  0  0  0  0  0
   47.9510   31.7990   43.6670 O   0  0  0  0  0  0  0  0  0  0  0  0
   47.4220   34.0300   43.5890 O   0  0  0  0  0  0  0  0  0  0  0  0
   48.0060   34.2000   42.3260 C   0  0  0  0  0  0  0  0  0  0  0  0
   48.7390   35.4900   42.1630 C   0  0  0  0  0  0  0  0  0  0  0  0
   48.9160   35.5920   40.6610 C   0  0  0  0  0  0  0  0  0  0  0  0
   47.9770   34.5890   40.0360 C   0  0  0  0  0  0  0  0  0  0  0  0
   47.0290   34.2320   41.1870 C   0  0  0  0  0  0  0  0  0  0  0  0
   45.4485   34.5234   45.1563 H   0  0  0  0  0  0  0  0  0  0  0  0
   47.7082   30.9412   46.1007 H   0  0  0  0  0  0  0  0  0  0  0  0
   44.8365   32.5582   48.8243 H   0  0  0  0  0  0  0  0  0  0  0  0
   48.6680   33.3223   42.2882 H   0  0  0  0  0  0  0  0  0  0  0  0
   48.1474   36.3328   42.5498 H   0  0  0  0  0  0  0  0  0  0  0  0
   49.6897   35.5220   42.7154 H   0  0  0  0  0  0  0  0  0  0  0  0
   48.6659   36.6073   40.3194 H   0  0  0  0  0  0  0  0  0  0  0  0
   49.9577   35.3859   40.3739 H   0  0  0  0  0  0  0  0  0  0  0  0
   47.4259   35.0353   39.1951 H   0  0  0  0  0  0  0  0  0  0  0  0
   48.4964   33.7142   39.6178 H   0  0  0  0  0  0  0  0  0  0  0  0
   46.2561   35.0009   41.3332 H   0  0  0  0  0  0  0  0  0  0  0  0
   46.4528   33.3060   41.0436 H   0  0  0  0  0  0  0  0  0  0  0  0
  1  6  2  0
  2  1  1  0
  2  3  2  0
  3  4  1  0
  4  5  2  0
  6  5  1  0
  7  2  1  0
  8  7  2  0
  9  7  1  0
 10  9  1  0
 11 10  1  0
 12 11  1  0
 13 12  1  0
 13 14  1  0
 14 10  1  0
  1 15  1  0
  3 16  1  0
  5 17  1  0
 10 18  1  0
 11 19  1  0
 11 20  1  0
 12 21  1  0
 12 22  1  0
 13 23  1  0
 13 24  1  0
 14 25  1  0
 14 26  1  0
M  ISO  8  15  14  16  14  17  14  18  13  19  13  20  13  21  13  22  13
M  ISO  4  23  13  24  13  25  13  26  13
M  END
>  <minimizedAffinity>  (1) 
-4.05876827

>  <minimizedRMSD>  (1) 
5.2237854

$$$$
