
     RDKit          3D

 20 21  0  0  0  0  0  0  0  0999 V2000
   45.6950   34.5190   44.4780 C   0  0  0  0  0  0  0  0  0  0  0  0
   46.6750   33.5220   44.4780 C   0  0  0  0  0  0  0  0  0  0  0  0
   46.8240   32.7290   45.6140 C   0  0  0  0  0  0  0  0  0  0  0  0
   46.0130   32.9530   46.6860 N   0  0  0  0  0  0  0  0  0  0  0  0
   45.0700   33.9460   46.6290 C   0  0  0  0  0  0  0  0  0  0  0  0
   44.9210   34.7090   45.5410 N   0  0  0  0  0  0  0  0  0  0  0  0
   47.5720   33.2460   43.3450 C   0  0  0  0  0  0  0  0  0  0  0  0
   48.3690   32.2950   43.2620 O   0  0  0  0  0  0  0  0  0  0  0  0
   47.4850   34.1600   42.2910 O   0  0  0  0  0  0  0  0  0  0  0  0
   48.6590   34.4180   41.5310 C   0  0  0  0  0  0  0  0  0  0  0  0
   48.5930   35.1930   40.2920 C   0  0  0  0  0  0  0  0  0  0  0  0
   49.0590   35.8830   41.5730 C   0  0  0  0  0  0  0  0  0  0  0  0
   45.5634   35.1528   43.5886 H   0  0  0  0  0  0  0  0  0  0  0  0
   47.5843   31.9347   45.6450 H   0  0  0  0  0  0  0  0  0  0  0  0
   44.4200   34.1195   47.4993 H   0  0  0  0  0  0  0  0  0  0  0  0
   49.1122   33.4385   41.7436 H   0  0  0  0  0  0  0  0  0  0  0  0
   49.3128   34.9954   39.4840 H   0  0  0  0  0  0  0  0  0  0  0  0
   47.8077   35.3945   39.5486 H   0  0  0  0  0  0  0  0  0  0  0  0
   48.4159   36.6220   42.0734 H   0  0  0  0  0  0  0  0  0  0  0  0
   49.9443   36.4544   41.8888 H   0  0  0  0  0  0  0  0  0  0  0  0
  1  2  2  0
  1  6  1  0
  2  3  1  0
  3  4  2  0
  5  4  1  0
  6  5  2  0
  7  2  1  0
  8  7  2  0
  9  7  1  0
 10 12  1  0
 10  9  1  0
 11 10  1  0
 11 12  1  0
  1 13  1  0
  3 14  1  0
  5 15  1  0
 10 16  1  0
 11 17  1  0
 11 18  1  0
 12 19  1  0
 12 20  1  0
M  ISO  8  13  14  14  14  15  14  16  13  17  13  18  13  19  13  20  13
M  END
>  <minimizedAffinity>  (1) 
-3.45505881

>  <minimizedRMSD>  (1) 
4.44360495

$$$$
