
     RDKit          3D

 46 49  0  0  1  0  0  0  0  0999 V2000
   48.1770   33.0860   43.4760 C   0  0  0  0  0  0  0  0  0  0  0  0
   47.9970   34.2290   41.2540 C   0  0  2  0  0  0  0  0  0  0  0  0
   48.4730   35.4980   41.6290 C   0  0  0  0  0  0  0  0  0  0  0  0
   49.8570   35.2900   42.3010 C   0  0  0  0  0  0  0  0  0  0  0  0
   50.1650   33.8040   42.2610 C   0  0  0  0  0  0  0  0  0  0  0  0
   48.8360   33.2210   42.1350 C   0  0  1  0  0  0  0  0  0  0  0  0
   48.1300   33.6940   39.8780 C   0  0  0  0  0  0  0  0  0  0  0  0
   48.3040   34.5970   38.8580 C   0  0  0  0  0  0  0  0  0  0  0  0
   48.4380   34.1700   37.5560 C   0  0  0  0  0  0  0  0  0  0  0  0
   48.3840   32.8030   37.3610 N   0  0  0  0  0  0  0  0  0  0  0  0
   48.2140   31.9680   38.3760 C   0  0  0  0  0  0  0  0  0  0  0  0
   48.0840   32.3890   39.6440 N   0  0  0  0  0  0  0  0  0  0  0  0
   46.7740   32.5960   43.3530 C   0  0  0  0  0  0  0  0  0  0  0  0
   45.9310   33.5470   44.1310 C   0  0  0  0  0  0  0  0  0  0  0  0
   45.0090   34.4480   43.6800 C   0  0  0  0  0  0  0  0  0  0  0  0
   44.4910   35.1000   44.7530 N   0  0  0  0  0  0  0  0  0  0  0  0
   45.0830   34.6070   45.8480 C   0  0  0  0  0  0  0  0  0  0  0  0
   45.9480   33.6760   45.4970 N   0  0  0  0  0  0  0  0  0  0  0  0
   46.7920   32.9000   46.4030 C   0  0  0  0  0  0  0  0  0  0  0  0
   46.0200   31.7490   46.8420 N   0  0  0  0  0  0  0  0  0  0  0  0
   45.6170   30.6250   46.2890 N   0  0  0  0  0  0  0  0  0  0  0  0
   44.9090   29.8880   47.1630 C   0  0  0  0  0  0  0  0  0  0  0  0
   44.8410   30.5660   48.3620 C   0  0  0  0  0  0  0  0  0  0  0  0
   45.5460   31.7250   48.1230 C   0  0  0  0  0  0  0  0  0  0  0  0
   48.7516   32.3732   44.0857 H   0  0  0  0  0  0  0  0  0  0  0  0
   48.1537   34.0790   43.9487 H   0  0  0  0  0  0  0  0  0  0  0  0
   46.9088   34.3385   41.3720 H   0  0  0  0  0  0  0  0  0  0  0  0
   48.5779   36.1386   40.7409 H   0  0  0  0  0  0  0  0  0  0  0  0
   47.7729   35.9883   42.3214 H   0  0  0  0  0  0  0  0  0  0  0  0
   50.6291   35.8485   41.7514 H   0  0  0  0  0  0  0  0  0  0  0  0
   49.8426   35.6549   43.3386 H   0  0  0  0  0  0  0  0  0  0  0  0
   50.7962   33.5500   41.3966 H   0  0  0  0  0  0  0  0  0  0  0  0
   50.7253   33.4441   43.1365 H   0  0  0  0  0  0  0  0  0  0  0  0
   48.8973   32.2179   41.6878 H   0  0  0  0  0  0  0  0  0  0  0  0
   48.3367   35.6731   39.0837 H   0  0  0  0  0  0  0  0  0  0  0  0
   48.5793   34.8736   36.7224 H   0  0  0  0  0  0  0  0  0  0  0  0
   48.1780   30.8878   38.1714 H   0  0  0  0  0  0  0  0  0  0  0  0
   46.4643   32.5877   42.2975 H   0  0  0  0  0  0  0  0  0  0  0  0
   46.6738   31.5686   43.7331 H   0  0  0  0  0  0  0  0  0  0  0  0
   44.7333   34.6166   42.6285 H   0  0  0  0  0  0  0  0  0  0  0  0
   44.8793   34.9287   46.8800 H   0  0  0  0  0  0  0  0  0  0  0  0
   47.6987   32.5657   45.8776 H   0  0  0  0  0  0  0  0  0  0  0  0
   47.0997   33.5111   47.2643 H   0  0  0  0  0  0  0  0  0  0  0  0
   44.4584   28.9062   46.9557 H   0  0  0  0  0  0  0  0  0  0  0  0
   44.3412   30.2544   49.2910 H   0  0  0  0  0  0  0  0  0  0  0  0
   45.7056   32.5229   48.8632 H   0  0  0  0  0  0  0  0  0  0  0  0
  2  3  1  0
  2  6  1  0
  3  4  1  0
  5  4  1  0
  6  5  1  0
  6  1  1  0
  7  2  1  0
  8  7  2  0
  9  8  1  0
 10  9  2  0
 10 11  1  0
 11 12  2  0
 12  7  1  0
 13  1  1  0
 13 14  1  0
 14 18  1  0
 15 14  2  0
 15 16  1  0
 16 17  2  0
 18 17  1  0
 18 19  1  0
 19 20  1  0
 20 24  1  0
 21 20  1  0
 21 22  2  0
 22 23  1  0
 24 23  2  0
  1 25  1  0
  1 26  1  0
  2 27  1  1
  3 28  1  0
  3 29  1  0
  4 30  1  0
  4 31  1  0
  5 32  1  0
  5 33  1  0
  6 34  1  6
  8 35  1  0
  9 36  1  0
 11 37  1  0
 13 38  1  0
 13 39  1  0
 15 40  1  0
 17 41  1  0
 19 42  1  0
 19 43  1  0
 22 44  1  0
 23 45  1  0
 24 46  1  0
M  ISO  8  25   8  26   8  27  13  28  13  29  13  30  13  31  13  32  13
M  ISO  8  33  13  34  13  35  14  36  14  37  14  38   8  39   8  40  14
M  ISO  6  41  14  42   8  43   8  44  14  45  14  46  14
M  END
>  <minimizedAffinity>  (1) 
-5.51380014

>  <minimizedRMSD>  (1) 
1.10694098

$$$$
