
     RDKit          3D

 26 27  0  0  0  0  0  0  0  0999 V2000
   45.1310   34.7570   42.3650 C   0  0  0  0  0  0  0  0  0  0  0  0
   44.9980   35.7660   43.4900 C   0  0  0  0  0  0  0  0  0  0  0  0
   45.0520   35.0100   44.7670 C   0  0  0  0  0  0  0  0  0  0  0  0
   45.8490   33.8740   44.8240 C   0  0  0  0  0  0  0  0  0  0  0  0
   45.7600   33.3230   46.0910 C   0  0  0  0  0  0  0  0  0  0  0  0
   44.9090   34.1410   46.7680 N   0  0  0  0  0  0  0  0  0  0  0  0
   44.4870   35.1340   46.0040 N   0  0  0  0  0  0  0  0  0  0  0  0
   46.2130   35.1360   41.5600 O   0  0  0  0  0  0  0  0  0  0  0  0
   46.9460   34.2250   40.8000 C   0  0  0  0  0  0  0  0  0  0  0  0
   46.4420   33.7220   39.7840 O   0  0  0  0  0  0  0  0  0  0  0  0
   49.0310   32.7920   41.0770 C   0  0  0  0  0  0  0  0  0  0  0  0
   48.3040   33.9630   41.3320 C   0  0  0  0  0  0  0  0  0  0  0  0
   48.8570   34.9680   42.1310 C   0  0  0  0  0  0  0  0  0  0  0  0
   50.1110   34.7450   42.6320 N   0  0  0  0  0  0  0  0  0  0  0  0
   50.7740   33.5900   42.3530 C   0  0  0  0  0  0  0  0  0  0  0  0
   50.2400   32.6420   41.5940 N   0  0  0  0  0  0  0  0  0  0  0  0
   45.3111   33.7555   42.7829 H   0  0  0  0  0  0  0  0  0  0  0  0
   44.2067   34.7295   41.7693 H   0  0  0  0  0  0  0  0  0  0  0  0
   45.8244   36.4907   43.4459 H   0  0  0  0  0  0  0  0  0  0  0  0
   44.0529   36.3225   43.4055 H   0  0  0  0  0  0  0  0  0  0  0  0
   46.4537   33.4761   43.9957 H   0  0  0  0  0  0  0  0  0  0  0  0
   46.2661   32.4219   46.4677 H   0  0  0  0  0  0  0  0  0  0  0  0
   44.6295   34.0041   47.7498 H   0  0  0  0  0  0  0  0  0  0  0  0
   48.5977   31.9998   40.4488 H   0  0  0  0  0  0  0  0  0  0  0  0
   48.3087   35.8967   42.3474 H   0  0  0  0  0  0  0  0  0  0  0  0
   51.7811   33.4380   42.7685 H   0  0  0  0  0  0  0  0  0  0  0  0
  1  2  1  0
  2  3  1  0
  3  4  1  0
  3  7  2  0
  4  5  2  0
  5  6  1  0
  7  6  1  0
  8  1  1  0
  9 12  1  0
  9  8  1  0
 10  9  2  0
 11 12  2  0
 11 16  1  0
 12 13  1  0
 13 14  2  0
 15 14  1  0
 16 15  2  0
  1 17  1  0
  1 18  1  0
  2 19  1  0
  2 20  1  0
  4 21  1  0
  5 22  1  0
  6 23  1  0
 11 24  1  0
 13 25  1  0
 15 26  1  0
M  ISO  8  17   8  18   8  19   8  20   8  21  14  22  14  23   9  24  14
M  ISO  2  25  14  26  14
M  END
>  <minimizedAffinity>  (1) 
-4.52360964

>  <minimizedRMSD>  (1) 
1.1270045

$$$$
