
     RDKit          3D

 27 28  0  0  0  0  0  0  0  0999 V2000
   44.5690   34.7060   43.2210 C   0  0  0  0  0  0  0  0  0  0  0  0
   44.9360   35.2540   44.5710 C   0  0  0  0  0  0  0  0  0  0  0  0
   45.3290   34.2430   45.5570 C   0  0  0  0  0  0  0  0  0  0  0  0
   46.3660   33.4100   45.1350 C   0  0  0  0  0  0  0  0  0  0  0  0
   46.8230   32.4150   45.9820 C   0  0  0  0  0  0  0  0  0  0  0  0
   46.2760   32.2540   47.1950 N   0  0  0  0  0  0  0  0  0  0  0  0
   45.2700   33.0660   47.5990 C   0  0  0  0  0  0  0  0  0  0  0  0
   44.8090   34.0440   46.7850 N   0  0  0  0  0  0  0  0  0  0  0  0
   45.4540   35.2390   42.2690 O   0  0  0  0  0  0  0  0  0  0  0  0
   46.1700   34.4660   41.3700 C   0  0  0  0  0  0  0  0  0  0  0  0
   45.6030   34.0070   40.3520 O   0  0  0  0  0  0  0  0  0  0  0  0
   48.1880   33.0130   41.9170 C   0  0  0  0  0  0  0  0  0  0  0  0
   47.5810   34.2660   41.7410 C   0  0  0  0  0  0  0  0  0  0  0  0
   48.3340   35.4440   41.9190 C   0  0  0  0  0  0  0  0  0  0  0  0
   49.6660   35.3010   42.2670 N   0  0  0  0  0  0  0  0  0  0  0  0
   50.1950   34.0510   42.4230 C   0  0  0  0  0  0  0  0  0  0  0  0
   49.4740   32.9580   42.2530 N   0  0  0  0  0  0  0  0  0  0  0  0
   44.6509   33.6091   43.2308 H   0  0  0  0  0  0  0  0  0  0  0  0
   43.5341   34.9821   42.9703 H   0  0  0  0  0  0  0  0  0  0  0  0
   45.7773   35.9506   44.4407 H   0  0  0  0  0  0  0  0  0  0  0  0
   44.0305   35.7376   44.9663 H   0  0  0  0  0  0  0  0  0  0  0  0
   46.8155   33.5426   44.1398 H   0  0  0  0  0  0  0  0  0  0  0  0
   47.6394   31.7529   45.6578 H   0  0  0  0  0  0  0  0  0  0  0  0
   44.8247   32.9296   48.5955 H   0  0  0  0  0  0  0  0  0  0  0  0
   47.6081   32.0885   41.7789 H   0  0  0  0  0  0  0  0  0  0  0  0
   47.8811   36.4376   41.7866 H   0  0  0  0  0  0  0  0  0  0  0  0
   51.2552   33.9520   42.6990 H   0  0  0  0  0  0  0  0  0  0  0  0
  1  2  1  0
  2  3  1  0
  3  8  1  0
  4  3  2  0
  4  5  1  0
  5  6  2  0
  6  7  1  0
  8  7  2  0
  9  1  1  0
 10 13  1  0
 10  9  1  0
 11 10  2  0
 12 17  2  0
 13 12  1  0
 13 14  2  0
 14 15  1  0
 15 16  2  0
 17 16  1  0
  1 18  1  0
  1 19  1  0
  2 20  1  0
  2 21  1  0
  4 22  1  0
  5 23  1  0
  7 24  1  0
 12 25  1  0
 14 26  1  0
 16 27  1  0
M  ISO  8  18   8  19   8  20   8  21   8  22  14  23  14  24  14  25  14
M  ISO  2  26  14  27  14
M  END
>  <minimizedAffinity>  (1) 
-4.11199617

>  <minimizedRMSD>  (1) 
0.938778341

$$$$
