
     RDKit          3D

 21 21  0  0  0  0  0  0  0  0999 V2000
   47.0860   34.5330   41.5040 C   0  0  0  0  0  0  0  0  0  0  0  0
   46.3030   34.3290   40.5530 O   0  0  0  0  0  0  0  0  0  0  0  0
   48.8100   32.6920   41.1640 C   0  0  0  0  0  0  0  0  0  0  0  0
   48.4260   33.9330   41.6670 C   0  0  0  0  0  0  0  0  0  0  0  0
   49.3510   34.6940   42.3840 C   0  0  0  0  0  0  0  0  0  0  0  0
   50.6170   34.1750   42.5620 N   0  0  0  0  0  0  0  0  0  0  0  0
   50.9280   32.9470   42.0400 C   0  0  0  0  0  0  0  0  0  0  0  0
   50.0370   32.2430   41.3650 N   0  0  0  0  0  0  0  0  0  0  0  0
   46.7290   35.4000   42.5460 O   0  0  0  0  0  0  0  0  0  0  0  0
   45.3830   35.8100   42.7260 C   0  0  0  0  0  0  0  0  0  0  0  0
   44.9840   35.4240   44.1370 C   0  0  0  0  0  0  0  0  0  0  0  0
   43.5610   35.7610   44.2710 N   0  0  0  0  0  0  0  0  0  0  0  0
   48.0897   32.0835   40.5975 H   0  0  0  0  0  0  0  0  0  0  0  0
   49.0788   35.6775   42.7946 H   0  0  0  0  0  0  0  0  0  0  0  0
   51.9392   32.5394   42.1858 H   0  0  0  0  0  0  0  0  0  0  0  0
   45.2996   36.8990   42.5949 H   0  0  0  0  0  0  0  0  0  0  0  0
   44.7251   35.3285   41.9876 H   0  0  0  0  0  0  0  0  0  0  0  0
   45.1363   34.3460   44.2942 H   0  0  0  0  0  0  0  0  0  0  0  0
   45.5923   35.9557   44.8835 H   0  0  0  0  0  0  0  0  0  0  0  0
   43.3145   35.8194   45.2694 H   0  0  0  0  0  0  0  0  0  0  0  0
   43.3790   36.6684   43.8188 H   0  0  0  0  0  0  0  0  0  0  0  0
  1  4  1  0
  1  9  1  0
  2  1  2  0
  3  8  2  0
  3  4  1  0
  4  5  2  0
  5  6  1  0
  7  6  2  0
  8  7  1  0
  9 10  1  0
 10 11  1  0
 11 12  1  0
  3 13  1  0
  5 14  1  0
  7 15  1  0
 10 16  1  0
 10 17  1  0
 11 18  1  0
 11 19  1  0
 12 20  1  0
 12 21  1  0
M  ISO  8  13  14  14  14  15  14  16   8  17   8  18   8  19   8  20   5
M  ISO  1  21   5
M  END
>  <minimizedAffinity>  (1) 
-3.61804414

>  <minimizedRMSD>  (1) 
0.686124921

$$$$
