
     RDKit          3D

 20 20  0  0  0  0  0  0  0  0999 V2000
   46.6230   34.6500   41.7560 C   0  0  0  0  0  0  0  0  0  0  0  0
   45.8630   34.3450   40.8070 O   0  0  0  0  0  0  0  0  0  0  0  0
   48.3980   32.8150   41.8060 C   0  0  0  0  0  0  0  0  0  0  0  0
   48.0060   34.1460   41.9480 C   0  0  0  0  0  0  0  0  0  0  0  0
   48.9470   35.1450   42.2940 C   0  0  0  0  0  0  0  0  0  0  0  0
   50.2470   34.7300   42.4770 N   0  0  0  0  0  0  0  0  0  0  0  0
   50.5770   33.4040   42.3240 C   0  0  0  0  0  0  0  0  0  0  0  0
   49.6680   32.5030   42.0010 N   0  0  0  0  0  0  0  0  0  0  0  0
   46.1990   35.5230   42.7460 O   0  0  0  0  0  0  0  0  0  0  0  0
   44.8430   35.7990   42.9980 C   0  0  0  0  0  0  0  0  0  0  0  0
   44.6570   35.8670   44.4860 C   0  0  0  0  0  0  0  0  0  0  0  0
   45.3010   34.3450   45.2130 S   0  0  0  0  0  0  0  0  0  0  0  0
   47.6650   32.0401   41.5371 H   0  0  0  0  0  0  0  0  0  0  0  0
   48.6547   36.1990   42.4107 H   0  0  0  0  0  0  0  0  0  0  0  0
   51.6198   33.0876   42.4738 H   0  0  0  0  0  0  0  0  0  0  0  0
   44.5660   36.7609   42.5420 H   0  0  0  0  0  0  0  0  0  0  0  0
   44.2046   35.0139   42.5666 H   0  0  0  0  0  0  0  0  0  0  0  0
   45.2044   36.7316   44.8894 H   0  0  0  0  0  0  0  0  0  0  0  0
   43.5898   35.9785   44.7281 H   0  0  0  0  0  0  0  0  0  0  0  0
   45.2612   34.4390   46.5792 H   0  0  0  0  0  0  0  0  0  0  0  0
  1  4  1  0
  1  9  1  0
  2  1  2  0
  3  4  2  0
  3  8  1  0
  4  5  1  0
  5  6  2  0
  7  6  1  0
  8  7  2  0
  9 10  1  0
 10 11  1  0
 11 12  1  0
  3 13  1  0
  5 14  1  0
  7 15  1  0
 10 16  1  0
 10 17  1  0
 11 18  1  0
 11 19  1  0
 12 20  1  0
M  ISO  8  13  14  14  14  15  14  16   8  17   8  18   8  19   8  20  11
M  END
>  <minimizedAffinity>  (1) 
-3.33660793

>  <minimizedRMSD>  (1) 
0.148130253

$$$$
