
     RDKit          3D

 46 49  0  0  1  0  0  0  0  0999 V2000
   47.9120   34.3490   41.2360 C   0  0  2  0  0  0  0  0  0  0  0  0
   48.5150   35.5480   41.6490 C   0  0  0  0  0  0  0  0  0  0  0  0
   49.8840   35.1850   42.2780 C   0  0  0  0  0  0  0  0  0  0  0  0
   50.0540   33.6840   42.1750 C   0  0  0  0  0  0  0  0  0  0  0  0
   48.6740   33.2320   42.0580 C   0  0  1  0  0  0  0  0  0  0  0  0
   47.9710   33.8520   39.8370 C   0  0  0  0  0  0  0  0  0  0  0  0
   48.3900   34.7280   38.8660 C   0  0  0  0  0  0  0  0  0  0  0  0
   48.4770   34.3340   37.5500 C   0  0  0  0  0  0  0  0  0  0  0  0
   48.1210   33.0300   37.2920 N   0  0  0  0  0  0  0  0  0  0  0  0
   47.7190   32.2080   38.2510 C   0  0  0  0  0  0  0  0  0  0  0  0
   47.6380   32.6030   39.5320 N   0  0  0  0  0  0  0  0  0  0  0  0
   48.0360   33.1130   43.4090 C   0  0  0  0  0  0  0  0  0  0  0  0
   46.6160   32.6440   43.3030 C   0  0  0  0  0  0  0  0  0  0  0  0
   45.7930   33.6230   44.0680 C   0  0  0  0  0  0  0  0  0  0  0  0
   44.8480   34.4950   43.6200 C   0  0  0  0  0  0  0  0  0  0  0  0
   44.3740   35.1970   44.6800 N   0  0  0  0  0  0  0  0  0  0  0  0
   45.0220   34.7580   45.7680 C   0  0  0  0  0  0  0  0  0  0  0  0
   45.8800   33.8100   45.4210 N   0  0  0  0  0  0  0  0  0  0  0  0
   46.7580   33.0810   46.3300 C   0  0  0  0  0  0  0  0  0  0  0  0
   45.9400   32.1570   47.0830 N   0  0  0  0  0  0  0  0  0  0  0  0
   45.8190   30.8670   46.6400 C   0  0  0  0  0  0  0  0  0  0  0  0
   45.0030   30.1320   47.4710 C   0  0  0  0  0  0  0  0  0  0  0  0
   44.6120   30.9730   48.4410 N   0  0  0  0  0  0  0  0  0  0  0  0
   45.1800   32.1600   48.1860 C   0  0  0  0  0  0  0  0  0  0  0  0
   46.8419   34.5589   41.3801 H   0  0  0  0  0  0  0  0  0  0  0  0
   48.6626   36.2120   40.7845 H   0  0  0  0  0  0  0  0  0  0  0  0
   47.8791   36.0718   42.3779 H   0  0  0  0  0  0  0  0  0  0  0  0
   50.6934   35.6921   41.7323 H   0  0  0  0  0  0  0  0  0  0  0  0
   49.9223   35.5060   43.3294 H   0  0  0  0  0  0  0  0  0  0  0  0
   50.6419   33.4080   41.2872 H   0  0  0  0  0  0  0  0  0  0  0  0
   50.5968   33.2392   43.0221 H   0  0  0  0  0  0  0  0  0  0  0  0
   48.6319   32.2463   41.5716 H   0  0  0  0  0  0  0  0  0  0  0  0
   48.6596   35.7577   39.1434 H   0  0  0  0  0  0  0  0  0  0  0  0
   48.8098   35.0178   36.7553 H   0  0  0  0  0  0  0  0  0  0  0  0
   47.4445   31.1751   37.9907 H   0  0  0  0  0  0  0  0  0  0  0  0
   48.6071   32.3921   44.0124 H   0  0  0  0  0  0  0  0  0  0  0  0
   48.0386   34.1060   43.8822 H   0  0  0  0  0  0  0  0  0  0  0  0
   46.3000   32.6219   42.2496 H   0  0  0  0  0  0  0  0  0  0  0  0
   46.5006   31.6260   43.7035 H   0  0  0  0  0  0  0  0  0  0  0  0
   44.5237   34.6108   42.5753 H   0  0  0  0  0  0  0  0  0  0  0  0
   44.8655   35.1280   46.7920 H   0  0  0  0  0  0  0  0  0  0  0  0
   47.5163   32.5283   45.7559 H   0  0  0  0  0  0  0  0  0  0  0  0
   47.2763   33.7767   47.0063 H   0  0  0  0  0  0  0  0  0  0  0  0
   46.3091   30.4700   45.7388 H   0  0  0  0  0  0  0  0  0  0  0  0
   44.7280   29.0725   47.3620 H   0  0  0  0  0  0  0  0  0  0  0  0
   45.0364   33.0479   48.8193 H   0  0  0  0  0  0  0  0  0  0  0  0
  1  2  1  0
  1  5  1  0
  2  3  1  0
  4  3  1  0
  5  4  1  0
  5 12  1  0
  6  1  1  0
  7  6  2  0
  8  7  1  0
  9  8  2  0
  9 10  1  0
 10 11  2  0
 11  6  1  0
 13 12  1  0
 13 14  1  0
 14 18  1  0
 15 14  2  0
 15 16  1  0
 16 17  2  0
 18 17  1  0
 18 19  1  0
 19 20  1  0
 20 24  1  0
 21 20  1  0
 21 22  2  0
 22 23  1  0
 24 23  2  0
  1 25  1  1
  2 26  1  0
  2 27  1  0
  3 28  1  0
  3 29  1  0
  4 30  1  0
  4 31  1  0
  5 32  1  6
  7 33  1  0
  8 34  1  0
 10 35  1  0
 12 36  1  0
 12 37  1  0
 13 38  1  0
 13 39  1  0
 15 40  1  0
 17 41  1  0
 19 42  1  0
 19 43  1  0
 21 44  1  0
 22 45  1  0
 24 46  1  0
M  ISO  8  25  13  26  13  27  13  28  13  29  13  30  13  31  13  32  13
M  ISO  8  33  14  34  14  35  14  36   8  37   8  38   8  39   8  40  14
M  ISO  6  41  14  42   8  43   8  44  14  45  14  46  14
M  END
>  <minimizedAffinity>  (1) 
-5.51115847

>  <minimizedRMSD>  (1) 
1.06862736

$$$$
