
     RDKit          3D

 46 49  0  0  0  0  0  0  0  0999 V2000
   47.5310   33.9250   40.2690 O   0  0  0  0  0  0  0  0  0  0  0  0
   48.3830   34.9960   40.6370 C   0  0  0  0  0  0  0  0  0  0  0  0
   48.0670   35.3440   42.0720 C   0  0  0  0  0  0  0  0  0  0  0  0
   46.8870   34.6860   42.5870 N   0  0  0  0  0  0  0  0  0  0  0  0
   47.3340   33.8790   43.6980 C   0  0  0  0  0  0  0  0  0  0  0  0
   46.2620   33.4550   44.6210 C   0  0  0  0  0  0  0  0  0  0  0  0
   44.9790   33.7980   44.1500 O   0  0  0  0  0  0  0  0  0  0  0  0
   44.9860   35.1690   44.0540 C   0  0  0  0  0  0  0  0  0  0  0  0
   45.8070   35.5710   42.8670 C   0  0  0  0  0  0  0  0  0  0  0  0
   47.2850   33.5970   38.9260 C   0  0  0  0  0  0  0  0  0  0  0  0
   48.1820   33.7040   38.0930 O   0  0  0  0  0  0  0  0  0  0  0  0
   45.4390   32.5810   37.4810 C   0  0  0  0  0  0  0  0  0  0  0  0
   45.8850   33.1370   38.6920 C   0  0  0  0  0  0  0  0  0  0  0  0
   45.0100   33.2980   39.7780 C   0  0  0  0  0  0  0  0  0  0  0  0
   43.7010   32.8880   39.6000 N   0  0  0  0  0  0  0  0  0  0  0  0
   43.3340   32.3540   38.3910 C   0  0  0  0  0  0  0  0  0  0  0  0
   44.1670   32.2020   37.3610 N   0  0  0  0  0  0  0  0  0  0  0  0
   41.9450   31.9270   38.2260 C   0  0  0  0  0  0  0  0  0  0  0  0
   41.5290   30.6110   38.2000 C   0  0  0  0  0  0  0  0  0  0  0  0
   40.2000   30.5380   38.0340 N   0  0  0  0  0  0  0  0  0  0  0  0
   39.7840   31.8220   37.9560 C   0  0  0  0  0  0  0  0  0  0  0  0
   38.5130   32.3100   37.7860 C   0  0  0  0  0  0  0  0  0  0  0  0
   38.2690   33.6810   37.7270 C   0  0  0  0  0  0  0  0  0  0  0  0
   39.3460   34.5650   37.8440 C   0  0  0  0  0  0  0  0  0  0  0  0
   40.6250   34.0600   38.0150 C   0  0  0  0  0  0  0  0  0  0  0  0
   40.8320   32.7190   38.0690 C   0  0  0  0  0  0  0  0  0  0  0  0
   49.4354   34.6888   40.5465 H   0  0  0  0  0  0  0  0  0  0  0  0
   48.2252   35.8643   39.9804 H   0  0  0  0  0  0  0  0  0  0  0  0
   48.9254   35.0545   42.6959 H   0  0  0  0  0  0  0  0  0  0  0  0
   47.8692   36.4256   42.1027 H   0  0  0  0  0  0  0  0  0  0  0  0
   47.8159   32.9764   43.2943 H   0  0  0  0  0  0  0  0  0  0  0  0
   48.0192   34.5086   44.2846 H   0  0  0  0  0  0  0  0  0  0  0  0
   46.3129   32.3630   44.7432 H   0  0  0  0  0  0  0  0  0  0  0  0
   46.4180   33.9761   45.5771 H   0  0  0  0  0  0  0  0  0  0  0  0
   43.9561   35.5353   43.9311 H   0  0  0  0  0  0  0  0  0  0  0  0
   45.4171   35.6032   44.9681 H   0  0  0  0  0  0  0  0  0  0  0  0
   46.2199   36.5731   43.0546 H   0  0  0  0  0  0  0  0  0  0  0  0
   45.1391   35.5468   41.9933 H   0  0  0  0  0  0  0  0  0  0  0  0
   46.1350   32.4594   36.6379 H   0  0  0  0  0  0  0  0  0  0  0  0
   45.3508   33.7316   40.7297 H   0  0  0  0  0  0  0  0  0  0  0  0
   42.1956   29.7419   38.3014 H   0  0  0  0  0  0  0  0  0  0  0  0
   39.6215   29.6876   37.9781 H   0  0  0  0  0  0  0  0  0  0  0  0
   37.6719   31.6070   37.6947 H   0  0  0  0  0  0  0  0  0  0  0  0
   37.2459   34.0613   37.5906 H   0  0  0  0  0  0  0  0  0  0  0  0
   39.1795   35.6515   37.8007 H   0  0  0  0  0  0  0  0  0  0  0  0
   41.4773   34.7492   38.1075 H   0  0  0  0  0  0  0  0  0  0  0  0
  1  2  1  0
  2  3  1  0
  3  4  1  0
  4  9  1  0
  4  5  1  0
  5  6  1  0
  7  6  1  0
  8  7  1  0
  9  8  1  0
 10  1  1  0
 11 10  2  0
 12 13  2  0
 13 10  1  0
 13 14  1  0
 15 14  2  0
 16 15  1  0
 17 12  1  0
 17 16  2  0
 18 16  1  0
 19 18  2  0
 20 19  1  0
 21 20  1  0
 21 26  2  0
 22 21  1  0
 23 22  2  0
 23 24  1  0
 24 25  2  0
 25 26  1  0
 26 18  1  0
  2 27  1  0
  2 28  1  0
  3 29  1  0
  3 30  1  0
  5 31  1  0
  5 32  1  0
  6 33  1  0
  6 34  1  0
  8 35  1  0
  8 36  1  0
  9 37  1  0
  9 38  1  0
 12 39  1  0
 14 40  1  0
 19 41  1  0
 20 42  1  0
 22 43  1  0
 23 44  1  0
 24 45  1  0
 25 46  1  0
M  ISO  8  27   8  28   8  29   8  30   8  31  13  32  13  33  13  34  13
M  ISO  8  35  13  36  13  37  13  38  13  39  14  40  14  41  14  42   9
M  ISO  4  43  14  44  14  45  14  46  14
M  END
>  <minimizedAffinity>  (1) 
-5.3600893

>  <minimizedRMSD>  (1) 
3.30420828

$$$$
