
     RDKit          3D

 45 48  0  0  0  0  0  0  0  0999 V2000
   48.1610   34.1070   38.1120 C   0  0  0  0  0  0  0  0  0  0  0  0
   48.7850   35.1190   37.8000 O   0  0  0  0  0  0  0  0  0  0  0  0
   46.0780   32.8160   37.4220 C   0  0  0  0  0  0  0  0  0  0  0  0
   47.3920   33.2170   37.2050 C   0  0  0  0  0  0  0  0  0  0  0  0
   48.0820   32.7760   36.0650 C   0  0  0  0  0  0  0  0  0  0  0  0
   47.3800   31.9410   35.2010 N   0  0  0  0  0  0  0  0  0  0  0  0
   46.1050   31.5920   35.4750 C   0  0  0  0  0  0  0  0  0  0  0  0
   45.4720   32.0130   36.5460 N   0  0  0  0  0  0  0  0  0  0  0  0
   45.4710   30.7340   34.5330 N   0  0  0  0  0  0  0  0  0  0  0  0
   44.1890   30.3350   34.4630 C   0  0  0  0  0  0  0  0  0  0  0  0
   44.0080   29.5170   33.4050 N   0  0  0  0  0  0  0  0  0  0  0  0
   45.1800   29.3810   32.7780 C   0  0  0  0  0  0  0  0  0  0  0  0
   45.5460   28.6660   31.6560 C   0  0  0  0  0  0  0  0  0  0  0  0
   46.8240   28.7410   31.2810 N   0  0  0  0  0  0  0  0  0  0  0  0
   47.7480   29.4670   31.9340 C   0  0  0  0  0  0  0  0  0  0  0  0
   47.3590   30.1400   33.0060 N   0  0  0  0  0  0  0  0  0  0  0  0
   46.0850   30.1400   33.4840 C   0  0  0  0  0  0  0  0  0  0  0  0
   44.5500   27.8960   30.9710 N   0  0  0  0  0  0  0  0  0  0  0  0
   48.1240   33.6840   39.4520 O   0  0  0  0  0  0  0  0  0  0  0  0
   48.0040   34.6030   40.5280 C   0  0  0  0  0  0  0  0  0  0  0  0
   46.5960   34.4940   41.0580 C   0  0  0  0  0  0  0  0  0  0  0  0
   46.4990   34.5030   42.4870 N   0  0  0  0  0  0  0  0  0  0  0  0
   45.4780   35.4700   42.8150 C   0  0  0  0  0  0  0  0  0  0  0  0
   44.9160   35.3400   44.1730 C   0  0  0  0  0  0  0  0  0  0  0  0
   45.6310   34.4210   44.9580 O   0  0  0  0  0  0  0  0  0  0  0  0
   45.4730   33.2180   44.2910 C   0  0  0  0  0  0  0  0  0  0  0  0
   46.3460   33.2260   43.0700 C   0  0  0  0  0  0  0  0  0  0  0  0
   45.5384   33.1611   38.3162 H   0  0  0  0  0  0  0  0  0  0  0  0
   49.1218   33.0744   35.8653 H   0  0  0  0  0  0  0  0  0  0  0  0
   43.3993   30.6331   35.1684 H   0  0  0  0  0  0  0  0  0  0  0  0
   48.7921   29.5008   31.5894 H   0  0  0  0  0  0  0  0  0  0  0  0
   44.8039   27.3557   30.1317 H   0  0  0  0  0  0  0  0  0  0  0  0
   43.5803   27.8830   31.3181 H   0  0  0  0  0  0  0  0  0  0  0  0
   48.7246   34.3511   41.3200 H   0  0  0  0  0  0  0  0  0  0  0  0
   48.2135   35.6282   40.1889 H   0  0  0  0  0  0  0  0  0  0  0  0
   46.0151   35.3430   40.6685 H   0  0  0  0  0  0  0  0  0  0  0  0
   46.2093   33.5201   40.7234 H   0  0  0  0  0  0  0  0  0  0  0  0
   45.9154   36.4749   42.7204 H   0  0  0  0  0  0  0  0  0  0  0  0
   44.6465   35.2911   42.1174 H   0  0  0  0  0  0  0  0  0  0  0  0
   44.9457   36.3238   44.6642 H   0  0  0  0  0  0  0  0  0  0  0  0
   43.8842   34.9709   44.0772 H   0  0  0  0  0  0  0  0  0  0  0  0
   45.7665   32.3879   44.9504 H   0  0  0  0  0  0  0  0  0  0  0  0
   44.4207   33.0873   43.9983 H   0  0  0  0  0  0  0  0  0  0  0  0
   45.9012   32.5540   42.3213 H   0  0  0  0  0  0  0  0  0  0  0  0
   47.3462   32.8977   43.3892 H   0  0  0  0  0  0  0  0  0  0  0  0
  1 19  1  0
  2  1  2  0
  4  3  2  0
  4  1  1  0
  5  4  1  0
  6  7  1  0
  6  5  2  0
  7  8  2  0
  8  3  1  0
  9  7  1  0
 10  9  1  0
 11 10  2  0
 12 11  1  0
 12 17  2  0
 13 12  1  0
 14 13  2  0
 14 15  1  0
 15 16  2  0
 16 17  1  0
 17  9  1  0
 18 13  1  0
 19 20  1  0
 20 21  1  0
 21 22  1  0
 22 23  1  0
 22 27  1  0
 23 24  1  0
 24 25  1  0
 26 25  1  0
 27 26  1  0
  3 28  1  0
  5 29  1  0
 10 30  1  0
 15 31  1  0
 18 32  1  0
 18 33  1  0
 20 34  1  0
 20 35  1  0
 21 36  1  0
 21 37  1  0
 23 38  1  0
 23 39  1  0
 24 40  1  0
 24 41  1  0
 26 42  1  0
 26 43  1  0
 27 44  1  0
 27 45  1  0
M  ISO  8  28  14  29  14  30  14  31  14  34   8  35   8  36   8  37   8
M  ISO  8  38  13  39  13  40  13  41  13  42  13  43  13  44  13  45  13
M  END
>  <minimizedAffinity>  (1) 
-5.23335218

>  <minimizedRMSD>  (1) 
2.86328483

$$$$
