
     RDKit          3D

 45 47  0  0  0  0  0  0  0  0999 V2000
   48.2330   33.7270   39.5930 O   0  0  0  0  0  0  0  0  0  0  0  0
   48.3380   34.7850   40.5300 C   0  0  0  0  0  0  0  0  0  0  0  0
   47.0510   34.7990   41.3370 C   0  0  0  0  0  0  0  0  0  0  0  0
   46.8830   33.6510   42.1880 N   0  0  0  0  0  0  0  0  0  0  0  0
   47.3250   34.0360   43.5040 C   0  0  0  0  0  0  0  0  0  0  0  0
   46.8540   33.1810   44.6010 C   0  0  0  0  0  0  0  0  0  0  0  0
   46.1960   32.0210   44.1340 O   0  0  0  0  0  0  0  0  0  0  0  0
   45.1120   32.5110   43.4320 C   0  0  0  0  0  0  0  0  0  0  0  0
   45.5880   33.0620   42.1210 C   0  0  0  0  0  0  0  0  0  0  0  0
   47.9360   33.9770   38.2430 C   0  0  0  0  0  0  0  0  0  0  0  0
   48.6260   34.7760   37.5810 O   0  0  0  0  0  0  0  0  0  0  0  0
   45.6070   33.0040   38.4910 C   0  0  0  0  0  0  0  0  0  0  0  0
   46.7690   33.2120   37.7570 C   0  0  0  0  0  0  0  0  0  0  0  0
   46.8820   32.6810   36.4730 C   0  0  0  0  0  0  0  0  0  0  0  0
   45.7970   31.9560   35.9910 N   0  0  0  0  0  0  0  0  0  0  0  0
   44.6940   31.7910   36.7610 C   0  0  0  0  0  0  0  0  0  0  0  0
   44.5950   32.2960   37.9740 N   0  0  0  0  0  0  0  0  0  0  0  0
   41.5680   29.5470   35.0250 C   0  0  0  0  0  0  0  0  0  0  0  0
   42.6420   29.9130   34.2410 C   0  0  0  0  0  0  0  0  0  0  0  0
   43.6720   30.6550   34.8210 C   0  0  0  0  0  0  0  0  0  0  0  0
   43.6110   31.0150   36.1650 C   0  0  0  0  0  0  0  0  0  0  0  0
   42.5330   30.6440   36.9440 C   0  0  0  0  0  0  0  0  0  0  0  0
   41.5010   29.9010   36.3620 C   0  0  0  0  0  0  0  0  0  0  0  0
   40.2340   28.6090   34.3530 S   0  0  0  0  0  0  0  0  0  0  0  0
   39.1480   29.5190   33.8800 O   0  0  0  0  0  0  0  0  0  0  0  0
   39.6920   27.6820   35.4240 O   0  0  0  0  0  0  0  0  0  0  0  0
   49.1979   34.6159   41.1947 H   0  0  0  0  0  0  0  0  0  0  0  0
   48.4886   35.7469   40.0180 H   0  0  0  0  0  0  0  0  0  0  0  0
   47.0473   35.7006   41.9672 H   0  0  0  0  0  0  0  0  0  0  0  0
   46.2215   34.7847   40.6147 H   0  0  0  0  0  0  0  0  0  0  0  0
   48.4249   34.0215   43.5105 H   0  0  0  0  0  0  0  0  0  0  0  0
   46.8953   35.0315   43.6892 H   0  0  0  0  0  0  0  0  0  0  0  0
   47.7192   32.8764   45.2082 H   0  0  0  0  0  0  0  0  0  0  0  0
   46.1313   33.7618   45.1930 H   0  0  0  0  0  0  0  0  0  0  0  0
   44.3921   31.6992   43.2513 H   0  0  0  0  0  0  0  0  0  0  0  0
   44.6214   33.3058   44.0130 H   0  0  0  0  0  0  0  0  0  0  0  0
   44.8739   33.8286   41.7858 H   0  0  0  0  0  0  0  0  0  0  0  0
   45.6532   32.2170   41.4198 H   0  0  0  0  0  0  0  0  0  0  0  0
   45.5183   33.4240   39.5038 H   0  0  0  0  0  0  0  0  0  0  0  0
   47.7887   32.8287   35.8679 H   0  0  0  0  0  0  0  0  0  0  0  0
   42.6859   29.6259   33.1800 H   0  0  0  0  0  0  0  0  0  0  0  0
   44.5373   30.9573   34.2129 H   0  0  0  0  0  0  0  0  0  0  0  0
   42.4867   30.9284   38.0056 H   0  0  0  0  0  0  0  0  0  0  0  0
   40.6344   29.5972   36.9675 H   0  0  0  0  0  0  0  0  0  0  0  0
   40.6876   27.8766   33.2878 H   0  0  0  0  0  0  0  0  0  0  0  0
  1  2  1  0
  2  3  1  0
  3  4  1  0
  4  5  1  0
  5  6  1  0
  7  6  1  0
  8  7  1  0
  9  4  1  0
  9  8  1  0
 10  1  1  0
 11 10  2  0
 13 10  1  0
 13 12  2  0
 14 13  1  0
 15 14  2  0
 15 16  1  0
 16 17  2  0
 17 12  1  0
 18 23  2  0
 19 20  2  0
 19 18  1  0
 20 21  1  0
 21 16  1  0
 21 22  2  0
 23 22  1  0
 24 18  1  0
 24 26  2  0
 25 24  2  0
  2 27  1  0
  2 28  1  0
  3 29  1  0
  3 30  1  0
  5 31  1  0
  5 32  1  0
  6 33  1  0
  6 34  1  0
  8 35  1  0
  8 36  1  0
  9 37  1  0
  9 38  1  0
 12 39  1  0
 14 40  1  0
 19 41  1  0
 20 42  1  0
 22 43  1  0
 23 44  1  0
 24 45  1  0
M  ISO  8  27   8  28   8  29   8  30   8  31  13  32  13  33  13  34  13
M  ISO  8  35  13  36  13  37  13  38  13  39  14  40  14  41  14  42  14
M  ISO  3  43  14  44  14  45  11
M  END
>  <minimizedAffinity>  (1) 
-4.14389086

>  <minimizedRMSD>  (1) 
1.53377485

$$$$
