
     RDKit          3D

 38 40  0  0  0  0  0  0  0  0999 V2000
   48.0460   34.1110   40.0720 C   0  0  0  0  0  0  0  0  0  0  0  0
   46.9080   34.3900   41.0420 C   0  0  0  0  0  0  0  0  0  0  0  0
   46.8070   33.4540   42.1120 N   0  0  0  0  0  0  0  0  0  0  0  0
   47.1690   34.1360   43.3310 C   0  0  0  0  0  0  0  0  0  0  0  0
   46.6640   33.5190   44.5770 C   0  0  0  0  0  0  0  0  0  0  0  0
   46.2040   32.2090   44.3550 O   0  0  0  0  0  0  0  0  0  0  0  0
   45.1090   32.3850   43.5210 C   0  0  0  0  0  0  0  0  0  0  0  0
   45.6060   32.7060   42.1460 C   0  0  0  0  0  0  0  0  0  0  0  0
   47.4700   33.6380   38.8670 O   0  0  0  0  0  0  0  0  0  0  0  0
   48.0050   33.9710   37.6150 C   0  0  0  0  0  0  0  0  0  0  0  0
   48.7160   34.9710   37.4930 O   0  0  0  0  0  0  0  0  0  0  0  0
   46.4120   32.3070   36.5260 C   0  0  0  0  0  0  0  0  0  0  0  0
   47.6170   33.0120   36.5420 C   0  0  0  0  0  0  0  0  0  0  0  0
   48.5610   32.8500   35.5130 C   0  0  0  0  0  0  0  0  0  0  0  0
   48.2300   31.9650   34.4990 N   0  0  0  0  0  0  0  0  0  0  0  0
   47.0430   31.3140   34.5460 C   0  0  0  0  0  0  0  0  0  0  0  0
   46.1570   31.4660   35.5140 N   0  0  0  0  0  0  0  0  0  0  0  0
   46.7390   30.3830   33.4410 C   0  0  0  0  0  0  0  0  0  0  0  0
   45.6030   29.4960   33.3540 C   0  0  0  0  0  0  0  0  0  0  0  0
   45.8900   28.6820   31.7580 S   0  0  0  0  0  0  0  0  0  0  0  0
   47.4910   29.6650   31.4670 C   0  0  0  0  0  0  0  0  0  0  0  0
   47.5850   30.3420   32.4160 N   0  0  0  0  0  0  0  0  0  0  0  0
   48.6120   35.0347   39.8809 H   0  0  0  0  0  0  0  0  0  0  0  0
   48.7384   33.3655   40.4901 H   0  0  0  0  0  0  0  0  0  0  0  0
   47.0600   35.3907   41.4728 H   0  0  0  0  0  0  0  0  0  0  0  0
   45.9751   34.3104   40.4646 H   0  0  0  0  0  0  0  0  0  0  0  0
   48.2670   34.1679   43.3889 H   0  0  0  0  0  0  0  0  0  0  0  0
   46.7005   35.1295   43.2732 H   0  0  0  0  0  0  0  0  0  0  0  0
   47.4774   33.4914   45.3171 H   0  0  0  0  0  0  0  0  0  0  0  0
   45.8207   34.1229   44.9434 H   0  0  0  0  0  0  0  0  0  0  0  0
   44.5114   31.4619   43.4934 H   0  0  0  0  0  0  0  0  0  0  0  0
   44.4784   33.2051   43.8949 H   0  0  0  0  0  0  0  0  0  0  0  0
   44.8275   33.2837   41.6262 H   0  0  0  0  0  0  0  0  0  0  0  0
   45.8254   31.7430   41.6617 H   0  0  0  0  0  0  0  0  0  0  0  0
   45.6794   32.4404   37.3356 H   0  0  0  0  0  0  0  0  0  0  0  0
   49.5147   33.3982   35.5126 H   0  0  0  0  0  0  0  0  0  0  0  0
   44.7791   29.3515   34.0684 H   0  0  0  0  0  0  0  0  0  0  0  0
   48.1719   29.6098   30.6049 H   0  0  0  0  0  0  0  0  0  0  0  0
  1  2  1  0
  2  3  1  0
  3  8  1  0
  3  4  1  0
  4  5  1  0
  6  5  1  0
  7  6  1  0
  8  7  1  0
  9  1  1  0
 10  9  1  0
 11 10  2  0
 12 13  2  0
 13 10  1  0
 14 13  1  0
 15 16  1  0
 15 14  2  0
 16 17  2  0
 17 12  1  0
 18 16  1  0
 19 18  2  0
 20 19  1  0
 21 20  1  0
 21 22  2  0
 22 18  1  0
  1 23  1  0
  1 24  1  0
  2 25  1  0
  2 26  1  0
  4 27  1  0
  4 28  1  0
  5 29  1  0
  5 30  1  0
  7 31  1  0
  7 32  1  0
  8 33  1  0
  8 34  1  0
 12 35  1  0
 14 36  1  0
 19 37  1  0
 21 38  1  0
M  ISO  8  23   8  24   8  25   8  26   8  27  13  28  13  29  13  30  13
M  ISO  8  31  13  32  13  33  13  34  13  35  14  36  14  37  14  38  14
M  END
>  <minimizedAffinity>  (1) 
-4.06145811

>  <minimizedRMSD>  (1) 
2.47578549

$$$$
