
     RDKit          3D

 35 36  0  0  0  0  0  0  0  0999 V2000
   48.2020   34.6030   40.2960 C   0  0  0  0  0  0  0  0  0  0  0  0
   47.1130   34.7970   41.3350 C   0  0  0  0  0  0  0  0  0  0  0  0
   46.8890   33.6650   42.1750 N   0  0  0  0  0  0  0  0  0  0  0  0
   47.3530   34.0190   43.4870 C   0  0  0  0  0  0  0  0  0  0  0  0
   46.8000   33.2000   44.5850 C   0  0  0  0  0  0  0  0  0  0  0  0
   46.1280   32.0420   44.1090 O   0  0  0  0  0  0  0  0  0  0  0  0
   45.0780   32.5550   43.3780 C   0  0  0  0  0  0  0  0  0  0  0  0
   45.5890   33.1040   42.0770 C   0  0  0  0  0  0  0  0  0  0  0  0
   47.7060   33.7120   39.3200 O   0  0  0  0  0  0  0  0  0  0  0  0
   47.8410   33.9680   37.9460 C   0  0  0  0  0  0  0  0  0  0  0  0
   48.6390   34.8260   37.5430 O   0  0  0  0  0  0  0  0  0  0  0  0
   45.6020   32.8940   37.4080 C   0  0  0  0  0  0  0  0  0  0  0  0
   46.9510   33.1200   37.1180 C   0  0  0  0  0  0  0  0  0  0  0  0
   47.5460   32.5310   35.9800 C   0  0  0  0  0  0  0  0  0  0  0  0
   46.7210   31.7340   35.1980 N   0  0  0  0  0  0  0  0  0  0  0  0
   45.4260   31.5610   35.5420 C   0  0  0  0  0  0  0  0  0  0  0  0
   44.8700   32.1190   36.6130 N   0  0  0  0  0  0  0  0  0  0  0  0
   44.6050   30.6880   34.6450 C   0  0  0  0  0  0  0  0  0  0  0  0
   44.6070   29.3790   35.1440 F   0  0  0  0  0  0  0  0  0  0  0  0
   44.9830   30.7500   33.3370 F   0  0  0  0  0  0  0  0  0  0  0  0
   43.2690   31.0980   34.6940 F   0  0  0  0  0  0  0  0  0  0  0  0
   48.4527   35.5677   39.8306 H   0  0  0  0  0  0  0  0  0  0  0  0
   49.1128   34.1984   40.7615 H   0  0  0  0  0  0  0  0  0  0  0  0
   47.3941   35.6480   41.9728 H   0  0  0  0  0  0  0  0  0  0  0  0
   46.1779   34.9657   40.7808 H   0  0  0  0  0  0  0  0  0  0  0  0
   48.4480   33.9153   43.5016 H   0  0  0  0  0  0  0  0  0  0  0  0
   47.0103   35.0485   43.6677 H   0  0  0  0  0  0  0  0  0  0  0  0
   47.6247   32.8855   45.2415 H   0  0  0  0  0  0  0  0  0  0  0  0
   46.0668   33.8153   45.1271 H   0  0  0  0  0  0  0  0  0  0  0  0
   44.3479   31.7572   43.1769 H   0  0  0  0  0  0  0  0  0  0  0  0
   44.5951   33.3613   43.9496 H   0  0  0  0  0  0  0  0  0  0  0  0
   44.8966   33.8861   41.7323 H   0  0  0  0  0  0  0  0  0  0  0  0
   45.6501   32.2630   41.3707 H   0  0  0  0  0  0  0  0  0  0  0  0
   45.1456   33.3578   38.2949 H   0  0  0  0  0  0  0  0  0  0  0  0
   48.6041   32.6948   35.7276 H   0  0  0  0  0  0  0  0  0  0  0  0
  1  2  1  0
  2  3  1  0
  3  4  1  0
  4  5  1  0
  6  5  1  0
  7  6  1  0
  8  3  1  0
  8  7  1  0
  9  1  1  0
 10  9  1  0
 11 10  2  0
 13 12  2  0
 13 10  1  0
 14 13  1  0
 15 16  1  0
 15 14  2  0
 16 17  2  0
 17 12  1  0
 18 21  1  0
 18 19  1  0
 18 16  1  0
 20 18  1  0
  1 22  1  0
  1 23  1  0
  2 24  1  0
  2 25  1  0
  4 26  1  0
  4 27  1  0
  5 28  1  0
  5 29  1  0
  7 30  1  0
  7 31  1  0
  8 32  1  0
  8 33  1  0
 12 34  1  0
 14 35  1  0
M  ISO  8  22   8  23   8  24   8  25   8  26  13  27  13  28  13  29  13
M  ISO  6  30  13  31  13  32  13  33  13  34  14  35  14
M  END
>  <minimizedAffinity>  (1) 
-3.74208999

>  <minimizedRMSD>  (1) 
1.23693669

$$$$
