
     RDKit          3D

 35 36  0  0  0  0  0  0  0  0999 V2000
   46.8070   34.4520   40.9770 C   0  0  0  0  0  0  0  0  0  0  0  0
   46.7540   33.4780   42.0200 N   0  0  0  0  0  0  0  0  0  0  0  0
   47.1600   34.1510   43.2300 C   0  0  0  0  0  0  0  0  0  0  0  0
   46.7400   33.4930   44.4840 C   0  0  0  0  0  0  0  0  0  0  0  0
   46.2520   32.1890   44.2560 O   0  0  0  0  0  0  0  0  0  0  0  0
   45.1270   32.3870   43.4880 C   0  0  0  0  0  0  0  0  0  0  0  0
   45.5530   32.7450   42.0920 C   0  0  0  0  0  0  0  0  0  0  0  0
   48.1910   34.6420   40.3770 C   0  0  0  0  0  0  0  0  0  0  0  0
   48.3480   33.6650   39.3710 O   0  0  0  0  0  0  0  0  0  0  0  0
   48.0750   33.9160   38.0210 C   0  0  0  0  0  0  0  0  0  0  0  0
   48.5870   34.8890   37.4560 O   0  0  0  0  0  0  0  0  0  0  0  0
   45.8430   33.2260   36.9960 C   0  0  0  0  0  0  0  0  0  0  0  0
   47.1510   32.9180   37.4250 C   0  0  0  0  0  0  0  0  0  0  0  0
   47.6530   31.6110   37.3020 C   0  0  0  0  0  0  0  0  0  0  0  0
   46.7950   30.6760   36.7470 N   0  0  0  0  0  0  0  0  0  0  0  0
   45.5520   31.0410   36.3570 C   0  0  0  0  0  0  0  0  0  0  0  0
   45.0790   32.2660   36.4700 N   0  0  0  0  0  0  0  0  0  0  0  0
   44.6860   29.9640   35.7640 C   0  0  0  0  0  0  0  0  0  0  0  0
   46.1227   34.1375   40.1752 H   0  0  0  0  0  0  0  0  0  0  0  0
   46.5203   35.4144   41.4259 H   0  0  0  0  0  0  0  0  0  0  0  0
   48.2580   34.2172   43.2311 H   0  0  0  0  0  0  0  0  0  0  0  0
   46.6620   35.1317   43.2169 H   0  0  0  0  0  0  0  0  0  0  0  0
   47.6041   33.4358   45.1623 H   0  0  0  0  0  0  0  0  0  0  0  0
   45.9276   34.0886   44.9260 H   0  0  0  0  0  0  0  0  0  0  0  0
   44.5265   31.4656   43.4669 H   0  0  0  0  0  0  0  0  0  0  0  0
   44.5204   33.1995   43.9146 H   0  0  0  0  0  0  0  0  0  0  0  0
   44.7548   33.3463   41.6323 H   0  0  0  0  0  0  0  0  0  0  0  0
   45.7323   31.7960   41.5654 H   0  0  0  0  0  0  0  0  0  0  0  0
   48.2780   35.6484   39.9416 H   0  0  0  0  0  0  0  0  0  0  0  0
   48.9684   34.5366   41.1480 H   0  0  0  0  0  0  0  0  0  0  0  0
   45.4551   34.2506   37.0943 H   0  0  0  0  0  0  0  0  0  0  0  0
   48.6695   31.3457   37.6280 H   0  0  0  0  0  0  0  0  0  0  0  0
   44.2186   29.3827   36.5725 H   0  0  0  0  0  0  0  0  0  0  0  0
   43.9030   30.4236   35.1429 H   0  0  0  0  0  0  0  0  0  0  0  0
   45.3029   29.2979   35.1429 H   0  0  0  0  0  0  0  0  0  0  0  0
  1  2  1  0
  2  7  1  0
  2  3  1  0
  3  4  1  0
  5  4  1  0
  6  5  1  0
  7  6  1  0
  8  1  1  0
  9  8  1  0
 10  9  1  0
 11 10  2  0
 12 13  2  0
 13 10  1  0
 14 13  1  0
 15 14  2  0
 16 17  2  0
 16 15  1  0
 17 12  1  0
 18 16  1  0
  1 19  1  0
  1 20  1  0
  3 21  1  0
  3 22  1  0
  4 23  1  0
  4 24  1  0
  6 25  1  0
  6 26  1  0
  7 27  1  0
  7 28  1  0
  8 29  1  0
  8 30  1  0
 12 31  1  0
 14 32  1  0
 18 33  1  0
 18 34  1  0
 18 35  1  0
M  ISO  8  19   8  20   8  21  13  22  13  23  13  24  13  25  13  26  13
M  ISO  8  27  13  28  13  29   8  30   8  31  14  32  14  33   8  34   8
M  ISO  1  35   8
M  END
>  <minimizedAffinity>  (1) 
-3.23227334

>  <minimizedRMSD>  (1) 
0.322938919

$$$$
