
     RDKit          3D

 53 57  0  0  1  0  0  0  0  0999 V2000
   47.3590   31.6480   37.9890 C   0  0  0  0  0  0  0  0  0  0  0  0
   48.0860   32.8570   37.9220 C   0  0  0  0  0  0  0  0  0  0  0  0
   48.8240   33.1990   36.7750 C   0  0  0  0  0  0  0  0  0  0  0  0
   48.8120   32.3050   35.7090 N   0  0  0  0  0  0  0  0  0  0  0  0
   48.0790   31.1550   35.8570 C   0  0  0  0  0  0  0  0  0  0  0  0
   47.3720   30.8220   36.9530 N   0  0  0  0  0  0  0  0  0  0  0  0
   48.0980   30.2010   34.6910 C   0  0  1  0  0  0  0  0  0  0  0  0
   46.9920   29.2630   34.5030 C   0  0  0  0  0  0  0  0  0  0  0  0
   47.0100   30.4500   33.6260 C   0  0  2  0  0  0  0  0  0  0  0  0
   47.3570   30.1430   32.2200 C   0  0  0  0  0  0  0  0  0  0  0  0
   46.9480   28.9880   31.7160 N   0  0  0  0  0  0  0  0  0  0  0  0
   47.2530   28.6870   30.4390 C   0  0  0  0  0  0  0  0  0  0  0  0
   47.9650   29.5330   29.6550 N   0  0  0  0  0  0  0  0  0  0  0  0
   48.3960   30.7280   30.1510 C   0  0  0  0  0  0  0  0  0  0  0  0
   49.1280   31.5970   29.3420 C   0  0  0  0  0  0  0  0  0  0  0  0
   49.5330   32.7930   29.9140 C   0  0  0  0  0  0  0  0  0  0  0  0
   49.2470   33.1470   31.2190 C   0  0  0  0  0  0  0  0  0  0  0  0
   48.5200   32.2530   31.9770 C   0  0  0  0  0  0  0  0  0  0  0  0
   48.0850   31.0460   31.4720 C   0  0  0  0  0  0  0  0  0  0  0  0
   48.1270   33.8490   39.0310 C   0  0  0  0  0  0  0  0  0  0  0  0
   48.5510   35.0050   38.9790 O   0  0  0  0  0  0  0  0  0  0  0  0
   47.6130   33.3430   40.2280 O   0  0  0  0  0  0  0  0  0  0  0  0
   47.8410   33.9960   41.4650 C   0  0  0  0  0  0  0  0  0  0  0  0
   46.6340   34.8760   41.7520 C   0  0  0  0  0  0  0  0  0  0  0  0
   46.3520   35.0410   43.1490 N   0  0  0  0  0  0  0  0  0  0  0  0
   45.1160   35.7980   43.2390 C   0  0  0  0  0  0  0  0  0  0  0  0
   44.4120   35.6740   44.5320 C   0  0  0  0  0  0  0  0  0  0  0  0
   45.2050   35.0290   45.5070 O   0  0  0  0  0  0  0  0  0  0  0  0
   45.3940   33.7710   45.0050 C   0  0  0  0  0  0  0  0  0  0  0  0
   46.3950   33.8500   43.8970 C   0  0  0  0  0  0  0  0  0  0  0  0
   46.7868   31.3942   38.8936 H   0  0  0  0  0  0  0  0  0  0  0  0
   49.3909   34.1402   36.7224 H   0  0  0  0  0  0  0  0  0  0  0  0
   49.1916   30.0874   34.7244 H   0  0  0  0  0  0  0  0  0  0  0  0
   47.1922   28.2704   34.0733 H   0  0  0  0  0  0  0  0  0  0  0  0
   46.2397   28.8330   35.1807 H   0  0  0  0  0  0  0  0  0  0  0  0
   46.3442   31.2920   33.3857 H   0  0  0  0  0  0  0  0  0  0  0  0
   46.9147   27.7276   30.0206 H   0  0  0  0  0  0  0  0  0  0  0  0
   49.3723   31.3452   28.2995 H   0  0  0  0  0  0  0  0  0  0  0  0
   50.1118   33.4965   29.2975 H   0  0  0  0  0  0  0  0  0  0  0  0
   49.5865   34.1060   31.6375 H   0  0  0  0  0  0  0  0  0  0  0  0
   48.2793   32.5115   33.0188 H   0  0  0  0  0  0  0  0  0  0  0  0
   47.9605   33.2511   42.2655 H   0  0  0  0  0  0  0  0  0  0  0  0
   48.7576   34.6023   41.4177 H   0  0  0  0  0  0  0  0  0  0  0  0
   46.8185   35.8692   41.3166 H   0  0  0  0  0  0  0  0  0  0  0  0
   45.7614   34.3747   41.3079 H   0  0  0  0  0  0  0  0  0  0  0  0
   45.3516   36.8602   43.0770 H   0  0  0  0  0  0  0  0  0  0  0  0
   44.4408   35.3847   42.4753 H   0  0  0  0  0  0  0  0  0  0  0  0
   44.1535   36.6802   44.8935 H   0  0  0  0  0  0  0  0  0  0  0  0
   43.5102   35.0651   44.3706 H   0  0  0  0  0  0  0  0  0  0  0  0
   45.7692   33.1072   45.7979 H   0  0  0  0  0  0  0  0  0  0  0  0
   44.4428   33.3683   44.6268 H   0  0  0  0  0  0  0  0  0  0  0  0
   46.2147   33.0085   43.2119 H   0  0  0  0  0  0  0  0  0  0  0  0
   47.3868   33.8171   44.3717 H   0  0  0  0  0  0  0  0  0  0  0  0
  2  1  2  0
  2 20  1  0
  3  2  1  0
  4  5  1  0
  4  3  2  0
  5  6  2  0
  6  1  1  0
  7  5  1  0
  8  7  1  0
  9  8  1  0
  9  7  1  0
 10  9  1  0
 11 10  2  0
 12 11  1  0
 13 14  1  0
 13 12  2  0
 14 19  2  0
 15 16  2  0
 15 14  1  0
 16 17  1  0
 17 18  2  0
 19 18  1  0
 19 10  1  0
 20 22  1  0
 21 20  2  0
 22 23  1  0
 23 24  1  0
 24 25  1  0
 25 26  1  0
 25 30  1  0
 26 27  1  0
 27 28  1  0
 29 28  1  0
 30 29  1  0
  1 31  1  0
  3 32  1  0
  7 33  1  6
  8 34  1  0
  8 35  1  0
  9 36  1  6
 12 37  1  0
 15 38  1  0
 16 39  1  0
 17 40  1  0
 18 41  1  0
 23 42  1  0
 23 43  1  0
 24 44  1  0
 24 45  1  0
 26 46  1  0
 26 47  1  0
 27 48  1  0
 27 49  1  0
 29 50  1  0
 29 51  1  0
 30 52  1  0
 30 53  1  0
M  ISO  8  31  14  32  14  33  13  34  13  35  13  36  13  37  14  38  14
M  ISO  8  39  14  40  14  41  14  42   8  43   8  44   8  45   8  46  13
M  ISO  7  47  13  48  13  49  13  50  13  51  13  52  13  53  13
M  END
>  <minimizedAffinity>  (1) 
-5.78947639

>  <minimizedRMSD>  (1) 
3.96109676

$$$$
