
     RDKit          3D

 52 55  0  0  1  0  0  0  0  0999 V2000
   48.5810   32.9000   38.1310 C   0  0  0  0  0  0  0  0  0  0  0  0
   47.2600   32.3970   38.1240 C   0  0  0  0  0  0  0  0  0  0  0  0
   46.8040   31.5480   39.1540 C   0  0  0  0  0  0  0  0  0  0  0  0
   47.6980   31.2270   40.1720 N   0  0  0  0  0  0  0  0  0  0  0  0
   48.9500   31.7560   40.1000 C   0  0  0  0  0  0  0  0  0  0  0  0
   49.3920   32.5650   39.1220 N   0  0  0  0  0  0  0  0  0  0  0  0
   49.9130   31.3860   41.1930 C   0  0  1  0  0  0  0  0  0  0  0  0
   50.9760   32.3010   41.5990 C   0  0  0  0  0  0  0  0  0  0  0  0
   49.8040   32.2290   42.4810 C   0  0  1  0  0  0  0  0  0  0  0  0
   46.4790   34.8930   42.9500 C   0  0  0  0  0  0  0  0  0  0  0  0
   46.5920   33.7040   43.5980 C   0  0  0  0  0  0  0  0  0  0  0  0
   47.6940   32.8630   43.4110 C   0  0  0  0  0  0  0  0  0  0  0  0
   48.7310   33.2200   42.5400 C   0  0  0  0  0  0  0  0  0  0  0  0
   48.5900   34.4270   41.8990 C   0  0  0  0  0  0  0  0  0  0  0  0
   47.4980   35.2450   42.0930 C   0  0  0  0  0  0  0  0  0  0  0  0
   45.1440   36.0100   43.1150 S   0  0  0  0  0  0  0  0  0  0  0  0
   44.1070   35.8050   42.0590 O   0  0  0  0  0  0  0  0  0  0  0  0
   44.5700   35.7950   44.5070 O   0  0  0  0  0  0  0  0  0  0  0  0
   46.2650   32.7090   37.0640 C   0  0  0  0  0  0  0  0  0  0  0  0
   45.0830   33.0290   37.2310 O   0  0  0  0  0  0  0  0  0  0  0  0
   46.7940   32.6090   35.7780 O   0  0  0  0  0  0  0  0  0  0  0  0
   47.0400   31.3480   35.1720 C   0  0  0  0  0  0  0  0  0  0  0  0
   46.8930   31.5230   33.6710 C   0  0  0  0  0  0  0  0  0  0  0  0
   48.1350   31.6080   32.9610 N   0  0  0  0  0  0  0  0  0  0  0  0
   48.0590   30.6610   31.8690 C   0  0  0  0  0  0  0  0  0  0  0  0
   48.9980   30.9130   30.7640 C   0  0  0  0  0  0  0  0  0  0  0  0
   49.9690   31.8650   31.1040 O   0  0  0  0  0  0  0  0  0  0  0  0
   49.2570   33.0190   31.3240 C   0  0  0  0  0  0  0  0  0  0  0  0
   48.5660   32.9110   32.6510 C   0  0  0  0  0  0  0  0  0  0  0  0
   48.9302   33.5608   37.3239 H   0  0  0  0  0  0  0  0  0  0  0  0
   45.7773   31.1531   39.1530 H   0  0  0  0  0  0  0  0  0  0  0  0
   49.9005   30.3245   40.9047 H   0  0  0  0  0  0  0  0  0  0  0  0
   51.9372   31.8925   41.9442 H   0  0  0  0  0  0  0  0  0  0  0  0
   51.4929   33.1308   41.0947 H   0  0  0  0  0  0  0  0  0  0  0  0
   49.6992   32.0883   43.5669 H   0  0  0  0  0  0  0  0  0  0  0  0
   45.7943   33.3941   44.2892 H   0  0  0  0  0  0  0  0  0  0  0  0
   47.7468   31.9086   43.9553 H   0  0  0  0  0  0  0  0  0  0  0  0
   49.3785   34.7528   41.2047 H   0  0  0  0  0  0  0  0  0  0  0  0
   47.4389   36.2005   41.5512 H   0  0  0  0  0  0  0  0  0  0  0  0
   45.5769   37.2999   42.9546 H   0  0  0  0  0  0  0  0  0  0  0  0
   48.0585   31.0089   35.4120 H   0  0  0  0  0  0  0  0  0  0  0  0
   46.3294   30.5954   35.5444 H   0  0  0  0  0  0  0  0  0  0  0  0
   46.3299   30.6637   33.2778 H   0  0  0  0  0  0  0  0  0  0  0  0
   46.3760   32.4814   33.5156 H   0  0  0  0  0  0  0  0  0  0  0  0
   48.2658   29.6583   32.2712 H   0  0  0  0  0  0  0  0  0  0  0  0
   47.0491   30.7600   31.4444 H   0  0  0  0  0  0  0  0  0  0  0  0
   48.4323   31.2783   29.8942 H   0  0  0  0  0  0  0  0  0  0  0  0
   49.5144   29.9688   30.5363 H   0  0  0  0  0  0  0  0  0  0  0  0
   49.9410   33.8804   31.3317 H   0  0  0  0  0  0  0  0  0  0  0  0
   48.5145   33.1599   30.5247 H   0  0  0  0  0  0  0  0  0  0  0  0
   49.2646   33.2410   33.4340 H   0  0  0  0  0  0  0  0  0  0  0  0
   47.6667   33.5422   32.5969 H   0  0  0  0  0  0  0  0  0  0  0  0
  1  6  2  0
  2  1  1  0
  2  3  2  0
  3  4  1  0
  5  4  2  0
  5  7  1  0
  6  5  1  0
  7  8  1  0
  7  9  1  0
  8  9  1  0
  9 13  1  0
 10 16  1  0
 10 11  2  0
 12 11  1  0
 13 12  2  0
 14 15  2  0
 14 13  1  0
 15 10  1  0
 16 18  2  0
 17 16  2  0
 19 20  2  0
 19  2  1  0
 21 19  1  0
 22 21  1  0
 23 22  1  0
 24 23  1  0
 25 24  1  0
 26 27  1  0
 26 25  1  0
 27 28  1  0
 28 29  1  0
 29 24  1  0
  1 30  1  0
  3 31  1  0
  7 32  1  1
  8 33  1  0
  8 34  1  0
  9 35  1  1
 11 36  1  0
 12 37  1  0
 14 38  1  0
 15 39  1  0
 16 40  1  0
 22 41  1  0
 22 42  1  0
 23 43  1  0
 23 44  1  0
 25 45  1  0
 25 46  1  0
 26 47  1  0
 26 48  1  0
 28 49  1  0
 28 50  1  0
 29 51  1  0
 29 52  1  0
M  ISO  8  30  14  31  14  32  13  33  13  34  13  35  13  36  14  37  14
M  ISO  8  38  14  39  14  40  11  41   8  42   8  43   8  44   8  45  13
M  ISO  7  46  13  47  13  48  13  49  13  50  13  51  13  52  13
M  END
>  <minimizedAffinity>  (1) 
-5.36732388

>  <minimizedRMSD>  (1) 
9.47704315

$$$$
