
     RDKit          3D

 50 53  0  0  1  0  0  0  0  0999 V2000
   45.7650   33.4710   37.4770 C   0  0  0  0  0  0  0  0  0  0  0  0
   46.4070   33.0490   38.6630 C   0  0  0  0  0  0  0  0  0  0  0  0
   45.9060   31.9690   39.4190 C   0  0  0  0  0  0  0  0  0  0  0  0
   44.7580   31.3380   38.9510 N   0  0  0  0  0  0  0  0  0  0  0  0
   44.2000   31.8120   37.7940 C   0  0  0  0  0  0  0  0  0  0  0  0
   44.6730   32.8420   37.0690 N   0  0  0  0  0  0  0  0  0  0  0  0
   42.9460   31.1130   37.3300 C   0  0  1  0  0  0  0  0  0  0  0  0
   42.2800   30.1650   38.2220 C   0  0  0  0  0  0  0  0  0  0  0  0
   41.6660   31.4850   38.1100 C   0  0  1  0  0  0  0  0  0  0  0  0
   41.8000   32.5370   39.0670 N   0  0  0  0  0  0  0  0  0  0  0  0
   41.7760   33.7830   38.5100 C   0  0  0  0  0  0  0  0  0  0  0  0
   41.8920   34.9390   39.2750 C   0  0  0  0  0  0  0  0  0  0  0  0
   42.0340   34.7610   40.6370 C   0  0  0  0  0  0  0  0  0  0  0  0
   42.1560   35.9120   41.4620 N   0  0  0  0  0  0  0  0  0  0  0  0
   42.0580   33.5260   41.1900 N   0  0  0  0  0  0  0  0  0  0  0  0
   41.9410   32.4390   40.3990 C   0  0  0  0  0  0  0  0  0  0  0  0
   41.9560   31.2880   40.8510 O   0  0  0  0  0  0  0  0  0  0  0  0
   47.6400   33.6880   39.1990 C   0  0  0  0  0  0  0  0  0  0  0  0
   48.3400   34.5340   38.6450 O   0  0  0  0  0  0  0  0  0  0  0  0
   47.9760   33.2230   40.4770 O   0  0  0  0  0  0  0  0  0  0  0  0
   48.1930   34.1290   41.5560 C   0  0  0  0  0  0  0  0  0  0  0  0
   46.9110   34.9170   41.7590 C   0  0  0  0  0  0  0  0  0  0  0  0
   46.5170   35.0360   43.1360 N   0  0  0  0  0  0  0  0  0  0  0  0
   45.3080   35.8240   43.1610 C   0  0  0  0  0  0  0  0  0  0  0  0
   44.4840   35.6650   44.3770 C   0  0  0  0  0  0  0  0  0  0  0  0
   45.1830   34.9740   45.4000 O   0  0  0  0  0  0  0  0  0  0  0  0
   45.3870   33.7300   44.8690 C   0  0  0  0  0  0  0  0  0  0  0  0
   46.4860   33.8210   43.8590 C   0  0  0  0  0  0  0  0  0  0  0  0
   46.1686   34.3145   36.8976 H   0  0  0  0  0  0  0  0  0  0  0  0
   46.4036   31.6385   40.3427 H   0  0  0  0  0  0  0  0  0  0  0  0
   43.2796   31.0719   36.2826 H   0  0  0  0  0  0  0  0  0  0  0  0
   41.7647   29.2926   37.7938 H   0  0  0  0  0  0  0  0  0  0  0  0
   42.6239   29.5626   39.0757 H   0  0  0  0  0  0  0  0  0  0  0  0
   40.6288   31.8004   37.9234 H   0  0  0  0  0  0  0  0  0  0  0  0
   41.6611   33.8760   37.4200 H   0  0  0  0  0  0  0  0  0  0  0  0
   41.8717   35.9402   38.8199 H   0  0  0  0  0  0  0  0  0  0  0  0
   42.2630   35.8063   42.4810 H   0  0  0  0  0  0  0  0  0  0  0  0
   42.1374   36.8518   41.0409 H   0  0  0  0  0  0  0  0  0  0  0  0
   48.4388   33.5704   42.4712 H   0  0  0  0  0  0  0  0  0  0  0  0
   49.0304   34.8054   41.3299 H   0  0  0  0  0  0  0  0  0  0  0  0
   47.0567   35.9281   41.3510 H   0  0  0  0  0  0  0  0  0  0  0  0
   46.1107   34.3668   41.2424 H   0  0  0  0  0  0  0  0  0  0  0  0
   45.5897   36.8839   43.0759 H   0  0  0  0  0  0  0  0  0  0  0  0
   44.6912   35.4673   42.3229 H   0  0  0  0  0  0  0  0  0  0  0  0
   44.2018   36.6611   44.7487 H   0  0  0  0  0  0  0  0  0  0  0  0
   43.5940   35.0752   44.1124 H   0  0  0  0  0  0  0  0  0  0  0  0
   45.6727   33.0282   45.6664 H   0  0  0  0  0  0  0  0  0  0  0  0
   44.4647   33.3675   44.3916 H   0  0  0  0  0  0  0  0  0  0  0  0
   46.3624   32.9967   43.1411 H   0  0  0  0  0  0  0  0  0  0  0  0
   47.4314   33.7649   44.4185 H   0  0  0  0  0  0  0  0  0  0  0  0
  1  2  2  0
  2 18  1  0
  2  3  1  0
  4  3  2  0
  5  4  1  0
  6  1  1  0
  6  5  2  0
  7  5  1  0
  7  9  1  0
  7  8  1  0
  9  8  1  0
  9 10  1  0
 10 16  1  0
 11 10  1  0
 11 12  2  0
 12 13  1  0
 13 15  2  0
 13 14  1  0
 16 17  2  0
 16 15  1  0
 18 20  1  0
 19 18  2  0
 20 21  1  0
 21 22  1  0
 22 23  1  0
 23 24  1  0
 23 28  1  0
 24 25  1  0
 25 26  1  0
 27 26  1  0
 28 27  1  0
  1 29  1  0
  3 30  1  0
  7 31  1  6
  8 32  1  0
  8 33  1  0
  9 34  1  6
 11 35  1  0
 12 36  1  0
 14 37  1  0
 14 38  1  0
 21 39  1  0
 21 40  1  0
 22 41  1  0
 22 42  1  0
 24 43  1  0
 24 44  1  0
 25 45  1  0
 25 46  1  0
 27 47  1  0
 27 48  1  0
 28 49  1  0
 28 50  1  0
M  ISO  8  29  14  30  14  31  13  32  13  33  13  34  13  35  14  36  14
M  ISO  8  39   8  40   8  41   8  42   8  43  13  44  13  45  13  46  13
M  ISO  4  47  13  48  13  49  13  50  13
M  END
>  <minimizedAffinity>  (1) 
-4.75771999

>  <minimizedRMSD>  (1) 
5.05666733

$$$$
