
     RDKit          3D

 47 50  0  0  1  0  0  0  0  0999 V2000
   48.1290   33.8970   38.2510 C   0  0  0  0  0  0  0  0  0  0  0  0
   48.6610   34.9790   37.9670 O   0  0  0  0  0  0  0  0  0  0  0  0
   46.4750   33.0250   36.5060 C   0  0  0  0  0  0  0  0  0  0  0  0
   47.6370   32.8700   37.2940 C   0  0  0  0  0  0  0  0  0  0  0  0
   48.4160   31.6970   37.2090 C   0  0  0  0  0  0  0  0  0  0  0  0
   47.9980   30.7070   36.3240 N   0  0  0  0  0  0  0  0  0  0  0  0
   46.8680   30.9400   35.6040 C   0  0  0  0  0  0  0  0  0  0  0  0
   46.1210   32.0530   35.6800 N   0  0  0  0  0  0  0  0  0  0  0  0
   46.4210   29.8580   34.6630 C   0  0  1  0  0  0  0  0  0  0  0  0
   45.7140   30.1750   33.4240 C   0  0  0  0  0  0  0  0  0  0  0  0
   47.1380   29.8440   33.2920 C   0  0  1  0  0  0  0  0  0  0  0  0
   48.1590   30.9010   33.0940 C   0  0  0  0  0  0  0  0  0  0  0  0
   49.5080   30.7740   33.2130 C   0  0  0  0  0  0  0  0  0  0  0  0
   50.4220   31.7840   33.0030 C   0  0  0  0  0  0  0  0  0  0  0  0
   49.9150   33.0000   32.6510 N   0  0  0  0  0  0  0  0  0  0  0  0
   48.5850   33.1600   32.5250 C   0  0  0  0  0  0  0  0  0  0  0  0
   47.7270   32.1470   32.7390 N   0  0  0  0  0  0  0  0  0  0  0  0
   47.9400   33.5330   39.5850 O   0  0  0  0  0  0  0  0  0  0  0  0
   47.7820   34.4960   40.6050 C   0  0  0  0  0  0  0  0  0  0  0  0
   46.3450   34.4030   41.1060 C   0  0  0  0  0  0  0  0  0  0  0  0
   46.1820   34.7870   42.4820 N   0  0  0  0  0  0  0  0  0  0  0  0
   44.9720   35.5720   42.5540 C   0  0  0  0  0  0  0  0  0  0  0  0
   44.3660   35.6680   43.8920 C   0  0  0  0  0  0  0  0  0  0  0  0
   45.2280   35.1820   44.9030 O   0  0  0  0  0  0  0  0  0  0  0  0
   45.3930   33.8600   44.6010 C   0  0  0  0  0  0  0  0  0  0  0  0
   46.3100   33.7410   43.4240 C   0  0  0  0  0  0  0  0  0  0  0  0
   45.8717   33.9420   36.5778 H   0  0  0  0  0  0  0  0  0  0  0  0
   49.3215   31.5691   37.8203 H   0  0  0  0  0  0  0  0  0  0  0  0
   46.2138   29.1640   35.4909 H   0  0  0  0  0  0  0  0  0  0  0  0
   44.9593   29.4733   33.0391 H   0  0  0  0  0  0  0  0  0  0  0  0
   45.1049   31.0319   33.1004 H   0  0  0  0  0  0  0  0  0  0  0  0
   47.6953   29.1353   32.6618 H   0  0  0  0  0  0  0  0  0  0  0  0
   49.9005   29.7872   33.4995 H   0  0  0  0  0  0  0  0  0  0  0  0
   51.5038   31.6179   33.1135 H   0  0  0  0  0  0  0  0  0  0  0  0
   48.1890   34.1457   32.2393 H   0  0  0  0  0  0  0  0  0  0  0  0
   48.4809   34.2885   41.4287 H   0  0  0  0  0  0  0  0  0  0  0  0
   47.9934   35.5048   40.2208 H   0  0  0  0  0  0  0  0  0  0  0  0
   45.7187   35.0614   40.4861 H   0  0  0  0  0  0  0  0  0  0  0  0
   46.0487   33.3462   41.0320 H   0  0  0  0  0  0  0  0  0  0  0  0
   45.2067   36.5911   42.2128 H   0  0  0  0  0  0  0  0  0  0  0  0
   44.2350   35.0556   41.9214 H   0  0  0  0  0  0  0  0  0  0  0  0
   44.1333   36.7226   44.1011 H   0  0  0  0  0  0  0  0  0  0  0  0
   43.4561   35.0498   43.8968 H   0  0  0  0  0  0  0  0  0  0  0  0
   45.8302   33.3361   45.4638 H   0  0  0  0  0  0  0  0  0  0  0  0
   44.4190   33.4087   44.3610 H   0  0  0  0  0  0  0  0  0  0  0  0
   46.0959   32.7898   42.9146 H   0  0  0  0  0  0  0  0  0  0  0  0
   47.3364   33.7926   43.8163 H   0  0  0  0  0  0  0  0  0  0  0  0
  1 18  1  0
  2  1  2  0
  3  4  2  0
  4  1  1  0
  5  4  1  0
  6  5  2  0
  7  8  2  0
  7  6  1  0
  8  3  1  0
  9  7  1  0
 10  9  1  0
 11 10  1  0
 11  9  1  0
 12 13  2  0
 12 11  1  0
 14 13  1  0
 15 14  2  0
 16 15  1  0
 16 17  2  0
 17 12  1  0
 18 19  1  0
 19 20  1  0
 20 21  1  0
 21 22  1  0
 21 26  1  0
 22 23  1  0
 23 24  1  0
 25 24  1  0
 26 25  1  0
  3 27  1  0
  5 28  1  0
  9 29  1  1
 10 30  1  0
 10 31  1  0
 11 32  1  6
 13 33  1  0
 14 34  1  0
 16 35  1  0
 19 36  1  0
 19 37  1  0
 20 38  1  0
 20 39  1  0
 22 40  1  0
 22 41  1  0
 23 42  1  0
 23 43  1  0
 25 44  1  0
 25 45  1  0
 26 46  1  0
 26 47  1  0
M  ISO  8  27  14  28  14  29  13  30  13  31  13  32  13  33  14  34  14
M  ISO  8  35  14  36   8  37   8  38   8  39   8  40  13  41  13  42  13
M  ISO  5  43  13  44  13  45  13  46  13  47  13
M  END
>  <minimizedAffinity>  (1) 
-4.68744135

>  <minimizedRMSD>  (1) 
1.95664883

$$$$
