
     RDKit          3D

 46 49  0  0  1  0  0  0  0  0999 V2000
   48.0720   33.9220   38.3370 C   0  0  0  0  0  0  0  0  0  0  0  0
   48.6480   34.9840   38.1180 O   0  0  0  0  0  0  0  0  0  0  0  0
   46.4470   33.0130   36.5910 C   0  0  0  0  0  0  0  0  0  0  0  0
   47.6430   32.9100   37.3360 C   0  0  0  0  0  0  0  0  0  0  0  0
   48.5120   31.8130   37.1650 C   0  0  0  0  0  0  0  0  0  0  0  0
   48.1520   30.8390   36.2390 N   0  0  0  0  0  0  0  0  0  0  0  0
   46.9740   31.0210   35.5600 C   0  0  0  0  0  0  0  0  0  0  0  0
   46.1400   32.0640   35.7180 N   0  0  0  0  0  0  0  0  0  0  0  0
   46.5940   29.9450   34.5760 C   0  0  1  0  0  0  0  0  0  0  0  0
   45.7680   30.2830   33.4160 C   0  0  0  0  0  0  0  0  0  0  0  0
   47.2060   30.1070   33.1690 C   0  0  1  0  0  0  0  0  0  0  0  0
   48.1150   31.2740   33.0120 C   0  0  0  0  0  0  0  0  0  0  0  0
   49.5120   31.2100   33.0270 C   0  0  0  0  0  0  0  0  0  0  0  0
   49.8810   32.5420   32.8450 C   0  0  0  0  0  0  0  0  0  0  0  0
   48.7380   33.3210   32.7330 C   0  0  0  0  0  0  0  0  0  0  0  0
   47.7170   32.5110   32.8400 O   0  0  0  0  0  0  0  0  0  0  0  0
   47.7570   33.5620   39.6480 O   0  0  0  0  0  0  0  0  0  0  0  0
   47.6970   34.5030   40.6960 C   0  0  0  0  0  0  0  0  0  0  0  0
   46.2700   34.5110   41.2280 C   0  0  0  0  0  0  0  0  0  0  0  0
   46.1720   34.8250   42.6290 N   0  0  0  0  0  0  0  0  0  0  0  0
   45.0340   35.6960   42.7830 C   0  0  0  0  0  0  0  0  0  0  0  0
   44.4570   35.7290   44.1470 C   0  0  0  0  0  0  0  0  0  0  0  0
   45.3280   35.1410   45.0960 O   0  0  0  0  0  0  0  0  0  0  0  0
   45.3870   33.8290   44.7140 C   0  0  0  0  0  0  0  0  0  0  0  0
   46.2580   33.7260   43.5010 C   0  0  0  0  0  0  0  0  0  0  0  0
   45.7765   33.8732   36.7342 H   0  0  0  0  0  0  0  0  0  0  0  0
   49.4434   31.7300   37.7443 H   0  0  0  0  0  0  0  0  0  0  0  0
   46.5316   29.1690   35.3531 H   0  0  0  0  0  0  0  0  0  0  0  0
   45.0577   29.5402   33.0238 H   0  0  0  0  0  0  0  0  0  0  0  0
   45.0575   31.0955   33.2038 H   0  0  0  0  0  0  0  0  0  0  0  0
   47.7763   29.5105   32.4417 H   0  0  0  0  0  0  0  0  0  0  0  0
   50.1583   30.3286   33.1514 H   0  0  0  0  0  0  0  0  0  0  0  0
   50.9143   32.9162   32.7977 H   0  0  0  0  0  0  0  0  0  0  0  0
   48.6985   34.4100   32.5831 H   0  0  0  0  0  0  0  0  0  0  0  0
   48.3942   34.2168   41.4972 H   0  0  0  0  0  0  0  0  0  0  0  0
   47.9794   35.5025   40.3338 H   0  0  0  0  0  0  0  0  0  0  0  0
   45.6943   35.2597   40.6641 H   0  0  0  0  0  0  0  0  0  0  0  0
   45.8760   33.4919   41.1007 H   0  0  0  0  0  0  0  0  0  0  0  0
   45.3464   36.7171   42.5188 H   0  0  0  0  0  0  0  0  0  0  0  0
   44.2482   35.2983   42.1239 H   0  0  0  0  0  0  0  0  0  0  0  0
   44.2732   36.7755   44.4316 H   0  0  0  0  0  0  0  0  0  0  0  0
   43.5194   35.1538   44.1379 H   0  0  0  0  0  0  0  0  0  0  0  0
   45.8122   33.2242   45.5285 H   0  0  0  0  0  0  0  0  0  0  0  0
   44.3772   33.4573   44.4855 H   0  0  0  0  0  0  0  0  0  0  0  0
   45.9680   32.8223   42.9450 H   0  0  0  0  0  0  0  0  0  0  0  0
   47.2964   33.6927   43.8623 H   0  0  0  0  0  0  0  0  0  0  0  0
  1 17  1  0
  2  1  2  0
  3  4  2  0
  4  1  1  0
  5  4  1  0
  6  5  2  0
  7  8  2  0
  7  6  1  0
  8  3  1  0
  9  7  1  0
 10  9  1  0
 11 10  1  0
 11  9  1  0
 12 13  2  0
 12 11  1  0
 14 13  1  0
 15 16  1  0
 15 14  2  0
 16 12  1  0
 17 18  1  0
 18 19  1  0
 19 20  1  0
 20 21  1  0
 20 25  1  0
 21 22  1  0
 22 23  1  0
 24 23  1  0
 25 24  1  0
  3 26  1  0
  5 27  1  0
  9 28  1  1
 10 29  1  0
 10 30  1  0
 11 31  1  6
 13 32  1  0
 14 33  1  0
 15 34  1  0
 18 35  1  0
 18 36  1  0
 19 37  1  0
 19 38  1  0
 21 39  1  0
 21 40  1  0
 22 41  1  0
 22 42  1  0
 24 43  1  0
 24 44  1  0
 25 45  1  0
 25 46  1  0
M  ISO  8  26  14  27  14  28  13  29  13  30  13  31  13  32  14  33  14
M  ISO  8  34  14  35   8  36   8  37   8  38   8  39  13  40  13  41  13
M  ISO  5  42  13  43  13  44  13  45  13  46  13
M  END
>  <minimizedAffinity>  (1) 
-4.62460947

>  <minimizedRMSD>  (1) 
1.74395168

$$$$
