
     RDKit          3D

 45 48  0  0  1  0  0  0  0  0999 V2000
   48.0910   33.9230   38.7210 C   0  0  0  0  0  0  0  0  0  0  0  0
   48.6370   35.0010   38.4820 O   0  0  0  0  0  0  0  0  0  0  0  0
   46.3860   33.3520   36.9050 C   0  0  0  0  0  0  0  0  0  0  0  0
   47.4700   32.9940   37.7380 C   0  0  0  0  0  0  0  0  0  0  0  0
   48.0400   31.7060   37.6820 C   0  0  0  0  0  0  0  0  0  0  0  0
   47.4970   30.7990   36.7750 N   0  0  0  0  0  0  0  0  0  0  0  0
   46.4530   31.2260   36.0090 C   0  0  0  0  0  0  0  0  0  0  0  0
   45.9040   32.4520   36.0580 N   0  0  0  0  0  0  0  0  0  0  0  0
   45.8600   30.2320   35.0490 C   0  0  1  0  0  0  0  0  0  0  0  0
   45.2140   30.6850   33.8180 C   0  0  0  0  0  0  0  0  0  0  0  0
   46.5600   30.1100   33.6990 C   0  0  1  0  0  0  0  0  0  0  0  0
   47.7510   30.9410   33.4330 C   0  0  0  0  0  0  0  0  0  0  0  0
   49.1270   30.3860   33.5740 C   0  0  0  0  0  0  0  0  0  0  0  0
   50.1180   31.8880   33.1100 S   0  0  0  0  0  0  0  0  0  0  0  0
   48.5590   32.9330   32.8260 C   0  0  0  0  0  0  0  0  0  0  0  0
   47.6500   32.2210   33.0540 N   0  0  0  0  0  0  0  0  0  0  0  0
   48.0080   33.4570   40.0320 O   0  0  0  0  0  0  0  0  0  0  0  0
   48.0410   34.3410   41.1440 C   0  0  0  0  0  0  0  0  0  0  0  0
   46.6130   34.7130   41.4670 C   0  0  0  0  0  0  0  0  0  0  0  0
   46.3520   34.9540   42.8530 N   0  0  0  0  0  0  0  0  0  0  0  0
   45.1730   35.7820   42.9350 C   0  0  0  0  0  0  0  0  0  0  0  0
   44.4660   35.7300   44.2280 C   0  0  0  0  0  0  0  0  0  0  0  0
   45.2520   35.1050   45.2340 O   0  0  0  0  0  0  0  0  0  0  0  0
   45.3990   33.8190   44.7910 C   0  0  0  0  0  0  0  0  0  0  0  0
   46.3930   33.8170   43.6730 C   0  0  0  0  0  0  0  0  0  0  0  0
   45.9492   34.3602   36.9581 H   0  0  0  0  0  0  0  0  0  0  0  0
   48.8832   31.4272   38.3311 H   0  0  0  0  0  0  0  0  0  0  0  0
   45.5512   29.5633   35.8660 H   0  0  0  0  0  0  0  0  0  0  0  0
   44.3504   30.1300   33.4229 H   0  0  0  0  0  0  0  0  0  0  0  0
   44.7618   31.6363   33.5011 H   0  0  0  0  0  0  0  0  0  0  0  0
   47.0012   29.3076   33.0895 H   0  0  0  0  0  0  0  0  0  0  0  0
   49.4595   29.3794   33.8675 H   0  0  0  0  0  0  0  0  0  0  0  0
   48.5144   33.9866   32.5129 H   0  0  0  0  0  0  0  0  0  0  0  0
   48.5042   33.8417   42.0078 H   0  0  0  0  0  0  0  0  0  0  0  0
   48.6329   35.2381   40.9099 H   0  0  0  0  0  0  0  0  0  0  0  0
   46.3633   35.6271   40.9083 H   0  0  0  0  0  0  0  0  0  0  0  0
   45.9969   33.8471   41.1831 H   0  0  0  0  0  0  0  0  0  0  0  0
   45.4740   36.8241   42.7519 H   0  0  0  0  0  0  0  0  0  0  0  0
   44.4702   35.3930   42.1835 H   0  0  0  0  0  0  0  0  0  0  0  0
   44.2302   36.7561   44.5465 H   0  0  0  0  0  0  0  0  0  0  0  0
   43.5490   35.1377   44.0930 H   0  0  0  0  0  0  0  0  0  0  0  0
   45.7612   33.1822   45.6116 H   0  0  0  0  0  0  0  0  0  0  0  0
   44.4332   33.4269   44.4396 H   0  0  0  0  0  0  0  0  0  0  0  0
   46.2015   32.9342   43.0453 H   0  0  0  0  0  0  0  0  0  0  0  0
   47.3884   33.8060   44.1410 H   0  0  0  0  0  0  0  0  0  0  0  0
  1 17  1  0
  2  1  2  0
  3  4  2  0
  4  1  1  0
  5  4  1  0
  6  5  2  0
  7  8  2  0
  7  6  1  0
  8  3  1  0
  9  7  1  0
 10  9  1  0
 11 10  1  0
 11  9  1  0
 12 13  2  0
 12 11  1  0
 14 13  1  0
 15 16  2  0
 15 14  1  0
 16 12  1  0
 17 18  1  0
 18 19  1  0
 19 20  1  0
 20 21  1  0
 20 25  1  0
 21 22  1  0
 22 23  1  0
 24 23  1  0
 25 24  1  0
  3 26  1  0
  5 27  1  0
  9 28  1  1
 10 29  1  0
 10 30  1  0
 11 31  1  6
 13 32  1  0
 15 33  1  0
 18 34  1  0
 18 35  1  0
 19 36  1  0
 19 37  1  0
 21 38  1  0
 21 39  1  0
 22 40  1  0
 22 41  1  0
 24 42  1  0
 24 43  1  0
 25 44  1  0
 25 45  1  0
M  ISO  8  26  14  27  14  28  13  29  13  30  13  31  13  32  14  33  14
M  ISO  8  34   8  35   8  36   8  37   8  38  13  39  13  40  13  41  13
M  ISO  4  42  13  43  13  44  13  45  13
M  END
>  <minimizedAffinity>  (1) 
-4.44626522

>  <minimizedRMSD>  (1) 
1.6596384

$$$$
