
     RDKit          3D

 31 34  0  0  1  0  0  0  0  0999 V2000
   47.1340   34.5080   41.7930 C   0  0  1  0  0  0  0  0  0  0  0  0
   48.3890   35.3890   41.7220 C   0  0  0  0  0  0  0  0  0  0  0  0
   48.4630   33.9100   41.9510 C   0  0  2  0  0  0  0  0  0  0  0  0
   49.0430   33.0920   40.9020 N   0  0  0  0  0  0  0  0  0  0  0  0
   50.0980   32.2910   41.0800 C   0  0  0  0  0  0  0  0  0  0  0  0
   50.3300   31.7070   39.8770 N   0  0  0  0  0  0  0  0  0  0  0  0
   49.4390   32.1300   38.9650 C   0  0  0  0  0  0  0  0  0  0  0  0
   49.1910   31.8890   37.6220 C   0  0  0  0  0  0  0  0  0  0  0  0
   49.9370   31.0850   37.0270 O   0  0  0  0  0  0  0  0  0  0  0  0
   48.1620   32.5360   37.0470 N   0  0  0  0  0  0  0  0  0  0  0  0
   47.3480   33.4060   37.6750 C   0  0  0  0  0  0  0  0  0  0  0  0
   46.2730   34.0620   37.0140 N   0  0  0  0  0  0  0  0  0  0  0  0
   47.5920   33.6430   38.9950 N   0  0  0  0  0  0  0  0  0  0  0  0
   48.6160   33.0190   39.6270 C   0  0  0  0  0  0  0  0  0  0  0  0
   44.6290   36.1080   44.0710 C   0  0  0  0  0  0  0  0  0  0  0  0
   45.4380   35.8750   42.9450 C   0  0  0  0  0  0  0  0  0  0  0  0
   46.2810   34.7790   42.9900 C   0  0  0  0  0  0  0  0  0  0  0  0
   46.2840   33.9860   44.1180 N   0  0  0  0  0  0  0  0  0  0  0  0
   45.4950   34.2410   45.1760 C   0  0  0  0  0  0  0  0  0  0  0  0
   44.6720   35.2980   45.1480 N   0  0  0  0  0  0  0  0  0  0  0  0
   46.2776   34.2501   41.1527 H   0  0  0  0  0  0  0  0  0  0  0  0
   48.7123   35.8201   40.7630 H   0  0  0  0  0  0  0  0  0  0  0  0
   48.7539   36.2884   42.2396 H   0  0  0  0  0  0  0  0  0  0  0  0
   48.8993   33.2581   42.7222 H   0  0  0  0  0  0  0  0  0  0  0  0
   50.6628   32.1366   42.0112 H   0  0  0  0  0  0  0  0  0  0  0  0
   47.9825   32.3521   36.0496 H   0  0  0  0  0  0  0  0  0  0  0  0
   45.6745   34.7205   37.5327 H   0  0  0  0  0  0  0  0  0  0  0  0
   46.0930   33.8786   36.0166 H   0  0  0  0  0  0  0  0  0  0  0  0
   43.9459   36.9702   44.0734 H   0  0  0  0  0  0  0  0  0  0  0  0
   45.4022   36.5356   42.0662 H   0  0  0  0  0  0  0  0  0  0  0  0
   45.5248   33.5860   46.0592 H   0  0  0  0  0  0  0  0  0  0  0  0
  1  3  1  0
  1 17  1  0
  2  1  1  0
  2  3  1  0
  4  5  1  0
  4  3  1  0
  6  5  2  0
  7 14  2  0
  7  6  1  0
  8  7  1  0
  9  8  2  0
 10  8  1  0
 10 11  1  0
 11 13  2  0
 12 11  1  0
 13 14  1  0
 14  4  1  0
 15 20  2  0
 16 17  2  0
 16 15  1  0
 17 18  1  0
 18 19  2  0
 20 19  1  0
  1 21  1  6
  2 22  1  0
  2 23  1  0
  3 24  1  1
  5 25  1  0
 10 26  1  0
 12 27  1  0
 12 28  1  0
 15 29  1  0
 16 30  1  0
 19 31  1  0
M  ISO  8  21  13  22  13  23  13  24  13  25  14  26   9  29  14  30  14
M  ISO  1  31  14
M  END
>  <minimizedAffinity>  (1) 
-5.75303936

>  <minimizedRMSD>  (1) 
0.877279282

$$$$
