
     RDKit          3D

 42 44  0  0  1  0  0  0  0  0999 V2000
   47.9950   34.5860   40.4560 C   0  0  0  0  0  0  0  0  0  0  0  0
   46.5970   34.3980   40.9960 C   0  0  0  0  0  0  0  0  0  0  0  0
   46.4930   34.4350   42.4270 N   0  0  0  0  0  0  0  0  0  0  0  0
   45.5080   35.4300   42.7620 C   0  0  0  0  0  0  0  0  0  0  0  0
   44.9240   35.3020   44.1110 C   0  0  0  0  0  0  0  0  0  0  0  0
   45.6450   34.3860   44.9120 O   0  0  0  0  0  0  0  0  0  0  0  0
   45.4890   33.1890   44.2690 C   0  0  0  0  0  0  0  0  0  0  0  0
   46.3670   33.1820   43.0570 C   0  0  0  0  0  0  0  0  0  0  0  0
   48.2010   33.6260   39.4330 O   0  0  0  0  0  0  0  0  0  0  0  0
   48.0550   33.9490   38.0830 C   0  0  0  0  0  0  0  0  0  0  0  0
   48.6400   34.9250   37.6180 O   0  0  0  0  0  0  0  0  0  0  0  0
   45.7730   33.2330   37.1800 C   0  0  0  0  0  0  0  0  0  0  0  0
   47.1560   33.0080   37.3600 C   0  0  0  0  0  0  0  0  0  0  0  0
   47.7820   31.8500   36.8490 C   0  0  0  0  0  0  0  0  0  0  0  0
   46.9860   30.9380   36.1620 N   0  0  0  0  0  0  0  0  0  0  0  0
   45.6550   31.2360   36.0340 C   0  0  0  0  0  0  0  0  0  0  0  0
   45.0540   32.3370   36.5190 N   0  0  0  0  0  0  0  0  0  0  0  0
   44.8140   30.2200   35.3030 C   0  0  1  0  0  0  0  0  0  0  0  0
   43.5370   30.6110   34.7120 C   0  0  0  0  0  0  0  0  0  0  0  0
   44.6780   30.4630   33.7880 C   0  0  2  0  0  0  0  0  0  0  0  0
   44.9070   29.2120   32.9710 C   0  0  0  0  0  0  0  0  0  0  0  0
   48.1030   35.6001   40.0438 H   0  0  0  0  0  0  0  0  0  0  0  0
   48.7360   34.4552   41.2584 H   0  0  0  0  0  0  0  0  0  0  0  0
   45.9619   35.1972   40.5862 H   0  0  0  0  0  0  0  0  0  0  0  0
   46.2801   33.3903   40.6891 H   0  0  0  0  0  0  0  0  0  0  0  0
   45.9839   36.4190   42.6889 H   0  0  0  0  0  0  0  0  0  0  0  0
   44.6779   35.2905   42.0539 H   0  0  0  0  0  0  0  0  0  0  0  0
   44.9362   36.2877   44.5990 H   0  0  0  0  0  0  0  0  0  0  0  0
   43.8959   34.9260   44.0036 H   0  0  0  0  0  0  0  0  0  0  0  0
   45.7773   32.3669   44.9406 H   0  0  0  0  0  0  0  0  0  0  0  0
   44.4380   33.0546   43.9734 H   0  0  0  0  0  0  0  0  0  0  0  0
   45.9459   32.4716   42.3304 H   0  0  0  0  0  0  0  0  0  0  0  0
   47.3734   32.8976   43.3980 H   0  0  0  0  0  0  0  0  0  0  0  0
   45.2990   34.1401   37.5832 H   0  0  0  0  0  0  0  0  0  0  0  0
   48.8590   31.6751   36.9887 H   0  0  0  0  0  0  0  0  0  0  0  0
   45.1151   29.4026   35.9748 H   0  0  0  0  0  0  0  0  0  0  0  0
   42.7131   29.8831   34.6746 H   0  0  0  0  0  0  0  0  0  0  0  0
   42.8261   31.4257   34.9141 H   0  0  0  0  0  0  0  0  0  0  0  0
   45.0726   31.1177   32.9970 H   0  0  0  0  0  0  0  0  0  0  0  0
   45.0635   28.3572   33.6454 H   0  0  0  0  0  0  0  0  0  0  0  0
   44.0286   29.0225   32.3365 H   0  0  0  0  0  0  0  0  0  0  0  0
   45.7955   29.3460   32.3365 H   0  0  0  0  0  0  0  0  0  0  0  0
  1  2  1  0
  2  3  1  0
  3  4  1  0
  3  8  1  0
  4  5  1  0
  5  6  1  0
  7  6  1  0
  8  7  1  0
  9  1  1  0
 10  9  1  0
 11 10  2  0
 12 13  2  0
 13 10  1  0
 14 13  1  0
 15 14  2  0
 16 15  1  0
 16 17  2  0
 17 12  1  0
 18 16  1  0
 19 18  1  0
 20 19  1  0
 20 18  1  0
 21 20  1  0
  1 22  1  0
  1 23  1  0
  2 24  1  0
  2 25  1  0
  4 26  1  0
  4 27  1  0
  5 28  1  0
  5 29  1  0
  7 30  1  0
  7 31  1  0
  8 32  1  0
  8 33  1  0
 12 34  1  0
 14 35  1  0
 18 36  1  6
 19 37  1  0
 19 38  1  0
 20 39  1  6
 21 40  1  0
 21 41  1  0
 21 42  1  0
M  ISO  8  22   8  23   8  24   8  25   8  26  13  27  13  28  13  29  13
M  ISO  8  30  13  31  13  32  13  33  13  34  14  35  14  36  13  37  13
M  ISO  5  38  13  39  13  40   8  41   8  42   8
M  END
>  <minimizedAffinity>  (1) 
-3.98810482

>  <minimizedRMSD>  (1) 
0.0321039744

$$$$
