
     RDKit          3D

 21 22  0  0  0  0  0  0  0  0999 V2000
   46.7610   34.7920   42.0480 N   0  0  0  0  0  0  0  0  0  0  0  0
   47.9930   35.3510   41.9220 C   0  0  0  0  0  0  0  0  0  0  0  0
   48.6700   35.1970   40.7200 C   0  0  0  0  0  0  0  0  0  0  0  0
   48.0400   34.4780   39.7230 C   0  0  0  0  0  0  0  0  0  0  0  0
   48.6450   34.2610   38.4560 N   0  0  0  0  0  0  0  0  0  0  0  0
   46.8170   33.9370   39.8810 N   0  0  0  0  0  0  0  0  0  0  0  0
   46.1470   34.0860   41.0620 C   0  0  0  0  0  0  0  0  0  0  0  0
   45.0030   33.5900   41.2350 O   0  0  0  0  0  0  0  0  0  0  0  0
   44.4760   35.9740   44.7710 C   0  0  0  0  0  0  0  0  0  0  0  0
   45.1340   35.9620   43.5310 C   0  0  0  0  0  0  0  0  0  0  0  0
   46.0290   34.9250   43.2640 C   0  0  0  0  0  0  0  0  0  0  0  0
   46.2200   33.9660   44.2260 N   0  0  0  0  0  0  0  0  0  0  0  0
   45.5670   34.0130   45.4090 C   0  0  0  0  0  0  0  0  0  0  0  0
   44.6980   35.0160   45.6760 N   0  0  0  0  0  0  0  0  0  0  0  0
   48.4436   35.9127   42.7535 H   0  0  0  0  0  0  0  0  0  0  0  0
   49.6693   35.6307   40.5674 H   0  0  0  0  0  0  0  0  0  0  0  0
   49.5807   34.6442   38.2597 H   0  0  0  0  0  0  0  0  0  0  0  0
   48.1479   33.7205   37.7337 H   0  0  0  0  0  0  0  0  0  0  0  0
   43.7676   36.7835   45.0010 H   0  0  0  0  0  0  0  0  0  0  0  0
   44.9486   36.7512   42.7875 H   0  0  0  0  0  0  0  0  0  0  0  0
   45.7434   33.2296   46.1608 H   0  0  0  0  0  0  0  0  0  0  0  0
  1 11  1  0
  2  1  1  0
  3  2  2  0
  4  6  2  0
  4  3  1  0
  5  4  1  0
  6  7  1  0
  7  8  2  0
  7  1  1  0
  9 14  2  0
 10  9  1  0
 11 10  2  0
 11 12  1  0
 12 13  2  0
 13 14  1  0
  2 15  1  0
  3 16  1  0
  5 17  1  0
  5 18  1  0
  9 19  1  0
 10 20  1  0
 13 21  1  0
M  ISO  5  15  14  16  14  19  14  20  14  21  14
M  END
>  <minimizedAffinity>  (1) 
-5.09502029

>  <minimizedRMSD>  (1) 
1.21401823

$$$$
