
     RDKit          3D

 31 34  0  0  1  0  0  0  0  0999 V2000
   45.8450   34.5000   41.5430 C   0  0  1  0  0  0  0  0  0  0  0  0
   46.0300   33.0350   41.1430 C   0  0  0  0  0  0  0  0  0  0  0  0
   44.9110   33.8680   40.6010 C   0  0  1  0  0  0  0  0  0  0  0  0
   43.5560   33.4430   41.0420 C   0  0  0  0  0  0  0  0  0  0  0  0
   43.0590   32.4090   41.8360 C   0  0  0  0  0  0  0  0  0  0  0  0
   41.7310   32.4980   41.9020 N   0  0  0  0  0  0  0  0  0  0  0  0
   41.3300   33.5510   41.1840 C   0  0  0  0  0  0  0  0  0  0  0  0
   40.0540   34.0510   40.9500 C   0  0  0  0  0  0  0  0  0  0  0  0
   39.8400   35.1520   40.1790 C   0  0  0  0  0  0  0  0  0  0  0  0
   40.9430   35.7700   39.6250 C   0  0  0  0  0  0  0  0  0  0  0  0
   42.2120   35.2760   39.8550 C   0  0  0  0  0  0  0  0  0  0  0  0
   42.4480   34.1590   40.6360 C   0  0  0  0  0  0  0  0  0  0  0  0
   45.4980   33.9830   45.2370 C   0  0  0  0  0  0  0  0  0  0  0  0
   45.8550   33.7410   43.8860 C   0  0  0  0  0  0  0  0  0  0  0  0
   45.4670   34.6980   42.9690 C   0  0  0  0  0  0  0  0  0  0  0  0
   44.7710   35.8080   43.3970 N   0  0  0  0  0  0  0  0  0  0  0  0
   44.4560   35.9890   44.7010 C   0  0  0  0  0  0  0  0  0  0  0  0
   44.8140   35.0870   45.6150 N   0  0  0  0  0  0  0  0  0  0  0  0
   46.4192   35.4373   41.5015 H   0  0  0  0  0  0  0  0  0  0  0  0
   46.8664   32.7382   40.4932 H   0  0  0  0  0  0  0  0  0  0  0  0
   46.1134   32.0762   41.6757 H   0  0  0  0  0  0  0  0  0  0  0  0
   44.5511   34.1823   39.6102 H   0  0  0  0  0  0  0  0  0  0  0  0
   43.6691   31.6392   42.3311 H   0  0  0  0  0  0  0  0  0  0  0  0
   41.1136   31.8585   42.4223 H   0  0  0  0  0  0  0  0  0  0  0  0
   39.1906   33.5409   41.4020 H   0  0  0  0  0  0  0  0  0  0  0  0
   38.8241   35.5357   40.0036 H   0  0  0  0  0  0  0  0  0  0  0  0
   40.8102   36.6624   38.9958 H   0  0  0  0  0  0  0  0  0  0  0  0
   43.0698   35.7917   39.3986 H   0  0  0  0  0  0  0  0  0  0  0  0
   45.7870   33.2484   46.0030 H   0  0  0  0  0  0  0  0  0  0  0  0
   46.4104   32.8405   43.5850 H   0  0  0  0  0  0  0  0  0  0  0  0
   43.9004   36.8871   45.0088 H   0  0  0  0  0  0  0  0  0  0  0  0
  1 15  1  0
  2  1  1  0
  3  4  1  0
  3  2  1  0
  3  1  1  0
  4  5  2  0
  5  6  1  0
  7  6  1  0
  8  7  2  0
  9  8  1  0
 10 11  1  0
 10  9  2  0
 11 12  2  0
 12  4  1  0
 12  7  1  0
 13 18  2  0
 14 13  1  0
 15 16  1  0
 15 14  2  0
 16 17  2  0
 17 18  1  0
  1 19  1  6
  2 20  1  0
  2 21  1  0
  3 22  1  6
  5 23  1  0
  6 24  1  0
  8 25  1  0
  9 26  1  0
 10 27  1  0
 11 28  1  0
 13 29  1  0
 14 30  1  0
 17 31  1  0
M  ISO  8  19  13  20  13  21  13  22  13  23  14  24   9  25  14  26  14
M  ISO  5  27  14  28  14  29  14  30  14  31  14
M  END
>  <minimizedAffinity>  (1) 
-5.57735586

>  <minimizedRMSD>  (1) 
7.13712931

$$$$
