
     RDKit          3D

 35 37  0  0  0  0  0  0  0  0999 V2000
   44.5010   35.9820   44.7910 C   0  0  0  0  0  0  0  0  0  0  0  0
   45.1540   35.9670   43.5500 C   0  0  0  0  0  0  0  0  0  0  0  0
   46.0320   34.9250   43.2620 C   0  0  0  0  0  0  0  0  0  0  0  0
   46.2120   33.9600   44.2150 N   0  0  0  0  0  0  0  0  0  0  0  0
   45.5640   34.0090   45.4000 C   0  0  0  0  0  0  0  0  0  0  0  0
   44.7130   35.0070   45.6940 N   0  0  0  0  0  0  0  0  0  0  0  0
   45.7720   32.9910   46.3710 N   0  0  0  0  0  0  0  0  0  0  0  0
   45.0930   33.0110   47.6510 C   0  0  0  0  0  0  0  0  0  0  0  0
   45.0490   31.6750   48.3110 C   0  0  0  0  0  0  0  0  0  0  0  0
   45.0630   30.5560   47.4460 N   0  0  0  0  0  0  0  0  0  0  0  0
   45.8530   30.6290   46.2730 C   0  0  0  0  0  0  0  0  0  0  0  0
   46.6730   31.8780   46.1330 C   0  0  0  0  0  0  0  0  0  0  0  0
   46.7520   34.7950   42.0500 N   0  0  0  0  0  0  0  0  0  0  0  0
   48.0000   35.3410   41.9250 C   0  0  0  0  0  0  0  0  0  0  0  0
   48.6760   35.1960   40.7260 C   0  0  0  0  0  0  0  0  0  0  0  0
   48.0320   34.4960   39.7170 C   0  0  0  0  0  0  0  0  0  0  0  0
   48.6440   34.2970   38.4570 N   0  0  0  0  0  0  0  0  0  0  0  0
   46.8110   33.9760   39.8760 N   0  0  0  0  0  0  0  0  0  0  0  0
   46.1350   34.1160   41.0600 C   0  0  0  0  0  0  0  0  0  0  0  0
   44.9830   33.6310   41.2250 O   0  0  0  0  0  0  0  0  0  0  0  0
   43.8067   36.8012   45.0293 H   0  0  0  0  0  0  0  0  0  0  0  0
   44.9755   36.7660   42.8153 H   0  0  0  0  0  0  0  0  0  0  0  0
   45.6190   33.7124   48.3153 H   0  0  0  0  0  0  0  0  0  0  0  0
   44.0535   33.3196   47.4659 H   0  0  0  0  0  0  0  0  0  0  0  0
   45.9229   31.5984   48.9747 H   0  0  0  0  0  0  0  0  0  0  0  0
   44.0821   31.6339   48.8339 H   0  0  0  0  0  0  0  0  0  0  0  0
   45.4010   29.7512   47.9927 H   0  0  0  0  0  0  0  0  0  0  0  0
   46.5391   29.7692   46.2704 H   0  0  0  0  0  0  0  0  0  0  0  0
   45.1477   30.6301   45.4289 H   0  0  0  0  0  0  0  0  0  0  0  0
   47.4871   31.8831   46.8728 H   0  0  0  0  0  0  0  0  0  0  0  0
   47.1313   31.9434   45.1352 H   0  0  0  0  0  0  0  0  0  0  0  0
   48.4585   35.8861   42.7632 H   0  0  0  0  0  0  0  0  0  0  0  0
   49.6812   35.6180   40.5797 H   0  0  0  0  0  0  0  0  0  0  0  0
   49.5849   34.6750   38.2760 H   0  0  0  0  0  0  0  0  0  0  0  0
   48.1486   33.7742   37.7207 H   0  0  0  0  0  0  0  0  0  0  0  0
  1  6  2  0
  2  1  1  0
  3  2  2  0
  3  4  1  0
  4  5  2  0
  5  6  1  0
  5  7  1  0
  7  8  1  0
  8  9  1  0
 10  9  1  0
 11 10  1  0
 12 11  1  0
 12  7  1  0
 13  3  1  0
 14 13  1  0
 15 14  2  0
 16 18  2  0
 16 15  1  0
 17 16  1  0
 18 19  1  0
 19 20  2  0
 19 13  1  0
  1 21  1  0
  2 22  1  0
  8 23  1  0
  8 24  1  0
  9 25  1  0
  9 26  1  0
 10 27  1  0
 11 28  1  0
 11 29  1  0
 12 30  1  0
 12 31  1  0
 14 32  1  0
 15 33  1  0
 17 34  1  0
 17 35  1  0
M  ISO  8  21  14  22  14  23  13  24  13  25  13  26  13  27   5  28  13
M  ISO  5  29  13  30  13  31  13  32  14  33  14
M  END
>  <minimizedAffinity>  (1) 
-6.92660713

>  <minimizedRMSD>  (1) 
0.0308850016

$$$$
