
     RDKit          3D

 35 38  0  0  0  0  0  0  0  0999 V2000
   44.5240   36.2440   44.5610 C   0  0  0  0  0  0  0  0  0  0  0  0
   45.2050   36.1510   43.3490 C   0  0  0  0  0  0  0  0  0  0  0  0
   46.0380   35.0640   43.1060 C   0  0  0  0  0  0  0  0  0  0  0  0
   46.1560   34.1160   44.0840 N   0  0  0  0  0  0  0  0  0  0  0  0
   45.4850   34.2320   45.2520 C   0  0  0  0  0  0  0  0  0  0  0  0
   44.6780   35.2820   45.4890 N   0  0  0  0  0  0  0  0  0  0  0  0
   45.5880   33.2600   46.2890 N   0  0  0  0  0  0  0  0  0  0  0  0
   44.9420   33.3250   47.4750 C   0  0  0  0  0  0  0  0  0  0  0  0
   45.3070   32.2150   48.1760 N   0  0  0  0  0  0  0  0  0  0  0  0
   46.1580   31.5020   47.4160 C   0  0  0  0  0  0  0  0  0  0  0  0
   46.8110   30.3040   47.6610 C   0  0  0  0  0  0  0  0  0  0  0  0
   46.6950   29.6480   48.7270 O   0  0  0  0  0  0  0  0  0  0  0  0
   47.5990   29.8750   46.6590 N   0  0  0  0  0  0  0  0  0  0  0  0
   47.8070   30.4820   45.4770 C   0  0  0  0  0  0  0  0  0  0  0  0
   48.6760   29.8880   44.5270 N   0  0  0  0  0  0  0  0  0  0  0  0
   47.1620   31.6620   45.2390 N   0  0  0  0  0  0  0  0  0  0  0  0
   46.3520   32.1460   46.2100 C   0  0  0  0  0  0  0  0  0  0  0  0
   46.7760   34.8710   41.9080 N   0  0  0  0  0  0  0  0  0  0  0  0
   48.0200   35.3770   41.7640 C   0  0  0  0  0  0  0  0  0  0  0  0
   48.6990   35.1590   40.5730 C   0  0  0  0  0  0  0  0  0  0  0  0
   48.0610   34.4300   39.5900 C   0  0  0  0  0  0  0  0  0  0  0  0
   48.6540   34.1470   38.3410 N   0  0  0  0  0  0  0  0  0  0  0  0
   46.8130   33.9340   39.7590 N   0  0  0  0  0  0  0  0  0  0  0  0
   46.1460   34.1490   40.9350 C   0  0  0  0  0  0  0  0  0  0  0  0
   44.9810   33.6940   41.1090 O   0  0  0  0  0  0  0  0  0  0  0  0
   43.8629   37.1007   44.7584 H   0  0  0  0  0  0  0  0  0  0  0  0
   45.0842   36.9348   42.5867 H   0  0  0  0  0  0  0  0  0  0  0  0
   44.2565   34.1181   47.8084 H   0  0  0  0  0  0  0  0  0  0  0  0
   48.0965   28.9864   46.8134 H   0  0  0  0  0  0  0  0  0  0  0  0
   48.8393   30.3481   43.6200 H   0  0  0  0  0  0  0  0  0  0  0  0
   49.1440   28.9964   44.7439 H   0  0  0  0  0  0  0  0  0  0  0  0
   48.4873   35.9522   42.5769 H   0  0  0  0  0  0  0  0  0  0  0  0
   49.7135   35.5548   40.4176 H   0  0  0  0  0  0  0  0  0  0  0  0
   49.6030   34.4886   38.1323 H   0  0  0  0  0  0  0  0  0  0  0  0
   48.1378   33.5989   37.6382 H   0  0  0  0  0  0  0  0  0  0  0  0
  1  6  2  0
  2  1  1  0
  3  2  2  0
  3  4  1  0
  4  5  2  0
  5  6  1  0
  5  7  1  0
  7  8  1  0
  8  9  2  0
 10 11  1  0
 10  9  1  0
 11 12  2  0
 13 11  1  0
 14 13  1  0
 15 14  1  0
 16 14  2  0
 16 17  1  0
 17  7  1  0
 17 10  2  0
 18  3  1  0
 19 18  1  0
 20 19  2  0
 21 23  2  0
 21 20  1  0
 22 21  1  0
 23 24  1  0
 24 25  2  0
 24 18  1  0
  1 26  1  0
  2 27  1  0
  8 28  1  0
 13 29  1  0
 15 30  1  0
 15 31  1  0
 19 32  1  0
 20 33  1  0
 22 34  1  0
 22 35  1  0
M  ISO  6  26  14  27  14  28  14  29   9  32  14  33  14
M  END
>  <minimizedAffinity>  (1) 
-6.90826559

>  <minimizedRMSD>  (1) 
0.28109479

$$$$
