
     RDKit          3D

 30 32  0  0  0  0  0  0  0  0999 V2000
   44.4520   35.8630   44.8410 C   0  0  0  0  0  0  0  0  0  0  0  0
   45.0970   35.8570   43.5990 C   0  0  0  0  0  0  0  0  0  0  0  0
   46.0510   34.8880   43.3280 C   0  0  0  0  0  0  0  0  0  0  0  0
   46.3240   33.9630   44.3100 N   0  0  0  0  0  0  0  0  0  0  0  0
   45.6830   33.9950   45.5020 C   0  0  0  0  0  0  0  0  0  0  0  0
   44.7550   34.9440   45.7560 N   0  0  0  0  0  0  0  0  0  0  0  0
   46.7760   34.7680   42.1120 N   0  0  0  0  0  0  0  0  0  0  0  0
   47.9980   35.3330   41.9730 C   0  0  0  0  0  0  0  0  0  0  0  0
   48.6580   35.1810   40.7590 C   0  0  0  0  0  0  0  0  0  0  0  0
   48.0270   34.4640   39.7710 C   0  0  0  0  0  0  0  0  0  0  0  0
   48.6310   34.2620   38.5040 N   0  0  0  0  0  0  0  0  0  0  0  0
   46.8190   33.9180   39.9390 N   0  0  0  0  0  0  0  0  0  0  0  0
   46.1560   34.0580   41.1240 C   0  0  0  0  0  0  0  0  0  0  0  0
   45.0140   33.5490   41.3030 O   0  0  0  0  0  0  0  0  0  0  0  0
   45.9910   33.0030   46.5270 C   0  0  0  0  0  0  0  0  0  0  0  0
   45.1970   32.9180   47.6530 C   0  0  0  0  0  0  0  0  0  0  0  0
   45.4900   31.9740   48.6260 C   0  0  0  0  0  0  0  0  0  0  0  0
   46.5830   31.1600   48.4060 C   0  0  0  0  0  0  0  0  0  0  0  0
   47.3860   31.2370   47.2800 C   0  0  0  0  0  0  0  0  0  0  0  0
   47.0450   32.1740   46.3770 N   0  0  0  0  0  0  0  0  0  0  0  0
   43.6933   36.6283   45.0619 H   0  0  0  0  0  0  0  0  0  0  0  0
   44.8487   36.6161   42.8427 H   0  0  0  0  0  0  0  0  0  0  0  0
   48.4566   35.8973   42.7984 H   0  0  0  0  0  0  0  0  0  0  0  0
   49.6530   35.6204   40.5946 H   0  0  0  0  0  0  0  0  0  0  0  0
   49.5622   34.6564   38.3086 H   0  0  0  0  0  0  0  0  0  0  0  0
   48.1385   33.7208   37.7791 H   0  0  0  0  0  0  0  0  0  0  0  0
   44.3382   33.5940   47.7777 H   0  0  0  0  0  0  0  0  0  0  0  0
   44.8773   31.8780   49.5345 H   0  0  0  0  0  0  0  0  0  0  0  0
   46.8305   30.4070   49.1687 H   0  0  0  0  0  0  0  0  0  0  0  0
   48.2501   30.5723   47.1331 H   0  0  0  0  0  0  0  0  0  0  0  0
  1  6  2  0
  2  1  1  0
  3  2  2  0
  3  4  1  0
  4  5  2  0
  5  6  1  0
  5 15  1  0
  7  3  1  0
  8  7  1  0
  9  8  2  0
 10 12  2  0
 10  9  1  0
 11 10  1  0
 12 13  1  0
 13 14  2  0
 13  7  1  0
 15 16  2  0
 16 17  1  0
 18 17  2  0
 19 18  1  0
 20 15  1  0
 20 19  2  0
  1 21  1  0
  2 22  1  0
  8 23  1  0
  9 24  1  0
 11 25  1  0
 11 26  1  0
 16 27  1  0
 17 28  1  0
 18 29  1  0
 19 30  1  0
M  ISO  8  21  14  22  14  23  14  24  14  27  14  28  14  29  14  30  14
M  END
>  <minimizedAffinity>  (1) 
-6.68922329

>  <minimizedRMSD>  (1) 
0.546381116

$$$$
