
     RDKit          3D

 34 36  0  0  0  0  0  0  0  0999 V2000
   44.8190   34.8710   45.1290 C   0  0  0  0  0  0  0  0  0  0  0  0
   45.3190   35.0840   43.8440 C   0  0  0  0  0  0  0  0  0  0  0  0
   46.4320   34.3590   43.4250 C   0  0  0  0  0  0  0  0  0  0  0  0
   46.9850   33.4660   44.3040 N   0  0  0  0  0  0  0  0  0  0  0  0
   46.4730   33.2880   45.5370 C   0  0  0  0  0  0  0  0  0  0  0  0
   45.3910   33.9920   45.9440 N   0  0  0  0  0  0  0  0  0  0  0  0
   47.0400   34.4840   42.1370 N   0  0  0  0  0  0  0  0  0  0  0  0
   48.1290   35.2940   41.9710 C   0  0  0  0  0  0  0  0  0  0  0  0
   48.6950   35.3950   40.7120 C   0  0  0  0  0  0  0  0  0  0  0  0
   48.1080   34.6580   39.7050 C   0  0  0  0  0  0  0  0  0  0  0  0
   48.6140   34.6910   38.3720 N   0  0  0  0  0  0  0  0  0  0  0  0
   47.0300   33.8670   39.9020 N   0  0  0  0  0  0  0  0  0  0  0  0
   46.4730   33.7680   41.1440 C   0  0  0  0  0  0  0  0  0  0  0  0
   45.4760   33.0450   41.3610 O   0  0  0  0  0  0  0  0  0  0  0  0
   48.2670   30.5100   48.0720 C   0  0  0  0  0  0  0  0  0  0  0  0
   47.9300   31.7320   48.5720 C   0  0  0  0  0  0  0  0  0  0  0  0
   47.3340   32.6770   47.7580 C   0  0  0  0  0  0  0  0  0  0  0  0
   47.1040   32.3180   46.4390 C   0  0  0  0  0  0  0  0  0  0  0  0
   47.4420   31.0830   45.9270 C   0  0  0  0  0  0  0  0  0  0  0  0
   48.0420   30.1330   46.7430 C   0  0  0  0  0  0  0  0  0  0  0  0
   49.0250   29.3400   49.1470 S   0  0  0  0  0  0  0  0  0  0  0  0
   50.2160   28.7470   48.4730 O   0  0  0  0  0  0  0  0  0  0  0  0
   49.5120   30.0320   50.3850 O   0  0  0  0  0  0  0  0  0  0  0  0
   43.9406   35.4378   45.4712 H   0  0  0  0  0  0  0  0  0  0  0  0
   44.8418   35.8129   43.1725 H   0  0  0  0  0  0  0  0  0  0  0  0
   48.5467   35.8539   42.8207 H   0  0  0  0  0  0  0  0  0  0  0  0
   49.5713   36.0327   40.5236 H   0  0  0  0  0  0  0  0  0  0  0  0
   49.4340   35.2721   38.1467 H   0  0  0  0  0  0  0  0  0  0  0  0
   48.1594   34.1337   37.6346 H   0  0  0  0  0  0  0  0  0  0  0  0
   48.1330   31.9673   49.6272 H   0  0  0  0  0  0  0  0  0  0  0  0
   47.0546   33.6700   48.1400 H   0  0  0  0  0  0  0  0  0  0  0  0
   47.2363   30.8503   44.8718 H   0  0  0  0  0  0  0  0  0  0  0  0
   48.3248   29.1392   46.3658 H   0  0  0  0  0  0  0  0  0  0  0  0
   48.1061   28.3737   49.4613 H   0  0  0  0  0  0  0  0  0  0  0  0
  1  6  2  0
  2  1  1  0
  3  2  2  0
  3  4  1  0
  4  5  2  0
  5  6  1  0
  5 18  1  0
  7  3  1  0
  8  7  1  0
  9  8  2  0
 10 12  2  0
 10  9  1  0
 11 10  1  0
 12 13  1  0
 13 14  2  0
 13  7  1  0
 15 16  2  0
 15 21  1  0
 17 16  1  0
 18 17  2  0
 19 18  1  0
 19 20  2  0
 20 15  1  0
 21 23  2  0
 22 21  2  0
  1 24  1  0
  2 25  1  0
  8 26  1  0
  9 27  1  0
 11 28  1  0
 11 29  1  0
 16 30  1  0
 17 31  1  0
 19 32  1  0
 20 33  1  0
 21 34  1  0
M  ISO  8  24  14  25  14  26  14  27  14  30  14  31  14  32  14  33  14
M  ISO  1  34  11
M  END
>  <minimizedAffinity>  (1) 
-5.95687103

>  <minimizedRMSD>  (1) 
1.47753453

$$$$
