
     RDKit          3D

 22 23  0  0  0  0  0  0  0  0999 V2000
   46.7660   34.8000   42.0210 N   0  0  0  0  0  0  0  0  0  0  0  0
   47.9900   35.3580   41.8940 C   0  0  0  0  0  0  0  0  0  0  0  0
   48.6660   35.1950   40.6910 C   0  0  0  0  0  0  0  0  0  0  0  0
   48.0360   34.4690   39.7030 C   0  0  0  0  0  0  0  0  0  0  0  0
   48.6570   34.2560   38.4510 N   0  0  0  0  0  0  0  0  0  0  0  0
   46.8190   33.9300   39.8710 N   0  0  0  0  0  0  0  0  0  0  0  0
   46.1410   34.0820   41.0480 C   0  0  0  0  0  0  0  0  0  0  0  0
   45.0010   33.5850   41.2260 O   0  0  0  0  0  0  0  0  0  0  0  0
   44.4630   35.9520   44.7510 C   0  0  0  0  0  0  0  0  0  0  0  0
   45.1160   35.9320   43.5140 C   0  0  0  0  0  0  0  0  0  0  0  0
   46.0350   34.9360   43.2360 C   0  0  0  0  0  0  0  0  0  0  0  0
   46.2630   33.9940   44.2210 N   0  0  0  0  0  0  0  0  0  0  0  0
   45.6170   34.0400   45.4080 C   0  0  0  0  0  0  0  0  0  0  0  0
   44.7170   35.0250   45.6650 N   0  0  0  0  0  0  0  0  0  0  0  0
   46.0600   32.7190   46.5500 S   0  0  0  0  0  0  0  0  0  0  0  0
   48.4396   35.9265   42.7214 H   0  0  0  0  0  0  0  0  0  0  0  0
   49.6647   35.6283   40.5333 H   0  0  0  0  0  0  0  0  0  0  0  0
   49.5919   34.6470   38.2667 H   0  0  0  0  0  0  0  0  0  0  0  0
   48.1745   33.7099   37.7231 H   0  0  0  0  0  0  0  0  0  0  0  0
   43.7316   36.7445   44.9678 H   0  0  0  0  0  0  0  0  0  0  0  0
   44.8992   36.7067   42.7638 H   0  0  0  0  0  0  0  0  0  0  0  0
   45.9120   33.1604   47.8385 H   0  0  0  0  0  0  0  0  0  0  0  0
  1 11  1  0
  2  1  1  0
  3  2  2  0
  4  6  2  0
  4  3  1  0
  5  4  1  0
  6  7  1  0
  7  8  2  0
  7  1  1  0
  9 14  2  0
 10  9  1  0
 11 10  2  0
 11 12  1  0
 12 13  2  0
 13 14  1  0
 13 15  1  0
  2 16  1  0
  3 17  1  0
  5 18  1  0
  5 19  1  0
  9 20  1  0
 10 21  1  0
 15 22  1  0
M  ISO  5  16  14  17  14  20  14  21  14  22  11
M  END
>  <minimizedAffinity>  (1) 
-5.43245459

>  <minimizedRMSD>  (1) 
0.0431168564

$$$$
