
     RDKit          3D

 29 31  0  0  0  0  0  0  0  0999 V2000
   44.4240   35.6670   45.0320 C   0  0  0  0  0  0  0  0  0  0  0  0
   45.0640   35.5520   43.7930 C   0  0  0  0  0  0  0  0  0  0  0  0
   46.0020   34.5490   43.5790 C   0  0  0  0  0  0  0  0  0  0  0  0
   46.2460   33.7130   44.6290 N   0  0  0  0  0  0  0  0  0  0  0  0
   45.6220   33.8370   45.8120 C   0  0  0  0  0  0  0  0  0  0  0  0
   44.7200   34.8010   46.0190 N   0  0  0  0  0  0  0  0  0  0  0  0
   45.8850   32.9530   46.9070 N   0  0  0  0  0  0  0  0  0  0  0  0
   45.3530   32.6760   48.0760 N   0  0  0  0  0  0  0  0  0  0  0  0
   46.0440   31.7230   48.6930 C   0  0  0  0  0  0  0  0  0  0  0  0
   47.0950   31.3580   47.8690 C   0  0  0  0  0  0  0  0  0  0  0  0
   46.9760   32.1570   46.7310 C   0  0  0  0  0  0  0  0  0  0  0  0
   46.7080   34.3440   42.3610 N   0  0  0  0  0  0  0  0  0  0  0  0
   47.6130   35.2860   41.9520 C   0  0  0  0  0  0  0  0  0  0  0  0
   48.2810   35.0450   40.7520 C   0  0  0  0  0  0  0  0  0  0  0  0
   47.9800   33.8790   40.0720 C   0  0  0  0  0  0  0  0  0  0  0  0
   48.6070   33.5410   38.8360 N   0  0  0  0  0  0  0  0  0  0  0  0
   47.0700   32.9740   40.5240 N   0  0  0  0  0  0  0  0  0  0  0  0
   46.4210   33.2140   41.6970 C   0  0  0  0  0  0  0  0  0  0  0  0
   45.5720   32.3940   42.1410 O   0  0  0  0  0  0  0  0  0  0  0  0
   49.2110   35.9210   40.2420 O   0  0  0  0  0  0  0  0  0  0  0  0
   43.6821   36.4618   45.1987 H   0  0  0  0  0  0  0  0  0  0  0  0
   44.8237   36.2585   42.9848 H   0  0  0  0  0  0  0  0  0  0  0  0
   45.8204   31.2992   49.6832 H   0  0  0  0  0  0  0  0  0  0  0  0
   47.8635   30.5970   48.0695 H   0  0  0  0  0  0  0  0  0  0  0  0
   47.6403   32.1459   45.8543 H   0  0  0  0  0  0  0  0  0  0  0  0
   47.8048   36.1931   42.5439 H   0  0  0  0  0  0  0  0  0  0  0  0
   49.3085   34.1731   38.4246 H   0  0  0  0  0  0  0  0  0  0  0  0
   48.3582   32.6648   38.3550 H   0  0  0  0  0  0  0  0  0  0  0  0
   49.6660   35.7173   39.3867 H   0  0  0  0  0  0  0  0  0  0  0  0
  1  6  2  0
  2  1  1  0
  3  2  2  0
  3  4  1  0
  4  5  2  0
  5  6  1  0
  5  7  1  0
  7  8  1  0
  8  9  2  0
 10  9  1  0
 11  7  1  0
 11 10  2  0
 12  3  1  0
 13 12  1  0
 14 13  2  0
 15 17  2  0
 15 14  1  0
 16 15  1  0
 17 18  1  0
 18 19  2  0
 18 12  1  0
 20 14  1  0
  1 21  1  0
  2 22  1  0
  9 23  1  0
 10 24  1  0
 11 25  1  0
 13 26  1  0
 16 27  1  0
 16 28  1  0
 20 29  1  0
M  ISO  7  21  14  22  14  23  14  24  14  25  14  26  14  29   3
M  END
>  <minimizedAffinity>  (1) 
-6.48040581

>  <minimizedRMSD>  (1) 
0.710110128

$$$$
