
     RDKit          3D

 33 35  0  0  1  0  0  0  0  0999 V2000
   46.8270   35.0490   41.6610 C   0  0  1  0  0  0  0  0  0  0  0  0
   48.3220   35.3610   41.7350 C   0  0  0  0  0  0  0  0  0  0  0  0
   47.8170   34.0240   41.3030 C   0  0  2  0  0  0  0  0  0  0  0  0
   44.5670   35.8860   44.5340 C   0  0  0  0  0  0  0  0  0  0  0  0
   45.2190   35.9770   43.2680 C   0  0  0  0  0  0  0  0  0  0  0  0
   46.1470   34.9920   42.9890 C   0  0  0  0  0  0  0  0  0  0  0  0
   46.3930   33.9980   43.9150 N   0  0  0  0  0  0  0  0  0  0  0  0
   45.7460   33.9600   45.0970 C   0  0  0  0  0  0  0  0  0  0  0  0
   44.8400   34.8940   45.4100 N   0  0  0  0  0  0  0  0  0  0  0  0
   48.0070   33.5010   39.9330 C   0  0  0  0  0  0  0  0  0  0  0  0
   49.0530   32.4510   39.7570 C   0  0  0  0  0  0  0  0  0  0  0  0
   48.8120   31.8360   38.3730 C   0  0  0  0  0  0  0  0  0  0  0  0
   48.8240   32.8400   37.2740 C   0  0  0  0  0  0  0  0  0  0  0  0
   48.0380   34.0900   37.5850 C   0  0  0  0  0  0  0  0  0  0  0  0
   48.3730   34.6130   38.9650 C   0  0  0  0  0  0  0  0  0  0  0  0
   45.9390   35.4438   41.1456 H   0  0  0  0  0  0  0  0  0  0  0  0
   48.7836   36.0423   41.0051 H   0  0  0  0  0  0  0  0  0  0  0  0
   49.0129   35.7311   42.5068 H   0  0  0  0  0  0  0  0  0  0  0  0
   47.9900   32.9886   41.6317 H   0  0  0  0  0  0  0  0  0  0  0  0
   43.8196   36.6463   44.8050 H   0  0  0  0  0  0  0  0  0  0  0  0
   44.9957   36.7846   42.5553 H   0  0  0  0  0  0  0  0  0  0  0  0
   45.9650   33.1530   45.8117 H   0  0  0  0  0  0  0  0  0  0  0  0
   47.0291   33.0414   39.7270 H   0  0  0  0  0  0  0  0  0  0  0  0
   50.0561   32.8999   39.8056 H   0  0  0  0  0  0  0  0  0  0  0  0
   48.9953   31.6904   40.5496 H   0  0  0  0  0  0  0  0  0  0  0  0
   49.6010   31.0948   38.1778 H   0  0  0  0  0  0  0  0  0  0  0  0
   47.8109   31.3804   38.3880 H   0  0  0  0  0  0  0  0  0  0  0  0
   48.3949   32.3750   36.3742 H   0  0  0  0  0  0  0  0  0  0  0  0
   49.8707   33.1462   37.1301 H   0  0  0  0  0  0  0  0  0  0  0  0
   48.2800   34.8617   36.8395 H   0  0  0  0  0  0  0  0  0  0  0  0
   46.9658   33.8462   37.5538 H   0  0  0  0  0  0  0  0  0  0  0  0
   49.4461   34.8443   39.0362 H   0  0  0  0  0  0  0  0  0  0  0  0
   47.8246   35.5398   39.1893 H   0  0  0  0  0  0  0  0  0  0  0  0
  1  2  1  0
  1  6  1  0
  3  1  1  0
  3  2  1  0
  4  9  2  0
  5  4  1  0
  6  5  2  0
  6  7  1  0
  7  8  2  0
  8  9  1  0
 10  3  1  0
 11 10  1  0
 12 11  1  0
 13 14  1  0
 13 12  1  0
 14 15  1  0
 15 10  1  0
  1 16  1  6
  2 17  1  0
  2 18  1  0
  3 19  1  1
  4 20  1  0
  5 21  1  0
  8 22  1  0
 10 23  1  0
 11 24  1  0
 11 25  1  0
 12 26  1  0
 12 27  1  0
 13 28  1  0
 13 29  1  0
 14 30  1  0
 14 31  1  0
 15 32  1  0
 15 33  1  0
M  ISO  8  16  13  17  13  18  13  19  13  20  14  21  14  22  14  23  13
M  ISO  8  24  13  25  13  26  13  27  13  28  13  29  13  30  13  31  13
M  ISO  2  32  13  33  13
M  END
>  <minimizedAffinity>  (1) 
-4.84933519

>  <minimizedRMSD>  (1) 
0.992317915

$$$$
