
     RDKit          3D

 45 48  0  0  0  0  0  0  0  0999 V2000
   45.4790   34.0350   41.2350 N   0  0  0  0  0  0  0  0  0  0  0  0
   46.7240   33.8360   40.7450 C   0  0  0  0  0  0  0  0  0  0  0  0
   46.8680   33.3480   39.4510 C   0  0  0  0  0  0  0  0  0  0  0  0
   45.6980   33.0970   38.7480 C   0  0  0  0  0  0  0  0  0  0  0  0
   45.7020   32.5960   37.4150 N   0  0  0  0  0  0  0  0  0  0  0  0
   44.4730   33.3060   39.2640 N   0  0  0  0  0  0  0  0  0  0  0  0
   44.3480   33.7880   40.5400 C   0  0  0  0  0  0  0  0  0  0  0  0
   43.2040   33.9920   41.0490 O   0  0  0  0  0  0  0  0  0  0  0  0
   44.7900   36.2590   44.1750 C   0  0  0  0  0  0  0  0  0  0  0  0
   44.9470   35.8540   42.8500 C   0  0  0  0  0  0  0  0  0  0  0  0
   45.2970   34.5400   42.5490 C   0  0  0  0  0  0  0  0  0  0  0  0
   45.4710   33.7070   43.6060 N   0  0  0  0  0  0  0  0  0  0  0  0
   45.3200   34.1000   44.8760 C   0  0  0  0  0  0  0  0  0  0  0  0
   44.9810   35.3660   45.1620 N   0  0  0  0  0  0  0  0  0  0  0  0
   45.5060   33.2000   45.9740 N   0  0  0  0  0  0  0  0  0  0  0  0
   45.2480   33.1990   47.2640 N   0  0  0  0  0  0  0  0  0  0  0  0
   45.6420   32.0510   47.8190 C   0  0  0  0  0  0  0  0  0  0  0  0
   46.1850   31.2770   46.8060 C   0  0  0  0  0  0  0  0  0  0  0  0
   46.0920   32.0200   45.6400 C   0  0  0  0  0  0  0  0  0  0  0  0
   47.8620   34.1240   41.5820 N   0  0  0  0  0  0  0  0  0  0  0  0
   48.4470   35.3940   41.1910 C   0  0  0  0  0  0  0  0  0  0  0  0
   49.3160   35.8720   42.3310 C   0  0  0  0  0  0  0  0  0  0  0  0
   50.4490   34.9740   42.4320 N   0  0  0  0  0  0  0  0  0  0  0  0
   50.0330   33.5830   42.3240 C   0  0  0  0  0  0  0  0  0  0  0  0
   48.5350   33.4600   42.6620 C   0  0  0  0  0  0  0  0  0  0  0  0
   48.1630   33.0960   38.8300 C   0  0  0  0  0  0  0  0  0  0  0  0
   48.7540   34.2410   38.3770 F   0  0  0  0  0  0  0  0  0  0  0  0
   47.9830   32.1920   37.7720 F   0  0  0  0  0  0  0  0  0  0  0  0
   48.9620   32.4020   39.7390 F   0  0  0  0  0  0  0  0  0  0  0  0
   46.5954   32.4061   36.9389 H   0  0  0  0  0  0  0  0  0  0  0  0
   44.8115   32.4236   36.9270 H   0  0  0  0  0  0  0  0  0  0  0  0
   44.5130   37.2973   44.4102 H   0  0  0  0  0  0  0  0  0  0  0  0
   44.7932   36.5779   42.0362 H   0  0  0  0  0  0  0  0  0  0  0  0
   45.5526   31.7722   48.8793 H   0  0  0  0  0  0  0  0  0  0  0  0
   46.6085   30.2669   46.9078 H   0  0  0  0  0  0  0  0  0  0  0  0
   46.4275   31.7140   44.6381 H   0  0  0  0  0  0  0  0  0  0  0  0
   49.0570   35.2621   40.2852 H   0  0  0  0  0  0  0  0  0  0  0  0
   47.6587   36.1298   40.9737 H   0  0  0  0  0  0  0  0  0  0  0  0
   49.6664   36.8953   42.1306 H   0  0  0  0  0  0  0  0  0  0  0  0
   48.7460   35.8782   43.2718 H   0  0  0  0  0  0  0  0  0  0  0  0
   51.1132   35.1854   41.6737 H   0  0  0  0  0  0  0  0  0  0  0  0
   50.2062   33.2284   41.2972 H   0  0  0  0  0  0  0  0  0  0  0  0
   50.6164   32.9730   43.0294 H   0  0  0  0  0  0  0  0  0  0  0  0
   48.3117   33.9529   43.6197 H   0  0  0  0  0  0  0  0  0  0  0  0
   48.2172   32.4124   42.7690 H   0  0  0  0  0  0  0  0  0  0  0  0
  1 11  1  0
  2  1  1  0
  2 20  1  0
  3  2  2  0
  4  6  2  0
  4  3  1  0
  5  4  1  0
  6  7  1  0
  7  8  2  0
  7  1  1  0
  9 14  2  0
 10  9  1  0
 11 10  2  0
 11 12  1  0
 12 13  2  0
 13 14  1  0
 13 15  1  0
 15 16  1  0
 16 17  2  0
 18 17  1  0
 19 15  1  0
 19 18  2  0
 20 25  1  0
 21 20  1  0
 21 22  1  0
 22 23  1  0
 24 23  1  0
 24 25  1  0
 26  3  1  0
 26 29  1  0
 27 26  1  0
 28 26  1  0
  5 30  1  0
  5 31  1  0
  9 32  1  0
 10 33  1  0
 17 34  1  0
 18 35  1  0
 19 36  1  0
 21 37  1  0
 21 38  1  0
 22 39  1  0
 22 40  1  0
 23 41  1  0
 24 42  1  0
 24 43  1  0
 25 44  1  0
 25 45  1  0
M  ISO  8  32  14  33  14  34  14  35  14  36  14  37  13  38  13  39  13
M  ISO  6  40  13  41   5  42  13  43  13  44  13  45  13
M  END
>  <minimizedAffinity>  (1) 
-6.88047981

>  <minimizedRMSD>  (1) 
1.35637808

$$$$
