
     RDKit          3D

 36 39  0  0  0  0  0  0  0  0999 V2000
   45.4230   34.1410   41.3050 N   0  0  0  0  0  0  0  0  0  0  0  0
   46.6510   34.1350   40.7400 C   0  0  0  0  0  0  0  0  0  0  0  0
   46.8030   33.6980   39.4310 C   0  0  0  0  0  0  0  0  0  0  0  0
   45.6480   33.2910   38.7930 C   0  0  0  0  0  0  0  0  0  0  0  0
   45.6460   32.8140   37.4420 N   0  0  0  0  0  0  0  0  0  0  0  0
   44.4340   33.3040   39.3750 N   0  0  0  0  0  0  0  0  0  0  0  0
   44.3060   33.7390   40.6670 C   0  0  0  0  0  0  0  0  0  0  0  0
   43.1800   33.7640   41.2430 O   0  0  0  0  0  0  0  0  0  0  0  0
   44.7340   36.1860   44.3750 C   0  0  0  0  0  0  0  0  0  0  0  0
   44.8730   35.8520   43.0230 C   0  0  0  0  0  0  0  0  0  0  0  0
   45.2520   34.5870   42.6470 C   0  0  0  0  0  0  0  0  0  0  0  0
   45.4800   33.6930   43.6580 N   0  0  0  0  0  0  0  0  0  0  0  0
   45.3460   34.0170   44.9490 C   0  0  0  0  0  0  0  0  0  0  0  0
   44.9760   35.2520   45.3100 N   0  0  0  0  0  0  0  0  0  0  0  0
   45.5870   33.0750   46.0000 N   0  0  0  0  0  0  0  0  0  0  0  0
   45.3570   32.9930   47.2920 N   0  0  0  0  0  0  0  0  0  0  0  0
   45.8080   31.8530   47.7990 C   0  0  0  0  0  0  0  0  0  0  0  0
   46.3700   31.1530   46.7480 C   0  0  0  0  0  0  0  0  0  0  0  0
   46.2240   31.9390   45.6080 C   0  0  0  0  0  0  0  0  0  0  0  0
   47.8280   34.5810   41.4790 C   0  0  0  0  0  0  0  0  0  0  0  0
   48.4040   33.6400   42.2500 N   0  0  0  0  0  0  0  0  0  0  0  0
   49.4280   34.1300   42.8560 O   0  0  0  0  0  0  0  0  0  0  0  0
   49.5250   35.3850   42.4850 C   0  0  0  0  0  0  0  0  0  0  0  0
   48.5350   35.7120   41.6160 N   0  0  0  0  0  0  0  0  0  0  0  0
   48.0860   33.6540   38.7340 C   0  0  0  0  0  0  0  0  0  0  0  0
   48.5770   34.9170   38.4840 F   0  0  0  0  0  0  0  0  0  0  0  0
   47.9030   32.9580   37.5390 F   0  0  0  0  0  0  0  0  0  0  0  0
   48.9580   32.8780   39.4730 F   0  0  0  0  0  0  0  0  0  0  0  0
   46.5275   32.7664   36.9113 H   0  0  0  0  0  0  0  0  0  0  0  0
   44.7631   32.5187   37.0014 H   0  0  0  0  0  0  0  0  0  0  0  0
   44.4301   37.2016   44.6687 H   0  0  0  0  0  0  0  0  0  0  0  0
   44.6763   36.6120   42.2525 H   0  0  0  0  0  0  0  0  0  0  0  0
   45.7468   31.5289   48.8484 H   0  0  0  0  0  0  0  0  0  0  0  0
   46.8435   30.1616   46.8020 H   0  0  0  0  0  0  0  0  0  0  0  0
   46.5583   31.6900   44.5900 H   0  0  0  0  0  0  0  0  0  0  0  0
   50.3045   36.0792   42.8319 H   0  0  0  0  0  0  0  0  0  0  0  0
  1 11  1  0
  2  1  1  0
  2 20  1  0
  3  2  2  0
  4  6  2  0
  4  3  1  0
  5  4  1  0
  6  7  1  0
  7  8  2  0
  7  1  1  0
  9 14  2  0
 10  9  1  0
 11 10  2  0
 11 12  1  0
 12 13  2  0
 13 14  1  0
 13 15  1  0
 15 16  1  0
 16 17  2  0
 18 17  1  0
 19 15  1  0
 19 18  2  0
 20 24  1  0
 20 21  2  0
 21 22  1  0
 23 22  1  0
 24 23  2  0
 25  3  1  0
 25 28  1  0
 26 25  1  0
 27 25  1  0
  5 29  1  0
  5 30  1  0
  9 31  1  0
 10 32  1  0
 17 33  1  0
 18 34  1  0
 19 35  1  0
 23 36  1  0
M  ISO  6  31  14  32  14  33  14  34  14  35  14  36  14
M  END
>  <minimizedAffinity>  (1) 
-6.79521084

>  <minimizedRMSD>  (1) 
0.892674804

$$$$
