
     RDKit          3D

 34 36  0  0  0  0  0  0  0  0999 V2000
   44.4040   35.9680   44.9110 C   0  0  0  0  0  0  0  0  0  0  0  0
   44.6400   35.6550   43.5690 C   0  0  0  0  0  0  0  0  0  0  0  0
   45.2260   34.4390   43.2240 C   0  0  0  0  0  0  0  0  0  0  0  0
   45.5350   33.6200   44.2540 N   0  0  0  0  0  0  0  0  0  0  0  0
   45.3150   33.9090   45.5400 C   0  0  0  0  0  0  0  0  0  0  0  0
   44.7460   35.0890   45.8680 N   0  0  0  0  0  0  0  0  0  0  0  0
   45.6500   33.0340   46.6090 N   0  0  0  0  0  0  0  0  0  0  0  0
   45.4130   32.9520   47.8970 N   0  0  0  0  0  0  0  0  0  0  0  0
   46.0260   31.8890   48.4290 C   0  0  0  0  0  0  0  0  0  0  0  0
   46.7040   31.2450   47.3950 C   0  0  0  0  0  0  0  0  0  0  0  0
   46.4440   32.0030   46.2470 C   0  0  0  0  0  0  0  0  0  0  0  0
   45.5080   34.0230   41.9000 N   0  0  0  0  0  0  0  0  0  0  0  0
   46.6670   34.3760   41.2990 C   0  0  0  0  0  0  0  0  0  0  0  0
   46.9070   33.9480   39.9970 C   0  0  0  0  0  0  0  0  0  0  0  0
   45.9220   33.1800   39.4110 C   0  0  0  0  0  0  0  0  0  0  0  0
   46.0390   32.6740   38.0760 N   0  0  0  0  0  0  0  0  0  0  0  0
   44.7700   32.8370   40.0260 N   0  0  0  0  0  0  0  0  0  0  0  0
   44.5420   33.2640   41.3090 C   0  0  0  0  0  0  0  0  0  0  0  0
   43.4780   32.9640   41.9210 O   0  0  0  0  0  0  0  0  0  0  0  0
   48.1230   34.2690   39.2540 C   0  0  0  0  0  0  0  0  0  0  0  0
   48.7130   35.4320   39.7200 F   0  0  0  0  0  0  0  0  0  0  0  0
   47.8020   34.3850   37.9040 F   0  0  0  0  0  0  0  0  0  0  0  0
   48.9790   33.1780   39.3250 F   0  0  0  0  0  0  0  0  0  0  0  0
   47.6780   35.2030   41.9910 C   0  0  0  0  0  0  0  0  0  0  0  0
   43.9410   36.9283   45.1819 H   0  0  0  0  0  0  0  0  0  0  0  0
   44.3619   36.3717   42.7823 H   0  0  0  0  0  0  0  0  0  0  0  0
   46.0001   31.5806   49.4846 H   0  0  0  0  0  0  0  0  0  0  0  0
   47.3149   30.3330   47.4662 H   0  0  0  0  0  0  0  0  0  0  0  0
   46.8186   31.7963   45.2336 H   0  0  0  0  0  0  0  0  0  0  0  0
   45.2817   32.1038   37.6731 H   0  0  0  0  0  0  0  0  0  0  0  0
   46.8804   32.8804   37.5189 H   0  0  0  0  0  0  0  0  0  0  0  0
   47.5530   35.1007   43.0791 H   0  0  0  0  0  0  0  0  0  0  0  0
   48.6854   34.8667   41.7044 H   0  0  0  0  0  0  0  0  0  0  0  0
   47.5480   36.2570   41.7044 H   0  0  0  0  0  0  0  0  0  0  0  0
  1  6  2  0
  2  1  1  0
  3  2  2  0
  3  4  1  0
  4  5  2  0
  5  6  1  0
  5  7  1  0
  7  8  1  0
  8  9  2  0
 10  9  1  0
 11  7  1  0
 11 10  2  0
 12  3  1  0
 13 12  1  0
 13 24  1  0
 14 13  2  0
 15 14  1  0
 15 17  2  0
 16 15  1  0
 17 18  1  0
 18 12  1  0
 18 19  2  0
 20 23  1  0
 20 21  1  0
 20 14  1  0
 22 20  1  0
  1 25  1  0
  2 26  1  0
  9 27  1  0
 10 28  1  0
 11 29  1  0
 16 30  1  0
 16 31  1  0
 24 32  1  0
 24 33  1  0
 24 34  1  0
M  ISO  8  25  14  26  14  27  14  28  14  29  14  32   8  33   8  34   8
M  END
>  <minimizedAffinity>  (1) 
-6.67673635

>  <minimizedRMSD>  (1) 
0.077000536

$$$$
