
     RDKit          3D

 37 40  0  0  0  0  0  0  0  0999 V2000
   45.4070   34.1100   41.2940 N   0  0  0  0  0  0  0  0  0  0  0  0
   46.6390   34.0560   40.7350 C   0  0  0  0  0  0  0  0  0  0  0  0
   46.7720   33.6150   39.4270 C   0  0  0  0  0  0  0  0  0  0  0  0
   45.6080   33.2580   38.7870 C   0  0  0  0  0  0  0  0  0  0  0  0
   45.5940   32.7840   37.4300 N   0  0  0  0  0  0  0  0  0  0  0  0
   44.3790   33.3190   39.3620 N   0  0  0  0  0  0  0  0  0  0  0  0
   44.2760   33.7590   40.6560 C   0  0  0  0  0  0  0  0  0  0  0  0
   43.1530   33.8290   41.2250 O   0  0  0  0  0  0  0  0  0  0  0  0
   44.7540   36.1680   44.3600 C   0  0  0  0  0  0  0  0  0  0  0  0
   44.8820   35.8300   43.0100 C   0  0  0  0  0  0  0  0  0  0  0  0
   45.2470   34.5600   42.6370 C   0  0  0  0  0  0  0  0  0  0  0  0
   45.4660   33.6850   43.6520 N   0  0  0  0  0  0  0  0  0  0  0  0
   45.3490   33.9880   44.9430 C   0  0  0  0  0  0  0  0  0  0  0  0
   44.9920   35.2310   45.3000 N   0  0  0  0  0  0  0  0  0  0  0  0
   45.5870   33.0550   45.9890 N   0  0  0  0  0  0  0  0  0  0  0  0
   45.3720   32.9860   47.2910 N   0  0  0  0  0  0  0  0  0  0  0  0
   45.8190   31.8360   47.7920 C   0  0  0  0  0  0  0  0  0  0  0  0
   46.3560   31.1220   46.7380 C   0  0  0  0  0  0  0  0  0  0  0  0
   46.2020   31.9100   45.5900 C   0  0  0  0  0  0  0  0  0  0  0  0
   47.8020   34.4410   41.4590 N   0  0  0  0  0  0  0  0  0  0  0  0
   48.5020   33.6660   42.3250 C   0  0  0  0  0  0  0  0  0  0  0  0
   49.5220   34.4300   42.7780 N   0  0  0  0  0  0  0  0  0  0  0  0
   49.4390   35.6400   42.1960 C   0  0  0  0  0  0  0  0  0  0  0  0
   48.3770   35.6530   41.3790 N   0  0  0  0  0  0  0  0  0  0  0  0
   48.0630   33.5190   38.7290 C   0  0  0  0  0  0  0  0  0  0  0  0
   48.5540   34.7620   38.3920 F   0  0  0  0  0  0  0  0  0  0  0  0
   47.8690   32.7370   37.5800 F   0  0  0  0  0  0  0  0  0  0  0  0
   48.9270   32.7930   39.5190 F   0  0  0  0  0  0  0  0  0  0  0  0
   46.4759   32.7009   36.9044 H   0  0  0  0  0  0  0  0  0  0  0  0
   44.7021   32.5275   36.9833 H   0  0  0  0  0  0  0  0  0  0  0  0
   44.4622   37.1874   44.6526 H   0  0  0  0  0  0  0  0  0  0  0  0
   44.6883   36.5894   42.2381 H   0  0  0  0  0  0  0  0  0  0  0  0
   45.7701   31.5159   48.8433 H   0  0  0  0  0  0  0  0  0  0  0  0
   46.8168   30.1245   46.7903 H   0  0  0  0  0  0  0  0  0  0  0  0
   46.5165   31.6531   44.5677 H   0  0  0  0  0  0  0  0  0  0  0  0
   48.2836   32.6244   42.6032 H   0  0  0  0  0  0  0  0  0  0  0  0
   50.1291   36.4801   42.3632 H   0  0  0  0  0  0  0  0  0  0  0  0
  1 11  1  0
  2  1  1  0
  2 20  1  0
  3  2  2  0
  4  6  2  0
  4  3  1  0
  5  4  1  0
  6  7  1  0
  7  8  2  0
  7  1  1  0
  9 14  2  0
 10  9  1  0
 11 10  2  0
 11 12  1  0
 12 13  2  0
 13 14  1  0
 13 15  1  0
 15 16  1  0
 16 17  2  0
 18 17  1  0
 19 15  1  0
 19 18  2  0
 20 21  1  0
 21 22  2  0
 23 22  1  0
 24 20  1  0
 24 23  2  0
 25  3  1  0
 25 28  1  0
 26 25  1  0
 27 25  1  0
  5 29  1  0
  5 30  1  0
  9 31  1  0
 10 32  1  0
 17 33  1  0
 18 34  1  0
 19 35  1  0
 21 36  1  0
 23 37  1  0
M  ISO  7  31  14  32  14  33  14  34  14  35  14  36  14  37  14
M  END
>  <minimizedAffinity>  (1) 
-6.66727924

>  <minimizedRMSD>  (1) 
1.00186908

$$$$
