
     RDKit          3D

 28 30  0  0  1  0  0  0  0  0999 V2000
   45.7020   32.8740   40.7540 C   0  0  1  0  0  0  0  0  0  0  0  0
   46.4810   34.1750   40.5450 C   0  0  0  0  0  0  0  0  0  0  0  0
   46.5090   33.4330   41.8420 C   0  0  1  0  0  0  0  0  0  0  0  0
   45.9330   34.0040   43.0250 N   0  0  0  0  0  0  0  0  0  0  0  0
   45.3600   35.2230   43.1250 C   0  0  0  0  0  0  0  0  0  0  0  0
   44.8210   35.7190   44.2910 C   0  0  0  0  0  0  0  0  0  0  0  0
   44.8620   34.9330   45.4280 C   0  0  0  0  0  0  0  0  0  0  0  0
   44.3230   35.3840   46.6660 N   0  0  0  0  0  0  0  0  0  0  0  0
   45.4310   33.7210   45.3270 N   0  0  0  0  0  0  0  0  0  0  0  0
   45.9500   33.2740   44.1580 C   0  0  0  0  0  0  0  0  0  0  0  0
   46.4630   32.1040   44.1960 O   0  0  0  0  0  0  0  0  0  0  0  0
   42.2970   34.1780   39.8920 C   0  0  0  0  0  0  0  0  0  0  0  0
   43.6950   34.0270   39.9060 C   0  0  0  0  0  0  0  0  0  0  0  0
   44.2220   33.0570   40.7400 C   0  0  0  0  0  0  0  0  0  0  0  0
   43.3620   32.2960   41.5080 N   0  0  0  0  0  0  0  0  0  0  0  0
   42.0310   32.4730   41.4650 C   0  0  0  0  0  0  0  0  0  0  0  0
   41.5030   33.4140   40.6570 N   0  0  0  0  0  0  0  0  0  0  0  0
   45.6521   31.8684   40.3110 H   0  0  0  0  0  0  0  0  0  0  0  0
   47.3688   34.1929   39.8958 H   0  0  0  0  0  0  0  0  0  0  0  0
   46.2370   35.1991   40.2261 H   0  0  0  0  0  0  0  0  0  0  0  0
   47.3000   33.0150   42.4819 H   0  0  0  0  0  0  0  0  0  0  0  0
   45.3218   35.8545   42.2252 H   0  0  0  0  0  0  0  0  0  0  0  0
   44.3669   36.7205   44.3175 H   0  0  0  0  0  0  0  0  0  0  0  0
   44.3667   34.7782   47.4979 H   0  0  0  0  0  0  0  0  0  0  0  0
   43.8893   36.3161   46.7298 H   0  0  0  0  0  0  0  0  0  0  0  0
   41.8446   34.9393   39.2394 H   0  0  0  0  0  0  0  0  0  0  0  0
   44.3441   34.6554   39.2785 H   0  0  0  0  0  0  0  0  0  0  0  0
   41.3725   31.8505   42.0887 H   0  0  0  0  0  0  0  0  0  0  0  0
  1  3  1  0
  2  1  1  0
  2  3  1  0
  3  4  1  0
  4  5  1  0
  4 10  1  0
  5  6  2  0
  6  7  1  0
  7  8  1  0
  9  7  2  0
 10 11  2  0
 10  9  1  0
 12 13  2  0
 12 17  1  0
 13 14  1  0
 14  1  1  0
 14 15  2  0
 16 15  1  0
 17 16  2  0
  1 18  1  6
  2 19  1  0
  2 20  1  0
  3 21  1  1
  5 22  1  0
  6 23  1  0
  8 24  1  0
  8 25  1  0
 12 26  1  0
 13 27  1  0
 16 28  1  0
M  ISO  8  18  13  19  13  20  13  21  13  22  14  23  14  26  14  27  14
M  ISO  1  28  14
M  END
>  <minimizedAffinity>  (1) 
-4.67837477

>  <minimizedRMSD>  (1) 
4.73260546

$$$$
