
     RDKit          3D

 43 45  0  0  0  0  0  0  0  0999 V2000
   45.4060   34.1030   41.3810 N   0  0  0  0  0  0  0  0  0  0  0  0
   46.6730   34.1170   40.8330 C   0  0  0  0  0  0  0  0  0  0  0  0
   46.7310   33.7890   39.4810 C   0  0  0  0  0  0  0  0  0  0  0  0
   45.5410   33.4920   38.8320 C   0  0  0  0  0  0  0  0  0  0  0  0
   45.4460   33.1690   37.4420 N   0  0  0  0  0  0  0  0  0  0  0  0
   44.3350   33.4930   39.4240 N   0  0  0  0  0  0  0  0  0  0  0  0
   44.2680   33.8100   40.7510 C   0  0  0  0  0  0  0  0  0  0  0  0
   43.1520   33.8090   41.3300 O   0  0  0  0  0  0  0  0  0  0  0  0
   44.7070   35.9670   44.5320 C   0  0  0  0  0  0  0  0  0  0  0  0
   44.7960   35.6810   43.1840 C   0  0  0  0  0  0  0  0  0  0  0  0
   45.2080   34.4460   42.7370 C   0  0  0  0  0  0  0  0  0  0  0  0
   45.5000   33.5410   43.7010 N   0  0  0  0  0  0  0  0  0  0  0  0
   45.4160   33.8070   45.0090 C   0  0  0  0  0  0  0  0  0  0  0  0
   45.0260   35.0140   45.4180 N   0  0  0  0  0  0  0  0  0  0  0  0
   45.7250   32.8130   46.0060 N   0  0  0  0  0  0  0  0  0  0  0  0
   45.5420   32.6800   47.3010 N   0  0  0  0  0  0  0  0  0  0  0  0
   46.0140   31.5180   47.7300 C   0  0  0  0  0  0  0  0  0  0  0  0
   46.5390   30.8610   46.6160 C   0  0  0  0  0  0  0  0  0  0  0  0
   46.3430   31.7090   45.5330 C   0  0  0  0  0  0  0  0  0  0  0  0
   47.9330   33.6640   38.7020 C   0  0  0  0  0  0  0  0  0  0  0  0
   48.4900   34.8190   38.4260 F   0  0  0  0  0  0  0  0  0  0  0  0
   47.6710   33.0110   37.5020 F   0  0  0  0  0  0  0  0  0  0  0  0
   48.8330   32.8060   39.3570 F   0  0  0  0  0  0  0  0  0  0  0  0
   47.8900   34.4230   41.6040 C   0  0  0  0  0  0  0  0  0  0  0  0
   48.5560   33.1060   41.9590 C   0  0  0  0  0  0  0  0  0  0  0  0
   48.6820   35.5600   40.9960 C   0  0  0  0  0  0  0  0  0  0  0  0
   47.8670   34.9570   42.9690 C   0  0  0  0  0  0  0  0  0  0  0  0
   46.2968   33.1319   36.8626 H   0  0  0  0  0  0  0  0  0  0  0  0
   44.5268   32.9735   37.0204 H   0  0  0  0  0  0  0  0  0  0  0  0
   44.3797   36.9604   44.8726 H   0  0  0  0  0  0  0  0  0  0  0  0
   44.5317   36.4575   42.4510 H   0  0  0  0  0  0  0  0  0  0  0  0
   45.9955   31.1438   48.7642 H   0  0  0  0  0  0  0  0  0  0  0  0
   47.0137   29.8688   46.5989 H   0  0  0  0  0  0  0  0  0  0  0  0
   46.6352   31.5179   44.4899 H   0  0  0  0  0  0  0  0  0  0  0  0
   48.6074   33.0043   43.0531 H   0  0  0  0  0  0  0  0  0  0  0  0
   47.9701   32.2743   41.5406 H   0  0  0  0  0  0  0  0  0  0  0  0
   49.5731   33.0850   41.5406 H   0  0  0  0  0  0  0  0  0  0  0  0
   49.1121   36.1774   41.7984 H   0  0  0  0  0  0  0  0  0  0  0  0
   49.4918   35.1512   40.3738 H   0  0  0  0  0  0  0  0  0  0  0  0
   48.0179   36.1779   40.3738 H   0  0  0  0  0  0  0  0  0  0  0  0
   47.9028   34.1258   43.6886 H   0  0  0  0  0  0  0  0  0  0  0  0
   48.7378   35.6116   43.1214 H   0  0  0  0  0  0  0  0  0  0  0  0
   46.9432   35.5343   43.1214 H   0  0  0  0  0  0  0  0  0  0  0  0
  1 11  1  0
  2  1  1  0
  2 24  1  0
  3  2  2  0
  4  6  2  0
  4  3  1  0
  5  4  1  0
  6  7  1  0
  7  8  2  0
  7  1  1  0
  9 14  2  0
 10  9  1  0
 11 10  2  0
 11 12  1  0
 12 13  2  0
 13 14  1  0
 13 15  1  0
 15 16  1  0
 16 17  2  0
 18 17  1  0
 19 15  1  0
 19 18  2  0
 20 23  1  0
 20  3  1  0
 21 20  1  0
 22 20  1  0
 24 25  1  0
 24 27  1  0
 26 24  1  0
  5 28  1  0
  5 29  1  0
  9 30  1  0
 10 31  1  0
 17 32  1  0
 18 33  1  0
 19 34  1  0
 25 35  1  0
 25 36  1  0
 25 37  1  0
 26 38  1  0
 26 39  1  0
 26 40  1  0
 27 41  1  0
 27 42  1  0
 27 43  1  0
M  ISO  8  30  14  31  14  32  14  33  14  34  14  35   8  36   8  37   8
M  ISO  6  38   8  39   8  40   8  41   8  42   8  43   8
M  END
>  <minimizedAffinity>  (1) 
-6.47654629

>  <minimizedRMSD>  (1) 
0.968562305

$$$$
