
     RDKit          3D

 44 47  0  0  0  0  0  0  0  0999 V2000
   45.0650   33.8740   40.6880 N   0  0  0  0  0  0  0  0  0  0  0  0
   46.1420   33.2670   40.1350 C   0  0  0  0  0  0  0  0  0  0  0  0
   46.0500   32.7810   38.8390 C   0  0  0  0  0  0  0  0  0  0  0  0
   44.8470   32.9580   38.2050 C   0  0  0  0  0  0  0  0  0  0  0  0
   44.6040   32.5100   36.8670 N   0  0  0  0  0  0  0  0  0  0  0  0
   43.7740   33.5700   38.7730 N   0  0  0  0  0  0  0  0  0  0  0  0
   43.8900   34.0420   40.0560 C   0  0  0  0  0  0  0  0  0  0  0  0
   42.9190   34.6170   40.6230 O   0  0  0  0  0  0  0  0  0  0  0  0
   45.0880   36.0930   43.7180 C   0  0  0  0  0  0  0  0  0  0  0  0
   45.0000   35.7040   42.3750 C   0  0  0  0  0  0  0  0  0  0  0  0
   45.1370   34.3800   42.0160 C   0  0  0  0  0  0  0  0  0  0  0  0
   45.3560   33.5110   43.0330 N   0  0  0  0  0  0  0  0  0  0  0  0
   45.4430   33.8640   44.3140 C   0  0  0  0  0  0  0  0  0  0  0  0
   45.3080   35.1600   44.6580 N   0  0  0  0  0  0  0  0  0  0  0  0
   45.6750   32.9440   45.3770 N   0  0  0  0  0  0  0  0  0  0  0  0
   45.6230   32.9440   46.6880 N   0  0  0  0  0  0  0  0  0  0  0  0
   45.9670   31.7490   47.1840 C   0  0  0  0  0  0  0  0  0  0  0  0
   46.2570   30.9350   46.1010 C   0  0  0  0  0  0  0  0  0  0  0  0
   46.0660   31.7120   44.9630 C   0  0  0  0  0  0  0  0  0  0  0  0
   47.3690   33.1080   40.8370 N   0  0  0  0  0  0  0  0  0  0  0  0
   47.6870   32.0450   41.5940 C   0  0  0  0  0  0  0  0  0  0  0  0
   48.9140   32.0120   42.2250 C   0  0  0  0  0  0  0  0  0  0  0  0
   49.2910   30.8480   43.0680 C   0  0  0  0  0  0  0  0  0  0  0  0
   49.7520   33.0890   42.0360 C   0  0  0  0  0  0  0  0  0  0  0  0
   50.8820   33.0880   42.6010 O   0  0  0  0  0  0  0  0  0  0  0  0
   49.4470   34.1610   41.2810 N   0  0  0  0  0  0  0  0  0  0  0  0
   48.2280   34.1520   40.6780 C   0  0  0  0  0  0  0  0  0  0  0  0
   47.9780   35.1750   39.9770 O   0  0  0  0  0  0  0  0  0  0  0  0
   47.1520   32.1050   38.1370 C   0  0  0  0  0  0  0  0  0  0  0  0
   48.1760   32.9910   37.8400 F   0  0  0  0  0  0  0  0  0  0  0  0
   46.6450   31.5500   36.9570 F   0  0  0  0  0  0  0  0  0  0  0  0
   47.5840   31.0490   38.9080 F   0  0  0  0  0  0  0  0  0  0  0  0
   45.3493   32.0322   36.3405 H   0  0  0  0  0  0  0  0  0  0  0  0
   43.6839   32.6656   36.4309 H   0  0  0  0  0  0  0  0  0  0  0  0
   44.9781   37.1508   43.9991 H   0  0  0  0  0  0  0  0  0  0  0  0
   44.8198   36.4626   41.5991 H   0  0  0  0  0  0  0  0  0  0  0  0
   46.0109   31.4677   48.2465 H   0  0  0  0  0  0  0  0  0  0  0  0
   46.5753   29.8826   46.1344 H   0  0  0  0  0  0  0  0  0  0  0  0
   46.2059   31.3881   43.9211 H   0  0  0  0  0  0  0  0  0  0  0  0
   46.9786   31.2115   41.7095 H   0  0  0  0  0  0  0  0  0  0  0  0
   49.2027   31.1205   44.1300 H   0  0  0  0  0  0  0  0  0  0  0  0
   48.6202   30.0041   42.8490 H   0  0  0  0  0  0  0  0  0  0  0  0
   50.3291   30.5576   42.8490 H   0  0  0  0  0  0  0  0  0  0  0  0
   50.1026   34.9470   41.1660 H   0  0  0  0  0  0  0  0  0  0  0  0
  1 11  1  0
  2  1  1  0
  2 20  1  0
  3  2  2  0
  4  6  2  0
  4  3  1  0
  5  4  1  0
  6  7  1  0
  7  8  2  0
  7  1  1  0
  9 14  2  0
 10  9  1  0
 11 10  2  0
 11 12  1  0
 12 13  2  0
 13 14  1  0
 13 15  1  0
 15 16  1  0
 16 17  2  0
 18 17  1  0
 19 15  1  0
 19 18  2  0
 20 21  1  0
 21 22  2  0
 22 23  1  0
 24 22  1  0
 24 25  2  0
 26 24  1  0
 27 20  1  0
 27 26  1  0
 28 27  2  0
 29  3  1  0
 29 32  1  0
 30 29  1  0
 31 29  1  0
  5 33  1  0
  5 34  1  0
  9 35  1  0
 10 36  1  0
 17 37  1  0
 18 38  1  0
 19 39  1  0
 21 40  1  0
 23 41  1  0
 23 42  1  0
 23 43  1  0
 26 44  1  0
M  ISO  8  35  14  36  14  37  14  38  14  39  14  40  14  41   8  42   8
M  ISO  2  43   8  44   9
M  END
>  <minimizedAffinity>  (1) 
-6.41134357

>  <minimizedRMSD>  (1) 
2.4789331

$$$$
