
     RDKit          3D

 25 26  0  0  0  0  0  0  0  0999 V2000
   44.5080   35.9430   44.5930 C   0  0  0  0  0  0  0  0  0  0  0  0
   45.2760   35.7780   43.4310 C   0  0  0  0  0  0  0  0  0  0  0  0
   46.1740   34.7100   43.3760 C   0  0  0  0  0  0  0  0  0  0  0  0
   46.2480   33.8830   44.4700 N   0  0  0  0  0  0  0  0  0  0  0  0
   45.4870   34.0780   45.5730 C   0  0  0  0  0  0  0  0  0  0  0  0
   44.6250   35.1050   45.6260 N   0  0  0  0  0  0  0  0  0  0  0  0
   47.0240   34.4000   42.2810 N   0  0  0  0  0  0  0  0  0  0  0  0
   46.8860   33.2080   41.4900 C   0  0  0  0  0  0  0  0  0  0  0  0
   47.0170   33.4270   40.0230 C   0  0  0  0  0  0  0  0  0  0  0  0
   47.9800   34.5140   39.6270 C   0  0  0  0  0  0  0  0  0  0  0  0
   48.8080   35.0560   40.7420 C   0  0  0  0  0  0  0  0  0  0  0  0
   48.0490   35.3570   41.9990 C   0  0  0  0  0  0  0  0  0  0  0  0
   43.7956   36.7789   44.6545 H   0  0  0  0  0  0  0  0  0  0  0  0
   45.1735   36.4725   42.5842 H   0  0  0  0  0  0  0  0  0  0  0  0
   45.5758   33.3922   46.4284 H   0  0  0  0  0  0  0  0  0  0  0  0
   47.6634   32.4953   41.8026 H   0  0  0  0  0  0  0  0  0  0  0  0
   45.8667   32.8320   41.6624 H   0  0  0  0  0  0  0  0  0  0  0  0
   47.3575   32.4860   39.5663 H   0  0  0  0  0  0  0  0  0  0  0  0
   46.0263   33.7495   39.6700 H   0  0  0  0  0  0  0  0  0  0  0  0
   48.6593   34.1072   38.8635 H   0  0  0  0  0  0  0  0  0  0  0  0
   47.3670   35.3515   39.2627 H   0  0  0  0  0  0  0  0  0  0  0  0
   49.5865   34.3166   40.9810 H   0  0  0  0  0  0  0  0  0  0  0  0
   49.2146   36.0150   40.3883 H   0  0  0  0  0  0  0  0  0  0  0  0
   48.7572   35.3691   42.8406 H   0  0  0  0  0  0  0  0  0  0  0  0
   47.5573   36.3310   41.8588 H   0  0  0  0  0  0  0  0  0  0  0  0
  1  6  2  0
  2  1  1  0
  3  2  2  0
  3  4  1  0
  4  5  2  0
  5  6  1  0
  7  3  1  0
  8  7  1  0
  9  8  1  0
 10  9  1  0
 10 11  1  0
 11 12  1  0
 12  7  1  0
  1 13  1  0
  2 14  1  0
  5 15  1  0
  8 16  1  0
  8 17  1  0
  9 18  1  0
  9 19  1  0
 10 20  1  0
 10 21  1  0
 11 22  1  0
 11 23  1  0
 12 24  1  0
 12 25  1  0
M  ISO  8  13  14  14  14  15  14  16  13  17  13  18  13  19  13  20  13
M  ISO  5  21  13  22  13  23  13  24  13  25  13
M  END
>  <minimizedAffinity>  (1) 
-4.25469542

>  <minimizedRMSD>  (1) 
0.756186068

$$$$
