
     RDKit          3D

 32 34  0  0  1  0  0  0  0  0999 V2000
   45.6620   34.3010   41.2850 N   0  0  0  0  0  0  0  0  0  0  0  0
   46.5080   33.3650   40.5780 C   0  0  0  0  0  0  0  0  0  0  0  0
   47.7240   33.9920   39.9740 C   0  0  0  0  0  0  0  0  0  0  0  0
   48.3230   35.1040   40.7930 C   0  0  0  0  0  0  0  0  0  0  0  0
   47.7220   35.2900   42.1370 C   0  0  0  0  0  0  0  0  0  0  0  0
   46.2200   35.2820   42.1520 C   0  0  2  0  0  0  0  0  0  0  0  0
   42.0810   35.2260   40.7330 C   0  0  0  0  0  0  0  0  0  0  0  0
   43.4690   35.4030   40.8040 C   0  0  0  0  0  0  0  0  0  0  0  0
   44.2410   34.3040   41.1630 C   0  0  0  0  0  0  0  0  0  0  0  0
   43.6050   33.1050   41.4270 N   0  0  0  0  0  0  0  0  0  0  0  0
   42.2580   33.0000   41.3390 C   0  0  0  0  0  0  0  0  0  0  0  0
   41.5100   34.0580   40.9930 N   0  0  0  0  0  0  0  0  0  0  0  0
   45.7000   35.0640   43.5210 C   0  0  0  0  0  0  0  0  0  0  0  0
   44.8430   35.9230   44.1950 C   0  0  0  0  0  0  0  0  0  0  0  0
   44.6530   35.2940   45.4070 C   0  0  0  0  0  0  0  0  0  0  0  0
   45.3760   34.1110   45.4280 C   0  0  0  0  0  0  0  0  0  0  0  0
   45.9820   34.0320   44.2650 O   0  0  0  0  0  0  0  0  0  0  0  0
   46.8329   32.5877   41.2853 H   0  0  0  0  0  0  0  0  0  0  0  0
   45.9120   32.9553   39.7492 H   0  0  0  0  0  0  0  0  0  0  0  0
   48.4867   33.2098   39.8461 H   0  0  0  0  0  0  0  0  0  0  0  0
   47.4053   34.4406   39.0215 H   0  0  0  0  0  0  0  0  0  0  0  0
   49.3941   34.8910   40.9252 H   0  0  0  0  0  0  0  0  0  0  0  0
   48.1263   36.0333   40.2382 H   0  0  0  0  0  0  0  0  0  0  0  0
   48.0768   34.4773   42.7879 H   0  0  0  0  0  0  0  0  0  0  0  0
   48.0339   36.2857   42.4851 H   0  0  0  0  0  0  0  0  0  0  0  0
   45.9138   36.2737   41.7876 H   0  0  0  0  0  0  0  0  0  0  0  0
   41.4470   36.0804   40.4536 H   0  0  0  0  0  0  0  0  0  0  0  0
   43.9313   36.3765   40.5836 H   0  0  0  0  0  0  0  0  0  0  0  0
   41.7721   32.0368   41.5536 H   0  0  0  0  0  0  0  0  0  0  0  0
   44.4180   36.8757   43.8463 H   0  0  0  0  0  0  0  0  0  0  0  0
   44.0262   35.6714   46.2284 H   0  0  0  0  0  0  0  0  0  0  0  0
   45.4311   33.3849   46.2524 H   0  0  0  0  0  0  0  0  0  0  0  0
  1  6  1  0
  2  1  1  0
  3  2  1  0
  3  4  1  0
  4  5  1  0
  5  6  1  0
  6 13  1  0
  7  8  2  0
  7 12  1  0
  8  9  1  0
  9  1  1  0
  9 10  2  0
 11 10  1  0
 12 11  2  0
 13 14  2  0
 13 17  1  0
 14 15  1  0
 15 16  2  0
 17 16  1  0
  2 18  1  0
  2 19  1  0
  3 20  1  0
  3 21  1  0
  4 22  1  0
  4 23  1  0
  5 24  1  0
  5 25  1  0
  6 26  1  6
  7 27  1  0
  8 28  1  0
 11 29  1  0
 14 30  1  0
 15 31  1  0
 16 32  1  0
M  ISO  8  18  13  19  13  20  13  21  13  22  13  23  13  24  13  25  13
M  ISO  7  26  13  27  14  28  14  29  14  30  14  31  14  32  14
M  END
>  <minimizedAffinity>  (1) 
-5.32248402

>  <minimizedRMSD>  (1) 
3.69150734

$$$$
