
     RDKit          3D

 32 34  0  0  1  0  0  0  0  0999 V2000
   45.6290   34.3200   41.3180 N   0  0  0  0  0  0  0  0  0  0  0  0
   46.4720   33.4790   40.4950 C   0  0  0  0  0  0  0  0  0  0  0  0
   47.6810   34.1800   39.9680 C   0  0  0  0  0  0  0  0  0  0  0  0
   48.3000   35.1520   40.9430 C   0  0  0  0  0  0  0  0  0  0  0  0
   47.6870   35.1570   42.2980 C   0  0  0  0  0  0  0  0  0  0  0  0
   46.1800   35.1810   42.2990 C   0  0  2  0  0  0  0  0  0  0  0  0
   42.0670   35.3300   40.8050 C   0  0  0  0  0  0  0  0  0  0  0  0
   43.4590   35.4820   40.9140 C   0  0  0  0  0  0  0  0  0  0  0  0
   44.2170   34.3290   41.1830 C   0  0  0  0  0  0  0  0  0  0  0  0
   43.5480   33.1510   41.3190 N   0  0  0  0  0  0  0  0  0  0  0  0
   42.2100   33.0470   41.2070 C   0  0  0  0  0  0  0  0  0  0  0  0
   41.4760   34.1510   40.9490 N   0  0  0  0  0  0  0  0  0  0  0  0
   45.7260   34.9320   43.6570 N   0  0  0  0  0  0  0  0  0  0  0  0
   44.8770   35.5780   44.4490 N   0  0  0  0  0  0  0  0  0  0  0  0
   44.7900   34.9440   45.6320 C   0  0  0  0  0  0  0  0  0  0  0  0
   45.6270   33.8570   45.5630 C   0  0  0  0  0  0  0  0  0  0  0  0
   46.2190   33.8460   44.3240 C   0  0  0  0  0  0  0  0  0  0  0  0
   46.8027   32.6208   41.0985 H   0  0  0  0  0  0  0  0  0  0  0  0
   45.8719   33.1717   39.6258 H   0  0  0  0  0  0  0  0  0  0  0  0
   48.4351   33.4221   39.7091 H   0  0  0  0  0  0  0  0  0  0  0  0
   47.3545   34.7670   39.0969 H   0  0  0  0  0  0  0  0  0  0  0  0
   49.3645   34.8965   41.0507 H   0  0  0  0  0  0  0  0  0  0  0  0
   48.1327   36.1558   40.5255 H   0  0  0  0  0  0  0  0  0  0  0  0
   48.0171   34.2516   42.8284 H   0  0  0  0  0  0  0  0  0  0  0  0
   48.0163   36.0850   42.7883 H   0  0  0  0  0  0  0  0  0  0  0  0
   45.8080   36.1715   41.9983 H   0  0  0  0  0  0  0  0  0  0  0  0
   41.4484   36.2148   40.5940 H   0  0  0  0  0  0  0  0  0  0  0  0
   43.9375   36.4651   40.7936 H   0  0  0  0  0  0  0  0  0  0  0  0
   41.7185   32.0700   41.3248 H   0  0  0  0  0  0  0  0  0  0  0  0
   44.1681   35.2392   46.4899 H   0  0  0  0  0  0  0  0  0  0  0  0
   45.7944   33.1212   46.3634 H   0  0  0  0  0  0  0  0  0  0  0  0
   46.9441   33.1109   43.9447 H   0  0  0  0  0  0  0  0  0  0  0  0
  1  6  1  0
  2  1  1  0
  3  2  1  0
  3  4  1  0
  4  5  1  0
  5  6  1  0
  6 13  1  0
  7  8  2  0
  7 12  1  0
  8  9  1  0
  9  1  1  0
  9 10  2  0
 11 10  1  0
 12 11  2  0
 13 17  1  0
 13 14  1  0
 14 15  2  0
 16 15  1  0
 17 16  2  0
  2 18  1  0
  2 19  1  0
  3 20  1  0
  3 21  1  0
  4 22  1  0
  4 23  1  0
  5 24  1  0
  5 25  1  0
  6 26  1  6
  7 27  1  0
  8 28  1  0
 11 29  1  0
 15 30  1  0
 16 31  1  0
 17 32  1  0
M  ISO  8  18  13  19  13  20  13  21  13  22  13  23  13  24  13  25  13
M  ISO  7  26  13  27  14  28  14  29  14  30  14  31  14  32  14
M  END
>  <minimizedAffinity>  (1) 
-5.28154612

>  <minimizedRMSD>  (1) 
3.82594228

$$$$
