
     RDKit          3D

 32 34  0  0  1  0  0  0  0  0999 V2000
   46.5270   34.5400   42.4270 N   0  0  0  0  0  0  0  0  0  0  0  0
   47.4810   35.5410   42.0400 C   0  0  0  0  0  0  0  0  0  0  0  0
   48.5180   35.0690   41.0820 C   0  0  0  0  0  0  0  0  0  0  0  0
   48.0230   34.0840   40.0720 C   0  0  0  0  0  0  0  0  0  0  0  0
   46.5590   33.8340   40.0800 C   0  0  0  0  0  0  0  0  0  0  0  0
   45.9310   33.6860   41.4370 C   0  0  2  0  0  0  0  0  0  0  0  0
   46.0330   33.2390   45.9020 C   0  0  0  0  0  0  0  0  0  0  0  0
   46.5480   33.3080   44.6020 C   0  0  0  0  0  0  0  0  0  0  0  0
   46.1120   34.3230   43.7660 C   0  0  0  0  0  0  0  0  0  0  0  0
   45.1960   35.2050   44.2700 N   0  0  0  0  0  0  0  0  0  0  0  0
   44.7110   35.1220   45.5270 C   0  0  0  0  0  0  0  0  0  0  0  0
   45.1370   34.1360   46.3310 N   0  0  0  0  0  0  0  0  0  0  0  0
   44.4860   33.9750   41.2710 C   0  0  0  0  0  0  0  0  0  0  0  0
   43.8650   35.1060   40.9160 C   0  0  0  0  0  0  0  0  0  0  0  0
   42.4970   35.1580   40.8220 C   0  0  0  0  0  0  0  0  0  0  0  0
   41.8280   34.0030   41.1080 C   0  0  0  0  0  0  0  0  0  0  0  0
   43.1960   32.7940   41.5280 S   0  0  0  0  0  0  0  0  0  0  0  0
   46.9348   36.3734   41.5722 H   0  0  0  0  0  0  0  0  0  0  0  0
   48.0133   35.8362   42.9563 H   0  0  0  0  0  0  0  0  0  0  0  0
   48.9135   35.9435   40.5446 H   0  0  0  0  0  0  0  0  0  0  0  0
   49.2831   34.5500   41.6780 H   0  0  0  0  0  0  0  0  0  0  0  0
   48.5305   33.1258   40.2574 H   0  0  0  0  0  0  0  0  0  0  0  0
   48.2466   34.5243   39.0891 H   0  0  0  0  0  0  0  0  0  0  0  0
   46.0693   34.6773   39.5711 H   0  0  0  0  0  0  0  0  0  0  0  0
   46.4172   32.8662   39.5767 H   0  0  0  0  0  0  0  0  0  0  0  0
   46.0940   32.6648   41.8121 H   0  0  0  0  0  0  0  0  0  0  0  0
   46.3684   32.4389   46.5782 H   0  0  0  0  0  0  0  0  0  0  0  0
   47.2847   32.5704   44.2511 H   0  0  0  0  0  0  0  0  0  0  0  0
   43.9745   35.8548   45.8882 H   0  0  0  0  0  0  0  0  0  0  0  0
   44.4588   36.0056   40.6967 H   0  0  0  0  0  0  0  0  0  0  0  0
   41.9692   36.0786   40.5325 H   0  0  0  0  0  0  0  0  0  0  0  0
   40.7427   33.8245   41.0949 H   0  0  0  0  0  0  0  0  0  0  0  0
  1  9  1  0
  2  1  1  0
  3  2  1  0
  4  5  1  0
  4  3  1  0
  5  6  1  0
  6  1  1  0
  7 12  2  0
  8  7  1  0
  9 10  1  0
  9  8  2  0
 10 11  2  0
 11 12  1  0
 13  6  1  0
 13 17  1  0
 14 13  2  0
 15 14  1  0
 15 16  2  0
 16 17  1  0
  2 18  1  0
  2 19  1  0
  3 20  1  0
  3 21  1  0
  4 22  1  0
  4 23  1  0
  5 24  1  0
  5 25  1  0
  6 26  1  1
  7 27  1  0
  8 28  1  0
 11 29  1  0
 14 30  1  0
 15 31  1  0
 16 32  1  0
M  ISO  8  18  13  19  13  20  13  21  13  22  13  23  13  24  13  25  13
M  ISO  7  26  13  27  14  28  14  29  14  30  14  31  14  32  14
M  END
>  <minimizedAffinity>  (1) 
-4.97345161

>  <minimizedRMSD>  (1) 
4.66546869

$$$$
