
     RDKit          3D

 32 34  0  0  1  0  0  0  0  0999 V2000
   45.9950   34.4580   41.3560 N   0  0  0  0  0  0  0  0  0  0  0  0
   46.9430   34.0560   40.3490 C   0  0  0  0  0  0  0  0  0  0  0  0
   48.2060   34.8570   40.3530 C   0  0  0  0  0  0  0  0  0  0  0  0
   48.6330   35.3470   41.7160 C   0  0  0  0  0  0  0  0  0  0  0  0
   47.9030   34.6990   42.8500 C   0  0  0  0  0  0  0  0  0  0  0  0
   46.4150   34.7840   42.6730 C   0  0  2  0  0  0  0  0  0  0  0  0
   42.4140   35.5250   41.1940 C   0  0  0  0  0  0  0  0  0  0  0  0
   43.7810   35.5810   41.5360 C   0  0  0  0  0  0  0  0  0  0  0  0
   44.6090   34.5530   41.1010 C   0  0  0  0  0  0  0  0  0  0  0  0
   44.0300   33.5400   40.3600 N   0  0  0  0  0  0  0  0  0  0  0  0
   42.7210   33.5200   40.0520 C   0  0  0  0  0  0  0  0  0  0  0  0
   41.9170   34.5110   40.4700 N   0  0  0  0  0  0  0  0  0  0  0  0
   45.6670   34.0250   43.7110 C   0  0  0  0  0  0  0  0  0  0  0  0
   46.3970   33.5390   44.9400 C   0  0  0  0  0  0  0  0  0  0  0  0
   45.7800   32.5840   43.9310 C   0  0  0  0  0  0  0  0  0  0  0  0
   46.4676   34.1635   39.3629 H   0  0  0  0  0  0  0  0  0  0  0  0
   47.2234   33.0157   40.5709 H   0  0  0  0  0  0  0  0  0  0  0  0
   49.0122   34.2292   39.9456 H   0  0  0  0  0  0  0  0  0  0  0  0
   48.0098   35.7531   39.7460 H   0  0  0  0  0  0  0  0  0  0  0  0
   49.7077   35.1450   41.8355 H   0  0  0  0  0  0  0  0  0  0  0  0
   48.3977   36.4207   41.7571 H   0  0  0  0  0  0  0  0  0  0  0  0
   48.1957   33.6400   42.9037 H   0  0  0  0  0  0  0  0  0  0  0  0
   48.1690   35.2289   43.7765 H   0  0  0  0  0  0  0  0  0  0  0  0
   46.1584   35.8433   42.8215 H   0  0  0  0  0  0  0  0  0  0  0  0
   41.7417   36.3291   41.5277 H   0  0  0  0  0  0  0  0  0  0  0  0
   44.1810   36.4154   42.1308 H   0  0  0  0  0  0  0  0  0  0  0  0
   42.3088   32.6915   39.4574 H   0  0  0  0  0  0  0  0  0  0  0  0
   44.8040   34.6719   43.4946 H   0  0  0  0  0  0  0  0  0  0  0  0
   47.4898   33.6400   45.0142 H   0  0  0  0  0  0  0  0  0  0  0  0
   46.3169   33.7040   46.0246 H   0  0  0  0  0  0  0  0  0  0  0  0
   44.8886   31.9999   44.2036 H   0  0  0  0  0  0  0  0  0  0  0  0
   46.1562   31.7383   43.3366 H   0  0  0  0  0  0  0  0  0  0  0  0
  1  6  1  0
  2  3  1  0
  2  1  1  0
  3  4  1  0
  4  5  1  0
  6  5  1  0
  6 13  1  0
  7  8  2  0
  9  1  1  0
  9  8  1  0
 10  9  2  0
 11 10  1  0
 11 12  2  0
 12  7  1  0
 13 15  1  0
 13 14  1  0
 15 14  1  0
  2 16  1  0
  2 17  1  0
  3 18  1  0
  3 19  1  0
  4 20  1  0
  4 21  1  0
  5 22  1  0
  5 23  1  0
  6 24  1  1
  7 25  1  0
  8 26  1  0
 11 27  1  0
 13 28  1  0
 14 29  1  0
 14 30  1  0
 15 31  1  0
 15 32  1  0
M  ISO  8  16  13  17  13  18  13  19  13  20  13  21  13  22  13  23  13
M  ISO  8  24  13  25  14  26  14  27  14  28  13  29  13  30  13  31  13
M  ISO  1  32  13
M  END
>  <minimizedAffinity>  (1) 
-4.51680708

>  <minimizedRMSD>  (1) 
3.52641106

$$$$
