
     RDKit          3D

 28 29  0  0  1  0  0  0  0  0999 V2000
   46.6780   34.1010   41.9790 N   0  0  0  0  0  0  0  0  0  0  0  0
   46.3140   32.8950   41.2890 C   0  0  0  0  0  0  0  0  0  0  0  0
   46.3690   32.9970   39.8000 C   0  0  0  0  0  0  0  0  0  0  0  0
   47.3940   33.9490   39.2580 C   0  0  0  0  0  0  0  0  0  0  0  0
   48.3950   34.4160   40.2590 C   0  0  0  0  0  0  0  0  0  0  0  0
   47.7860   34.9030   41.5360 C   0  0  2  0  0  0  0  0  0  0  0  0
   44.6570   36.1050   44.3950 C   0  0  0  0  0  0  0  0  0  0  0  0
   45.2900   35.7850   43.1900 C   0  0  0  0  0  0  0  0  0  0  0  0
   45.9880   34.5720   43.1150 C   0  0  0  0  0  0  0  0  0  0  0  0
   46.0140   33.7580   44.2330 N   0  0  0  0  0  0  0  0  0  0  0  0
   45.3800   34.1200   45.3810 C   0  0  0  0  0  0  0  0  0  0  0  0
   44.7090   35.2900   45.4480 N   0  0  0  0  0  0  0  0  0  0  0  0
   48.8580   34.9310   42.6000 C   0  0  0  0  0  0  0  0  0  0  0  0
   47.0016   32.0966   41.6050 H   0  0  0  0  0  0  0  0  0  0  0  0
   45.2663   32.6865   41.5515 H   0  0  0  0  0  0  0  0  0  0  0  0
   46.5894   31.9966   39.3992 H   0  0  0  0  0  0  0  0  0  0  0  0
   45.3917   33.3931   39.4869 H   0  0  0  0  0  0  0  0  0  0  0  0
   47.9333   33.4452   38.4423 H   0  0  0  0  0  0  0  0  0  0  0  0
   46.8455   34.8422   38.9242 H   0  0  0  0  0  0  0  0  0  0  0  0
   49.0691   33.5788   40.4928 H   0  0  0  0  0  0  0  0  0  0  0  0
   48.9253   35.2687   39.8099 H   0  0  0  0  0  0  0  0  0  0  0  0
   47.3832   35.9097   41.3509 H   0  0  0  0  0  0  0  0  0  0  0  0
   44.1030   37.0519   44.4757 H   0  0  0  0  0  0  0  0  0  0  0  0
   45.2416   36.4650   42.3267 H   0  0  0  0  0  0  0  0  0  0  0  0
   45.4141   33.4570   46.2581 H   0  0  0  0  0  0  0  0  0  0  0  0
   48.3880   34.9187   43.5945 H   0  0  0  0  0  0  0  0  0  0  0  0
   49.5068   34.0495   42.4902 H   0  0  0  0  0  0  0  0  0  0  0  0
   49.4599   35.8452   42.4902 H   0  0  0  0  0  0  0  0  0  0  0  0
  1  9  1  0
  2  1  1  0
  3  2  1  0
  4  3  1  0
  4  5  1  0
  5  6  1  0
  6  1  1  0
  6 13  1  0
  7 12  2  0
  8  7  1  0
  9  8  2  0
  9 10  1  0
 10 11  2  0
 11 12  1  0
  2 14  1  0
  2 15  1  0
  3 16  1  0
  3 17  1  0
  4 18  1  0
  4 19  1  0
  5 20  1  0
  5 21  1  0
  6 22  1  6
  7 23  1  0
  8 24  1  0
 11 25  1  0
 13 26  1  0
 13 27  1  0
 13 28  1  0
M  ISO  8  14  13  15  13  16  13  17  13  18  13  19  13  20  13  21  13
M  ISO  7  22  13  23  14  24  14  25  14  26   8  27   8  28   8
M  END
>  <minimizedAffinity>  (1) 
-4.31107998

>  <minimizedRMSD>  (1) 
0.596675336

$$$$
