
     RDKit          3D

 38 40  0  0  1  0  0  0  0  0999 V2000
   47.5660   33.2450   39.4250 N   0  0  0  0  0  0  0  0  0  0  0  0
   46.2180   32.7650   39.4270 C   0  0  0  0  0  0  0  0  0  0  0  0
   45.4640   33.0380   38.1700 C   0  0  0  0  0  0  0  0  0  0  0  0
   46.2900   32.9900   36.9150 C   0  0  0  0  0  0  0  0  0  0  0  0
   47.6750   32.4850   37.1000 C   0  0  0  0  0  0  0  0  0  0  0  0
   48.4110   33.0100   38.2930 C   0  0  2  0  0  0  0  0  0  0  0  0
   49.1600   35.7720   41.6750 C   0  0  0  0  0  0  0  0  0  0  0  0
   48.5930   35.2450   40.5130 C   0  0  0  0  0  0  0  0  0  0  0  0
   48.1640   33.9260   40.5170 C   0  0  0  0  0  0  0  0  0  0  0  0
   48.3300   33.2000   41.6810 N   0  0  0  0  0  0  0  0  0  0  0  0
   48.8960   33.7390   42.7760 C   0  0  0  0  0  0  0  0  0  0  0  0
   49.3000   35.0130   42.7770 N   0  0  0  0  0  0  0  0  0  0  0  0
   49.6750   31.7530   38.7270 S   0  0  0  0  0  0  0  0  0  0  0  0
   52.0430   32.4090   37.8080 N   0  0  0  0  0  0  0  0  0  0  0  0
   53.1850   31.5450   37.9590 C   0  0  0  0  0  0  0  0  0  0  0  0
   52.5670   30.2180   38.3630 C   0  0  0  0  0  0  0  0  0  0  0  0
   51.3810   30.1590   37.4080 C   0  0  0  0  0  0  0  0  0  0  0  0
   50.9180   31.5950   37.4310 C   0  0  1  0  0  0  0  0  0  0  0  0
   46.2408   31.6766   39.5848 H   0  0  0  0  0  0  0  0  0  0  0  0
   45.6944   33.3044   40.2300 H   0  0  0  0  0  0  0  0  0  0  0  0
   44.6638   32.2884   38.0816 H   0  0  0  0  0  0  0  0  0  0  0  0
   45.0874   34.0682   38.2530 H   0  0  0  0  0  0  0  0  0  0  0  0
   46.3492   34.0090   36.5050 H   0  0  0  0  0  0  0  0  0  0  0  0
   45.7887   32.2797   36.2411 H   0  0  0  0  0  0  0  0  0  0  0  0
   47.6246   31.3899   37.1907 H   0  0  0  0  0  0  0  0  0  0  0  0
   48.2390   32.8387   36.2243 H   0  0  0  0  0  0  0  0  0  0  0  0
   48.8504   33.9851   38.0357 H   0  0  0  0  0  0  0  0  0  0  0  0
   49.4960   36.8193   41.6896 H   0  0  0  0  0  0  0  0  0  0  0  0
   48.4884   35.8649   39.6103 H   0  0  0  0  0  0  0  0  0  0  0  0
   49.0276   33.1252   43.6793 H   0  0  0  0  0  0  0  0  0  0  0  0
   51.8459   32.8871   38.6988 H   0  0  0  0  0  0  0  0  0  0  0  0
   53.7362   31.4510   37.0117 H   0  0  0  0  0  0  0  0  0  0  0  0
   53.9156   31.9205   38.6906 H   0  0  0  0  0  0  0  0  0  0  0  0
   53.2614   29.3806   38.1997 H   0  0  0  0  0  0  0  0  0  0  0  0
   52.3012   30.1424   39.4277 H   0  0  0  0  0  0  0  0  0  0  0  0
   50.6001   29.4773   37.7760 H   0  0  0  0  0  0  0  0  0  0  0  0
   51.6258   29.7785   36.4054 H   0  0  0  0  0  0  0  0  0  0  0  0
   50.5139   31.8969   36.4535 H   0  0  0  0  0  0  0  0  0  0  0  0
  1  2  1  0
  1  9  1  0
  3  2  1  0
  4  5  1  0
  4  3  1  0
  5  6  1  0
  6 13  1  0
  6  1  1  0
  7 12  2  0
  8  9  2  0
  8  7  1  0
  9 10  1  0
 10 11  2  0
 11 12  1  0
 14 15  1  0
 15 16  1  0
 17 18  1  0
 17 16  1  0
 18 14  1  0
 18 13  1  0
  2 19  1  0
  2 20  1  0
  3 21  1  0
  3 22  1  0
  4 23  1  0
  4 24  1  0
  5 25  1  0
  5 26  1  0
  6 27  1  6
  7 28  1  0
  8 29  1  0
 11 30  1  0
 14 31  1  0
 15 32  1  0
 15 33  1  0
 16 34  1  0
 16 35  1  0
 17 36  1  0
 17 37  1  0
 18 38  1  6
M  ISO  8  19  13  20  13  21  13  22  13  23  13  24  13  25  13  26  13
M  ISO  8  27  13  28  14  29  14  30  14  31   5  32  13  33  13  34  13
M  ISO  4  35  13  36  13  37  13  38  13
M  END
>  <minimizedAffinity>  (1) 
-4.19433928

>  <minimizedRMSD>  (1) 
5.46650887

$$$$
