
     RDKit          3D

 48 51  0  0  1  0  0  0  0  0999 V2000
   44.9680   33.2610   39.3470 N   0  0  0  0  0  0  0  0  0  0  0  0
   44.8300   32.3400   38.2450 C   0  0  0  0  0  0  0  0  0  0  0  0
   45.6390   32.7130   37.0500 C   0  0  0  0  0  0  0  0  0  0  0  0
   46.9680   33.2950   37.3600 C   0  0  0  0  0  0  0  0  0  0  0  0
   47.3370   33.2860   38.8060 C   0  0  0  0  0  0  0  0  0  0  0  0
   46.2640   33.7420   39.7580 C   0  0  2  0  0  0  0  0  0  0  0  0
   42.5400   35.3330   41.2770 C   0  0  0  0  0  0  0  0  0  0  0  0
   43.6910   35.0240   40.5490 C   0  0  0  0  0  0  0  0  0  0  0  0
   43.8700   33.7410   40.0920 C   0  0  0  0  0  0  0  0  0  0  0  0
   42.8770   32.8410   40.3940 N   0  0  0  0  0  0  0  0  0  0  0  0
   41.7820   33.1510   41.0900 C   0  0  0  0  0  0  0  0  0  0  0  0
   41.6160   34.4050   41.5320 N   0  0  0  0  0  0  0  0  0  0  0  0
   46.7060   32.9210   41.3410 S   0  0  0  0  0  0  0  0  0  0  0  0
   48.4410   33.6560   43.1530 N   0  0  0  0  0  0  0  0  0  0  0  0
   49.4680   34.6280   42.8930 C   0  0  0  0  0  0  0  0  0  0  0  0
   49.0420   35.2340   41.5650 C   0  0  0  0  0  0  0  0  0  0  0  0
   47.5550   35.4040   41.7790 C   0  0  0  0  0  0  0  0  0  0  0  0
   47.2330   34.1090   42.5820 C   0  0  1  0  0  0  0  0  0  0  0  0
   46.2880   34.4830   43.6340 C   0  0  0  0  0  0  0  0  0  0  0  0
   46.3930   33.6190   44.7430 C   0  0  0  0  0  0  0  0  0  0  0  0
   45.5780   33.8180   45.8630 C   0  0  0  0  0  0  0  0  0  0  0  0
   44.6630   34.8490   45.9150 C   0  0  0  0  0  0  0  0  0  0  0  0
   44.5760   35.6840   44.8210 C   0  0  0  0  0  0  0  0  0  0  0  0
   45.3570   35.5290   43.6950 C   0  0  0  0  0  0  0  0  0  0  0  0
   45.1487   31.3430   38.5832 H   0  0  0  0  0  0  0  0  0  0  0  0
   43.7738   32.3602   37.9383 H   0  0  0  0  0  0  0  0  0  0  0  0
   45.0690   33.4512   36.4668 H   0  0  0  0  0  0  0  0  0  0  0  0
   45.8285   31.7801   36.4988 H   0  0  0  0  0  0  0  0  0  0  0  0
   47.7287   32.7217   36.8098 H   0  0  0  0  0  0  0  0  0  0  0  0
   46.9186   34.3525   37.0612 H   0  0  0  0  0  0  0  0  0  0  0  0
   47.6139   32.2566   39.0774 H   0  0  0  0  0  0  0  0  0  0  0  0
   48.1571   34.0117   38.9099 H   0  0  0  0  0  0  0  0  0  0  0  0
   46.2085   34.8391   39.8145 H   0  0  0  0  0  0  0  0  0  0  0  0
   42.3928   36.3586   41.6463 H   0  0  0  0  0  0  0  0  0  0  0  0
   44.4449   35.7984   40.3441 H   0  0  0  0  0  0  0  0  0  0  0  0
   41.0219   32.3838   41.2992 H   0  0  0  0  0  0  0  0  0  0  0  0
   48.7049   32.7528   42.7341 H   0  0  0  0  0  0  0  0  0  0  0  0
   49.4980   35.3918   43.6840 H   0  0  0  0  0  0  0  0  0  0  0  0
   50.4779   34.1928   42.8652 H   0  0  0  0  0  0  0  0  0  0  0  0
   49.2528   34.5542   40.7263 H   0  0  0  0  0  0  0  0  0  0  0  0
   49.5685   36.1642   41.3053 H   0  0  0  0  0  0  0  0  0  0  0  0
   47.3296   36.3095   42.3615 H   0  0  0  0  0  0  0  0  0  0  0  0
   46.9705   35.5275   40.8554 H   0  0  0  0  0  0  0  0  0  0  0  0
   47.1149   32.7892   44.7279 H   0  0  0  0  0  0  0  0  0  0  0  0
   45.6691   33.1366   46.7217 H   0  0  0  0  0  0  0  0  0  0  0  0
   44.0250   34.9998   46.7983 H   0  0  0  0  0  0  0  0  0  0  0  0
   43.8510   36.5109   44.8477 H   0  0  0  0  0  0  0  0  0  0  0  0
   45.2498   36.2232   42.8485 H   0  0  0  0  0  0  0  0  0  0  0  0
  1  6  1  0
  1  9  1  0
  2  1  1  0
  3  4  1  0
  3  2  1  0
  4  5  1  0
  5  6  1  0
  6 13  1  0
  7 12  2  0
  8  7  1  0
  9 10  1  0
  9  8  2  0
 10 11  2  0
 11 12  1  0
 15 14  1  0
 16 17  1  0
 16 15  1  0
 17 18  1  0
 18 13  1  6
 18 14  1  0
 18 19  1  0
 19 24  1  0
 19 20  2  0
 20 21  1  0
 21 22  2  0
 23 22  1  0
 24 23  2  0
  2 25  1  0
  2 26  1  0
  3 27  1  0
  3 28  1  0
  4 29  1  0
  4 30  1  0
  5 31  1  0
  5 32  1  0
  6 33  1  1
  7 34  1  0
  8 35  1  0
 11 36  1  0
 14 37  1  0
 15 38  1  0
 15 39  1  0
 16 40  1  0
 16 41  1  0
 17 42  1  0
 17 43  1  0
 20 44  1  0
 21 45  1  0
 22 46  1  0
 23 47  1  0
 24 48  1  0
M  ISO  8  25  13  26  13  27  13  28  13  29  13  30  13  31  13  32  13
M  ISO  8  33  13  34  14  35  14  36  14  37   5  38  13  39  13  40  13
M  ISO  8  41  13  42  13  43  13  44  14  45  14  46  14  47  14  48  14
M  END
>  <minimizedAffinity>  (1) 
-5.95185661

>  <minimizedRMSD>  (1) 
7.39450741

$$$$
