
     RDKit          3D

 51 54  0  0  1  0  0  0  0  0999 V2000
   44.5890   33.5400   41.1770 N   0  0  0  0  0  0  0  0  0  0  0  0
   43.3860   32.8390   40.7950 C   0  0  0  0  0  0  0  0  0  0  0  0
   42.9610   33.0850   39.3870 C   0  0  0  0  0  0  0  0  0  0  0  0
   44.0770   33.2920   38.4210 C   0  0  0  0  0  0  0  0  0  0  0  0
   45.4210   32.9430   38.9780 C   0  0  0  0  0  0  0  0  0  0  0  0
   45.7370   33.5810   40.3060 C   0  0  2  0  0  0  0  0  0  0  0  0
   44.7320   36.0850   43.9020 C   0  0  0  0  0  0  0  0  0  0  0  0
   44.5550   35.5650   42.6160 C   0  0  0  0  0  0  0  0  0  0  0  0
   44.7250   34.2170   42.4100 C   0  0  0  0  0  0  0  0  0  0  0  0
   45.0630   33.4690   43.5070 N   0  0  0  0  0  0  0  0  0  0  0  0
   45.2270   33.9780   44.7270 C   0  0  0  0  0  0  0  0  0  0  0  0
   45.0620   35.2830   44.9230 N   0  0  0  0  0  0  0  0  0  0  0  0
   47.0270   32.4790   41.0090 S   0  0  0  0  0  0  0  0  0  0  0  0
   48.5520   34.5050   40.3770 N   0  0  0  0  0  0  0  0  0  0  0  0
   48.7890   35.6130   41.2600 C   0  0  0  0  0  0  0  0  0  0  0  0
   48.2210   35.1230   42.5770 C   0  0  0  0  0  0  0  0  0  0  0  0
   48.7460   33.7040   42.6270 C   0  0  0  0  0  0  0  0  0  0  0  0
   48.6180   33.3110   41.1240 C   0  0  1  0  0  0  0  0  0  0  0  0
   51.9000   31.0610   39.5890 C   0  0  0  0  0  0  0  0  0  0  0  0
   50.7440   31.3050   38.8790 C   0  0  0  0  0  0  0  0  0  0  0  0
   49.7080   32.0490   39.4540 C   0  0  0  0  0  0  0  0  0  0  0  0
   49.8200   32.5640   40.7620 C   0  0  0  0  0  0  0  0  0  0  0  0
   51.0060   32.3010   41.4610 C   0  0  0  0  0  0  0  0  0  0  0  0
   52.0080   31.5640   40.8660 C   0  0  0  0  0  0  0  0  0  0  0  0
   53.2690   30.1520   39.0000 S   0  0  0  0  0  0  0  0  0  0  0  0
   54.2130   31.1270   38.3170 O   0  0  0  0  0  0  0  0  0  0  0  0
   53.9570   29.3990   40.0870 O   0  0  0  0  0  0  0  0  0  0  0  0
   43.5600   31.7601   40.9202 H   0  0  0  0  0  0  0  0  0  0  0  0
   42.5795   33.2161   41.4410 H   0  0  0  0  0  0  0  0  0  0  0  0
   42.3746   32.2172   39.0506 H   0  0  0  0  0  0  0  0  0  0  0  0
   42.3852   34.0222   39.3981 H   0  0  0  0  0  0  0  0  0  0  0  0
   44.0878   34.3509   38.1232 H   0  0  0  0  0  0  0  0  0  0  0  0
   43.8958   32.6207   37.5686 H   0  0  0  0  0  0  0  0  0  0  0  0
   45.4672   31.8511   39.1028 H   0  0  0  0  0  0  0  0  0  0  0  0
   46.1632   33.3286   38.2635 H   0  0  0  0  0  0  0  0  0  0  0  0
   46.0406   34.6330   40.2003 H   0  0  0  0  0  0  0  0  0  0  0  0
   44.5990   37.1628   44.0769 H   0  0  0  0  0  0  0  0  0  0  0  0
   44.2832   36.2264   41.7801 H   0  0  0  0  0  0  0  0  0  0  0  0
   45.4975   33.3224   45.5679 H   0  0  0  0  0  0  0  0  0  0  0  0
   49.2688   34.4915   39.6374 H   0  0  0  0  0  0  0  0  0  0  0  0
   49.8646   35.8263   41.3477 H   0  0  0  0  0  0  0  0  0  0  0  0
   48.3326   36.5514   40.9121 H   0  0  0  0  0  0  0  0  0  0  0  0
   48.5954   35.7193   43.4221 H   0  0  0  0  0  0  0  0  0  0  0  0
   47.1257   35.1972   42.6468 H   0  0  0  0  0  0  0  0  0  0  0  0
   49.7904   33.6676   42.9703 H   0  0  0  0  0  0  0  0  0  0  0  0
   48.2156   33.0395   43.3250 H   0  0  0  0  0  0  0  0  0  0  0  0
   50.6356   30.9134   37.8568 H   0  0  0  0  0  0  0  0  0  0  0  0
   48.7908   32.2353   38.8761 H   0  0  0  0  0  0  0  0  0  0  0  0
   51.1375   32.6826   42.4843 H   0  0  0  0  0  0  0  0  0  0  0  0
   52.9299   31.3703   41.4340 H   0  0  0  0  0  0  0  0  0  0  0  0
   52.8382   29.2039   38.1099 H   0  0  0  0  0  0  0  0  0  0  0  0
  1  9  1  0
  2  1  1  0
  3  2  1  0
  4  5  1  0
  4  3  1  0
  5  6  1  0
  6 13  1  0
  6  1  1  0
  7 12  2  0
  8  7  1  0
  9  8  2  0
  9 10  1  0
 10 11  2  0
 11 12  1  0
 14 18  1  0
 14 15  1  0
 15 16  1  0
 16 17  1  0
 18 13  1  1
 18 17  1  0
 19 24  2  0
 20 21  2  0
 20 19  1  0
 21 22  1  0
 22 18  1  0
 22 23  2  0
 24 23  1  0
 25 19  1  0
 25 27  2  0
 26 25  2  0
  2 28  1  0
  2 29  1  0
  3 30  1  0
  3 31  1  0
  4 32  1  0
  4 33  1  0
  5 34  1  0
  5 35  1  0
  6 36  1  6
  7 37  1  0
  8 38  1  0
 11 39  1  0
 14 40  1  0
 15 41  1  0
 15 42  1  0
 16 43  1  0
 16 44  1  0
 17 45  1  0
 17 46  1  0
 20 47  1  0
 21 48  1  0
 23 49  1  0
 24 50  1  0
 25 51  1  0
M  ISO  8  28  13  29  13  30  13  31  13  32  13  33  13  34  13  35  13
M  ISO  8  36  13  37  14  38  14  39  14  40   5  41  13  42  13  43  13
M  ISO  8  44  13  45  13  46  13  47  14  48  14  49  14  50  14  51  11
M  END
>  <minimizedAffinity>  (1) 
-5.32120991

>  <minimizedRMSD>  (1) 
5.64960766

$$$$
