
     RDKit          3D

 51 54  0  0  1  0  0  0  0  0999 V2000
   44.2530   33.0230   41.8410 N   0  0  0  0  0  0  0  0  0  0  0  0
   42.9250   32.5040   41.7830 C   0  0  0  0  0  0  0  0  0  0  0  0
   41.9260   33.4020   41.1570 C   0  0  0  0  0  0  0  0  0  0  0  0
   42.4540   34.2480   40.0560 C   0  0  0  0  0  0  0  0  0  0  0  0
   43.8470   33.9380   39.6200 C   0  0  0  0  0  0  0  0  0  0  0  0
   44.8450   33.6840   40.7110 C   0  0  2  0  0  0  0  0  0  0  0  0
   46.5520   33.7070   44.7100 C   0  0  0  0  0  0  0  0  0  0  0  0
   45.7740   33.9490   43.5880 C   0  0  0  0  0  0  0  0  0  0  0  0
   45.0810   32.9300   42.9840 C   0  0  0  0  0  0  0  0  0  0  0  0
   45.2120   31.6900   43.5530 N   0  0  0  0  0  0  0  0  0  0  0  0
   45.9660   31.4700   44.6350 C   0  0  0  0  0  0  0  0  0  0  0  0
   46.6310   32.4680   45.2110 N   0  0  0  0  0  0  0  0  0  0  0  0
   46.0740   32.5750   39.9560 S   0  0  0  0  0  0  0  0  0  0  0  0
   48.6430   32.1710   39.9360 N   0  0  0  0  0  0  0  0  0  0  0  0
   49.3980   32.1830   38.7050 C   0  0  0  0  0  0  0  0  0  0  0  0
   48.4860   32.8420   37.7170 C   0  0  0  0  0  0  0  0  0  0  0  0
   47.8330   33.9270   38.5330 C   0  0  0  0  0  0  0  0  0  0  0  0
   47.7340   33.2380   39.9250 C   0  0  1  0  0  0  0  0  0  0  0  0
   48.1770   34.2400   40.8860 C   0  0  0  0  0  0  0  0  0  0  0  0
   49.3790   33.6710   41.6820 C   0  0  0  0  0  0  0  0  0  0  0  0
   49.5430   34.8570   42.6570 C   0  0  0  0  0  0  0  0  0  0  0  0
   49.1540   36.0930   41.8320 C   0  0  0  0  0  0  0  0  0  0  0  0
   48.8710   35.4750   40.4480 C   0  0  0  0  0  0  0  0  0  0  0  0
   42.9500   31.5675   41.2065 H   0  0  0  0  0  0  0  0  0  0  0  0
   42.6034   32.3678   42.8261 H   0  0  0  0  0  0  0  0  0  0  0  0
   41.1134   32.7809   40.7521 H   0  0  0  0  0  0  0  0  0  0  0  0
   41.5920   34.0922   41.9457 H   0  0  0  0  0  0  0  0  0  0  0  0
   41.7914   34.1253   39.1866 H   0  0  0  0  0  0  0  0  0  0  0  0
   42.4820   35.2745   40.4503 H   0  0  0  0  0  0  0  0  0  0  0  0
   43.8076   33.0397   38.9863 H   0  0  0  0  0  0  0  0  0  0  0  0
   44.2007   34.8430   39.1044 H   0  0  0  0  0  0  0  0  0  0  0  0
   45.2667   34.6289   41.0843 H   0  0  0  0  0  0  0  0  0  0  0  0
   47.1029   34.5309   45.1872 H   0  0  0  0  0  0  0  0  0  0  0  0
   45.7117   34.9678   43.1780 H   0  0  0  0  0  0  0  0  0  0  0  0
   46.0371   30.4549   45.0526 H   0  0  0  0  0  0  0  0  0  0  0  0
   48.1302   31.2815   40.0178 H   0  0  0  0  0  0  0  0  0  0  0  0
   50.3267   32.7605   38.8233 H   0  0  0  0  0  0  0  0  0  0  0  0
   49.7012   31.1741   38.3885 H   0  0  0  0  0  0  0  0  0  0  0  0
   47.7389   32.1317   37.3331 H   0  0  0  0  0  0  0  0  0  0  0  0
   49.0108   33.2230   36.8285 H   0  0  0  0  0  0  0  0  0  0  0  0
   48.4573   34.8318   38.5742 H   0  0  0  0  0  0  0  0  0  0  0  0
   46.8702   34.2767   38.1322 H   0  0  0  0  0  0  0  0  0  0  0  0
   47.2033   34.4699   41.3433 H   0  0  0  0  0  0  0  0  0  0  0  0
   49.1333   32.7322   42.1999 H   0  0  0  0  0  0  0  0  0  0  0  0
   50.2670   33.3907   41.0964 H   0  0  0  0  0  0  0  0  0  0  0  0
   48.8752   34.7426   43.5236 H   0  0  0  0  0  0  0  0  0  0  0  0
   50.5643   34.9283   43.0593 H   0  0  0  0  0  0  0  0  0  0  0  0
   48.2584   36.5824   42.2424 H   0  0  0  0  0  0  0  0  0  0  0  0
   49.9234   36.8790   41.8190 H   0  0  0  0  0  0  0  0  0  0  0  0
   49.7972   35.2548   39.8969 H   0  0  0  0  0  0  0  0  0  0  0  0
   48.3087   36.1127   39.7500 H   0  0  0  0  0  0  0  0  0  0  0  0
  1  9  1  0
  2  1  1  0
  3  2  1  0
  4  3  1  0
  5  4  1  0
  5  6  1  0
  6  1  1  0
  7 12  2  0
  8  7  1  0
  9 10  1  0
  9  8  2  0
 10 11  2  0
 11 12  1  0
 13  6  1  0
 15 14  1  0
 16 17  1  0
 16 15  1  0
 17 18  1  0
 18 14  1  0
 18 13  1  1
 18 19  1  0
 19 20  1  0
 20 21  1  0
 22 21  1  0
 23 19  1  0
 23 22  1  0
  2 24  1  0
  2 25  1  0
  3 26  1  0
  3 27  1  0
  4 28  1  0
  4 29  1  0
  5 30  1  0
  5 31  1  0
  6 32  1  1
  7 33  1  0
  8 34  1  0
 11 35  1  0
 14 36  1  0
 15 37  1  0
 15 38  1  0
 16 39  1  0
 16 40  1  0
 17 41  1  0
 17 42  1  0
 19 43  1  0
 20 44  1  0
 20 45  1  0
 21 46  1  0
 21 47  1  0
 22 48  1  0
 22 49  1  0
 23 50  1  0
 23 51  1  0
M  ISO  8  24  13  25  13  26  13  27  13  28  13  29  13  30  13  31  13
M  ISO  8  32  13  33  14  34  14  35  14  36   5  37  13  38  13  39  13
M  ISO  8  40  13  41  13  42  13  43  13  44  13  45  13  46  13  47  13
M  ISO  4  48  13  49  13  50  13  51  13
M  END
>  <minimizedAffinity>  (1) 
-5.09201145

>  <minimizedRMSD>  (1) 
5.20578718

$$$$
