
     RDKit          3D

 45 48  0  0  1  0  0  0  0  0999 V2000
   46.9330   33.3300   40.1790 N   0  0  0  0  0  0  0  0  0  0  0  0
   45.6410   32.9540   40.6970 C   0  0  0  0  0  0  0  0  0  0  0  0
   44.5090   33.2250   39.7700 C   0  0  0  0  0  0  0  0  0  0  0  0
   44.8280   33.0580   38.3260 C   0  0  0  0  0  0  0  0  0  0  0  0
   46.1550   32.4230   38.0620 C   0  0  0  0  0  0  0  0  0  0  0  0
   47.3130   33.0190   38.8240 C   0  0  2  0  0  0  0  0  0  0  0  0
   49.3020   35.8270   41.6180 C   0  0  0  0  0  0  0  0  0  0  0  0
   48.3310   35.3010   40.7690 C   0  0  0  0  0  0  0  0  0  0  0  0
   47.9000   34.0090   40.9500 C   0  0  0  0  0  0  0  0  0  0  0  0
   48.4770   33.3190   41.9860 N   0  0  0  0  0  0  0  0  0  0  0  0
   49.4050   33.8340   42.7930 C   0  0  0  0  0  0  0  0  0  0  0  0
   49.8150   35.0890   42.6060 N   0  0  0  0  0  0  0  0  0  0  0  0
   48.5420   31.6530   38.8710 S   0  0  0  0  0  0  0  0  0  0  0  0
   50.7650   32.5100   37.7870 N   0  0  0  0  0  0  0  0  0  0  0  0
   51.9530   31.7010   37.7040 C   0  0  0  0  0  0  0  0  0  0  0  0
   51.4550   30.3220   38.0610 C   0  0  0  0  0  0  0  0  0  0  0  0
   50.1540   30.2430   37.3010 C   0  0  0  0  0  0  0  0  0  0  0  0
   49.6540   31.7160   37.4600 C   0  0  1  0  0  0  0  0  0  0  0  0
   49.1060   32.0520   36.1510 C   0  0  0  0  0  0  0  0  0  0  0  0
   48.9820   31.0030   35.2200 C   0  0  0  0  0  0  0  0  0  0  0  0
   48.4340   31.5860   34.0690 C   0  0  0  0  0  0  0  0  0  0  0  0
   48.2520   32.9050   34.3240 N   0  0  0  0  0  0  0  0  0  0  0  0
   48.6460   33.1920   35.5530 N   0  0  0  0  0  0  0  0  0  0  0  0
   45.6574   31.8760   40.9153 H   0  0  0  0  0  0  0  0  0  0  0  0
   45.4692   33.5682   41.5932 H   0  0  0  0  0  0  0  0  0  0  0  0
   43.6894   32.5356   40.0208 H   0  0  0  0  0  0  0  0  0  0  0  0
   44.2446   34.2839   39.9071 H   0  0  0  0  0  0  0  0  0  0  0  0
   44.0481   32.4299   37.8707 H   0  0  0  0  0  0  0  0  0  0  0  0
   44.8685   34.0680   37.8920 H   0  0  0  0  0  0  0  0  0  0  0  0
   46.0827   31.3586   38.3298 H   0  0  0  0  0  0  0  0  0  0  0  0
   46.3694   32.5933   36.9966 H   0  0  0  0  0  0  0  0  0  0  0  0
   47.6778   33.9474   38.3603 H   0  0  0  0  0  0  0  0  0  0  0  0
   49.6498   36.8605   41.4733 H   0  0  0  0  0  0  0  0  0  0  0  0
   47.9120   35.9160   39.9589 H   0  0  0  0  0  0  0  0  0  0  0  0
   49.8293   33.2280   43.6071 H   0  0  0  0  0  0  0  0  0  0  0  0
   50.6604   32.8744   38.7447 H   0  0  0  0  0  0  0  0  0  0  0  0
   52.3720   31.7183   36.6871 H   0  0  0  0  0  0  0  0  0  0  0  0
   52.7615   32.0521   38.3621 H   0  0  0  0  0  0  0  0  0  0  0  0
   52.1590   29.5455   37.7273 H   0  0  0  0  0  0  0  0  0  0  0  0
   51.3432   30.1607   39.1433 H   0  0  0  0  0  0  0  0  0  0  0  0
   49.4577   29.5244   37.7579 H   0  0  0  0  0  0  0  0  0  0  0  0
   50.2461   29.8956   36.2614 H   0  0  0  0  0  0  0  0  0  0  0  0
   49.2572   29.9480   35.3653 H   0  0  0  0  0  0  0  0  0  0  0  0
   48.1949   31.0671   33.1290 H   0  0  0  0  0  0  0  0  0  0  0  0
   47.8627   33.5857   33.6562 H   0  0  0  0  0  0  0  0  0  0  0  0
  1  2  1  0
  1  9  1  0
  3  2  1  0
  4  3  1  0
  5  4  1  0
  5  6  1  0
  6 13  1  0
  6  1  1  0
  7 12  2  0
  8  9  2  0
  8  7  1  0
  9 10  1  0
 10 11  2  0
 12 11  1  0
 15 14  1  0
 15 16  1  0
 17 18  1  0
 17 16  1  0
 18 14  1  0
 18 13  1  1
 19 18  1  0
 20 19  1  0
 21 22  1  0
 21 20  2  0
 22 23  1  0
 23 19  2  0
  2 24  1  0
  2 25  1  0
  3 26  1  0
  3 27  1  0
  4 28  1  0
  4 29  1  0
  5 30  1  0
  5 31  1  0
  6 32  1  6
  7 33  1  0
  8 34  1  0
 11 35  1  0
 14 36  1  0
 15 37  1  0
 15 38  1  0
 16 39  1  0
 16 40  1  0
 17 41  1  0
 17 42  1  0
 20 43  1  0
 21 44  1  0
 22 45  1  0
M  ISO  8  24  13  25  13  26  13  27  13  28  13  29  13  30  13  31  13
M  ISO  8  32  13  33  14  34  14  35  14  36   5  37  13  38  13  39  13
M  ISO  6  40  13  41  13  42  13  43  14  44  14  45   9
M  END
>  <minimizedAffinity>  (1) 
-4.70604181

>  <minimizedRMSD>  (1) 
1.30543625

$$$$
