
     RDKit          3D

 41 43  0  0  1  0  0  0  0  0999 V2000
   47.8000   33.1940   39.4960 N   0  0  0  0  0  0  0  0  0  0  0  0
   46.4340   32.7940   39.5450 C   0  0  0  0  0  0  0  0  0  0  0  0
   45.6710   33.0080   38.2880 C   0  0  0  0  0  0  0  0  0  0  0  0
   46.4650   32.8230   37.0430 C   0  0  0  0  0  0  0  0  0  0  0  0
   47.8410   32.2830   37.2340 C   0  0  0  0  0  0  0  0  0  0  0  0
   48.6320   32.8780   38.3720 C   0  0  2  0  0  0  0  0  0  0  0  0
   49.2270   35.8530   41.7080 C   0  0  0  0  0  0  0  0  0  0  0  0
   48.5690   35.2810   40.6320 C   0  0  0  0  0  0  0  0  0  0  0  0
   48.4410   33.9180   40.5300 C   0  0  0  0  0  0  0  0  0  0  0  0
   48.9980   33.1910   41.5470 N   0  0  0  0  0  0  0  0  0  0  0  0
   49.6310   33.7470   42.5800 C   0  0  0  0  0  0  0  0  0  0  0  0
   49.7480   35.0810   42.6650 N   0  0  0  0  0  0  0  0  0  0  0  0
   49.7930   31.5470   38.8500 S   0  0  0  0  0  0  0  0  0  0  0  0
   52.0350   32.3320   37.7590 N   0  0  0  0  0  0  0  0  0  0  0  0
   53.3100   31.7550   38.1360 C   0  0  0  0  0  0  0  0  0  0  0  0
   52.9340   30.5160   38.9050 C   0  0  0  0  0  0  0  0  0  0  0  0
   51.7930   29.9710   38.0820 C   0  0  0  0  0  0  0  0  0  0  0  0
   51.0960   31.2970   37.6690 C   0  0  1  0  0  0  0  0  0  0  0  0
   50.7310   31.0270   36.2580 C   0  0  0  0  0  0  0  0  0  0  0  0
   46.4011   31.7211   39.7856 H   0  0  0  0  0  0  0  0  0  0  0  0
   45.9555   33.4275   40.3064 H   0  0  0  0  0  0  0  0  0  0  0  0
   44.8330   32.2957   38.2697 H   0  0  0  0  0  0  0  0  0  0  0  0
   45.3440   34.0582   38.2964 H   0  0  0  0  0  0  0  0  0  0  0  0
   46.5506   33.8011   36.5471 H   0  0  0  0  0  0  0  0  0  0  0  0
   45.9250   32.0707   36.4493 H   0  0  0  0  0  0  0  0  0  0  0  0
   47.7562   31.2009   37.4125 H   0  0  0  0  0  0  0  0  0  0  0  0
   48.3927   32.5461   36.3195 H   0  0  0  0  0  0  0  0  0  0  0  0
   49.1211   33.8157   38.0696 H   0  0  0  0  0  0  0  0  0  0  0  0
   49.3208   36.9470   41.7746 H   0  0  0  0  0  0  0  0  0  0  0  0
   48.1437   35.9267   39.8495 H   0  0  0  0  0  0  0  0  0  0  0  0
   50.0597   33.1089   43.3668 H   0  0  0  0  0  0  0  0  0  0  0  0
   51.7361   33.0130   38.4716 H   0  0  0  0  0  0  0  0  0  0  0  0
   53.9020   31.4981   37.2452 H   0  0  0  0  0  0  0  0  0  0  0  0
   53.9313   32.4467   38.7238 H   0  0  0  0  0  0  0  0  0  0  0  0
   53.7710   29.8036   38.9493 H   0  0  0  0  0  0  0  0  0  0  0  0
   52.6710   30.7085   39.9556 H   0  0  0  0  0  0  0  0  0  0  0  0
   52.1531   29.4100   37.2070 H   0  0  0  0  0  0  0  0  0  0  0  0
   51.1460   29.2532   38.6075 H   0  0  0  0  0  0  0  0  0  0  0  0
   49.8470   30.3731   36.2266 H   0  0  0  0  0  0  0  0  0  0  0  0
   50.5034   31.9758   35.7501 H   0  0  0  0  0  0  0  0  0  0  0  0
   51.5717   30.5317   35.7501 H   0  0  0  0  0  0  0  0  0  0  0  0
  1  2  1  0
  1  9  1  0
  3  2  1  0
  4  5  1  0
  4  3  1  0
  5  6  1  0
  6 13  1  0
  6  1  1  0
  7 12  2  0
  8  7  1  0
  9  8  2  0
  9 10  1  0
 10 11  2  0
 11 12  1  0
 14 15  1  0
 15 16  1  0
 17 16  1  0
 18 19  1  0
 18 14  1  0
 18 17  1  0
 18 13  1  1
  2 20  1  0
  2 21  1  0
  3 22  1  0
  3 23  1  0
  4 24  1  0
  4 25  1  0
  5 26  1  0
  5 27  1  0
  6 28  1  6
  7 29  1  0
  8 30  1  0
 11 31  1  0
 14 32  1  0
 15 33  1  0
 15 34  1  0
 16 35  1  0
 16 36  1  0
 17 37  1  0
 17 38  1  0
 19 39  1  0
 19 40  1  0
 19 41  1  0
M  ISO  8  20  13  21  13  22  13  23  13  24  13  25  13  26  13  27  13
M  ISO  8  28  13  29  14  30  14  31  14  32   5  33  13  34  13  35  13
M  ISO  6  36  13  37  13  38  13  39   8  40   8  41   8
M  END
>  <minimizedAffinity>  (1) 
-4.4611659

>  <minimizedRMSD>  (1) 
0.458010793

$$$$
