
     RDKit          3D

 45 48  0  0  1  0  0  0  0  0999 V2000
   47.3560   33.2450   39.7210 N   0  0  0  0  0  0  0  0  0  0  0  0
   45.9940   32.8820   39.9540 C   0  0  0  0  0  0  0  0  0  0  0  0
   45.0780   33.1220   38.8090 C   0  0  0  0  0  0  0  0  0  0  0  0
   45.7010   32.9310   37.4650 C   0  0  0  0  0  0  0  0  0  0  0  0
   47.0600   32.3210   37.4970 C   0  0  0  0  0  0  0  0  0  0  0  0
   48.0190   32.9170   38.4930 C   0  0  2  0  0  0  0  0  0  0  0  0
   49.2620   35.8220   41.6500 C   0  0  0  0  0  0  0  0  0  0  0  0
   48.4790   35.2760   40.6440 C   0  0  0  0  0  0  0  0  0  0  0  0
   48.1420   33.9430   40.6710 C   0  0  0  0  0  0  0  0  0  0  0  0
   48.6220   33.2180   41.7340 N   0  0  0  0  0  0  0  0  0  0  0  0
   49.3750   33.7590   42.6950 C   0  0  0  0  0  0  0  0  0  0  0  0
   49.6930   35.0560   42.6550 N   0  0  0  0  0  0  0  0  0  0  0  0
   49.2110   31.5650   38.8150 S   0  0  0  0  0  0  0  0  0  0  0  0
   51.3920   32.4360   37.6660 N   0  0  0  0  0  0  0  0  0  0  0  0
   52.6750   31.8320   37.9580 C   0  0  0  0  0  0  0  0  0  0  0  0
   52.3330   30.5100   38.5840 C   0  0  0  0  0  0  0  0  0  0  0  0
   51.1410   30.0670   37.7600 C   0  0  0  0  0  0  0  0  0  0  0  0
   50.4380   31.4030   37.5140 C   0  0  1  0  0  0  0  0  0  0  0  0
   49.9300   31.4800   36.1070 C   0  0  0  0  0  0  0  0  0  0  0  0
   50.8180   30.6460   35.1540 C   0  0  0  0  0  0  0  0  0  0  0  0
   49.3750   30.3940   35.3290 C   0  0  0  0  0  0  0  0  0  0  0  0
   45.9630   31.8097   40.1975 H   0  0  0  0  0  0  0  0  0  0  0  0
   45.6391   33.5249   40.7730 H   0  0  0  0  0  0  0  0  0  0  0  0
   44.2300   32.4268   38.8962 H   0  0  0  0  0  0  0  0  0  0  0  0
   44.7768   34.1784   38.8662 H   0  0  0  0  0  0  0  0  0  0  0  0
   45.7768   33.9145   36.9782 H   0  0  0  0  0  0  0  0  0  0  0  0
   45.0551   32.2294   36.9167 H   0  0  0  0  0  0  0  0  0  0  0  0
   46.9458   31.2531   37.7349 H   0  0  0  0  0  0  0  0  0  0  0  0
   47.4984   32.5125   36.5065 H   0  0  0  0  0  0  0  0  0  0  0  0
   48.4773   33.8424   38.1139 H   0  0  0  0  0  0  0  0  0  0  0  0
   49.5286   36.8888   41.6199 H   0  0  0  0  0  0  0  0  0  0  0  0
   48.1255   35.9128   39.8197 H   0  0  0  0  0  0  0  0  0  0  0  0
   49.7356   33.1330   43.5245 H   0  0  0  0  0  0  0  0  0  0  0  0
   51.1143   33.0551   38.4409 H   0  0  0  0  0  0  0  0  0  0  0  0
   53.2557   31.6868   37.0351 H   0  0  0  0  0  0  0  0  0  0  0  0
   53.2933   32.4598   38.6165 H   0  0  0  0  0  0  0  0  0  0  0  0
   53.1669   29.7983   38.4944 H   0  0  0  0  0  0  0  0  0  0  0  0
   52.1269   30.5714   39.6628 H   0  0  0  0  0  0  0  0  0  0  0  0
   51.4553   29.5970   36.8165 H   0  0  0  0  0  0  0  0  0  0  0  0
   50.5114   29.3083   38.2478 H   0  0  0  0  0  0  0  0  0  0  0  0
   49.5304   32.4920   36.2689 H   0  0  0  0  0  0  0  0  0  0  0  0
   51.5602   29.9412   35.5571 H   0  0  0  0  0  0  0  0  0  0  0  0
   51.4911   30.8548   34.3094 H   0  0  0  0  0  0  0  0  0  0  0  0
   48.6844   30.6207   34.5033 H   0  0  0  0  0  0  0  0  0  0  0  0
   48.7923   29.4989   35.5921 H   0  0  0  0  0  0  0  0  0  0  0  0
  1  2  1  0
  1  9  1  0
  3  2  1  0
  4  5  1  0
  4  3  1  0
  5  6  1  0
  6 13  1  0
  6  1  1  0
  7 12  2  0
  8  9  2  0
  8  7  1  0
  9 10  1  0
 10 11  2  0
 12 11  1  0
 14 15  1  0
 15 16  1  0
 17 16  1  0
 18 14  1  0
 18 17  1  0
 18 13  1  1
 19 18  1  0
 20 21  1  0
 20 19  1  0
 21 19  1  0
  2 22  1  0
  2 23  1  0
  3 24  1  0
  3 25  1  0
  4 26  1  0
  4 27  1  0
  5 28  1  0
  5 29  1  0
  6 30  1  6
  7 31  1  0
  8 32  1  0
 11 33  1  0
 14 34  1  0
 15 35  1  0
 15 36  1  0
 16 37  1  0
 16 38  1  0
 17 39  1  0
 17 40  1  0
 19 41  1  0
 20 42  1  0
 20 43  1  0
 21 44  1  0
 21 45  1  0
M  ISO  8  22  13  23  13  24  13  25  13  26  13  27  13  28  13  29  13
M  ISO  8  30  13  31  14  32  14  33  14  34   5  35  13  36  13  37  13
M  ISO  8  38  13  39  13  40  13  41  13  42  13  43  13  44  13  45  13
M  END
>  <minimizedAffinity>  (1) 
-4.2959547

>  <minimizedRMSD>  (1) 
0.583684385

$$$$
