
     RDKit          3D

 27 29  0  0  0  0  0  0  0  0999 V2000
   46.9260   34.9190   41.8460 C   0  0  0  0  0  0  0  0  0  0  0  0
   48.3400   34.5660   42.0480 C   0  0  0  0  0  0  0  0  0  0  0  0
   49.3710   35.4650   42.3540 C   0  0  0  0  0  0  0  0  0  0  0  0
   50.5570   34.8360   42.4770 N   0  0  0  0  0  0  0  0  0  0  0  0
   50.3450   33.5230   42.2600 C   0  0  0  0  0  0  0  0  0  0  0  0
   51.1910   32.4170   42.2600 C   0  0  0  0  0  0  0  0  0  0  0  0
   50.6850   31.1630   41.9970 C   0  0  0  0  0  0  0  0  0  0  0  0
   49.3270   30.9820   41.7300 C   0  0  0  0  0  0  0  0  0  0  0  0
   48.5090   32.0980   41.7380 C   0  0  0  0  0  0  0  0  0  0  0  0
   48.9970   33.3580   41.9980 C   0  0  0  0  0  0  0  0  0  0  0  0
   44.5150   36.0560   44.5440 C   0  0  0  0  0  0  0  0  0  0  0  0
   45.2180   36.0670   43.3230 C   0  0  0  0  0  0  0  0  0  0  0  0
   46.1330   35.0160   43.0940 C   0  0  0  0  0  0  0  0  0  0  0  0
   46.2750   34.0610   44.0670 N   0  0  0  0  0  0  0  0  0  0  0  0
   45.5740   34.0990   45.2210 C   0  0  0  0  0  0  0  0  0  0  0  0
   44.6970   35.1000   45.4520 N   0  0  0  0  0  0  0  0  0  0  0  0
   46.8844   35.8926   41.3358 H   0  0  0  0  0  0  0  0  0  0  0  0
   46.4814   34.1047   41.2551 H   0  0  0  0  0  0  0  0  0  0  0  0
   49.2299   36.5488   42.4783 H   0  0  0  0  0  0  0  0  0  0  0  0
   51.4608   35.2785   42.6968 H   0  0  0  0  0  0  0  0  0  0  0  0
   52.2632   32.5446   42.4700 H   0  0  0  0  0  0  0  0  0  0  0  0
   51.3593   30.2939   41.9974 H   0  0  0  0  0  0  0  0  0  0  0  0
   48.9193   29.9822   41.5196 H   0  0  0  0  0  0  0  0  0  0  0  0
   47.4359   31.9741   41.5302 H   0  0  0  0  0  0  0  0  0  0  0  0
   43.7949   36.8608   44.7529 H   0  0  0  0  0  0  0  0  0  0  0  0
   45.0606   36.8616   42.5787 H   0  0  0  0  0  0  0  0  0  0  0  0
   45.7179   33.3117   45.9756 H   0  0  0  0  0  0  0  0  0  0  0  0
  1  2  1  0
  1 13  1  0
  2  3  2  0
  3  4  1  0
  5  4  1  0
  6  5  2  0
  7  6  1  0
  8  9  1  0
  8  7  2  0
  9 10  2  0
 10  2  1  0
 10  5  1  0
 11 16  2  0
 12 11  1  0
 13 12  2  0
 13 14  1  0
 14 15  2  0
 15 16  1  0
  1 17  1  0
  1 18  1  0
  3 19  1  0
  4 20  1  0
  6 21  1  0
  7 22  1  0
  8 23  1  0
  9 24  1  0
 11 25  1  0
 12 26  1  0
 15 27  1  0
M  ISO  8  17   8  18   8  19  14  20   9  21  14  22  14  23  14  24  14
M  ISO  3  25  14  26  14  27  14
M  END
>  <minimizedAffinity>  (1) 
-5.33430576

>  <minimizedRMSD>  (1) 
1.94079614

$$$$
