
     RDKit          3D

 28 29  0  0  0  0  0  0  0  0999 V2000
   46.5090   33.4690   42.6330 C   0  0  0  0  0  0  0  0  0  0  0  0
   44.4980   35.9500   44.6650 C   0  0  0  0  0  0  0  0  0  0  0  0
   45.1430   35.3880   43.5440 C   0  0  0  0  0  0  0  0  0  0  0  0
   45.8000   34.1560   43.7360 C   0  0  0  0  0  0  0  0  0  0  0  0
   45.7710   33.5940   44.9810 N   0  0  0  0  0  0  0  0  0  0  0  0
   45.1330   34.1830   46.0280 C   0  0  0  0  0  0  0  0  0  0  0  0
   44.5080   35.3500   45.8580 N   0  0  0  0  0  0  0  0  0  0  0  0
   47.5520   34.2950   42.1180 N   0  0  0  0  0  0  0  0  0  0  0  0
   48.8460   33.9720   42.6810 C   0  0  0  0  0  0  0  0  0  0  0  0
   49.8150   35.0850   42.4510 C   0  0  0  0  0  0  0  0  0  0  0  0
   49.1940   36.1200   41.5280 C   0  0  0  0  0  0  0  0  0  0  0  0
   48.7170   35.3230   40.3060 C   0  0  0  0  0  0  0  0  0  0  0  0
   47.5830   34.3900   40.6900 C   0  0  0  0  0  0  0  0  0  0  0  0
   46.9429   32.5312   43.0102 H   0  0  0  0  0  0  0  0  0  0  0  0
   45.7917   33.2576   41.8263 H   0  0  0  0  0  0  0  0  0  0  0  0
   43.9718   36.9096   44.5536 H   0  0  0  0  0  0  0  0  0  0  0  0
   45.1338   35.8883   42.5644 H   0  0  0  0  0  0  0  0  0  0  0  0
   45.1321   33.6974   47.0150 H   0  0  0  0  0  0  0  0  0  0  0  0
   48.7376   33.8055   43.7629 H   0  0  0  0  0  0  0  0  0  0  0  0
   49.2279   33.0641   42.1913 H   0  0  0  0  0  0  0  0  0  0  0  0
   50.0661   35.5561   43.4127 H   0  0  0  0  0  0  0  0  0  0  0  0
   50.7283   34.6838   41.9874 H   0  0  0  0  0  0  0  0  0  0  0  0
   48.3459   36.6184   42.0202 H   0  0  0  0  0  0  0  0  0  0  0  0
   49.9069   36.9116   41.2539 H   0  0  0  0  0  0  0  0  0  0  0  0
   49.5552   34.7305   39.9105 H   0  0  0  0  0  0  0  0  0  0  0  0
   48.3558   36.0263   39.5412 H   0  0  0  0  0  0  0  0  0  0  0  0
   46.6277   34.7924   40.3219 H   0  0  0  0  0  0  0  0  0  0  0  0
   47.7384   33.3964   40.2444 H   0  0  0  0  0  0  0  0  0  0  0  0
  1  4  1  0
  2  7  2  0
  3  4  2  0
  3  2  1  0
  4  5  1  0
  5  6  2  0
  7  6  1  0
  8  1  1  0
  8  9  1  0
 10  9  1  0
 11 10  1  0
 12 13  1  0
 12 11  1  0
 13  8  1  0
  1 14  1  0
  1 15  1  0
  2 16  1  0
  3 17  1  0
  6 18  1  0
  9 19  1  0
  9 20  1  0
 10 21  1  0
 10 22  1  0
 11 23  1  0
 11 24  1  0
 12 25  1  0
 12 26  1  0
 13 27  1  0
 13 28  1  0
M  ISO  8  14   8  15   8  16  14  17  14  18  14  19  13  20  13  21  13
M  ISO  7  22  13  23  13  24  13  25  13  26  13  27  13  28  13
M  END
>  <minimizedAffinity>  (1) 
-4.74907303

>  <minimizedRMSD>  (1) 
1.31257117

$$$$
