
     RDKit          3D

 26 27  0  0  0  0  0  0  0  0999 V2000
   44.7780   36.1880   44.0720 C   0  0  0  0  0  0  0  0  0  0  0  0
   45.2840   35.6360   42.8650 C   0  0  0  0  0  0  0  0  0  0  0  0
   45.7770   34.3350   42.8840 C   0  0  0  0  0  0  0  0  0  0  0  0
   45.7480   33.6480   44.0710 N   0  0  0  0  0  0  0  0  0  0  0  0
   45.2510   34.2140   45.2130 C   0  0  0  0  0  0  0  0  0  0  0  0
   44.7760   35.4620   45.2080 N   0  0  0  0  0  0  0  0  0  0  0  0
   46.3220   33.6910   41.6630 C   0  0  0  0  0  0  0  0  0  0  0  0
   47.8160   33.9220   41.6430 C   0  0  0  0  0  0  0  0  0  0  0  0
   48.2150   35.0350   40.7240 C   0  0  0  0  0  0  0  0  0  0  0  0
   49.1290   35.9590   41.5280 C   0  0  0  0  0  0  0  0  0  0  0  0
   49.6760   34.9650   42.5620 C   0  0  0  0  0  0  0  0  0  0  0  0
   48.3520   34.3540   42.9740 C   0  0  0  0  0  0  0  0  0  0  0  0
   44.3849   37.2153   44.0799 H   0  0  0  0  0  0  0  0  0  0  0  0
   45.2861   36.2242   41.9355 H   0  0  0  0  0  0  0  0  0  0  0  0
   45.2426   33.6336   46.1474 H   0  0  0  0  0  0  0  0  0  0  0  0
   46.1110   32.6116   41.6839 H   0  0  0  0  0  0  0  0  0  0  0  0
   45.8560   34.1194   40.7634 H   0  0  0  0  0  0  0  0  0  0  0  0
   48.2190   32.9493   41.3245 H   0  0  0  0  0  0  0  0  0  0  0  0
   47.3245   35.5840   40.3839 H   0  0  0  0  0  0  0  0  0  0  0  0
   48.7284   34.6477   39.8316 H   0  0  0  0  0  0  0  0  0  0  0  0
   49.9310   36.3819   40.9051 H   0  0  0  0  0  0  0  0  0  0  0  0
   48.6325   36.8430   41.9546 H   0  0  0  0  0  0  0  0  0  0  0  0
   50.3558   34.2260   42.1128 H   0  0  0  0  0  0  0  0  0  0  0  0
   50.2872   35.3918   43.3709 H   0  0  0  0  0  0  0  0  0  0  0  0
   47.6958   35.0953   43.4535 H   0  0  0  0  0  0  0  0  0  0  0  0
   48.4344   33.5460   43.7159 H   0  0  0  0  0  0  0  0  0  0  0  0
  1  6  2  0
  2  3  2  0
  2  1  1  0
  3  4  1  0
  4  5  2  0
  6  5  1  0
  7  3  1  0
  8  7  1  0
  8 12  1  0
  9 10  1  0
  9  8  1  0
 10 11  1  0
 11 12  1  0
  1 13  1  0
  2 14  1  0
  5 15  1  0
  7 16  1  0
  7 17  1  0
  8 18  1  0
  9 19  1  0
  9 20  1  0
 10 21  1  0
 10 22  1  0
 11 23  1  0
 11 24  1  0
 12 25  1  0
 12 26  1  0
M  ISO  8  13  14  14  14  15  14  16   8  17   8  18  13  19  13  20  13
M  ISO  6  21  13  22  13  23  13  24  13  25  13  26  13
M  END
>  <minimizedAffinity>  (1) 
-4.6770215

>  <minimizedRMSD>  (1) 
2.28208137

$$$$
