
     RDKit          3D

 29 30  0  0  0  0  0  0  0  0999 V2000
   44.4700   36.1150   44.5980 C   0  0  0  0  0  0  0  0  0  0  0  0
   45.1990   36.0060   43.3750 C   0  0  0  0  0  0  0  0  0  0  0  0
   46.0640   34.9190   43.2160 C   0  0  0  0  0  0  0  0  0  0  0  0
   46.1590   34.0290   44.2430 N   0  0  0  0  0  0  0  0  0  0  0  0
   45.4480   34.1630   45.3980 C   0  0  0  0  0  0  0  0  0  0  0  0
   44.6130   35.2040   45.5610 N   0  0  0  0  0  0  0  0  0  0  0  0
   46.8490   34.7470   41.9720 C   0  0  0  0  0  0  0  0  0  0  0  0
   48.1700   34.0750   42.2060 C   0  0  0  0  0  0  0  0  0  0  0  0
   48.4070   32.8310   41.4140 C   0  0  0  0  0  0  0  0  0  0  0  0
   49.5560   32.1190   42.1200 C   0  0  0  0  0  0  0  0  0  0  0  0
   50.7690   33.0070   41.9820 C   0  0  0  0  0  0  0  0  0  0  0  0
   50.5220   34.3450   42.6310 C   0  0  0  0  0  0  0  0  0  0  0  0
   49.3270   35.0160   41.9420 C   0  0  0  0  0  0  0  0  0  0  0  0
   43.7824   36.9605   44.7474 H   0  0  0  0  0  0  0  0  0  0  0  0
   45.0832   36.7569   42.5795 H   0  0  0  0  0  0  0  0  0  0  0  0
   45.5577   33.4173   46.1992 H   0  0  0  0  0  0  0  0  0  0  0  0
   47.0321   35.7385   41.5321 H   0  0  0  0  0  0  0  0  0  0  0  0
   46.2647   34.1031   41.2982 H   0  0  0  0  0  0  0  0  0  0  0  0
   48.1180   33.7840   43.2655 H   0  0  0  0  0  0  0  0  0  0  0  0
   48.6853   33.0799   40.3793 H   0  0  0  0  0  0  0  0  0  0  0  0
   47.5064   32.2019   41.3582 H   0  0  0  0  0  0  0  0  0  0  0  0
   49.3139   31.9708   43.1828 H   0  0  0  0  0  0  0  0  0  0  0  0
   49.7389   31.1289   41.6770 H   0  0  0  0  0  0  0  0  0  0  0  0
   51.6290   32.5227   42.4676 H   0  0  0  0  0  0  0  0  0  0  0  0
   50.9749   33.1634   40.9128 H   0  0  0  0  0  0  0  0  0  0  0  0
   50.3007   34.2025   43.6990 H   0  0  0  0  0  0  0  0  0  0  0  0
   51.4152   34.9792   42.5312 H   0  0  0  0  0  0  0  0  0  0  0  0
   49.5071   35.1195   40.8618 H   0  0  0  0  0  0  0  0  0  0  0  0
   49.1387   36.0319   42.3196 H   0  0  0  0  0  0  0  0  0  0  0  0
  1  6  2  0
  2  1  1  0
  3  2  2  0
  3  4  1  0
  4  5  2  0
  5  6  1  0
  7  8  1  0
  7  3  1  0
  9 10  1  0
  9  8  1  0
 11 10  1  0
 11 12  1  0
 13  8  1  0
 13 12  1  0
  1 14  1  0
  2 15  1  0
  5 16  1  0
  7 17  1  0
  7 18  1  0
  8 19  1  0
  9 20  1  0
  9 21  1  0
 10 22  1  0
 10 23  1  0
 11 24  1  0
 11 25  1  0
 12 26  1  0
 12 27  1  0
 13 28  1  0
 13 29  1  0
M  ISO  8  14  14  15  14  16  14  17   8  18   8  19  13  20  13  21  13
M  ISO  8  22  13  23  13  24  13  25  13  26  13  27  13  28  13  29  13
M  END
>  <minimizedAffinity>  (1) 
-4.61073112

>  <minimizedRMSD>  (1) 
1.9762795

$$$$
