
     RDKit          3D

 23 24  0  0  0  0  0  0  0  0999 V2000
   47.9090   35.1470   41.7810 C   0  0  0  0  0  0  0  0  0  0  0  0
   44.8300   35.3760   43.9830 C   0  0  0  0  0  0  0  0  0  0  0  0
   45.7340   35.6720   42.9420 C   0  0  0  0  0  0  0  0  0  0  0  0
   46.8960   34.9110   42.8420 C   0  0  0  0  0  0  0  0  0  0  0  0
   47.1000   33.9120   43.7640 N   0  0  0  0  0  0  0  0  0  0  0  0
   46.2010   33.6590   44.7530 C   0  0  0  0  0  0  0  0  0  0  0  0
   45.0760   34.3870   44.8590 N   0  0  0  0  0  0  0  0  0  0  0  0
   47.4860   34.4760   40.5400 C   0  0  0  0  0  0  0  0  0  0  0  0
   48.2880   34.5600   39.4170 C   0  0  0  0  0  0  0  0  0  0  0  0
   47.9450   33.9510   38.2190 C   0  0  0  0  0  0  0  0  0  0  0  0
   46.7550   33.2470   38.1930 C   0  0  0  0  0  0  0  0  0  0  0  0
   45.9220   33.1370   39.2930 C   0  0  0  0  0  0  0  0  0  0  0  0
   46.2890   33.7570   40.4800 C   0  0  0  0  0  0  0  0  0  0  0  0
   48.0046   36.2277   41.5992 H   0  0  0  0  0  0  0  0  0  0  0  0
   48.8794   34.7422   42.1042 H   0  0  0  0  0  0  0  0  0  0  0  0
   43.9064   35.9655   44.0798 H   0  0  0  0  0  0  0  0  0  0  0  0
   45.5268   36.4826   42.2278 H   0  0  0  0  0  0  0  0  0  0  0  0
   46.3966   32.8508   45.4731 H   0  0  0  0  0  0  0  0  0  0  0  0
   49.2282   35.1280   39.4755 H   0  0  0  0  0  0  0  0  0  0  0  0
   48.5897   34.0246   37.3307 H   0  0  0  0  0  0  0  0  0  0  0  0
   46.4572   32.7525   37.2566 H   0  0  0  0  0  0  0  0  0  0  0  0
   44.9835   32.5670   39.2278 H   0  0  0  0  0  0  0  0  0  0  0  0
   45.6423   33.6828   41.3667 H   0  0  0  0  0  0  0  0  0  0  0  0
  1  4  1  0
  2  7  2  0
  3  2  1  0
  4  3  2  0
  4  5  1  0
  5  6  2  0
  6  7  1  0
  8  1  1  0
  9  8  2  0
 10  9  1  0
 11 10  2  0
 11 12  1  0
 12 13  2  0
 13  8  1  0
  1 14  1  0
  1 15  1  0
  2 16  1  0
  3 17  1  0
  6 18  1  0
  9 19  1  0
 10 20  1  0
 11 21  1  0
 12 22  1  0
 13 23  1  0
M  ISO  8  14   8  15   8  16  14  17  14  18  14  19  14  20  14  21  14
M  ISO  2  22  14  23  14
M  END
>  <minimizedAffinity>  (1) 
-4.19328594

>  <minimizedRMSD>  (1) 
1.463866

$$$$
