
     RDKit          3D

 20 21  0  0  0  0  0  0  0  0999 V2000
   44.6480   35.9230   44.3900 C   0  0  0  0  0  0  0  0  0  0  0  0
   45.5270   35.5680   43.3440 C   0  0  0  0  0  0  0  0  0  0  0  0
   46.3420   34.4560   43.5400 C   0  0  0  0  0  0  0  0  0  0  0  0
   46.2610   33.7650   44.7190 N   0  0  0  0  0  0  0  0  0  0  0  0
   45.3960   34.1440   45.7070 C   0  0  0  0  0  0  0  0  0  0  0  0
   44.5990   35.2180   45.5330 N   0  0  0  0  0  0  0  0  0  0  0  0
   47.3000   34.0090   42.4900 C   0  0  0  0  0  0  0  0  0  0  0  0
   47.5680   35.1610   41.5650 C   0  0  0  0  0  0  0  0  0  0  0  0
   48.4440   34.9300   40.3420 C   0  0  0  0  0  0  0  0  0  0  0  0
   48.9610   35.7180   41.5000 C   0  0  0  0  0  0  0  0  0  0  0  0
   43.9892   36.7952   44.2668 H   0  0  0  0  0  0  0  0  0  0  0  0
   45.5666   36.1476   42.4099 H   0  0  0  0  0  0  0  0  0  0  0  0
   45.3498   33.5722   46.6456 H   0  0  0  0  0  0  0  0  0  0  0  0
   48.2401   33.6845   42.9599 H   0  0  0  0  0  0  0  0  0  0  0  0
   46.8739   33.1657   41.9267 H   0  0  0  0  0  0  0  0  0  0  0  0
   46.5645   35.5762   41.7398 H   0  0  0  0  0  0  0  0  0  0  0  0
   48.2094   35.4347   39.3932 H   0  0  0  0  0  0  0  0  0  0  0  0
   48.7878   34.0457   39.7854 H   0  0  0  0  0  0  0  0  0  0  0  0
   49.7493   35.2958   42.1406 H   0  0  0  0  0  0  0  0  0  0  0  0
   49.3969   36.7211   41.6173 H   0  0  0  0  0  0  0  0  0  0  0  0
  1  6  2  0
  2  3  2  0
  2  1  1  0
  3  4  1  0
  4  5  2  0
  6  5  1  0
  7  3  1  0
  8  7  1  0
  9 10  1  0
  9  8  1  0
 10  8  1  0
  1 11  1  0
  2 12  1  0
  5 13  1  0
  7 14  1  0
  7 15  1  0
  8 16  1  0
  9 17  1  0
  9 18  1  0
 10 19  1  0
 10 20  1  0
M  ISO  8  11  14  12  14  13  14  14   8  15   8  16  13  17  13  18  13
M  ISO  2  19  13  20  13
M  END
>  <minimizedAffinity>  (1) 
-4.1362977

>  <minimizedRMSD>  (1) 
1.75016201

$$$$
