
     RDKit          3D

 18 19  0  0  0  0  0  0  0  0999 V2000
   44.6230   35.9830   44.3990 C   0  0  0  0  0  0  0  0  0  0  0  0
   45.3260   35.9130   43.1640 C   0  0  0  0  0  0  0  0  0  0  0  0
   46.2140   34.8550   42.9600 C   0  0  0  0  0  0  0  0  0  0  0  0
   46.3480   33.9540   43.9650 N   0  0  0  0  0  0  0  0  0  0  0  0
   45.6690   34.0390   45.1330 C   0  0  0  0  0  0  0  0  0  0  0  0
   44.8190   35.0470   45.3370 N   0  0  0  0  0  0  0  0  0  0  0  0
   46.9760   34.7240   41.6980 C   0  0  0  0  0  0  0  0  0  0  0  0
   48.4050   34.4780   41.9950 C   0  0  0  0  0  0  0  0  0  0  0  0
   49.3470   35.3160   42.4260 N   0  0  0  0  0  0  0  0  0  0  0  0
   50.4460   34.6680   42.5460 O   0  0  0  0  0  0  0  0  0  0  0  0
   50.2690   33.4260   42.2100 C   0  0  0  0  0  0  0  0  0  0  0  0
   48.9840   33.2660   41.8530 N   0  0  0  0  0  0  0  0  0  0  0  0
   43.9177   36.8067   44.5838 H   0  0  0  0  0  0  0  0  0  0  0  0
   45.1732   36.6760   42.3866 H   0  0  0  0  0  0  0  0  0  0  0  0
   45.8179   33.2779   45.9131 H   0  0  0  0  0  0  0  0  0  0  0  0
   46.8791   35.6521   41.1155 H   0  0  0  0  0  0  0  0  0  0  0  0
   46.5757   33.8783   41.1196 H   0  0  0  0  0  0  0  0  0  0  0  0
   51.0389   32.6403   42.2166 H   0  0  0  0  0  0  0  0  0  0  0  0
  1  6  2  0
  2  1  1  0
  3  2  2  0
  3  4  1  0
  4  5  2  0
  5  6  1  0
  7  8  1  0
  7  3  1  0
  8  9  2  0
  9 10  1  0
 11 10  1  0
 12  8  1  0
 12 11  2  0
  1 13  1  0
  2 14  1  0
  5 15  1  0
  7 16  1  0
  7 17  1  0
 11 18  1  0
M  ISO  6  13  14  14  14  15  14  16   8  17   8  18  14
M  END
>  <minimizedAffinity>  (1) 
-4.10367012

>  <minimizedRMSD>  (1) 
1.26056623

$$$$
