
     RDKit          3D

 20 21  0  0  0  0  0  0  0  0999 V2000
   47.2120   34.8980   41.9400 C   0  0  0  0  0  0  0  0  0  0  0  0
   44.5840   35.9610   44.4530 C   0  0  0  0  0  0  0  0  0  0  0  0
   45.3950   35.9750   43.2740 C   0  0  0  0  0  0  0  0  0  0  0  0
   46.3410   34.9490   43.1270 C   0  0  0  0  0  0  0  0  0  0  0  0
   46.4350   34.0050   44.1080 N   0  0  0  0  0  0  0  0  0  0  0  0
   45.6490   34.0260   45.2070 C   0  0  0  0  0  0  0  0  0  0  0  0
   44.7320   35.0050   45.3690 N   0  0  0  0  0  0  0  0  0  0  0  0
   46.6340   34.2270   40.7790 C   0  0  0  0  0  0  0  0  0  0  0  0
   45.4290   33.6120   40.4940 C   0  0  0  0  0  0  0  0  0  0  0  0
   45.4850   33.1610   39.1980 C   0  0  0  0  0  0  0  0  0  0  0  0
   46.6810   33.4870   38.7070 N   0  0  0  0  0  0  0  0  0  0  0  0
   47.3570   34.1110   39.6290 N   0  0  0  0  0  0  0  0  0  0  0  0
   47.4557   35.9310   41.6509 H   0  0  0  0  0  0  0  0  0  0  0  0
   48.0928   34.3064   42.2301 H   0  0  0  0  0  0  0  0  0  0  0  0
   43.8305   36.7479   44.6045 H   0  0  0  0  0  0  0  0  0  0  0  0
   45.2812   36.7601   42.5120 H   0  0  0  0  0  0  0  0  0  0  0  0
   45.7561   33.2433   45.9724 H   0  0  0  0  0  0  0  0  0  0  0  0
   44.5777   33.5034   41.1821 H   0  0  0  0  0  0  0  0  0  0  0  0
   44.6868   32.6270   38.6616 H   0  0  0  0  0  0  0  0  0  0  0  0
   47.0153   33.2795   37.7551 H   0  0  0  0  0  0  0  0  0  0  0  0
  1  4  1  0
  2  7  2  0
  3  2  1  0
  4  3  2  0
  4  5  1  0
  5  6  2  0
  6  7  1  0
  8  1  1  0
  9  8  1  0
 10  9  2  0
 11 10  1  0
 11 12  1  0
 12  8  2  0
  1 13  1  0
  1 14  1  0
  2 15  1  0
  3 16  1  0
  6 17  1  0
  9 18  1  0
 10 19  1  0
 11 20  1  0
M  ISO  8  13   8  14   8  15  14  16  14  17  14  18  14  19  14  20   9
M  END
>  <minimizedAffinity>  (1) 
-3.90439606

>  <minimizedRMSD>  (1) 
0.862834811

$$$$
