
     RDKit          3D

 25 26  0  0  0  0  0  0  0  0999 V2000
   44.5510   35.8890   44.3440 C   0  0  0  0  0  0  0  0  0  0  0  0
   45.3780   35.8550   43.1990 C   0  0  0  0  0  0  0  0  0  0  0  0
   46.3720   34.8790   43.1340 C   0  0  0  0  0  0  0  0  0  0  0  0
   46.4900   34.0090   44.1820 N   0  0  0  0  0  0  0  0  0  0  0  0
   45.6680   34.0770   45.2730 C   0  0  0  0  0  0  0  0  0  0  0  0
   44.7130   35.0130   45.3370 N   0  0  0  0  0  0  0  0  0  0  0  0
   47.2790   34.7780   41.9680 C   0  0  0  0  0  0  0  0  0  0  0  0
   46.6290   34.2920   40.7760 N   0  0  0  0  0  0  0  0  0  0  0  0
   46.0870   32.9770   40.9130 C   0  0  0  0  0  0  0  0  0  0  0  0
   46.1820   32.3340   39.5420 C   0  0  0  0  0  0  0  0  0  0  0  0
   46.8440   33.4220   38.6850 C   0  0  0  0  0  0  0  0  0  0  0  0
   47.6700   34.0980   39.7860 C   0  0  0  0  0  0  0  0  0  0  0  0
   43.7605   36.6503   44.4179 H   0  0  0  0  0  0  0  0  0  0  0  0
   45.2416   36.5783   42.3815 H   0  0  0  0  0  0  0  0  0  0  0  0
   45.7918   33.3614   46.0992 H   0  0  0  0  0  0  0  0  0  0  0  0
   47.6897   35.7767   41.7584 H   0  0  0  0  0  0  0  0  0  0  0  0
   48.0629   34.0518   42.2289 H   0  0  0  0  0  0  0  0  0  0  0  0
   46.6691   32.3993   41.6461 H   0  0  0  0  0  0  0  0  0  0  0  0
   45.0469   33.0077   41.2697 H   0  0  0  0  0  0  0  0  0  0  0  0
   46.8028   31.4265   39.5748 H   0  0  0  0  0  0  0  0  0  0  0  0
   45.2060   32.0123   39.1496 H   0  0  0  0  0  0  0  0  0  0  0  0
   47.4771   32.9981   37.8916 H   0  0  0  0  0  0  0  0  0  0  0  0
   46.1586   34.0777   38.1280 H   0  0  0  0  0  0  0  0  0  0  0  0
   48.4733   33.4445   40.1570 H   0  0  0  0  0  0  0  0  0  0  0  0
   48.2030   35.0103   39.4801 H   0  0  0  0  0  0  0  0  0  0  0  0
  1  6  2  0
  2  1  1  0
  3  2  2  0
  3  4  1  0
  4  5  2  0
  5  6  1  0
  7  3  1  0
  8  9  1  0
  8  7  1  0
 10  9  1  0
 11 10  1  0
 11 12  1  0
 12  8  1  0
  1 13  1  0
  2 14  1  0
  5 15  1  0
  7 16  1  0
  7 17  1  0
  9 18  1  0
  9 19  1  0
 10 20  1  0
 10 21  1  0
 11 22  1  0
 11 23  1  0
 12 24  1  0
 12 25  1  0
M  ISO  8  13  14  14  14  15  14  16   8  17   8  18  13  19  13  20  13
M  ISO  5  21  13  22  13  23  13  24  13  25  13
M  END
>  <minimizedAffinity>  (1) 
-3.5725956

>  <minimizedRMSD>  (1) 
0.515541077

$$$$
