
     RDKit          3D

 28 29  0  0  0  0  0  0  0  0999 V2000
   46.6660   34.6130   41.8330 C   0  0  0  0  0  0  0  0  0  0  0  0
   44.5180   36.0520   44.6080 C   0  0  0  0  0  0  0  0  0  0  0  0
   45.1470   35.9360   43.3410 C   0  0  0  0  0  0  0  0  0  0  0  0
   45.9590   34.8320   43.1380 C   0  0  0  0  0  0  0  0  0  0  0  0
   46.1190   33.9210   44.1390 N   0  0  0  0  0  0  0  0  0  0  0  0
   45.5020   34.0580   45.3500 C   0  0  0  0  0  0  0  0  0  0  0  0
   44.7070   35.1260   45.5670 N   0  0  0  0  0  0  0  0  0  0  0  0
   47.8550   35.4510   41.8800 N   0  0  0  0  0  0  0  0  0  0  0  0
   48.9800   34.6900   41.4300 C   0  0  0  0  0  0  0  0  0  0  0  0
   50.0290   34.7660   42.5250 C   0  0  0  0  0  0  0  0  0  0  0  0
   50.7040   33.4170   42.3570 C   0  0  0  0  0  0  0  0  0  0  0  0
   49.5140   32.5180   42.2470 C   0  0  0  0  0  0  0  0  0  0  0  0
   48.6120   33.2550   41.2880 C   0  0  0  0  0  0  0  0  0  0  0  0
   46.0208   34.9105   40.9933 H   0  0  0  0  0  0  0  0  0  0  0  0
   46.9231   33.5538   41.6849 H   0  0  0  0  0  0  0  0  0  0  0  0
   43.8646   36.9136   44.8100 H   0  0  0  0  0  0  0  0  0  0  0  0
   44.9963   36.6900   42.5543 H   0  0  0  0  0  0  0  0  0  0  0  0
   45.6517   33.3063   46.1390 H   0  0  0  0  0  0  0  0  0  0  0  0
   47.7249   36.2695   41.2684 H   0  0  0  0  0  0  0  0  0  0  0  0
   49.3318   35.0826   40.4645 H   0  0  0  0  0  0  0  0  0  0  0  0
   50.7318   35.5953   42.3570 H   0  0  0  0  0  0  0  0  0  0  0  0
   49.6275   34.9550   43.5315 H   0  0  0  0  0  0  0  0  0  0  0  0
   51.3213   33.3841   41.4472 H   0  0  0  0  0  0  0  0  0  0  0  0
   51.4002   33.1529   43.1667 H   0  0  0  0  0  0  0  0  0  0  0  0
   49.7985   31.5347   41.8442 H   0  0  0  0  0  0  0  0  0  0  0  0
   49.0370   32.3135   43.2169 H   0  0  0  0  0  0  0  0  0  0  0  0
   47.5562   33.0994   41.5547 H   0  0  0  0  0  0  0  0  0  0  0  0
   48.7338   32.8999   40.2540 H   0  0  0  0  0  0  0  0  0  0  0  0
  1  8  1  0
  1  4  1  0
  2  7  2  0
  3  2  1  0
  4  3  2  0
  4  5  1  0
  5  6  2  0
  6  7  1  0
  9  8  1  0
  9 10  1  0
 11 10  1  0
 12 11  1  0
 13  9  1  0
 13 12  1  0
  1 14  1  0
  1 15  1  0
  2 16  1  0
  3 17  1  0
  6 18  1  0
  8 19  1  0
  9 20  1  0
 10 21  1  0
 10 22  1  0
 11 23  1  0
 11 24  1  0
 12 25  1  0
 12 26  1  0
 13 27  1  0
 13 28  1  0
M  ISO  8  14   8  15   8  16  14  17  14  18  14  19   5  20  13  21  13
M  ISO  7  22  13  23  13  24  13  25  13  26  13  27  13  28  13
M  END
>  <minimizedAffinity>  (1) 
-4.37147856

>  <minimizedRMSD>  (1) 
1.31839991

$$$$
