
     RDKit          3D

 20 21  0  0  1  0  0  0  0  0999 V2000
   47.5410   34.3650   41.0400 C   0  0  1  0  0  0  0  0  0  0  0  0
   48.5530   35.5120   40.9850 C   0  0  0  0  0  0  0  0  0  0  0  0
   48.9780   34.0890   41.1450 C   0  0  1  0  0  0  0  0  0  0  0  0
   45.2440   35.5440   43.7540 C   0  0  0  0  0  0  0  0  0  0  0  0
   46.0490   35.5760   42.6030 C   0  0  0  0  0  0  0  0  0  0  0  0
   46.6880   34.3910   42.2610 C   0  0  0  0  0  0  0  0  0  0  0  0
   46.4900   33.2830   43.0610 N   0  0  0  0  0  0  0  0  0  0  0  0
   45.7110   33.3120   44.1470 C   0  0  0  0  0  0  0  0  0  0  0  0
   45.0840   34.4410   44.5010 N   0  0  0  0  0  0  0  0  0  0  0  0
   49.6550   33.7960   42.4530 C   0  0  0  0  0  0  0  0  0  0  0  0
   49.5160   34.8620   43.3530 F   0  0  0  0  0  0  0  0  0  0  0  0
   49.3520   32.5870   43.0020 F   0  0  0  0  0  0  0  0  0  0  0  0
   51.0340   33.7540   42.1980 F   0  0  0  0  0  0  0  0  0  0  0  0
   46.7502   33.9365   40.4067 H   0  0  0  0  0  0  0  0  0  0  0  0
   48.7385   36.0442   40.0404 H   0  0  0  0  0  0  0  0  0  0  0  0
   48.7132   36.4503   41.5363 H   0  0  0  0  0  0  0  0  0  0  0  0
   49.6051   33.3598   40.6111 H   0  0  0  0  0  0  0  0  0  0  0  0
   44.7218   36.4638   44.0561 H   0  0  0  0  0  0  0  0  0  0  0  0
   46.1670   36.4912   42.0042 H   0  0  0  0  0  0  0  0  0  0  0  0
   45.5843   32.4030   44.7534 H   0  0  0  0  0  0  0  0  0  0  0  0
  1  3  1  0
  1  6  1  0
  2  1  1  0
  2  3  1  0
  3 10  1  0
  4  9  2  0
  5  4  1  0
  6  5  2  0
  6  7  1  0
  7  8  2  0
  8  9  1  0
 10 12  1  0
 10 11  1  0
 13 10  1  0
  1 14  1  6
  2 15  1  0
  2 16  1  0
  3 17  1  6
  4 18  1  0
  5 19  1  0
  8 20  1  0
M  ISO  7  14  13  15  13  16  13  17  13  18  14  19  14  20  14
M  END
>  <minimizedAffinity>  (1) 
-4.04276705

>  <minimizedRMSD>  (1) 
1.2936002

$$$$
