
     RDKit          3D

 27 27  0  0  0  0  0  0  0  0999 V2000
   44.7730   36.0510   43.9850 C   0  0  0  0  0  0  0  0  0  0  0  0
   45.7070   35.3000   43.2520 C   0  0  0  0  0  0  0  0  0  0  0  0
   46.2580   34.1610   43.8610 C   0  0  0  0  0  0  0  0  0  0  0  0
   45.8640   33.8410   45.1320 N   0  0  0  0  0  0  0  0  0  0  0  0
   44.9580   34.6040   45.7940 C   0  0  0  0  0  0  0  0  0  0  0  0
   44.4190   35.6980   45.2240 N   0  0  0  0  0  0  0  0  0  0  0  0
   47.2510   33.3240   43.1360 C   0  0  0  0  0  0  0  0  0  0  0  0
   48.5540   33.9060   43.4110 N   0  0  0  0  0  0  0  0  0  0  0  0
   49.3130   34.1200   42.2050 C   0  0  0  0  0  0  0  0  0  0  0  0
   50.7390   33.6640   42.3280 C   0  0  0  0  0  0  0  0  0  0  0  0
   49.3400   35.6100   41.9160 C   0  0  0  0  0  0  0  0  0  0  0  0
   48.7440   33.4550   40.9800 C   0  0  0  0  0  0  0  0  0  0  0  0
   44.3246   36.9466   43.5302 H   0  0  0  0  0  0  0  0  0  0  0  0
   45.9976   35.5950   42.2329 H   0  0  0  0  0  0  0  0  0  0  0  0
   44.6586   34.3236   46.8147 H   0  0  0  0  0  0  0  0  0  0  0  0
   47.0467   33.3411   42.0553 H   0  0  0  0  0  0  0  0  0  0  0  0
   47.2047   32.2750   43.4638 H   0  0  0  0  0  0  0  0  0  0  0  0
   48.4211   34.8104   43.8856 H   0  0  0  0  0  0  0  0  0  0  0  0
   51.0062   33.5786   43.3916 H   0  0  0  0  0  0  0  0  0  0  0  0
   50.8540   32.6843   41.8412 H   0  0  0  0  0  0  0  0  0  0  0  0
   51.4011   34.3952   41.8412 H   0  0  0  0  0  0  0  0  0  0  0  0
   49.3501   36.1673   42.8643 H   0  0  0  0  0  0  0  0  0  0  0  0
   50.2427   35.8549   41.3371 H   0  0  0  0  0  0  0  0  0  0  0  0
   48.4467   35.8875   41.3371 H   0  0  0  0  0  0  0  0  0  0  0  0
   48.0568   32.6519   41.2845 H   0  0  0  0  0  0  0  0  0  0  0  0
   48.1973   34.1975   40.3802 H   0  0  0  0  0  0  0  0  0  0  0  0
   49.5622   33.0297   40.3802 H   0  0  0  0  0  0  0  0  0  0  0  0
  1  6  2  0
  2  3  2  0
  2  1  1  0
  3  4  1  0
  4  5  2  0
  6  5  1  0
  7  8  1  0
  7  3  1  0
  9 10  1  0
  9  8  1  0
 11  9  1  0
 12  9  1  0
  1 13  1  0
  2 14  1  0
  5 15  1  0
  7 16  1  0
  7 17  1  0
  8 18  1  0
 10 19  1  0
 10 20  1  0
 10 21  1  0
 11 22  1  0
 11 23  1  0
 11 24  1  0
 12 25  1  0
 12 26  1  0
 12 27  1  0
M  ISO  8  13  14  14  14  15  14  16   8  17   8  18   5  19   8  20   8
M  ISO  7  21   8  22   8  23   8  24   8  25   8  26   8  27   8
M  END
>  <minimizedAffinity>  (1) 
-4.19493008

>  <minimizedRMSD>  (1) 
1.70182765

$$$$
