
     RDKit          3D

 22 23  0  0  0  0  0  0  0  0999 V2000
   47.1680   34.7090   41.8980 C   0  0  0  0  0  0  0  0  0  0  0  0
   44.5890   35.9820   44.3750 C   0  0  0  0  0  0  0  0  0  0  0  0
   45.3730   35.9040   43.1970 C   0  0  0  0  0  0  0  0  0  0  0  0
   46.2880   34.8700   43.1070 C   0  0  0  0  0  0  0  0  0  0  0  0
   46.3970   33.9700   44.1530 N   0  0  0  0  0  0  0  0  0  0  0  0
   45.6280   34.0950   45.2440 C   0  0  0  0  0  0  0  0  0  0  0  0
   44.7340   35.0830   45.3620 N   0  0  0  0  0  0  0  0  0  0  0  0
   47.9150   33.4750   42.1060 N   0  0  0  0  0  0  0  0  0  0  0  0
   50.5110   32.1090   40.2060 N   0  0  0  0  0  0  0  0  0  0  0  0
   49.2840   32.5410   40.4620 N   0  0  0  0  0  0  0  0  0  0  0  0
   49.1950   32.9950   41.7450 C   0  0  0  0  0  0  0  0  0  0  0  0
   50.4530   32.8360   42.3300 C   0  0  0  0  0  0  0  0  0  0  0  0
   51.2300   32.2820   41.3290 C   0  0  0  0  0  0  0  0  0  0  0  0
   47.8565   35.5623   41.8101 H   0  0  0  0  0  0  0  0  0  0  0  0
   46.5764   34.6704   40.9714 H   0  0  0  0  0  0  0  0  0  0  0  0
   43.8510   36.7906   44.4824 H   0  0  0  0  0  0  0  0  0  0  0  0
   45.2585   36.6374   42.3852 H   0  0  0  0  0  0  0  0  0  0  0  0
   45.7348   33.3674   46.0620 H   0  0  0  0  0  0  0  0  0  0  0  0
   47.3792   32.7830   42.6491 H   0  0  0  0  0  0  0  0  0  0  0  0
   50.8492   31.7157   39.3161 H   0  0  0  0  0  0  0  0  0  0  0  0
   50.7572   33.0933   43.3553 H   0  0  0  0  0  0  0  0  0  0  0  0
   52.2925   32.0185   41.4369 H   0  0  0  0  0  0  0  0  0  0  0  0
  1  8  1  0
  1  4  1  0
  2  7  2  0
  3  2  1  0
  4  3  2  0
  4  5  1  0
  5  6  2  0
  6  7  1  0
  9 10  1  0
  9 13  1  0
 10 11  2  0
 11  8  1  0
 11 12  1  0
 13 12  2  0
  1 14  1  0
  1 15  1  0
  2 16  1  0
  3 17  1  0
  6 18  1  0
  8 19  1  0
  9 20  1  0
 12 21  1  0
 13 22  1  0
M  ISO  8  14   8  15   8  16  14  17  14  18  14  20   9  21  14  22  14
M  END
>  <minimizedAffinity>  (1) 
-4.13200951

>  <minimizedRMSD>  (1) 
3.46237874

$$$$
