
     RDKit          3D

 21 21  0  0  0  0  0  0  0  0999 V2000
   44.6160   35.8810   44.3610 C   0  0  0  0  0  0  0  0  0  0  0  0
   45.5430   35.6210   43.3410 C   0  0  0  0  0  0  0  0  0  0  0  0
   46.4190   34.5510   43.5640 C   0  0  0  0  0  0  0  0  0  0  0  0
   46.3360   33.8280   44.7270 N   0  0  0  0  0  0  0  0  0  0  0  0
   45.4130   34.1330   45.6750 C   0  0  0  0  0  0  0  0  0  0  0  0
   44.5590   35.1580   45.4830 N   0  0  0  0  0  0  0  0  0  0  0  0
   47.4530   34.1810   42.5430 C   0  0  0  0  0  0  0  0  0  0  0  0
   48.7440   34.2510   43.2110 N   0  0  0  0  0  0  0  0  0  0  0  0
   49.7480   34.9200   42.4710 C   0  0  0  0  0  0  0  0  0  0  0  0
   49.0290   35.8410   41.4770 C   0  0  0  0  0  0  0  0  0  0  0  0
   43.9080   36.7130   44.2320 H   0  0  0  0  0  0  0  0  0  0  0  0
   45.5799   36.2219   42.4204 H   0  0  0  0  0  0  0  0  0  0  0  0
   45.3621   33.5424   46.6016 H   0  0  0  0  0  0  0  0  0  0  0  0
   47.4234   34.8873   41.7003 H   0  0  0  0  0  0  0  0  0  0  0  0
   47.2695   33.1736   42.1411 H   0  0  0  0  0  0  0  0  0  0  0  0
   48.6180   34.7468   44.1050 H   0  0  0  0  0  0  0  0  0  0  0  0
   50.3831   35.5133   43.1453 H   0  0  0  0  0  0  0  0  0  0  0  0
   50.3948   34.2018   41.9457 H   0  0  0  0  0  0  0  0  0  0  0  0
   48.4436   36.5908   42.0293 H   0  0  0  0  0  0  0  0  0  0  0  0
   49.7719   36.3490   40.8445 H   0  0  0  0  0  0  0  0  0  0  0  0
   48.3559   35.2436   40.8445 H   0  0  0  0  0  0  0  0  0  0  0  0
  1  6  2  0
  2  3  2  0
  2  1  1  0
  3  4  1  0
  4  5  2  0
  6  5  1  0
  7  8  1  0
  7  3  1  0
  9  8  1  0
 10  9  1  0
  1 11  1  0
  2 12  1  0
  5 13  1  0
  7 14  1  0
  7 15  1  0
  8 16  1  0
  9 17  1  0
  9 18  1  0
 10 19  1  0
 10 20  1  0
 10 21  1  0
M  ISO  8  11  14  12  14  13  14  14   8  15   8  16   5  17   8  18   8
M  ISO  3  19   8  20   8  21   8
M  END
>  <minimizedAffinity>  (1) 
-3.90946341

>  <minimizedRMSD>  (1) 
1.46414077

$$$$
