
     RDKit          3D

 22 23  0  0  0  0  0  0  0  0999 V2000
   45.2630   35.6810   43.0620 C   0  0  0  0  0  0  0  0  0  0  0  0
   42.6540   35.0770   40.3790 C   0  0  0  0  0  0  0  0  0  0  0  0
   43.2810   35.6180   41.5360 C   0  0  0  0  0  0  0  0  0  0  0  0
   44.5430   35.1630   41.8710 C   0  0  0  0  0  0  0  0  0  0  0  0
   45.1260   34.2070   41.0640 N   0  0  0  0  0  0  0  0  0  0  0  0
   44.4990   33.7180   39.9760 C   0  0  0  0  0  0  0  0  0  0  0  0
   43.2750   34.1460   39.6330 N   0  0  0  0  0  0  0  0  0  0  0  0
   44.4690   35.2730   44.2170 N   0  0  0  0  0  0  0  0  0  0  0  0
   45.2570   34.3480   44.9570 C   0  0  0  0  0  0  0  0  0  0  0  0
   46.3450   33.6430   44.4270 C   0  0  0  0  0  0  0  0  0  0  0  0
   46.8080   32.8710   45.4730 C   0  0  0  0  0  0  0  0  0  0  0  0
   46.0080   33.1300   46.5640 C   0  0  0  0  0  0  0  0  0  0  0  0
   45.0840   34.0230   46.2190 O   0  0  0  0  0  0  0  0  0  0  0  0
   45.3380   36.7775   43.0171 H   0  0  0  0  0  0  0  0  0  0  0  0
   46.2887   35.2875   43.1172 H   0  0  0  0  0  0  0  0  0  0  0  0
   41.6505   35.4239   40.0915 H   0  0  0  0  0  0  0  0  0  0  0  0
   42.7747   36.3788   42.1483 H   0  0  0  0  0  0  0  0  0  0  0  0
   44.9987   32.9561   39.3597 H   0  0  0  0  0  0  0  0  0  0  0  0
   43.5188   35.5938   44.4517 H   0  0  0  0  0  0  0  0  0  0  0  0
   46.7428   33.6935   43.4027 H   0  0  0  0  0  0  0  0  0  0  0  0
   47.6600   32.1760   45.4413 H   0  0  0  0  0  0  0  0  0  0  0  0
   46.1156   32.6729   47.5587 H   0  0  0  0  0  0  0  0  0  0  0  0
  1  8  1  0
  2  3  2  0
  3  4  1  0
  4  1  1  0
  5  4  2  0
  6  5  1  0
  7  6  2  0
  7  2  1  0
  8  9  1  0
  9 13  1  0
 10  9  2  0
 10 11  1  0
 11 12  2  0
 13 12  1  0
  1 14  1  0
  1 15  1  0
  2 16  1  0
  3 17  1  0
  6 18  1  0
  8 19  1  0
 10 20  1  0
 11 21  1  0
 12 22  1  0
M  ISO  8  14   8  15   8  16  14  17  14  18  14  20  14  21  14  22  14
M  END
>  <minimizedAffinity>  (1) 
-3.83597684

>  <minimizedRMSD>  (1) 
5.41267061

$$$$
