
     RDKit          3D

 21 21  0  0  0  0  0  0  0  0999 V2000
   44.6280   36.0480   44.3210 C   0  0  0  0  0  0  0  0  0  0  0  0
   45.5220   35.6990   43.2840 C   0  0  0  0  0  0  0  0  0  0  0  0
   46.3160   34.5810   43.4890 C   0  0  0  0  0  0  0  0  0  0  0  0
   46.2010   33.8860   44.6570 N   0  0  0  0  0  0  0  0  0  0  0  0
   45.3290   34.2460   45.6410 C   0  0  0  0  0  0  0  0  0  0  0  0
   44.5510   35.3400   45.4400 N   0  0  0  0  0  0  0  0  0  0  0  0
   47.3030   34.1100   42.4630 C   0  0  0  0  0  0  0  0  0  0  0  0
   48.5730   33.9490   43.1630 N   0  0  0  0  0  0  0  0  0  0  0  0
   49.6300   32.9860   42.1900 S   0  0  0  0  0  0  0  0  0  0  0  0
   49.6990   31.3070   42.7010 C   0  0  0  0  0  0  0  0  0  0  0  0
   49.2390   33.0500   40.7490 O   0  0  0  0  0  0  0  0  0  0  0  0
   51.0310   33.5440   42.3660 O   0  0  0  0  0  0  0  0  0  0  0  0
   43.9801   36.9283   44.1973 H   0  0  0  0  0  0  0  0  0  0  0  0
   45.5852   36.2872   42.3567 H   0  0  0  0  0  0  0  0  0  0  0  0
   45.2577   33.6656   46.5727 H   0  0  0  0  0  0  0  0  0  0  0  0
   47.4023   34.8547   41.6595 H   0  0  0  0  0  0  0  0  0  0  0  0
   46.9790   33.1668   41.9988 H   0  0  0  0  0  0  0  0  0  0  0  0
   48.9982   34.8731   43.3251 H   0  0  0  0  0  0  0  0  0  0  0  0
   49.7010   31.2580   43.7999 H   0  0  0  0  0  0  0  0  0  0  0  0
   48.8222   30.7689   42.3116 H   0  0  0  0  0  0  0  0  0  0  0  0
   50.6170   30.8426   42.3116 H   0  0  0  0  0  0  0  0  0  0  0  0
  1  6  2  0
  2  3  2  0
  2  1  1  0
  3  4  1  0
  4  5  2  0
  6  5  1  0
  7  8  1  0
  7  3  1  0
  9 12  2  0
  9 10  1  0
  9  8  1  0
 11  9  2  0
  1 13  1  0
  2 14  1  0
  5 15  1  0
  7 16  1  0
  7 17  1  0
  8 18  1  0
 10 19  1  0
 10 20  1  0
 10 21  1  0
M  ISO  8  13  14  14  14  15  14  16   8  17   8  18   5  19   8  20   8
M  ISO  1  21   8
M  END
>  <minimizedAffinity>  (1) 
-3.71403813

>  <minimizedRMSD>  (1) 
1.96328437

$$$$
