
     RDKit          3D

 43 46  0  0  1  0  0  0  0  0999 V2000
   46.7100   34.2800   40.1840 N   0  0  0  0  0  0  0  0  0  0  0  0
   48.1210   34.5250   40.1250 C   0  0  0  0  0  0  0  0  0  0  0  0
   48.4950   35.0040   41.5050 C   0  0  0  0  0  0  0  0  0  0  0  0
   47.1250   35.3490   42.0510 C   0  0  0  0  0  0  0  0  0  0  0  0
   46.3270   34.1140   41.5190 C   0  0  2  0  0  0  0  0  0  0  0  0
   46.8270   33.0710   42.3760 C   0  0  0  0  0  0  0  0  0  0  0  0
   47.6380   31.9890   42.0970 C   0  0  0  0  0  0  0  0  0  0  0  0
   48.1060   31.0630   42.9900 C   0  0  0  0  0  0  0  0  0  0  0  0
   47.7770   31.1570   44.3110 C   0  0  0  0  0  0  0  0  0  0  0  0
   46.9780   32.1920   44.6910 C   0  0  0  0  0  0  0  0  0  0  0  0
   46.6570   32.2460   46.0320 C   0  0  0  0  0  0  0  0  0  0  0  0
   45.8440   33.2480   46.5090 C   0  0  0  0  0  0  0  0  0  0  0  0
   45.3680   34.1820   45.6150 C   0  0  0  0  0  0  0  0  0  0  0  0
   45.7220   34.0750   44.2940 C   0  0  0  0  0  0  0  0  0  0  0  0
   46.5330   33.1070   43.7250 C   0  0  0  0  0  0  0  0  0  0  0  0
   44.9530   34.2850   41.7440 N   0  0  0  0  0  0  0  0  0  0  0  0
   44.1970   34.4210   40.5170 C   0  0  0  0  0  0  0  0  0  0  0  0
   40.6340   34.9860   41.6200 C   0  0  0  0  0  0  0  0  0  0  0  0
   41.9440   35.2030   41.2270 C   0  0  0  0  0  0  0  0  0  0  0  0
   42.7670   34.1420   40.9280 C   0  0  0  0  0  0  0  0  0  0  0  0
   42.2140   32.8870   41.0400 N   0  0  0  0  0  0  0  0  0  0  0  0
   40.9600   32.6960   41.4160 C   0  0  0  0  0  0  0  0  0  0  0  0
   40.1710   33.7460   41.7060 N   0  0  0  0  0  0  0  0  0  0  0  0
   46.4861   33.4264   39.6528 H   0  0  0  0  0  0  0  0  0  0  0  0
   48.6633   33.6007   39.8770 H   0  0  0  0  0  0  0  0  0  0  0  0
   48.3793   35.2610   39.3494 H   0  0  0  0  0  0  0  0  0  0  0  0
   48.9801   34.2114   42.0936 H   0  0  0  0  0  0  0  0  0  0  0  0
   49.2206   35.8305   41.5250 H   0  0  0  0  0  0  0  0  0  0  0  0
   47.1205   35.4000   43.1498 H   0  0  0  0  0  0  0  0  0  0  0  0
   46.7307   36.3307   41.7496 H   0  0  0  0  0  0  0  0  0  0  0  0
   47.9396   31.8573   41.0474 H   0  0  0  0  0  0  0  0  0  0  0  0
   48.7489   30.2411   42.6419 H   0  0  0  0  0  0  0  0  0  0  0  0
   48.1443   30.4226   45.0430 H   0  0  0  0  0  0  0  0  0  0  0  0
   47.0524   31.4856   46.7216 H   0  0  0  0  0  0  0  0  0  0  0  0
   45.5810   33.3020   47.5757 H   0  0  0  0  0  0  0  0  0  0  0  0
   44.7152   34.9996   45.9547 H   0  0  0  0  0  0  0  0  0  0  0  0
   45.3187   34.8397   43.6139 H   0  0  0  0  0  0  0  0  0  0  0  0
   44.5994   33.4664   42.2595 H   0  0  0  0  0  0  0  0  0  0  0  0
   44.5365   33.6916   39.7669 H   0  0  0  0  0  0  0  0  0  0  0  0
   44.3168   35.4127   40.0564 H   0  0  0  0  0  0  0  0  0  0  0  0
   39.9806   35.8378   41.8597 H   0  0  0  0  0  0  0  0  0  0  0  0
   42.3291   36.2307   41.1534 H   0  0  0  0  0  0  0  0  0  0  0  0
   40.5608   31.6738   41.4918 H   0  0  0  0  0  0  0  0  0  0  0  0
  1  5  1  0
  2  1  1  0
  2  3  1  0
  3  4  1  0
  5 16  1  6
  5  4  1  0
  5  6  1  0
  6 15  1  0
  7  6  2  0
  7  8  1  0
  8  9  2  0
  9 10  1  0
 10 11  2  0
 11 12  1  0
 13 12  2  0
 14 13  1  0
 15 14  2  0
 15 10  1  0
 17 20  1  0
 17 16  1  0
 18 23  2  0
 19 18  1  0
 20 21  1  0
 20 19  2  0
 21 22  2  0
 22 23  1  0
  1 24  1  0
  2 25  1  0
  2 26  1  0
  3 27  1  0
  3 28  1  0
  4 29  1  0
  4 30  1  0
  7 31  1  0
  8 32  1  0
  9 33  1  0
 11 34  1  0
 12 35  1  0
 13 36  1  0
 14 37  1  0
 16 38  1  0
 17 39  1  0
 17 40  1  0
 18 41  1  0
 19 42  1  0
 22 43  1  0
M  ISO  8  24   5  25  13  26  13  27  13  28  13  29  13  30  13  31  14
M  ISO  8  32  14  33  14  34  14  35  14  36  14  37  14  38   5  39   8
M  ISO  4  40   8  41  14  42  14  43  14
M  END
>  <minimizedAffinity>  (1) 
-5.6098175

>  <minimizedRMSD>  (1) 
4.60310364

$$$$
