
     RDKit          3D

 37 39  0  0  1  0  0  0  0  0999 V2000
   46.5860   33.9330   40.2250 N   0  0  0  0  0  0  0  0  0  0  0  0
   47.0860   33.6150   38.9130 C   0  0  0  0  0  0  0  0  0  0  0  0
   48.3890   34.3120   38.7510 C   0  0  0  0  0  0  0  0  0  0  0  0
   48.4690   35.2080   39.9830 C   0  0  0  0  0  0  0  0  0  0  0  0
   47.7230   34.3930   40.9920 C   0  0  2  0  0  0  0  0  0  0  0  0
   48.5660   33.3040   41.5000 C   0  0  0  0  0  0  0  0  0  0  0  0
   48.1910   31.9940   41.7280 C   0  0  0  0  0  0  0  0  0  0  0  0
   48.9700   30.9900   42.2110 C   0  0  0  0  0  0  0  0  0  0  0  0
   50.2810   31.2460   42.5240 C   0  0  0  0  0  0  0  0  0  0  0  0
   50.7490   32.5290   42.3280 C   0  0  0  0  0  0  0  0  0  0  0  0
   49.9060   33.5040   41.8340 C   0  0  0  0  0  0  0  0  0  0  0  0
   47.3200   35.2160   42.0980 N   0  0  0  0  0  0  0  0  0  0  0  0
   45.8870   35.2100   42.2060 C   0  0  0  0  0  0  0  0  0  0  0  0
   44.5180   35.2670   45.7530 C   0  0  0  0  0  0  0  0  0  0  0  0
   44.7240   35.6520   44.4290 C   0  0  0  0  0  0  0  0  0  0  0  0
   45.5970   34.8780   43.6510 C   0  0  0  0  0  0  0  0  0  0  0  0
   46.1900   33.7990   44.2340 N   0  0  0  0  0  0  0  0  0  0  0  0
   45.9640   33.4600   45.5210 C   0  0  0  0  0  0  0  0  0  0  0  0
   45.1270   34.1990   46.2730 N   0  0  0  0  0  0  0  0  0  0  0  0
   46.1755   33.0959   40.6628 H   0  0  0  0  0  0  0  0  0  0  0  0
   47.2269   32.5282   38.8179 H   0  0  0  0  0  0  0  0  0  0  0  0
   46.3748   33.9377   38.1384 H   0  0  0  0  0  0  0  0  0  0  0  0
   49.2205   33.5921   38.7337 H   0  0  0  0  0  0  0  0  0  0  0  0
   48.4604   34.8732   37.8076 H   0  0  0  0  0  0  0  0  0  0  0  0
   49.5115   35.3745   40.2920 H   0  0  0  0  0  0  0  0  0  0  0  0
   48.0605   36.2179   39.8309 H   0  0  0  0  0  0  0  0  0  0  0  0
   47.1481   31.7350   41.4930 H   0  0  0  0  0  0  0  0  0  0  0  0
   48.5530   29.9816   42.3496 H   0  0  0  0  0  0  0  0  0  0  0  0
   50.9366   30.4554   42.9178 H   0  0  0  0  0  0  0  0  0  0  0  0
   51.7945   32.7751   42.5655 H   0  0  0  0  0  0  0  0  0  0  0  0
   50.3211   34.5129   41.6933 H   0  0  0  0  0  0  0  0  0  0  0  0
   47.7309   34.8471   42.9675 H   0  0  0  0  0  0  0  0  0  0  0  0
   45.4771   36.1976   41.9479 H   0  0  0  0  0  0  0  0  0  0  0  0
   45.4272   34.4848   41.5185 H   0  0  0  0  0  0  0  0  0  0  0  0
   43.8374   35.8573   46.3842 H   0  0  0  0  0  0  0  0  0  0  0  0
   44.2184   36.5338   44.0085 H   0  0  0  0  0  0  0  0  0  0  0  0
   46.4632   32.5810   45.9547 H   0  0  0  0  0  0  0  0  0  0  0  0
  1  5  1  0
  2  1  1  0
  3  2  1  0
  3  4  1  0
  4  5  1  0
  5  6  1  0
  5 12  1  1
  6  7  2  0
  6 11  1  0
  7  8  1  0
  8  9  2  0
 10  9  1  0
 11 10  2  0
 12 13  1  0
 13 16  1  0
 14 19  2  0
 15 14  1  0
 16 17  1  0
 16 15  2  0
 17 18  2  0
 18 19  1  0
  1 20  1  0
  2 21  1  0
  2 22  1  0
  3 23  1  0
  3 24  1  0
  4 25  1  0
  4 26  1  0
  7 27  1  0
  8 28  1  0
  9 29  1  0
 10 30  1  0
 11 31  1  0
 12 32  1  0
 13 33  1  0
 13 34  1  0
 14 35  1  0
 15 36  1  0
 18 37  1  0
M  ISO  8  20   5  21  13  22  13  23  13  24  13  25  13  26  13  27  14
M  ISO  8  28  14  29  14  30  14  31  14  32   5  33   8  34   8  35  14
M  ISO  2  36  14  37  14
M  END
>  <minimizedAffinity>  (1) 
-4.68487787

>  <minimizedRMSD>  (1) 
1.50936091

$$$$
