
     RDKit          3D

 41 43  0  0  1  0  0  0  0  0999 V2000
   46.4020   33.6020   39.4140 N   0  0  0  0  0  0  0  0  0  0  0  0
   46.9760   33.3750   38.1050 C   0  0  0  0  0  0  0  0  0  0  0  0
   48.3270   34.0030   38.0850 C   0  0  0  0  0  0  0  0  0  0  0  0
   48.3650   34.8010   39.3810 C   0  0  0  0  0  0  0  0  0  0  0  0
   47.5130   33.9210   40.2770 C   0  0  2  0  0  0  0  0  0  0  0  0
   48.2760   32.7320   40.6060 N   0  0  0  0  0  0  0  0  0  0  0  0
   47.4730   31.6680   41.1070 C   0  0  0  0  0  0  0  0  0  0  0  0
   48.1340   30.5670   41.8300 C   0  0  0  0  0  0  0  0  0  0  0  0
   49.5580   30.6030   41.6160 N   0  0  0  0  0  0  0  0  0  0  0  0
   49.9740   31.8850   42.1730 C   0  0  0  0  0  0  0  0  0  0  0  0
   49.4520   33.0300   41.3500 C   0  0  0  0  0  0  0  0  0  0  0  0
   47.1360   34.5850   41.4600 N   0  0  0  0  0  0  0  0  0  0  0  0
   45.6960   34.7060   41.5420 C   0  0  0  0  0  0  0  0  0  0  0  0
   44.4690   35.9460   44.9060 C   0  0  0  0  0  0  0  0  0  0  0  0
   44.7260   35.9000   43.5380 C   0  0  0  0  0  0  0  0  0  0  0  0
   45.3870   34.8050   43.0120 C   0  0  0  0  0  0  0  0  0  0  0  0
   45.7440   33.8330   43.8920 N   0  0  0  0  0  0  0  0  0  0  0  0
   45.4970   33.8790   45.1990 C   0  0  0  0  0  0  0  0  0  0  0  0
   44.8530   34.9510   45.6970 N   0  0  0  0  0  0  0  0  0  0  0  0
   45.9204   32.7546   39.7469 H   0  0  0  0  0  0  0  0  0  0  0  0
   47.0627   32.2947   37.9166 H   0  0  0  0  0  0  0  0  0  0  0  0
   46.3371   33.8130   37.3240 H   0  0  0  0  0  0  0  0  0  0  0  0
   49.1167   33.2374   38.0710 H   0  0  0  0  0  0  0  0  0  0  0  0
   48.4985   34.6240   37.1934 H   0  0  0  0  0  0  0  0  0  0  0  0
   49.3905   34.8999   39.7664 H   0  0  0  0  0  0  0  0  0  0  0  0
   48.0111   35.8385   39.2894 H   0  0  0  0  0  0  0  0  0  0  0  0
   46.7377   32.1121   41.7941 H   0  0  0  0  0  0  0  0  0  0  0  0
   47.0660   31.1902   40.2037 H   0  0  0  0  0  0  0  0  0  0  0  0
   47.9275   30.6656   42.9059 H   0  0  0  0  0  0  0  0  0  0  0  0
   47.7428   29.6103   41.4537 H   0  0  0  0  0  0  0  0  0  0  0  0
   50.0205   29.8246   42.1070 H   0  0  0  0  0  0  0  0  0  0  0  0
   49.5858   31.9737   43.1984 H   0  0  0  0  0  0  0  0  0  0  0  0
   51.0732   31.9262   42.1698 H   0  0  0  0  0  0  0  0  0  0  0  0
   50.2388   33.3322   40.6431 H   0  0  0  0  0  0  0  0  0  0  0  0
   49.1816   33.8274   42.0579 H   0  0  0  0  0  0  0  0  0  0  0  0
   47.4771   34.0501   42.2714 H   0  0  0  0  0  0  0  0  0  0  0  0
   45.3549   35.6094   41.0152 H   0  0  0  0  0  0  0  0  0  0  0  0
   45.1860   33.8516   41.0731 H   0  0  0  0  0  0  0  0  0  0  0  0
   43.9442   36.8127   45.3342 H   0  0  0  0  0  0  0  0  0  0  0  0
   44.4071   36.7247   42.8837 H   0  0  0  0  0  0  0  0  0  0  0  0
   45.8128   33.0576   45.8590 H   0  0  0  0  0  0  0  0  0  0  0  0
  1  5  1  0
  2  1  1  0
  3  2  1  0
  3  4  1  0
  4  5  1  0
  5  6  1  0
  5 12  1  1
  6  7  1  0
  6 11  1  0
  7  8  1  0
  9  8  1  0
  9 10  1  0
 11 10  1  0
 12 13  1  0
 13 16  1  0
 14 19  2  0
 15 14  1  0
 16 15  2  0
 16 17  1  0
 17 18  2  0
 18 19  1  0
  1 20  1  0
  2 21  1  0
  2 22  1  0
  3 23  1  0
  3 24  1  0
  4 25  1  0
  4 26  1  0
  7 27  1  0
  7 28  1  0
  8 29  1  0
  8 30  1  0
  9 31  1  0
 10 32  1  0
 10 33  1  0
 11 34  1  0
 11 35  1  0
 12 36  1  0
 13 37  1  0
 13 38  1  0
 14 39  1  0
 15 40  1  0
 18 41  1  0
M  ISO  8  20   5  21  13  22  13  23  13  24  13  25  13  26  13  27  13
M  ISO  8  28  13  29  13  30  13  31   5  32  13  33  13  34  13  35  13
M  ISO  6  36   5  37   8  38   8  39  14  40  14  41  14
M  END
>  <minimizedAffinity>  (1) 
-4.3897295

>  <minimizedRMSD>  (1) 
0.907114327

$$$$
