
     RDKit          3D

 33 35  0  0  1  0  0  0  0  0999 V2000
   46.3510   33.8800   40.0570 N   0  0  0  0  0  0  0  0  0  0  0  0
   46.8550   33.4860   38.7590 C   0  0  0  0  0  0  0  0  0  0  0  0
   48.2480   33.9840   38.6400 C   0  0  0  0  0  0  0  0  0  0  0  0
   48.3510   34.9420   39.8260 C   0  0  0  0  0  0  0  0  0  0  0  0
   47.5390   34.2190   40.8400 C   0  0  2  0  0  0  0  0  0  0  0  0
   48.2140   33.0010   41.2240 N   0  0  0  0  0  0  0  0  0  0  0  0
   47.7490   31.7810   41.5240 C   0  0  0  0  0  0  0  0  0  0  0  0
   48.7670   30.9570   41.8250 N   0  0  0  0  0  0  0  0  0  0  0  0
   49.8840   31.6760   41.7080 C   0  0  0  0  0  0  0  0  0  0  0  0
   49.5480   32.9100   41.3450 N   0  0  0  0  0  0  0  0  0  0  0  0
   47.2450   35.0360   41.9650 N   0  0  0  0  0  0  0  0  0  0  0  0
   45.8180   35.1210   42.1080 C   0  0  0  0  0  0  0  0  0  0  0  0
   44.5500   35.2690   45.7020 C   0  0  0  0  0  0  0  0  0  0  0  0
   44.6930   35.6670   44.3560 C   0  0  0  0  0  0  0  0  0  0  0  0
   45.5290   34.8830   43.5690 C   0  0  0  0  0  0  0  0  0  0  0  0
   46.1440   33.8050   44.1290 N   0  0  0  0  0  0  0  0  0  0  0  0
   45.9940   33.4400   45.4190 C   0  0  0  0  0  0  0  0  0  0  0  0
   45.1770   34.1990   46.2060 N   0  0  0  0  0  0  0  0  0  0  0  0
   45.8377   33.1028   40.4968 H   0  0  0  0  0  0  0  0  0  0  0  0
   46.8411   32.3897   38.6698 H   0  0  0  0  0  0  0  0  0  0  0  0
   46.2277   33.9082   37.9601 H   0  0  0  0  0  0  0  0  0  0  0  0
   48.9741   33.1623   38.7269 H   0  0  0  0  0  0  0  0  0  0  0  0
   48.4668   34.4561   37.6709 H   0  0  0  0  0  0  0  0  0  0  0  0
   49.3929   35.0670   40.1560 H   0  0  0  0  0  0  0  0  0  0  0  0
   48.0093   35.9661   39.6150 H   0  0  0  0  0  0  0  0  0  0  0  0
   46.6869   31.4949   41.5240 H   0  0  0  0  0  0  0  0  0  0  0  0
   50.9070   31.3110   41.8819 H   0  0  0  0  0  0  0  0  0  0  0  0
   47.6547   34.6194   42.8132 H   0  0  0  0  0  0  0  0  0  0  0  0
   45.4628   36.1173   41.8060 H   0  0  0  0  0  0  0  0  0  0  0  0
   45.3058   34.3841   41.4719 H   0  0  0  0  0  0  0  0  0  0  0  0
   43.8986   35.8603   46.3623 H   0  0  0  0  0  0  0  0  0  0  0  0
   44.1725   36.5478   43.9521 H   0  0  0  0  0  0  0  0  0  0  0  0
   46.5135   32.5589   45.8237 H   0  0  0  0  0  0  0  0  0  0  0  0
  1  5  1  0
  2  1  1  0
  3  2  1  0
  3  4  1  0
  4  5  1  0
  5  6  1  0
  5 11  1  1
  6 10  1  0
  6  7  1  0
  7  8  2  0
  9  8  1  0
 10  9  2  0
 11 12  1  0
 12 15  1  0
 13 18  2  0
 14 13  1  0
 15 16  1  0
 15 14  2  0
 16 17  2  0
 17 18  1  0
  1 19  1  0
  2 20  1  0
  2 21  1  0
  3 22  1  0
  3 23  1  0
  4 24  1  0
  4 25  1  0
  7 26  1  0
  9 27  1  0
 11 28  1  0
 12 29  1  0
 12 30  1  0
 13 31  1  0
 14 32  1  0
 17 33  1  0
M  ISO  8  19   5  20  13  21  13  22  13  23  13  24  13  25  13  26  14
M  ISO  7  27  14  28   5  29   8  30   8  31  14  32  14  33  14
M  END
>  <minimizedAffinity>  (1) 
-4.32405519

>  <minimizedRMSD>  (1) 
1.31335163

$$$$
