
     RDKit          3D

 36 37  0  0  1  0  0  0  0  0999 V2000
   47.0110   32.7180   39.8890 N   0  0  0  0  0  0  0  0  0  0  0  0
   47.5470   32.9440   38.5600 C   0  0  0  0  0  0  0  0  0  0  0  0
   48.3470   34.1800   38.6100 C   0  0  0  0  0  0  0  0  0  0  0  0
   48.1380   34.6860   40.0300 C   0  0  0  0  0  0  0  0  0  0  0  0
   47.9390   33.4220   40.7760 C   0  0  2  0  0  0  0  0  0  0  0  0
   49.2230   32.6640   40.9100 C   0  0  0  0  0  0  0  0  0  0  0  0
   49.0990   31.2510   41.3620 C   0  0  0  0  0  0  0  0  0  0  0  0
   50.0780   33.3860   41.9510 C   0  0  0  0  0  0  0  0  0  0  0  0
   47.3570   33.6610   42.0580 N   0  0  0  0  0  0  0  0  0  0  0  0
   46.6350   34.9000   41.9900 C   0  0  0  0  0  0  0  0  0  0  0  0
   44.4510   35.9350   44.9450 C   0  0  0  0  0  0  0  0  0  0  0  0
   45.0080   36.0450   43.6750 C   0  0  0  0  0  0  0  0  0  0  0  0
   45.9010   35.0320   43.3030 C   0  0  0  0  0  0  0  0  0  0  0  0
   46.1610   34.0320   44.1860 N   0  0  0  0  0  0  0  0  0  0  0  0
   45.5980   33.9580   45.4190 C   0  0  0  0  0  0  0  0  0  0  0  0
   44.7270   34.9460   45.7810 N   0  0  0  0  0  0  0  0  0  0  0  0
   46.9892   31.7117   40.1077 H   0  0  0  0  0  0  0  0  0  0  0  0
   46.7251   33.0574   37.8378 H   0  0  0  0  0  0  0  0  0  0  0  0
   48.1676   32.0931   38.2425 H   0  0  0  0  0  0  0  0  0  0  0  0
   49.4097   33.9676   38.4214 H   0  0  0  0  0  0  0  0  0  0  0  0
   48.0474   34.9136   37.8470 H   0  0  0  0  0  0  0  0  0  0  0  0
   49.0208   35.2316   40.3947 H   0  0  0  0  0  0  0  0  0  0  0  0
   47.3061   35.3985   40.1310 H   0  0  0  0  0  0  0  0  0  0  0  0
   49.6541   32.6306   39.8986 H   0  0  0  0  0  0  0  0  0  0  0  0
   49.0960   31.2167   42.4615 H   0  0  0  0  0  0  0  0  0  0  0  0
   48.1600   30.8247   40.9793 H   0  0  0  0  0  0  0  0  0  0  0  0
   49.9494   30.6676   40.9793 H   0  0  0  0  0  0  0  0  0  0  0  0
   49.7434   33.1035   42.9601 H   0  0  0  0  0  0  0  0  0  0  0  0
   51.1324   33.1009   41.8211 H   0  0  0  0  0  0  0  0  0  0  0  0
   49.9735   34.4733   41.8211 H   0  0  0  0  0  0  0  0  0  0  0  0
   46.7136   32.8936   42.2989 H   0  0  0  0  0  0  0  0  0  0  0  0
   47.3318   35.7406   41.8564 H   0  0  0  0  0  0  0  0  0  0  0  0
   45.9388   34.9122   41.1384 H   0  0  0  0  0  0  0  0  0  0  0  0
   43.7435   36.7111   45.2722 H   0  0  0  0  0  0  0  0  0  0  0  0
   44.7614   36.8793   43.0018 H   0  0  0  0  0  0  0  0  0  0  0  0
   45.8352   33.1303   46.1036 H   0  0  0  0  0  0  0  0  0  0  0  0
  1  5  1  0
  2  3  1  0
  2  1  1  0
  3  4  1  0
  4  5  1  0
  5  6  1  0
  5  9  1  1
  6  7  1  0
  6  8  1  0
 10  9  1  0
 10 13  1  0
 11 16  2  0
 12 11  1  0
 13 12  2  0
 13 14  1  0
 14 15  2  0
 15 16  1  0
  1 17  1  0
  2 18  1  0
  2 19  1  0
  3 20  1  0
  3 21  1  0
  4 22  1  0
  4 23  1  0
  6 24  1  0
  7 25  1  0
  7 26  1  0
  7 27  1  0
  8 28  1  0
  8 29  1  0
  8 30  1  0
  9 31  1  0
 10 32  1  0
 10 33  1  0
 11 34  1  0
 12 35  1  0
 15 36  1  0
M  ISO  8  17   5  18  13  19  13  20  13  21  13  22  13  23  13  24   8
M  ISO  8  25   8  26   8  27   8  28   8  29   8  30   8  31   5  32   8
M  ISO  4  33   8  34  14  35  14  36  14
M  END
>  <minimizedAffinity>  (1) 
-4.21841717

>  <minimizedRMSD>  (1) 
1.4563235

$$$$
