
     RDKit          3D

 30 31  0  0  1  0  0  0  0  0999 V2000
   47.1420   34.4880   41.1700 N   0  0  0  0  0  0  0  0  0  0  0  0
   46.3690   33.7350   39.0350 N   0  0  0  0  0  0  0  0  0  0  0  0
   46.9950   33.4410   37.7550 C   0  0  0  0  0  0  0  0  0  0  0  0
   48.3620   34.0100   37.7890 C   0  0  0  0  0  0  0  0  0  0  0  0
   48.3950   34.7350   39.1330 C   0  0  0  0  0  0  0  0  0  0  0  0
   47.5220   33.8620   39.9460 C   0  0  1  0  0  0  0  0  0  0  0  0
   48.1460   32.5130   40.1640 C   0  0  0  0  0  0  0  0  0  0  0  0
   45.7100   34.4300   41.2680 C   0  0  0  0  0  0  0  0  0  0  0  0
   44.5990   35.9760   44.5810 C   0  0  0  0  0  0  0  0  0  0  0  0
   44.8110   35.9340   43.2070 C   0  0  0  0  0  0  0  0  0  0  0  0
   45.3800   34.7490   42.7070 C   0  0  0  0  0  0  0  0  0  0  0  0
   45.6780   33.7470   43.5790 N   0  0  0  0  0  0  0  0  0  0  0  0
   45.4540   33.8310   44.9170 C   0  0  0  0  0  0  0  0  0  0  0  0
   44.9010   34.9820   45.4020 N   0  0  0  0  0  0  0  0  0  0  0  0
   47.4537   35.4697   41.1728 H   0  0  0  0  0  0  0  0  0  0  0  0
   45.7480   32.9675   39.3285 H   0  0  0  0  0  0  0  0  0  0  0  0
   46.4169   33.9001   36.9395 H   0  0  0  0  0  0  0  0  0  0  0  0
   47.0305   32.3555   37.5804 H   0  0  0  0  0  0  0  0  0  0  0  0
   49.1224   33.2162   37.7485 H   0  0  0  0  0  0  0  0  0  0  0  0
   48.5808   34.6675   36.9347 H   0  0  0  0  0  0  0  0  0  0  0  0
   49.4149   34.7805   39.5425 H   0  0  0  0  0  0  0  0  0  0  0  0
   48.0718   35.7855   39.0895 H   0  0  0  0  0  0  0  0  0  0  0  0
   48.2351   32.3203   41.2433 H   0  0  0  0  0  0  0  0  0  0  0  0
   47.5147   31.7384   39.7042 H   0  0  0  0  0  0  0  0  0  0  0  0
   49.1451   32.4925   39.7042 H   0  0  0  0  0  0  0  0  0  0  0  0
   45.2503   35.1705   40.5969 H   0  0  0  0  0  0  0  0  0  0  0  0
   45.3249   33.4422   40.9749 H   0  0  0  0  0  0  0  0  0  0  0  0
   44.1553   36.8866   45.0099 H   0  0  0  0  0  0  0  0  0  0  0  0
   44.5493   36.7771   42.5507 H   0  0  0  0  0  0  0  0  0  0  0  0
   45.7101   32.9981   45.5883 H   0  0  0  0  0  0  0  0  0  0  0  0
  1  8  1  0
  2  6  1  0
  3  4  1  0
  3  2  1  0
  4  5  1  0
  5  6  1  0
  6  7  1  0
  6  1  1  1
  8 11  1  0
  9 14  2  0
 10  9  1  0
 11 10  2  0
 11 12  1  0
 12 13  2  0
 13 14  1  0
  1 15  1  0
  2 16  1  0
  3 17  1  0
  3 18  1  0
  4 19  1  0
  4 20  1  0
  5 21  1  0
  5 22  1  0
  7 23  1  0
  7 24  1  0
  7 25  1  0
  8 26  1  0
  8 27  1  0
  9 28  1  0
 10 29  1  0
 13 30  1  0
M  ISO  8  15   5  16   5  17  13  18  13  19  13  20  13  21  13  22  13
M  ISO  8  23   8  24   8  25   8  26   8  27   8  28  14  29  14  30  14
M  END
>  <minimizedAffinity>  (1) 
-4.08585405

>  <minimizedRMSD>  (1) 
0.123046577

$$$$
