
     RDKit          3D

 29 30  0  0  1  0  0  0  0  0999 V2000
   46.3980   33.6920   39.0590 N   0  0  0  0  0  0  0  0  0  0  0  0
   46.9760   33.4750   37.7490 C   0  0  0  0  0  0  0  0  0  0  0  0
   48.3570   34.0010   37.7720 C   0  0  0  0  0  0  0  0  0  0  0  0
   48.4180   34.7330   39.1120 C   0  0  0  0  0  0  0  0  0  0  0  0
   47.5560   33.8790   39.9490 C   0  0  2  0  0  0  0  0  0  0  0  0
   48.1080   32.5690   40.1680 N   0  0  0  0  0  0  0  0  0  0  0  0
   47.1630   34.5410   41.1550 N   0  0  0  0  0  0  0  0  0  0  0  0
   45.7350   34.4240   41.2610 C   0  0  0  0  0  0  0  0  0  0  0  0
   44.5990   35.9840   44.5630 C   0  0  0  0  0  0  0  0  0  0  0  0
   44.8240   35.9330   43.1870 C   0  0  0  0  0  0  0  0  0  0  0  0
   45.3950   34.7520   42.6920 C   0  0  0  0  0  0  0  0  0  0  0  0
   45.6870   33.7550   43.5710 N   0  0  0  0  0  0  0  0  0  0  0  0
   45.4540   33.8400   44.9070 C   0  0  0  0  0  0  0  0  0  0  0  0
   44.8970   34.9900   45.3870 N   0  0  0  0  0  0  0  0  0  0  0  0
   45.8427   32.8752   39.3514 H   0  0  0  0  0  0  0  0  0  0  0  0
   46.3861   34.0056   36.9871 H   0  0  0  0  0  0  0  0  0  0  0  0
   46.9771   32.4030   37.5022 H   0  0  0  0  0  0  0  0  0  0  0  0
   49.0928   33.1843   37.7328 H   0  0  0  0  0  0  0  0  0  0  0  0
   48.5918   34.6458   36.9123 H   0  0  0  0  0  0  0  0  0  0  0  0
   49.4456   34.7729   39.5023 H   0  0  0  0  0  0  0  0  0  0  0  0
   48.0995   35.7848   39.0649 H   0  0  0  0  0  0  0  0  0  0  0  0
   48.1823   32.3926   41.1800 H   0  0  0  0  0  0  0  0  0  0  0  0
   47.4935   31.8616   39.7404 H   0  0  0  0  0  0  0  0  0  0  0  0
   47.6144   34.0938   41.9657 H   0  0  0  0  0  0  0  0  0  0  0  0
   45.2420   35.1326   40.5792 H   0  0  0  0  0  0  0  0  0  0  0  0
   45.3926   33.4152   40.9872 H   0  0  0  0  0  0  0  0  0  0  0  0
   44.1514   36.8958   44.9853 H   0  0  0  0  0  0  0  0  0  0  0  0
   44.5673   36.7740   42.5261 H   0  0  0  0  0  0  0  0  0  0  0  0
   45.7064   33.0079   45.5808 H   0  0  0  0  0  0  0  0  0  0  0  0
  1  5  1  0
  2  3  1  0
  2  1  1  0
  3  4  1  0
  4  5  1  0
  5  6  1  1
  5  7  1  0
  7  8  1  0
  8 11  1  0
  9 14  2  0
 10  9  1  0
 11 10  2  0
 11 12  1  0
 12 13  2  0
 13 14  1  0
  1 15  1  0
  2 16  1  0
  2 17  1  0
  3 18  1  0
  3 19  1  0
  4 20  1  0
  4 21  1  0
  6 22  1  0
  6 23  1  0
  7 24  1  0
  8 25  1  0
  8 26  1  0
  9 27  1  0
 10 28  1  0
 13 29  1  0
M  ISO  8  15   5  16  13  17  13  18  13  19  13  20  13  21  13  22   5
M  ISO  7  23   5  24   5  25   8  26   8  27  14  28  14  29  14
M  END
>  <minimizedAffinity>  (1) 
-4.07958031

>  <minimizedRMSD>  (1) 
0.148408398

$$$$
