
     RDKit          3D

 23 25  0  0  1  0  0  0  0  0999 V2000
   45.9240   33.3860   41.6030 C   0  0  1  0  0  0  0  0  0  0  0  0
   46.6750   34.7160   41.5730 C   0  0  0  0  0  0  0  0  0  0  0  0
   46.5230   33.9060   42.8250 C   0  0  1  0  0  0  0  0  0  0  0  0
   42.6480   34.6870   40.3410 C   0  0  0  0  0  0  0  0  0  0  0  0
   44.0310   34.5980   40.5730 C   0  0  0  0  0  0  0  0  0  0  0  0
   44.4640   33.5170   41.3550 C   0  0  0  0  0  0  0  0  0  0  0  0
   43.5260   32.6270   41.8400 N   0  0  0  0  0  0  0  0  0  0  0  0
   42.2200   32.7740   41.5770 C   0  0  0  0  0  0  0  0  0  0  0  0
   41.7810   33.7950   40.8340 N   0  0  0  0  0  0  0  0  0  0  0  0
   45.7400   34.5530   43.8590 N   0  0  0  0  0  0  0  0  0  0  0  0
   45.3970   34.1250   45.0870 C   0  0  0  0  0  0  0  0  0  0  0  0
   44.6560   35.0510   45.7210 N   0  0  0  0  0  0  0  0  0  0  0  0
   44.5290   36.0870   44.8720 C   0  0  0  0  0  0  0  0  0  0  0  0
   45.1960   35.7730   43.7340 N   0  0  0  0  0  0  0  0  0  0  0  0
   45.9833   32.4019   41.1151 H   0  0  0  0  0  0  0  0  0  0  0  0
   47.6526   34.7922   41.0745 H   0  0  0  0  0  0  0  0  0  0  0  0
   46.4478   35.7470   41.2643 H   0  0  0  0  0  0  0  0  0  0  0  0
   47.1773   33.4212   43.5645 H   0  0  0  0  0  0  0  0  0  0  0  0
   42.2645   35.5194   39.7326 H   0  0  0  0  0  0  0  0  0  0  0  0
   44.7361   35.3363   40.1634 H   0  0  0  0  0  0  0  0  0  0  0  0
   41.5001   32.0452   41.9777 H   0  0  0  0  0  0  0  0  0  0  0  0
   45.6830   33.1523   45.5137 H   0  0  0  0  0  0  0  0  0  0  0  0
   43.9820   37.0214   45.0663 H   0  0  0  0  0  0  0  0  0  0  0  0
  1  3  1  0
  2  1  1  0
  2  3  1  0
  3 10  1  0
  4  5  2  0
  4  9  1  0
  5  6  1  0
  6  1  1  0
  6  7  2  0
  8  7  1  0
  9  8  2  0
 10 11  1  0
 11 12  2  0
 13 12  1  0
 14 10  1  0
 14 13  2  0
  1 15  1  6
  2 16  1  0
  2 17  1  0
  3 18  1  1
  4 19  1  0
  5 20  1  0
  8 21  1  0
 11 22  1  0
 13 23  1  0
M  ISO  8  15  13  16  13  17  13  18  13  19  14  20  14  21  14  22  14
M  ISO  1  23  14
M  END
>  <minimizedAffinity>  (1) 
-3.8480134

>  <minimizedRMSD>  (1) 
4.29662704

$$$$
