
     RDKit          3D

 44 47  0  0  1  0  0  0  0  0999 V2000
   44.8110   35.5510   44.9400 C   0  0  0  0  0  0  0  0  0  0  0  0
   44.1300   35.5490   43.7250 C   0  0  0  0  0  0  0  0  0  0  0  0
   44.2130   34.3660   42.9690 C   0  0  0  0  0  0  0  0  0  0  0  0
   44.9400   33.3140   43.4610 N   0  0  0  0  0  0  0  0  0  0  0  0
   45.5850   33.3610   44.6440 C   0  0  0  0  0  0  0  0  0  0  0  0
   45.5090   34.5020   45.3820 N   0  0  0  0  0  0  0  0  0  0  0  0
   46.3310   32.2400   45.1160 N   0  0  0  0  0  0  0  0  0  0  0  0
   47.2420   31.5810   44.3700 C   0  0  0  0  0  0  0  0  0  0  0  0
   47.7590   30.5720   45.1320 N   0  0  0  0  0  0  0  0  0  0  0  0
   47.1310   30.6530   46.3410 C   0  0  0  0  0  0  0  0  0  0  0  0
   47.2670   29.8740   47.4960 C   0  0  0  0  0  0  0  0  0  0  0  0
   48.0560   28.9220   47.5570 O   0  0  0  0  0  0  0  0  0  0  0  0
   46.5090   30.1920   48.5430 N   0  0  0  0  0  0  0  0  0  0  0  0
   45.6290   31.2150   48.5450 C   0  0  0  0  0  0  0  0  0  0  0  0
   44.8030   31.5860   49.6390 N   0  0  0  0  0  0  0  0  0  0  0  0
   45.4890   31.9710   47.4390 N   0  0  0  0  0  0  0  0  0  0  0  0
   46.2240   31.7040   46.3470 C   0  0  0  0  0  0  0  0  0  0  0  0
   43.5530   34.1460   41.6280 C   0  0  0  0  0  0  0  0  0  0  0  0
   42.2340   34.6890   41.7470 N   0  0  0  0  0  0  0  0  0  0  0  0
   41.6390   35.3350   39.5360 N   0  0  0  0  0  0  0  0  0  0  0  0
   41.3120   34.6520   38.3090 C   0  0  0  0  0  0  0  0  0  0  0  0
   41.5220   33.2090   38.5160 C   0  0  0  0  0  0  0  0  0  0  0  0
   42.0950   33.1360   39.9220 C   0  0  0  0  0  0  0  0  0  0  0  0
   41.4950   34.3260   40.5720 C   0  0  1  0  0  0  0  0  0  0  0  0
   40.0430   34.2430   40.9050 C   0  0  0  0  0  0  0  0  0  0  0  0
   39.8630   34.3720   42.2830 F   0  0  0  0  0  0  0  0  0  0  0  0
   39.2930   35.1830   40.2490 F   0  0  0  0  0  0  0  0  0  0  0  0
   39.5000   33.0090   40.5750 F   0  0  0  0  0  0  0  0  0  0  0  0
   44.7721   36.4568   45.5630 H   0  0  0  0  0  0  0  0  0  0  0  0
   43.5598   36.4228   43.3766 H   0  0  0  0  0  0  0  0  0  0  0  0
   47.5194   31.8150   43.3316 H   0  0  0  0  0  0  0  0  0  0  0  0
   46.5991   29.6260   49.3988 H   0  0  0  0  0  0  0  0  0  0  0  0
   44.1583   32.3843   49.5500 H   0  0  0  0  0  0  0  0  0  0  0  0
   44.8486   31.0568   50.5215 H   0  0  0  0  0  0  0  0  0  0  0  0
   43.5052   33.0717   41.3966 H   0  0  0  0  0  0  0  0  0  0  0  0
   44.1169   34.6283   40.8160 H   0  0  0  0  0  0  0  0  0  0  0  0
   41.7719   34.3037   42.5830 H   0  0  0  0  0  0  0  0  0  0  0  0
   40.9902   36.1181   39.6994 H   0  0  0  0  0  0  0  0  0  0  0  0
   41.9632   35.0106   37.4982 H   0  0  0  0  0  0  0  0  0  0  0  0
   40.2656   34.8480   38.0321 H   0  0  0  0  0  0  0  0  0  0  0  0
   40.5717   32.6591   38.4489 H   0  0  0  0  0  0  0  0  0  0  0  0
   42.1804   32.7574   37.7593 H   0  0  0  0  0  0  0  0  0  0  0  0
   41.7890   32.2089   40.4289 H   0  0  0  0  0  0  0  0  0  0  0  0
   43.1946   33.1279   39.9488 H   0  0  0  0  0  0  0  0  0  0  0  0
  1  6  2  0
  2  1  1  0
  3  4  1  0
  3  2  2  0
  4  5  2  0
  5  7  1  0
  5  6  1  0
  7 17  1  0
  8  7  1  0
  8  9  2  0
  9 10  1  0
 10 17  2  0
 10 11  1  0
 11 12  2  0
 11 13  1  0
 13 14  1  0
 14 15  1  0
 16 14  2  0
 17 16  1  0
 18 19  1  0
 18  3  1  0
 20 24  1  0
 21 22  1  0
 21 20  1  0
 22 23  1  0
 23 24  1  0
 24 25  1  0
 24 19  1  1
 25 26  1  0
 27 25  1  0
 28 25  1  0
  1 29  1  0
  2 30  1  0
  8 31  1  0
 13 32  1  0
 15 33  1  0
 15 34  1  0
 18 35  1  0
 18 36  1  0
 19 37  1  0
 20 38  1  0
 21 39  1  0
 21 40  1  0
 22 41  1  0
 22 42  1  0
 23 43  1  0
 23 44  1  0
M  ISO  8  29  14  30  14  31  14  32   9  35   8  36   8  37   5  38   5
M  ISO  6  39  13  40  13  41  13  42  13  43  13  44  13
M  END
>  <minimizedAffinity>  (1) 
-6.82319403

>  <minimizedRMSD>  (1) 
4.64804602

$$$$
