
     RDKit          3D

 43 46  0  0  0  0  0  0  0  0999 V2000
   46.4545   33.6507   39.0684 N   0  0  0  0  0  0  0  0  0  0  0  0
   47.0340   33.4899   37.7548 C   0  0  0  0  0  0  0  0  0  0  0  0
   48.3556   34.1577   37.7522 C   0  0  0  0  0  0  0  0  0  0  0  0
   48.4321   34.7946   39.1214 C   0  0  0  0  0  0  0  0  0  0  0  0
   47.5912   33.9086   39.9408 C   0  0  2  0  0  0  0  0  0  0  0  0
   48.1850   32.5681   40.2708 C   0  0  0  0  0  0  0  0  0  0  0  0
   48.2912   32.4170   41.6459 F   0  0  0  0  0  0  0  0  0  0  0  0
   47.4594   31.5207   39.7555 F   0  0  0  0  0  0  0  0  0  0  0  0
   49.4675   32.4212   39.7750 F   0  0  0  0  0  0  0  0  0  0  0  0
   47.1883   34.5432   41.1609 N   0  0  0  0  0  0  0  0  0  0  0  0
   45.7677   34.4553   41.2487 C   0  0  0  0  0  0  0  0  0  0  0  0
   44.6061   35.9720   44.5403 C   0  0  0  0  0  0  0  0  0  0  0  0
   44.8416   35.9269   43.1721 C   0  0  0  0  0  0  0  0  0  0  0  0
   45.4238   34.7313   42.7047 C   0  0  0  0  0  0  0  0  0  0  0  0
   45.7127   33.7279   43.5757 N   0  0  0  0  0  0  0  0  0  0  0  0
   45.4622   33.8232   44.9021 C   0  0  0  0  0  0  0  0  0  0  0  0
   44.8970   34.9737   45.3837 N   0  0  0  0  0  0  0  0  0  0  0  0
   46.0090   32.7205   39.2756 H   0  0  0  0  0  0  0  0  0  0  0  0
   46.3626   34.0255   37.0453 H   0  0  0  0  0  0  0  0  0  0  0  0
   47.0850   32.4520   37.4090 H   0  0  0  0  0  0  0  0  0  0  0  0
   49.1601   33.4371   37.5860 H   0  0  0  0  0  0  0  0  0  0  0  0
   48.4077   34.9956   37.0212 H   0  0  0  0  0  0  0  0  0  0  0  0
   48.0530   35.8172   39.1545 H   0  0  0  0  0  0  0  0  0  0  0  0
   49.4874   34.7817   39.4967 H   0  0  0  0  0  0  0  0  0  0  0  0
   47.4309   35.5700   41.1021 H   0  0  0  0  0  0  0  0  0  0  0  0
   45.3804   33.4239   41.0845 H   0  0  0  0  0  0  0  0  0  0  0  0
   45.2363   35.1930   40.6112 H   0  0  0  0  0  0  0  0  0  0  0  0
   44.1587   36.9095   44.8508 H   0  0  0  0  0  0  0  0  0  0  0  0
   44.6459   36.6581   42.4441 H   0  0  0  0  0  0  0  0  0  0  0  0
   45.7645   32.7716   45.8152 N   0  0  0  0  0  0  0  0  0  0  0  0
   45.4211   32.7166   47.1154 C   0  0  0  0  0  0  0  0  0  0  0  0
   45.8957   31.5509   47.6412 N   0  0  0  0  0  0  0  0  0  0  0  0
   46.5193   30.9142   46.6577 C   0  0  0  0  0  0  0  0  0  0  0  0
   47.1875   29.7096   46.5813 C   0  0  0  0  0  0  0  0  0  0  0  0
   47.3259   28.8499   47.7070 N   0  0  0  0  0  0  0  0  0  0  0  0
   47.7457   29.2775   45.4436 N   0  0  0  0  0  0  0  0  0  0  0  0
   47.6788   30.0149   44.2969 C   0  0  0  0  0  0  0  0  0  0  0  0
   47.0283   31.1910   44.3654 N   0  0  0  0  0  0  0  0  0  0  0  0
   46.4603   31.6486   45.4897 C   0  0  0  0  0  0  0  0  0  0  0  0
   44.8607   33.4944   47.6149 H   0  0  0  0  0  0  0  0  0  0  0  0
   48.1945   29.1999   48.1697 H   0  0  0  0  0  0  0  0  0  0  0  0
   47.9002   28.6183   48.5451 H   0  0  0  0  0  0  0  0  0  0  0  0
   48.1004   29.7409   43.3394 H   0  0  0  0  0  0  0  0  0  0  0  0
  1  5  1  0
  2  1  1  0
  3  2  1  0
  3  4  1  0
  4  5  1  0
  5  6  1  0
  5 10  1  1
  6  7  1  0
  8  6  1  0
  9  6  1  0
 10 11  1  0
 11 14  1  0
 12 17  2  0
 13 12  1  0
 14 13  2  0
 14 15  1  0
 15 16  2  0
 16 17  1  0
  1 18  1  0
  2 19  1  0
  2 20  1  0
  3 21  1  0
  3 22  1  0
  4 23  1  0
  4 24  1  0
 10 25  1  0
 11 26  1  0
 11 27  1  0
 12 28  1  0
 13 29  1  0
 30 31  1  0
 31 32  2  0
 32 33  1  0
 33 34  2  0
 34 35  1  0
 34 36  1  0
 36 37  2  0
 37 38  1  0
 38 39  2  0
 39 30  1  0
 39 33  1  0
 31 40  1  0
 35 41  1  0
 35 42  1  0
 37 43  1  0
 16 30  1  0
M  END
>  <DihAtoms>  (1) 
14,15,29,30

>  <DihDeg>  (1) 
52.78636164126887

$$$$
