
     RDKit          3D

 44 47  0  0  1  0  0  0  0  0999 V2000
   45.8790   34.7840   41.2810 C   0  0  0  0  0  0  0  0  0  0  0  0
   44.6140   35.5840   44.7960 C   0  0  0  0  0  0  0  0  0  0  0  0
   44.8090   35.7560   43.4180 C   0  0  0  0  0  0  0  0  0  0  0  0
   45.5610   34.7760   42.7530 C   0  0  0  0  0  0  0  0  0  0  0  0
   46.0510   33.7260   43.4810 N   0  0  0  0  0  0  0  0  0  0  0  0
   45.8440   33.5970   44.7890 C   0  0  0  0  0  0  0  0  0  0  0  0
   45.1230   34.5250   45.4620 N   0  0  0  0  0  0  0  0  0  0  0  0
   46.3910   32.4560   45.5140 C   0  0  0  0  0  0  0  0  0  0  0  0
   47.3060   31.5500   45.0170 C   0  0  0  0  0  0  0  0  0  0  0  0
   47.5720   30.6300   45.9910 N   0  0  0  0  0  0  0  0  0  0  0  0
   46.8320   30.9540   47.0900 C   0  0  0  0  0  0  0  0  0  0  0  0
   46.7260   30.3630   48.3330 C   0  0  0  0  0  0  0  0  0  0  0  0
   45.9010   30.8590   49.3310 C   0  0  0  0  0  0  0  0  0  0  0  0
   45.1580   32.0060   49.0340 C   0  0  0  0  0  0  0  0  0  0  0  0
   45.2850   32.5690   47.7910 C   0  0  0  0  0  0  0  0  0  0  0  0
   46.0930   32.0870   46.8100 C   0  0  0  0  0  0  0  0  0  0  0  0
   47.3040   34.7340   41.1840 N   0  0  0  0  0  0  0  0  0  0  0  0
   46.4660   33.7380   39.1870 N   0  0  0  0  0  0  0  0  0  0  0  0
   46.9900   33.4820   37.8630 C   0  0  0  0  0  0  0  0  0  0  0  0
   48.3270   34.1110   37.7620 C   0  0  0  0  0  0  0  0  0  0  0  0
   48.4670   34.8340   39.0850 C   0  0  0  0  0  0  0  0  0  0  0  0
   47.6460   34.0070   39.9930 C   0  0  1  0  0  0  0  0  0  0  0  0
   48.2320   32.6910   40.3820 C   0  0  0  0  0  0  0  0  0  0  0  0
   48.4600   32.6480   41.7550 F   0  0  0  0  0  0  0  0  0  0  0  0
   47.4140   31.6300   40.0370 F   0  0  0  0  0  0  0  0  0  0  0  0
   49.4470   32.4450   39.7840 F   0  0  0  0  0  0  0  0  0  0  0  0
   45.4317   33.9078   40.7889 H   0  0  0  0  0  0  0  0  0  0  0  0
   45.4733   35.6790   40.7867 H   0  0  0  0  0  0  0  0  0  0  0  0
   44.0297   36.3331   45.3504 H   0  0  0  0  0  0  0  0  0  0  0  0
   44.3909   36.6210   42.8823 H   0  0  0  0  0  0  0  0  0  0  0  0
   47.7458   31.5661   44.0089 H   0  0  0  0  0  0  0  0  0  0  0  0
   48.2179   29.8318   45.9098 H   0  0  0  0  0  0  0  0  0  0  0  0
   47.3207   29.4611   48.5404 H   0  0  0  0  0  0  0  0  0  0  0  0
   45.8338   30.3710   50.3146 H   0  0  0  0  0  0  0  0  0  0  0  0
   44.4848   32.4477   49.7835 H   0  0  0  0  0  0  0  0  0  0  0  0
   44.6939   33.4707   47.5727 H   0  0  0  0  0  0  0  0  0  0  0  0
   47.6839   35.6899   41.1305 H   0  0  0  0  0  0  0  0  0  0  0  0
   45.9594   32.9155   39.5445 H   0  0  0  0  0  0  0  0  0  0  0  0
   47.0760   32.3975   37.7004 H   0  0  0  0  0  0  0  0  0  0  0  0
   46.3158   33.9007   37.1013 H   0  0  0  0  0  0  0  0  0  0  0  0
   49.1130   33.3508   37.6423 H   0  0  0  0  0  0  0  0  0  0  0  0
   48.4269   34.7772   36.8924 H   0  0  0  0  0  0  0  0  0  0  0  0
   49.5165   34.8617   39.4132 H   0  0  0  0  0  0  0  0  0  0  0  0
   48.1490   35.8862   39.0442 H   0  0  0  0  0  0  0  0  0  0  0  0
  1  4  1  0
  2  7  2  0
  3  2  1  0
  4  3  2  0
  4  5  1  0
  5  6  2  0
  6  7  1  0
  6  8  1  0
  8 16  1  0
  9  8  2  0
  9 10  1  0
 10 11  1  0
 11 12  2  0
 12 13  1  0
 14 13  2  0
 15 14  1  0
 16 11  1  0
 16 15  2  0
 17  1  1  0
 18 22  1  0
 19 18  1  0
 20 19  1  0
 20 21  1  0
 21 22  1  0
 22 23  1  0
 22 17  1  1
 23 24  1  0
 25 23  1  0
 26 23  1  0
  1 27  1  0
  1 28  1  0
  2 29  1  0
  3 30  1  0
  9 31  1  0
 10 32  1  0
 12 33  1  0
 13 34  1  0
 14 35  1  0
 15 36  1  0
 17 37  1  0
 18 38  1  0
 19 39  1  0
 19 40  1  0
 20 41  1  0
 20 42  1  0
 21 43  1  0
 21 44  1  0
M  ISO  8  27   8  28   8  29  14  30  14  31  14  32   9  33  14  34  14
M  ISO  8  35  14  36  14  37   5  38   5  39  13  40  13  41  13  42  13
M  ISO  2  43  13  44  13
M  END
>  <minimizedAffinity>  (1) 
-6.07830858

>  <minimizedRMSD>  (1) 
0.773560345

$$$$
