
     RDKit          3D

 40 42  0  0  1  0  0  0  0  0999 V2000
   45.7930   34.1480   41.7180 C   0  0  0  0  0  0  0  0  0  0  0  0
   44.4240   35.9570   44.7890 C   0  0  0  0  0  0  0  0  0  0  0  0
   44.7050   35.7370   43.4320 C   0  0  0  0  0  0  0  0  0  0  0  0
   45.3980   34.5620   43.1170 C   0  0  0  0  0  0  0  0  0  0  0  0
   45.7480   33.7290   44.1170 N   0  0  0  0  0  0  0  0  0  0  0  0
   45.4710   33.9540   45.4060 C   0  0  0  0  0  0  0  0  0  0  0  0
   44.8020   35.0840   45.7410 N   0  0  0  0  0  0  0  0  0  0  0  0
   45.8710   33.0190   46.4520 C   0  0  0  0  0  0  0  0  0  0  0  0
   45.1750   32.9680   47.6330 C   0  0  0  0  0  0  0  0  0  0  0  0
   45.6150   32.0560   48.5760 C   0  0  0  0  0  0  0  0  0  0  0  0
   46.6910   31.2060   48.4130 C   0  0  0  0  0  0  0  0  0  0  0  0
   47.3840   31.2770   47.2050 C   0  0  0  0  0  0  0  0  0  0  0  0
   46.9510   32.1830   46.2600 C   0  0  0  0  0  0  0  0  0  0  0  0
   47.1770   34.4590   41.5800 N   0  0  0  0  0  0  0  0  0  0  0  0
   46.5240   33.6740   39.4270 N   0  0  0  0  0  0  0  0  0  0  0  0
   47.1370   33.5970   38.1210 C   0  0  0  0  0  0  0  0  0  0  0  0
   48.3920   34.3630   38.1730 C   0  0  0  0  0  0  0  0  0  0  0  0
   48.4220   34.9230   39.5870 C   0  0  0  0  0  0  0  0  0  0  0  0
   47.6360   33.9190   40.3310 C   0  0  1  0  0  0  0  0  0  0  0  0
   48.3120   32.6120   40.5860 C   0  0  0  0  0  0  0  0  0  0  0  0
   48.5180   32.4270   41.9520 F   0  0  0  0  0  0  0  0  0  0  0  0
   47.6080   31.5410   40.0970 F   0  0  0  0  0  0  0  0  0  0  0  0
   49.5630   32.5330   40.0070 F   0  0  0  0  0  0  0  0  0  0  0  0
   45.6304   33.0688   41.5808 H   0  0  0  0  0  0  0  0  0  0  0  0
   45.1899   34.6728   40.9624 H   0  0  0  0  0  0  0  0  0  0  0  0
   43.8804   36.8671   45.0825 H   0  0  0  0  0  0  0  0  0  0  0  0
   44.3964   36.4517   42.6548 H   0  0  0  0  0  0  0  0  0  0  0  0
   44.3094   33.6202   47.8212 H   0  0  0  0  0  0  0  0  0  0  0  0
   45.0660   32.0041   49.5278 H   0  0  0  0  0  0  0  0  0  0  0  0
   46.9892   30.5018   49.2036 H   0  0  0  0  0  0  0  0  0  0  0  0
   48.2514   30.6287   47.0115 H   0  0  0  0  0  0  0  0  0  0  0  0
   47.4941   32.2419   45.3052 H   0  0  0  0  0  0  0  0  0  0  0  0
   47.3071   35.4807   41.5869 H   0  0  0  0  0  0  0  0  0  0  0  0
   46.0514   32.7893   39.6611 H   0  0  0  0  0  0  0  0  0  0  0  0
   46.4648   34.0291   37.3650 H   0  0  0  0  0  0  0  0  0  0  0  0
   47.3345   32.5499   37.8480 H   0  0  0  0  0  0  0  0  0  0  0  0
   49.2575   33.7084   37.9931 H   0  0  0  0  0  0  0  0  0  0  0  0
   48.4408   35.1489   37.4049 H   0  0  0  0  0  0  0  0  0  0  0  0
   49.4513   34.9883   39.9694 H   0  0  0  0  0  0  0  0  0  0  0  0
   48.0252   35.9458   39.6677 H   0  0  0  0  0  0  0  0  0  0  0  0
  1  4  1  0
  2  7  2  0
  3  2  1  0
  4  3  2  0
  4  5  1  0
  5  6  2  0
  6  7  1  0
  6  8  1  0
  8  9  2  0
  9 10  1  0
 11 10  2  0
 12 11  1  0
 13  8  1  0
 13 12  2  0
 14  1  1  0
 15 19  1  0
 16 17  1  0
 16 15  1  0
 17 18  1  0
 18 19  1  0
 19 20  1  0
 19 14  1  1
 20 21  1  0
 22 20  1  0
 23 20  1  0
  1 24  1  0
  1 25  1  0
  2 26  1  0
  3 27  1  0
  9 28  1  0
 10 29  1  0
 11 30  1  0
 12 31  1  0
 13 32  1  0
 14 33  1  0
 15 34  1  0
 16 35  1  0
 16 36  1  0
 17 37  1  0
 17 38  1  0
 18 39  1  0
 18 40  1  0
M  ISO  8  24   8  25   8  26  14  27  14  28  14  29  14  30  14  31  14
M  ISO  8  32  14  33   5  34   5  35  13  36  13  37  13  38  13  39  13
M  ISO  1  40  13
M  END
>  <minimizedAffinity>  (1) 
-5.71694994

>  <minimizedRMSD>  (1) 
0.607038319

$$$$
