
     RDKit          3D

 37 39  0  0  1  0  0  0  0  0999 V2000
   47.1970   34.3950   41.4770 N   0  0  0  0  0  0  0  0  0  0  0  0
   46.5410   33.6300   39.3070 N   0  0  0  0  0  0  0  0  0  0  0  0
   47.1330   33.6220   37.9970 C   0  0  0  0  0  0  0  0  0  0  0  0
   48.4020   34.3710   38.0550 C   0  0  0  0  0  0  0  0  0  0  0  0
   48.4190   34.9080   39.4750 C   0  0  0  0  0  0  0  0  0  0  0  0
   47.6430   33.8860   40.2120 C   0  0  1  0  0  0  0  0  0  0  0  0
   48.3340   32.5710   40.4380 C   0  0  0  0  0  0  0  0  0  0  0  0
   48.6130   32.3980   41.7920 F   0  0  0  0  0  0  0  0  0  0  0  0
   47.5910   31.5000   39.9900 F   0  0  0  0  0  0  0  0  0  0  0  0
   49.5510   32.4820   39.7940 F   0  0  0  0  0  0  0  0  0  0  0  0
   45.8380   33.9990   41.6460 C   0  0  0  0  0  0  0  0  0  0  0  0
   44.4050   36.1220   44.4650 C   0  0  0  0  0  0  0  0  0  0  0  0
   44.7280   35.7800   43.1550 C   0  0  0  0  0  0  0  0  0  0  0  0
   45.3970   34.5610   42.9730 C   0  0  0  0  0  0  0  0  0  0  0  0
   45.6840   33.8010   44.0760 N   0  0  0  0  0  0  0  0  0  0  0  0
   45.3580   34.1640   45.3190 C   0  0  0  0  0  0  0  0  0  0  0  0
   44.7100   35.3380   45.5230 N   0  0  0  0  0  0  0  0  0  0  0  0
   45.7000   33.2980   46.4440 C   0  0  0  0  0  0  0  0  0  0  0  0
   46.7660   32.4290   46.5320 C   0  0  0  0  0  0  0  0  0  0  0  0
   46.6550   31.8580   47.7610 N   0  0  0  0  0  0  0  0  0  0  0  0
   45.5700   32.3520   48.4060 C   0  0  0  0  0  0  0  0  0  0  0  0
   44.9860   33.2430   47.5820 N   0  0  0  0  0  0  0  0  0  0  0  0
   47.2672   35.4226   41.4866 H   0  0  0  0  0  0  0  0  0  0  0  0
   46.1062   32.7195   39.5138 H   0  0  0  0  0  0  0  0  0  0  0  0
   46.4515   34.1008   37.2784 H   0  0  0  0  0  0  0  0  0  0  0  0
   47.3192   32.5875   37.6728 H   0  0  0  0  0  0  0  0  0  0  0  0
   49.2607   33.7081   37.8730 H   0  0  0  0  0  0  0  0  0  0  0  0
   48.4737   35.1608   37.2927 H   0  0  0  0  0  0  0  0  0  0  0  0
   49.4467   34.9813   39.8602 H   0  0  0  0  0  0  0  0  0  0  0  0
   48.0050   35.9231   39.5654 H   0  0  0  0  0  0  0  0  0  0  0  0
   45.2182   34.4075   40.8342 H   0  0  0  0  0  0  0  0  0  0  0  0
   45.7338   32.9042   41.6203 H   0  0  0  0  0  0  0  0  0  0  0  0
   43.8791   37.0708   44.6470 H   0  0  0  0  0  0  0  0  0  0  0  0
   44.4719   36.4319   42.3068 H   0  0  0  0  0  0  0  0  0  0  0  0
   47.5389   32.2386   45.7728 H   0  0  0  0  0  0  0  0  0  0  0  0
   45.2297   32.0764   49.4151 H   0  0  0  0  0  0  0  0  0  0  0  0
   44.1374   33.7890   47.7883 H   0  0  0  0  0  0  0  0  0  0  0  0
  1 11  1  0
  2  6  1  0
  3  4  1  0
  3  2  1  0
  4  5  1  0
  5  6  1  0
  6  7  1  0
  6  1  1  1
  7  8  1  0
  9  7  1  0
 10  7  1  0
 11 14  1  0
 12 17  2  0
 13 12  1  0
 14 13  2  0
 14 15  1  0
 15 16  2  0
 16 17  1  0
 16 18  1  0
 18 19  2  0
 18 22  1  0
 19 20  1  0
 20 21  2  0
 22 21  1  0
  1 23  1  0
  2 24  1  0
  3 25  1  0
  3 26  1  0
  4 27  1  0
  4 28  1  0
  5 29  1  0
  5 30  1  0
 11 31  1  0
 11 32  1  0
 12 33  1  0
 13 34  1  0
 19 35  1  0
 21 36  1  0
 22 37  1  0
M  ISO  8  23   5  24   5  25  13  26  13  27  13  28  13  29  13  30  13
M  ISO  7  31   8  32   8  33  14  34  14  35  14  36  14  37   9
M  END
>  <minimizedAffinity>  (1) 
-5.68909121

>  <minimizedRMSD>  (1) 
0.676135838

$$$$
