
     RDKit          3D

 46 48  0  0  1  0  0  0  0  0999 V2000
   47.1710   34.7420   41.8830 N   0  0  0  0  0  0  0  0  0  0  0  0
   46.5720   33.7710   39.7880 N   0  0  0  0  0  0  0  0  0  0  0  0
   47.2050   33.6170   38.4980 C   0  0  0  0  0  0  0  0  0  0  0  0
   48.4740   34.3890   38.5170 C   0  0  0  0  0  0  0  0  0  0  0  0
   48.4580   35.0640   39.8800 C   0  0  0  0  0  0  0  0  0  0  0  0
   47.6630   34.1230   40.6910 C   0  0  1  0  0  0  0  0  0  0  0  0
   48.3630   32.8480   41.0640 C   0  0  0  0  0  0  0  0  0  0  0  0
   48.5090   32.7680   42.4470 F   0  0  0  0  0  0  0  0  0  0  0  0
   47.6780   31.7330   40.6100 F   0  0  0  0  0  0  0  0  0  0  0  0
   49.6330   32.7520   40.5440 F   0  0  0  0  0  0  0  0  0  0  0  0
   45.7510   34.5330   41.9440 C   0  0  0  0  0  0  0  0  0  0  0  0
   44.4730   35.8550   45.2760 C   0  0  0  0  0  0  0  0  0  0  0  0
   44.7440   35.8700   43.9090 C   0  0  0  0  0  0  0  0  0  0  0  0
   45.3730   34.7180   43.3930 C   0  0  0  0  0  0  0  0  0  0  0  0
   45.6710   33.6890   44.2460 N   0  0  0  0  0  0  0  0  0  0  0  0
   45.3910   33.7220   45.5470 C   0  0  0  0  0  0  0  0  0  0  0  0
   44.7860   34.8160   46.0740 N   0  0  0  0  0  0  0  0  0  0  0  0
   45.7040   32.6180   46.4920 C   0  0  0  0  0  0  0  0  0  0  0  0
   47.2030   32.4340   46.6510 C   0  0  0  0  0  0  0  0  0  0  0  0
   47.6110   32.2600   48.0820 C   0  0  0  0  0  0  0  0  0  0  0  0
   46.7200   31.3320   48.8470 C   0  0  0  0  0  0  0  0  0  0  0  0
   45.2550   31.5400   48.6200 C   0  0  0  0  0  0  0  0  0  0  0  0
   45.0580   32.8200   47.8540 C   0  0  0  0  0  0  0  0  0  0  0  0
   47.3742   35.7515   41.8611 H   0  0  0  0  0  0  0  0  0  0  0  0
   46.1259   32.8904   40.0820 H   0  0  0  0  0  0  0  0  0  0  0  0
   46.5438   34.0041   37.7087 H   0  0  0  0  0  0  0  0  0  0  0  0
   47.4057   32.5549   38.2940 H   0  0  0  0  0  0  0  0  0  0  0  0
   49.3423   33.7208   38.4192 H   0  0  0  0  0  0  0  0  0  0  0  0
   48.5529   35.1045   37.6852 H   0  0  0  0  0  0  0  0  0  0  0  0
   49.4762   35.1735   40.2817 H   0  0  0  0  0  0  0  0  0  0  0  0
   48.0458   36.0837   39.8603 H   0  0  0  0  0  0  0  0  0  0  0  0
   45.2278   35.2677   41.3143 H   0  0  0  0  0  0  0  0  0  0  0  0
   45.4713   33.5349   41.5757 H   0  0  0  0  0  0  0  0  0  0  0  0
   43.9812   36.7313   45.7235 H   0  0  0  0  0  0  0  0  0  0  0  0
   44.4833   36.7278   43.2716 H   0  0  0  0  0  0  0  0  0  0  0  0
   45.2781   31.7048   46.0507 H   0  0  0  0  0  0  0  0  0  0  0  0
   47.5109   31.5422   46.0854 H   0  0  0  0  0  0  0  0  0  0  0  0
   47.6934   33.3427   46.2717 H   0  0  0  0  0  0  0  0  0  0  0  0
   48.6349   31.8587   48.1060 H   0  0  0  0  0  0  0  0  0  0  0  0
   47.5392   33.2472   48.5618 H   0  0  0  0  0  0  0  0  0  0  0  0
   46.9686   30.3009   48.5555 H   0  0  0  0  0  0  0  0  0  0  0  0
   46.9007   31.5369   49.9125 H   0  0  0  0  0  0  0  0  0  0  0  0
   44.8475   30.6973   48.0422 H   0  0  0  0  0  0  0  0  0  0  0  0
   44.7326   31.5994   49.5862 H   0  0  0  0  0  0  0  0  0  0  0  0
   45.5401   33.6559   48.3821 H   0  0  0  0  0  0  0  0  0  0  0  0
   43.9893   33.0604   47.7533 H   0  0  0  0  0  0  0  0  0  0  0  0
  1 11  1  0
  2  6  1  0
  3  4  1  0
  3  2  1  0
  4  5  1  0
  5  6  1  0
  6  7  1  0
  6  1  1  1
  7  8  1  0
  9  7  1  0
 10  7  1  0
 11 14  1  0
 12 17  2  0
 13 12  1  0
 14 13  2  0
 14 15  1  0
 15 16  2  0
 16 17  1  0
 16 18  1  0
 18 19  1  0
 18 23  1  0
 19 20  1  0
 20 21  1  0
 22 21  1  0
 23 22  1  0
  1 24  1  0
  2 25  1  0
  3 26  1  0
  3 27  1  0
  4 28  1  0
  4 29  1  0
  5 30  1  0
  5 31  1  0
 11 32  1  0
 11 33  1  0
 12 34  1  0
 13 35  1  0
 18 36  1  0
 19 37  1  0
 19 38  1  0
 20 39  1  0
 20 40  1  0
 21 41  1  0
 21 42  1  0
 22 43  1  0
 22 44  1  0
 23 45  1  0
 23 46  1  0
M  ISO  8  24   5  25   5  26  13  27  13  28  13  29  13  30  13  31  13
M  ISO  8  32   8  33   8  34  14  35  14  36  13  37  13  38  13  39  13
M  ISO  7  40  13  41  13  42  13  43  13  44  13  45  13  46  13
M  END
>  <minimizedAffinity>  (1) 
-5.66286945

>  <minimizedRMSD>  (1) 
0.924097359

$$$$
