
     RDKit          3D

 39 41  0  0  1  0  0  0  0  0999 V2000
   47.1170   34.4510   41.5150 N   0  0  0  0  0  0  0  0  0  0  0  0
   46.4570   33.5840   39.3970 N   0  0  0  0  0  0  0  0  0  0  0  0
   47.0550   33.4960   38.0880 C   0  0  0  0  0  0  0  0  0  0  0  0
   48.3240   34.2360   38.1120 C   0  0  0  0  0  0  0  0  0  0  0  0
   48.3500   34.8480   39.4960 C   0  0  0  0  0  0  0  0  0  0  0  0
   47.5640   33.8780   40.2860 C   0  0  1  0  0  0  0  0  0  0  0  0
   48.2420   32.5710   40.5810 C   0  0  0  0  0  0  0  0  0  0  0  0
   48.4820   32.4560   41.9520 F   0  0  0  0  0  0  0  0  0  0  0  0
   47.5160   31.4840   40.1590 F   0  0  0  0  0  0  0  0  0  0  0  0
   49.4800   32.4590   39.9790 F   0  0  0  0  0  0  0  0  0  0  0  0
   45.7300   34.1220   41.6800 C   0  0  0  0  0  0  0  0  0  0  0  0
   44.4340   35.9510   44.7640 C   0  0  0  0  0  0  0  0  0  0  0  0
   44.6840   35.7290   43.4070 C   0  0  0  0  0  0  0  0  0  0  0  0
   45.3630   34.5490   43.0750 C   0  0  0  0  0  0  0  0  0  0  0  0
   45.7300   33.7120   44.0730 N   0  0  0  0  0  0  0  0  0  0  0  0
   45.4770   33.9480   45.3700 C   0  0  0  0  0  0  0  0  0  0  0  0
   44.8210   35.0850   45.7100 N   0  0  0  0  0  0  0  0  0  0  0  0
   45.8940   33.0110   46.4100 C   0  0  0  0  0  0  0  0  0  0  0  0
   45.1840   32.9760   47.5930 C   0  0  0  0  0  0  0  0  0  0  0  0
   45.5960   32.0810   48.5630 C   0  0  0  0  0  0  0  0  0  0  0  0
   46.6840   31.2700   48.3180 C   0  0  0  0  0  0  0  0  0  0  0  0
   47.3960   31.3150   47.1140 C   0  0  0  0  0  0  0  0  0  0  0  0
   46.9590   32.2030   46.1940 N   0  0  0  0  0  0  0  0  0  0  0  0
   47.2323   35.4741   41.4859 H   0  0  0  0  0  0  0  0  0  0  0  0
   46.0115   32.6916   39.6539 H   0  0  0  0  0  0  0  0  0  0  0  0
   46.3804   33.9380   37.3400 H   0  0  0  0  0  0  0  0  0  0  0  0
   47.2339   32.4437   37.8221 H   0  0  0  0  0  0  0  0  0  0  0  0
   49.1775   33.5577   37.9660 H   0  0  0  0  0  0  0  0  0  0  0  0
   48.3980   34.9858   37.3105 H   0  0  0  0  0  0  0  0  0  0  0  0
   49.3791   34.9297   39.8758 H   0  0  0  0  0  0  0  0  0  0  0  0
   47.9491   35.8717   39.5317 H   0  0  0  0  0  0  0  0  0  0  0  0
   45.1190   34.6626   40.9421 H   0  0  0  0  0  0  0  0  0  0  0  0
   45.5512   33.0472   41.5286 H   0  0  0  0  0  0  0  0  0  0  0  0
   43.9026   36.8659   45.0649 H   0  0  0  0  0  0  0  0  0  0  0  0
   44.3633   36.4459   42.6368 H   0  0  0  0  0  0  0  0  0  0  0  0
   44.3205   33.6371   47.7584 H   0  0  0  0  0  0  0  0  0  0  0  0
   45.0606   32.0165   49.5217 H   0  0  0  0  0  0  0  0  0  0  0  0
   47.0038   30.5622   49.0969 H   0  0  0  0  0  0  0  0  0  0  0  0
   48.2628   30.6640   46.9271 H   0  0  0  0  0  0  0  0  0  0  0  0
  1 11  1  0
  2  6  1  0
  3  4  1  0
  3  2  1  0
  4  5  1  0
  5  6  1  0
  6  7  1  0
  6  1  1  1
  7  8  1  0
  9  7  1  0
 10  7  1  0
 11 14  1  0
 12 17  2  0
 13 12  1  0
 14 13  2  0
 14 15  1  0
 15 16  2  0
 16 17  1  0
 16 18  1  0
 18 19  2  0
 19 20  1  0
 21 20  2  0
 22 21  1  0
 23 18  1  0
 23 22  2  0
  1 24  1  0
  2 25  1  0
  3 26  1  0
  3 27  1  0
  4 28  1  0
  4 29  1  0
  5 30  1  0
  5 31  1  0
 11 32  1  0
 11 33  1  0
 12 34  1  0
 13 35  1  0
 19 36  1  0
 20 37  1  0
 21 38  1  0
 22 39  1  0
M  ISO  8  24   5  25   5  26  13  27  13  28  13  29  13  30  13  31  13
M  ISO  8  32   8  33   8  34  14  35  14  36  14  37  14  38  14  39  14
M  END
>  <minimizedAffinity>  (1) 
-5.6024251

>  <minimizedRMSD>  (1) 
0.608886957

$$$$
