
     RDKit          3D

 43 45  0  0  1  0  0  0  0  0999 V2000
   47.1150   34.6350   41.5010 N   0  0  0  0  0  0  0  0  0  0  0  0
   46.4420   33.6480   39.4380 N   0  0  0  0  0  0  0  0  0  0  0  0
   47.0460   33.4350   38.1430 C   0  0  0  0  0  0  0  0  0  0  0  0
   48.3400   34.1630   38.1270 C   0  0  0  0  0  0  0  0  0  0  0  0
   48.3810   34.8560   39.4730 C   0  0  0  0  0  0  0  0  0  0  0  0
   47.5590   33.9670   40.3200 C   0  0  1  0  0  0  0  0  0  0  0  0
   48.2020   32.6620   40.7160 C   0  0  0  0  0  0  0  0  0  0  0  0
   48.3600   32.5980   42.0860 F   0  0  0  0  0  0  0  0  0  0  0  0
   47.4680   31.5640   40.2960 F   0  0  0  0  0  0  0  0  0  0  0  0
   49.4560   32.5000   40.1680 F   0  0  0  0  0  0  0  0  0  0  0  0
   45.6990   34.4560   41.6050 C   0  0  0  0  0  0  0  0  0  0  0  0
   44.4300   35.9850   44.8700 C   0  0  0  0  0  0  0  0  0  0  0  0
   44.6690   35.8780   43.5030 C   0  0  0  0  0  0  0  0  0  0  0  0
   45.3510   34.7430   43.0440 C   0  0  0  0  0  0  0  0  0  0  0  0
   45.7390   33.8120   43.9670 N   0  0  0  0  0  0  0  0  0  0  0  0
   45.4930   33.9450   45.2690 C   0  0  0  0  0  0  0  0  0  0  0  0
   44.8350   35.0340   45.7400 N   0  0  0  0  0  0  0  0  0  0  0  0
   45.9110   32.9600   46.1900 N   0  0  0  0  0  0  0  0  0  0  0  0
   45.3930   32.9130   47.5400 C   0  0  0  0  0  0  0  0  0  0  0  0
   45.0460   31.5000   47.9560 C   0  0  0  0  0  0  0  0  0  0  0  0
   45.9780   30.5810   47.5120 O   0  0  0  0  0  0  0  0  0  0  0  0
   46.2080   30.6050   46.1550 C   0  0  0  0  0  0  0  0  0  0  0  0
   46.8800   31.9460   45.8340 C   0  0  0  0  0  0  0  0  0  0  0  0
   47.3367   35.6389   41.4389 H   0  0  0  0  0  0  0  0  0  0  0  0
   45.9585   32.7966   39.7577 H   0  0  0  0  0  0  0  0  0  0  0  0
   47.2178   32.3606   37.9812 H   0  0  0  0  0  0  0  0  0  0  0  0
   46.3859   33.8021   37.3433 H   0  0  0  0  0  0  0  0  0  0  0  0
   49.1821   33.4633   38.0206 H   0  0  0  0  0  0  0  0  0  0  0  0
   48.4228   34.8651   37.2843 H   0  0  0  0  0  0  0  0  0  0  0  0
   49.4111   34.9249   39.8527 H   0  0  0  0  0  0  0  0  0  0  0  0
   48.0138   35.8924   39.4422 H   0  0  0  0  0  0  0  0  0  0  0  0
   45.1748   35.1558   40.9376 H   0  0  0  0  0  0  0  0  0  0  0  0
   45.3976   33.4396   41.3115 H   0  0  0  0  0  0  0  0  0  0  0  0
   43.8969   36.8679   45.2524 H   0  0  0  0  0  0  0  0  0  0  0  0
   44.3333   36.6593   42.8052 H   0  0  0  0  0  0  0  0  0  0  0  0
   46.1535   33.3108   48.2280 H   0  0  0  0  0  0  0  0  0  0  0  0
   44.4746   33.5172   47.5767 H   0  0  0  0  0  0  0  0  0  0  0  0
   44.9998   31.4553   49.0541 H   0  0  0  0  0  0  0  0  0  0  0  0
   44.0767   31.2433   47.5036 H   0  0  0  0  0  0  0  0  0  0  0  0
   46.8697   29.7738   45.8699 H   0  0  0  0  0  0  0  0  0  0  0  0
   45.2665   30.4958   45.5968 H   0  0  0  0  0  0  0  0  0  0  0  0
   47.7985   32.0672   46.4270 H   0  0  0  0  0  0  0  0  0  0  0  0
   47.1704   32.0134   44.7752 H   0  0  0  0  0  0  0  0  0  0  0  0
  1 11  1  0
  2  6  1  0
  3  2  1  0
  4  3  1  0
  4  5  1  0
  5  6  1  0
  6  7  1  0
  6  1  1  1
  7  8  1  0
  9  7  1  0
 10  7  1  0
 11 14  1  0
 12 17  2  0
 13 12  1  0
 14 13  2  0
 14 15  1  0
 15 16  2  0
 16 17  1  0
 16 18  1  0
 18 19  1  0
 19 20  1  0
 21 20  1  0
 22 21  1  0
 23 22  1  0
 23 18  1  0
  1 24  1  0
  2 25  1  0
  3 26  1  0
  3 27  1  0
  4 28  1  0
  4 29  1  0
  5 30  1  0
  5 31  1  0
 11 32  1  0
 11 33  1  0
 12 34  1  0
 13 35  1  0
 19 36  1  0
 19 37  1  0
 20 38  1  0
 20 39  1  0
 22 40  1  0
 22 41  1  0
 23 42  1  0
 23 43  1  0
M  ISO  8  24   5  25   5  26  13  27  13  28  13  29  13  30  13  31  13
M  ISO  8  32   8  33   8  34  14  35  14  36  13  37  13  38  13  39  13
M  ISO  4  40  13  41  13  42  13  43  13
M  END
>  <minimizedAffinity>  (1) 
-5.59815359

>  <minimizedRMSD>  (1) 
0.449752599

$$$$
