
     RDKit          3D

 37 39  0  0  1  0  0  0  0  0999 V2000
   47.1600   34.5260   41.4090 N   0  0  0  0  0  0  0  0  0  0  0  0
   46.5380   33.6480   39.2720 N   0  0  0  0  0  0  0  0  0  0  0  0
   47.1570   33.5570   37.9680 C   0  0  0  0  0  0  0  0  0  0  0  0
   48.4280   34.3290   38.0140 C   0  0  0  0  0  0  0  0  0  0  0  0
   48.4240   34.9170   39.4060 C   0  0  0  0  0  0  0  0  0  0  0  0
   47.6350   33.9360   40.1840 C   0  0  1  0  0  0  0  0  0  0  0  0
   48.3260   32.6470   40.4860 C   0  0  0  0  0  0  0  0  0  0  0  0
   48.5910   32.5570   41.8540 F   0  0  0  0  0  0  0  0  0  0  0  0
   47.5860   31.5530   40.0950 F   0  0  0  0  0  0  0  0  0  0  0  0
   49.5420   32.5160   39.8620 F   0  0  0  0  0  0  0  0  0  0  0  0
   45.7960   34.1450   41.5740 C   0  0  0  0  0  0  0  0  0  0  0  0
   44.4100   36.1240   44.5230 C   0  0  0  0  0  0  0  0  0  0  0  0
   44.7160   35.8340   43.1800 C   0  0  0  0  0  0  0  0  0  0  0  0
   45.3850   34.6260   42.9430 C   0  0  0  0  0  0  0  0  0  0  0  0
   45.6950   33.8230   43.9880 N   0  0  0  0  0  0  0  0  0  0  0  0
   45.3960   34.1140   45.2580 C   0  0  0  0  0  0  0  0  0  0  0  0
   44.7400   35.2920   45.5260 N   0  0  0  0  0  0  0  0  0  0  0  0
   45.7570   33.2080   46.3440 C   0  0  0  0  0  0  0  0  0  0  0  0
   46.9020   32.4300   46.1900 C   0  0  0  0  0  0  0  0  0  0  0  0
   47.0530   31.6520   47.3260 C   0  0  0  0  0  0  0  0  0  0  0  0
   45.9620   32.0110   48.1230 C   0  0  0  0  0  0  0  0  0  0  0  0
   45.2440   32.9070   47.5200 O   0  0  0  0  0  0  0  0  0  0  0  0
   47.2335   35.5520   41.3557 H   0  0  0  0  0  0  0  0  0  0  0  0
   46.0832   32.7580   39.5208 H   0  0  0  0  0  0  0  0  0  0  0  0
   46.4880   33.9825   37.2055 H   0  0  0  0  0  0  0  0  0  0  0  0
   47.3543   32.5064   37.7084 H   0  0  0  0  0  0  0  0  0  0  0  0
   49.2959   33.6693   37.8669 H   0  0  0  0  0  0  0  0  0  0  0  0
   48.4990   35.0910   37.2238 H   0  0  0  0  0  0  0  0  0  0  0  0
   49.4470   35.0029   39.8011 H   0  0  0  0  0  0  0  0  0  0  0  0
   48.0068   35.9341   39.4439 H   0  0  0  0  0  0  0  0  0  0  0  0
   45.1723   34.6177   40.8010 H   0  0  0  0  0  0  0  0  0  0  0  0
   45.6705   33.0564   41.4783 H   0  0  0  0  0  0  0  0  0  0  0  0
   43.8843   37.0609   44.7592 H   0  0  0  0  0  0  0  0  0  0  0  0
   44.4450   36.5178   42.3621 H   0  0  0  0  0  0  0  0  0  0  0  0
   47.5710   32.4329   45.3168 H   0  0  0  0  0  0  0  0  0  0  0  0
   47.8456   30.9226   47.5488 H   0  0  0  0  0  0  0  0  0  0  0  0
   45.7441   31.5940   49.1173 H   0  0  0  0  0  0  0  0  0  0  0  0
  1 11  1  0
  2  6  1  0
  3  4  1  0
  3  2  1  0
  4  5  1  0
  5  6  1  0
  6  7  1  0
  6  1  1  1
  7  8  1  0
  9  7  1  0
 10  7  1  0
 11 14  1  0
 12 17  2  0
 13 12  1  0
 14 13  2  0
 14 15  1  0
 15 16  2  0
 16 17  1  0
 16 18  1  0
 18 22  1  0
 19 18  2  0
 19 20  1  0
 20 21  2  0
 22 21  1  0
  1 23  1  0
  2 24  1  0
  3 25  1  0
  3 26  1  0
  4 27  1  0
  4 28  1  0
  5 29  1  0
  5 30  1  0
 11 31  1  0
 11 32  1  0
 12 33  1  0
 13 34  1  0
 19 35  1  0
 20 36  1  0
 21 37  1  0
M  ISO  8  23   5  24   5  25  13  26  13  27  13  28  13  29  13  30  13
M  ISO  7  31   8  32   8  33  14  34  14  35  14  36  14  37  14
M  END
>  <minimizedAffinity>  (1) 
-5.34812069

>  <minimizedRMSD>  (1) 
0.542242169

$$$$
