
     RDKit          3D

 35 37  0  0  1  0  0  0  0  0999 V2000
   47.1490   34.4590   41.5490 N   0  0  0  0  0  0  0  0  0  0  0  0
   46.5120   33.6640   39.3960 N   0  0  0  0  0  0  0  0  0  0  0  0
   47.1310   33.5870   38.0910 C   0  0  0  0  0  0  0  0  0  0  0  0
   48.3970   34.3590   38.1440 C   0  0  0  0  0  0  0  0  0  0  0  0
   48.4040   34.9170   39.5540 C   0  0  0  0  0  0  0  0  0  0  0  0
   47.6190   33.9150   40.3120 C   0  0  1  0  0  0  0  0  0  0  0  0
   48.3020   32.6100   40.5660 C   0  0  0  0  0  0  0  0  0  0  0  0
   48.5550   32.4590   41.9310 F   0  0  0  0  0  0  0  0  0  0  0  0
   47.5660   31.5290   40.1260 F   0  0  0  0  0  0  0  0  0  0  0  0
   49.5370   32.5150   39.9530 F   0  0  0  0  0  0  0  0  0  0  0  0
   45.7730   34.0980   41.6970 C   0  0  0  0  0  0  0  0  0  0  0  0
   44.4020   36.0400   44.6810 C   0  0  0  0  0  0  0  0  0  0  0  0
   44.6950   35.7520   43.3560 C   0  0  0  0  0  0  0  0  0  0  0  0
   45.3760   34.5600   43.0890 C   0  0  0  0  0  0  0  0  0  0  0  0
   45.7080   33.7590   44.1250 N   0  0  0  0  0  0  0  0  0  0  0  0
   45.4140   34.0550   45.4000 C   0  0  0  0  0  0  0  0  0  0  0  0
   44.7520   35.2130   45.6660 N   0  0  0  0  0  0  0  0  0  0  0  0
   45.8270   33.1050   46.4290 C   0  0  0  0  0  0  0  0  0  0  0  0
   45.3740   32.6510   47.6230 N   0  0  0  0  0  0  0  0  0  0  0  0
   46.2210   31.7700   48.0780 O   0  0  0  0  0  0  0  0  0  0  0  0
   47.2290   31.6040   47.2460 C   0  0  0  0  0  0  0  0  0  0  0  0
   46.9910   32.4430   46.2000 N   0  0  0  0  0  0  0  0  0  0  0  0
   47.2418   35.4847   41.5373 H   0  0  0  0  0  0  0  0  0  0  0  0
   46.0412   32.7779   39.6283 H   0  0  0  0  0  0  0  0  0  0  0  0
   46.4609   34.0185   37.3328 H   0  0  0  0  0  0  0  0  0  0  0  0
   47.3305   32.5394   37.8212 H   0  0  0  0  0  0  0  0  0  0  0  0
   49.2651   33.7051   37.9743 H   0  0  0  0  0  0  0  0  0  0  0  0
   48.4591   35.1392   37.3711 H   0  0  0  0  0  0  0  0  0  0  0  0
   49.4297   34.9933   39.9441 H   0  0  0  0  0  0  0  0  0  0  0  0
   47.9891   35.9336   39.6203 H   0  0  0  0  0  0  0  0  0  0  0  0
   45.1598   34.6024   40.9357 H   0  0  0  0  0  0  0  0  0  0  0  0
   45.6202   33.0163   41.5685 H   0  0  0  0  0  0  0  0  0  0  0  0
   43.8692   36.9712   44.9241 H   0  0  0  0  0  0  0  0  0  0  0  0
   44.4026   36.4358   42.5455 H   0  0  0  0  0  0  0  0  0  0  0  0
   48.0868   30.9267   47.3706 H   0  0  0  0  0  0  0  0  0  0  0  0
  1 11  1  0
  2  6  1  0
  3  4  1  0
  3  2  1  0
  4  5  1  0
  5  6  1  0
  6  7  1  0
  6  1  1  1
  7  8  1  0
  9  7  1  0
 10  7  1  0
 11 14  1  0
 12 17  2  0
 13 12  1  0
 14 13  2  0
 14 15  1  0
 15 16  2  0
 16 17  1  0
 16 18  1  0
 18 19  2  0
 19 20  1  0
 21 20  1  0
 22 18  1  0
 22 21  2  0
  1 23  1  0
  2 24  1  0
  3 25  1  0
  3 26  1  0
  4 27  1  0
  4 28  1  0
  5 29  1  0
  5 30  1  0
 11 31  1  0
 11 32  1  0
 12 33  1  0
 13 34  1  0
 21 35  1  0
M  ISO  8  23   5  24   5  25  13  26  13  27  13  28  13  29  13  30  13
M  ISO  5  31   8  32   8  33  14  34  14  35  14
M  END
>  <minimizedAffinity>  (1) 
-5.23302221

>  <minimizedRMSD>  (1) 
0.602907658

$$$$
