
     RDKit          3D

 37 39  0  0  1  0  0  0  0  0999 V2000
   46.5240   33.8990   40.0830 N   0  0  0  0  0  0  0  0  0  0  0  0
   47.0280   33.5900   38.7620 C   0  0  0  0  0  0  0  0  0  0  0  0
   48.3100   34.2960   38.5870 C   0  0  0  0  0  0  0  0  0  0  0  0
   48.4710   35.0820   39.8850 C   0  0  0  0  0  0  0  0  0  0  0  0
   47.7130   34.2570   40.8510 C   0  0  2  0  0  0  0  0  0  0  0  0
   48.3890   32.9860   41.2670 C   0  0  0  0  0  0  0  0  0  0  0  0
   48.7820   33.0680   42.5960 F   0  0  0  0  0  0  0  0  0  0  0  0
   47.5710   31.8800   41.0980 F   0  0  0  0  0  0  0  0  0  0  0  0
   49.5300   32.7090   40.5480 F   0  0  0  0  0  0  0  0  0  0  0  0
   47.3750   35.0210   42.0170 N   0  0  0  0  0  0  0  0  0  0  0  0
   45.9450   35.0810   42.0900 C   0  0  0  0  0  0  0  0  0  0  0  0
   44.5090   35.3260   45.6250 C   0  0  0  0  0  0  0  0  0  0  0  0
   44.6850   35.6660   44.2780 C   0  0  0  0  0  0  0  0  0  0  0  0
   45.6040   34.8850   43.5540 C   0  0  0  0  0  0  0  0  0  0  0  0
   46.2460   33.8730   44.1910 N   0  0  0  0  0  0  0  0  0  0  0  0
   46.0520   33.5760   45.4780 C   0  0  0  0  0  0  0  0  0  0  0  0
   45.1690   34.3170   46.2010 N   0  0  0  0  0  0  0  0  0  0  0  0
   46.8210   32.4350   46.0690 C   0  0  0  0  0  0  0  0  0  0  0  0
   46.0280   31.3410   46.7290 C   0  0  0  0  0  0  0  0  0  0  0  0
   46.8530   32.2640   47.5460 C   0  0  0  0  0  0  0  0  0  0  0  0
   46.0567   33.0791   40.4958 H   0  0  0  0  0  0  0  0  0  0  0  0
   47.1831   32.5052   38.6659 H   0  0  0  0  0  0  0  0  0  0  0  0
   46.3080   33.9091   37.9940 H   0  0  0  0  0  0  0  0  0  0  0  0
   49.1363   33.5818   38.4560 H   0  0  0  0  0  0  0  0  0  0  0  0
   48.3237   34.9394   37.6949 H   0  0  0  0  0  0  0  0  0  0  0  0
   49.5295   35.1613   40.1737 H   0  0  0  0  0  0  0  0  0  0  0  0
   48.1137   36.1202   39.8177 H   0  0  0  0  0  0  0  0  0  0  0  0
   47.7517   34.5632   42.8593 H   0  0  0  0  0  0  0  0  0  0  0  0
   45.5831   36.0586   41.7388 H   0  0  0  0  0  0  0  0  0  0  0  0
   45.4722   34.3167   41.4557 H   0  0  0  0  0  0  0  0  0  0  0  0
   43.8015   35.9110   46.2311 H   0  0  0  0  0  0  0  0  0  0  0  0
   44.1354   36.4972   43.8122 H   0  0  0  0  0  0  0  0  0  0  0  0
   47.5908   32.4958   45.2856 H   0  0  0  0  0  0  0  0  0  0  0  0
   44.9304   31.4028   46.7676 H   0  0  0  0  0  0  0  0  0  0  0  0
   45.9614   30.2490   46.6148 H   0  0  0  0  0  0  0  0  0  0  0  0
   47.7666   31.8948   48.0349 H   0  0  0  0  0  0  0  0  0  0  0  0
   46.6555   32.9224   48.4048 H   0  0  0  0  0  0  0  0  0  0  0  0
  1  5  1  0
  2  1  1  0
  3  2  1  0
  3  4  1  0
  4  5  1  0
  5  6  1  0
  5 10  1  1
  6  7  1  0
  8  6  1  0
  9  6  1  0
 10 11  1  0
 11 14  1  0
 12 17  2  0
 13 12  1  0
 14 15  1  0
 14 13  2  0
 15 16  2  0
 16 18  1  0
 16 17  1  0
 18 19  1  0
 18 20  1  0
 19 20  1  0
  1 21  1  0
  2 22  1  0
  2 23  1  0
  3 24  1  0
  3 25  1  0
  4 26  1  0
  4 27  1  0
 10 28  1  0
 11 29  1  0
 11 30  1  0
 12 31  1  0
 13 32  1  0
 18 33  1  0
 19 34  1  0
 19 35  1  0
 20 36  1  0
 20 37  1  0
M  ISO  8  21   5  22  13  23  13  24  13  25  13  26  13  27  13  28   5
M  ISO  8  29   8  30   8  31  14  32  14  33  13  34  13  35  13  36  13
M  ISO  1  37  13
M  END
>  <minimizedAffinity>  (1) 
-4.89509153

>  <minimizedRMSD>  (1) 
1.06150353

$$$$
