
     RDKit          3D

 42 43  0  0  1  0  0  0  0  0999 V2000
   47.3500   35.0960   42.4510 N   0  0  0  0  0  0  0  0  0  0  0  0
   46.6260   33.7650   40.5960 N   0  0  0  0  0  0  0  0  0  0  0  0
   47.1430   33.4610   39.2810 C   0  0  0  0  0  0  0  0  0  0  0  0
   48.3360   34.3110   39.0480 C   0  0  0  0  0  0  0  0  0  0  0  0
   48.3830   35.1740   40.2900 C   0  0  0  0  0  0  0  0  0  0  0  0
   47.7690   34.3150   41.3190 C   0  0  1  0  0  0  0  0  0  0  0  0
   48.5980   33.1620   41.7980 C   0  0  0  0  0  0  0  0  0  0  0  0
   49.0070   33.3780   43.1110 F   0  0  0  0  0  0  0  0  0  0  0  0
   47.9210   31.9590   41.7230 F   0  0  0  0  0  0  0  0  0  0  0  0
   49.7580   32.9870   41.0740 F   0  0  0  0  0  0  0  0  0  0  0  0
   45.9140   35.0650   42.4880 C   0  0  0  0  0  0  0  0  0  0  0  0
   44.4890   35.1620   46.0300 C   0  0  0  0  0  0  0  0  0  0  0  0
   44.7200   35.5810   44.7080 C   0  0  0  0  0  0  0  0  0  0  0  0
   45.5530   34.7770   43.9250 C   0  0  0  0  0  0  0  0  0  0  0  0
   46.0790   33.6590   44.4810 N   0  0  0  0  0  0  0  0  0  0  0  0
   45.8500   33.2760   45.7360 C   0  0  0  0  0  0  0  0  0  0  0  0
   45.0360   34.0490   46.5210 N   0  0  0  0  0  0  0  0  0  0  0  0
   46.4420   32.0380   46.3250 C   0  0  0  0  0  0  0  0  0  0  0  0
   47.3100   31.4220   45.2470 C   0  0  0  0  0  0  0  0  0  0  0  0
   47.3220   32.4740   47.5000 C   0  0  0  0  0  0  0  0  0  0  0  0
   45.4090   31.0680   46.8130 C   0  0  0  0  0  0  0  0  0  0  0  0
   47.6785   36.0669   42.3496 H   0  0  0  0  0  0  0  0  0  0  0  0
   46.2795   32.9118   41.0573 H   0  0  0  0  0  0  0  0  0  0  0  0
   47.4253   32.3992   39.2275 H   0  0  0  0  0  0  0  0  0  0  0  0
   46.3783   33.6588   38.5154 H   0  0  0  0  0  0  0  0  0  0  0  0
   49.2458   33.6996   38.9561 H   0  0  0  0  0  0  0  0  0  0  0  0
   48.2799   34.8929   38.1162 H   0  0  0  0  0  0  0  0  0  0  0  0
   49.4199   35.4279   40.5552 H   0  0  0  0  0  0  0  0  0  0  0  0
   47.8659   36.1370   40.1666 H   0  0  0  0  0  0  0  0  0  0  0  0
   45.5005   36.0350   42.1749 H   0  0  0  0  0  0  0  0  0  0  0  0
   45.5048   34.3062   41.8048 H   0  0  0  0  0  0  0  0  0  0  0  0
   43.8391   35.7690   46.6774 H   0  0  0  0  0  0  0  0  0  0  0  0
   44.2659   36.4996   44.3082 H   0  0  0  0  0  0  0  0  0  0  0  0
   48.1219   30.8458   45.7147 H   0  0  0  0  0  0  0  0  0  0  0  0
   46.6994   30.7540   44.6218 H   0  0  0  0  0  0  0  0  0  0  0  0
   47.7390   32.2189   44.6218 H   0  0  0  0  0  0  0  0  0  0  0  0
   46.8197   32.2251   48.4464 H   0  0  0  0  0  0  0  0  0  0  0  0
   48.2880   31.9502   47.4488 H   0  0  0  0  0  0  0  0  0  0  0  0
   47.4905   33.5598   47.4488 H   0  0  0  0  0  0  0  0  0  0  0  0
   45.4024   31.0618   47.9130 H   0  0  0  0  0  0  0  0  0  0  0  0
   44.4184   31.3698   46.4421 H   0  0  0  0  0  0  0  0  0  0  0  0
   45.6480   30.0604   46.4421 H   0  0  0  0  0  0  0  0  0  0  0  0
  1 11  1  0
  2  6  1  0
  3  2  1  0
  4  3  1  0
  4  5  1  0
  5  6  1  0
  6  7  1  0
  6  1  1  1
  7  8  1  0
  9  7  1  0
 10  7  1  0
 11 14  1  0
 12 17  2  0
 13 12  1  0
 14 15  1  0
 14 13  2  0
 15 16  2  0
 16 18  1  0
 16 17  1  0
 18 21  1  0
 18 20  1  0
 19 18  1  0
  1 22  1  0
  2 23  1  0
  3 24  1  0
  3 25  1  0
  4 26  1  0
  4 27  1  0
  5 28  1  0
  5 29  1  0
 11 30  1  0
 11 31  1  0
 12 32  1  0
 13 33  1  0
 19 34  1  0
 19 35  1  0
 19 36  1  0
 20 37  1  0
 20 38  1  0
 20 39  1  0
 21 40  1  0
 21 41  1  0
 21 42  1  0
M  ISO  8  22   5  23   5  24  13  25  13  26  13  27  13  28  13  29  13
M  ISO  8  30   8  31   8  32  14  33  14  34   8  35   8  36   8  37   8
M  ISO  5  38   8  39   8  40   8  41   8  42   8
M  END
>  <minimizedAffinity>  (1) 
-4.80547905

>  <minimizedRMSD>  (1) 
1.43482006

$$$$
