
     RDKit          3D

 32 33  0  0  1  0  0  0  0  0999 V2000
   46.4590   33.6500   39.0700 N   0  0  0  0  0  0  0  0  0  0  0  0
   47.0420   33.4880   37.7550 C   0  0  0  0  0  0  0  0  0  0  0  0
   48.3560   34.1760   37.7630 C   0  0  0  0  0  0  0  0  0  0  0  0
   48.4310   34.8020   39.1390 C   0  0  0  0  0  0  0  0  0  0  0  0
   47.5920   33.9010   39.9440 C   0  0  2  0  0  0  0  0  0  0  0  0
   48.2140   32.5650   40.2730 C   0  0  0  0  0  0  0  0  0  0  0  0
   48.3450   32.4240   41.6510 F   0  0  0  0  0  0  0  0  0  0  0  0
   47.4690   31.5080   39.7720 F   0  0  0  0  0  0  0  0  0  0  0  0
   49.4820   32.4230   39.7560 F   0  0  0  0  0  0  0  0  0  0  0  0
   47.1830   34.5320   41.1710 N   0  0  0  0  0  0  0  0  0  0  0  0
   45.7590   34.4130   41.2670 C   0  0  0  0  0  0  0  0  0  0  0  0
   44.4940   35.9980   44.4890 C   0  0  0  0  0  0  0  0  0  0  0  0
   44.7120   35.8950   43.1140 C   0  0  0  0  0  0  0  0  0  0  0  0
   45.4080   34.7420   42.6950 C   0  0  0  0  0  0  0  0  0  0  0  0
   45.8110   33.8300   43.6240 N   0  0  0  0  0  0  0  0  0  0  0  0
   45.5760   33.9770   44.9430 C   0  0  0  0  0  0  0  0  0  0  0  0
   44.9050   35.0840   45.3670 N   0  0  0  0  0  0  0  0  0  0  0  0
   46.0150   32.9940   45.9100 C   0  0  0  0  0  0  0  0  0  0  0  0
   45.5140   32.9570   47.0620 O   0  0  0  0  0  0  0  0  0  0  0  0
   45.9620   32.7942   39.3555 H   0  0  0  0  0  0  0  0  0  0  0  0
   46.3865   33.9387   36.9953 H   0  0  0  0  0  0  0  0  0  0  0  0
   47.1640   32.4218   37.5136 H   0  0  0  0  0  0  0  0  0  0  0  0
   49.1751   33.4569   37.6151 H   0  0  0  0  0  0  0  0  0  0  0  0
   48.4523   34.9158   36.9547 H   0  0  0  0  0  0  0  0  0  0  0  0
   49.4658   34.8205   39.5116 H   0  0  0  0  0  0  0  0  0  0  0  0
   48.0979   35.8501   39.1630 H   0  0  0  0  0  0  0  0  0  0  0  0
   47.6292   34.0634   41.9724 H   0  0  0  0  0  0  0  0  0  0  0  0
   45.2696   35.1199   40.5809 H   0  0  0  0  0  0  0  0  0  0  0  0
   45.4205   33.4031   40.9922 H   0  0  0  0  0  0  0  0  0  0  0  0
   43.9551   36.8792   44.8671 H   0  0  0  0  0  0  0  0  0  0  0  0
   44.3645   36.6612   42.4053 H   0  0  0  0  0  0  0  0  0  0  0  0
   46.7963   32.2707   45.6335 H   0  0  0  0  0  0  0  0  0  0  0  0
  1  5  1  0
  2  3  1  0
  2  1  1  0
  3  4  1  0
  4  5  1  0
  5  6  1  0
  5 10  1  1
  6  7  1  0
  8  6  1  0
  9  6  1  0
 10 11  1  0
 11 14  1  0
 12 17  2  0
 13 12  1  0
 14 13  2  0
 14 15  1  0
 15 16  2  0
 16 17  1  0
 16 18  1  0
 18 19  2  0
  1 20  1  0
  2 21  1  0
  2 22  1  0
  3 23  1  0
  3 24  1  0
  4 25  1  0
  4 26  1  0
 10 27  1  0
 11 28  1  0
 11 29  1  0
 12 30  1  0
 13 31  1  0
 18 32  1  0
M  ISO  8  20   5  21  13  22  13  23  13  24  13  25  13  26  13  27   5
M  ISO  5  28   8  29   8  30  14  31  14  32   6
M  END
>  <minimizedAffinity>  (1) 
-4.63981915

>  <minimizedRMSD>  (1) 
0.135402113

$$$$
