
     RDKit          3D

 42 45  0  0  1  0  0  0  0  0999 V2000
   45.7510   34.4140   41.1770 C   0  0  0  0  0  0  0  0  0  0  0  0
   44.2210   35.6370   44.4550 C   0  0  0  0  0  0  0  0  0  0  0  0
   44.4140   35.5350   43.0720 C   0  0  0  0  0  0  0  0  0  0  0  0
   45.4160   34.6470   42.6290 C   0  0  0  0  0  0  0  0  0  0  0  0
   46.1240   33.9520   43.5580 N   0  0  0  0  0  0  0  0  0  0  0  0
   45.9100   34.0770   44.8670 C   0  0  0  0  0  0  0  0  0  0  0  0
   44.9470   34.9310   45.3140 N   0  0  0  0  0  0  0  0  0  0  0  0
   46.9180   33.0710   45.9390 S   0  0  0  0  0  0  0  0  0  0  0  0
   44.9350   29.7220   48.8830 N   0  0  0  0  0  0  0  0  0  0  0  0
   45.4690   30.7970   49.5330 C   0  0  0  0  0  0  0  0  0  0  0  0
   45.9830   31.6460   48.6050 N   0  0  0  0  0  0  0  0  0  0  0  0
   45.7700   31.1010   47.3940 C   0  0  0  0  0  0  0  0  0  0  0  0
   46.0700   31.5040   46.0940 C   0  0  0  0  0  0  0  0  0  0  0  0
   45.7150   30.7150   45.0430 N   0  0  0  0  0  0  0  0  0  0  0  0
   45.0800   29.5480   45.2160 C   0  0  0  0  0  0  0  0  0  0  0  0
   44.7800   29.1410   46.4810 N   0  0  0  0  0  0  0  0  0  0  0  0
   45.1170   29.9000   47.5400 C   0  0  0  0  0  0  0  0  0  0  0  0
   47.1630   34.5410   41.0820 N   0  0  0  0  0  0  0  0  0  0  0  0
   46.4570   33.6390   38.9780 N   0  0  0  0  0  0  0  0  0  0  0  0
   47.0720   33.4720   37.6790 C   0  0  0  0  0  0  0  0  0  0  0  0
   48.3780   34.1460   37.6910 C   0  0  0  0  0  0  0  0  0  0  0  0
   48.4380   34.7870   39.0700 C   0  0  0  0  0  0  0  0  0  0  0  0
   47.5890   33.8930   39.8820 C   0  0  1  0  0  0  0  0  0  0  0  0
   48.1810   32.5690   40.2160 C   0  0  0  0  0  0  0  0  0  0  0  0
   48.2970   32.4420   41.6020 F   0  0  0  0  0  0  0  0  0  0  0  0
   47.4330   31.5080   39.7230 F   0  0  0  0  0  0  0  0  0  0  0  0
   49.4450   32.3930   39.7160 F   0  0  0  0  0  0  0  0  0  0  0  0
   45.4350   33.4068   40.8675 H   0  0  0  0  0  0  0  0  0  0  0  0
   45.2343   35.1305   40.5215 H   0  0  0  0  0  0  0  0  0  0  0  0
   43.4485   36.3191   44.8397 H   0  0  0  0  0  0  0  0  0  0  0  0
   43.8111   36.1212   42.3628 H   0  0  0  0  0  0  0  0  0  0  0  0
   44.4742   28.9154   49.3280 H   0  0  0  0  0  0  0  0  0  0  0  0
   45.4811   30.9499   50.6223 H   0  0  0  0  0  0  0  0  0  0  0  0
   44.8051   28.9280   44.3499 H   0  0  0  0  0  0  0  0  0  0  0  0
   47.4223   35.5373   41.0513 H   0  0  0  0  0  0  0  0  0  0  0  0
   45.9519   32.7854   39.2557 H   0  0  0  0  0  0  0  0  0  0  0  0
   46.4310   33.9189   36.9048 H   0  0  0  0  0  0  0  0  0  0  0  0
   47.2021   32.4022   37.4584 H   0  0  0  0  0  0  0  0  0  0  0  0
   49.1950   33.4214   37.5590 H   0  0  0  0  0  0  0  0  0  0  0  0
   48.4896   34.8758   36.8755 H   0  0  0  0  0  0  0  0  0  0  0  0
   49.4692   34.8095   39.4522 H   0  0  0  0  0  0  0  0  0  0  0  0
   48.1019   35.8344   39.0790 H   0  0  0  0  0  0  0  0  0  0  0  0
  1  4  1  0
  2  7  2  0
  3  2  1  0
  4  3  2  0
  4  5  1  0
  5  6  2  0
  6  7  1  0
  6  8  1  0
  8 13  1  0
  9 10  1  0
 11 10  2  0
 12 17  2  0
 12 11  1  0
 13 12  1  0
 14 15  1  0
 14 13  2  0
 15 16  2  0
 16 17  1  0
 17  9  1  0
 18  1  1  0
 19 23  1  0
 20 21  1  0
 20 19  1  0
 21 22  1  0
 22 23  1  0
 23 24  1  0
 23 18  1  1
 24 25  1  0
 26 24  1  0
 27 24  1  0
  1 28  1  0
  1 29  1  0
  2 30  1  0
  3 31  1  0
  9 32  1  0
 10 33  1  0
 15 34  1  0
 18 35  1  0
 19 36  1  0
 20 37  1  0
 20 38  1  0
 21 39  1  0
 21 40  1  0
 22 41  1  0
 22 42  1  0
M  ISO  8  28   8  29   8  30  14  31  14  32   9  33  14  34  14  35   5
M  ISO  7  36   5  37  13  38  13  39  13  40  13  41  13  42  13
M  END
>  <minimizedAffinity>  (1) 
-5.57472849

>  <minimizedRMSD>  (1) 
0.657186449

$$$$
