
     RDKit          3D

 47 50  0  0  1  0  0  0  0  0999 V2000
   45.7750   34.5330   41.2190 C   0  0  0  0  0  0  0  0  0  0  0  0
   44.3080   35.8070   44.5100 C   0  0  0  0  0  0  0  0  0  0  0  0
   44.5220   35.7290   43.1320 C   0  0  0  0  0  0  0  0  0  0  0  0
   45.4280   34.7570   42.6770 C   0  0  0  0  0  0  0  0  0  0  0  0
   46.0390   33.9550   43.5910 N   0  0  0  0  0  0  0  0  0  0  0  0
   45.8100   34.0590   44.8990 C   0  0  0  0  0  0  0  0  0  0  0  0
   44.9350   34.9950   45.3610 N   0  0  0  0  0  0  0  0  0  0  0  0
   46.6860   32.9150   45.9490 S   0  0  0  0  0  0  0  0  0  0  0  0
   46.0380   31.2890   45.5720 C   0  0  0  0  0  0  0  0  0  0  0  0
   46.0200   31.0270   44.2150 C   0  0  0  0  0  0  0  0  0  0  0  0
   45.5550   29.8250   43.7080 C   0  0  0  0  0  0  0  0  0  0  0  0
   45.1070   28.9010   44.6590 C   0  0  0  0  0  0  0  0  0  0  0  0
   45.1200   29.1490   46.0060 C   0  0  0  0  0  0  0  0  0  0  0  0
   44.6740   28.2270   46.9360 C   0  0  0  0  0  0  0  0  0  0  0  0
   44.7170   28.5480   48.2770 C   0  0  0  0  0  0  0  0  0  0  0  0
   45.2010   29.7830   48.7160 C   0  0  0  0  0  0  0  0  0  0  0  0
   45.6570   30.7320   47.7980 C   0  0  0  0  0  0  0  0  0  0  0  0
   45.5870   30.3520   46.4790 C   0  0  0  0  0  0  0  0  0  0  0  0
   47.1940   34.5530   41.1570 N   0  0  0  0  0  0  0  0  0  0  0  0
   46.4540   33.6660   39.0640 N   0  0  0  0  0  0  0  0  0  0  0  0
   47.0440   33.4820   37.7570 C   0  0  0  0  0  0  0  0  0  0  0  0
   48.3560   34.1230   37.7480 C   0  0  0  0  0  0  0  0  0  0  0  0
   48.4440   34.7790   39.1270 C   0  0  0  0  0  0  0  0  0  0  0  0
   47.5900   33.8920   39.9490 C   0  0  1  0  0  0  0  0  0  0  0  0
   48.1690   32.5620   40.2800 C   0  0  0  0  0  0  0  0  0  0  0  0
   48.2570   32.4100   41.6660 F   0  0  0  0  0  0  0  0  0  0  0  0
   47.4340   31.5190   39.7600 F   0  0  0  0  0  0  0  0  0  0  0  0
   49.4510   32.3930   39.8030 F   0  0  0  0  0  0  0  0  0  0  0  0
   45.3893   33.5611   40.8774 H   0  0  0  0  0  0  0  0  0  0  0  0
   45.3283   35.3018   40.5714 H   0  0  0  0  0  0  0  0  0  0  0  0
   43.6051   36.5566   44.9024 H   0  0  0  0  0  0  0  0  0  0  0  0
   44.0028   36.4006   42.4325 H   0  0  0  0  0  0  0  0  0  0  0  0
   46.3855   31.7952   43.5177 H   0  0  0  0  0  0  0  0  0  0  0  0
   45.5388   29.6107   42.6292 H   0  0  0  0  0  0  0  0  0  0  0  0
   44.7267   27.9303   44.3083 H   0  0  0  0  0  0  0  0  0  0  0  0
   44.2896   27.2493   46.6100 H   0  0  0  0  0  0  0  0  0  0  0  0
   44.3624   27.8154   49.0170 H   0  0  0  0  0  0  0  0  0  0  0  0
   45.2231   30.0096   49.7922 H   0  0  0  0  0  0  0  0  0  0  0  0
   46.0445   31.7135   48.1086 H   0  0  0  0  0  0  0  0  0  0  0  0
   47.5305   35.5264   41.1501 H   0  0  0  0  0  0  0  0  0  0  0  0
   45.9319   32.8252   39.3493 H   0  0  0  0  0  0  0  0  0  0  0  0
   47.1541   32.4078   37.5472 H   0  0  0  0  0  0  0  0  0  0  0  0
   46.3999   33.9295   36.9857 H   0  0  0  0  0  0  0  0  0  0  0  0
   49.1557   33.3795   37.6148 H   0  0  0  0  0  0  0  0  0  0  0  0
   48.4754   34.8417   36.9239 H   0  0  0  0  0  0  0  0  0  0  0  0
   49.4796   34.7914   39.4976 H   0  0  0  0  0  0  0  0  0  0  0  0
   48.1260   35.8320   39.1367 H   0  0  0  0  0  0  0  0  0  0  0  0
  1  4  1  0
  2  7  2  0
  3  2  1  0
  4  3  2  0
  4  5  1  0
  5  6  2  0
  6  7  1  0
  6  8  1  0
  9  8  1  0
  9 18  1  0
 10  9  2  0
 11 10  1  0
 11 12  2  0
 12 13  1  0
 13 18  2  0
 13 14  1  0
 14 15  2  0
 15 16  1  0
 17 16  2  0
 18 17  1  0
 19  1  1  0
 20 24  1  0
 21 20  1  0
 22 21  1  0
 22 23  1  0
 23 24  1  0
 24 25  1  0
 24 19  1  1
 25 26  1  0
 27 25  1  0
 28 25  1  0
  1 29  1  0
  1 30  1  0
  2 31  1  0
  3 32  1  0
 10 33  1  0
 11 34  1  0
 12 35  1  0
 14 36  1  0
 15 37  1  0
 16 38  1  0
 17 39  1  0
 19 40  1  0
 20 41  1  0
 21 42  1  0
 21 43  1  0
 22 44  1  0
 22 45  1  0
 23 46  1  0
 23 47  1  0
M  ISO  8  29   8  30   8  31  14  32  14  33  14  34  14  35  14  36  14
M  ISO  8  37  14  38  14  39  14  40   5  41   5  42  13  43  13  44  13
M  ISO  3  45  13  46  13  47  13
M  END
>  <minimizedAffinity>  (1) 
-5.51194

>  <minimizedRMSD>  (1) 
0.925630331

$$$$
