
     RDKit          3D

 38 40  0  0  1  0  0  0  0  0999 V2000
   47.3820   35.0180   41.9510 N   0  0  0  0  0  0  0  0  0  0  0  0
   46.4990   33.8750   40.0600 N   0  0  0  0  0  0  0  0  0  0  0  0
   46.9900   33.5460   38.7350 C   0  0  0  0  0  0  0  0  0  0  0  0
   48.2770   34.2370   38.5290 C   0  0  0  0  0  0  0  0  0  0  0  0
   48.4510   35.0260   39.8070 C   0  0  0  0  0  0  0  0  0  0  0  0
   47.7100   34.2360   40.8070 C   0  0  1  0  0  0  0  0  0  0  0  0
   48.3520   32.9630   41.2430 C   0  0  0  0  0  0  0  0  0  0  0  0
   48.7510   33.0540   42.5670 F   0  0  0  0  0  0  0  0  0  0  0  0
   47.5060   31.8680   41.0840 F   0  0  0  0  0  0  0  0  0  0  0  0
   49.4930   32.6490   40.5240 F   0  0  0  0  0  0  0  0  0  0  0  0
   45.9600   35.1480   42.0230 C   0  0  0  0  0  0  0  0  0  0  0  0
   44.4900   35.4070   45.5320 C   0  0  0  0  0  0  0  0  0  0  0  0
   44.7050   35.7320   44.1980 C   0  0  0  0  0  0  0  0  0  0  0  0
   45.6080   34.9360   43.4830 C   0  0  0  0  0  0  0  0  0  0  0  0
   46.2140   33.9080   44.1210 N   0  0  0  0  0  0  0  0  0  0  0  0
   45.9900   33.6110   45.4170 C   0  0  0  0  0  0  0  0  0  0  0  0
   45.1070   34.3910   46.1120 N   0  0  0  0  0  0  0  0  0  0  0  0
   46.8710   32.2280   46.0890 S   0  0  0  0  0  0  0  0  0  0  0  0
   46.0910   31.5740   47.5430 C   0  0  0  0  0  0  0  0  0  0  0  0
   45.9830   32.2200   48.7570 C   0  0  0  0  0  0  0  0  0  0  0  0
   45.3220   31.3890   49.6060 N   0  0  0  0  0  0  0  0  0  0  0  0
   45.0270   30.2470   48.9310 C   0  0  0  0  0  0  0  0  0  0  0  0
   45.5010   30.3640   47.6590 N   0  0  0  0  0  0  0  0  0  0  0  0
   47.8118   35.9504   41.8687 H   0  0  0  0  0  0  0  0  0  0  0  0
   46.0320   33.0636   40.4895 H   0  0  0  0  0  0  0  0  0  0  0  0
   47.1349   32.4587   38.6522 H   0  0  0  0  0  0  0  0  0  0  0  0
   46.2638   33.8659   37.9732 H   0  0  0  0  0  0  0  0  0  0  0  0
   49.0961   33.5149   38.3961 H   0  0  0  0  0  0  0  0  0  0  0  0
   48.2903   34.8665   37.6270 H   0  0  0  0  0  0  0  0  0  0  0  0
   49.5142   35.1046   40.0782 H   0  0  0  0  0  0  0  0  0  0  0  0
   48.0853   36.0601   39.7235 H   0  0  0  0  0  0  0  0  0  0  0  0
   45.6483   36.1502   41.6939 H   0  0  0  0  0  0  0  0  0  0  0  0
   45.4501   34.4239   41.3706 H   0  0  0  0  0  0  0  0  0  0  0  0
   43.7864   36.0122   46.1225 H   0  0  0  0  0  0  0  0  0  0  0  0
   44.1875   36.5790   43.7238 H   0  0  0  0  0  0  0  0  0  0  0  0
   46.3626   33.2247   48.9949 H   0  0  0  0  0  0  0  0  0  0  0  0
   44.4956   29.3759   49.3419 H   0  0  0  0  0  0  0  0  0  0  0  0
   45.4232   29.6546   46.9163 H   0  0  0  0  0  0  0  0  0  0  0  0
  1 11  1  0
  2  6  1  0
  3  2  1  0
  4  3  1  0
  4  5  1  0
  5  6  1  0
  6  7  1  0
  6  1  1  1
  7  8  1  0
  9  7  1  0
 10  7  1  0
 11 14  1  0
 12 17  2  0
 13 12  1  0
 14 15  1  0
 14 13  2  0
 15 16  2  0
 16 18  1  0
 16 17  1  0
 18 19  1  0
 19 23  1  0
 19 20  2  0
 20 21  1  0
 22 21  2  0
 23 22  1  0
  1 24  1  0
  2 25  1  0
  3 26  1  0
  3 27  1  0
  4 28  1  0
  4 29  1  0
  5 30  1  0
  5 31  1  0
 11 32  1  0
 11 33  1  0
 12 34  1  0
 13 35  1  0
 20 36  1  0
 22 37  1  0
 23 38  1  0
M  ISO  8  24   5  25   5  26  13  27  13  28  13  29  13  30  13  31  13
M  ISO  7  32   8  33   8  34  14  35  14  36  14  37  14  38   9
M  END
>  <minimizedAffinity>  (1) 
-5.45719051

>  <minimizedRMSD>  (1) 
1.34448707

$$$$
