
     RDKit          3D

 36 38  0  0  1  0  0  0  0  0999 V2000
   47.4260   35.0890   42.0300 N   0  0  0  0  0  0  0  0  0  0  0  0
   46.5390   33.9330   40.1390 N   0  0  0  0  0  0  0  0  0  0  0  0
   47.0210   33.6040   38.8100 C   0  0  0  0  0  0  0  0  0  0  0  0
   48.2950   34.2990   38.6030 C   0  0  0  0  0  0  0  0  0  0  0  0
   48.4820   35.1060   39.8840 C   0  0  0  0  0  0  0  0  0  0  0  0
   47.7370   34.2990   40.8860 C   0  0  1  0  0  0  0  0  0  0  0  0
   48.3990   33.0440   41.3220 C   0  0  0  0  0  0  0  0  0  0  0  0
   48.8450   33.1590   42.6320 F   0  0  0  0  0  0  0  0  0  0  0  0
   47.5620   31.9460   41.2200 F   0  0  0  0  0  0  0  0  0  0  0  0
   49.5280   32.7310   40.5750 F   0  0  0  0  0  0  0  0  0  0  0  0
   46.0120   35.2010   42.1190 C   0  0  0  0  0  0  0  0  0  0  0  0
   44.5320   35.3020   45.6360 C   0  0  0  0  0  0  0  0  0  0  0  0
   44.7550   35.6880   44.3150 C   0  0  0  0  0  0  0  0  0  0  0  0
   45.6570   34.9200   43.5660 C   0  0  0  0  0  0  0  0  0  0  0  0
   46.2590   33.8540   44.1600 N   0  0  0  0  0  0  0  0  0  0  0  0
   46.0300   33.5060   45.4240 C   0  0  0  0  0  0  0  0  0  0  0  0
   45.1560   34.2420   46.1660 N   0  0  0  0  0  0  0  0  0  0  0  0
   46.9060   32.0830   46.0350 S   0  0  0  0  0  0  0  0  0  0  0  0
   46.0650   31.5610   47.5390 C   0  0  0  0  0  0  0  0  0  0  0  0
   45.2380   30.4860   47.6720 N   0  0  0  0  0  0  0  0  0  0  0  0
   44.8070   30.4060   48.8940 O   0  0  0  0  0  0  0  0  0  0  0  0
   45.3390   31.4100   49.5560 C   0  0  0  0  0  0  0  0  0  0  0  0
   46.1250   32.1480   48.7490 N   0  0  0  0  0  0  0  0  0  0  0  0
   47.8447   36.0249   41.9321 H   0  0  0  0  0  0  0  0  0  0  0  0
   46.0766   33.1196   40.5696 H   0  0  0  0  0  0  0  0  0  0  0  0
   47.1710   32.5175   38.7261 H   0  0  0  0  0  0  0  0  0  0  0  0
   46.2887   33.9161   38.0508 H   0  0  0  0  0  0  0  0  0  0  0  0
   49.1165   33.5798   38.4696 H   0  0  0  0  0  0  0  0  0  0  0  0
   48.2946   34.9278   37.7005 H   0  0  0  0  0  0  0  0  0  0  0  0
   49.5461   35.1869   40.1508 H   0  0  0  0  0  0  0  0  0  0  0  0
   48.1249   36.1434   39.8042 H   0  0  0  0  0  0  0  0  0  0  0  0
   45.6911   36.2147   41.8373 H   0  0  0  0  0  0  0  0  0  0  0  0
   45.5100   34.4974   41.4386 H   0  0  0  0  0  0  0  0  0  0  0  0
   43.8297   35.8794   46.2552 H   0  0  0  0  0  0  0  0  0  0  0  0
   44.2443   36.5591   43.8787 H   0  0  0  0  0  0  0  0  0  0  0  0
   45.1659   31.6184   50.6221 H   0  0  0  0  0  0  0  0  0  0  0  0
  1 11  1  0
  2  6  1  0
  3  2  1  0
  4  3  1  0
  4  5  1  0
  5  6  1  0
  6  7  1  0
  6  1  1  1
  7  8  1  0
  9  7  1  0
 10  7  1  0
 11 14  1  0
 12 17  2  0
 13 12  1  0
 14 15  1  0
 14 13  2  0
 15 16  2  0
 16 18  1  0
 16 17  1  0
 18 19  1  0
 19 20  2  0
 19 23  1  0
 20 21  1  0
 21 22  1  0
 23 22  2  0
  1 24  1  0
  2 25  1  0
  3 26  1  0
  3 27  1  0
  4 28  1  0
  4 29  1  0
  5 30  1  0
  5 31  1  0
 11 32  1  0
 11 33  1  0
 12 34  1  0
 13 35  1  0
 22 36  1  0
M  ISO  8  24   5  25   5  26  13  27  13  28  13  29  13  30  13  31  13
M  ISO  5  32   8  33   8  34  14  35  14  36  14
M  END
>  <minimizedAffinity>  (1) 
-5.44757318

>  <minimizedRMSD>  (1) 
1.43362498

$$$$
