
     RDKit          3D

 38 40  0  0  1  0  0  0  0  0999 V2000
   46.1880   35.1460   41.5900 C   0  0  0  0  0  0  0  0  0  0  0  0
   44.7750   35.2600   45.1410 C   0  0  0  0  0  0  0  0  0  0  0  0
   44.9990   35.6580   43.8190 C   0  0  0  0  0  0  0  0  0  0  0  0
   45.8400   34.8550   43.0480 C   0  0  0  0  0  0  0  0  0  0  0  0
   46.3910   33.7420   43.6120 N   0  0  0  0  0  0  0  0  0  0  0  0
   46.1640   33.3860   44.8670 C   0  0  0  0  0  0  0  0  0  0  0  0
   45.3470   34.1580   45.6360 N   0  0  0  0  0  0  0  0  0  0  0  0
   46.9600   31.9120   45.4400 S   0  0  0  0  0  0  0  0  0  0  0  0
   46.1150   31.4060   46.9480 C   0  0  0  0  0  0  0  0  0  0  0  0
   45.3350   30.3110   47.1090 N   0  0  0  0  0  0  0  0  0  0  0  0
   44.8850   30.2580   48.3350 O   0  0  0  0  0  0  0  0  0  0  0  0
   45.3650   31.3040   48.9610 C   0  0  0  0  0  0  0  0  0  0  0  0
   46.1350   32.0480   48.1390 N   0  0  0  0  0  0  0  0  0  0  0  0
   45.2050   31.7530   50.3090 N   0  0  0  0  0  0  0  0  0  0  0  0
   47.5580   34.9100   41.4580 N   0  0  0  0  0  0  0  0  0  0  0  0
   46.5630   33.7600   39.6450 N   0  0  0  0  0  0  0  0  0  0  0  0
   46.9540   33.4150   38.2920 C   0  0  0  0  0  0  0  0  0  0  0  0
   48.2200   34.1000   38.0050 C   0  0  0  0  0  0  0  0  0  0  0  0
   48.5050   34.9070   39.2580 C   0  0  0  0  0  0  0  0  0  0  0  0
   47.8080   34.1190   40.3080 C   0  0  1  0  0  0  0  0  0  0  0  0
   48.4780   32.8620   40.7260 C   0  0  0  0  0  0  0  0  0  0  0  0
   49.0360   33.0000   41.9870 F   0  0  0  0  0  0  0  0  0  0  0  0
   47.6160   31.7710   40.7100 F   0  0  0  0  0  0  0  0  0  0  0  0
   49.5280   32.4910   39.8840 F   0  0  0  0  0  0  0  0  0  0  0  0
   45.6210   34.4798   40.9231 H   0  0  0  0  0  0  0  0  0  0  0  0
   45.9331   36.1808   41.3176 H   0  0  0  0  0  0  0  0  0  0  0  0
   44.1174   35.8637   45.7838 H   0  0  0  0  0  0  0  0  0  0  0  0
   44.5326   36.5643   43.4054 H   0  0  0  0  0  0  0  0  0  0  0  0
   45.6702   32.6167   50.6228 H   0  0  0  0  0  0  0  0  0  0  0  0
   44.6245   31.2127   50.9663 H   0  0  0  0  0  0  0  0  0  0  0  0
   48.0513   35.8095   41.3665 H   0  0  0  0  0  0  0  0  0  0  0  0
   46.1215   32.9552   40.1121 H   0  0  0  0  0  0  0  0  0  0  0  0
   47.0893   32.3267   38.2071 H   0  0  0  0  0  0  0  0  0  0  0  0
   46.1780   33.7237   37.5761 H   0  0  0  0  0  0  0  0  0  0  0  0
   49.0234   33.3717   37.8199 H   0  0  0  0  0  0  0  0  0  0  0  0
   48.1613   34.7298   37.1050 H   0  0  0  0  0  0  0  0  0  0  0  0
   49.5854   34.9667   39.4561 H   0  0  0  0  0  0  0  0  0  0  0  0
   48.1675   35.9521   39.1949 H   0  0  0  0  0  0  0  0  0  0  0  0
  1  4  1  0
  2  7  2  0
  3  2  1  0
  4  5  1  0
  4  3  2  0
  5  6  2  0
  6  8  1  0
  6  7  1  0
  8  9  1  0
  9 10  2  0
  9 13  1  0
 10 11  1  0
 11 12  1  0
 12 14  1  0
 13 12  2  0
 15  1  1  0
 16 20  1  0
 17 16  1  0
 18 17  1  0
 18 19  1  0
 19 20  1  0
 20 21  1  0
 20 15  1  1
 21 22  1  0
 23 21  1  0
 24 21  1  0
  1 25  1  0
  1 26  1  0
  2 27  1  0
  3 28  1  0
 14 29  1  0
 14 30  1  0
 15 31  1  0
 16 32  1  0
 17 33  1  0
 17 34  1  0
 18 35  1  0
 18 36  1  0
 19 37  1  0
 19 38  1  0
M  ISO  8  25   8  26   8  27  14  28  14  31   5  32   5  33  13  34  13
M  ISO  4  35  13  36  13  37  13  38  13
M  END
>  <minimizedAffinity>  (1) 
-5.29874229

>  <minimizedRMSD>  (1) 
0.600807309

$$$$
