
     RDKit          3D

 27 29  0  0  0  0  0  0  0  0999 V2000
   46.1730   34.2070   40.7530 N   0  0  0  0  0  0  0  0  0  0  0  0
   47.1720   34.2230   39.9110 N   0  0  0  0  0  0  0  0  0  0  0  0
   48.2860   34.7250   40.4710 C   0  0  0  0  0  0  0  0  0  0  0  0
   47.9340   35.0500   41.7890 C   0  0  0  0  0  0  0  0  0  0  0  0
   46.6090   34.7090   41.9150 C   0  0  0  0  0  0  0  0  0  0  0  0
   42.5100   34.0880   40.0630 C   0  0  0  0  0  0  0  0  0  0  0  0
   43.7990   34.6260   40.3280 C   0  0  0  0  0  0  0  0  0  0  0  0
   44.8690   33.7460   40.4890 C   0  0  0  0  0  0  0  0  0  0  0  0
   44.6050   32.4300   40.3800 N   0  0  0  0  0  0  0  0  0  0  0  0
   43.3770   31.9280   40.1270 C   0  0  0  0  0  0  0  0  0  0  0  0
   42.3420   32.7610   39.9710 N   0  0  0  0  0  0  0  0  0  0  0  0
   45.9160   34.9220   43.1800 C   0  0  0  0  0  0  0  0  0  0  0  0
   46.1080   33.9370   44.1580 C   0  0  0  0  0  0  0  0  0  0  0  0
   45.5250   33.9840   45.4070 C   0  0  0  0  0  0  0  0  0  0  0  0
   44.7040   35.0420   45.7390 C   0  0  0  0  0  0  0  0  0  0  0  0
   44.5120   36.0080   44.7850 C   0  0  0  0  0  0  0  0  0  0  0  0
   45.0960   35.9590   43.5390 C   0  0  0  0  0  0  0  0  0  0  0  0
   49.2691   34.8540   39.9947 H   0  0  0  0  0  0  0  0  0  0  0  0
   48.5837   35.4871   42.5615 H   0  0  0  0  0  0  0  0  0  0  0  0
   41.6497   34.7611   39.9333 H   0  0  0  0  0  0  0  0  0  0  0  0
   43.9492   35.7130   40.4044 H   0  0  0  0  0  0  0  0  0  0  0  0
   43.2288   30.8408   40.0497 H   0  0  0  0  0  0  0  0  0  0  0  0
   46.7572   33.0823   43.9171 H   0  0  0  0  0  0  0  0  0  0  0  0
   45.7137   33.1815   46.1353 H   0  0  0  0  0  0  0  0  0  0  0  0
   44.2241   35.1077   46.7266 H   0  0  0  0  0  0  0  0  0  0  0  0
   43.8614   36.8615   45.0262 H   0  0  0  0  0  0  0  0  0  0  0  0
   44.9006   36.7672   42.8188 H   0  0  0  0  0  0  0  0  0  0  0  0
  1  5  1  0
  2  3  2  0
  2  1  1  0
  3  4  1  0
  4  5  2  0
  5 12  1  0
  6  7  2  0
  7  8  1  0
  8  1  1  0
  9  8  2  0
 10  9  1  0
 11  6  1  0
 11 10  2  0
 12 17  1  0
 12 13  2  0
 13 14  1  0
 14 15  2  0
 16 15  1  0
 17 16  2  0
  3 18  1  0
  4 19  1  0
  6 20  1  0
  7 21  1  0
 10 22  1  0
 13 23  1  0
 14 24  1  0
 15 25  1  0
 16 26  1  0
 17 27  1  0
M  ISO  8  18  14  19  14  20  14  21  14  22  14  23  14  24  14  25  14
M  ISO  2  26  14  27  14
M  END
>  <minimizedAffinity>  (1) 
-5.10104036

>  <minimizedRMSD>  (1) 
4.29628992

$$$$
