
     RDKit          3D

 20 21  0  0  0  0  0  0  0  0999 V2000
   46.5070   34.3870   41.4710 N   0  0  0  0  0  0  0  0  0  0  0  0
   45.9000   33.8700   40.4320 N   0  0  0  0  0  0  0  0  0  0  0  0
   46.7680   33.6540   39.4150 C   0  0  0  0  0  0  0  0  0  0  0  0
   48.0050   34.0720   39.8730 C   0  0  0  0  0  0  0  0  0  0  0  0
   47.7980   34.5190   41.1540 C   0  0  0  0  0  0  0  0  0  0  0  0
   44.7650   36.2480   44.1810 C   0  0  0  0  0  0  0  0  0  0  0  0
   45.3480   35.9860   42.9070 C   0  0  0  0  0  0  0  0  0  0  0  0
   45.9090   34.7360   42.6980 C   0  0  0  0  0  0  0  0  0  0  0  0
   45.8760   33.8250   43.7130 N   0  0  0  0  0  0  0  0  0  0  0  0
   45.3100   34.1110   44.9180 C   0  0  0  0  0  0  0  0  0  0  0  0
   44.7640   35.3090   45.1390 N   0  0  0  0  0  0  0  0  0  0  0  0
   48.8360   35.0720   42.0680 C   0  0  0  0  0  0  0  0  0  0  0  0
   48.5980   34.7210   43.3850 F   0  0  0  0  0  0  0  0  0  0  0  0
   48.8840   36.4410   41.9460 F   0  0  0  0  0  0  0  0  0  0  0  0
   50.0360   34.5130   41.7110 F   0  0  0  0  0  0  0  0  0  0  0  0
   46.5366   33.2320   38.4259 H   0  0  0  0  0  0  0  0  0  0  0  0
   48.9578   34.0505   39.3237 H   0  0  0  0  0  0  0  0  0  0  0  0
   44.3114   37.2300   44.3806 H   0  0  0  0  0  0  0  0  0  0  0  0
   45.3525   36.7504   42.1160 H   0  0  0  0  0  0  0  0  0  0  0  0
   45.3026   33.3511   45.7133 H   0  0  0  0  0  0  0  0  0  0  0  0
  1  8  1  0
  2  1  1  0
  3  4  1  0
  3  2  2  0
  4  5  2  0
  5  1  1  0
  5 12  1  0
  6 11  2  0
  7  6  1  0
  8  7  2  0
  8  9  1  0
  9 10  2  0
 10 11  1  0
 12 13  1  0
 14 12  1  0
 15 12  1  0
  3 16  1  0
  4 17  1  0
  6 18  1  0
  7 19  1  0
 10 20  1  0
M  ISO  5  16  14  17  14  18  14  19  14  20  14
M  END
>  <minimizedAffinity>  (1) 
-4.82843637

>  <minimizedRMSD>  (1) 
0.974344552

$$$$
