
     RDKit          3D

 23 25  0  0  0  0  0  0  0  0999 V2000
   45.6190   34.0890   41.5910 N   0  0  0  0  0  0  0  0  0  0  0  0
   44.7570   33.6530   40.7090 N   0  0  0  0  0  0  0  0  0  0  0  0
   45.3510   33.3460   39.5410 C   0  0  0  0  0  0  0  0  0  0  0  0
   46.6960   33.6150   39.7220 C   0  0  0  0  0  0  0  0  0  0  0  0
   46.8270   34.0780   41.0150 C   0  0  0  0  0  0  0  0  0  0  0  0
   44.4950   36.0660   44.5310 C   0  0  0  0  0  0  0  0  0  0  0  0
   44.7600   35.7290   43.1870 C   0  0  0  0  0  0  0  0  0  0  0  0
   45.3260   34.4940   42.9100 C   0  0  0  0  0  0  0  0  0  0  0  0
   45.6030   33.6560   43.9510 N   0  0  0  0  0  0  0  0  0  0  0  0
   45.3360   34.0060   45.2410 C   0  0  0  0  0  0  0  0  0  0  0  0
   44.7910   35.1950   45.5230 N   0  0  0  0  0  0  0  0  0  0  0  0
   48.0880   34.4580   41.5560 N   0  0  0  0  0  0  0  0  0  0  0  0
   48.7600   35.6190   41.6740 C   0  0  0  0  0  0  0  0  0  0  0  0
   49.9400   35.3950   42.2830 N   0  0  0  0  0  0  0  0  0  0  0  0
   50.0190   34.0750   42.5550 C   0  0  0  0  0  0  0  0  0  0  0  0
   48.8790   33.5350   42.1000 N   0  0  0  0  0  0  0  0  0  0  0  0
   44.8674   32.9610   38.6311 H   0  0  0  0  0  0  0  0  0  0  0  0
   47.5002   33.4856   38.9827 H   0  0  0  0  0  0  0  0  0  0  0  0
   44.0460   37.0405   44.7733 H   0  0  0  0  0  0  0  0  0  0  0  0
   44.5223   36.4320   42.3750 H   0  0  0  0  0  0  0  0  0  0  0  0
   45.5703   33.3057   46.0563 H   0  0  0  0  0  0  0  0  0  0  0  0
   48.4006   36.5989   41.3266 H   0  0  0  0  0  0  0  0  0  0  0  0
   50.8494   33.5495   43.0492 H   0  0  0  0  0  0  0  0  0  0  0  0
  1  8  1  0
  2  1  1  0
  3  4  1  0
  3  2  2  0
  4  5  2  0
  5 12  1  0
  5  1  1  0
  6 11  2  0
  7  6  1  0
  8  7  2  0
  8  9  1  0
  9 10  2  0
 10 11  1  0
 12 13  1  0
 12 16  1  0
 13 14  2  0
 14 15  1  0
 16 15  2  0
  3 17  1  0
  4 18  1  0
  6 19  1  0
  7 20  1  0
 10 21  1  0
 13 22  1  0
 15 23  1  0
M  ISO  7  17  14  18  14  19  14  20  14  21  14  22  14  23  14
M  END
>  <minimizedAffinity>  (1) 
-4.6262331

>  <minimizedRMSD>  (1) 
1.87295985

$$$$
