
     RDKit          3D

 25 27  0  0  0  0  0  0  0  0999 V2000
   48.0830   33.9770   43.0670 N   0  0  0  0  0  0  0  0  0  0  0  0
   49.3740   34.1720   43.0670 N   0  0  0  0  0  0  0  0  0  0  0  0
   49.6950   35.1670   42.1970 C   0  0  0  0  0  0  0  0  0  0  0  0
   48.5050   35.6020   41.6320 C   0  0  0  0  0  0  0  0  0  0  0  0
   47.5090   34.8400   42.1940 C   0  0  0  0  0  0  0  0  0  0  0  0
   46.5010   30.8050   44.2410 C   0  0  0  0  0  0  0  0  0  0  0  0
   47.2090   31.7130   43.4240 C   0  0  0  0  0  0  0  0  0  0  0  0
   47.3810   33.0230   43.8470 C   0  0  0  0  0  0  0  0  0  0  0  0
   46.8520   33.3870   45.0510 N   0  0  0  0  0  0  0  0  0  0  0  0
   46.1730   32.4960   45.8240 C   0  0  0  0  0  0  0  0  0  0  0  0
   46.0020   31.2350   45.4260 N   0  0  0  0  0  0  0  0  0  0  0  0
   46.0700   34.9040   41.9350 C   0  0  0  0  0  0  0  0  0  0  0  0
   45.2810   35.6730   42.7950 C   0  0  0  0  0  0  0  0  0  0  0  0
   43.9550   35.6800   42.4830 C   0  0  0  0  0  0  0  0  0  0  0  0
   43.3780   35.0300   41.4560 N   0  0  0  0  0  0  0  0  0  0  0  0
   44.1890   34.2920   40.6430 C   0  0  0  0  0  0  0  0  0  0  0  0
   45.5050   34.2580   40.9160 N   0  0  0  0  0  0  0  0  0  0  0  0
   50.7029   35.5521   41.9829 H   0  0  0  0  0  0  0  0  0  0  0  0
   48.3830   36.3984   40.8831 H   0  0  0  0  0  0  0  0  0  0  0  0
   46.3562   29.7628   43.9204 H   0  0  0  0  0  0  0  0  0  0  0  0
   47.6214   31.3840   42.4587 H   0  0  0  0  0  0  0  0  0  0  0  0
   45.7597   32.8207   46.7903 H   0  0  0  0  0  0  0  0  0  0  0  0
   45.6955   36.2256   43.6510 H   0  0  0  0  0  0  0  0  0  0  0  0
   43.2937   36.2730   43.1319 H   0  0  0  0  0  0  0  0  0  0  0  0
   43.7763   33.7391   39.7862 H   0  0  0  0  0  0  0  0  0  0  0  0
  1  8  1  0
  2  1  1  0
  3  2  2  0
  4  5  2  0
  4  3  1  0
  5  1  1  0
  6 11  2  0
  7  8  2  0
  7  6  1  0
  8  9  1  0
  9 10  2  0
 11 10  1  0
 12  5  1  0
 12 13  2  0
 14 13  1  0
 15 14  2  0
 16 17  2  0
 16 15  1  0
 17 12  1  0
  3 18  1  0
  4 19  1  0
  6 20  1  0
  7 21  1  0
 10 22  1  0
 13 23  1  0
 14 24  1  0
 16 25  1  0
M  ISO  8  18  14  19  14  20  14  21  14  22  14  23  14  24  14  25  14
M  END
>  <minimizedAffinity>  (1) 
-4.58220005

>  <minimizedRMSD>  (1) 
4.35706139

$$$$
