
     RDKit          3D

 19 20  0  0  0  0  0  0  0  0999 V2000
   46.6560   34.5300   41.6310 N   0  0  0  0  0  0  0  0  0  0  0  0
   46.1630   33.8760   40.6190 N   0  0  0  0  0  0  0  0  0  0  0  0
   47.0300   33.7960   39.5930 C   0  0  0  0  0  0  0  0  0  0  0  0
   48.1750   34.4710   40.0200 C   0  0  0  0  0  0  0  0  0  0  0  0
   47.9050   34.9130   41.2910 C   0  0  0  0  0  0  0  0  0  0  0  0
   44.6550   36.1380   44.3210 C   0  0  0  0  0  0  0  0  0  0  0  0
   45.2720   35.9430   43.0640 C   0  0  0  0  0  0  0  0  0  0  0  0
   46.0140   34.7910   42.8550 C   0  0  0  0  0  0  0  0  0  0  0  0
   46.1120   33.9060   43.8730 N   0  0  0  0  0  0  0  0  0  0  0  0
   45.5140   34.1040   45.0800 C   0  0  0  0  0  0  0  0  0  0  0  0
   44.7900   35.2230   45.2870 N   0  0  0  0  0  0  0  0  0  0  0  0
   48.8380   35.6470   42.0600 N   0  0  0  0  0  0  0  0  0  0  0  0
   46.8703   33.3029   38.6228 H   0  0  0  0  0  0  0  0  0  0  0  0
   49.1056   34.6188   39.4524 H   0  0  0  0  0  0  0  0  0  0  0  0
   44.0617   37.0458   44.5052 H   0  0  0  0  0  0  0  0  0  0  0  0
   45.1651   36.6923   42.2658 H   0  0  0  0  0  0  0  0  0  0  0  0
   45.6205   33.3570   45.8804 H   0  0  0  0  0  0  0  0  0  0  0  0
   48.5908   35.9581   43.0102 H   0  0  0  0  0  0  0  0  0  0  0  0
   49.7647   35.8704   41.6698 H   0  0  0  0  0  0  0  0  0  0  0  0
  1  8  1  0
  2  1  1  0
  3  4  1  0
  3  2  2  0
  4  5  2  0
  5  1  1  0
  5 12  1  0
  6 11  2  0
  7  6  1  0
  8  7  2  0
  8  9  1  0
  9 10  2  0
 10 11  1  0
  3 13  1  0
  4 14  1  0
  6 15  1  0
  7 16  1  0
 10 17  1  0
 12 18  1  0
 12 19  1  0
M  ISO  5  13  14  14  14  15  14  16  14  17  14
M  END
>  <minimizedAffinity>  (1) 
-4.2029829

>  <minimizedRMSD>  (1) 
0.527437747

$$$$
