
     RDKit          3D

 29 30  0  0  0  0  0  0  0  0999 V2000
   45.0180   34.8810   45.5980 C   0  0  0  0  0  0  0  0  0  0  0  0
   44.4660   35.2890   44.3840 C   0  0  0  0  0  0  0  0  0  0  0  0
   44.7770   34.5200   43.2590 C   0  0  0  0  0  0  0  0  0  0  0  0
   45.5810   33.4500   43.4210 N   0  0  0  0  0  0  0  0  0  0  0  0
   46.1110   33.0630   44.5970 C   0  0  0  0  0  0  0  0  0  0  0  0
   45.8090   33.7950   45.6420 N   0  0  0  0  0  0  0  0  0  0  0  0
   46.9520   31.9380   44.7540 N   0  0  0  0  0  0  0  0  0  0  0  0
   47.6090   31.5360   43.6530 C   0  0  0  0  0  0  0  0  0  0  0  0
   48.3460   30.4230   44.0350 C   0  0  0  0  0  0  0  0  0  0  0  0
   48.1230   30.1840   45.3200 N   0  0  0  0  0  0  0  0  0  0  0  0
   47.2580   31.1120   45.7990 C   0  0  0  0  0  0  0  0  0  0  0  0
   46.7470   31.2590   47.1610 C   0  0  0  0  0  0  0  0  0  0  0  0
   45.2570   31.0310   47.3020 C   0  0  0  0  0  0  0  0  0  0  0  0
   47.2690   32.4360   47.9350 C   0  0  0  0  0  0  0  0  0  0  0  0
   47.3470   30.0390   47.9290 C   0  0  0  0  0  0  0  0  0  0  0  0
   44.8066   35.4466   46.5175 H   0  0  0  0  0  0  0  0  0  0  0  0
   43.8166   36.1741   44.3151 H   0  0  0  0  0  0  0  0  0  0  0  0
   44.3766   34.7808   42.2682 H   0  0  0  0  0  0  0  0  0  0  0  0
   47.5708   31.9946   42.6539 H   0  0  0  0  0  0  0  0  0  0  0  0
   49.0062   29.8361   43.3795 H   0  0  0  0  0  0  0  0  0  0  0  0
   44.9916   30.9904   48.3687 H   0  0  0  0  0  0  0  0  0  0  0  0
   44.7125   31.8563   46.8199 H   0  0  0  0  0  0  0  0  0  0  0  0
   44.9842   30.0807   46.8199 H   0  0  0  0  0  0  0  0  0  0  0  0
   47.1798   32.2348   49.0128 H   0  0  0  0  0  0  0  0  0  0  0  0
   48.3257   32.6034   47.6795 H   0  0  0  0  0  0  0  0  0  0  0  0
   46.6837   33.3316   47.6795 H   0  0  0  0  0  0  0  0  0  0  0  0
   47.2628   30.2102   49.0123 H   0  0  0  0  0  0  0  0  0  0  0  0
   46.7945   29.1273   47.6579 H   0  0  0  0  0  0  0  0  0  0  0  0
   48.4064   29.9200   47.6579 H   0  0  0  0  0  0  0  0  0  0  0  0
  1  6  2  0
  2  1  1  0
  3  4  1  0
  3  2  2  0
  4  5  2  0
  5  7  1  0
  5  6  1  0
  7 11  1  0
  8  9  2  0
  8  7  1  0
  9 10  1  0
 10 11  2  0
 11 12  1  0
 12 13  1  0
 12 15  1  0
 12 14  1  0
  1 16  1  0
  2 17  1  0
  3 18  1  0
  8 19  1  0
  9 20  1  0
 13 21  1  0
 13 22  1  0
 13 23  1  0
 14 24  1  0
 14 25  1  0
 14 26  1  0
 15 27  1  0
 15 28  1  0
 15 29  1  0
M  ISO  8  16  14  17  14  18  14  19  14  20  14  21   8  22   8  23   8
M  ISO  6  24   8  25   8  26   8  27   8  28   8  29   8
M  END
>  <minimizedAffinity>  (1) 
-3.70178342

>  <minimizedRMSD>  (1) 
3.20015931

$$$$
