
     RDKit          3D

 25 27  0  0  1  0  0  0  0  0999 V2000
   46.0510   33.2100   41.2200 C   0  0  1  0  0  0  0  0  0  0  0  0
   46.7180   34.5800   41.1240 C   0  0  0  0  0  0  0  0  0  0  0  0
   46.7160   33.8230   42.3830 C   0  0  1  0  0  0  0  0  0  0  0  0
   42.5790   34.1080   40.1320 C   0  0  0  0  0  0  0  0  0  0  0  0
   44.0000   34.1560   40.2480 C   0  0  0  0  0  0  0  0  0  0  0  0
   44.5830   33.2170   41.0740 C   0  0  0  0  0  0  0  0  0  0  0  0
   43.7800   32.3050   41.7230 N   0  0  0  0  0  0  0  0  0  0  0  0
   42.4520   32.2910   41.5880 C   0  0  0  0  0  0  0  0  0  0  0  0
   41.8430   33.1870   40.7960 N   0  0  0  0  0  0  0  0  0  0  0  0
   45.9770   34.3170   43.5730 C   0  0  0  0  0  0  0  0  0  0  0  0
   45.8790   33.6830   44.8170 C   0  0  0  0  0  0  0  0  0  0  0  0
   45.1650   34.2550   45.8470 C   0  0  0  0  0  0  0  0  0  0  0  0
   44.5400   35.4220   45.7180 N   0  0  0  0  0  0  0  0  0  0  0  0
   44.6320   36.0350   44.5240 C   0  0  0  0  0  0  0  0  0  0  0  0
   45.3170   35.5000   43.5110 N   0  0  0  0  0  0  0  0  0  0  0  0
   46.1313   32.2195   40.7484 H   0  0  0  0  0  0  0  0  0  0  0  0
   47.6506   34.7024   40.5537 H   0  0  0  0  0  0  0  0  0  0  0  0
   46.4012   35.5866   40.8135 H   0  0  0  0  0  0  0  0  0  0  0  0
   47.4932   33.4688   43.0763 H   0  0  0  0  0  0  0  0  0  0  0  0
   42.0688   34.8381   39.4865 H   0  0  0  0  0  0  0  0  0  0  0  0
   44.5998   34.9028   39.7071 H   0  0  0  0  0  0  0  0  0  0  0  0
   41.8544   31.5419   42.1282 H   0  0  0  0  0  0  0  0  0  0  0  0
   46.3785   32.7156   44.9742 H   0  0  0  0  0  0  0  0  0  0  0  0
   45.1098   33.7276   46.8108 H   0  0  0  0  0  0  0  0  0  0  0  0
   44.1295   37.0026   44.3787 H   0  0  0  0  0  0  0  0  0  0  0  0
  1  3  1  0
  2  1  1  0
  2  3  1  0
  3 10  1  0
  4  5  2  0
  4  9  1  0
  5  6  1  0
  6  1  1  0
  6  7  2  0
  8  7  1  0
  9  8  2  0
 10 11  2  0
 11 12  1  0
 13 12  2  0
 14 13  1  0
 15 10  1  0
 15 14  2  0
  1 16  1  6
  2 17  1  0
  2 18  1  0
  3 19  1  1
  4 20  1  0
  5 21  1  0
  8 22  1  0
 11 23  1  0
 12 24  1  0
 14 25  1  0
M  ISO  8  16  13  17  13  18  13  19  13  20  14  21  14  22  14  23  14
M  ISO  2  24  14  25  14
M  END
>  <minimizedAffinity>  (1) 
-4.05865049

>  <minimizedRMSD>  (1) 
4.36126232

$$$$
