
     RDKit          3D

 29 30  0  0  0  0  0  0  0  0999 V2000
   44.9300   33.9240   41.6630 N   0  0  0  0  0  0  0  0  0  0  0  0
   43.8930   33.6590   40.9420 N   0  0  0  0  0  0  0  0  0  0  0  0
   44.2300   33.3980   39.6540 C   0  0  0  0  0  0  0  0  0  0  0  0
   45.6250   33.5200   39.5940 C   0  0  0  0  0  0  0  0  0  0  0  0
   46.0200   33.8480   40.8610 C   0  0  0  0  0  0  0  0  0  0  0  0
   44.5300   35.7390   44.8890 C   0  0  0  0  0  0  0  0  0  0  0  0
   44.4750   35.4860   43.4930 C   0  0  0  0  0  0  0  0  0  0  0  0
   44.9430   34.2420   43.0300 C   0  0  0  0  0  0  0  0  0  0  0  0
   45.4140   33.3630   43.9370 N   0  0  0  0  0  0  0  0  0  0  0  0
   45.4560   33.6260   45.2600 C   0  0  0  0  0  0  0  0  0  0  0  0
   45.0220   34.7960   45.7320 N   0  0  0  0  0  0  0  0  0  0  0  0
   47.4500   34.0390   41.0870 C   0  0  0  0  0  0  0  0  0  0  0  0
   48.1920   32.9580   41.7770 C   0  0  0  0  0  0  0  0  0  0  0  0
   47.6130   35.3200   41.8890 C   0  0  0  0  0  0  0  0  0  0  0  0
   48.1730   34.2610   39.7490 C   0  0  0  0  0  0  0  0  0  0  0  0
   43.5495   33.1434   38.8281 H   0  0  0  0  0  0  0  0  0  0  0  0
   46.2675   33.3809   38.7120 H   0  0  0  0  0  0  0  0  0  0  0  0
   44.1735   36.7002   45.2877 H   0  0  0  0  0  0  0  0  0  0  0  0
   44.0791   36.2386   42.7952 H   0  0  0  0  0  0  0  0  0  0  0  0
   45.8511   32.8700   45.9545 H   0  0  0  0  0  0  0  0  0  0  0  0
   48.1023   33.0887   42.8655 H   0  0  0  0  0  0  0  0  0  0  0  0
   47.7718   31.9831   41.4889 H   0  0  0  0  0  0  0  0  0  0  0  0
   49.2528   32.9997   41.4889 H   0  0  0  0  0  0  0  0  0  0  0  0
   47.5833   35.0862   42.9635 H   0  0  0  0  0  0  0  0  0  0  0  0
   48.5778   35.7870   41.6419 H   0  0  0  0  0  0  0  0  0  0  0  0
   46.7959   36.0138   41.6419 H   0  0  0  0  0  0  0  0  0  0  0  0
   49.2085   34.5790   39.9401 H   0  0  0  0  0  0  0  0  0  0  0  0
   48.1776   33.3229   39.1746 H   0  0  0  0  0  0  0  0  0  0  0  0
   47.6503   35.0400   39.1746 H   0  0  0  0  0  0  0  0  0  0  0  0
  1  8  1  0
  2  1  1  0
  3  2  2  0
  4  3  1  0
  4  5  2  0
  5 12  1  0
  5  1  1  0
  6 11  2  0
  7  6  1  0
  8  7  2  0
  8  9  1  0
  9 10  2  0
 10 11  1  0
 12 13  1  0
 12 14  1  0
 15 12  1  0
  3 16  1  0
  4 17  1  0
  6 18  1  0
  7 19  1  0
 10 20  1  0
 13 21  1  0
 13 22  1  0
 13 23  1  0
 14 24  1  0
 14 25  1  0
 14 26  1  0
 15 27  1  0
 15 28  1  0
 15 29  1  0
M  ISO  8  16  14  17  14  18  14  19  14  20  14  21   8  22   8  23   8
M  ISO  6  24   8  25   8  26   8  27   8  28   8  29   8
M  END
>  <minimizedAffinity>  (1) 
-4.12291527

>  <minimizedRMSD>  (1) 
2.40955663

$$$$
