
     RDKit          3D

 33 35  0  0  1  0  0  0  0  0999 V2000
   46.4460   34.4250   41.5900 N   0  0  0  0  0  0  0  0  0  0  0  0
   45.8150   33.9570   40.5520 N   0  0  0  0  0  0  0  0  0  0  0  0
   46.6670   33.7640   39.5090 C   0  0  0  0  0  0  0  0  0  0  0  0
   47.9230   34.1510   39.9650 C   0  0  0  0  0  0  0  0  0  0  0  0
   47.7530   34.5550   41.2580 C   0  0  0  0  0  0  0  0  0  0  0  0
   44.6730   36.1810   44.3460 C   0  0  0  0  0  0  0  0  0  0  0  0
   45.2370   35.9420   43.0700 C   0  0  0  0  0  0  0  0  0  0  0  0
   45.8580   34.7380   42.8430 C   0  0  0  0  0  0  0  0  0  0  0  0
   45.9040   33.8310   43.8500 N   0  0  0  0  0  0  0  0  0  0  0  0
   45.3640   34.0650   45.0690 C   0  0  0  0  0  0  0  0  0  0  0  0
   44.7510   35.2300   45.3230 N   0  0  0  0  0  0  0  0  0  0  0  0
   48.8150   35.0580   42.1620 C   0  0  2  0  0  0  0  0  0  0  0  0
   49.3400   36.3840   41.6390 C   0  0  0  0  0  0  0  0  0  0  0  0
   49.9890   34.1160   42.1880 C   0  0  0  0  0  0  0  0  0  0  0  0
   49.6300   32.7310   42.3080 C   0  0  0  0  0  0  0  0  0  0  0  0
   48.7610   32.0530   43.1880 C   0  0  0  0  0  0  0  0  0  0  0  0
   48.6230   30.7090   43.0510 C   0  0  0  0  0  0  0  0  0  0  0  0
   49.3550   30.0510   42.0320 C   0  0  0  0  0  0  0  0  0  0  0  0
   50.2760   31.5050   41.2650 S   0  0  0  0  0  0  0  0  0  0  0  0
   46.4144   33.3804   38.5095 H   0  0  0  0  0  0  0  0  0  0  0  0
   48.8650   34.1348   39.3972 H   0  0  0  0  0  0  0  0  0  0  0  0
   44.1695   37.1372   44.5517 H   0  0  0  0  0  0  0  0  0  0  0  0
   45.1793   36.7032   42.2780 H   0  0  0  0  0  0  0  0  0  0  0  0
   45.4283   33.2968   45.8537 H   0  0  0  0  0  0  0  0  0  0  0  0
   48.3765   35.1567   43.1660 H   0  0  0  0  0  0  0  0  0  0  0  0
   49.5982   37.0361   42.4864 H   0  0  0  0  0  0  0  0  0  0  0  0
   50.2361   36.2074   41.0259 H   0  0  0  0  0  0  0  0  0  0  0  0
   48.5659   36.8687   41.0259 H   0  0  0  0  0  0  0  0  0  0  0  0
   50.5560   34.2457   41.2544 H   0  0  0  0  0  0  0  0  0  0  0  0
   50.5771   34.3687   43.0826 H   0  0  0  0  0  0  0  0  0  0  0  0
   48.2085   32.5996   43.9664 H   0  0  0  0  0  0  0  0  0  0  0  0
   47.9563   30.1426   43.7178 H   0  0  0  0  0  0  0  0  0  0  0  0
   49.3791   28.9848   41.7627 H   0  0  0  0  0  0  0  0  0  0  0  0
  1  8  1  0
  2  1  1  0
  3  4  1  0
  3  2  2  0
  4  5  2  0
  5  1  1  0
  5 12  1  0
  6 11  2  0
  7  6  1  0
  8  7  2  0
  8  9  1  0
  9 10  2  0
 10 11  1  0
 12 14  1  0
 13 12  1  0
 14 15  1  0
 15 16  2  0
 17 16  1  0
 18 17  2  0
 19 18  1  0
 19 15  1  0
  3 20  1  0
  4 21  1  0
  6 22  1  0
  7 23  1  0
 10 24  1  0
 12 25  1  1
 13 26  1  0
 13 27  1  0
 13 28  1  0
 14 29  1  0
 14 30  1  0
 16 31  1  0
 17 32  1  0
 18 33  1  0
M  ISO  8  20  14  21  14  22  14  23  14  24  14  25   8  26   8  27   8
M  ISO  6  28   8  29   8  30   8  31  14  32  14  33  14
M  END
>  <minimizedAffinity>  (1) 
-5.03838062

>  <minimizedRMSD>  (1) 
0.63690412

$$$$
