
     RDKit          3D

 36 38  0  0  1  0  0  0  0  0999 V2000
   48.8210   35.0720   42.1750 C   0  0  2  0  0  0  0  0  0  0  0  0
   46.4420   34.4210   41.5850 N   0  0  0  0  0  0  0  0  0  0  0  0
   45.8250   33.9550   40.5500 N   0  0  0  0  0  0  0  0  0  0  0  0
   46.6780   33.7680   39.5100 C   0  0  0  0  0  0  0  0  0  0  0  0
   47.9300   34.1620   39.9670 C   0  0  0  0  0  0  0  0  0  0  0  0
   47.7600   34.5670   41.2660 C   0  0  0  0  0  0  0  0  0  0  0  0
   44.6740   36.1820   44.3480 C   0  0  0  0  0  0  0  0  0  0  0  0
   45.2360   35.9370   43.0730 C   0  0  0  0  0  0  0  0  0  0  0  0
   45.8550   34.7320   42.8370 C   0  0  0  0  0  0  0  0  0  0  0  0
   45.9000   33.8330   43.8360 N   0  0  0  0  0  0  0  0  0  0  0  0
   45.3660   34.0570   45.0590 C   0  0  0  0  0  0  0  0  0  0  0  0
   44.7530   35.2250   45.3250 N   0  0  0  0  0  0  0  0  0  0  0  0
   49.3370   36.3950   41.6280 C   0  0  0  0  0  0  0  0  0  0  0  0
   49.9930   34.1420   42.2090 C   0  0  0  0  0  0  0  0  0  0  0  0
   49.6410   32.7430   42.3050 C   0  0  0  0  0  0  0  0  0  0  0  0
   48.7820   32.0640   43.1720 C   0  0  0  0  0  0  0  0  0  0  0  0
   48.6410   30.7320   43.0280 C   0  0  0  0  0  0  0  0  0  0  0  0
   49.3610   30.0710   42.0200 C   0  0  0  0  0  0  0  0  0  0  0  0
   50.2750   31.5020   41.2640 S   0  0  0  0  0  0  0  0  0  0  0  0
   49.4010   28.6730   41.6510 C   0  0  0  0  0  0  0  0  0  0  0  0
   48.3881   35.1696   43.1815 H   0  0  0  0  0  0  0  0  0  0  0  0
   46.4289   33.3832   38.5100 H   0  0  0  0  0  0  0  0  0  0  0  0
   48.8717   34.1511   39.3987 H   0  0  0  0  0  0  0  0  0  0  0  0
   44.1742   37.1399   44.5546 H   0  0  0  0  0  0  0  0  0  0  0  0
   45.1786   36.6993   42.2820 H   0  0  0  0  0  0  0  0  0  0  0  0
   45.4331   33.2827   45.8374 H   0  0  0  0  0  0  0  0  0  0  0  0
   49.5968   37.0611   42.4640 H   0  0  0  0  0  0  0  0  0  0  0  0
   50.2304   36.2138   41.0123 H   0  0  0  0  0  0  0  0  0  0  0  0
   48.5568   36.8665   41.0123 H   0  0  0  0  0  0  0  0  0  0  0  0
   50.5753   34.2881   41.2873 H   0  0  0  0  0  0  0  0  0  0  0  0
   50.5621   34.3863   43.1181 H   0  0  0  0  0  0  0  0  0  0  0  0
   48.2322   32.6054   43.9559 H   0  0  0  0  0  0  0  0  0  0  0  0
   47.9694   30.1686   43.6926 H   0  0  0  0  0  0  0  0  0  0  0  0
   49.4187   28.0541   42.5602 H   0  0  0  0  0  0  0  0  0  0  0  0
   48.5096   28.4252   41.0561 H   0  0  0  0  0  0  0  0  0  0  0  0
   50.3051   28.4765   41.0561 H   0  0  0  0  0  0  0  0  0  0  0  0
  1 14  1  0
  2  9  1  0
  3  2  1  0
  4  5  1  0
  4  3  2  0
  5  6  2  0
  6  2  1  0
  6  1  1  0
  7 12  2  0
  8  7  1  0
  9  8  2  0
  9 10  1  0
 10 11  2  0
 11 12  1  0
 13  1  1  0
 14 15  1  0
 15 16  2  0
 17 16  1  0
 18 17  2  0
 19 18  1  0
 19 15  1  0
 20 18  1  0
  1 21  1  1
  4 22  1  0
  5 23  1  0
  7 24  1  0
  8 25  1  0
 11 26  1  0
 13 27  1  0
 13 28  1  0
 13 29  1  0
 14 30  1  0
 14 31  1  0
 16 32  1  0
 17 33  1  0
 20 34  1  0
 20 35  1  0
 20 36  1  0
M  ISO  8  21   8  22  14  23  14  24  14  25  14  26  14  27   8  28   8
M  ISO  8  29   8  30   8  31   8  32  14  33  14  34   8  35   8  36   8
M  END
>  <minimizedAffinity>  (1) 
-5.08292103

>  <minimizedRMSD>  (1) 
0.0144693693

$$$$
