
     RDKit          3D

 35 37  0  0  1  0  0  0  0  0999 V2000
   48.8130   35.0600   42.1730 C   0  0  2  0  0  0  0  0  0  0  0  0
   46.4450   34.4210   41.5860 N   0  0  0  0  0  0  0  0  0  0  0  0
   45.8250   33.9560   40.5470 N   0  0  0  0  0  0  0  0  0  0  0  0
   46.6780   33.7690   39.5050 C   0  0  0  0  0  0  0  0  0  0  0  0
   47.9310   34.1580   39.9630 C   0  0  0  0  0  0  0  0  0  0  0  0
   47.7550   34.5590   41.2620 C   0  0  0  0  0  0  0  0  0  0  0  0
   44.6760   36.1790   44.3430 C   0  0  0  0  0  0  0  0  0  0  0  0
   45.2360   35.9390   43.0730 C   0  0  0  0  0  0  0  0  0  0  0  0
   45.8570   34.7320   42.8380 C   0  0  0  0  0  0  0  0  0  0  0  0
   45.9000   33.8310   43.8360 N   0  0  0  0  0  0  0  0  0  0  0  0
   45.3620   34.0620   45.0540 C   0  0  0  0  0  0  0  0  0  0  0  0
   44.7500   35.2270   45.3170 N   0  0  0  0  0  0  0  0  0  0  0  0
   49.3400   36.3870   41.6290 C   0  0  0  0  0  0  0  0  0  0  0  0
   49.9820   34.1290   42.1970 C   0  0  0  0  0  0  0  0  0  0  0  0
   49.6360   32.7310   42.2960 C   0  0  0  0  0  0  0  0  0  0  0  0
   48.7830   32.0530   43.1690 C   0  0  0  0  0  0  0  0  0  0  0  0
   48.6560   30.7190   43.0270 C   0  0  0  0  0  0  0  0  0  0  0  0
   49.3750   30.0680   42.0180 C   0  0  0  0  0  0  0  0  0  0  0  0
   50.2740   31.4940   41.2550 S   0  0  0  0  0  0  0  0  0  0  0  0
   49.4020   28.6980   41.6830 N   0  0  0  0  0  0  0  0  0  0  0  0
   48.3770   35.1571   43.1782 H   0  0  0  0  0  0  0  0  0  0  0  0
   46.4275   33.3877   38.5040 H   0  0  0  0  0  0  0  0  0  0  0  0
   48.8742   34.1465   39.3971 H   0  0  0  0  0  0  0  0  0  0  0  0
   44.1773   37.1374   44.5500 H   0  0  0  0  0  0  0  0  0  0  0  0
   45.1785   36.7020   42.2827 H   0  0  0  0  0  0  0  0  0  0  0  0
   45.4262   33.2900   45.8350 H   0  0  0  0  0  0  0  0  0  0  0  0
   49.6028   37.0486   42.4676 H   0  0  0  0  0  0  0  0  0  0  0  0
   50.2331   36.2024   41.0139 H   0  0  0  0  0  0  0  0  0  0  0  0
   48.5636   36.8654   41.0139 H   0  0  0  0  0  0  0  0  0  0  0  0
   50.5561   34.2754   41.2702 H   0  0  0  0  0  0  0  0  0  0  0  0
   50.5556   34.3727   43.1034 H   0  0  0  0  0  0  0  0  0  0  0  0
   48.2297   32.5931   43.9514 H   0  0  0  0  0  0  0  0  0  0  0  0
   47.9951   30.1485   43.6961 H   0  0  0  0  0  0  0  0  0  0  0  0
   49.9897   28.3700   40.9033 H   0  0  0  0  0  0  0  0  0  0  0  0
   48.8340   28.0257   42.2181 H   0  0  0  0  0  0  0  0  0  0  0  0
  1 14  1  0
  2  9  1  0
  3  2  1  0
  4  5  1  0
  4  3  2  0
  5  6  2  0
  6  2  1  0
  6  1  1  0
  7 12  2  0
  8  7  1  0
  9  8  2  0
  9 10  1  0
 10 11  2  0
 11 12  1  0
 13  1  1  0
 14 15  1  0
 15 16  2  0
 17 16  1  0
 18 17  2  0
 19 18  1  0
 19 15  1  0
 20 18  1  0
  1 21  1  1
  4 22  1  0
  5 23  1  0
  7 24  1  0
  8 25  1  0
 11 26  1  0
 13 27  1  0
 13 28  1  0
 13 29  1  0
 14 30  1  0
 14 31  1  0
 16 32  1  0
 17 33  1  0
 20 34  1  0
 20 35  1  0
M  ISO  8  21   8  22  14  23  14  24  14  25  14  26  14  27   8  28   8
M  ISO  5  29   8  30   8  31   8  32  14  33  14
M  END
>  <minimizedAffinity>  (1) 
-5.07553482

>  <minimizedRMSD>  (1) 
0.0148403468

$$$$
