
     RDKit          3D

 46 49  0  0  1  0  0  0  0  0999 V2000
   48.8420   35.1530   42.1870 C   0  0  2  0  0  0  0  0  0  0  0  0
   46.4910   34.4180   41.6020 N   0  0  0  0  0  0  0  0  0  0  0  0
   45.8900   33.9120   40.5680 N   0  0  0  0  0  0  0  0  0  0  0  0
   46.7570   33.7390   39.5340 C   0  0  0  0  0  0  0  0  0  0  0  0
   48.0000   34.1810   39.9850 C   0  0  0  0  0  0  0  0  0  0  0  0
   47.7980   34.5980   41.2780 C   0  0  0  0  0  0  0  0  0  0  0  0
   44.6680   36.1670   44.3360 C   0  0  0  0  0  0  0  0  0  0  0  0
   45.2470   35.9310   43.0580 C   0  0  0  0  0  0  0  0  0  0  0  0
   45.8880   34.7290   42.8460 C   0  0  0  0  0  0  0  0  0  0  0  0
   45.9390   33.8340   43.8500 N   0  0  0  0  0  0  0  0  0  0  0  0
   45.3870   34.0650   45.0640 C   0  0  0  0  0  0  0  0  0  0  0  0
   44.7530   35.2210   45.3140 N   0  0  0  0  0  0  0  0  0  0  0  0
   49.3000   36.5010   41.6310 C   0  0  0  0  0  0  0  0  0  0  0  0
   50.0540   34.2780   42.2230 C   0  0  0  0  0  0  0  0  0  0  0  0
   49.7650   32.8710   42.2910 C   0  0  0  0  0  0  0  0  0  0  0  0
   48.8930   32.1380   43.0980 C   0  0  0  0  0  0  0  0  0  0  0  0
   48.8260   30.8020   42.9390 C   0  0  0  0  0  0  0  0  0  0  0  0
   49.6360   30.1890   41.9680 C   0  0  0  0  0  0  0  0  0  0  0  0
   50.5160   31.6640   41.2810 S   0  0  0  0  0  0  0  0  0  0  0  0
   49.7760   28.8160   41.5820 C   0  0  0  0  0  0  0  0  0  0  0  0
   51.1610   28.3550   41.9060 C   0  0  0  0  0  0  0  0  0  0  0  0
   51.9220   28.2780   40.6150 C   0  0  0  0  0  0  0  0  0  0  0  0
   50.9240   28.3420   39.4990 C   0  0  0  0  0  0  0  0  0  0  0  0
   49.5720   28.5390   40.1110 C   0  0  0  0  0  0  0  0  0  0  0  0
   48.4068   35.2329   43.1941 H   0  0  0  0  0  0  0  0  0  0  0  0
   46.5236   33.3313   38.5394 H   0  0  0  0  0  0  0  0  0  0  0  0
   48.9453   34.1932   39.4226 H   0  0  0  0  0  0  0  0  0  0  0  0
   44.1497   37.1165   44.5358 H   0  0  0  0  0  0  0  0  0  0  0  0
   45.1849   36.6867   42.2611 H   0  0  0  0  0  0  0  0  0  0  0  0
   45.4586   33.2999   45.8511 H   0  0  0  0  0  0  0  0  0  0  0  0
   49.5312   37.1816   42.4637 H   0  0  0  0  0  0  0  0  0  0  0  0
   50.1996   36.3568   41.0146 H   0  0  0  0  0  0  0  0  0  0  0  0
   48.4988   36.9347   41.0146 H   0  0  0  0  0  0  0  0  0  0  0  0
   50.6417   34.4656   41.3123 H   0  0  0  0  0  0  0  0  0  0  0  0
   50.5998   34.5328   43.1434 H   0  0  0  0  0  0  0  0  0  0  0  0
   48.2708   32.6431   43.8514 H   0  0  0  0  0  0  0  0  0  0  0  0
   48.1470   30.1996   43.5603 H   0  0  0  0  0  0  0  0  0  0  0  0
   48.9876   28.2858   42.1364 H   0  0  0  0  0  0  0  0  0  0  0  0
   51.6460   29.0707   42.5862 H   0  0  0  0  0  0  0  0  0  0  0  0
   51.1375   27.3735   42.4020 H   0  0  0  0  0  0  0  0  0  0  0  0
   52.6226   29.1228   40.5411 H   0  0  0  0  0  0  0  0  0  0  0  0
   52.5023   27.3450   40.5626 H   0  0  0  0  0  0  0  0  0  0  0  0
   50.9427   27.4039   38.9249 H   0  0  0  0  0  0  0  0  0  0  0  0
   51.1624   29.1696   38.8147 H   0  0  0  0  0  0  0  0  0  0  0  0
   49.0648   29.3912   39.6351 H   0  0  0  0  0  0  0  0  0  0  0  0
   48.9477   27.6447   39.9679 H   0  0  0  0  0  0  0  0  0  0  0  0
  1 14  1  0
  2  9  1  0
  3  2  1  0
  4  5  1  0
  4  3  2  0
  5  6  2  0
  6  2  1  0
  6  1  1  0
  7 12  2  0
  8  7  1  0
  9  8  2  0
  9 10  1  0
 10 11  2  0
 11 12  1  0
 13  1  1  0
 14 15  1  0
 15 16  2  0
 17 16  1  0
 18 17  2  0
 19 18  1  0
 19 15  1  0
 20 21  1  0
 20 18  1  0
 22 21  1  0
 23 24  1  0
 23 22  1  0
 24 20  1  0
  1 25  1  1
  4 26  1  0
  5 27  1  0
  7 28  1  0
  8 29  1  0
 11 30  1  0
 13 31  1  0
 13 32  1  0
 13 33  1  0
 14 34  1  0
 14 35  1  0
 16 36  1  0
 17 37  1  0
 20 38  1  0
 21 39  1  0
 21 40  1  0
 22 41  1  0
 22 42  1  0
 23 43  1  0
 23 44  1  0
 24 45  1  0
 24 46  1  0
M  ISO  8  25   8  26  14  27  14  28  14  29  14  30  14  31   8  32   8
M  ISO  8  33   8  34   8  35   8  36  14  37  14  38  13  39  13  40  13
M  ISO  6  41  13  42  13  43  13  44  13  45  13  46  13
M  END
>  <minimizedAffinity>  (1) 
-5.04124498

>  <minimizedRMSD>  (1) 
0.416694313

$$$$
