
     RDKit          3D

 43 46  0  0  1  0  0  0  0  0999 V2000
   48.8400   35.1530   42.1850 C   0  0  2  0  0  0  0  0  0  0  0  0
   46.4940   34.4190   41.5960 N   0  0  0  0  0  0  0  0  0  0  0  0
   45.8920   33.9120   40.5620 N   0  0  0  0  0  0  0  0  0  0  0  0
   46.7610   33.7370   39.5290 C   0  0  0  0  0  0  0  0  0  0  0  0
   47.9960   34.1800   39.9870 C   0  0  0  0  0  0  0  0  0  0  0  0
   47.8010   34.5990   41.2760 C   0  0  0  0  0  0  0  0  0  0  0  0
   44.6710   36.1730   44.3270 C   0  0  0  0  0  0  0  0  0  0  0  0
   45.2500   35.9320   43.0590 C   0  0  0  0  0  0  0  0  0  0  0  0
   45.8890   34.7320   42.8400 C   0  0  0  0  0  0  0  0  0  0  0  0
   45.9350   33.8370   43.8430 N   0  0  0  0  0  0  0  0  0  0  0  0
   45.3800   34.0710   45.0550 C   0  0  0  0  0  0  0  0  0  0  0  0
   44.7500   35.2280   45.3040 N   0  0  0  0  0  0  0  0  0  0  0  0
   49.3030   36.4980   41.6230 C   0  0  0  0  0  0  0  0  0  0  0  0
   50.0430   34.2750   42.2280 C   0  0  0  0  0  0  0  0  0  0  0  0
   49.7650   32.8660   42.2980 C   0  0  0  0  0  0  0  0  0  0  0  0
   48.8770   32.1460   43.1010 C   0  0  0  0  0  0  0  0  0  0  0  0
   48.8230   30.8060   42.9530 C   0  0  0  0  0  0  0  0  0  0  0  0
   49.6460   30.1810   42.0100 C   0  0  0  0  0  0  0  0  0  0  0  0
   50.5430   31.6580   41.3140 S   0  0  0  0  0  0  0  0  0  0  0  0
   49.8000   28.8710   41.6510 N   0  0  0  0  0  0  0  0  0  0  0  0
   48.9970   28.2940   40.7190 C   0  0  0  0  0  0  0  0  0  0  0  0
   49.2260   26.9500   40.4130 C   0  0  0  0  0  0  0  0  0  0  0  0
   50.2440   26.2790   41.0630 C   0  0  0  0  0  0  0  0  0  0  0  0
   50.5260   25.0510   40.8470 O   0  0  0  0  0  0  0  0  0  0  0  0
   51.0420   26.8470   41.9860 N   0  0  0  0  0  0  0  0  0  0  0  0
   50.7920   28.1540   42.2590 C   0  0  0  0  0  0  0  0  0  0  0  0
   51.5330   28.7200   43.1310 O   0  0  0  0  0  0  0  0  0  0  0  0
   48.4039   35.2402   43.1911 H   0  0  0  0  0  0  0  0  0  0  0  0
   46.5322   33.3280   38.5338 H   0  0  0  0  0  0  0  0  0  0  0  0
   48.9420   34.1917   39.4257 H   0  0  0  0  0  0  0  0  0  0  0  0
   44.1563   37.1250   44.5239 H   0  0  0  0  0  0  0  0  0  0  0  0
   45.1909   36.6889   42.2630 H   0  0  0  0  0  0  0  0  0  0  0  0
   45.4463   33.3056   45.8423 H   0  0  0  0  0  0  0  0  0  0  0  0
   49.5380   37.1808   42.4528 H   0  0  0  0  0  0  0  0  0  0  0  0
   50.2012   36.3479   41.0060 H   0  0  0  0  0  0  0  0  0  0  0  0
   48.5027   36.9326   41.0060 H   0  0  0  0  0  0  0  0  0  0  0  0
   50.6341   34.4614   41.3192 H   0  0  0  0  0  0  0  0  0  0  0  0
   50.5762   34.5295   43.1558 H   0  0  0  0  0  0  0  0  0  0  0  0
   48.2381   32.6585   43.8352 H   0  0  0  0  0  0  0  0  0  0  0  0
   48.1359   30.2085   43.5702 H   0  0  0  0  0  0  0  0  0  0  0  0
   48.1967   28.8636   40.2240 H   0  0  0  0  0  0  0  0  0  0  0  0
   48.6052   26.4339   39.6659 H   0  0  0  0  0  0  0  0  0  0  0  0
   51.7947   26.3238   42.4557 H   0  0  0  0  0  0  0  0  0  0  0  0
  1 14  1  0
  2  9  1  0
  3  2  1  0
  4  5  1  0
  4  3  2  0
  5  6  2  0
  6  2  1  0
  6  1  1  0
  7 12  2  0
  8  7  1  0
  9  8  2  0
  9 10  1  0
 10 11  2  0
 11 12  1  0
 13  1  1  0
 14 15  1  0
 15 16  2  0
 17 16  1  0
 18 17  2  0
 19 18  1  0
 19 15  1  0
 20 18  1  0
 20 26  1  0
 21 20  1  0
 22 21  2  0
 22 23  1  0
 23 25  1  0
 24 23  2  0
 25 26  1  0
 26 27  2  0
  1 28  1  1
  4 29  1  0
  5 30  1  0
  7 31  1  0
  8 32  1  0
 11 33  1  0
 13 34  1  0
 13 35  1  0
 13 36  1  0
 14 37  1  0
 14 38  1  0
 16 39  1  0
 17 40  1  0
 21 41  1  0
 22 42  1  0
 25 43  1  0
M  ISO  8  28   8  29  14  30  14  31  14  32  14  33  14  34   8  35   8
M  ISO  8  36   8  37   8  38   8  39  14  40  14  41  14  42  14  43   9
M  END
>  <minimizedAffinity>  (1) 
-5.01768208

>  <minimizedRMSD>  (1) 
1.00443745

$$$$
