
     RDKit          3D

 44 47  0  0  1  0  0  0  0  0999 V2000
   48.8270   35.1440   42.1800 C   0  0  2  0  0  0  0  0  0  0  0  0
   46.4810   34.4230   41.5950 N   0  0  0  0  0  0  0  0  0  0  0  0
   45.8720   33.9240   40.5630 N   0  0  0  0  0  0  0  0  0  0  0  0
   46.7320   33.7460   39.5270 C   0  0  0  0  0  0  0  0  0  0  0  0
   47.9810   34.1800   39.9740 C   0  0  0  0  0  0  0  0  0  0  0  0
   47.7830   34.5950   41.2680 C   0  0  0  0  0  0  0  0  0  0  0  0
   44.6710   36.1810   44.3320 C   0  0  0  0  0  0  0  0  0  0  0  0
   45.2480   35.9380   43.0620 C   0  0  0  0  0  0  0  0  0  0  0  0
   45.8800   34.7340   42.8380 C   0  0  0  0  0  0  0  0  0  0  0  0
   45.9190   33.8420   43.8430 N   0  0  0  0  0  0  0  0  0  0  0  0
   45.3730   34.0650   45.0590 C   0  0  0  0  0  0  0  0  0  0  0  0
   44.7500   35.2290   45.3100 N   0  0  0  0  0  0  0  0  0  0  0  0
   49.3040   36.4790   41.6080 C   0  0  0  0  0  0  0  0  0  0  0  0
   50.0190   34.2470   42.2150 C   0  0  0  0  0  0  0  0  0  0  0  0
   49.7140   32.8380   42.3320 C   0  0  0  0  0  0  0  0  0  0  0  0
   48.8420   32.1550   43.1820 C   0  0  0  0  0  0  0  0  0  0  0  0
   48.7610   30.8150   43.0720 C   0  0  0  0  0  0  0  0  0  0  0  0
   49.5600   30.1720   42.1060 C   0  0  0  0  0  0  0  0  0  0  0  0
   50.4370   31.6080   41.3600 S   0  0  0  0  0  0  0  0  0  0  0  0
   49.6260   28.7690   41.8270 N   0  0  0  0  0  0  0  0  0  0  0  0
   48.6710   28.2660   41.0530 C   0  0  0  0  0  0  0  0  0  0  0  0
   48.7240   26.9140   40.7760 C   0  0  0  0  0  0  0  0  0  0  0  0
   49.7740   26.1900   41.3300 C   0  0  0  0  0  0  0  0  0  0  0  0
   49.8140   24.7990   41.0340 N   0  0  0  0  0  0  0  0  0  0  0  0
   50.7140   26.7910   42.1160 N   0  0  0  0  0  0  0  0  0  0  0  0
   50.6410   28.1300   42.3760 C   0  0  0  0  0  0  0  0  0  0  0  0
   51.5000   28.6950   43.0990 O   0  0  0  0  0  0  0  0  0  0  0  0
   48.3971   35.2445   43.1875 H   0  0  0  0  0  0  0  0  0  0  0  0
   46.4919   33.3404   38.5331 H   0  0  0  0  0  0  0  0  0  0  0  0
   48.9248   34.1879   39.4090 H   0  0  0  0  0  0  0  0  0  0  0  0
   44.1599   37.1344   44.5314 H   0  0  0  0  0  0  0  0  0  0  0  0
   45.1928   36.6971   42.2679 H   0  0  0  0  0  0  0  0  0  0  0  0
   45.4384   33.2951   45.8419 H   0  0  0  0  0  0  0  0  0  0  0  0
   49.5490   37.1646   42.4326 H   0  0  0  0  0  0  0  0  0  0  0  0
   50.1989   36.3143   40.9899 H   0  0  0  0  0  0  0  0  0  0  0  0
   48.5073   36.9187   40.9899 H   0  0  0  0  0  0  0  0  0  0  0  0
   50.5884   34.3980   41.2860 H   0  0  0  0  0  0  0  0  0  0  0  0
   50.5842   34.5178   43.1190 H   0  0  0  0  0  0  0  0  0  0  0  0
   48.2364   32.6976   43.9229 H   0  0  0  0  0  0  0  0  0  0  0  0
   48.0871   30.2365   43.7209 H   0  0  0  0  0  0  0  0  0  0  0  0
   47.8693   28.9013   40.6485 H   0  0  0  0  0  0  0  0  0  0  0  0
   47.9662   26.4295   40.1427 H   0  0  0  0  0  0  0  0  0  0  0  0
   50.5691   24.2125   41.4171 H   0  0  0  0  0  0  0  0  0  0  0  0
   49.0879   24.3785   40.4366 H   0  0  0  0  0  0  0  0  0  0  0  0
  1 14  1  0
  2  9  1  0
  3  2  1  0
  4  5  1  0
  4  3  2  0
  5  6  2  0
  6  2  1  0
  6  1  1  0
  7 12  2  0
  8  7  1  0
  9  8  2  0
  9 10  1  0
 10 11  2  0
 11 12  1  0
 13  1  1  0
 14 15  1  0
 15 16  2  0
 17 16  1  0
 18 17  2  0
 19 18  1  0
 19 15  1  0
 20 18  1  0
 20 26  1  0
 21 20  1  0
 22 21  2  0
 22 23  1  0
 23 25  2  0
 24 23  1  0
 25 26  1  0
 26 27  2  0
  1 28  1  1
  4 29  1  0
  5 30  1  0
  7 31  1  0
  8 32  1  0
 11 33  1  0
 13 34  1  0
 13 35  1  0
 13 36  1  0
 14 37  1  0
 14 38  1  0
 16 39  1  0
 17 40  1  0
 21 41  1  0
 22 42  1  0
 24 43  1  0
 24 44  1  0
M  ISO  8  28   8  29  14  30  14  31  14  32  14  33  14  34   8  35   8
M  ISO  7  36   8  37   8  38   8  39  14  40  14  41  14  42  14
M  END
>  <minimizedAffinity>  (1) 
-4.96985388

>  <minimizedRMSD>  (1) 
0.349372029

$$$$
