
     RDKit          3D

 43 46  0  0  1  0  0  0  0  0999 V2000
   48.8280   35.1580   42.1820 C   0  0  2  0  0  0  0  0  0  0  0  0
   46.4750   34.4200   41.5950 N   0  0  0  0  0  0  0  0  0  0  0  0
   45.8780   33.9140   40.5640 N   0  0  0  0  0  0  0  0  0  0  0  0
   46.7430   33.7370   39.5300 C   0  0  0  0  0  0  0  0  0  0  0  0
   47.9840   34.1820   39.9800 C   0  0  0  0  0  0  0  0  0  0  0  0
   47.7900   34.6030   41.2740 C   0  0  0  0  0  0  0  0  0  0  0  0
   44.6700   36.1790   44.3360 C   0  0  0  0  0  0  0  0  0  0  0  0
   45.2440   35.9380   43.0630 C   0  0  0  0  0  0  0  0  0  0  0  0
   45.8740   34.7330   42.8410 C   0  0  0  0  0  0  0  0  0  0  0  0
   45.9180   33.8360   43.8440 N   0  0  0  0  0  0  0  0  0  0  0  0
   45.3680   34.0710   45.0570 C   0  0  0  0  0  0  0  0  0  0  0  0
   44.7460   35.2330   45.3090 N   0  0  0  0  0  0  0  0  0  0  0  0
   49.3110   36.4870   41.5970 C   0  0  0  0  0  0  0  0  0  0  0  0
   50.0280   34.2710   42.2430 C   0  0  0  0  0  0  0  0  0  0  0  0
   49.7200   32.8590   42.3360 C   0  0  0  0  0  0  0  0  0  0  0  0
   48.8380   32.1560   43.1580 C   0  0  0  0  0  0  0  0  0  0  0  0
   48.7550   30.8200   43.0220 C   0  0  0  0  0  0  0  0  0  0  0  0
   49.5480   30.1810   42.0710 C   0  0  0  0  0  0  0  0  0  0  0  0
   50.4540   31.6290   41.3470 S   0  0  0  0  0  0  0  0  0  0  0  0
   49.7310   28.8000   41.6460 C   0  0  0  0  0  0  0  0  0  0  0  0
   48.6680   27.9600   41.7010 C   0  0  0  0  0  0  0  0  0  0  0  0
   48.9450   26.6550   41.2710 C   0  0  0  0  0  0  0  0  0  0  0  0
   50.2180   26.2930   40.8310 C   0  0  0  0  0  0  0  0  0  0  0  0
   51.2610   27.2260   40.8070 C   0  0  0  0  0  0  0  0  0  0  0  0
   51.0160   28.5400   41.2310 C   0  0  0  0  0  0  0  0  0  0  0  0
   48.3853   35.2619   43.1836 H   0  0  0  0  0  0  0  0  0  0  0  0
   46.5096   33.3250   38.5371 H   0  0  0  0  0  0  0  0  0  0  0  0
   48.9275   34.1940   39.4146 H   0  0  0  0  0  0  0  0  0  0  0  0
   44.1619   37.1336   44.5371 H   0  0  0  0  0  0  0  0  0  0  0  0
   45.1878   36.6970   42.2688 H   0  0  0  0  0  0  0  0  0  0  0  0
   45.4310   33.3039   45.8429 H   0  0  0  0  0  0  0  0  0  0  0  0
   49.5622   37.1781   42.4152 H   0  0  0  0  0  0  0  0  0  0  0  0
   50.2031   36.3123   40.9777 H   0  0  0  0  0  0  0  0  0  0  0  0
   48.5149   36.9259   40.9777 H   0  0  0  0  0  0  0  0  0  0  0  0
   50.6242   34.4346   41.3331 H   0  0  0  0  0  0  0  0  0  0  0  0
   50.5704   34.5368   43.1623 H   0  0  0  0  0  0  0  0  0  0  0  0
   48.2231   32.6835   43.9020 H   0  0  0  0  0  0  0  0  0  0  0  0
   48.0685   30.2384   43.6548 H   0  0  0  0  0  0  0  0  0  0  0  0
   47.6745   28.2753   42.0526 H   0  0  0  0  0  0  0  0  0  0  0  0
   48.1431   25.9021   41.2808 H   0  0  0  0  0  0  0  0  0  0  0  0
   50.4047   25.2612   40.4986 H   0  0  0  0  0  0  0  0  0  0  0  0
   52.2622   26.9317   40.4593 H   0  0  0  0  0  0  0  0  0  0  0  0
   51.7999   29.3117   41.2316 H   0  0  0  0  0  0  0  0  0  0  0  0
  1 14  1  0
  2  9  1  0
  3  2  1  0
  4  5  1  0
  4  3  2  0
  5  6  2  0
  6  2  1  0
  6  1  1  0
  7 12  2  0
  8  7  1  0
  9  8  2  0
  9 10  1  0
 10 11  2  0
 11 12  1  0
 13  1  1  0
 14 15  1  0
 15 16  2  0
 17 16  1  0
 18 17  2  0
 19 18  1  0
 19 15  1  0
 20 21  2  0
 20 18  1  0
 22 21  1  0
 23 22  2  0
 24 23  1  0
 24 25  2  0
 25 20  1  0
  1 26  1  1
  4 27  1  0
  5 28  1  0
  7 29  1  0
  8 30  1  0
 11 31  1  0
 13 32  1  0
 13 33  1  0
 13 34  1  0
 14 35  1  0
 14 36  1  0
 16 37  1  0
 17 38  1  0
 21 39  1  0
 22 40  1  0
 23 41  1  0
 24 42  1  0
 25 43  1  0
M  ISO  8  26   8  27  14  28  14  29  14  30  14  31  14  32   8  33   8
M  ISO  8  34   8  35   8  36   8  37  14  38  14  39  14  40  14  41  14
M  ISO  2  42  14  43  14
M  END
>  <minimizedAffinity>  (1) 
-4.96050406

>  <minimizedRMSD>  (1) 
0.226056382

$$$$
