
     RDKit          3D

 40 43  0  0  1  0  0  0  0  0999 V2000
   47.8930   34.8310   42.4710 C   0  0  1  0  0  0  0  0  0  0  0  0
   46.4980   35.0310   41.9370 C   0  0  0  0  0  0  0  0  0  0  0  0
   46.6810   34.5580   43.2970 C   0  0  1  0  0  0  0  0  0  0  0  0
   46.3080   33.1810   43.7290 C   0  0  0  0  0  0  0  0  0  0  0  0
   45.6330   32.2260   42.9630 C   0  0  0  0  0  0  0  0  0  0  0  0
   45.3770   30.9870   43.4790 C   0  0  0  0  0  0  0  0  0  0  0  0
   45.7480   30.6340   44.7040 N   0  0  0  0  0  0  0  0  0  0  0  0
   46.3950   31.5440   45.4390 C   0  0  0  0  0  0  0  0  0  0  0  0
   46.6620   32.7690   44.9640 N   0  0  0  0  0  0  0  0  0  0  0  0
   46.8400   31.2740   46.7680 N   0  0  0  0  0  0  0  0  0  0  0  0
   47.2560   32.3120   47.6990 C   0  0  0  0  0  0  0  0  0  0  0  0
   48.1260   31.7910   48.7920 C   0  0  0  0  0  0  0  0  0  0  0  0
   48.9650   30.6070   48.4700 C   0  0  0  0  0  0  0  0  0  0  0  0
   48.4250   29.6910   47.4210 C   0  0  0  0  0  0  0  0  0  0  0  0
   46.9300   29.9380   47.3400 C   0  0  0  0  0  0  0  0  0  0  0  0
   49.2080   32.3260   40.0330 C   0  0  0  0  0  0  0  0  0  0  0  0
   48.4070   33.3750   40.5820 C   0  0  0  0  0  0  0  0  0  0  0  0
   48.6990   33.7570   41.8850 C   0  0  0  0  0  0  0  0  0  0  0  0
   49.7050   33.1370   42.5720 N   0  0  0  0  0  0  0  0  0  0  0  0
   50.4360   32.1520   42.0200 C   0  0  0  0  0  0  0  0  0  0  0  0
   50.1980   31.7420   40.7570 N   0  0  0  0  0  0  0  0  0  0  0  0
   48.8023   35.4306   42.6246 H   0  0  0  0  0  0  0  0  0  0  0  0
   46.1205   36.0482   41.7562 H   0  0  0  0  0  0  0  0  0  0  0  0
   45.9454   34.6674   41.0581 H   0  0  0  0  0  0  0  0  0  0  0  0
   46.3239   34.8978   44.2804 H   0  0  0  0  0  0  0  0  0  0  0  0
   45.3070   32.4728   41.9418 H   0  0  0  0  0  0  0  0  0  0  0  0
   44.8433   30.2542   42.8559 H   0  0  0  0  0  0  0  0  0  0  0  0
   47.8124   33.0809   47.1429 H   0  0  0  0  0  0  0  0  0  0  0  0
   46.3483   32.7231   48.1649 H   0  0  0  0  0  0  0  0  0  0  0  0
   48.8005   32.6044   49.0976 H   0  0  0  0  0  0  0  0  0  0  0  0
   47.4332   31.4501   49.5755 H   0  0  0  0  0  0  0  0  0  0  0  0
   49.9448   30.9713   48.1275 H   0  0  0  0  0  0  0  0  0  0  0  0
   49.0058   30.0109   49.3936 H   0  0  0  0  0  0  0  0  0  0  0  0
   48.8965   29.9083   46.4512 H   0  0  0  0  0  0  0  0  0  0  0  0
   48.6354   28.6409   47.6720 H   0  0  0  0  0  0  0  0  0  0  0  0
   46.4709   29.9057   48.3391 H   0  0  0  0  0  0  0  0  0  0  0  0
   46.4007   29.1792   46.7450 H   0  0  0  0  0  0  0  0  0  0  0  0
   49.0191   31.9851   39.0044 H   0  0  0  0  0  0  0  0  0  0  0  0
   47.6029   33.8537   40.0038 H   0  0  0  0  0  0  0  0  0  0  0  0
   51.2366   31.6756   42.6048 H   0  0  0  0  0  0  0  0  0  0  0  0
  1  3  1  0
  2  1  1  0
  2  3  1  0
  3  4  1  0
  4  9  2  0
  5  6  2  0
  5  4  1  0
  6  7  1  0
  7  8  2  0
  8 10  1  0
  9  8  1  0
 10 15  1  0
 10 11  1  0
 11 12  1  0
 13 12  1  0
 14 13  1  0
 15 14  1  0
 16 17  2  0
 16 21  1  0
 17 18  1  0
 18  1  1  0
 18 19  2  0
 20 19  1  0
 21 20  2  0
  1 22  1  1
  2 23  1  0
  2 24  1  0
  3 25  1  1
  5 26  1  0
  6 27  1  0
 11 28  1  0
 11 29  1  0
 12 30  1  0
 12 31  1  0
 13 32  1  0
 13 33  1  0
 14 34  1  0
 14 35  1  0
 15 36  1  0
 15 37  1  0
 16 38  1  0
 17 39  1  0
 20 40  1  0
M  ISO  8  22  13  23  13  24  13  25  13  26  14  27  14  28  13  29  13
M  ISO  8  30  13  31  13  32  13  33  13  34  13  35  13  36  13  37  13
M  ISO  3  38  14  39  14  40  14
M  END
>  <minimizedAffinity>  (1) 
-4.78218603

>  <minimizedRMSD>  (1) 
6.57007265

$$$$
