
     RDKit          3D

 41 44  0  0  1  0  0  0  0  0999 V2000
   48.8360   35.1540   42.1870 C   0  0  2  0  0  0  0  0  0  0  0  0
   46.4920   34.4180   41.6010 N   0  0  0  0  0  0  0  0  0  0  0  0
   45.8940   33.9100   40.5680 N   0  0  0  0  0  0  0  0  0  0  0  0
   46.7580   33.7340   39.5340 C   0  0  0  0  0  0  0  0  0  0  0  0
   48.0000   34.1800   39.9900 C   0  0  0  0  0  0  0  0  0  0  0  0
   47.8040   34.6010   41.2840 C   0  0  0  0  0  0  0  0  0  0  0  0
   44.6710   36.1720   44.3210 C   0  0  0  0  0  0  0  0  0  0  0  0
   45.2450   35.9320   43.0620 C   0  0  0  0  0  0  0  0  0  0  0  0
   45.8850   34.7300   42.8450 C   0  0  0  0  0  0  0  0  0  0  0  0
   45.9330   33.8360   43.8490 N   0  0  0  0  0  0  0  0  0  0  0  0
   45.3780   34.0700   45.0600 C   0  0  0  0  0  0  0  0  0  0  0  0
   44.7490   35.2280   45.3070 N   0  0  0  0  0  0  0  0  0  0  0  0
   49.2980   36.5010   41.6350 C   0  0  0  0  0  0  0  0  0  0  0  0
   50.0470   34.2810   42.2230 C   0  0  0  0  0  0  0  0  0  0  0  0
   49.7640   32.8670   42.2950 C   0  0  0  0  0  0  0  0  0  0  0  0
   48.8800   32.1470   43.1040 C   0  0  0  0  0  0  0  0  0  0  0  0
   48.8250   30.8100   42.9570 C   0  0  0  0  0  0  0  0  0  0  0  0
   49.6490   30.1860   42.0080 C   0  0  0  0  0  0  0  0  0  0  0  0
   50.5380   31.6550   41.3090 S   0  0  0  0  0  0  0  0  0  0  0  0
   49.8020   28.8110   41.6410 C   0  0  0  0  0  0  0  0  0  0  0  0
   48.7750   27.8920   41.7130 C   0  0  0  0  0  0  0  0  0  0  0  0
   49.0860   26.6070   41.3230 C   0  0  0  0  0  0  0  0  0  0  0  0
   50.3100   26.2490   40.8960 N   0  0  0  0  0  0  0  0  0  0  0  0
   51.2880   27.1640   40.8370 C   0  0  0  0  0  0  0  0  0  0  0  0
   51.0190   28.4260   41.2100 N   0  0  0  0  0  0  0  0  0  0  0  0
   48.3957   35.2352   43.1917 H   0  0  0  0  0  0  0  0  0  0  0  0
   46.5261   33.3237   38.5401 H   0  0  0  0  0  0  0  0  0  0  0  0
   48.9451   34.1921   39.4272 H   0  0  0  0  0  0  0  0  0  0  0  0
   44.1560   37.1244   44.5149 H   0  0  0  0  0  0  0  0  0  0  0  0
   45.1853   36.6877   42.2649 H   0  0  0  0  0  0  0  0  0  0  0  0
   45.4431   33.3050   45.8477 H   0  0  0  0  0  0  0  0  0  0  0  0
   49.5305   37.1789   42.4695 H   0  0  0  0  0  0  0  0  0  0  0  0
   50.1977   36.3557   41.0190 H   0  0  0  0  0  0  0  0  0  0  0  0
   48.4985   36.9385   41.0190 H   0  0  0  0  0  0  0  0  0  0  0  0
   50.6326   34.4681   41.3109 H   0  0  0  0  0  0  0  0  0  0  0  0
   50.5909   34.5384   43.1438 H   0  0  0  0  0  0  0  0  0  0  0  0
   48.2456   32.6599   43.8419 H   0  0  0  0  0  0  0  0  0  0  0  0
   48.1399   30.2117   43.5756 H   0  0  0  0  0  0  0  0  0  0  0  0
   47.7687   28.1683   42.0607 H   0  0  0  0  0  0  0  0  0  0  0  0
   48.2981   25.8404   41.3628 H   0  0  0  0  0  0  0  0  0  0  0  0
   52.2938   26.8860   40.4890 H   0  0  0  0  0  0  0  0  0  0  0  0
  1 14  1  0
  2  9  1  0
  3  2  1  0
  4  5  1  0
  4  3  2  0
  5  6  2  0
  6  2  1  0
  6  1  1  0
  7 12  2  0
  8  7  1  0
  9  8  2  0
  9 10  1  0
 10 11  2  0
 11 12  1  0
 13  1  1  0
 14 15  1  0
 15 16  2  0
 17 16  1  0
 18 17  2  0
 19 18  1  0
 19 15  1  0
 20 21  2  0
 20 18  1  0
 22 21  1  0
 23 22  2  0
 24 23  1  0
 24 25  2  0
 25 20  1  0
  1 26  1  1
  4 27  1  0
  5 28  1  0
  7 29  1  0
  8 30  1  0
 11 31  1  0
 13 32  1  0
 13 33  1  0
 13 34  1  0
 14 35  1  0
 14 36  1  0
 16 37  1  0
 17 38  1  0
 21 39  1  0
 22 40  1  0
 24 41  1  0
M  ISO  8  26   8  27  14  28  14  29  14  30  14  31  14  32   8  33   8
M  ISO  8  34   8  35   8  36   8  37  14  38  14  39  14  40  14  41  14
M  END
>  <minimizedAffinity>  (1) 
-4.9586997

>  <minimizedRMSD>  (1) 
0.294515789

$$$$
