
     RDKit          3D

 39 42  0  0  1  0  0  0  0  0999 V2000
   48.8290   35.1640   42.1730 C   0  0  2  0  0  0  0  0  0  0  0  0
   46.4790   34.4250   41.5990 N   0  0  0  0  0  0  0  0  0  0  0  0
   45.8740   33.9150   40.5680 N   0  0  0  0  0  0  0  0  0  0  0  0
   46.7360   33.7380   39.5330 C   0  0  0  0  0  0  0  0  0  0  0  0
   47.9790   34.1810   39.9800 C   0  0  0  0  0  0  0  0  0  0  0  0
   47.7850   34.6050   41.2740 C   0  0  0  0  0  0  0  0  0  0  0  0
   44.6700   36.1830   44.3340 C   0  0  0  0  0  0  0  0  0  0  0  0
   45.2460   35.9430   43.0590 C   0  0  0  0  0  0  0  0  0  0  0  0
   45.8770   34.7370   42.8440 C   0  0  0  0  0  0  0  0  0  0  0  0
   45.9200   33.8400   43.8460 N   0  0  0  0  0  0  0  0  0  0  0  0
   45.3680   34.0750   45.0590 C   0  0  0  0  0  0  0  0  0  0  0  0
   44.7440   35.2340   45.3150 N   0  0  0  0  0  0  0  0  0  0  0  0
   49.3110   36.4870   41.5950 C   0  0  0  0  0  0  0  0  0  0  0  0
   50.0220   34.2640   42.2440 C   0  0  0  0  0  0  0  0  0  0  0  0
   49.7090   32.8640   42.3420 C   0  0  0  0  0  0  0  0  0  0  0  0
   48.8300   32.1610   43.1720 C   0  0  0  0  0  0  0  0  0  0  0  0
   48.7490   30.8250   43.0330 C   0  0  0  0  0  0  0  0  0  0  0  0
   49.5330   30.1850   42.0820 C   0  0  0  0  0  0  0  0  0  0  0  0
   50.4360   31.6220   41.3500 S   0  0  0  0  0  0  0  0  0  0  0  0
   49.7160   28.8130   41.6540 C   0  0  0  0  0  0  0  0  0  0  0  0
   48.6480   27.8910   41.6470 C   0  0  0  0  0  0  0  0  0  0  0  0
   49.5390   26.3600   41.0090 S   0  0  0  0  0  0  0  0  0  0  0  0
   51.1640   27.3280   40.8980 C   0  0  0  0  0  0  0  0  0  0  0  0
   50.8760   28.3490   41.2520 N   0  0  0  0  0  0  0  0  0  0  0  0
   48.3888   35.2798   43.1744 H   0  0  0  0  0  0  0  0  0  0  0  0
   46.4998   33.3270   38.5404 H   0  0  0  0  0  0  0  0  0  0  0  0
   48.9222   34.1899   39.4141 H   0  0  0  0  0  0  0  0  0  0  0  0
   44.1614   37.1377   44.5336 H   0  0  0  0  0  0  0  0  0  0  0  0
   45.1901   36.7002   42.2631 H   0  0  0  0  0  0  0  0  0  0  0  0
   45.4319   33.3068   45.8437 H   0  0  0  0  0  0  0  0  0  0  0  0
   49.5619   37.1757   42.4152 H   0  0  0  0  0  0  0  0  0  0  0  0
   50.2036   36.3132   40.9761 H   0  0  0  0  0  0  0  0  0  0  0  0
   48.5158   36.9281   40.9761 H   0  0  0  0  0  0  0  0  0  0  0  0
   50.6233   34.4187   41.3360 H   0  0  0  0  0  0  0  0  0  0  0  0
   50.5590   34.5294   43.1666 H   0  0  0  0  0  0  0  0  0  0  0  0
   48.2195   32.6875   43.9204 H   0  0  0  0  0  0  0  0  0  0  0  0
   48.0657   30.2431   43.6690 H   0  0  0  0  0  0  0  0  0  0  0  0
   47.5946   28.0277   41.9329 H   0  0  0  0  0  0  0  0  0  0  0  0
   52.1506   26.9723   40.5661 H   0  0  0  0  0  0  0  0  0  0  0  0
  1 14  1  0
  2  9  1  0
  3  2  1  0
  4  5  1  0
  4  3  2  0
  5  6  2  0
  6  2  1  0
  6  1  1  0
  7 12  2  0
  8  7  1  0
  9  8  2  0
  9 10  1  0
 10 11  2  0
 11 12  1  0
 13  1  1  0
 14 15  1  0
 15 16  2  0
 17 16  1  0
 18 17  2  0
 19 18  1  0
 19 15  1  0
 20 18  1  0
 21 20  2  0
 22 21  1  0
 23 22  1  0
 23 24  2  0
 24 20  1  0
  1 25  1  1
  4 26  1  0
  5 27  1  0
  7 28  1  0
  8 29  1  0
 11 30  1  0
 13 31  1  0
 13 32  1  0
 13 33  1  0
 14 34  1  0
 14 35  1  0
 16 36  1  0
 17 37  1  0
 21 38  1  0
 23 39  1  0
M  ISO  8  25   8  26  14  27  14  28  14  29  14  30  14  31   8  32   8
M  ISO  7  33   8  34   8  35   8  36  14  37  14  38  14  39  14
M  END
>  <minimizedAffinity>  (1) 
-4.95065212

>  <minimizedRMSD>  (1) 
0.25639689

$$$$
