
     RDKit          3D

 40 43  0  0  1  0  0  0  0  0999 V2000
   48.8220   35.1620   42.1710 C   0  0  2  0  0  0  0  0  0  0  0  0
   46.4810   34.4260   41.6010 N   0  0  0  0  0  0  0  0  0  0  0  0
   45.8800   33.9170   40.5680 N   0  0  0  0  0  0  0  0  0  0  0  0
   46.7410   33.7410   39.5320 C   0  0  0  0  0  0  0  0  0  0  0  0
   47.9810   34.1850   39.9820 C   0  0  0  0  0  0  0  0  0  0  0  0
   47.7870   34.6060   41.2720 C   0  0  0  0  0  0  0  0  0  0  0  0
   44.6690   36.1780   44.3330 C   0  0  0  0  0  0  0  0  0  0  0  0
   45.2430   35.9380   43.0700 C   0  0  0  0  0  0  0  0  0  0  0  0
   45.8780   34.7370   42.8460 C   0  0  0  0  0  0  0  0  0  0  0  0
   45.9230   33.8390   43.8470 N   0  0  0  0  0  0  0  0  0  0  0  0
   45.3700   34.0720   45.0600 C   0  0  0  0  0  0  0  0  0  0  0  0
   44.7440   35.2330   45.3070 N   0  0  0  0  0  0  0  0  0  0  0  0
   49.3180   36.4870   41.5930 C   0  0  0  0  0  0  0  0  0  0  0  0
   50.0180   34.2700   42.2430 C   0  0  0  0  0  0  0  0  0  0  0  0
   49.7100   32.8640   42.3210 C   0  0  0  0  0  0  0  0  0  0  0  0
   48.8410   32.1490   43.1490 C   0  0  0  0  0  0  0  0  0  0  0  0
   48.7610   30.8140   42.9950 C   0  0  0  0  0  0  0  0  0  0  0  0
   49.5500   30.1960   42.0140 C   0  0  0  0  0  0  0  0  0  0  0  0
   50.4330   31.6430   41.3020 S   0  0  0  0  0  0  0  0  0  0  0  0
   49.7030   28.8420   41.5990 C   0  0  0  0  0  0  0  0  0  0  0  0
   49.1860   27.8090   42.2880 C   0  0  0  0  0  0  0  0  0  0  0  0
   49.5390   26.6510   41.5830 C   0  0  0  0  0  0  0  0  0  0  0  0
   50.2720   27.1060   40.4800 C   0  0  0  0  0  0  0  0  0  0  0  0
   50.3450   28.4350   40.5310 O   0  0  0  0  0  0  0  0  0  0  0  0
   48.3698   35.2747   43.1674 H   0  0  0  0  0  0  0  0  0  0  0  0
   46.5058   33.3308   38.5388 H   0  0  0  0  0  0  0  0  0  0  0  0
   48.9249   34.1959   39.4172 H   0  0  0  0  0  0  0  0  0  0  0  0
   44.1589   37.1321   44.5319 H   0  0  0  0  0  0  0  0  0  0  0  0
   45.1852   36.6969   42.2758 H   0  0  0  0  0  0  0  0  0  0  0  0
   45.4339   33.3062   45.8471 H   0  0  0  0  0  0  0  0  0  0  0  0
   49.5745   37.1722   42.4144 H   0  0  0  0  0  0  0  0  0  0  0  0
   50.2094   36.3064   40.9743 H   0  0  0  0  0  0  0  0  0  0  0  0
   48.5271   36.9361   40.9743 H   0  0  0  0  0  0  0  0  0  0  0  0
   50.6276   34.4390   41.3431 H   0  0  0  0  0  0  0  0  0  0  0  0
   50.5452   34.5273   43.1735 H   0  0  0  0  0  0  0  0  0  0  0  0
   48.2361   32.6650   43.9092 H   0  0  0  0  0  0  0  0  0  0  0  0
   48.0877   30.2176   43.6283 H   0  0  0  0  0  0  0  0  0  0  0  0
   48.6026   27.8627   43.2190 H   0  0  0  0  0  0  0  0  0  0  0  0
   49.2936   25.6100   41.8401 H   0  0  0  0  0  0  0  0  0  0  0  0
   50.7149   26.4701   39.6994 H   0  0  0  0  0  0  0  0  0  0  0  0
  1 14  1  0
  2  9  1  0
  3  2  1  0
  4  5  1  0
  4  3  2  0
  5  6  2  0
  6  2  1  0
  6  1  1  0
  7 12  2  0
  8  7  1  0
  9  8  2  0
  9 10  1  0
 10 11  2  0
 11 12  1  0
 13  1  1  0
 14 15  1  0
 15 16  2  0
 17 16  1  0
 18 17  2  0
 19 18  1  0
 19 15  1  0
 20 18  1  0
 20 21  2  0
 22 21  1  0
 23 24  1  0
 23 22  2  0
 24 20  1  0
  1 25  1  1
  4 26  1  0
  5 27  1  0
  7 28  1  0
  8 29  1  0
 11 30  1  0
 13 31  1  0
 13 32  1  0
 13 33  1  0
 14 34  1  0
 14 35  1  0
 16 36  1  0
 17 37  1  0
 21 38  1  0
 22 39  1  0
 23 40  1  0
M  ISO  8  25   8  26  14  27  14  28  14  29  14  30  14  31   8  32   8
M  ISO  8  33   8  34   8  35   8  36  14  37  14  38  14  39  14  40  14
M  END
>  <minimizedAffinity>  (1) 
-4.94313669

>  <minimizedRMSD>  (1) 
0.191913411

$$$$
