
     RDKit          3D

 40 43  0  0  1  0  0  0  0  0999 V2000
   48.8240   35.1610   42.1760 C   0  0  2  0  0  0  0  0  0  0  0  0
   46.4740   34.4200   41.5920 N   0  0  0  0  0  0  0  0  0  0  0  0
   45.8720   33.9140   40.5650 N   0  0  0  0  0  0  0  0  0  0  0  0
   46.7430   33.7410   39.5270 C   0  0  0  0  0  0  0  0  0  0  0  0
   47.9830   34.1870   39.9800 C   0  0  0  0  0  0  0  0  0  0  0  0
   47.7870   34.6060   41.2730 C   0  0  0  0  0  0  0  0  0  0  0  0
   44.6690   36.1760   44.3360 C   0  0  0  0  0  0  0  0  0  0  0  0
   45.2410   35.9360   43.0650 C   0  0  0  0  0  0  0  0  0  0  0  0
   45.8730   34.7330   42.8440 C   0  0  0  0  0  0  0  0  0  0  0  0
   45.9200   33.8350   43.8450 N   0  0  0  0  0  0  0  0  0  0  0  0
   45.3720   34.0700   45.0600 C   0  0  0  0  0  0  0  0  0  0  0  0
   44.7480   35.2300   45.3120 N   0  0  0  0  0  0  0  0  0  0  0  0
   49.3190   36.4820   41.5960 C   0  0  0  0  0  0  0  0  0  0  0  0
   50.0140   34.2620   42.2370 C   0  0  0  0  0  0  0  0  0  0  0  0
   49.6910   32.8590   42.3290 C   0  0  0  0  0  0  0  0  0  0  0  0
   48.8270   32.1390   43.1590 C   0  0  0  0  0  0  0  0  0  0  0  0
   48.7270   30.8050   43.0210 C   0  0  0  0  0  0  0  0  0  0  0  0
   49.4980   30.1840   42.0440 C   0  0  0  0  0  0  0  0  0  0  0  0
   50.3940   31.6310   41.3120 S   0  0  0  0  0  0  0  0  0  0  0  0
   49.6900   28.8760   41.5850 C   0  0  0  0  0  0  0  0  0  0  0  0
   49.4150   27.6120   42.0190 C   0  0  0  0  0  0  0  0  0  0  0  0
   49.7890   26.5850   41.2350 C   0  0  0  0  0  0  0  0  0  0  0  0
   50.5020   26.8540   39.8950 C   0  0  0  0  0  0  0  0  0  0  0  0
   50.5430   28.7490   39.9530 S   0  0  0  0  0  0  0  0  0  0  0  0
   48.3789   35.2774   43.1752 H   0  0  0  0  0  0  0  0  0  0  0  0
   46.5118   33.3316   38.5326 H   0  0  0  0  0  0  0  0  0  0  0  0
   48.9274   34.2007   39.4162 H   0  0  0  0  0  0  0  0  0  0  0  0
   44.1588   37.1297   44.5366 H   0  0  0  0  0  0  0  0  0  0  0  0
   45.1822   36.6941   42.2702 H   0  0  0  0  0  0  0  0  0  0  0  0
   45.4389   33.3039   45.8465 H   0  0  0  0  0  0  0  0  0  0  0  0
   49.5764   37.1688   42.4158 H   0  0  0  0  0  0  0  0  0  0  0  0
   50.2098   36.2998   40.9770 H   0  0  0  0  0  0  0  0  0  0  0  0
   48.5278   36.9301   40.9770 H   0  0  0  0  0  0  0  0  0  0  0  0
   50.6122   34.4194   41.3274 H   0  0  0  0  0  0  0  0  0  0  0  0
   50.5596   34.5217   43.1561 H   0  0  0  0  0  0  0  0  0  0  0  0
   48.2313   32.6614   43.9220 H   0  0  0  0  0  0  0  0  0  0  0  0
   48.0529   30.2202   43.6641 H   0  0  0  0  0  0  0  0  0  0  0  0
   48.9046   27.4387   42.9779 H   0  0  0  0  0  0  0  0  0  0  0  0
   49.5857   25.5511   41.5507 H   0  0  0  0  0  0  0  0  0  0  0  0
   50.8757   26.1549   39.1323 H   0  0  0  0  0  0  0  0  0  0  0  0
  1 14  1  0
  2  9  1  0
  3  2  1  0
  4  5  1  0
  4  3  2  0
  5  6  2  0
  6  2  1  0
  6  1  1  0
  7 12  2  0
  8  7  1  0
  9  8  2  0
  9 10  1  0
 10 11  2  0
 11 12  1  0
 13  1  1  0
 14 15  1  0
 15 16  2  0
 17 16  1  0
 18 17  2  0
 19 18  1  0
 19 15  1  0
 20 21  2  0
 20 18  1  0
 22 21  1  0
 23 24  1  0
 23 22  2  0
 24 20  1  0
  1 25  1  1
  4 26  1  0
  5 27  1  0
  7 28  1  0
  8 29  1  0
 11 30  1  0
 13 31  1  0
 13 32  1  0
 13 33  1  0
 14 34  1  0
 14 35  1  0
 16 36  1  0
 17 37  1  0
 21 38  1  0
 22 39  1  0
 23 40  1  0
M  ISO  8  25   8  26  14  27  14  28  14  29  14  30  14  31   8  32   8
M  ISO  8  33   8  34   8  35   8  36  14  37  14  38  14  39  14  40  14
M  END
>  <minimizedAffinity>  (1) 
-4.94021225

>  <minimizedRMSD>  (1) 
0.15798822

$$$$
