
     RDKit          3D

 40 43  0  0  1  0  0  0  0  0999 V2000
   48.8290   35.1580   42.1750 C   0  0  2  0  0  0  0  0  0  0  0  0
   46.4840   34.4240   41.5980 N   0  0  0  0  0  0  0  0  0  0  0  0
   45.8820   33.9160   40.5640 N   0  0  0  0  0  0  0  0  0  0  0  0
   46.7410   33.7390   39.5280 C   0  0  0  0  0  0  0  0  0  0  0  0
   47.9780   34.1810   39.9840 C   0  0  0  0  0  0  0  0  0  0  0  0
   47.7910   34.6020   41.2710 C   0  0  0  0  0  0  0  0  0  0  0  0
   44.6690   36.1800   44.3320 C   0  0  0  0  0  0  0  0  0  0  0  0
   45.2480   35.9390   43.0600 C   0  0  0  0  0  0  0  0  0  0  0  0
   45.8800   34.7360   42.8420 C   0  0  0  0  0  0  0  0  0  0  0  0
   45.9230   33.8380   43.8430 N   0  0  0  0  0  0  0  0  0  0  0  0
   45.3700   34.0690   45.0570 C   0  0  0  0  0  0  0  0  0  0  0  0
   44.7450   35.2340   45.3050 N   0  0  0  0  0  0  0  0  0  0  0  0
   49.3080   36.4850   41.6050 C   0  0  0  0  0  0  0  0  0  0  0  0
   50.0290   34.2690   42.2370 C   0  0  0  0  0  0  0  0  0  0  0  0
   49.7240   32.8590   42.3280 C   0  0  0  0  0  0  0  0  0  0  0  0
   48.8430   32.1600   43.1580 C   0  0  0  0  0  0  0  0  0  0  0  0
   48.7680   30.8220   43.0160 C   0  0  0  0  0  0  0  0  0  0  0  0
   49.5600   30.1780   42.0580 C   0  0  0  0  0  0  0  0  0  0  0  0
   50.4590   31.6260   41.3340 S   0  0  0  0  0  0  0  0  0  0  0  0
   49.7510   28.8350   41.6310 C   0  0  0  0  0  0  0  0  0  0  0  0
   48.9230   27.7790   41.9330 C   0  0  0  0  0  0  0  0  0  0  0  0
   49.4950   26.7020   41.3170 N   0  0  0  0  0  0  0  0  0  0  0  0
   50.6180   27.1350   40.6810 C   0  0  0  0  0  0  0  0  0  0  0  0
   50.7880   28.4610   40.8680 N   0  0  0  0  0  0  0  0  0  0  0  0
   48.3845   35.2613   43.1759 H   0  0  0  0  0  0  0  0  0  0  0  0
   46.5070   33.3306   38.5338 H   0  0  0  0  0  0  0  0  0  0  0  0
   48.9221   34.1901   39.4196 H   0  0  0  0  0  0  0  0  0  0  0  0
   44.1579   37.1334   44.5313 H   0  0  0  0  0  0  0  0  0  0  0  0
   45.1931   36.6971   42.2649 H   0  0  0  0  0  0  0  0  0  0  0  0
   45.4320   33.3018   45.8428 H   0  0  0  0  0  0  0  0  0  0  0  0
   49.5553   37.1702   42.4292 H   0  0  0  0  0  0  0  0  0  0  0  0
   50.2023   36.3171   40.9869 H   0  0  0  0  0  0  0  0  0  0  0  0
   48.5127   36.9270   40.9869 H   0  0  0  0  0  0  0  0  0  0  0  0
   50.6264   34.4337   41.3282 H   0  0  0  0  0  0  0  0  0  0  0  0
   50.5681   34.5335   43.1586 H   0  0  0  0  0  0  0  0  0  0  0  0
   48.2296   32.6860   43.9043 H   0  0  0  0  0  0  0  0  0  0  0  0
   48.0862   30.2374   43.6512 H   0  0  0  0  0  0  0  0  0  0  0  0
   48.0037   27.7975   42.5368 H   0  0  0  0  0  0  0  0  0  0  0  0
   51.2932   26.4934   40.0959 H   0  0  0  0  0  0  0  0  0  0  0  0
   51.5472   29.0547   40.5046 H   0  0  0  0  0  0  0  0  0  0  0  0
  1 14  1  0
  2  9  1  0
  3  2  1  0
  4  5  1  0
  4  3  2  0
  5  6  2  0
  6  2  1  0
  6  1  1  0
  7 12  2  0
  8  7  1  0
  9  8  2  0
  9 10  1  0
 10 11  2  0
 11 12  1  0
 13  1  1  0
 14 15  1  0
 15 16  2  0
 17 16  1  0
 18 17  2  0
 19 18  1  0
 19 15  1  0
 20 21  2  0
 20 18  1  0
 22 21  1  0
 23 24  1  0
 23 22  2  0
 24 20  1  0
  1 25  1  1
  4 26  1  0
  5 27  1  0
  7 28  1  0
  8 29  1  0
 11 30  1  0
 13 31  1  0
 13 32  1  0
 13 33  1  0
 14 34  1  0
 14 35  1  0
 16 36  1  0
 17 37  1  0
 21 38  1  0
 23 39  1  0
 24 40  1  0
M  ISO  8  25   8  26  14  27  14  28  14  29  14  30  14  31   8  32   8
M  ISO  8  33   8  34   8  35   8  36  14  37  14  38  14  39  14  40   9
M  END
>  <minimizedAffinity>  (1) 
-4.93784142

>  <minimizedRMSD>  (1) 
0.206810981

$$$$
