
     RDKit          3D

 36 38  0  0  1  0  0  0  0  0999 V2000
   48.8180   35.1510   42.1720 C   0  0  2  0  0  0  0  0  0  0  0  0
   46.4770   34.4250   41.5950 N   0  0  0  0  0  0  0  0  0  0  0  0
   45.8760   33.9210   40.5630 N   0  0  0  0  0  0  0  0  0  0  0  0
   46.7360   33.7440   39.5270 C   0  0  0  0  0  0  0  0  0  0  0  0
   47.9680   34.1830   39.9820 C   0  0  0  0  0  0  0  0  0  0  0  0
   47.7820   34.6010   41.2700 C   0  0  0  0  0  0  0  0  0  0  0  0
   44.6710   36.1820   44.3320 C   0  0  0  0  0  0  0  0  0  0  0  0
   45.2450   35.9420   43.0680 C   0  0  0  0  0  0  0  0  0  0  0  0
   45.8740   34.7370   42.8400 C   0  0  0  0  0  0  0  0  0  0  0  0
   45.9130   33.8400   43.8420 N   0  0  0  0  0  0  0  0  0  0  0  0
   45.3620   34.0740   45.0540 C   0  0  0  0  0  0  0  0  0  0  0  0
   44.7430   35.2360   45.3070 N   0  0  0  0  0  0  0  0  0  0  0  0
   49.3140   36.4780   41.5970 C   0  0  0  0  0  0  0  0  0  0  0  0
   50.0160   34.2580   42.2270 C   0  0  0  0  0  0  0  0  0  0  0  0
   49.7030   32.8510   42.3360 C   0  0  0  0  0  0  0  0  0  0  0  0
   48.8320   32.1580   43.1740 C   0  0  0  0  0  0  0  0  0  0  0  0
   48.7500   30.8190   43.0510 C   0  0  0  0  0  0  0  0  0  0  0  0
   49.5370   30.1760   42.0930 C   0  0  0  0  0  0  0  0  0  0  0  0
   50.4340   31.6120   41.3450 S   0  0  0  0  0  0  0  0  0  0  0  0
   49.7250   28.8190   41.6740 C   0  0  0  0  0  0  0  0  0  0  0  0
   49.0490   28.3420   40.7620 O   0  0  0  0  0  0  0  0  0  0  0  0
   50.6890   28.1300   42.3600 O   0  0  0  0  0  0  0  0  0  0  0  0
   48.3701   35.2573   43.1710 H   0  0  0  0  0  0  0  0  0  0  0  0
   46.5023   33.3363   38.5324 H   0  0  0  0  0  0  0  0  0  0  0  0
   48.9119   34.1933   39.4172 H   0  0  0  0  0  0  0  0  0  0  0  0
   44.1631   37.1372   44.5312 H   0  0  0  0  0  0  0  0  0  0  0  0
   45.1921   36.7037   42.2762 H   0  0  0  0  0  0  0  0  0  0  0  0
   45.4220   33.3053   45.8385 H   0  0  0  0  0  0  0  0  0  0  0  0
   49.5695   37.1616   42.4201 H   0  0  0  0  0  0  0  0  0  0  0  0
   50.2060   36.2991   40.9786 H   0  0  0  0  0  0  0  0  0  0  0  0
   48.5234   36.9280   40.9786 H   0  0  0  0  0  0  0  0  0  0  0  0
   50.6022   34.4107   41.3088 H   0  0  0  0  0  0  0  0  0  0  0  0
   50.5705   34.5294   43.1374 H   0  0  0  0  0  0  0  0  0  0  0  0
   48.2248   32.6923   43.9195 H   0  0  0  0  0  0  0  0  0  0  0  0
   48.0727   30.2402   43.6961 H   0  0  0  0  0  0  0  0  0  0  0  0
   50.8802   27.1860   42.1311 H   0  0  0  0  0  0  0  0  0  0  0  0
  1 14  1  0
  2  9  1  0
  3  2  1  0
  4  5  1  0
  4  3  2  0
  5  6  2  0
  6  2  1  0
  6  1  1  0
  7 12  2  0
  8  7  1  0
  9  8  2  0
  9 10  1  0
 10 11  2  0
 11 12  1  0
 13  1  1  0
 14 15  1  0
 15 16  2  0
 17 16  1  0
 18 17  2  0
 19 18  1  0
 19 15  1  0
 20 18  1  0
 20 22  1  0
 21 20  2  0
  1 23  1  1
  4 24  1  0
  5 25  1  0
  7 26  1  0
  8 27  1  0
 11 28  1  0
 13 29  1  0
 13 30  1  0
 13 31  1  0
 14 32  1  0
 14 33  1  0
 16 34  1  0
 17 35  1  0
 22 36  1  0
M  ISO  8  23   8  24  14  25  14  26  14  27  14  28  14  29   8  30   8
M  ISO  6  31   8  32   8  33   8  34  14  35  14  36   3
M  END
>  <minimizedAffinity>  (1) 
-4.92771864

>  <minimizedRMSD>  (1) 
0.154138163

$$$$
