
     RDKit          3D

 26 28  0  0  1  0  0  0  0  0999 V2000
   49.0910   34.1980   41.0580 C   0  0  1  0  0  0  0  0  0  0  0  0
   48.9060   35.6860   41.2230 C   0  0  0  0  0  0  0  0  0  0  0  0
   48.7510   34.8130   42.3730 C   0  0  1  0  0  0  0  0  0  0  0  0
   46.8450   33.2510   38.2270 C   0  0  0  0  0  0  0  0  0  0  0  0
   47.8130   33.9720   38.9950 C   0  0  0  0  0  0  0  0  0  0  0  0
   48.1050   33.4720   40.2570 C   0  0  0  0  0  0  0  0  0  0  0  0
   47.4710   32.3450   40.6980 N   0  0  0  0  0  0  0  0  0  0  0  0
   46.5710   31.6910   39.9570 C   0  0  0  0  0  0  0  0  0  0  0  0
   46.2500   32.1350   38.7200 N   0  0  0  0  0  0  0  0  0  0  0  0
   47.4390   34.5890   43.0440 C   0  0  0  0  0  0  0  0  0  0  0  0
   46.2390   35.2170   42.7310 C   0  0  0  0  0  0  0  0  0  0  0  0
   45.0930   34.8920   43.4260 C   0  0  0  0  0  0  0  0  0  0  0  0
   45.0710   33.9940   44.3970 N   0  0  0  0  0  0  0  0  0  0  0  0
   46.2340   33.3910   44.6940 C   0  0  0  0  0  0  0  0  0  0  0  0
   47.3600   33.6860   44.0360 N   0  0  0  0  0  0  0  0  0  0  0  0
   46.2220   32.1700   46.0080 S   0  0  0  0  0  0  0  0  0  0  0  0
   49.8759   33.5064   40.7179 H   0  0  0  0  0  0  0  0  0  0  0  0
   49.7746   36.3576   41.1570 H   0  0  0  0  0  0  0  0  0  0  0  0
   48.2780   36.4476   40.7377 H   0  0  0  0  0  0  0  0  0  0  0  0
   49.1986   34.7815   43.3773 H   0  0  0  0  0  0  0  0  0  0  0  0
   46.5786   33.6067   37.2208 H   0  0  0  0  0  0  0  0  0  0  0  0
   48.3015   34.8772   38.6052 H   0  0  0  0  0  0  0  0  0  0  0  0
   46.0884   30.7863   40.3554 H   0  0  0  0  0  0  0  0  0  0  0  0
   46.2036   35.9712   41.9311 H   0  0  0  0  0  0  0  0  0  0  0  0
   44.1553   35.4024   43.1610 H   0  0  0  0  0  0  0  0  0  0  0  0
   46.2282   32.8053   47.2218 H   0  0  0  0  0  0  0  0  0  0  0  0
  1  2  1  0
  1  3  1  0
  2  3  1  0
  3 10  1  0
  4  9  2  0
  4  5  1  0
  5  6  2  0
  6  7  1  0
  6  1  1  0
  8  7  2  0
  9  8  1  0
 10 15  1  0
 11 10  2  0
 11 12  1  0
 12 13  2  0
 13 14  1  0
 14 16  1  0
 15 14  2  0
  1 17  1  1
  2 18  1  0
  2 19  1  0
  3 20  1  1
  4 21  1  0
  5 22  1  0
  8 23  1  0
 11 24  1  0
 12 25  1  0
 16 26  1  0
M  ISO  8  17  13  18  13  19  13  20  13  21  14  22  14  23  14  24  14
M  ISO  2  25  14  26  11
M  END
>  <minimizedAffinity>  (1) 
-4.2909894

>  <minimizedRMSD>  (1) 
3.6055162

$$$$
