
     RDKit          3D

 33 35  0  0  0  0  0  0  0  0999 V2000
   46.9700   31.5930   45.3970 C   0  0  0  0  0  0  0  0  0  0  0  0
   47.7860   30.5140   45.0950 C   0  0  0  0  0  0  0  0  0  0  0  0
   48.1040   29.5280   46.0040 C   0  0  0  0  0  0  0  0  0  0  0  0
   47.6200   29.5690   47.2750 C   0  0  0  0  0  0  0  0  0  0  0  0
   46.8160   30.6130   47.6090 C   0  0  0  0  0  0  0  0  0  0  0  0
   46.3270   30.6440   48.9090 C   0  0  0  0  0  0  0  0  0  0  0  0
   45.5070   31.6750   49.3170 C   0  0  0  0  0  0  0  0  0  0  0  0
   45.1870   32.6680   48.4010 C   0  0  0  0  0  0  0  0  0  0  0  0
   45.7080   32.5670   47.1360 C   0  0  0  0  0  0  0  0  0  0  0  0
   46.5230   31.5720   46.6760 C   0  0  0  0  0  0  0  0  0  0  0  0
   45.4660   34.2240   43.2070 C   0  0  0  0  0  0  0  0  0  0  0  0
   46.5500   34.4690   42.3410 C   0  0  0  0  0  0  0  0  0  0  0  0
   47.6980   33.7360   42.5560 C   0  0  0  0  0  0  0  0  0  0  0  0
   47.6730   32.8550   43.5780 N   0  0  0  0  0  0  0  0  0  0  0  0
   46.6530   32.6040   44.4200 C   0  0  0  0  0  0  0  0  0  0  0  0
   45.6050   33.3320   44.1530 N   0  0  0  0  0  0  0  0  0  0  0  0
   48.8800   33.8260   41.7660 N   0  0  0  0  0  0  0  0  0  0  0  0
   50.1360   34.1480   42.3410 C   0  0  0  0  0  0  0  0  0  0  0  0
   50.2310   35.1710   43.0990 N   0  0  0  0  0  0  0  0  0  0  0  0
   51.2720   33.3110   42.0300 N   0  0  0  0  0  0  0  0  0  0  0  0
   49.4270   35.7720   43.3050 H   0  0  0  0  0  0  0  0  0  0  0  0
   48.2006   30.4410   44.0788 H   0  0  0  0  0  0  0  0  0  0  0  0
   48.7573   28.6975   45.6981 H   0  0  0  0  0  0  0  0  0  0  0  0
   47.8702   28.7858   48.0057 H   0  0  0  0  0  0  0  0  0  0  0  0
   46.5946   29.8439   49.6149 H   0  0  0  0  0  0  0  0  0  0  0  0
   45.1155   31.7098   50.3444 H   0  0  0  0  0  0  0  0  0  0  0  0
   44.5361   33.5094   48.6808 H   0  0  0  0  0  0  0  0  0  0  0  0
   45.4443   33.3632   46.4242 H   0  0  0  0  0  0  0  0  0  0  0  0
   44.5201   34.7730   43.0895 H   0  0  0  0  0  0  0  0  0  0  0  0
   46.4836   35.2104   41.5311 H   0  0  0  0  0  0  0  0  0  0  0  0
   48.8211   33.6530   40.7523 H   0  0  0  0  0  0  0  0  0  0  0  0
   52.1948   33.5239   42.4350 H   0  0  0  0  0  0  0  0  0  0  0  0
   51.1590   32.5015   41.4033 H   0  0  0  0  0  0  0  0  0  0  0  0
  1 10  1  0
  2  1  2  0
  2  3  1  0
  3  4  2  0
  4  5  1  0
  5  6  2  0
  6  7  1  0
  8  7  2  0
  9  8  1  0
 10  9  2  0
 10  5  1  0
 11 16  2  0
 12 13  2  0
 12 11  1  0
 13 14  1  0
 14 15  2  0
 15  1  1  0
 16 15  1  0
 17 18  1  0
 17 13  1  0
 18 19  2  0
 19 21  1  0
 20 18  1  0
  2 22  1  0
  3 23  1  0
  4 24  1  0
  6 25  1  0
  7 26  1  0
  8 27  1  0
  9 28  1  0
 11 29  1  0
 12 30  1  0
 17 31  1  0
 20 32  1  0
 20 33  1  0
M  ISO  8  22  14  23  14  24  14  25  14  26  14  27  14  28  14  29  14
M  ISO  1  30  14
M  END
>  <minimizedAffinity>  (1) 
-6.23699141

>  <minimizedRMSD>  (1) 
2.19824791

$$$$
