
     RDKit          3D

 40 43  0  0  0  0  0  0  0  0999 V2000
   46.5400   32.1860   45.6240 C   0  0  0  0  0  0  0  0  0  0  0  0
   47.3960   31.3220   44.9610 C   0  0  0  0  0  0  0  0  0  0  0  0
   47.8800   30.1560   45.5210 C   0  0  0  0  0  0  0  0  0  0  0  0
   47.5260   29.7930   46.7900 C   0  0  0  0  0  0  0  0  0  0  0  0
   46.6930   30.6140   47.4650 C   0  0  0  0  0  0  0  0  0  0  0  0
   46.3390   30.2330   48.7540 C   0  0  0  0  0  0  0  0  0  0  0  0
   45.4880   31.0270   49.5040 C   0  0  0  0  0  0  0  0  0  0  0  0
   45.0020   32.2020   48.9380 C   0  0  0  0  0  0  0  0  0  0  0  0
   45.3960   32.5100   47.6600 C   0  0  0  0  0  0  0  0  0  0  0  0
   46.2300   31.7650   46.8760 C   0  0  0  0  0  0  0  0  0  0  0  0
   44.8360   35.3620   44.6410 C   0  0  0  0  0  0  0  0  0  0  0  0
   45.4490   35.5940   43.3960 C   0  0  0  0  0  0  0  0  0  0  0  0
   46.3860   34.6740   42.9780 C   0  0  0  0  0  0  0  0  0  0  0  0
   46.6270   33.6340   43.8050 N   0  0  0  0  0  0  0  0  0  0  0  0
   46.0500   33.3930   45.0030 C   0  0  0  0  0  0  0  0  0  0  0  0
   45.1760   34.3060   45.3310 N   0  0  0  0  0  0  0  0  0  0  0  0
   47.0930   34.7610   41.7470 N   0  0  0  0  0  0  0  0  0  0  0  0
   46.6130   34.2360   40.5020 C   0  0  0  0  0  0  0  0  0  0  0  0
   47.6600   33.6180   39.6390 C   0  0  0  0  0  0  0  0  0  0  0  0
   49.0060   33.7570   40.0140 N   0  0  0  0  0  0  0  0  0  0  0  0
   49.3210   34.2250   41.3160 C   0  0  0  0  0  0  0  0  0  0  0  0
   48.3810   35.3890   41.6100 C   0  0  0  0  0  0  0  0  0  0  0  0
   47.7059   31.5774   43.9369 H   0  0  0  0  0  0  0  0  0  0  0  0
   48.5573   29.5130   44.9397 H   0  0  0  0  0  0  0  0  0  0  0  0
   47.9056   28.8662   47.2449 H   0  0  0  0  0  0  0  0  0  0  0  0
   46.7356   29.2991   49.1790 H   0  0  0  0  0  0  0  0  0  0  0  0
   45.2021   30.7354   50.5254 H   0  0  0  0  0  0  0  0  0  0  0  0
   44.3235   32.8629   49.4974 H   0  0  0  0  0  0  0  0  0  0  0  0
   45.0042   33.4424   47.2274 H   0  0  0  0  0  0  0  0  0  0  0  0
   44.0801   36.0609   45.0285 H   0  0  0  0  0  0  0  0  0  0  0  0
   45.1918   36.4708   42.7835 H   0  0  0  0  0  0  0  0  0  0  0  0
   45.8555   33.4696   40.7231 H   0  0  0  0  0  0  0  0  0  0  0  0
   46.2128   35.0919   39.9387 H   0  0  0  0  0  0  0  0  0  0  0  0
   47.5553   34.0579   38.6362 H   0  0  0  0  0  0  0  0  0  0  0  0
   47.4693   32.5374   39.7167 H   0  0  0  0  0  0  0  0  0  0  0  0
   49.4426   32.8294   39.9147 H   0  0  0  0  0  0  0  0  0  0  0  0
   49.1704   33.4223   42.0528 H   0  0  0  0  0  0  0  0  0  0  0  0
   50.3720   34.5442   41.3752 H   0  0  0  0  0  0  0  0  0  0  0  0
   48.6690   35.9005   42.5403 H   0  0  0  0  0  0  0  0  0  0  0  0
   48.3983   36.1597   40.8253 H   0  0  0  0  0  0  0  0  0  0  0  0
  1 10  2  0
  2  3  2  0
  2  1  1  0
  3  4  1  0
  4  5  2  0
  5  6  1  0
  6  7  2  0
  8  7  1  0
  9  8  2  0
 10  5  1  0
 10  9  1  0
 11 16  2  0
 12 11  1  0
 13 12  2  0
 13 14  1  0
 14 15  2  0
 15 16  1  0
 15  1  1  0
 17 13  1  0
 18 17  1  0
 19 20  1  0
 19 18  1  0
 20 21  1  0
 21 22  1  0
 22 17  1  0
  2 23  1  0
  3 24  1  0
  4 25  1  0
  6 26  1  0
  7 27  1  0
  8 28  1  0
  9 29  1  0
 11 30  1  0
 12 31  1  0
 18 32  1  0
 18 33  1  0
 19 34  1  0
 19 35  1  0
 20 36  1  0
 21 37  1  0
 21 38  1  0
 22 39  1  0
 22 40  1  0
M  ISO  8  23  14  24  14  25  14  26  14  27  14  28  14  29  14  30  14
M  ISO  8  31  14  32  13  33  13  34  13  35  13  36   5  37  13  38  13
M  ISO  2  39  13  40  13
M  END
>  <minimizedAffinity>  (1) 
-5.9476757

>  <minimizedRMSD>  (1) 
0.868733943

$$$$
