
     RDKit          3D

 31 34  0  0  0  0  0  0  0  0999 V2000
   46.6100   32.1500   45.4790 C   0  0  0  0  0  0  0  0  0  0  0  0
   47.4220   31.2410   44.8350 C   0  0  0  0  0  0  0  0  0  0  0  0
   47.8790   30.0800   45.4170 C   0  0  0  0  0  0  0  0  0  0  0  0
   47.5430   29.7630   46.6970 C   0  0  0  0  0  0  0  0  0  0  0  0
   46.7490   30.6280   47.3630 C   0  0  0  0  0  0  0  0  0  0  0  0
   46.4050   30.3050   48.6700 C   0  0  0  0  0  0  0  0  0  0  0  0
   45.6030   31.1360   49.4030 C   0  0  0  0  0  0  0  0  0  0  0  0
   45.1380   32.3050   48.8320 C   0  0  0  0  0  0  0  0  0  0  0  0
   45.5170   32.5610   47.5400 C   0  0  0  0  0  0  0  0  0  0  0  0
   46.3110   31.7760   46.7540 C   0  0  0  0  0  0  0  0  0  0  0  0
   44.8950   35.2860   44.3890 C   0  0  0  0  0  0  0  0  0  0  0  0
   45.6240   35.5830   43.2200 C   0  0  0  0  0  0  0  0  0  0  0  0
   46.6510   34.6910   42.8920 C   0  0  0  0  0  0  0  0  0  0  0  0
   46.8350   33.6440   43.7200 N   0  0  0  0  0  0  0  0  0  0  0  0
   46.1370   33.3590   44.8400 C   0  0  0  0  0  0  0  0  0  0  0  0
   45.1940   34.2240   45.0970 N   0  0  0  0  0  0  0  0  0  0  0  0
   47.4600   34.9180   41.6990 C   0  0  0  0  0  0  0  0  0  0  0  0
   48.5080   35.7540   41.6070 N   0  0  0  0  0  0  0  0  0  0  0  0
   49.0370   35.7530   40.4250 O   0  0  0  0  0  0  0  0  0  0  0  0
   48.3340   34.9050   39.7120 C   0  0  0  0  0  0  0  0  0  0  0  0
   47.3440   34.3670   40.4740 N   0  0  0  0  0  0  0  0  0  0  0  0
   47.7215   31.4552   43.7984 H   0  0  0  0  0  0  0  0  0  0  0  0
   48.5236   29.4004   44.8403 H   0  0  0  0  0  0  0  0  0  0  0  0
   47.9042   28.8381   47.1704 H   0  0  0  0  0  0  0  0  0  0  0  0
   46.7806   29.3736   49.1188 H   0  0  0  0  0  0  0  0  0  0  0  0
   45.3310   30.8762   50.4367 H   0  0  0  0  0  0  0  0  0  0  0  0
   44.4923   32.9994   49.3896 H   0  0  0  0  0  0  0  0  0  0  0  0
   45.1438   33.4932   47.0908 H   0  0  0  0  0  0  0  0  0  0  0  0
   44.0745   35.9458   44.7076 H   0  0  0  0  0  0  0  0  0  0  0  0
   45.3988   36.4644   42.6016 H   0  0  0  0  0  0  0  0  0  0  0  0
   48.5180   34.6647   38.6545 H   0  0  0  0  0  0  0  0  0  0  0  0
  1 10  2  0
  2  3  2  0
  2  1  1  0
  3  4  1  0
  4  5  2  0
  5  6  1  0
  6  7  2  0
  8  7  1  0
  9  8  2  0
 10  5  1  0
 10  9  1  0
 11 16  2  0
 12 11  1  0
 13 12  2  0
 13 14  1  0
 14 15  2  0
 15 16  1  0
 15  1  1  0
 17 13  1  0
 18 17  2  0
 19 18  1  0
 20 19  1  0
 20 21  2  0
 21 17  1  0
  2 22  1  0
  3 23  1  0
  4 24  1  0
  6 25  1  0
  7 26  1  0
  8 27  1  0
  9 28  1  0
 11 29  1  0
 12 30  1  0
 20 31  1  0
M  ISO  8  22  14  23  14  24  14  25  14  26  14  27  14  28  14  29  14
M  ISO  2  30  14  31  14
M  END
>  <minimizedAffinity>  (1) 
-5.93249846

>  <minimizedRMSD>  (1) 
0.90054059

$$$$
