
     RDKit          3D

 33 36  0  0  0  0  0  0  0  0999 V2000
   48.8620   30.3600   48.3090 C   0  0  0  0  0  0  0  0  0  0  0  0
   49.0620   29.2180   47.5510 C   0  0  0  0  0  0  0  0  0  0  0  0
   50.2690   28.5590   47.4740 C   0  0  0  0  0  0  0  0  0  0  0  0
   51.3610   29.0150   48.1610 C   0  0  0  0  0  0  0  0  0  0  0  0
   51.1990   30.1320   48.9130 C   0  0  0  0  0  0  0  0  0  0  0  0
   52.3140   30.5860   49.6060 C   0  0  0  0  0  0  0  0  0  0  0  0
   52.2310   31.7190   50.3960 C   0  0  0  0  0  0  0  0  0  0  0  0
   51.0060   32.3830   50.4720 C   0  0  0  0  0  0  0  0  0  0  0  0
   49.9530   31.8700   49.7550 C   0  0  0  0  0  0  0  0  0  0  0  0
   49.9830   30.7570   48.9640 C   0  0  0  0  0  0  0  0  0  0  0  0
   45.4730   31.6990   49.1410 C   0  0  0  0  0  0  0  0  0  0  0  0
   45.2360   32.4990   48.0050 C   0  0  0  0  0  0  0  0  0  0  0  0
   46.2440   32.5270   47.0370 C   0  0  0  0  0  0  0  0  0  0  0  0
   47.3440   31.7880   47.2860 N   0  0  0  0  0  0  0  0  0  0  0  0
   47.5810   31.0180   48.3710 C   0  0  0  0  0  0  0  0  0  0  0  0
   46.5970   31.0430   49.2260 N   0  0  0  0  0  0  0  0  0  0  0  0
   46.0690   33.3080   45.8750 N   0  0  0  0  0  0  0  0  0  0  0  0
   46.8060   33.1360   44.7520 C   0  0  0  0  0  0  0  0  0  0  0  0
   46.3160   34.0930   43.8720 C   0  0  0  0  0  0  0  0  0  0  0  0
   45.3250   34.7950   44.4790 N   0  0  0  0  0  0  0  0  0  0  0  0
   45.1870   34.2930   45.7190 C   0  0  0  0  0  0  0  0  0  0  0  0
   48.2118   28.8161   46.9803 H   0  0  0  0  0  0  0  0  0  0  0  0
   50.3562   27.6554   46.8528 H   0  0  0  0  0  0  0  0  0  0  0  0
   52.3299   28.4972   48.1057 H   0  0  0  0  0  0  0  0  0  0  0  0
   53.2670   30.0425   49.5264 H   0  0  0  0  0  0  0  0  0  0  0  0
   53.1076   32.0866   50.9496 H   0  0  0  0  0  0  0  0  0  0  0  0
   50.8876   33.2878   51.0862 H   0  0  0  0  0  0  0  0  0  0  0  0
   48.9950   32.4061   49.8243 H   0  0  0  0  0  0  0  0  0  0  0  0
   44.7226   31.6291   49.9423 H   0  0  0  0  0  0  0  0  0  0  0  0
   44.3048   33.0724   47.8862 H   0  0  0  0  0  0  0  0  0  0  0  0
   47.6093   32.4053   44.5766 H   0  0  0  0  0  0  0  0  0  0  0  0
   46.6746   34.2563   42.8450 H   0  0  0  0  0  0  0  0  0  0  0  0
   44.4673   34.6378   46.4761 H   0  0  0  0  0  0  0  0  0  0  0  0
  1 15  1  0
  1 10  1  0
  2  1  2  0
  3  2  1  0
  3  4  2  0
  4  5  1  0
  5 10  2  0
  5  6  1  0
  6  7  2  0
  7  8  1  0
  9  8  2  0
 10  9  1  0
 11 16  2  0
 12 11  1  0
 13 14  1  0
 13 12  2  0
 14 15  2  0
 15 16  1  0
 17 13  1  0
 18 17  1  0
 19 20  1  0
 19 18  2  0
 20 21  2  0
 21 17  1  0
  2 22  1  0
  3 23  1  0
  4 24  1  0
  6 25  1  0
  7 26  1  0
  8 27  1  0
  9 28  1  0
 11 29  1  0
 12 30  1  0
 18 31  1  0
 19 32  1  0
 21 33  1  0
M  ISO  8  22  14  23  14  24  14  25  14  26  14  27  14  28  14  29  14
M  ISO  4  30  14  31  14  32  14  33  14
M  END
>  <minimizedAffinity>  (1) 
-5.61462116

>  <minimizedRMSD>  (1) 
5.0417366

$$$$
