
     RDKit          3D

 34 37  0  0  0  0  0  0  0  0999 V2000
   46.2940   32.3440   46.5300 C   0  0  0  0  0  0  0  0  0  0  0  0
   45.3890   32.9300   47.3950 C   0  0  0  0  0  0  0  0  0  0  0  0
   44.6800   34.0720   47.0930 C   0  0  0  0  0  0  0  0  0  0  0  0
   44.8420   34.7030   45.8890 C   0  0  0  0  0  0  0  0  0  0  0  0
   45.7290   34.1500   45.0140 C   0  0  0  0  0  0  0  0  0  0  0  0
   45.8930   34.7920   43.7880 C   0  0  0  0  0  0  0  0  0  0  0  0
   46.7640   34.3010   42.8550 C   0  0  0  0  0  0  0  0  0  0  0  0
   47.4790   33.1450   43.1630 C   0  0  0  0  0  0  0  0  0  0  0  0
   47.2640   32.5660   44.3930 C   0  0  0  0  0  0  0  0  0  0  0  0
   46.4100   33.0140   45.3580 C   0  0  0  0  0  0  0  0  0  0  0  0
   47.7240   28.9120   46.8710 C   0  0  0  0  0  0  0  0  0  0  0  0
   48.6160   29.1140   47.9420 C   0  0  0  0  0  0  0  0  0  0  0  0
   48.6710   30.3980   48.4720 C   0  0  0  0  0  0  0  0  0  0  0  0
   47.8640   31.3200   47.9050 N   0  0  0  0  0  0  0  0  0  0  0  0
   47.0080   31.1420   46.8810 C   0  0  0  0  0  0  0  0  0  0  0  0
   47.0090   29.9190   46.4370 N   0  0  0  0  0  0  0  0  0  0  0  0
   49.5630   30.7030   49.5830 C   0  0  0  0  0  0  0  0  0  0  0  0
   50.0950   31.9700   49.6960 C   0  0  0  0  0  0  0  0  0  0  0  0
   50.9290   32.1770   50.7750 C   0  0  0  0  0  0  0  0  0  0  0  0
   51.2040   31.1880   51.6680 N   0  0  0  0  0  0  0  0  0  0  0  0
   50.6650   29.9560   51.5280 C   0  0  0  0  0  0  0  0  0  0  0  0
   49.8410   29.7500   50.4630 N   0  0  0  0  0  0  0  0  0  0  0  0
   45.2263   32.4598   48.3761 H   0  0  0  0  0  0  0  0  0  0  0  0
   43.9738   34.4826   47.8297 H   0  0  0  0  0  0  0  0  0  0  0  0
   44.2813   35.6157   45.6387 H   0  0  0  0  0  0  0  0  0  0  0  0
   45.3162   35.7026   43.5686 H   0  0  0  0  0  0  0  0  0  0  0  0
   46.8968   34.8054   41.8865 H   0  0  0  0  0  0  0  0  0  0  0  0
   48.1915   32.7098   42.4468 H   0  0  0  0  0  0  0  0  0  0  0  0
   47.8359   31.6541   44.6198 H   0  0  0  0  0  0  0  0  0  0  0  0
   47.6293   27.9202   46.4049 H   0  0  0  0  0  0  0  0  0  0  0  0
   49.2373   28.2976   48.3388 H   0  0  0  0  0  0  0  0  0  0  0  0
   49.8685   32.7658   48.9712 H   0  0  0  0  0  0  0  0  0  0  0  0
   51.3840   33.1683   50.9173 H   0  0  0  0  0  0  0  0  0  0  0  0
   50.8833   29.1516   52.2459 H   0  0  0  0  0  0  0  0  0  0  0  0
  1 15  1  0
  1  2  2  0
  3  2  1  0
  4  3  2  0
  5 10  2  0
  5  4  1  0
  6  5  1  0
  7  8  1  0
  7  6  2  0
  8  9  2  0
  9 10  1  0
 10  1  1  0
 11 12  2  0
 12 13  1  0
 13 17  1  0
 14 13  2  0
 15 14  1  0
 16 11  1  0
 16 15  2  0
 17 18  2  0
 17 22  1  0
 18 19  1  0
 19 20  2  0
 21 20  1  0
 22 21  2  0
  2 23  1  0
  3 24  1  0
  4 25  1  0
  6 26  1  0
  7 27  1  0
  8 28  1  0
  9 29  1  0
 11 30  1  0
 12 31  1  0
 18 32  1  0
 19 33  1  0
 21 34  1  0
M  ISO  8  23  14  24  14  25  14  26  14  27  14  28  14  29  14  30  14
M  ISO  4  31  14  32  14  33  14  34  14
M  END
>  <minimizedAffinity>  (1) 
-5.57218218

>  <minimizedRMSD>  (1) 
7.86110258

$$$$
