
     RDKit          3D

 33 36  0  0  0  0  0  0  0  0999 V2000
   45.7590   31.2480   45.3560 C   0  0  0  0  0  0  0  0  0  0  0  0
   45.4350   30.0460   44.7680 C   0  0  0  0  0  0  0  0  0  0  0  0
   45.0310   28.9350   45.4640 C   0  0  0  0  0  0  0  0  0  0  0  0
   44.9280   28.9720   46.8290 C   0  0  0  0  0  0  0  0  0  0  0  0
   45.2380   30.1390   47.4470 C   0  0  0  0  0  0  0  0  0  0  0  0
   45.1270   30.1650   48.8390 C   0  0  0  0  0  0  0  0  0  0  0  0
   45.4250   31.3130   49.5360 C   0  0  0  0  0  0  0  0  0  0  0  0
   45.8360   32.4380   48.8220 C   0  0  0  0  0  0  0  0  0  0  0  0
   45.9180   32.3310   47.4600 C   0  0  0  0  0  0  0  0  0  0  0  0
   45.6360   31.2220   46.7140 C   0  0  0  0  0  0  0  0  0  0  0  0
   46.2350   34.5340   43.6570 C   0  0  0  0  0  0  0  0  0  0  0  0
   47.3950   34.2930   42.9170 C   0  0  0  0  0  0  0  0  0  0  0  0
   47.9120   33.0360   43.0610 C   0  0  0  0  0  0  0  0  0  0  0  0
   47.2780   32.1800   43.8750 N   0  0  0  0  0  0  0  0  0  0  0  0
   46.1740   32.3950   44.5870 C   0  0  0  0  0  0  0  0  0  0  0  0
   45.7220   33.5970   44.4160 N   0  0  0  0  0  0  0  0  0  0  0  0
   49.1200   32.6750   42.3390 C   0  0  0  0  0  0  0  0  0  0  0  0
   50.5080   33.0050   42.4610 C   0  0  0  0  0  0  0  0  0  0  0  0
   51.3550   32.4550   41.5750 C   0  0  0  0  0  0  0  0  0  0  0  0
   50.8730   31.5590   40.5320 C   0  0  0  0  0  0  0  0  0  0  0  0
   49.0100   31.5530   40.9280 S   0  0  0  0  0  0  0  0  0  0  0  0
   45.5043   29.9719   43.6727 H   0  0  0  0  0  0  0  0  0  0  0  0
   44.7883   28.0089   44.9223 H   0  0  0  0  0  0  0  0  0  0  0  0
   44.6064   28.0898   47.4020 H   0  0  0  0  0  0  0  0  0  0  0  0
   44.8002   29.2646   49.3798 H   0  0  0  0  0  0  0  0  0  0  0  0
   45.3409   31.3428   50.6324 H   0  0  0  0  0  0  0  0  0  0  0  0
   46.0855   33.3783   49.3353 H   0  0  0  0  0  0  0  0  0  0  0  0
   46.2434   33.2273   46.9115 H   0  0  0  0  0  0  0  0  0  0  0  0
   45.7480   35.5188   43.6021 H   0  0  0  0  0  0  0  0  0  0  0  0
   47.8556   35.0541   42.2700 H   0  0  0  0  0  0  0  0  0  0  0  0
   50.8669   33.6826   43.2497 H   0  0  0  0  0  0  0  0  0  0  0  0
   52.4289   32.6846   41.6379 H   0  0  0  0  0  0  0  0  0  0  0  0
   51.4279   31.0346   39.7401 H   0  0  0  0  0  0  0  0  0  0  0  0
  1 10  1  0
  2  1  2  0
  2  3  1  0
  3  4  2  0
  4  5  1  0
  5  6  1  0
  6  7  2  0
  8  7  1  0
  9  8  2  0
 10  5  2  0
 10  9  1  0
 11 16  2  0
 12 13  2  0
 12 11  1  0
 13 14  1  0
 14 15  2  0
 15  1  1  0
 16 15  1  0
 17 18  2  0
 17 13  1  0
 19 18  1  0
 20 21  1  0
 20 19  2  0
 21 17  1  0
  2 22  1  0
  3 23  1  0
  4 24  1  0
  6 25  1  0
  7 26  1  0
  8 27  1  0
  9 28  1  0
 11 29  1  0
 12 30  1  0
 18 31  1  0
 19 32  1  0
 20 33  1  0
M  ISO  8  22  14  23  14  24  14  25  14  26  14  27  14  28  14  29  14
M  ISO  4  30  14  31  14  32  14  33  14
M  END
>  <minimizedAffinity>  (1) 
-5.48877764

>  <minimizedRMSD>  (1) 
3.10265422

$$$$
