
     RDKit          3D

 36 39  0  0  0  0  0  0  0  0999 V2000
   47.0950   33.0850   43.6920 C   0  0  0  0  0  0  0  0  0  0  0  0
   47.2260   32.1750   44.7260 C   0  0  0  0  0  0  0  0  0  0  0  0
   46.5530   32.2830   45.9250 C   0  0  0  0  0  0  0  0  0  0  0  0
   45.6970   33.3280   46.1570 C   0  0  0  0  0  0  0  0  0  0  0  0
   45.5470   34.2360   45.1640 C   0  0  0  0  0  0  0  0  0  0  0  0
   44.6770   35.2920   45.4080 C   0  0  0  0  0  0  0  0  0  0  0  0
   44.4710   36.2620   44.4390 C   0  0  0  0  0  0  0  0  0  0  0  0
   45.1530   36.1490   43.2310 C   0  0  0  0  0  0  0  0  0  0  0  0
   45.9950   35.0740   43.0710 C   0  0  0  0  0  0  0  0  0  0  0  0
   46.2350   34.0920   43.9880 C   0  0  0  0  0  0  0  0  0  0  0  0
   48.4010   33.1510   40.1910 C   0  0  0  0  0  0  0  0  0  0  0  0
   49.5280   32.3160   40.3330 C   0  0  0  0  0  0  0  0  0  0  0  0
   49.7640   31.7950   41.5950 C   0  0  0  0  0  0  0  0  0  0  0  0
   48.8910   32.1380   42.5690 N   0  0  0  0  0  0  0  0  0  0  0  0
   47.8110   32.9330   42.4510 C   0  0  0  0  0  0  0  0  0  0  0  0
   47.6540   33.3830   41.2380 N   0  0  0  0  0  0  0  0  0  0  0  0
   50.8910   30.9190   41.8830 C   0  0  0  0  0  0  0  0  0  0  0  0
   51.1210   30.3970   43.1320 C   0  0  0  0  0  0  0  0  0  0  0  0
   52.2000   29.5610   43.3950 C   0  0  0  0  0  0  0  0  0  0  0  0
   53.0630   29.2540   42.3520 C   0  0  0  0  0  0  0  0  0  0  0  0
   52.8490   29.7700   41.0850 C   0  0  0  0  0  0  0  0  0  0  0  0
   51.7630   30.5970   40.8660 C   0  0  0  0  0  0  0  0  0  0  0  0
   47.9031   31.3197   44.5842 H   0  0  0  0  0  0  0  0  0  0  0  0
   46.7050   31.5216   46.7042 H   0  0  0  0  0  0  0  0  0  0  0  0
   45.1550   33.4248   47.1093 H   0  0  0  0  0  0  0  0  0  0  0  0
   44.1509   35.3583   46.3717 H   0  0  0  0  0  0  0  0  0  0  0  0
   43.7842   37.1018   44.6208 H   0  0  0  0  0  0  0  0  0  0  0  0
   45.0229   36.8939   42.4321 H   0  0  0  0  0  0  0  0  0  0  0  0
   46.5267   34.9980   42.1110 H   0  0  0  0  0  0  0  0  0  0  0  0
   48.1549   33.5990   39.2170 H   0  0  0  0  0  0  0  0  0  0  0  0
   50.1882   32.0891   39.4829 H   0  0  0  0  0  0  0  0  0  0  0  0
   50.4298   30.6482   43.9500 H   0  0  0  0  0  0  0  0  0  0  0  0
   52.3656   29.1534   44.4032 H   0  0  0  0  0  0  0  0  0  0  0  0
   53.9247   28.5948   42.5336 H   0  0  0  0  0  0  0  0  0  0  0  0
   53.5358   29.5245   40.2615 H   0  0  0  0  0  0  0  0  0  0  0  0
   51.5916   31.0062   39.8594 H   0  0  0  0  0  0  0  0  0  0  0  0
  1 10  1  0
  1  2  2  0
  2  3  1  0
  3  4  2  0
  5  6  2  0
  5  4  1  0
  7  6  1  0
  8  7  2  0
  9  8  1  0
  9 10  2  0
 10  5  1  0
 11 12  2  0
 11 16  1  0
 12 13  1  0
 13 17  1  0
 13 14  2  0
 15 14  1  0
 15  1  1  0
 16 15  2  0
 17 18  2  0
 18 19  1  0
 20 19  2  0
 21 20  1  0
 22 21  2  0
 22 17  1  0
  2 23  1  0
  3 24  1  0
  4 25  1  0
  6 26  1  0
  7 27  1  0
  8 28  1  0
  9 29  1  0
 11 30  1  0
 12 31  1  0
 18 32  1  0
 19 33  1  0
 20 34  1  0
 21 35  1  0
 22 36  1  0
M  ISO  8  23  14  24  14  25  14  26  14  27  14  28  14  29  14  30  14
M  ISO  6  31  14  32  14  33  14  34  14  35  14  36  14
M  END
>  <minimizedAffinity>  (1) 
-5.38311958

>  <minimizedRMSD>  (1) 
5.89520645

$$$$
