
     RDKit          3D

 27 29  0  0  0  0  0  0  0  0999 V2000
   46.4810   32.4560   45.3860 C   0  0  0  0  0  0  0  0  0  0  0  0
   47.2430   31.6490   44.5640 C   0  0  0  0  0  0  0  0  0  0  0  0
   47.8060   30.4540   44.9680 C   0  0  0  0  0  0  0  0  0  0  0  0
   47.6260   30.0000   46.2540 C   0  0  0  0  0  0  0  0  0  0  0  0
   46.8860   30.7700   47.0800 C   0  0  0  0  0  0  0  0  0  0  0  0
   46.7110   30.2980   48.3790 C   0  0  0  0  0  0  0  0  0  0  0  0
   45.9630   31.0340   49.2860 C   0  0  0  0  0  0  0  0  0  0  0  0
   45.4000   32.2340   48.8720 C   0  0  0  0  0  0  0  0  0  0  0  0
   45.6210   32.6290   47.5710 C   0  0  0  0  0  0  0  0  0  0  0  0
   46.3470   31.9470   46.6370 C   0  0  0  0  0  0  0  0  0  0  0  0
   44.6130   35.6360   44.8330 C   0  0  0  0  0  0  0  0  0  0  0  0
   45.0860   35.9940   43.5570 C   0  0  0  0  0  0  0  0  0  0  0  0
   46.0140   35.1280   42.9680 C   0  0  0  0  0  0  0  0  0  0  0  0
   46.3580   34.0390   43.6860 N   0  0  0  0  0  0  0  0  0  0  0  0
   45.9100   33.6890   44.9090 C   0  0  0  0  0  0  0  0  0  0  0  0
   45.0510   34.5390   45.3960 N   0  0  0  0  0  0  0  0  0  0  0  0
   46.5420   35.3910   41.7110 O   0  0  0  0  0  0  0  0  0  0  0  0
   47.4113   31.9769   43.5276 H   0  0  0  0  0  0  0  0  0  0  0  0
   48.4016   29.8621   44.2574 H   0  0  0  0  0  0  0  0  0  0  0  0
   48.0658   29.0510   46.5945 H   0  0  0  0  0  0  0  0  0  0  0  0
   47.1650   29.3438   48.6847 H   0  0  0  0  0  0  0  0  0  0  0  0
   45.8183   30.6735   50.3151 H   0  0  0  0  0  0  0  0  0  0  0  0
   44.7986   32.8476   49.5589 H   0  0  0  0  0  0  0  0  0  0  0  0
   45.1711   33.5818   47.2553 H   0  0  0  0  0  0  0  0  0  0  0  0
   43.8816   36.2726   45.3525 H   0  0  0  0  0  0  0  0  0  0  0  0
   44.7439   36.9076   43.0487 H   0  0  0  0  0  0  0  0  0  0  0  0
   47.1976   34.7675   41.3091 H   0  0  0  0  0  0  0  0  0  0  0  0
  1 10  2  0
  2  3  2  0
  2  1  1  0
  3  4  1  0
  4  5  2  0
  5  6  1  0
  6  7  2  0
  8  7  1  0
  9  8  2  0
 10  5  1  0
 10  9  1  0
 11 16  2  0
 12 11  1  0
 13 12  2  0
 13 14  1  0
 14 15  2  0
 15  1  1  0
 15 16  1  0
 17 13  1  0
  2 18  1  0
  3 19  1  0
  4 20  1  0
  6 21  1  0
  7 22  1  0
  8 23  1  0
  9 24  1  0
 11 25  1  0
 12 26  1  0
 17 27  1  0
M  ISO  8  18  14  19  14  20  14  21  14  22  14  23  14  24  14  25  14
M  ISO  2  26  14  27   3
M  END
>  <minimizedAffinity>  (1) 
-5.35239553

>  <minimizedRMSD>  (1) 
0.232837692

$$$$
