
     RDKit          3D

 29 31  0  0  0  0  0  0  0  0999 V2000
   46.7280   32.1490   45.2120 C   0  0  0  0  0  0  0  0  0  0  0  0
   47.5110   31.2100   44.5710 C   0  0  0  0  0  0  0  0  0  0  0  0
   47.9900   30.0720   45.1840 C   0  0  0  0  0  0  0  0  0  0  0  0
   47.7060   29.8090   46.4900 C   0  0  0  0  0  0  0  0  0  0  0  0
   46.9450   30.7030   47.1490 C   0  0  0  0  0  0  0  0  0  0  0  0
   46.6600   30.4240   48.4820 C   0  0  0  0  0  0  0  0  0  0  0  0
   45.8840   31.2960   49.2200 C   0  0  0  0  0  0  0  0  0  0  0  0
   45.3980   32.4500   48.6060 C   0  0  0  0  0  0  0  0  0  0  0  0
   45.7240   32.6490   47.2910 C   0  0  0  0  0  0  0  0  0  0  0  0
   46.4840   31.8260   46.5060 C   0  0  0  0  0  0  0  0  0  0  0  0
   44.8720   35.1420   43.9590 C   0  0  0  0  0  0  0  0  0  0  0  0
   45.7530   35.5710   42.9470 C   0  0  0  0  0  0  0  0  0  0  0  0
   46.8970   34.8260   42.7640 C   0  0  0  0  0  0  0  0  0  0  0  0
   47.0640   33.7560   43.5730 N   0  0  0  0  0  0  0  0  0  0  0  0
   46.2340   33.3310   44.5460 C   0  0  0  0  0  0  0  0  0  0  0  0
   45.1770   34.0840   44.6590 N   0  0  0  0  0  0  0  0  0  0  0  0
   47.8690   35.2210   41.7140 C   0  0  0  0  0  0  0  0  0  0  0  0
   47.7664   31.3789   43.5145 H   0  0  0  0  0  0  0  0  0  0  0  0
   48.6099   29.3669   44.6108 H   0  0  0  0  0  0  0  0  0  0  0  0
   48.0832   28.9027   46.9863 H   0  0  0  0  0  0  0  0  0  0  0  0
   47.0530   29.5085   48.9482 H   0  0  0  0  0  0  0  0  0  0  0  0
   45.6531   31.0839   50.2744 H   0  0  0  0  0  0  0  0  0  0  0  0
   44.7771   33.1721   49.1565 H   0  0  0  0  0  0  0  0  0  0  0  0
   45.3355   33.5630   46.8181 H   0  0  0  0  0  0  0  0  0  0  0  0
   43.9397   35.6914   44.1564 H   0  0  0  0  0  0  0  0  0  0  0  0
   45.5378   36.4578   42.3328 H   0  0  0  0  0  0  0  0  0  0  0  0
   48.7887   35.5948   42.1877 H   0  0  0  0  0  0  0  0  0  0  0  0
   48.1074   34.3484   41.0881 H   0  0  0  0  0  0  0  0  0  0  0  0
   47.4312   36.0125   41.0881 H   0  0  0  0  0  0  0  0  0  0  0  0
  1 10  2  0
  2  3  2  0
  2  1  1  0
  3  4  1  0
  4  5  2  0
  5  6  1  0
  6  7  2  0
  8  7  1  0
  9  8  2  0
 10  5  1  0
 10  9  1  0
 11 16  2  0
 12 11  1  0
 13 12  2  0
 13 14  1  0
 14 15  2  0
 15 16  1  0
 15  1  1  0
 17 13  1  0
  2 18  1  0
  3 19  1  0
  4 20  1  0
  6 21  1  0
  7 22  1  0
  8 23  1  0
  9 24  1  0
 11 25  1  0
 12 26  1  0
 17 27  1  0
 17 28  1  0
 17 29  1  0
M  ISO  8  18  14  19  14  20  14  21  14  22  14  23  14  24  14  25  14
M  ISO  4  26  14  27   8  28   8  29   8
M  END
>  <minimizedAffinity>  (1) 
-5.26219845

>  <minimizedRMSD>  (1) 
0.744367898

$$$$
