
     RDKit          3D

 32 35  0  0  0  0  0  0  0  0999 V2000
   46.0290   32.0970   44.7110 C   0  0  0  0  0  0  0  0  0  0  0  0
   45.9960   31.0480   43.8090 C   0  0  0  0  0  0  0  0  0  0  0  0
   46.5320   29.8070   44.0580 C   0  0  0  0  0  0  0  0  0  0  0  0
   47.1520   29.5380   45.2570 C   0  0  0  0  0  0  0  0  0  0  0  0
   47.2020   30.5400   46.1590 C   0  0  0  0  0  0  0  0  0  0  0  0
   47.8290   30.2590   47.3670 C   0  0  0  0  0  0  0  0  0  0  0  0
   47.9220   31.2370   48.3470 C   0  0  0  0  0  0  0  0  0  0  0  0
   47.3740   32.4960   48.0870 C   0  0  0  0  0  0  0  0  0  0  0  0
   46.7710   32.6920   46.8670 C   0  0  0  0  0  0  0  0  0  0  0  0
   46.6520   31.7670   45.8690 C   0  0  0  0  0  0  0  0  0  0  0  0
   44.7460   35.6000   44.6290 C   0  0  0  0  0  0  0  0  0  0  0  0
   44.1960   35.6330   43.3360 C   0  0  0  0  0  0  0  0  0  0  0  0
   44.2990   34.4780   42.5900 C   0  0  0  0  0  0  0  0  0  0  0  0
   44.9160   33.4380   43.1790 N   0  0  0  0  0  0  0  0  0  0  0  0
   45.4490   33.3790   44.4100 C   0  0  0  0  0  0  0  0  0  0  0  0
   45.3140   34.5020   45.0490 N   0  0  0  0  0  0  0  0  0  0  0  0
   43.7570   34.4270   41.2440 C   0  0  0  0  0  0  0  0  0  0  0  0
   44.2170   33.4090   40.3290 C   0  0  0  0  0  0  0  0  0  0  0  0
   43.2410   33.7560   38.7570 S   0  0  0  0  0  0  0  0  0  0  0  0
   42.4070   35.2040   39.6450 C   0  0  0  0  0  0  0  0  0  0  0  0
   42.8620   35.1930   40.6690 N   0  0  0  0  0  0  0  0  0  0  0  0
   45.5124   31.2172   42.8356 H   0  0  0  0  0  0  0  0  0  0  0  0
   46.4648   29.0210   43.2914 H   0  0  0  0  0  0  0  0  0  0  0  0
   47.5872   28.5505   45.4702 H   0  0  0  0  0  0  0  0  0  0  0  0
   48.2522   29.2597   47.5466 H   0  0  0  0  0  0  0  0  0  0  0  0
   48.4160   31.0260   49.3069 H   0  0  0  0  0  0  0  0  0  0  0  0
   47.4234   33.3028   48.8331 H   0  0  0  0  0  0  0  0  0  0  0  0
   46.3441   33.6878   46.6767 H   0  0  0  0  0  0  0  0  0  0  0  0
   44.6986   36.4869   45.2780 H   0  0  0  0  0  0  0  0  0  0  0  0
   43.7078   36.5352   42.9390 H   0  0  0  0  0  0  0  0  0  0  0  0
   44.9609   32.6187   40.5080 H   0  0  0  0  0  0  0  0  0  0  0  0
   41.6503   35.8966   39.2478 H   0  0  0  0  0  0  0  0  0  0  0  0
  1 10  2  0
  2  3  2  0
  2  1  1  0
  3  4  1  0
  4  5  2  0
  5  6  1  0
  6  7  2  0
  8  7  1  0
  9  8  2  0
 10  5  1  0
 10  9  1  0
 11 16  2  0
 12 11  1  0
 13 14  1  0
 13 12  2  0
 14 15  2  0
 15  1  1  0
 15 16  1  0
 17 13  1  0
 18 17  2  0
 19 20  1  0
 19 18  1  0
 20 21  2  0
 21 17  1  0
  2 22  1  0
  3 23  1  0
  4 24  1  0
  6 25  1  0
  7 26  1  0
  8 27  1  0
  9 28  1  0
 11 29  1  0
 12 30  1  0
 18 31  1  0
 20 32  1  0
M  ISO  8  22  14  23  14  24  14  25  14  26  14  27  14  28  14  29  14
M  ISO  3  30  14  31  14  32  14
M  END
>  <minimizedAffinity>  (1) 
-5.1959157

>  <minimizedRMSD>  (1) 
2.45110583

$$$$
