
     RDKit          3D

 47 51  0  0  0  0  0  0  0  0999 V2000
   44.5670   35.7870   44.6150 C   0  0  0  0  0  0  0  0  0  0  0  0
   44.0560   35.5840   43.3210 C   0  0  0  0  0  0  0  0  0  0  0  0
   44.3270   34.3720   42.7280 C   0  0  0  0  0  0  0  0  0  0  0  0
   45.0510   33.5220   43.4610 N   0  0  0  0  0  0  0  0  0  0  0  0
   45.5590   33.6670   44.6930 C   0  0  0  0  0  0  0  0  0  0  0  0
   45.2520   34.8260   45.1590 N   0  0  0  0  0  0  0  0  0  0  0  0
   46.2860   32.5130   45.1470 C   0  0  0  0  0  0  0  0  0  0  0  0
   47.0910   31.7750   44.3050 C   0  0  0  0  0  0  0  0  0  0  0  0
   47.7980   30.6680   44.7170 C   0  0  0  0  0  0  0  0  0  0  0  0
   47.7370   30.2310   46.0190 C   0  0  0  0  0  0  0  0  0  0  0  0
   46.9590   30.9360   46.8580 C   0  0  0  0  0  0  0  0  0  0  0  0
   46.8920   30.5010   48.1790 C   0  0  0  0  0  0  0  0  0  0  0  0
   46.1160   31.1680   49.1060 C   0  0  0  0  0  0  0  0  0  0  0  0
   45.4000   32.2920   48.6840 C   0  0  0  0  0  0  0  0  0  0  0  0
   45.5210   32.6520   47.3680 C   0  0  0  0  0  0  0  0  0  0  0  0
   46.2660   32.0340   46.4180 C   0  0  0  0  0  0  0  0  0  0  0  0
   43.8260   34.0950   41.3990 C   0  0  0  0  0  0  0  0  0  0  0  0
   44.6580   33.3910   40.4740 C   0  0  0  0  0  0  0  0  0  0  0  0
   43.6020   33.2540   38.9320 S   0  0  0  0  0  0  0  0  0  0  0  0
   42.2140   34.1900   39.8440 C   0  0  0  0  0  0  0  0  0  0  0  0
   42.6720   34.3750   40.8430 N   0  0  0  0  0  0  0  0  0  0  0  0
   40.8570   34.6030   39.4490 N   0  0  0  0  0  0  0  0  0  0  0  0
   40.6220   34.7180   38.0280 C   0  0  0  0  0  0  0  0  0  0  0  0
   39.1550   34.5610   37.7710 C   0  0  0  0  0  0  0  0  0  0  0  0
   38.5690   33.4650   38.6420 C   0  0  0  0  0  0  0  0  0  0  0  0
   38.7470   33.7580   40.1230 C   0  0  0  0  0  0  0  0  0  0  0  0
   39.7480   34.9050   40.3090 C   0  0  0  0  0  0  0  0  0  0  0  0
   44.3921   36.7315   45.1511 H   0  0  0  0  0  0  0  0  0  0  0  0
   43.4671   36.3577   42.8066 H   0  0  0  0  0  0  0  0  0  0  0  0
   47.1721   32.0860   43.2530 H   0  0  0  0  0  0  0  0  0  0  0  0
   48.4220   30.1242   43.9925 H   0  0  0  0  0  0  0  0  0  0  0  0
   48.2977   29.3473   46.3576 H   0  0  0  0  0  0  0  0  0  0  0  0
   47.4648   29.6143   48.4881 H   0  0  0  0  0  0  0  0  0  0  0  0
   46.0626   30.8239   50.1494 H   0  0  0  0  0  0  0  0  0  0  0  0
   44.7666   32.8628   49.3790 H   0  0  0  0  0  0  0  0  0  0  0  0
   44.9528   33.5376   47.0471 H   0  0  0  0  0  0  0  0  0  0  0  0
   45.6804   33.0167   40.6309 H   0  0  0  0  0  0  0  0  0  0  0  0
   40.9561   35.7052   37.6760 H   0  0  0  0  0  0  0  0  0  0  0  0
   41.1827   33.9390   37.4906 H   0  0  0  0  0  0  0  0  0  0  0  0
   38.6462   35.5102   37.9948 H   0  0  0  0  0  0  0  0  0  0  0  0
   39.0095   34.2879   36.7154 H   0  0  0  0  0  0  0  0  0  0  0  0
   37.4945   33.3749   38.4245 H   0  0  0  0  0  0  0  0  0  0  0  0
   39.1009   32.5294   38.4145 H   0  0  0  0  0  0  0  0  0  0  0  0
   37.7780   34.0449   40.5575 H   0  0  0  0  0  0  0  0  0  0  0  0
   39.1278   32.8581   40.6281 H   0  0  0  0  0  0  0  0  0  0  0  0
   40.0794   34.9574   41.3566 H   0  0  0  0  0  0  0  0  0  0  0  0
   39.2981   35.8777   40.0612 H   0  0  0  0  0  0  0  0  0  0  0  0
  1  6  2  0
  2  1  1  0
  3  2  2  0
  3  4  1  0
  4  5  2  0
  5  7  1  0
  5  6  1  0
  7 16  2  0
  8  9  2  0
  8  7  1  0
  9 10  1  0
 10 11  2  0
 11 12  1  0
 12 13  2  0
 14 13  1  0
 15 14  2  0
 16 11  1  0
 16 15  1  0
 17  3  1  0
 18 17  2  0
 19 20  1  0
 19 18  1  0
 20 21  2  0
 21 17  1  0
 22 20  1  0
 22 27  1  0
 23 22  1  0
 24 23  1  0
 24 25  1  0
 25 26  1  0
 26 27  1  0
  1 28  1  0
  2 29  1  0
  8 30  1  0
  9 31  1  0
 10 32  1  0
 12 33  1  0
 13 34  1  0
 14 35  1  0
 15 36  1  0
 18 37  1  0
 23 38  1  0
 23 39  1  0
 24 40  1  0
 24 41  1  0
 25 42  1  0
 25 43  1  0
 26 44  1  0
 26 45  1  0
 27 46  1  0
 27 47  1  0
M  ISO  8  28  14  29  14  30  14  31  14  32  14  33  14  34  14  35  14
M  ISO  8  36  14  37  14  38  13  39  13  40  13  41  13  42  13  43  13
M  ISO  4  44  13  45  13  46  13  47  13
M  END
>  <minimizedAffinity>  (1) 
-7.86485529

>  <minimizedRMSD>  (1) 
1.42075133

$$$$
