
     RDKit          3D

 39 43  0  0  0  0  0  0  0  0999 V2000
   44.6210   35.7760   44.7400 C   0  0  0  0  0  0  0  0  0  0  0  0
   44.1290   35.6160   43.4340 C   0  0  0  0  0  0  0  0  0  0  0  0
   44.4060   34.4230   42.8170 C   0  0  0  0  0  0  0  0  0  0  0  0
   45.1240   33.5250   43.5290 N   0  0  0  0  0  0  0  0  0  0  0  0
   45.6030   33.6550   44.7790 C   0  0  0  0  0  0  0  0  0  0  0  0
   45.2930   34.8010   45.2710 N   0  0  0  0  0  0  0  0  0  0  0  0
   46.3180   32.4980   45.2280 C   0  0  0  0  0  0  0  0  0  0  0  0
   47.1280   31.7550   44.3710 C   0  0  0  0  0  0  0  0  0  0  0  0
   47.8190   30.6370   44.7610 C   0  0  0  0  0  0  0  0  0  0  0  0
   47.7460   30.1830   46.0480 C   0  0  0  0  0  0  0  0  0  0  0  0
   46.9690   30.8800   46.9110 C   0  0  0  0  0  0  0  0  0  0  0  0
   46.8930   30.4210   48.2190 C   0  0  0  0  0  0  0  0  0  0  0  0
   46.1250   31.0750   49.1570 C   0  0  0  0  0  0  0  0  0  0  0  0
   45.4290   32.2050   48.7530 C   0  0  0  0  0  0  0  0  0  0  0  0
   45.5510   32.5980   47.4490 C   0  0  0  0  0  0  0  0  0  0  0  0
   46.2910   31.9920   46.4880 C   0  0  0  0  0  0  0  0  0  0  0  0
   43.9360   34.1550   41.4650 C   0  0  0  0  0  0  0  0  0  0  0  0
   44.8720   33.6950   40.4570 C   0  0  0  0  0  0  0  0  0  0  0  0
   43.7710   33.5010   38.9350 S   0  0  0  0  0  0  0  0  0  0  0  0
   42.3000   34.0740   39.9640 C   0  0  0  0  0  0  0  0  0  0  0  0
   42.7130   34.2670   40.9770 N   0  0  0  0  0  0  0  0  0  0  0  0
   40.9150   34.2200   39.4790 N   0  0  0  0  0  0  0  0  0  0  0  0
   39.9360   34.1920   40.3950 C   0  0  0  0  0  0  0  0  0  0  0  0
   38.7430   34.3440   39.7180 C   0  0  0  0  0  0  0  0  0  0  0  0
   39.0760   34.4550   38.4200 N   0  0  0  0  0  0  0  0  0  0  0  0
   40.4120   34.3790   38.2680 C   0  0  0  0  0  0  0  0  0  0  0  0
   44.4409   36.7058   45.2994 H   0  0  0  0  0  0  0  0  0  0  0  0
   43.5516   36.4065   42.9323 H   0  0  0  0  0  0  0  0  0  0  0  0
   47.2177   32.0834   43.3250 H   0  0  0  0  0  0  0  0  0  0  0  0
   48.4396   30.0989   44.0293 H   0  0  0  0  0  0  0  0  0  0  0  0
   48.2966   29.2869   46.3702 H   0  0  0  0  0  0  0  0  0  0  0  0
   47.4547   29.5213   48.5108 H   0  0  0  0  0  0  0  0  0  0  0  0
   46.0654   30.7126   50.1939 H   0  0  0  0  0  0  0  0  0  0  0  0
   44.7994   32.7666   49.4588 H   0  0  0  0  0  0  0  0  0  0  0  0
   44.9922   33.4968   47.1493 H   0  0  0  0  0  0  0  0  0  0  0  0
   45.9513   33.5066   40.5545 H   0  0  0  0  0  0  0  0  0  0  0  0
   40.0604   34.0707   41.4812 H   0  0  0  0  0  0  0  0  0  0  0  0
   37.7316   34.3691   40.1498 H   0  0  0  0  0  0  0  0  0  0  0  0
   40.9727   34.4377   37.3234 H   0  0  0  0  0  0  0  0  0  0  0  0
  1  6  2  0
  2  1  1  0
  3  2  2  0
  3  4  1  0
  4  5  2  0
  5  7  1  0
  5  6  1  0
  7 16  2  0
  8  9  2  0
  8  7  1  0
  9 10  1  0
 10 11  2  0
 11 12  1  0
 12 13  2  0
 14 13  1  0
 15 14  2  0
 16 11  1  0
 16 15  1  0
 17  3  1  0
 18 17  2  0
 19 20  1  0
 19 18  1  0
 20 21  2  0
 21 17  1  0
 22 20  1  0
 22 23  1  0
 24 23  2  0
 25 24  1  0
 26 25  2  0
 26 22  1  0
  1 27  1  0
  2 28  1  0
  8 29  1  0
  9 30  1  0
 10 31  1  0
 12 32  1  0
 13 33  1  0
 14 34  1  0
 15 35  1  0
 18 36  1  0
 23 37  1  0
 24 38  1  0
 26 39  1  0
M  ISO  8  27  14  28  14  29  14  30  14  31  14  32  14  33  14  34  14
M  ISO  5  35  14  36  14  37  14  38  14  39  14
M  END
>  <minimizedAffinity>  (1) 
-7.11490059

>  <minimizedRMSD>  (1) 
1.48902905

$$$$
