
     RDKit          3D

 38 42  0  0  0  0  0  0  0  0999 V2000
   44.6440   35.7550   44.7850 C   0  0  0  0  0  0  0  0  0  0  0  0
   44.1510   35.6000   43.4760 C   0  0  0  0  0  0  0  0  0  0  0  0
   44.4300   34.4110   42.8590 C   0  0  0  0  0  0  0  0  0  0  0  0
   45.1500   33.5120   43.5750 N   0  0  0  0  0  0  0  0  0  0  0  0
   45.6280   33.6360   44.8220 C   0  0  0  0  0  0  0  0  0  0  0  0
   45.3190   34.7810   45.3210 N   0  0  0  0  0  0  0  0  0  0  0  0
   46.3430   32.4730   45.2600 C   0  0  0  0  0  0  0  0  0  0  0  0
   47.1510   31.7370   44.4000 C   0  0  0  0  0  0  0  0  0  0  0  0
   47.8450   30.6150   44.7890 C   0  0  0  0  0  0  0  0  0  0  0  0
   47.7700   30.1560   46.0800 C   0  0  0  0  0  0  0  0  0  0  0  0
   46.9900   30.8530   46.9400 C   0  0  0  0  0  0  0  0  0  0  0  0
   46.9160   30.3880   48.2460 C   0  0  0  0  0  0  0  0  0  0  0  0
   46.1430   31.0430   49.1800 C   0  0  0  0  0  0  0  0  0  0  0  0
   45.4450   32.1750   48.7840 C   0  0  0  0  0  0  0  0  0  0  0  0
   45.5720   32.5670   47.4810 C   0  0  0  0  0  0  0  0  0  0  0  0
   46.3140   31.9660   46.5180 C   0  0  0  0  0  0  0  0  0  0  0  0
   43.9600   34.1450   41.5090 C   0  0  0  0  0  0  0  0  0  0  0  0
   44.8830   33.6990   40.5050 C   0  0  0  0  0  0  0  0  0  0  0  0
   43.8260   33.4880   38.9850 S   0  0  0  0  0  0  0  0  0  0  0  0
   42.3160   34.0490   40.0020 C   0  0  0  0  0  0  0  0  0  0  0  0
   42.7300   34.2480   41.0270 N   0  0  0  0  0  0  0  0  0  0  0  0
   40.9250   34.1870   39.5380 N   0  0  0  0  0  0  0  0  0  0  0  0
   40.4910   34.2790   38.2940 C   0  0  0  0  0  0  0  0  0  0  0  0
   39.1510   34.3930   38.2620 N   0  0  0  0  0  0  0  0  0  0  0  0
   38.7490   34.3700   39.5460 C   0  0  0  0  0  0  0  0  0  0  0  0
   39.8570   34.2410   40.3330 N   0  0  0  0  0  0  0  0  0  0  0  0
   44.4616   36.6839   45.3452 H   0  0  0  0  0  0  0  0  0  0  0  0
   43.5730   36.3913   42.9763 H   0  0  0  0  0  0  0  0  0  0  0  0
   47.2396   32.0692   43.3551 H   0  0  0  0  0  0  0  0  0  0  0  0
   48.4673   30.0795   44.0568 H   0  0  0  0  0  0  0  0  0  0  0  0
   48.3202   29.2598   46.4027 H   0  0  0  0  0  0  0  0  0  0  0  0
   47.4791   29.4892   48.5377 H   0  0  0  0  0  0  0  0  0  0  0  0
   46.0807   30.6770   50.2154 H   0  0  0  0  0  0  0  0  0  0  0  0
   44.8146   32.7346   49.4907 H   0  0  0  0  0  0  0  0  0  0  0  0
   45.0129   33.4657   47.1814 H   0  0  0  0  0  0  0  0  0  0  0  0
   45.9638   33.5226   40.6086 H   0  0  0  0  0  0  0  0  0  0  0  0
   41.1378   34.2644   37.4044 H   0  0  0  0  0  0  0  0  0  0  0  0
   37.7099   34.4424   39.8995 H   0  0  0  0  0  0  0  0  0  0  0  0
  1  6  2  0
  2  1  1  0
  3  2  2  0
  3  4  1  0
  4  5  2  0
  5  7  1  0
  5  6  1  0
  7 16  2  0
  8  9  2  0
  8  7  1  0
  9 10  1  0
 10 11  2  0
 11 12  1  0
 12 13  2  0
 14 13  1  0
 15 14  2  0
 16 11  1  0
 16 15  1  0
 17  3  1  0
 18 17  2  0
 19 20  1  0
 19 18  1  0
 20 21  2  0
 21 17  1  0
 22 20  1  0
 22 26  1  0
 23 22  1  0
 24 23  2  0
 24 25  1  0
 25 26  2  0
  1 27  1  0
  2 28  1  0
  8 29  1  0
  9 30  1  0
 10 31  1  0
 12 32  1  0
 13 33  1  0
 14 34  1  0
 15 35  1  0
 18 36  1  0
 23 37  1  0
 25 38  1  0
M  ISO  8  27  14  28  14  29  14  30  14  31  14  32  14  33  14  34  14
M  ISO  4  35  14  36  14  37  14  38  14
M  END
>  <minimizedAffinity>  (1) 
-7.072402

>  <minimizedRMSD>  (1) 
1.44637251

$$$$
