
     RDKit          3D

 35 38  0  0  0  0  0  0  0  0999 V2000
   46.0110   32.1390   44.7190 C   0  0  0  0  0  0  0  0  0  0  0  0
   45.9610   31.0980   43.7950 C   0  0  0  0  0  0  0  0  0  0  0  0
   46.4920   29.8580   44.0330 C   0  0  0  0  0  0  0  0  0  0  0  0
   47.1120   29.5680   45.2170 C   0  0  0  0  0  0  0  0  0  0  0  0
   47.1760   30.5600   46.1350 C   0  0  0  0  0  0  0  0  0  0  0  0
   47.8070   30.2660   47.3380 C   0  0  0  0  0  0  0  0  0  0  0  0
   47.9140   31.2240   48.3260 C   0  0  0  0  0  0  0  0  0  0  0  0
   47.3770   32.4820   48.0870 C   0  0  0  0  0  0  0  0  0  0  0  0
   46.7740   32.6870   46.8780 C   0  0  0  0  0  0  0  0  0  0  0  0
   46.6390   31.7880   45.8720 C   0  0  0  0  0  0  0  0  0  0  0  0
   44.7670   35.6570   44.6840 C   0  0  0  0  0  0  0  0  0  0  0  0
   44.1620   35.6940   43.4150 C   0  0  0  0  0  0  0  0  0  0  0  0
   44.2190   34.5430   42.6720 C   0  0  0  0  0  0  0  0  0  0  0  0
   44.8530   33.4860   43.2360 N   0  0  0  0  0  0  0  0  0  0  0  0
   45.4390   33.4280   44.4470 C   0  0  0  0  0  0  0  0  0  0  0  0
   45.3330   34.5520   45.0640 N   0  0  0  0  0  0  0  0  0  0  0  0
   43.6200   34.4770   41.3450 C   0  0  0  0  0  0  0  0  0  0  0  0
   44.2570   33.7110   40.3070 C   0  0  0  0  0  0  0  0  0  0  0  0
   43.0970   33.9570   38.8380 S   0  0  0  0  0  0  0  0  0  0  0  0
   42.0000   35.0360   39.9280 C   0  0  0  0  0  0  0  0  0  0  0  0
   42.5060   35.0480   40.9170 N   0  0  0  0  0  0  0  0  0  0  0  0
   40.7300   35.6760   39.4060 C   0  0  0  0  0  0  0  0  0  0  0  0
   45.4713   31.2805   42.8271 H   0  0  0  0  0  0  0  0  0  0  0  0
   46.4184   29.0812   43.2576 H   0  0  0  0  0  0  0  0  0  0  0  0
   47.5392   28.5737   45.4140 H   0  0  0  0  0  0  0  0  0  0  0  0
   48.2244   29.2619   47.5041 H   0  0  0  0  0  0  0  0  0  0  0  0
   48.4127   30.9963   49.2797 H   0  0  0  0  0  0  0  0  0  0  0  0
   47.4347   33.2813   48.8405 H   0  0  0  0  0  0  0  0  0  0  0  0
   46.3533   33.6880   46.7022 H   0  0  0  0  0  0  0  0  0  0  0  0
   44.7609   36.5415   45.3379 H   0  0  0  0  0  0  0  0  0  0  0  0
   43.6677   36.6012   43.0373 H   0  0  0  0  0  0  0  0  0  0  0  0
   45.1881   33.1274   40.3569 H   0  0  0  0  0  0  0  0  0  0  0  0
   40.1035   35.9917   40.2532 H   0  0  0  0  0  0  0  0  0  0  0  0
   40.9864   36.5526   38.7929 H   0  0  0  0  0  0  0  0  0  0  0  0
   40.1780   34.9484   38.7929 H   0  0  0  0  0  0  0  0  0  0  0  0
  1 10  2  0
  2  3  2  0
  2  1  1  0
  3  4  1  0
  4  5  2  0
  5  6  1  0
  6  7  2  0
  8  7  1  0
  9  8  2  0
 10  5  1  0
 10  9  1  0
 11 16  2  0
 12 11  1  0
 13 14  1  0
 13 12  2  0
 14 15  2  0
 15  1  1  0
 15 16  1  0
 17 13  1  0
 18 17  2  0
 19 20  1  0
 19 18  1  0
 20 21  2  0
 21 17  1  0
 22 20  1  0
  2 23  1  0
  3 24  1  0
  4 25  1  0
  6 26  1  0
  7 27  1  0
  8 28  1  0
  9 29  1  0
 11 30  1  0
 12 31  1  0
 18 32  1  0
 22 33  1  0
 22 34  1  0
 22 35  1  0
M  ISO  8  23  14  24  14  25  14  26  14  27  14  28  14  29  14  30  14
M  ISO  5  31  14  32  14  33   8  34   8  35   8
M  END
>  <minimizedAffinity>  (1) 
-5.59343386

>  <minimizedRMSD>  (1) 
0.228999764

$$$$
