
     RDKit          3D

 22 24  0  0  0  0  0  0  0  0999 V2000
   46.9870   35.3020   41.8730 O   0  0  0  0  0  0  0  0  0  0  0  0
   50.6810   32.6840   41.5420 N   0  0  0  0  0  0  0  0  0  0  0  0
   50.8730   33.7400   42.3550 C   0  0  0  0  0  0  0  0  0  0  0  0
   49.7400   34.4780   42.4120 N   0  0  0  0  0  0  0  0  0  0  0  0
   48.7970   33.8890   41.6200 C   0  0  0  0  0  0  0  0  0  0  0  0
   47.4780   34.1670   41.2810 C   0  0  0  0  0  0  0  0  0  0  0  0
   46.8370   33.3360   40.4440 N   0  0  0  0  0  0  0  0  0  0  0  0
   47.4360   32.2440   39.9260 C   0  0  0  0  0  0  0  0  0  0  0  0
   48.7140   31.9500   40.2360 N   0  0  0  0  0  0  0  0  0  0  0  0
   49.4160   32.7560   41.0820 C   0  0  0  0  0  0  0  0  0  0  0  0
   44.5050   35.8590   44.5720 C   0  0  0  0  0  0  0  0  0  0  0  0
   45.2230   36.0600   43.3720 C   0  0  0  0  0  0  0  0  0  0  0  0
   46.2440   35.1680   43.0290 C   0  0  0  0  0  0  0  0  0  0  0  0
   46.4770   34.1500   43.8940 N   0  0  0  0  0  0  0  0  0  0  0  0
   45.7930   33.9670   45.0310 C   0  0  0  0  0  0  0  0  0  0  0  0
   44.7950   34.8290   45.3750 N   0  0  0  0  0  0  0  0  0  0  0  0
   51.3728   31.9558   41.3138 H   0  0  0  0  0  0  0  0  0  0  0  0
   51.8066   33.9677   42.8902 H   0  0  0  0  0  0  0  0  0  0  0  0
   46.8759   31.5873   39.2441 H   0  0  0  0  0  0  0  0  0  0  0  0
   43.7001   36.5558   44.8486 H   0  0  0  0  0  0  0  0  0  0  0  0
   44.9817   36.9085   42.7149 H   0  0  0  0  0  0  0  0  0  0  0  0
   46.0372   33.1194   45.6883 H   0  0  0  0  0  0  0  0  0  0  0  0
  1 13  1  0
  2  3  1  0
  3  4  2  0
  5  4  1  0
  6  5  2  0
  6  1  1  0
  7  6  1  0
  8  9  1  0
  8  7  2  0
  9 10  2  0
 10  2  1  0
 10  5  1  0
 11 16  2  0
 12 11  1  0
 13 12  2  0
 13 14  1  0
 14 15  2  0
 15 16  1  0
  2 17  1  0
  3 18  1  0
  8 19  1  0
 11 20  1  0
 12 21  1  0
 15 22  1  0
M  ISO  6  17   9  18  14  19  14  20  14  21  14  22  14
M  END
>  <minimizedAffinity>  (1) 
-4.59181976

>  <minimizedRMSD>  (1) 
1.07737136

$$$$
