
     RDKit          3D

 18 19  0  0  0  0  0  0  0  0999 V2000
   44.5940   36.0140   44.4670 C   0  0  0  0  0  0  0  0  0  0  0  0
   45.3150   36.0600   43.2490 C   0  0  0  0  0  0  0  0  0  0  0  0
   46.2230   35.0230   43.0190 C   0  0  0  0  0  0  0  0  0  0  0  0
   46.3390   34.0650   43.9730 N   0  0  0  0  0  0  0  0  0  0  0  0
   45.6430   34.0480   45.1170 C   0  0  0  0  0  0  0  0  0  0  0  0
   44.7500   35.0480   45.3670 N   0  0  0  0  0  0  0  0  0  0  0  0
   46.9880   34.9520   41.8700 O   0  0  0  0  0  0  0  0  0  0  0  0
   48.2610   34.4270   41.9910 C   0  0  0  0  0  0  0  0  0  0  0  0
   49.3590   35.0880   42.4980 C   0  0  0  0  0  0  0  0  0  0  0  0
   50.3730   34.1540   42.4080 C   0  0  0  0  0  0  0  0  0  0  0  0
   49.8770   32.9930   41.8650 C   0  0  0  0  0  0  0  0  0  0  0  0
   48.6000   33.2110   41.6330 O   0  0  0  0  0  0  0  0  0  0  0  0
   43.8707   36.8154   44.6784 H   0  0  0  0  0  0  0  0  0  0  0  0
   45.1677   36.8711   42.5207 H   0  0  0  0  0  0  0  0  0  0  0  0
   45.7898   33.2375   45.8460 H   0  0  0  0  0  0  0  0  0  0  0  0
   49.4148   36.1167   42.8835 H   0  0  0  0  0  0  0  0  0  0  0  0
   51.4149   34.3146   42.7220 H   0  0  0  0  0  0  0  0  0  0  0  0
   50.4356   32.0668   41.6644 H   0  0  0  0  0  0  0  0  0  0  0  0
  1  6  2  0
  2  1  1  0
  3  2  2  0
  3  4  1  0
  4  5  2  0
  5  6  1  0
  7  8  1  0
  7  3  1  0
  8  9  2  0
 10  9  1  0
 11 10  2  0
 12 11  1  0
 12  8  1  0
  1 13  1  0
  2 14  1  0
  5 15  1  0
  9 16  1  0
 10 17  1  0
 11 18  1  0
M  ISO  6  13  14  14  14  15  14  16  14  17  14  18  14
M  END
>  <minimizedAffinity>  (1) 
-4.23290873

>  <minimizedRMSD>  (1) 
1.23586464

$$$$
