
     RDKit          3D

 18 19  0  0  0  0  0  0  0  0999 V2000
   44.4990   35.9780   44.7710 C   0  0  0  0  0  0  0  0  0  0  0  0
   45.0330   36.0810   43.4810 C   0  0  0  0  0  0  0  0  0  0  0  0
   45.9220   35.0730   43.0690 C   0  0  0  0  0  0  0  0  0  0  0  0
   46.1900   34.0730   43.9730 N   0  0  0  0  0  0  0  0  0  0  0  0
   45.6560   34.0160   45.1990 C   0  0  0  0  0  0  0  0  0  0  0  0
   44.8030   34.9790   45.5970 N   0  0  0  0  0  0  0  0  0  0  0  0
   46.5390   35.0210   41.8310 O   0  0  0  0  0  0  0  0  0  0  0  0
   47.9110   34.7190   41.6690 C   0  0  0  0  0  0  0  0  0  0  0  0
   48.5700   35.0720   40.3190 C   0  0  0  0  0  0  0  0  0  0  0  0
   48.9140   35.8100   41.5650 C   0  0  0  0  0  0  0  0  0  0  0  0
   43.7999   36.7539   45.1162 H   0  0  0  0  0  0  0  0  0  0  0  0
   44.7677   36.9167   42.8168 H   0  0  0  0  0  0  0  0  0  0  0  0
   45.9121   33.1883   45.8767 H   0  0  0  0  0  0  0  0  0  0  0  0
   47.8106   33.8240   42.3005 H   0  0  0  0  0  0  0  0  0  0  0  0
   47.9838   35.5633   39.5284 H   0  0  0  0  0  0  0  0  0  0  0  0
   49.1331   34.5206   39.5516 H   0  0  0  0  0  0  0  0  0  0  0  0
   49.9082   35.6784   42.0170 H   0  0  0  0  0  0  0  0  0  0  0  0
   48.9159   36.8736   41.8457 H   0  0  0  0  0  0  0  0  0  0  0  0
  1  6  2  0
  2  1  1  0
  3  2  2  0
  3  4  1  0
  4  5  2  0
  5  6  1  0
  7  3  1  0
  8  7  1  0
  9 10  1  0
  9  8  1  0
 10  8  1  0
  1 11  1  0
  2 12  1  0
  5 13  1  0
  8 14  1  0
  9 15  1  0
  9 16  1  0
 10 17  1  0
 10 18  1  0
M  ISO  8  11  14  12  14  13  14  14  13  15  13  16  13  17  13  18  13
M  END
>  <minimizedAffinity>  (1) 
-4.06824684

>  <minimizedRMSD>  (1) 
0.755341172

$$$$
