
     RDKit          3D

 20 20  0  0  0  0  0  0  0  0999 V2000
   44.5850   35.7740   44.6860 C   0  0  0  0  0  0  0  0  0  0  0  0
   45.1200   36.0180   43.4140 C   0  0  0  0  0  0  0  0  0  0  0  0
   46.0920   35.1140   42.9410 C   0  0  0  0  0  0  0  0  0  0  0  0
   46.4440   34.0690   43.7510 N   0  0  0  0  0  0  0  0  0  0  0  0
   45.9010   33.8820   44.9620 C   0  0  0  0  0  0  0  0  0  0  0  0
   44.9630   34.7400   45.4350 N   0  0  0  0  0  0  0  0  0  0  0  0
   46.6930   35.2560   41.6930 O   0  0  0  0  0  0  0  0  0  0  0  0
   47.9710   34.7040   41.4650 C   0  0  0  0  0  0  0  0  0  0  0  0
   48.9660   35.8330   41.6540 C   0  0  0  0  0  0  0  0  0  0  0  0
   48.0420   34.1030   40.0670 C   0  0  0  0  0  0  0  0  0  0  0  0
   43.8237   36.4629   45.0808 H   0  0  0  0  0  0  0  0  0  0  0  0
   44.7951   36.8784   42.8106 H   0  0  0  0  0  0  0  0  0  0  0  0
   46.2183   33.0267   45.5766 H   0  0  0  0  0  0  0  0  0  0  0  0
   48.1958   33.8844   42.1633 H   0  0  0  0  0  0  0  0  0  0  0  0
   49.1211   36.0090   42.7287 H   0  0  0  0  0  0  0  0  0  0  0  0
   49.9231   35.5606   41.1852 H   0  0  0  0  0  0  0  0  0  0  0  0
   48.5755   36.7483   41.1852 H   0  0  0  0  0  0  0  0  0  0  0  0
   48.1707   33.0132   40.1425 H   0  0  0  0  0  0  0  0  0  0  0  0
   47.1113   34.3256   39.5245 H   0  0  0  0  0  0  0  0  0  0  0  0
   48.8952   34.5363   39.5245 H   0  0  0  0  0  0  0  0  0  0  0  0
  1  6  2  0
  2  1  1  0
  3  2  2  0
  3  4  1  0
  4  5  2  0
  5  6  1  0
  7  3  1  0
  8  9  1  0
  8  7  1  0
 10  8  1  0
  1 11  1  0
  2 12  1  0
  5 13  1  0
  8 14  1  0
  9 15  1  0
  9 16  1  0
  9 17  1  0
 10 18  1  0
 10 19  1  0
 10 20  1  0
M  ISO  8  11  14  12  14  13  14  14   8  15   8  16   8  17   8  18   8
M  ISO  2  19   8  20   8
M  END
>  <minimizedAffinity>  (1) 
-3.85080075

>  <minimizedRMSD>  (1) 
0.704377651

$$$$
