
     RDKit          3D

 14 14  0  0  0  0  0  0  0  0999 V2000
   44.5230   36.0360   44.5560 C   0  0  0  0  0  0  0  0  0  0  0  0
   45.1640   36.0810   43.3080 C   0  0  0  0  0  0  0  0  0  0  0  0
   46.0690   35.0510   43.0120 C   0  0  0  0  0  0  0  0  0  0  0  0
   46.2700   34.0700   43.9570 N   0  0  0  0  0  0  0  0  0  0  0  0
   45.6210   34.0820   45.1410 C   0  0  0  0  0  0  0  0  0  0  0  0
   44.7450   35.0620   45.4500 N   0  0  0  0  0  0  0  0  0  0  0  0
   46.7620   34.9850   41.8200 O   0  0  0  0  0  0  0  0  0  0  0  0
   47.6510   34.0090   41.4050 C   0  0  0  0  0  0  0  0  0  0  0  0
   43.8090   36.8329   44.8110 H   0  0  0  0  0  0  0  0  0  0  0  0
   44.9647   36.8912   42.5912 H   0  0  0  0  0  0  0  0  0  0  0  0
   45.8095   33.2781   45.8677 H   0  0  0  0  0  0  0  0  0  0  0  0
   48.0960   33.5205   42.2844 H   0  0  0  0  0  0  0  0  0  0  0  0
   47.1178   33.2606   40.8004 H   0  0  0  0  0  0  0  0  0  0  0  0
   48.4458   34.4702   40.8004 H   0  0  0  0  0  0  0  0  0  0  0  0
  1  6  2  0
  2  1  1  0
  3  2  2  0
  3  4  1  0
  4  5  2  0
  5  6  1  0
  7  3  1  0
  8  7  1  0
  1  9  1  0
  2 10  1  0
  5 11  1  0
  8 12  1  0
  8 13  1  0
  8 14  1  0
M  ISO  6   9  14  10  14  11  14  12   8  13   8  14   8
M  END
>  <minimizedAffinity>  (1) 
-2.98733878

>  <minimizedRMSD>  (1) 
0.0376171619

$$$$
