
     RDKit          3D

 17 17  0  0  0  0  0  0  0  0999 V2000
   44.5180   36.0090   44.5440 C   0  0  0  0  0  0  0  0  0  0  0  0
   45.1750   36.0580   43.3040 C   0  0  0  0  0  0  0  0  0  0  0  0
   46.1000   35.0610   42.9870 C   0  0  0  0  0  0  0  0  0  0  0  0
   46.3010   34.0870   43.9370 N   0  0  0  0  0  0  0  0  0  0  0  0
   45.6650   34.0560   45.1160 C   0  0  0  0  0  0  0  0  0  0  0  0
   44.7750   35.0190   45.4150 N   0  0  0  0  0  0  0  0  0  0  0  0
   46.8170   34.9900   41.8030 O   0  0  0  0  0  0  0  0  0  0  0  0
   48.1920   34.6660   41.8050 C   0  0  0  0  0  0  0  0  0  0  0  0
   49.0190   35.8870   41.5080 C   0  0  0  0  0  0  0  0  0  0  0  0
   43.7864   36.7881   44.8045 H   0  0  0  0  0  0  0  0  0  0  0  0
   44.9641   36.8700   42.5926 H   0  0  0  0  0  0  0  0  0  0  0  0
   45.8694   33.2485   45.8344 H   0  0  0  0  0  0  0  0  0  0  0  0
   48.4700   34.2716   42.7935 H   0  0  0  0  0  0  0  0  0  0  0  0
   48.3814   33.9095   41.0293 H   0  0  0  0  0  0  0  0  0  0  0  0
   49.3354   36.3541   42.4523 H   0  0  0  0  0  0  0  0  0  0  0  0
   49.9068   35.5962   40.9273 H   0  0  0  0  0  0  0  0  0  0  0  0
   48.4195   36.6035   40.9273 H   0  0  0  0  0  0  0  0  0  0  0  0
  1  6  2  0
  2  1  1  0
  3  2  2  0
  3  4  1  0
  4  5  2  0
  5  6  1  0
  7  8  1  0
  7  3  1  0
  9  8  1  0
  1 10  1  0
  2 11  1  0
  5 12  1  0
  8 13  1  0
  8 14  1  0
  9 15  1  0
  9 16  1  0
  9 17  1  0
M  ISO  8  10  14  11  14  12  14  13   8  14   8  15   8  16   8  17   8
M  END
>  <minimizedAffinity>  (1) 
-3.61121964

>  <minimizedRMSD>  (1) 
1.04247046

$$$$
