
     RDKit          3D

 31 33  0  0  0  0  0  0  0  0999 V2000
   47.1340   35.1090   41.8960 C   0  0  0  0  0  0  0  0  0  0  0  0
   46.1630   35.0880   43.0270 C   0  0  0  0  0  0  0  0  0  0  0  0
   45.0880   34.1090   42.7470 C   0  0  0  0  0  0  0  0  0  0  0  0
   44.9230   32.8380   43.3060 C   0  0  0  0  0  0  0  0  0  0  0  0
   43.8230   32.2680   42.7780 N   0  0  0  0  0  0  0  0  0  0  0  0
   43.2600   33.1100   41.8950 C   0  0  0  0  0  0  0  0  0  0  0  0
   42.1400   33.0220   41.0890 C   0  0  0  0  0  0  0  0  0  0  0  0
   41.7530   34.0540   40.2370 C   0  0  0  0  0  0  0  0  0  0  0  0
   42.5130   35.2020   40.1960 C   0  0  0  0  0  0  0  0  0  0  0  0
   43.6480   35.3210   40.9980 C   0  0  0  0  0  0  0  0  0  0  0  0
   44.0250   34.2750   41.8500 C   0  0  0  0  0  0  0  0  0  0  0  0
   47.1600   33.8660   41.2270 O   0  0  0  0  0  0  0  0  0  0  0  0
   46.3500   33.1300   37.6630 C   0  0  0  0  0  0  0  0  0  0  0  0
   46.2370   33.1420   39.0700 C   0  0  0  0  0  0  0  0  0  0  0  0
   47.1760   33.7930   39.8480 C   0  0  0  0  0  0  0  0  0  0  0  0
   48.2140   34.4190   39.1660 N   0  0  0  0  0  0  0  0  0  0  0  0
   48.2970   34.3920   37.8360 C   0  0  0  0  0  0  0  0  0  0  0  0
   47.3950   33.7670   37.0780 N   0  0  0  0  0  0  0  0  0  0  0  0
   46.8398   35.8943   41.1841 H   0  0  0  0  0  0  0  0  0  0  0  0
   48.1372   35.3102   42.2997 H   0  0  0  0  0  0  0  0  0  0  0  0
   46.6856   34.8020   43.9517 H   0  0  0  0  0  0  0  0  0  0  0  0
   45.7213   36.0885   43.1451 H   0  0  0  0  0  0  0  0  0  0  0  0
   45.5843   32.3784   44.0553 H   0  0  0  0  0  0  0  0  0  0  0  0
   43.4678   31.3306   43.0147 H   0  0  0  0  0  0  0  0  0  0  0  0
   41.5333   32.1050   41.1217 H   0  0  0  0  0  0  0  0  0  0  0  0
   40.8562   33.9538   39.6080 H   0  0  0  0  0  0  0  0  0  0  0  0
   42.2240   36.0274   39.5288 H   0  0  0  0  0  0  0  0  0  0  0  0
   44.2501   36.2409   40.9612 H   0  0  0  0  0  0  0  0  0  0  0  0
   45.5999   32.6105   37.0486 H   0  0  0  0  0  0  0  0  0  0  0  0
   45.3927   32.6278   39.5525 H   0  0  0  0  0  0  0  0  0  0  0  0
   49.1390   34.9031   37.3463 H   0  0  0  0  0  0  0  0  0  0  0  0
  1  2  1  0
  3  2  1  0
  3  4  2  0
  5  4  1  0
  6  5  1  0
  7  6  2  0
  8  7  1  0
  9  8  2  0
  9 10  1  0
 10 11  2  0
 11  6  1  0
 11  3  1  0
 12  1  1  0
 13 14  2  0
 14 15  1  0
 15 12  1  0
 16 15  2  0
 17 16  1  0
 18 13  1  0
 18 17  2  0
  1 19  1  0
  1 20  1  0
  2 21  1  0
  2 22  1  0
  4 23  1  0
  5 24  1  0
  7 25  1  0
  8 26  1  0
  9 27  1  0
 10 28  1  0
 13 29  1  0
 14 30  1  0
 17 31  1  0
M  ISO  8  19   8  20   8  21   8  22   8  23  14  24   9  25  14  26  14
M  ISO  5  27  14  28  14  29  14  30  14  31  14
M  END
>  <minimizedAffinity>  (1) 
-4.4480691

>  <minimizedRMSD>  (1) 
7.36138153

$$$$
