
     RDKit          3D

 24 25  0  0  0  0  0  0  0  0999 V2000
   46.7590   34.3110   41.2410 C   0  0  0  0  0  0  0  0  0  0  0  0
   48.0540   34.8000   40.6350 C   0  0  0  0  0  0  0  0  0  0  0  0
   49.1710   34.1060   41.2800 C   0  0  0  0  0  0  0  0  0  0  0  0
   49.9490   34.3930   42.3850 C   0  0  0  0  0  0  0  0  0  0  0  0
   50.8590   33.4170   42.5600 N   0  0  0  0  0  0  0  0  0  0  0  0
   50.6730   32.5110   41.5860 C   0  0  0  0  0  0  0  0  0  0  0  0
   49.6670   32.9350   40.8320 N   0  0  0  0  0  0  0  0  0  0  0  0
   46.2380   35.2850   42.1060 O   0  0  0  0  0  0  0  0  0  0  0  0
   44.6090   35.3100   45.4360 C   0  0  0  0  0  0  0  0  0  0  0  0
   44.9100   35.7220   44.1240 C   0  0  0  0  0  0  0  0  0  0  0  0
   45.8430   35.0000   43.3950 C   0  0  0  0  0  0  0  0  0  0  0  0
   46.4130   33.9120   44.0290 N   0  0  0  0  0  0  0  0  0  0  0  0
   46.1220   33.5290   45.2700 C   0  0  0  0  0  0  0  0  0  0  0  0
   45.2160   34.2320   45.9750 N   0  0  0  0  0  0  0  0  0  0  0  0
   46.9470   33.3855   41.8050 H   0  0  0  0  0  0  0  0  0  0  0  0
   46.0341   34.1161   40.4369 H   0  0  0  0  0  0  0  0  0  0  0  0
   48.0604   34.5869   39.5559 H   0  0  0  0  0  0  0  0  0  0  0  0
   48.1509   35.8850   40.7879 H   0  0  0  0  0  0  0  0  0  0  0  0
   49.8413   35.2823   43.0234 H   0  0  0  0  0  0  0  0  0  0  0  0
   51.2498   31.5858   41.4400 H   0  0  0  0  0  0  0  0  0  0  0  0
   49.3095   32.4323   40.0072 H   0  0  0  0  0  0  0  0  0  0  0  0
   43.8717   35.8724   46.0277 H   0  0  0  0  0  0  0  0  0  0  0  0
   44.4143   36.6004   43.6851 H   0  0  0  0  0  0  0  0  0  0  0  0
   46.6146   32.6509   45.7130 H   0  0  0  0  0  0  0  0  0  0  0  0
  1  8  1  0
  2  1  1  0
  2  3  1  0
  3  4  2  0
  4  5  1  0
  6  5  2  0
  7  3  1  0
  7  6  1  0
  8 11  1  0
  9 14  2  0
 10  9  1  0
 11 12  1  0
 11 10  2  0
 12 13  2  0
 13 14  1  0
  1 15  1  0
  1 16  1  0
  2 17  1  0
  2 18  1  0
  4 19  1  0
  6 20  1  0
  7 21  1  0
  9 22  1  0
 10 23  1  0
 13 24  1  0
M  ISO  8  15   8  16   8  17   8  18   8  19  14  20  14  21   9  22  14
M  ISO  2  23  14  24  14
M  END
>  <minimizedAffinity>  (1) 
-4.26285362

>  <minimizedRMSD>  (1) 
1.59374678

$$$$
