
     RDKit          3D

 26 27  0  0  0  0  0  0  0  0999 V2000
   45.9570   33.2440   44.5970 C   0  0  0  0  0  0  0  0  0  0  0  0
   45.5140   33.7330   45.9520 C   0  0  0  0  0  0  0  0  0  0  0  0
   45.9310   32.8330   47.0550 C   0  0  0  0  0  0  0  0  0  0  0  0
   45.0880   32.3870   48.0510 C   0  0  0  0  0  0  0  0  0  0  0  0
   45.5050   31.5510   49.0640 C   0  0  0  0  0  0  0  0  0  0  0  0
   46.8090   31.1160   49.1280 C   0  0  0  0  0  0  0  0  0  0  0  0
   47.6230   31.5790   48.1200 C   0  0  0  0  0  0  0  0  0  0  0  0
   47.2020   32.3940   47.1360 N   0  0  0  0  0  0  0  0  0  0  0  0
   47.0270   34.0090   44.1100 O   0  0  0  0  0  0  0  0  0  0  0  0
   48.4000   34.9910   40.8070 C   0  0  0  0  0  0  0  0  0  0  0  0
   48.2820   34.9060   42.2010 C   0  0  0  0  0  0  0  0  0  0  0  0
   47.2460   34.1650   42.7590 C   0  0  0  0  0  0  0  0  0  0  0  0
   46.3830   33.5490   41.8730 N   0  0  0  0  0  0  0  0  0  0  0  0
   46.5020   33.6350   40.5460 C   0  0  0  0  0  0  0  0  0  0  0  0
   47.5120   34.3570   40.0130 N   0  0  0  0  0  0  0  0  0  0  0  0
   46.2743   32.1940   44.6799 H   0  0  0  0  0  0  0  0  0  0  0  0
   45.1129   33.3383   43.8980 H   0  0  0  0  0  0  0  0  0  0  0  0
   45.9506   34.7275   46.1263 H   0  0  0  0  0  0  0  0  0  0  0  0
   44.4144   33.7637   45.9487 H   0  0  0  0  0  0  0  0  0  0  0  0
   44.0374   32.7126   48.0362 H   0  0  0  0  0  0  0  0  0  0  0  0
   44.7863   31.2272   49.8313 H   0  0  0  0  0  0  0  0  0  0  0  0
   47.1726   30.4494   49.9239 H   0  0  0  0  0  0  0  0  0  0  0  0
   48.6773   31.2651   48.1186 H   0  0  0  0  0  0  0  0  0  0  0  0
   49.2176   35.5753   40.3596 H   0  0  0  0  0  0  0  0  0  0  0  0
   49.0047   35.4224   42.8499 H   0  0  0  0  0  0  0  0  0  0  0  0
   45.7827   33.1215   39.8911 H   0  0  0  0  0  0  0  0  0  0  0  0
  1  2  1  0
  2  3  1  0
  3  8  1  0
  3  4  2  0
  4  5  1  0
  5  6  2  0
  7  6  1  0
  8  7  2  0
  9  1  1  0
 10 11  2  0
 11 12  1  0
 12  9  1  0
 13 12  2  0
 14 13  1  0
 15 14  2  0
 15 10  1  0
  1 16  1  0
  1 17  1  0
  2 18  1  0
  2 19  1  0
  4 20  1  0
  5 21  1  0
  6 22  1  0
  7 23  1  0
 10 24  1  0
 11 25  1  0
 14 26  1  0
M  ISO  8  16   8  17   8  18   8  19   8  20  14  21  14  22  14  23  14
M  ISO  3  24  14  25  14  26  14
M  END
>  <minimizedAffinity>  (1) 
-4.26095152

>  <minimizedRMSD>  (1) 
6.80677509

$$$$
