
     RDKit          3D

 24 25  0  0  0  0  0  0  0  0999 V2000
   46.5560   34.2220   41.0810 C   0  0  0  0  0  0  0  0  0  0  0  0
   47.8800   34.9460   41.1060 C   0  0  0  0  0  0  0  0  0  0  0  0
   49.0130   34.0480   41.4190 C   0  0  0  0  0  0  0  0  0  0  0  0
   49.9810   34.4100   42.3630 C   0  0  0  0  0  0  0  0  0  0  0  0
   50.9150   33.3950   42.4570 C   0  0  0  0  0  0  0  0  0  0  0  0
   50.4540   32.4440   41.5410 C   0  0  0  0  0  0  0  0  0  0  0  0
   49.3430   32.8660   40.9600 O   0  0  0  0  0  0  0  0  0  0  0  0
   45.5690   34.9950   41.7340 O   0  0  0  0  0  0  0  0  0  0  0  0
   44.5760   35.5770   45.2630 C   0  0  0  0  0  0  0  0  0  0  0  0
   44.7110   35.8090   43.8880 C   0  0  0  0  0  0  0  0  0  0  0  0
   45.3730   34.8770   43.0980 C   0  0  0  0  0  0  0  0  0  0  0  0
   45.8570   33.7700   43.7440 N   0  0  0  0  0  0  0  0  0  0  0  0
   45.7220   33.5550   45.0670 C   0  0  0  0  0  0  0  0  0  0  0  0
   45.0840   34.4590   45.8190 N   0  0  0  0  0  0  0  0  0  0  0  0
   46.2537   34.0519   40.0371 H   0  0  0  0  0  0  0  0  0  0  0  0
   46.6619   33.2584   41.6009 H   0  0  0  0  0  0  0  0  0  0  0  0
   48.0522   35.3997   40.1188 H   0  0  0  0  0  0  0  0  0  0  0  0
   47.8289   35.7070   41.8986 H   0  0  0  0  0  0  0  0  0  0  0  0
   49.9961   35.3486   42.9364 H   0  0  0  0  0  0  0  0  0  0  0  0
   51.8072   33.3469   43.0987 H   0  0  0  0  0  0  0  0  0  0  0  0
   50.9453   31.4820   41.3332 H   0  0  0  0  0  0  0  0  0  0  0  0
   44.0524   36.3115   45.8926 H   0  0  0  0  0  0  0  0  0  0  0  0
   44.2959   36.7224   43.4370 H   0  0  0  0  0  0  0  0  0  0  0  0
   46.1331   32.6434   45.5253 H   0  0  0  0  0  0  0  0  0  0  0  0
  1  2  1  0
  1  8  1  0
  2  3  1  0
  3  4  2  0
  4  5  1  0
  6  5  2  0
  7  3  1  0
  7  6  1  0
  8 11  1  0
  9 14  2  0
 10  9  1  0
 11 12  1  0
 11 10  2  0
 12 13  2  0
 13 14  1  0
  1 15  1  0
  1 16  1  0
  2 17  1  0
  2 18  1  0
  4 19  1  0
  5 20  1  0
  6 21  1  0
  9 22  1  0
 10 23  1  0
 13 24  1  0
M  ISO  8  15   8  16   8  17   8  18   8  19  14  20  14  21  14  22  14
M  ISO  2  23  14  24  14
M  END
>  <minimizedAffinity>  (1) 
-4.23794079

>  <minimizedRMSD>  (1) 
1.84048319

$$$$
