
     RDKit          3D

 22 23  0  0  0  0  0  0  0  0999 V2000
   46.9650   34.2080   40.8890 C   0  0  0  0  0  0  0  0  0  0  0  0
   48.0670   35.1630   41.2920 C   0  0  0  0  0  0  0  0  0  0  0  0
   49.2290   34.2840   41.6790 C   0  0  0  0  0  0  0  0  0  0  0  0
   50.2750   34.5520   42.4800 N   0  0  0  0  0  0  0  0  0  0  0  0
   51.0330   33.4990   42.5270 O   0  0  0  0  0  0  0  0  0  0  0  0
   50.5520   32.5220   41.7950 C   0  0  0  0  0  0  0  0  0  0  0  0
   49.4040   33.0190   41.2530 N   0  0  0  0  0  0  0  0  0  0  0  0
   45.7160   34.6850   41.3110 O   0  0  0  0  0  0  0  0  0  0  0  0
   44.6180   36.0030   44.6040 C   0  0  0  0  0  0  0  0  0  0  0  0
   44.8660   35.9910   43.2270 C   0  0  0  0  0  0  0  0  0  0  0  0
   45.4170   34.8360   42.6660 C   0  0  0  0  0  0  0  0  0  0  0  0
   45.6840   33.7740   43.5010 N   0  0  0  0  0  0  0  0  0  0  0  0
   45.4290   33.8280   44.8250 C   0  0  0  0  0  0  0  0  0  0  0  0
   44.8960   34.9440   45.3700 N   0  0  0  0  0  0  0  0  0  0  0  0
   46.9603   34.1037   39.7940 H   0  0  0  0  0  0  0  0  0  0  0  0
   47.1503   33.2337   41.3648 H   0  0  0  0  0  0  0  0  0  0  0  0
   48.3402   35.8147   40.4490 H   0  0  0  0  0  0  0  0  0  0  0  0
   47.7583   35.8232   42.1159 H   0  0  0  0  0  0  0  0  0  0  0  0
   50.9816   31.5198   41.6501 H   0  0  0  0  0  0  0  0  0  0  0  0
   44.1852   36.9028   45.0655 H   0  0  0  0  0  0  0  0  0  0  0  0
   44.6336   36.8668   42.6033 H   0  0  0  0  0  0  0  0  0  0  0  0
   45.6557   32.9609   45.4628 H   0  0  0  0  0  0  0  0  0  0  0  0
  1  2  1  0
  1  8  1  0
  2  3  1  0
  3  4  2  0
  4  5  1  0
  6  5  1  0
  7  3  1  0
  7  6  2  0
  8 11  1  0
  9 14  2  0
 10  9  1  0
 11 10  2  0
 11 12  1  0
 12 13  2  0
 13 14  1  0
  1 15  1  0
  1 16  1  0
  2 17  1  0
  2 18  1  0
  6 19  1  0
  9 20  1  0
 10 21  1  0
 13 22  1  0
M  ISO  8  15   8  16   8  17   8  18   8  19  14  20  14  21  14  22  14
M  END
>  <minimizedAffinity>  (1) 
-4.18076277

>  <minimizedRMSD>  (1) 
1.43400884

$$$$
