
     RDKit          3D

 30 31  0  0  0  0  0  0  0  0999 V2000
   47.8680   35.1780   41.8240 C   0  0  0  0  0  0  0  0  0  0  0  0
   48.3100   34.4930   40.5710 C   0  0  0  0  0  0  0  0  0  0  0  0
   49.2350   33.3760   40.9990 C   0  0  0  0  0  0  0  0  0  0  0  0
   50.1580   33.7940   42.1410 C   0  0  0  0  0  0  0  0  0  0  0  0
   50.7790   32.4360   42.4620 C   0  0  0  0  0  0  0  0  0  0  0  0
   49.5430   31.5620   42.5310 C   0  0  0  0  0  0  0  0  0  0  0  0
   48.5050   32.2340   41.6250 C   0  0  0  0  0  0  0  0  0  0  0  0
   46.4720   35.0690   41.9680 O   0  0  0  0  0  0  0  0  0  0  0  0
   44.4480   35.9480   44.9520 C   0  0  0  0  0  0  0  0  0  0  0  0
   44.9890   36.0570   43.6710 C   0  0  0  0  0  0  0  0  0  0  0  0
   45.8770   35.0680   43.2100 C   0  0  0  0  0  0  0  0  0  0  0  0
   46.1510   34.0370   44.0900 N   0  0  0  0  0  0  0  0  0  0  0  0
   45.6140   33.9680   45.3070 C   0  0  0  0  0  0  0  0  0  0  0  0
   44.7710   34.9100   45.7400 N   0  0  0  0  0  0  0  0  0  0  0  0
   48.1469   36.2409   41.7754 H   0  0  0  0  0  0  0  0  0  0  0  0
   48.3573   34.7019   42.6865 H   0  0  0  0  0  0  0  0  0  0  0  0
   48.8436   35.2000   39.9188 H   0  0  0  0  0  0  0  0  0  0  0  0
   47.4509   34.1045   40.0044 H   0  0  0  0  0  0  0  0  0  0  0  0
   49.7579   33.1151   40.0670 H   0  0  0  0  0  0  0  0  0  0  0  0
   50.9124   34.5248   41.8141 H   0  0  0  0  0  0  0  0  0  0  0  0
   49.6648   34.2981   42.9852 H   0  0  0  0  0  0  0  0  0  0  0  0
   51.4630   32.1063   41.6661 H   0  0  0  0  0  0  0  0  0  0  0  0
   51.3950   32.4231   43.3732 H   0  0  0  0  0  0  0  0  0  0  0  0
   49.7696   30.5487   42.1678 H   0  0  0  0  0  0  0  0  0  0  0  0
   49.1752   31.4617   43.5628 H   0  0  0  0  0  0  0  0  0  0  0  0
   47.6505   32.5962   42.2155 H   0  0  0  0  0  0  0  0  0  0  0  0
   48.0936   31.5410   40.8763 H   0  0  0  0  0  0  0  0  0  0  0  0
   43.7525   36.7172   45.3189 H   0  0  0  0  0  0  0  0  0  0  0  0
   44.7237   36.9085   43.0271 H   0  0  0  0  0  0  0  0  0  0  0  0
   45.8681   33.1237   45.9648 H   0  0  0  0  0  0  0  0  0  0  0  0
  1  8  1  0
  2  3  1  0
  2  1  1  0
  3  7  1  0
  3  4  1  0
  4  5  1  0
  5  6  1  0
  7  6  1  0
  8 11  1  0
  9 14  2  0
 10  9  1  0
 11 10  2  0
 11 12  1  0
 12 13  2  0
 13 14  1  0
  1 15  1  0
  1 16  1  0
  2 17  1  0
  2 18  1  0
  3 19  1  0
  4 20  1  0
  4 21  1  0
  5 22  1  0
  5 23  1  0
  6 24  1  0
  6 25  1  0
  7 26  1  0
  7 27  1  0
  9 28  1  0
 10 29  1  0
 13 30  1  0
M  ISO  8  15   8  16   8  17   8  18   8  19  13  20  13  21  13  22  13
M  ISO  8  23  13  24  13  25  13  26  13  27  13  28  14  29  14  30  14
M  END
>  <minimizedAffinity>  (1) 
-4.05584335

>  <minimizedRMSD>  (1) 
3.05065799

$$$$
