
     RDKit          3D

 25 26  0  0  0  0  0  0  0  0999 V2000
   47.3360   33.7770   41.6700 C   0  0  0  0  0  0  0  0  0  0  0  0
   48.7810   34.0330   41.9800 C   0  0  0  0  0  0  0  0  0  0  0  0
   49.6440   33.0410   41.2440 C   0  0  0  0  0  0  0  0  0  0  0  0
   49.1420   32.4850   40.0780 C   0  0  0  0  0  0  0  0  0  0  0  0
   49.9490   31.5770   39.4170 C   0  0  0  0  0  0  0  0  0  0  0  0
   51.1560   31.2560   39.8900 N   0  0  0  0  0  0  0  0  0  0  0  0
   51.6310   31.8110   41.0350 C   0  0  0  0  0  0  0  0  0  0  0  0
   50.8750   32.6990   41.7060 N   0  0  0  0  0  0  0  0  0  0  0  0
   46.5480   34.9220   41.9510 O   0  0  0  0  0  0  0  0  0  0  0  0
   44.4600   36.1030   44.7960 C   0  0  0  0  0  0  0  0  0  0  0  0
   45.0660   36.0930   43.5360 C   0  0  0  0  0  0  0  0  0  0  0  0
   45.8950   35.0450   43.1620 C   0  0  0  0  0  0  0  0  0  0  0  0
   46.0620   34.0590   44.0980 N   0  0  0  0  0  0  0  0  0  0  0  0
   45.4760   34.0730   45.3110 C   0  0  0  0  0  0  0  0  0  0  0  0
   44.6810   35.0880   45.6570 N   0  0  0  0  0  0  0  0  0  0  0  0
   46.9798   32.9355   42.2823 H   0  0  0  0  0  0  0  0  0  0  0  0
   47.2426   33.5399   40.5999 H   0  0  0  0  0  0  0  0  0  0  0  0
   49.0470   35.0529   41.6651 H   0  0  0  0  0  0  0  0  0  0  0  0
   48.9452   33.9248   43.0623 H   0  0  0  0  0  0  0  0  0  0  0  0
   48.1463   32.7538   39.6954 H   0  0  0  0  0  0  0  0  0  0  0  0
   49.5910   31.1117   38.4868 H   0  0  0  0  0  0  0  0  0  0  0  0
   52.6274   31.5363   41.4114 H   0  0  0  0  0  0  0  0  0  0  0  0
   43.8039   36.9373   45.0849 H   0  0  0  0  0  0  0  0  0  0  0  0
   44.8843   36.9219   42.8361 H   0  0  0  0  0  0  0  0  0  0  0  0
   45.6527   33.2478   46.0165 H   0  0  0  0  0  0  0  0  0  0  0  0
  1  9  1  0
  1  2  1  0
  3  8  1  0
  3  2  1  0
  4  3  2  0
  5  6  2  0
  5  4  1  0
  6  7  1  0
  7  8  2  0
  9 12  1  0
 10 15  2  0
 11 10  1  0
 12 11  2  0
 12 13  1  0
 13 14  2  0
 14 15  1  0
  1 16  1  0
  1 17  1  0
  2 18  1  0
  2 19  1  0
  4 20  1  0
  5 21  1  0
  7 22  1  0
 10 23  1  0
 11 24  1  0
 14 25  1  0
M  ISO  8  16   8  17   8  18   8  19   8  20  14  21  14  22  14  23  14
M  ISO  2  24  14  25  14
M  END
>  <minimizedAffinity>  (1) 
-3.88027596

>  <minimizedRMSD>  (1) 
2.39192224

$$$$
