
     RDKit          3D

 23 24  0  0  0  0  0  0  0  0999 V2000
   47.3890   33.9450   41.5770 C   0  0  0  0  0  0  0  0  0  0  0  0
   48.8400   34.3250   41.7880 C   0  0  0  0  0  0  0  0  0  0  0  0
   49.7230   33.2360   41.4220 N   0  0  0  0  0  0  0  0  0  0  0  0
   50.8470   32.9550   42.0780 C   0  0  0  0  0  0  0  0  0  0  0  0
   51.4310   31.8800   41.4760 N   0  0  0  0  0  0  0  0  0  0  0  0
   50.6190   31.5290   40.4400 C   0  0  0  0  0  0  0  0  0  0  0  0
   49.5840   32.3790   40.4360 N   0  0  0  0  0  0  0  0  0  0  0  0
   46.5500   35.0130   41.9260 O   0  0  0  0  0  0  0  0  0  0  0  0
   44.4600   36.0630   44.8080 C   0  0  0  0  0  0  0  0  0  0  0  0
   45.0660   36.0930   43.5350 C   0  0  0  0  0  0  0  0  0  0  0  0
   45.9150   35.0650   43.1500 C   0  0  0  0  0  0  0  0  0  0  0  0
   46.1130   34.0610   44.0600 N   0  0  0  0  0  0  0  0  0  0  0  0
   45.5400   34.0320   45.2660 C   0  0  0  0  0  0  0  0  0  0  0  0
   44.7200   35.0250   45.6360 N   0  0  0  0  0  0  0  0  0  0  0  0
   47.2309   33.6903   40.5186 H   0  0  0  0  0  0  0  0  0  0  0  0
   47.1498   33.0798   42.2128 H   0  0  0  0  0  0  0  0  0  0  0  0
   49.0754   35.2024   41.1677 H   0  0  0  0  0  0  0  0  0  0  0  0
   48.9900   34.5533   42.8535 H   0  0  0  0  0  0  0  0  0  0  0  0
   51.2366   33.4958   42.9531 H   0  0  0  0  0  0  0  0  0  0  0  0
   50.7832   30.6998   39.7361 H   0  0  0  0  0  0  0  0  0  0  0  0
   43.7852   36.8724   45.1235 H   0  0  0  0  0  0  0  0  0  0  0  0
   44.8662   36.9292   42.8489 H   0  0  0  0  0  0  0  0  0  0  0  0
   45.7404   33.1964   45.9527 H   0  0  0  0  0  0  0  0  0  0  0  0
  1  2  1  0
  1  8  1  0
  3  2  1  0
  3  4  1  0
  5  4  2  0
  6  5  1  0
  7  6  2  0
  7  3  1  0
  8 11  1  0
  9 14  2  0
 10  9  1  0
 11 10  2  0
 11 12  1  0
 12 13  2  0
 13 14  1  0
  1 15  1  0
  1 16  1  0
  2 17  1  0
  2 18  1  0
  4 19  1  0
  6 20  1  0
  9 21  1  0
 10 22  1  0
 13 23  1  0
M  ISO  8  15   8  16   8  17   8  18   8  19  14  20  14  21  14  22  14
M  ISO  1  23  14
M  END
>  <minimizedAffinity>  (1) 
-3.75897741

>  <minimizedRMSD>  (1) 
2.01357913

$$$$
