
     RDKit          3D

 33 35  0  0  0  0  0  0  0  0999 V2000
   48.2040   33.4650   40.5110 C   0  0  0  0  0  0  0  0  0  0  0  0
   46.8890   34.1910   40.7810 C   0  0  0  0  0  0  0  0  0  0  0  0
   47.1140   35.1160   41.8300 O   0  0  0  0  0  0  0  0  0  0  0  0
   44.5700   35.8580   44.4230 C   0  0  0  0  0  0  0  0  0  0  0  0
   45.2770   36.0260   43.2450 C   0  0  0  0  0  0  0  0  0  0  0  0
   46.3010   35.0990   42.9680 C   0  0  0  0  0  0  0  0  0  0  0  0
   46.5230   34.0910   43.8950 N   0  0  0  0  0  0  0  0  0  0  0  0
   45.7910   33.9850   45.0320 C   0  0  0  0  0  0  0  0  0  0  0  0
   44.8260   34.8720   45.2770 N   0  0  0  0  0  0  0  0  0  0  0  0
   48.7550   34.0180   39.3240 N   0  0  0  0  0  0  0  0  0  0  0  0
   48.5770   33.5950   37.9890 C   0  0  0  0  0  0  0  0  0  0  0  0
   47.6100   34.0360   37.1090 C   0  0  0  0  0  0  0  0  0  0  0  0
   47.6980   33.4330   35.9170 N   0  0  0  0  0  0  0  0  0  0  0  0
   48.7340   32.5760   35.9880 C   0  0  0  0  0  0  0  0  0  0  0  0
   49.3040   31.6830   35.0740 C   0  0  0  0  0  0  0  0  0  0  0  0
   50.4040   30.9020   35.4420 C   0  0  0  0  0  0  0  0  0  0  0  0
   50.9130   31.0290   36.7180 C   0  0  0  0  0  0  0  0  0  0  0  0
   50.3900   31.8930   37.6570 C   0  0  0  0  0  0  0  0  0  0  0  0
   49.2910   32.6520   37.2400 C   0  0  0  0  0  0  0  0  0  0  0  0
   48.8963   33.6143   41.3527 H   0  0  0  0  0  0  0  0  0  0  0  0
   48.0359   32.3840   40.3959 H   0  0  0  0  0  0  0  0  0  0  0  0
   46.5626   34.7237   39.8756 H   0  0  0  0  0  0  0  0  0  0  0  0
   46.1041   33.4735   41.0624 H   0  0  0  0  0  0  0  0  0  0  0  0
   43.7647   36.5682   44.6619 H   0  0  0  0  0  0  0  0  0  0  0  0
   45.0485   36.8500   42.5531 H   0  0  0  0  0  0  0  0  0  0  0  0
   45.9920   33.1733   45.7467 H   0  0  0  0  0  0  0  0  0  0  0  0
   49.3659   34.8369   39.4550 H   0  0  0  0  0  0  0  0  0  0  0  0
   46.8541   34.7953   37.3581 H   0  0  0  0  0  0  0  0  0  0  0  0
   47.0896   33.5939   35.1016 H   0  0  0  0  0  0  0  0  0  0  0  0
   48.8847   31.5949   34.0609 H   0  0  0  0  0  0  0  0  0  0  0  0
   50.8555   30.1988   34.7267 H   0  0  0  0  0  0  0  0  0  0  0  0
   51.7781   30.4110   37.0001 H   0  0  0  0  0  0  0  0  0  0  0  0
   50.8103   31.9800   38.6698 H   0  0  0  0  0  0  0  0  0  0  0  0
  1  2  1  0
  2  3  1  0
  3  6  1  0
  4  9  2  0
  5  4  1  0
  6  5  2  0
  6  7  1  0
  7  8  2  0
  8  9  1  0
 10  1  1  0
 11 10  1  0
 12 11  2  0
 13 14  1  0
 13 12  1  0
 14 19  2  0
 15 16  2  0
 15 14  1  0
 16 17  1  0
 17 18  2  0
 19 18  1  0
 19 11  1  0
  1 20  1  0
  1 21  1  0
  2 22  1  0
  2 23  1  0
  4 24  1  0
  5 25  1  0
  8 26  1  0
 10 27  1  0
 12 28  1  0
 13 29  1  0
 15 30  1  0
 16 31  1  0
 17 32  1  0
 18 33  1  0
M  ISO  8  20   8  21   8  22   8  23   8  24  14  25  14  26  14  28  14
M  ISO  5  29   9  30  14  31  14  32  14  33  14
M  END
>  <minimizedAffinity>  (1) 
-4.71708441

>  <minimizedRMSD>  (1) 
2.47214031

$$$$
