
     RDKit          3D

 29 30  0  0  0  0  0  0  0  0999 V2000
   45.3720   33.5530   44.0630 C   0  0  0  0  0  0  0  0  0  0  0  0
   45.4290   34.1870   45.4250 C   0  0  0  0  0  0  0  0  0  0  0  0
   46.5540   33.5930   46.1160 N   0  0  0  0  0  0  0  0  0  0  0  0
   46.3560   32.6890   47.2090 C   0  0  0  0  0  0  0  0  0  0  0  0
   45.1140   32.3970   47.7340 C   0  0  0  0  0  0  0  0  0  0  0  0
   44.9120   31.5330   48.7780 C   0  0  0  0  0  0  0  0  0  0  0  0
   46.0080   30.9140   49.3480 C   0  0  0  0  0  0  0  0  0  0  0  0
   47.2580   31.1850   48.8460 C   0  0  0  0  0  0  0  0  0  0  0  0
   47.4470   32.0600   47.7890 C   0  0  0  0  0  0  0  0  0  0  0  0
   45.3320   34.5350   43.0520 O   0  0  0  0  0  0  0  0  0  0  0  0
   47.2830   34.0840   39.9120 C   0  0  0  0  0  0  0  0  0  0  0  0
   46.2010   33.9550   40.7950 C   0  0  0  0  0  0  0  0  0  0  0  0
   46.3060   34.5620   42.0550 C   0  0  0  0  0  0  0  0  0  0  0  0
   47.4740   35.2420   42.3230 N   0  0  0  0  0  0  0  0  0  0  0  0
   48.4860   35.3440   41.4530 C   0  0  0  0  0  0  0  0  0  0  0  0
   48.3770   34.7550   40.2380 N   0  0  0  0  0  0  0  0  0  0  0  0
   46.2640   32.9254   43.9203 H   0  0  0  0  0  0  0  0  0  0  0  0
   44.4587   32.9435   43.9971 H   0  0  0  0  0  0  0  0  0  0  0  0
   45.5729   35.2735   45.3312 H   0  0  0  0  0  0  0  0  0  0  0  0
   44.4929   34.0194   45.9779 H   0  0  0  0  0  0  0  0  0  0  0  0
   47.5121   33.8242   45.8168 H   0  0  0  0  0  0  0  0  0  0  0  0
   44.2351   32.8861   47.2887 H   0  0  0  0  0  0  0  0  0  0  0  0
   43.8975   31.3360   49.1549 H   0  0  0  0  0  0  0  0  0  0  0  0
   45.8820   30.2164   50.1891 H   0  0  0  0  0  0  0  0  0  0  0  0
   48.1330   30.6934   49.2961 H   0  0  0  0  0  0  0  0  0  0  0  0
   48.4611   32.2555   47.4103 H   0  0  0  0  0  0  0  0  0  0  0  0
   47.2210   33.6139   38.9194 H   0  0  0  0  0  0  0  0  0  0  0  0
   45.2984   33.3954   40.5083 H   0  0  0  0  0  0  0  0  0  0  0  0
   49.3963   35.9000   41.7217 H   0  0  0  0  0  0  0  0  0  0  0  0
  1  2  1  0
  2  3  1  0
  3  4  1  0
  4  5  2  0
  4  9  1  0
  5  6  1  0
  6  7  2  0
  8  7  1  0
  9  8  2  0
 10  1  1  0
 11 16  2  0
 11 12  1  0
 12 13  2  0
 13 14  1  0
 13 10  1  0
 15 14  2  0
 16 15  1  0
  1 17  1  0
  1 18  1  0
  2 19  1  0
  2 20  1  0
  3 21  1  0
  5 22  1  0
  6 23  1  0
  7 24  1  0
  8 25  1  0
  9 26  1  0
 11 27  1  0
 12 28  1  0
 15 29  1  0
M  ISO  8  17   8  18   8  19   8  20   8  22  14  23  14  24  14  25  14
M  ISO  4  26  14  27  14  28  14  29  14
M  END
>  <minimizedAffinity>  (1) 
-4.67972517

>  <minimizedRMSD>  (1) 
8.35158062

$$$$
