
     RDKit          3D

 22 22  0  0  0  0  0  0  0  0999 V2000
   48.4320   33.3060   43.1460 C   0  0  0  0  0  0  0  0  0  0  0  0
   49.1180   34.3360   42.2980 C   0  0  0  0  0  0  0  0  0  0  0  0
   49.1210   33.8650   40.9300 N   0  0  0  0  0  0  0  0  0  0  0  0
   48.4280   34.9140   40.1680 C   0  0  0  0  0  0  0  0  0  0  0  0
   47.0860   34.9460   40.4880 F   0  0  0  0  0  0  0  0  0  0  0  0
   48.5500   34.7360   38.8090 F   0  0  0  0  0  0  0  0  0  0  0  0
   48.9490   36.1510   40.4820 F   0  0  0  0  0  0  0  0  0  0  0  0
   47.0440   33.3260   42.9190 O   0  0  0  0  0  0  0  0  0  0  0  0
   44.7450   35.9140   44.2860 C   0  0  0  0  0  0  0  0  0  0  0  0
   45.5630   35.2640   43.3550 C   0  0  0  0  0  0  0  0  0  0  0  0
   46.2050   34.0790   43.7280 C   0  0  0  0  0  0  0  0  0  0  0  0
   45.9720   33.6370   45.0150 N   0  0  0  0  0  0  0  0  0  0  0  0
   45.1830   34.2800   45.8860 C   0  0  0  0  0  0  0  0  0  0  0  0
   44.5760   35.4100   45.5180 N   0  0  0  0  0  0  0  0  0  0  0  0
   48.8255   32.3100   42.8949 H   0  0  0  0  0  0  0  0  0  0  0  0
   48.6225   33.5331   44.2053 H   0  0  0  0  0  0  0  0  0  0  0  0
   48.5768   35.2915   42.3618 H   0  0  0  0  0  0  0  0  0  0  0  0
   50.1488   34.4921   42.6487 H   0  0  0  0  0  0  0  0  0  0  0  0
   50.0859   33.7469   40.5894 H   0  0  0  0  0  0  0  0  0  0  0  0
   44.2354   36.8475   44.0050 H   0  0  0  0  0  0  0  0  0  0  0  0
   45.6989   35.6788   42.3453 H   0  0  0  0  0  0  0  0  0  0  0  0
   45.0362   33.8785   46.8995 H   0  0  0  0  0  0  0  0  0  0  0  0
  2  1  1  0
  3  2  1  0
  4  7  1  0
  4  5  1  0
  4  3  1  0
  6  4  1  0
  8  1  1  0
  8 11  1  0
  9 14  2  0
 10 11  2  0
 10  9  1  0
 11 12  1  0
 12 13  2  0
 14 13  1  0
  1 15  1  0
  1 16  1  0
  2 17  1  0
  2 18  1  0
  3 19  1  0
  9 20  1  0
 10 21  1  0
 13 22  1  0
M  ISO  8  15   8  16   8  17   8  18   8  19   5  20  14  21  14  22  14
M  END
>  <minimizedAffinity>  (1) 
-4.32182789

>  <minimizedRMSD>  (1) 
1.84607327

$$$$
