
     RDKit          3D

 27 28  0  0  0  0  0  0  0  0999 V2000
   45.4080   34.5630   42.8690 C   0  0  0  0  0  0  0  0  0  0  0  0
   44.5380   35.8040   42.7060 C   0  0  0  0  0  0  0  0  0  0  0  0
   43.1860   35.3770   42.6430 N   0  0  0  0  0  0  0  0  0  0  0  0
   42.3600   35.4300   41.4940 C   0  0  0  0  0  0  0  0  0  0  0  0
   42.8010   35.1400   40.2170 C   0  0  0  0  0  0  0  0  0  0  0  0
   41.9740   35.2020   39.1220 C   0  0  0  0  0  0  0  0  0  0  0  0
   40.6810   35.5510   39.2500 N   0  0  0  0  0  0  0  0  0  0  0  0
   40.2420   35.8360   40.4980 C   0  0  0  0  0  0  0  0  0  0  0  0
   41.0470   35.7780   41.5810 N   0  0  0  0  0  0  0  0  0  0  0  0
   46.6530   34.8070   42.2430 O   0  0  0  0  0  0  0  0  0  0  0  0
   48.1380   34.1230   38.9070 C   0  0  0  0  0  0  0  0  0  0  0  0
   48.0570   34.6520   40.1990 C   0  0  0  0  0  0  0  0  0  0  0  0
   46.9020   34.3640   40.9450 C   0  0  0  0  0  0  0  0  0  0  0  0
   45.9460   33.5860   40.3490 N   0  0  0  0  0  0  0  0  0  0  0  0
   46.0580   33.0930   39.1010 C   0  0  0  0  0  0  0  0  0  0  0  0
   47.1570   33.3650   38.3870 N   0  0  0  0  0  0  0  0  0  0  0  0
   45.5636   34.3558   43.9380 H   0  0  0  0  0  0  0  0  0  0  0  0
   44.9168   33.6931   42.4087 H   0  0  0  0  0  0  0  0  0  0  0  0
   44.6791   36.4761   43.5653 H   0  0  0  0  0  0  0  0  0  0  0  0
   44.8129   36.3502   41.7916 H   0  0  0  0  0  0  0  0  0  0  0  0
   42.7707   34.9966   43.5054 H   0  0  0  0  0  0  0  0  0  0  0  0
   43.8519   34.8491   40.0721 H   0  0  0  0  0  0  0  0  0  0  0  0
   42.3748   34.9628   38.1259 H   0  0  0  0  0  0  0  0  0  0  0  0
   39.1898   36.1258   40.6356 H   0  0  0  0  0  0  0  0  0  0  0  0
   49.0301   34.3332   38.2987 H   0  0  0  0  0  0  0  0  0  0  0  0
   48.8665   35.2698   40.6151 H   0  0  0  0  0  0  0  0  0  0  0  0
   45.2557   32.4739   38.6732 H   0  0  0  0  0  0  0  0  0  0  0  0
  2  1  1  0
  3  2  1  0
  4  9  1  0
  4  3  1  0
  5  4  2  0
  6  7  2  0
  6  5  1  0
  7  8  1  0
  8  9  2  0
 10  1  1  0
 11 12  2  0
 12 13  1  0
 13 10  1  0
 14 13  2  0
 15 14  1  0
 16 11  1  0
 16 15  2  0
  1 17  1  0
  1 18  1  0
  2 19  1  0
  2 20  1  0
  3 21  1  0
  5 22  1  0
  6 23  1  0
  8 24  1  0
 11 25  1  0
 12 26  1  0
 15 27  1  0
M  ISO  8  17   8  18   8  19   8  20   8  22  14  23  14  24  14  25  14
M  ISO  2  26  14  27  14
M  END
>  <minimizedAffinity>  (1) 
-4.29433155

>  <minimizedRMSD>  (1) 
7.00650311

$$$$
