
     RDKit          3D

 26 27  0  0  0  0  0  0  0  0999 V2000
   48.3170   34.6940   42.4260 C   0  0  0  0  0  0  0  0  0  0  0  0
   48.5750   35.1530   41.0060 C   0  0  0  0  0  0  0  0  0  0  0  0
   48.9880   33.9900   40.2550 N   0  0  0  0  0  0  0  0  0  0  0  0
   48.2270   33.8600   39.0370 C   0  0  0  0  0  0  0  0  0  0  0  0
   47.0850   33.2620   38.5870 C   0  0  0  0  0  0  0  0  0  0  0  0
   46.9280   33.5400   37.2900 N   0  0  0  0  0  0  0  0  0  0  0  0
   47.9710   34.3120   36.9260 C   0  0  0  0  0  0  0  0  0  0  0  0
   48.7810   34.5160   38.0040 N   0  0  0  0  0  0  0  0  0  0  0  0
   47.0020   34.1860   42.5190 O   0  0  0  0  0  0  0  0  0  0  0  0
   44.5000   35.9110   44.6720 C   0  0  0  0  0  0  0  0  0  0  0  0
   45.2820   35.6560   43.5470 C   0  0  0  0  0  0  0  0  0  0  0  0
   46.1660   34.5640   43.5550 C   0  0  0  0  0  0  0  0  0  0  0  0
   46.1860   33.8060   44.7160 N   0  0  0  0  0  0  0  0  0  0  0  0
   45.4150   34.0880   45.7770 C   0  0  0  0  0  0  0  0  0  0  0  0
   44.5830   35.1340   45.7440 N   0  0  0  0  0  0  0  0  0  0  0  0
   48.4323   35.5444   43.1141 H   0  0  0  0  0  0  0  0  0  0  0  0
   49.0368   33.9073   42.6963 H   0  0  0  0  0  0  0  0  0  0  0  0
   47.6566   35.5759   40.5729 H   0  0  0  0  0  0  0  0  0  0  0  0
   49.3503   35.9329   40.9801 H   0  0  0  0  0  0  0  0  0  0  0  0
   49.7291   33.3388   40.5509 H   0  0  0  0  0  0  0  0  0  0  0  0
   46.4033   32.6493   39.1952 H   0  0  0  0  0  0  0  0  0  0  0  0
   48.1422   34.7147   35.9168 H   0  0  0  0  0  0  0  0  0  0  0  0
   49.6508   35.0674   38.0225 H   0  0  0  0  0  0  0  0  0  0  0  0
   43.8069   36.7652   44.6711 H   0  0  0  0  0  0  0  0  0  0  0  0
   45.2078   36.3037   42.6610 H   0  0  0  0  0  0  0  0  0  0  0  0
   45.4675   33.4570   46.6765 H   0  0  0  0  0  0  0  0  0  0  0  0
  1  9  1  0
  2  1  1  0
  3  2  1  0
  4  3  1  0
  5  4  2  0
  6  5  1  0
  7  6  2  0
  7  8  1  0
  8  4  1  0
  9 12  1  0
 10 15  2  0
 11 12  2  0
 11 10  1  0
 12 13  1  0
 13 14  2  0
 15 14  1  0
  1 16  1  0
  1 17  1  0
  2 18  1  0
  2 19  1  0
  3 20  1  0
  5 21  1  0
  7 22  1  0
  8 23  1  0
 10 24  1  0
 11 25  1  0
 14 26  1  0
M  ISO  8  16   8  17   8  18   8  19   8  21  14  22  14  23   9  24  14
M  ISO  2  25  14  26  14
M  END
>  <minimizedAffinity>  (1) 
-4.27594805

>  <minimizedRMSD>  (1) 
2.78564262

$$$$
