
     RDKit          3D

 22 22  0  0  0  0  0  0  0  0999 V2000
   47.0170   34.0010   41.0480 C   0  0  0  0  0  0  0  0  0  0  0  0
   48.4280   33.9450   40.5290 C   0  0  0  0  0  0  0  0  0  0  0  0
   48.4190   34.5810   39.2530 N   0  0  0  0  0  0  0  0  0  0  0  0
   48.0500   34.0460   37.9920 C   0  0  0  0  0  0  0  0  0  0  0  0
   47.9390   32.8210   37.8420 O   0  0  0  0  0  0  0  0  0  0  0  0
   47.7900   34.7960   36.8600 O   0  0  0  0  0  0  0  0  0  0  0  0
   46.8340   35.1410   41.8250 O   0  0  0  0  0  0  0  0  0  0  0  0
   44.5180   35.8920   44.6180 C   0  0  0  0  0  0  0  0  0  0  0  0
   45.1490   36.0540   43.3780 C   0  0  0  0  0  0  0  0  0  0  0  0
   46.1210   35.1200   43.0150 C   0  0  0  0  0  0  0  0  0  0  0  0
   46.3950   34.1070   43.8940 N   0  0  0  0  0  0  0  0  0  0  0  0
   45.7700   33.9720   45.0890 C   0  0  0  0  0  0  0  0  0  0  0  0
   44.8300   34.8790   45.4340 N   0  0  0  0  0  0  0  0  0  0  0  0
   46.8197   33.1088   41.6604 H   0  0  0  0  0  0  0  0  0  0  0  0
   46.3227   34.0333   40.1954 H   0  0  0  0  0  0  0  0  0  0  0  0
   49.1053   34.4769   41.2133 H   0  0  0  0  0  0  0  0  0  0  0  0
   48.7809   32.9060   40.4515 H   0  0  0  0  0  0  0  0  0  0  0  0
   48.7225   35.5653   39.2457 H   0  0  0  0  0  0  0  0  0  0  0  0
   47.5375   34.3459   36.0152 H   0  0  0  0  0  0  0  0  0  0  0  0
   43.7484   36.6143   44.9278 H   0  0  0  0  0  0  0  0  0  0  0  0
   44.8873   36.8896   42.7122 H   0  0  0  0  0  0  0  0  0  0  0  0
   46.0229   33.1411   45.7640 H   0  0  0  0  0  0  0  0  0  0  0  0
  1  7  1  0
  2  1  1  0
  3  2  1  0
  4  3  1  0
  5  4  2  0
  6  4  1  0
  7 10  1  0
  8 13  2  0
  9  8  1  0
 10  9  2  0
 10 11  1  0
 11 12  2  0
 12 13  1  0
  1 14  1  0
  1 15  1  0
  2 16  1  0
  2 17  1  0
  3 18  1  0
  6 19  1  0
  8 20  1  0
  9 21  1  0
 12 22  1  0
M  ISO  8  14   8  15   8  16   8  17   8  19   3  20  14  21  14  22  14
M  END
>  <minimizedAffinity>  (1) 
-4.26932096

>  <minimizedRMSD>  (1) 
1.43634844

$$$$
