
     RDKit          3D

 23 23  0  0  0  0  0  0  0  0999 V2000
   48.5770   34.4530   42.5870 C   0  0  0  0  0  0  0  0  0  0  0  0
   48.6640   35.6080   41.6210 C   0  0  0  0  0  0  0  0  0  0  0  0
   48.9360   35.0990   40.3180 N   0  0  0  0  0  0  0  0  0  0  0  0
   48.0340   34.5130   39.3910 C   0  0  0  0  0  0  0  0  0  0  0  0
   46.7350   34.0430   39.6640 N   0  0  0  0  0  0  0  0  0  0  0  0
   48.3430   34.3600   38.1950 O   0  0  0  0  0  0  0  0  0  0  0  0
   47.2820   33.9550   42.6460 O   0  0  0  0  0  0  0  0  0  0  0  0
   44.6190   35.8810   44.3950 C   0  0  0  0  0  0  0  0  0  0  0  0
   45.4980   35.5340   43.3570 C   0  0  0  0  0  0  0  0  0  0  0  0
   46.3520   34.4370   43.5590 C   0  0  0  0  0  0  0  0  0  0  0  0
   46.2570   33.7830   44.7720 N   0  0  0  0  0  0  0  0  0  0  0  0
   45.3980   34.1520   45.7380 C   0  0  0  0  0  0  0  0  0  0  0  0
   44.5900   35.2000   45.5310 N   0  0  0  0  0  0  0  0  0  0  0  0
   48.8770   34.7968   43.5879 H   0  0  0  0  0  0  0  0  0  0  0  0
   49.2468   33.6524   42.2400 H   0  0  0  0  0  0  0  0  0  0  0  0
   47.7097   36.1550   41.6122 H   0  0  0  0  0  0  0  0  0  0  0  0
   49.4677   36.2928   41.9294 H   0  0  0  0  0  0  0  0  0  0  0  0
   49.9160   35.1649   40.0078 H   0  0  0  0  0  0  0  0  0  0  0  0
   46.1661   33.6338   38.9091 H   0  0  0  0  0  0  0  0  0  0  0  0
   46.3537   34.1084   40.6186 H   0  0  0  0  0  0  0  0  0  0  0  0
   43.9401   36.7363   44.2624 H   0  0  0  0  0  0  0  0  0  0  0  0
   45.5175   36.1028   42.4157 H   0  0  0  0  0  0  0  0  0  0  0  0
   45.3591   33.5992   46.6882 H   0  0  0  0  0  0  0  0  0  0  0  0
  1  7  1  0
  2  1  1  0
  3  2  1  0
  4  5  1  0
  4  3  1  0
  6  4  2  0
  7 10  1  0
  8 13  2  0
  9 10  2  0
  9  8  1  0
 10 11  1  0
 11 12  2  0
 13 12  1  0
  1 14  1  0
  1 15  1  0
  2 16  1  0
  2 17  1  0
  3 18  1  0
  5 19  1  0
  5 20  1  0
  8 21  1  0
  9 22  1  0
 12 23  1  0
M  ISO  7  14   8  15   8  16   8  17   8  21  14  22  14  23  14
M  END
>  <minimizedAffinity>  (1) 
-4.19899607

>  <minimizedRMSD>  (1) 
0.965341091

$$$$
