
     RDKit          3D

 22 22  0  0  0  0  0  0  0  0999 V2000
   46.8500   35.1290   41.7330 O   0  0  0  0  0  0  0  0  0  0  0  0
   44.5580   35.8520   44.5700 C   0  0  0  0  0  0  0  0  0  0  0  0
   45.1680   36.0320   43.3210 C   0  0  0  0  0  0  0  0  0  0  0  0
   46.1450   35.1110   42.9320 C   0  0  0  0  0  0  0  0  0  0  0  0
   46.4160   34.1050   43.8240 N   0  0  0  0  0  0  0  0  0  0  0  0
   45.8210   33.9500   45.0160 C   0  0  0  0  0  0  0  0  0  0  0  0
   44.8740   34.8500   45.3810 N   0  0  0  0  0  0  0  0  0  0  0  0
   48.1320   34.5910   41.6570 C   0  0  0  0  0  0  0  0  0  0  0  0
   49.1700   35.6500   41.9580 C   0  0  0  0  0  0  0  0  0  0  0  0
   50.1370   35.1040   42.8360 N   0  0  0  0  0  0  0  0  0  0  0  0
   50.6380   33.8080   42.5030 C   0  0  0  0  0  0  0  0  0  0  0  0
   43.7876   36.5688   44.8905 H   0  0  0  0  0  0  0  0  0  0  0  0
   44.8869   36.8712   42.6677 H   0  0  0  0  0  0  0  0  0  0  0  0
   46.0935   33.1159   45.6794 H   0  0  0  0  0  0  0  0  0  0  0  0
   48.2257   33.7742   42.3878 H   0  0  0  0  0  0  0  0  0  0  0  0
   48.2979   34.2096   40.6387 H   0  0  0  0  0  0  0  0  0  0  0  0
   49.6562   35.9673   41.0237 H   0  0  0  0  0  0  0  0  0  0  0  0
   48.6898   36.5218   42.4262 H   0  0  0  0  0  0  0  0  0  0  0  0
   50.9372   35.7519   42.8627 H   0  0  0  0  0  0  0  0  0  0  0  0
   50.8537   33.2500   43.4261 H   0  0  0  0  0  0  0  0  0  0  0  0
   49.8853   33.2643   41.9133 H   0  0  0  0  0  0  0  0  0  0  0  0
   51.5607   33.9120   41.9133 H   0  0  0  0  0  0  0  0  0  0  0  0
  1  4  1  0
  2  7  2  0
  3  2  1  0
  4  3  2  0
  4  5  1  0
  5  6  2  0
  6  7  1  0
  8  1  1  0
  8  9  1  0
  9 10  1  0
 11 10  1  0
  2 12  1  0
  3 13  1  0
  6 14  1  0
  8 15  1  0
  8 16  1  0
  9 17  1  0
  9 18  1  0
 10 19  1  0
 11 20  1  0
 11 21  1  0
 11 22  1  0
M  ISO  8  12  14  13  14  14  14  15   8  16   8  17   8  18   8  19   5
M  ISO  3  20   8  21   8  22   8
M  END
>  <minimizedAffinity>  (1) 
-4.0993309

>  <minimizedRMSD>  (1) 
1.72471583

$$$$
