
     RDKit          3D

 39 41  0  0  0  0  0  0  0  0999 V2000
   44.4500   36.0370   44.8460 C   0  0  0  0  0  0  0  0  0  0  0  0
   44.9920   36.0980   43.5750 C   0  0  0  0  0  0  0  0  0  0  0  0
   45.8850   35.0780   43.1600 C   0  0  0  0  0  0  0  0  0  0  0  0
   46.1650   34.0600   44.0700 N   0  0  0  0  0  0  0  0  0  0  0  0
   45.5990   34.0670   45.2940 C   0  0  0  0  0  0  0  0  0  0  0  0
   44.7530   35.0440   45.6740 N   0  0  0  0  0  0  0  0  0  0  0  0
   46.0070   32.9390   46.0940 N   0  0  0  0  0  0  0  0  0  0  0  0
   45.3940   32.7310   47.2760 C   0  0  0  0  0  0  0  0  0  0  0  0
   45.7760   31.6550   48.0510 C   0  0  0  0  0  0  0  0  0  0  0  0
   45.1050   31.4070   49.3750 C   0  0  0  0  0  0  0  0  0  0  0  0
   46.7770   30.7780   47.6420 C   0  0  0  0  0  0  0  0  0  0  0  0
   47.1520   29.7920   48.3150 O   0  0  0  0  0  0  0  0  0  0  0  0
   47.3420   31.0500   46.4500 N   0  0  0  0  0  0  0  0  0  0  0  0
   46.9900   32.0930   45.6720 C   0  0  0  0  0  0  0  0  0  0  0  0
   47.5230   32.3380   44.5620 O   0  0  0  0  0  0  0  0  0  0  0  0
   46.4950   35.0170   41.9230 O   0  0  0  0  0  0  0  0  0  0  0  0
   47.8670   34.7590   41.8070 C   0  0  0  0  0  0  0  0  0  0  0  0
   48.3200   34.9250   40.3790 C   0  0  0  0  0  0  0  0  0  0  0  0
   47.3690   34.2630   39.5560 N   0  0  0  0  0  0  0  0  0  0  0  0
   47.7870   33.8240   38.2670 C   0  0  0  0  0  0  0  0  0  0  0  0
   48.5210   34.3030   37.2160 C   0  0  0  0  0  0  0  0  0  0  0  0
   48.4520   33.2800   36.2600 C   0  0  0  0  0  0  0  0  0  0  0  0
   47.7230   32.2690   36.7300 N   0  0  0  0  0  0  0  0  0  0  0  0
   47.3160   32.5940   37.9510 N   0  0  0  0  0  0  0  0  0  0  0  0
   43.7564   36.8242   45.1765 H   0  0  0  0  0  0  0  0  0  0  0  0
   44.7343   36.9248   42.8968 H   0  0  0  0  0  0  0  0  0  0  0  0
   44.5994   33.4102   47.6186 H   0  0  0  0  0  0  0  0  0  0  0  0
   45.7974   31.6629   50.1906 H   0  0  0  0  0  0  0  0  0  0  0  0
   44.2022   32.0309   49.4511 H   0  0  0  0  0  0  0  0  0  0  0  0
   44.8250   30.3460   49.4511 H   0  0  0  0  0  0  0  0  0  0  0  0
   48.0872   30.4239   46.1129 H   0  0  0  0  0  0  0  0  0  0  0  0
   48.4221   35.4614   42.4462 H   0  0  0  0  0  0  0  0  0  0  0  0
   48.0605   33.7230   42.1219 H   0  0  0  0  0  0  0  0  0  0  0  0
   48.3641   35.9930   40.1195 H   0  0  0  0  0  0  0  0  0  0  0  0
   49.3238   34.4984   40.2360 H   0  0  0  0  0  0  0  0  0  0  0  0
   46.4049   34.1052   39.8824 H   0  0  0  0  0  0  0  0  0  0  0  0
   49.0441   35.2676   37.1391 H   0  0  0  0  0  0  0  0  0  0  0  0
   48.9289   33.3080   35.2691 H   0  0  0  0  0  0  0  0  0  0  0  0
   47.5125   31.3911   36.2341 H   0  0  0  0  0  0  0  0  0  0  0  0
  1  6  2  0
  2  1  1  0
  3  2  2  0
  3  4  1  0
  4  5  2  0
  5  6  1  0
  5  7  1  0
  7  8  1  0
  8  9  2  0
  9 10  1  0
 11  9  1  0
 11 12  2  0
 13 11  1  0
 14  7  1  0
 14 13  1  0
 15 14  2  0
 16  3  1  0
 17 16  1  0
 18 17  1  0
 19 18  1  0
 20 19  1  0
 21 20  1  0
 22 23  1  0
 22 21  2  0
 23 24  1  0
 24 20  2  0
  1 25  1  0
  2 26  1  0
  8 27  1  0
 10 28  1  0
 10 29  1  0
 10 30  1  0
 13 31  1  0
 17 32  1  0
 17 33  1  0
 18 34  1  0
 18 35  1  0
 19 36  1  0
 21 37  1  0
 22 38  1  0
 23 39  1  0
M  ISO  8  25  14  26  14  27  14  28   8  29   8  30   8  31   9  32   8
M  ISO  6  33   8  34   8  35   8  37  14  38  14  39   9
M  END
>  <minimizedAffinity>  (1) 
-6.54803181

>  <minimizedRMSD>  (1) 
0.243900701

$$$$
