
     RDKit          3D

 39 42  0  0  0  0  0  0  0  0999 V2000
   44.5610   35.4750   44.8830 C   0  0  0  0  0  0  0  0  0  0  0  0
   45.1130   35.9200   43.6840 C   0  0  0  0  0  0  0  0  0  0  0  0
   46.1740   35.1880   43.0990 C   0  0  0  0  0  0  0  0  0  0  0  0
   46.6120   34.0470   43.7690 N   0  0  0  0  0  0  0  0  0  0  0  0
   46.0310   33.6760   44.9260 C   0  0  0  0  0  0  0  0  0  0  0  0
   45.0190   34.3850   45.4730 N   0  0  0  0  0  0  0  0  0  0  0  0
   46.5040   32.5070   45.5830 N   0  0  0  0  0  0  0  0  0  0  0  0
   47.2080   31.5770   44.8820 C   0  0  0  0  0  0  0  0  0  0  0  0
   47.5370   30.5700   45.7320 N   0  0  0  0  0  0  0  0  0  0  0  0
   47.0360   30.8890   46.9370 C   0  0  0  0  0  0  0  0  0  0  0  0
   47.0090   30.3240   48.2020 C   0  0  0  0  0  0  0  0  0  0  0  0
   46.4040   30.8990   49.2550 N   0  0  0  0  0  0  0  0  0  0  0  0
   45.7850   32.0900   49.1070 C   0  0  0  0  0  0  0  0  0  0  0  0
   45.7650   32.7080   47.9050 N   0  0  0  0  0  0  0  0  0  0  0  0
   46.3810   32.1060   46.8610 C   0  0  0  0  0  0  0  0  0  0  0  0
   47.6710   29.0560   48.3520 N   0  0  0  0  0  0  0  0  0  0  0  0
   46.8150   35.5140   41.9170 O   0  0  0  0  0  0  0  0  0  0  0  0
   48.2200   35.3590   41.8150 C   0  0  0  0  0  0  0  0  0  0  0  0
   48.6210   35.2250   40.3600 C   0  0  0  0  0  0  0  0  0  0  0  0
   47.6320   34.4170   39.7350 N   0  0  0  0  0  0  0  0  0  0  0  0
   47.9130   33.9190   38.4320 C   0  0  0  0  0  0  0  0  0  0  0  0
   48.4550   34.3780   37.2600 C   0  0  0  0  0  0  0  0  0  0  0  0
   48.3560   33.2850   36.3850 C   0  0  0  0  0  0  0  0  0  0  0  0
   47.7900   32.2560   37.0140 N   0  0  0  0  0  0  0  0  0  0  0  0
   47.5170   32.6300   38.2560 N   0  0  0  0  0  0  0  0  0  0  0  0
   43.7351   36.0369   45.3435 H   0  0  0  0  0  0  0  0  0  0  0  0
   44.7292   36.8290   43.1978 H   0  0  0  0  0  0  0  0  0  0  0  0
   47.4655   31.6313   43.8139 H   0  0  0  0  0  0  0  0  0  0  0  0
   45.2934   32.5608   49.9711 H   0  0  0  0  0  0  0  0  0  0  0  0
   47.6842   28.5872   49.2690 H   0  0  0  0  0  0  0  0  0  0  0  0
   48.1319   28.6167   47.5424 H   0  0  0  0  0  0  0  0  0  0  0  0
   48.7163   36.2388   42.2503 H   0  0  0  0  0  0  0  0  0  0  0  0
   48.5243   34.4526   42.3589 H   0  0  0  0  0  0  0  0  0  0  0  0
   48.6568   36.2161   39.8841 H   0  0  0  0  0  0  0  0  0  0  0  0
   49.6189   34.7720   40.2653 H   0  0  0  0  0  0  0  0  0  0  0  0
   46.7435   34.1998   40.2087 H   0  0  0  0  0  0  0  0  0  0  0  0
   48.8720   35.3745   37.0526 H   0  0  0  0  0  0  0  0  0  0  0  0
   48.6945   33.2790   35.3384 H   0  0  0  0  0  0  0  0  0  0  0  0
   47.5978   31.3301   36.6058 H   0  0  0  0  0  0  0  0  0  0  0  0
  1  6  2  0
  2  1  1  0
  3  2  2  0
  3  4  1  0
  4  5  2  0
  5  6  1  0
  5  7  1  0
  7 15  1  0
  8  7  1  0
  8  9  2  0
  9 10  1  0
 10 11  2  0
 11 16  1  0
 11 12  1  0
 13 12  2  0
 14 13  1  0
 15 10  1  0
 15 14  2  0
 17  3  1  0
 18 17  1  0
 19 18  1  0
 20 19  1  0
 21 20  1  0
 22 21  1  0
 23 24  1  0
 23 22  2  0
 24 25  1  0
 25 21  2  0
  1 26  1  0
  2 27  1  0
  8 28  1  0
 13 29  1  0
 16 30  1  0
 16 31  1  0
 18 32  1  0
 18 33  1  0
 19 34  1  0
 19 35  1  0
 20 36  1  0
 22 37  1  0
 23 38  1  0
 24 39  1  0
M  ISO  8  26  14  27  14  28  14  29  14  32   8  33   8  34   8  35   8
M  ISO  3  37  14  38  14  39   9
M  END
>  <minimizedAffinity>  (1) 
-6.37405252

>  <minimizedRMSD>  (1) 
1.12441003

$$$$
