
     RDKit          3D

 40 43  0  0  0  0  0  0  0  0999 V2000
   44.4670   35.8820   44.9120 C   0  0  0  0  0  0  0  0  0  0  0  0
   45.0460   36.0060   43.6530 C   0  0  0  0  0  0  0  0  0  0  0  0
   45.9640   35.0410   43.2480 C   0  0  0  0  0  0  0  0  0  0  0  0
   46.1940   34.0630   44.1510 N   0  0  0  0  0  0  0  0  0  0  0  0
   45.6650   33.9120   45.3550 C   0  0  0  0  0  0  0  0  0  0  0  0
   44.7680   34.8750   45.7220 N   0  0  0  0  0  0  0  0  0  0  0  0
   45.8640   32.8950   46.3720 C   0  0  0  0  0  0  0  0  0  0  0  0
   45.3280   32.9820   47.5920 N   0  0  0  0  0  0  0  0  0  0  0  0
   45.4540   32.1060   48.5810 C   0  0  0  0  0  0  0  0  0  0  0  0
   46.1870   30.9970   48.3920 N   0  0  0  0  0  0  0  0  0  0  0  0
   46.7920   30.7850   47.1900 C   0  0  0  0  0  0  0  0  0  0  0  0
   47.5450   29.6470   46.9950 C   0  0  0  0  0  0  0  0  0  0  0  0
   48.1630   29.4150   45.7850 C   0  0  0  0  0  0  0  0  0  0  0  0
   47.9890   30.3780   44.7850 C   0  0  0  0  0  0  0  0  0  0  0  0
   47.2240   31.4940   45.0450 C   0  0  0  0  0  0  0  0  0  0  0  0
   46.6030   31.7430   46.2340 C   0  0  0  0  0  0  0  0  0  0  0  0
   46.6560   34.9640   42.0480 O   0  0  0  0  0  0  0  0  0  0  0  0
   48.0380   35.1680   41.9850 C   0  0  0  0  0  0  0  0  0  0  0  0
   48.5210   35.1210   40.5650 C   0  0  0  0  0  0  0  0  0  0  0  0
   47.5460   34.4040   39.8110 N   0  0  0  0  0  0  0  0  0  0  0  0
   47.9040   33.9600   38.5030 C   0  0  0  0  0  0  0  0  0  0  0  0
   48.5080   34.4760   37.3890 C   0  0  0  0  0  0  0  0  0  0  0  0
   48.4710   33.4170   36.4640 C   0  0  0  0  0  0  0  0  0  0  0  0
   47.8800   32.3590   37.0210 N   0  0  0  0  0  0  0  0  0  0  0  0
   47.5270   32.6720   38.2690 N   0  0  0  0  0  0  0  0  0  0  0  0
   43.7409   36.6384   45.2446 H   0  0  0  0  0  0  0  0  0  0  0  0
   44.7846   36.8465   42.9933 H   0  0  0  0  0  0  0  0  0  0  0  0
   44.9618   32.2870   49.5479 H   0  0  0  0  0  0  0  0  0  0  0  0
   47.6536   28.9181   47.8117 H   0  0  0  0  0  0  0  0  0  0  0  0
   48.7669   28.5118   45.6130 H   0  0  0  0  0  0  0  0  0  0  0  0
   48.4591   30.2452   43.7994 H   0  0  0  0  0  0  0  0  0  0  0  0
   47.1060   32.2340   44.2398 H   0  0  0  0  0  0  0  0  0  0  0  0
   48.2769   36.1521   42.4145 H   0  0  0  0  0  0  0  0  0  0  0  0
   48.5378   34.3697   42.5533 H   0  0  0  0  0  0  0  0  0  0  0  0
   48.6274   36.1418   40.1692 H   0  0  0  0  0  0  0  0  0  0  0  0
   49.5024   34.6281   40.5027 H   0  0  0  0  0  0  0  0  0  0  0  0
   46.6113   34.2123   40.1989 H   0  0  0  0  0  0  0  0  0  0  0  0
   48.9253   35.4841   37.2493 H   0  0  0  0  0  0  0  0  0  0  0  0
   48.8683   33.4555   35.4390 H   0  0  0  0  0  0  0  0  0  0  0  0
   47.7221   31.4500   36.5631 H   0  0  0  0  0  0  0  0  0  0  0  0
  1  6  2  0
  2  1  1  0
  3  2  2  0
  3  4  1  0
  4  5  2  0
  5  6  1  0
  5  7  1  0
  7  8  2  0
  8  9  1  0
 10  9  2  0
 11 10  1  0
 12 11  2  0
 13 12  1  0
 14 15  1  0
 14 13  2  0
 15 16  2  0
 16  7  1  0
 16 11  1  0
 17  3  1  0
 18 17  1  0
 19 18  1  0
 20 19  1  0
 21 20  1  0
 22 21  1  0
 23 24  1  0
 23 22  2  0
 24 25  1  0
 25 21  2  0
  1 26  1  0
  2 27  1  0
  9 28  1  0
 12 29  1  0
 13 30  1  0
 14 31  1  0
 15 32  1  0
 18 33  1  0
 18 34  1  0
 19 35  1  0
 19 36  1  0
 20 37  1  0
 22 38  1  0
 23 39  1  0
 24 40  1  0
M  ISO  8  26  14  27  14  28  14  29  14  30  14  31  14  32  14  33   8
M  ISO  6  34   8  35   8  36   8  38  14  39  14  40   9
M  END
>  <minimizedAffinity>  (1) 
-6.23884821

>  <minimizedRMSD>  (1) 
0.536004841

$$$$
