
     RDKit          3D

 36 38  0  0  0  0  0  0  0  0999 V2000
   46.6550   34.8420   42.0250 O   0  0  0  0  0  0  0  0  0  0  0  0
   44.3800   36.1310   44.6730 C   0  0  0  0  0  0  0  0  0  0  0  0
   45.0330   36.0510   43.4490 C   0  0  0  0  0  0  0  0  0  0  0  0
   45.9440   35.0240   43.2010 C   0  0  0  0  0  0  0  0  0  0  0  0
   46.1410   34.1290   44.2230 N   0  0  0  0  0  0  0  0  0  0  0  0
   45.4990   34.2280   45.3950 C   0  0  0  0  0  0  0  0  0  0  0  0
   44.6180   35.2330   45.6120 N   0  0  0  0  0  0  0  0  0  0  0  0
   45.8490   33.1870   46.3320 N   0  0  0  0  0  0  0  0  0  0  0  0
   45.1990   33.1320   47.5010 C   0  0  0  0  0  0  0  0  0  0  0  0
   45.5740   32.1060   48.3750 C   0  0  0  0  0  0  0  0  0  0  0  0
   46.5700   31.2510   47.9550 C   0  0  0  0  0  0  0  0  0  0  0  0
   46.9210   30.3220   48.7270 O   0  0  0  0  0  0  0  0  0  0  0  0
   47.1820   31.3630   46.7670 N   0  0  0  0  0  0  0  0  0  0  0  0
   46.8220   32.3580   45.9140 C   0  0  0  0  0  0  0  0  0  0  0  0
   47.3780   32.4860   44.7940 O   0  0  0  0  0  0  0  0  0  0  0  0
   48.0390   35.1500   41.9720 C   0  0  0  0  0  0  0  0  0  0  0  0
   48.5360   35.0650   40.5520 C   0  0  0  0  0  0  0  0  0  0  0  0
   47.5250   34.4150   39.7900 N   0  0  0  0  0  0  0  0  0  0  0  0
   47.8620   33.9650   38.4820 C   0  0  0  0  0  0  0  0  0  0  0  0
   48.5310   34.4500   37.3890 C   0  0  0  0  0  0  0  0  0  0  0  0
   48.4230   33.4200   36.4370 C   0  0  0  0  0  0  0  0  0  0  0  0
   47.7330   32.4040   36.9560 N   0  0  0  0  0  0  0  0  0  0  0  0
   47.3860   32.7210   38.1980 N   0  0  0  0  0  0  0  0  0  0  0  0
   43.6632   36.9441   44.8604 H   0  0  0  0  0  0  0  0  0  0  0  0
   44.8304   36.8019   42.6711 H   0  0  0  0  0  0  0  0  0  0  0  0
   44.4118   33.8552   47.7606 H   0  0  0  0  0  0  0  0  0  0  0  0
   45.0935   31.9866   49.3573 H   0  0  0  0  0  0  0  0  0  0  0  0
   47.9221   30.6975   46.5020 H   0  0  0  0  0  0  0  0  0  0  0  0
   48.1994   36.1694   42.3529 H   0  0  0  0  0  0  0  0  0  0  0  0
   48.5919   34.4273   42.5901 H   0  0  0  0  0  0  0  0  0  0  0  0
   48.7165   36.0748   40.1549 H   0  0  0  0  0  0  0  0  0  0  0  0
   49.4821   34.5060   40.5024 H   0  0  0  0  0  0  0  0  0  0  0  0
   46.5791   34.2745   40.1728 H   0  0  0  0  0  0  0  0  0  0  0  0
   49.0362   35.4211   37.2809 H   0  0  0  0  0  0  0  0  0  0  0  0
   48.8431   33.4484   35.4208 H   0  0  0  0  0  0  0  0  0  0  0  0
   47.5071   31.5218   36.4747 H   0  0  0  0  0  0  0  0  0  0  0  0
  1  4  1  0
  2  7  2  0
  3  2  1  0
  4  3  2  0
  4  5  1  0
  5  6  2  0
  6  7  1  0
  6  8  1  0
  8  9  1  0
  9 10  2  0
 11 10  1  0
 11 12  2  0
 13 11  1  0
 14  8  1  0
 14 13  1  0
 15 14  2  0
 16  1  1  0
 17 16  1  0
 18 17  1  0
 19 18  1  0
 20 19  1  0
 21 22  1  0
 21 20  2  0
 22 23  1  0
 23 19  2  0
  2 24  1  0
  3 25  1  0
  9 26  1  0
 10 27  1  0
 13 28  1  0
 16 29  1  0
 16 30  1  0
 17 31  1  0
 17 32  1  0
 18 33  1  0
 20 34  1  0
 21 35  1  0
 22 36  1  0
M  ISO  8  24  14  25  14  26  14  27  14  28   9  29   8  30   8  31   8
M  ISO  4  32   8  34  14  35  14  36   9
M  END
>  <minimizedAffinity>  (1) 
-6.23106861

>  <minimizedRMSD>  (1) 
0.29629454

$$$$
