
     RDKit          3D

 36 38  0  0  0  0  0  0  0  0999 V2000
   46.8750   34.4000   42.2380 O   0  0  0  0  0  0  0  0  0  0  0  0
   44.5400   35.6590   44.8550 C   0  0  0  0  0  0  0  0  0  0  0  0
   45.1990   35.5710   43.6350 C   0  0  0  0  0  0  0  0  0  0  0  0
   46.1580   34.5810   43.4070 C   0  0  0  0  0  0  0  0  0  0  0  0
   46.4110   33.7010   44.4570 N   0  0  0  0  0  0  0  0  0  0  0  0
   45.7470   33.8260   45.6220 C   0  0  0  0  0  0  0  0  0  0  0  0
   44.8250   34.7930   45.8140 N   0  0  0  0  0  0  0  0  0  0  0  0
   46.0220   32.8980   46.7130 C   0  0  0  0  0  0  0  0  0  0  0  0
   47.1440   32.1040   46.7130 C   0  0  0  0  0  0  0  0  0  0  0  0
   47.4660   31.2130   47.7010 C   0  0  0  0  0  0  0  0  0  0  0  0
   46.5800   31.1160   48.7750 C   0  0  0  0  0  0  0  0  0  0  0  0
   45.4280   31.8960   48.8270 C   0  0  0  0  0  0  0  0  0  0  0  0
   45.1720   32.7770   47.7860 C   0  0  0  0  0  0  0  0  0  0  0  0
   48.1500   35.0080   42.0960 C   0  0  0  0  0  0  0  0  0  0  0  0
   48.4980   35.1510   40.6350 C   0  0  0  0  0  0  0  0  0  0  0  0
   47.5280   34.4190   39.8970 N   0  0  0  0  0  0  0  0  0  0  0  0
   47.8770   33.9900   38.5880 C   0  0  0  0  0  0  0  0  0  0  0  0
   48.4960   34.5180   37.4770 C   0  0  0  0  0  0  0  0  0  0  0  0
   48.4390   33.4770   36.5360 C   0  0  0  0  0  0  0  0  0  0  0  0
   47.8300   32.4160   37.0680 N   0  0  0  0  0  0  0  0  0  0  0  0
   47.4860   32.7190   38.3130 N   0  0  0  0  0  0  0  0  0  0  0  0
   43.7868   36.4430   45.0224 H   0  0  0  0  0  0  0  0  0  0  0  0
   44.9624   36.2908   42.8376 H   0  0  0  0  0  0  0  0  0  0  0  0
   47.8316   32.1907   45.8588 H   0  0  0  0  0  0  0  0  0  0  0  0
   48.3796   30.6025   47.6509 H   0  0  0  0  0  0  0  0  0  0  0  0
   46.7952   30.4126   49.5928 H   0  0  0  0  0  0  0  0  0  0  0  0
   44.7342   31.8154   49.6768 H   0  0  0  0  0  0  0  0  0  0  0  0
   44.2633   33.3959   47.8206 H   0  0  0  0  0  0  0  0  0  0  0  0
   48.1325   36.0030   42.5646 H   0  0  0  0  0  0  0  0  0  0  0  0
   48.9059   34.3762   42.5853 H   0  0  0  0  0  0  0  0  0  0  0  0
   48.4716   36.2114   40.3436 H   0  0  0  0  0  0  0  0  0  0  0  0
   49.5099   34.7683   40.4359 H   0  0  0  0  0  0  0  0  0  0  0  0
   46.6032   34.2067   40.2978 H   0  0  0  0  0  0  0  0  0  0  0  0
   48.9327   35.5202   37.3551 H   0  0  0  0  0  0  0  0  0  0  0  0
   48.8375   33.5288   35.5120 H   0  0  0  0  0  0  0  0  0  0  0  0
   47.6570   31.5178   36.5945 H   0  0  0  0  0  0  0  0  0  0  0  0
  1  4  1  0
  2  7  2  0
  3  2  1  0
  4  3  2  0
  4  5  1  0
  5  6  2  0
  6  7  1  0
  6  8  1  0
  8 13  1  0
  9  8  2  0
  9 10  1  0
 10 11  2  0
 11 12  1  0
 13 12  2  0
 14  1  1  0
 15 14  1  0
 16 15  1  0
 17 16  1  0
 18 17  1  0
 19 20  1  0
 19 18  2  0
 20 21  1  0
 21 17  2  0
  2 22  1  0
  3 23  1  0
  9 24  1  0
 10 25  1  0
 11 26  1  0
 12 27  1  0
 13 28  1  0
 14 29  1  0
 14 30  1  0
 15 31  1  0
 15 32  1  0
 16 33  1  0
 18 34  1  0
 19 35  1  0
 20 36  1  0
M  ISO  8  22  14  23  14  24  14  25  14  26  14  27  14  28  14  29   8
M  ISO  6  30   8  31   8  32   8  34  14  35  14  36   9
M  END
>  <minimizedAffinity>  (1) 
-5.95056486

>  <minimizedRMSD>  (1) 
0.449512005

$$$$
