
     RDKit          3D

 36 38  0  0  0  0  0  0  0  0999 V2000
   46.9010   34.3640   42.2750 O   0  0  0  0  0  0  0  0  0  0  0  0
   44.5270   35.7140   44.8020 C   0  0  0  0  0  0  0  0  0  0  0  0
   45.2060   35.6120   43.5810 C   0  0  0  0  0  0  0  0  0  0  0  0
   46.1500   34.5980   43.4140 C   0  0  0  0  0  0  0  0  0  0  0  0
   46.3370   33.7650   44.4890 N   0  0  0  0  0  0  0  0  0  0  0  0
   45.6830   33.8780   45.6430 C   0  0  0  0  0  0  0  0  0  0  0  0
   44.7670   34.8710   45.7890 N   0  0  0  0  0  0  0  0  0  0  0  0
   45.9620   32.9350   46.7220 C   0  0  0  0  0  0  0  0  0  0  0  0
   45.1390   32.8160   47.8200 C   0  0  0  0  0  0  0  0  0  0  0  0
   45.4870   31.8970   48.7870 C   0  0  0  0  0  0  0  0  0  0  0  0
   46.6370   31.1160   48.6510 C   0  0  0  0  0  0  0  0  0  0  0  0
   47.4470   31.2370   47.5670 C   0  0  0  0  0  0  0  0  0  0  0  0
   47.0940   32.1580   46.6010 C   0  0  0  0  0  0  0  0  0  0  0  0
   48.1820   34.9430   42.1260 C   0  0  0  0  0  0  0  0  0  0  0  0
   48.4840   35.1610   40.6600 C   0  0  0  0  0  0  0  0  0  0  0  0
   47.5210   34.4190   39.9220 N   0  0  0  0  0  0  0  0  0  0  0  0
   47.8680   33.9940   38.6090 C   0  0  0  0  0  0  0  0  0  0  0  0
   48.4790   34.5190   37.5040 C   0  0  0  0  0  0  0  0  0  0  0  0
   48.4210   33.4770   36.5580 C   0  0  0  0  0  0  0  0  0  0  0  0
   47.8130   32.4180   37.0930 N   0  0  0  0  0  0  0  0  0  0  0  0
   47.4740   32.7210   38.3350 N   0  0  0  0  0  0  0  0  0  0  0  0
   43.7809   36.5103   44.9407 H   0  0  0  0  0  0  0  0  0  0  0  0
   44.9981   36.3208   42.7659 H   0  0  0  0  0  0  0  0  0  0  0  0
   44.2344   33.4335   47.9219 H   0  0  0  0  0  0  0  0  0  0  0  0
   44.8512   31.7774   49.6766 H   0  0  0  0  0  0  0  0  0  0  0  0
   46.8917   30.3892   49.4364 H   0  0  0  0  0  0  0  0  0  0  0  0
   48.3531   30.6222   47.4626 H   0  0  0  0  0  0  0  0  0  0  0  0
   47.7321   32.2746   45.7126 H   0  0  0  0  0  0  0  0  0  0  0  0
   48.2083   35.9093   42.6509 H   0  0  0  0  0  0  0  0  0  0  0  0
   48.9362   34.2657   42.5531 H   0  0  0  0  0  0  0  0  0  0  0  0
   48.4069   36.2302   40.4134 H   0  0  0  0  0  0  0  0  0  0  0  0
   49.5046   34.8310   40.4163 H   0  0  0  0  0  0  0  0  0  0  0  0
   46.6001   34.1959   40.3257 H   0  0  0  0  0  0  0  0  0  0  0  0
   48.9145   35.5218   37.3822 H   0  0  0  0  0  0  0  0  0  0  0  0
   48.8173   33.5291   35.5332 H   0  0  0  0  0  0  0  0  0  0  0  0
   47.6376   31.5195   36.6209 H   0  0  0  0  0  0  0  0  0  0  0  0
  1  4  1  0
  2  7  2  0
  3  2  1  0
  4  3  2  0
  4  5  1  0
  5  6  2  0
  6  7  1  0
  6  8  1  0
  8  9  2  0
  9 10  1  0
 11 10  2  0
 12 11  1  0
 13  8  1  0
 13 12  2  0
 14  1  1  0
 15 14  1  0
 16 15  1  0
 17 16  1  0
 18 17  1  0
 19 20  1  0
 19 18  2  0
 20 21  1  0
 21 17  2  0
  2 22  1  0
  3 23  1  0
  9 24  1  0
 10 25  1  0
 11 26  1  0
 12 27  1  0
 13 28  1  0
 14 29  1  0
 14 30  1  0
 15 31  1  0
 15 32  1  0
 16 33  1  0
 18 34  1  0
 19 35  1  0
 20 36  1  0
M  ISO  8  22  14  23  14  24  14  25  14  26  14  27  14  28  14  29   8
M  ISO  6  30   8  31   8  32   8  34  14  35  14  36   9
M  END
>  <minimizedAffinity>  (1) 
-5.92040825

>  <minimizedRMSD>  (1) 
0.47923097

$$$$
