
     RDKit          3D

 38 40  0  0  0  0  0  0  0  0999 V2000
   48.0410   35.1470   42.0130 C   0  0  0  0  0  0  0  0  0  0  0  0
   48.4970   35.1260   40.5790 C   0  0  0  0  0  0  0  0  0  0  0  0
   47.5180   34.3810   39.8350 N   0  0  0  0  0  0  0  0  0  0  0  0
   47.8820   33.9560   38.5270 C   0  0  0  0  0  0  0  0  0  0  0  0
   48.4940   34.4830   37.4250 C   0  0  0  0  0  0  0  0  0  0  0  0
   48.4800   33.4440   36.4770 C   0  0  0  0  0  0  0  0  0  0  0  0
   47.8870   32.3750   37.0140 N   0  0  0  0  0  0  0  0  0  0  0  0
   47.5230   32.6750   38.2520 N   0  0  0  0  0  0  0  0  0  0  0  0
   46.6520   34.8870   42.0900 O   0  0  0  0  0  0  0  0  0  0  0  0
   44.4640   35.8940   44.9250 C   0  0  0  0  0  0  0  0  0  0  0  0
   45.0630   35.9540   43.6610 C   0  0  0  0  0  0  0  0  0  0  0  0
   45.9790   34.9680   43.2940 C   0  0  0  0  0  0  0  0  0  0  0  0
   46.2180   34.0000   44.2370 N   0  0  0  0  0  0  0  0  0  0  0  0
   45.6420   33.9560   45.4340 C   0  0  0  0  0  0  0  0  0  0  0  0
   44.7590   34.9130   45.7750 N   0  0  0  0  0  0  0  0  0  0  0  0
   45.9270   32.9260   46.3730 N   0  0  0  0  0  0  0  0  0  0  0  0
   47.0340   31.9880   46.3500 C   0  0  0  0  0  0  0  0  0  0  0  0
   47.3910   31.7700   47.8210 C   0  0  0  0  0  0  0  0  0  0  0  0
   46.2800   32.4540   48.6050 C   0  0  0  0  0  0  0  0  0  0  0  0
   45.1820   32.5750   47.5670 C   0  0  0  0  0  0  0  0  0  0  0  0
   48.2496   36.1365   42.4458 H   0  0  0  0  0  0  0  0  0  0  0  0
   48.5823   34.3697   42.5723 H   0  0  0  0  0  0  0  0  0  0  0  0
   48.5657   36.1526   40.1898 H   0  0  0  0  0  0  0  0  0  0  0  0
   49.4910   34.6632   40.4910 H   0  0  0  0  0  0  0  0  0  0  0  0
   46.5926   34.1642   40.2320 H   0  0  0  0  0  0  0  0  0  0  0  0
   48.9064   35.4957   37.3056 H   0  0  0  0  0  0  0  0  0  0  0  0
   48.8910   33.5026   35.4583 H   0  0  0  0  0  0  0  0  0  0  0  0
   47.7378   31.4702   36.5451 H   0  0  0  0  0  0  0  0  0  0  0  0
   43.7399   36.6679   45.2196 H   0  0  0  0  0  0  0  0  0  0  0  0
   44.8142   36.7691   42.9655 H   0  0  0  0  0  0  0  0  0  0  0  0
   46.7298   31.0409   45.8805 H   0  0  0  0  0  0  0  0  0  0  0  0
   47.8868   32.3660   45.7671 H   0  0  0  0  0  0  0  0  0  0  0  0
   47.4238   30.6957   48.0552 H   0  0  0  0  0  0  0  0  0  0  0  0
   48.3818   32.1783   48.0692 H   0  0  0  0  0  0  0  0  0  0  0  0
   45.9566   31.8387   49.4575 H   0  0  0  0  0  0  0  0  0  0  0  0
   46.5789   33.4167   49.0453 H   0  0  0  0  0  0  0  0  0  0  0  0
   44.4642   33.3641   47.8357 H   0  0  0  0  0  0  0  0  0  0  0  0
   44.5755   31.6639   47.4573 H   0  0  0  0  0  0  0  0  0  0  0  0
  1  9  1  0
  2  1  1  0
  3  2  1  0
  4  3  1  0
  5  4  1  0
  6  7  1  0
  6  5  2  0
  7  8  1  0
  8  4  2  0
  9 12  1  0
 10 15  2  0
 11 10  1  0
 12 11  2  0
 12 13  1  0
 13 14  2  0
 14 15  1  0
 14 16  1  0
 16 20  1  0
 17 16  1  0
 17 18  1  0
 18 19  1  0
 20 19  1  0
  1 21  1  0
  1 22  1  0
  2 23  1  0
  2 24  1  0
  3 25  1  0
  5 26  1  0
  6 27  1  0
  7 28  1  0
 10 29  1  0
 11 30  1  0
 17 31  1  0
 17 32  1  0
 18 33  1  0
 18 34  1  0
 19 35  1  0
 19 36  1  0
 20 37  1  0
 20 38  1  0
M  ISO  8  21   8  22   8  23   8  24   8  26  14  27  14  28   9  29  14
M  ISO  8  30  14  31  13  32  13  33  13  34  13  35  13  36  13  37  13
M  ISO  1  38  13
M  END
>  <minimizedAffinity>  (1) 
-5.72983551

>  <minimizedRMSD>  (1) 
0.162538558

$$$$
