
     RDKit          3D

 32 34  0  0  0  0  0  0  0  0999 V2000
   48.0960   35.0720   42.0710 C   0  0  0  0  0  0  0  0  0  0  0  0
   48.5010   35.1340   40.6190 C   0  0  0  0  0  0  0  0  0  0  0  0
   47.5310   34.4070   39.8770 N   0  0  0  0  0  0  0  0  0  0  0  0
   47.8810   33.9850   38.5640 C   0  0  0  0  0  0  0  0  0  0  0  0
   48.5140   34.4990   37.4650 C   0  0  0  0  0  0  0  0  0  0  0  0
   48.4410   33.4700   36.5120 C   0  0  0  0  0  0  0  0  0  0  0  0
   47.8040   32.4230   37.0340 N   0  0  0  0  0  0  0  0  0  0  0  0
   47.4590   32.7230   38.2780 N   0  0  0  0  0  0  0  0  0  0  0  0
   46.7550   34.6220   42.1810 O   0  0  0  0  0  0  0  0  0  0  0  0
   44.4950   35.8010   44.8910 C   0  0  0  0  0  0  0  0  0  0  0  0
   45.1250   35.7740   43.6550 C   0  0  0  0  0  0  0  0  0  0  0  0
   46.0540   34.7760   43.3590 C   0  0  0  0  0  0  0  0  0  0  0  0
   46.2940   33.8390   44.3610 N   0  0  0  0  0  0  0  0  0  0  0  0
   45.6720   33.8850   45.5500 C   0  0  0  0  0  0  0  0  0  0  0  0
   44.7800   34.8620   45.8060 N   0  0  0  0  0  0  0  0  0  0  0  0
   46.0180   32.8220   46.5310 C   0  0  0  0  0  0  0  0  0  0  0  0
   47.0580   31.7530   46.3980 C   0  0  0  0  0  0  0  0  0  0  0  0
   46.8160   30.9360   47.9740 S   0  0  0  0  0  0  0  0  0  0  0  0
   45.4100   32.1010   48.5560 C   0  0  0  0  0  0  0  0  0  0  0  0
   45.1560   33.1040   47.5150 N   0  0  0  0  0  0  0  0  0  0  0  0
   48.1818   36.0741   42.5164 H   0  0  0  0  0  0  0  0  0  0  0  0
   48.7572   34.3708   42.6011 H   0  0  0  0  0  0  0  0  0  0  0  0
   48.5273   36.1802   40.2801 H   0  0  0  0  0  0  0  0  0  0  0  0
   49.5030   34.7033   40.4760 H   0  0  0  0  0  0  0  0  0  0  0  0
   46.6060   34.1929   40.2762 H   0  0  0  0  0  0  0  0  0  0  0  0
   48.9748   35.4916   37.3535 H   0  0  0  0  0  0  0  0  0  0  0  0
   48.8475   33.5208   35.4911 H   0  0  0  0  0  0  0  0  0  0  0  0
   47.6123   31.5326   36.5531 H   0  0  0  0  0  0  0  0  0  0  0  0
   43.7638   36.5902   45.1201 H   0  0  0  0  0  0  0  0  0  0  0  0
   44.8908   36.5434   42.9046 H   0  0  0  0  0  0  0  0  0  0  0  0
   47.7594   31.5349   45.5792 H   0  0  0  0  0  0  0  0  0  0  0  0
   44.8785   32.0294   49.5164 H   0  0  0  0  0  0  0  0  0  0  0  0
  1  9  1  0
  2  1  1  0
  3  2  1  0
  4  3  1  0
  5  4  1  0
  6  7  1  0
  6  5  2  0
  7  8  1  0
  8  4  2  0
  9 12  1  0
 10 15  2  0
 11 10  1  0
 12 11  2  0
 12 13  1  0
 13 14  2  0
 14 15  1  0
 14 16  1  0
 16 20  1  0
 17 16  2  0
 17 18  1  0
 18 19  1  0
 20 19  2  0
  1 21  1  0
  1 22  1  0
  2 23  1  0
  2 24  1  0
  3 25  1  0
  5 26  1  0
  6 27  1  0
  7 28  1  0
 10 29  1  0
 11 30  1  0
 17 31  1  0
 19 32  1  0
M  ISO  8  21   8  22   8  23   8  24   8  26  14  27  14  28   9  29  14
M  ISO  3  30  14  31  14  32  14
M  END
>  <minimizedAffinity>  (1) 
-5.39899588

>  <minimizedRMSD>  (1) 
0.463496029

$$$$
