
     RDKit          3D

 29 30  0  0  0  0  0  0  0  0999 V2000
   48.1220   35.0670   42.0550 C   0  0  0  0  0  0  0  0  0  0  0  0
   48.5210   35.1550   40.6000 C   0  0  0  0  0  0  0  0  0  0  0  0
   47.5470   34.4190   39.8620 N   0  0  0  0  0  0  0  0  0  0  0  0
   47.8970   33.9830   38.5500 C   0  0  0  0  0  0  0  0  0  0  0  0
   48.5040   34.5070   37.4410 C   0  0  0  0  0  0  0  0  0  0  0  0
   48.4600   33.4620   36.5030 C   0  0  0  0  0  0  0  0  0  0  0  0
   47.8630   32.4010   37.0470 N   0  0  0  0  0  0  0  0  0  0  0  0
   47.5150   32.7030   38.2890 N   0  0  0  0  0  0  0  0  0  0  0  0
   46.8020   34.5850   42.1730 O   0  0  0  0  0  0  0  0  0  0  0  0
   44.4930   35.9240   44.7600 C   0  0  0  0  0  0  0  0  0  0  0  0
   45.1650   35.8420   43.5380 C   0  0  0  0  0  0  0  0  0  0  0  0
   46.0650   34.7980   43.3240 C   0  0  0  0  0  0  0  0  0  0  0  0
   46.2170   33.9150   44.3630 N   0  0  0  0  0  0  0  0  0  0  0  0
   45.5730   34.0010   45.5220 C   0  0  0  0  0  0  0  0  0  0  0  0
   44.6960   35.0310   45.7110 N   0  0  0  0  0  0  0  0  0  0  0  0
   45.8660   32.9490   46.5320 C   0  0  0  0  0  0  0  0  0  0  0  0
   47.1380   33.1030   47.0510 F   0  0  0  0  0  0  0  0  0  0  0  0
   45.6670   31.6860   46.0380 F   0  0  0  0  0  0  0  0  0  0  0  0
   45.0050   33.0780   47.6140 F   0  0  0  0  0  0  0  0  0  0  0  0
   48.1851   36.0667   42.5095 H   0  0  0  0  0  0  0  0  0  0  0  0
   48.8030   34.3743   42.5711 H   0  0  0  0  0  0  0  0  0  0  0  0
   48.5307   36.2051   40.2725 H   0  0  0  0  0  0  0  0  0  0  0  0
   49.5297   34.7459   40.4411 H   0  0  0  0  0  0  0  0  0  0  0  0
   46.6218   34.2095   40.2633 H   0  0  0  0  0  0  0  0  0  0  0  0
   48.9283   35.5138   37.3135 H   0  0  0  0  0  0  0  0  0  0  0  0
   48.8567   33.5114   35.4782 H   0  0  0  0  0  0  0  0  0  0  0  0
   47.6997   31.4977   36.5797 H   0  0  0  0  0  0  0  0  0  0  0  0
   43.7830   36.7462   44.9327 H   0  0  0  0  0  0  0  0  0  0  0  0
   44.9864   36.5921   42.7535 H   0  0  0  0  0  0  0  0  0  0  0  0
  1  9  1  0
  2  1  1  0
  3  2  1  0
  4  3  1  0
  5  4  1  0
  6  7  1  0
  6  5  2  0
  7  8  1  0
  8  4  2  0
  9 12  1  0
 10 15  2  0
 11 10  1  0
 12 11  2  0
 12 13  1  0
 13 14  2  0
 14 15  1  0
 14 16  1  0
 16 17  1  0
 16 19  1  0
 18 16  1  0
  1 20  1  0
  1 21  1  0
  2 22  1  0
  2 23  1  0
  3 24  1  0
  5 25  1  0
  6 26  1  0
  7 27  1  0
 10 28  1  0
 11 29  1  0
M  ISO  8  20   8  21   8  22   8  23   8  25  14  26  14  27   9  28  14
M  ISO  1  29  14
M  END
>  <minimizedAffinity>  (1) 
-5.32842398

>  <minimizedRMSD>  (1) 
0.311164737

$$$$
