
     RDKit          3D

 32 33  0  0  0  0  0  0  0  0999 V2000
   48.0790   35.2320   41.9700 C   0  0  0  0  0  0  0  0  0  0  0  0
   48.5440   35.1630   40.5360 C   0  0  0  0  0  0  0  0  0  0  0  0
   47.5690   34.4160   39.8160 N   0  0  0  0  0  0  0  0  0  0  0  0
   47.9100   33.9650   38.5100 C   0  0  0  0  0  0  0  0  0  0  0  0
   48.5150   34.4710   37.3920 C   0  0  0  0  0  0  0  0  0  0  0  0
   48.4640   33.4140   36.4620 C   0  0  0  0  0  0  0  0  0  0  0  0
   47.8610   32.3630   37.0220 N   0  0  0  0  0  0  0  0  0  0  0  0
   47.5220   32.6860   38.2600 N   0  0  0  0  0  0  0  0  0  0  0  0
   46.6930   34.9280   42.0430 O   0  0  0  0  0  0  0  0  0  0  0  0
   44.4950   35.7250   44.9440 C   0  0  0  0  0  0  0  0  0  0  0  0
   45.0660   35.8370   43.6760 C   0  0  0  0  0  0  0  0  0  0  0  0
   46.0470   34.9300   43.2690 C   0  0  0  0  0  0  0  0  0  0  0  0
   46.3890   33.9590   44.1790 N   0  0  0  0  0  0  0  0  0  0  0  0
   45.8260   33.8730   45.3890 C   0  0  0  0  0  0  0  0  0  0  0  0
   44.8830   34.7550   45.7660 N   0  0  0  0  0  0  0  0  0  0  0  0
   46.1980   32.8250   46.3710 C   0  0  0  0  0  0  0  0  0  0  0  0
   45.2660   32.8830   47.5510 C   0  0  0  0  0  0  0  0  0  0  0  0
   48.2514   36.2455   42.3612 H   0  0  0  0  0  0  0  0  0  0  0  0
   48.6425   34.5018   42.5695 H   0  0  0  0  0  0  0  0  0  0  0  0
   48.6278   36.1767   40.1172 H   0  0  0  0  0  0  0  0  0  0  0  0
   49.5327   34.6857   40.4672 H   0  0  0  0  0  0  0  0  0  0  0  0
   46.6474   34.2089   40.2267 H   0  0  0  0  0  0  0  0  0  0  0  0
   48.9435   35.4743   37.2514 H   0  0  0  0  0  0  0  0  0  0  0  0
   48.8589   33.4492   35.4359 H   0  0  0  0  0  0  0  0  0  0  0  0
   47.6887   31.4548   36.5678 H   0  0  0  0  0  0  0  0  0  0  0  0
   43.7229   36.4402   45.2639 H   0  0  0  0  0  0  0  0  0  0  0  0
   44.7435   36.6398   42.9967 H   0  0  0  0  0  0  0  0  0  0  0  0
   46.1250   31.8358   45.8955 H   0  0  0  0  0  0  0  0  0  0  0  0
   47.2297   32.9951   46.7125 H   0  0  0  0  0  0  0  0  0  0  0  0
   45.8506   32.8466   48.4821 H   0  0  0  0  0  0  0  0  0  0  0  0
   44.6888   33.8188   47.5167 H   0  0  0  0  0  0  0  0  0  0  0  0
   44.5773   32.0260   47.5167 H   0  0  0  0  0  0  0  0  0  0  0  0
  1  9  1  0
  2  1  1  0
  3  2  1  0
  4  3  1  0
  5  4  1  0
  6  7  1  0
  6  5  2  0
  7  8  1  0
  8  4  2  0
  9 12  1  0
 10 15  2  0
 11 10  1  0
 12 11  2  0
 12 13  1  0
 13 14  2  0
 14 15  1  0
 14 16  1  0
 16 17  1  0
  1 18  1  0
  1 19  1  0
  2 20  1  0
  2 21  1  0
  3 22  1  0
  5 23  1  0
  6 24  1  0
  7 25  1  0
 10 26  1  0
 11 27  1  0
 16 28  1  0
 16 29  1  0
 17 30  1  0
 17 31  1  0
 17 32  1  0
M  ISO  8  18   8  19   8  20   8  21   8  23  14  24  14  25   9  26  14
M  ISO  6  27  14  28   8  29   8  30   8  31   8  32   8
M  END
>  <minimizedAffinity>  (1) 
-4.78966522

>  <minimizedRMSD>  (1) 
0.243508041

$$$$
