
     RDKit          3D

 29 30  0  0  0  0  0  0  0  0999 V2000
   48.0690   35.2160   41.9550 C   0  0  0  0  0  0  0  0  0  0  0  0
   48.5680   35.0940   40.5350 C   0  0  0  0  0  0  0  0  0  0  0  0
   47.5470   34.4280   39.7910 N   0  0  0  0  0  0  0  0  0  0  0  0
   47.8720   33.9700   38.4820 C   0  0  0  0  0  0  0  0  0  0  0  0
   48.5210   34.4470   37.3760 C   0  0  0  0  0  0  0  0  0  0  0  0
   48.4130   33.4080   36.4370 C   0  0  0  0  0  0  0  0  0  0  0  0
   47.7400   32.3910   36.9770 N   0  0  0  0  0  0  0  0  0  0  0  0
   47.4080   32.7210   38.2160 N   0  0  0  0  0  0  0  0  0  0  0  0
   46.6950   34.8910   42.0200 O   0  0  0  0  0  0  0  0  0  0  0  0
   44.4470   35.9700   44.7810 C   0  0  0  0  0  0  0  0  0  0  0  0
   45.0690   36.0000   43.5250 C   0  0  0  0  0  0  0  0  0  0  0  0
   45.9950   35.0060   43.2070 C   0  0  0  0  0  0  0  0  0  0  0  0
   46.2170   34.0650   44.1820 N   0  0  0  0  0  0  0  0  0  0  0  0
   45.6220   34.0430   45.3670 C   0  0  0  0  0  0  0  0  0  0  0  0
   44.7270   35.0130   45.6620 N   0  0  0  0  0  0  0  0  0  0  0  0
   45.9190   32.9860   46.3690 C   0  0  0  0  0  0  0  0  0  0  0  0
   48.2148   36.2490   42.3037 H   0  0  0  0  0  0  0  0  0  0  0  0
   48.6326   34.5204   42.5941 H   0  0  0  0  0  0  0  0  0  0  0  0
   48.7534   36.0925   40.1124 H   0  0  0  0  0  0  0  0  0  0  0  0
   49.5125   34.5315   40.4971 H   0  0  0  0  0  0  0  0  0  0  0  0
   46.6074   34.2837   40.1876 H   0  0  0  0  0  0  0  0  0  0  0  0
   49.0148   35.4219   37.2507 H   0  0  0  0  0  0  0  0  0  0  0  0
   48.8201   33.4297   35.4153 H   0  0  0  0  0  0  0  0  0  0  0  0
   47.5165   31.5006   36.5100 H   0  0  0  0  0  0  0  0  0  0  0  0
   43.7162   36.7496   45.0422 H   0  0  0  0  0  0  0  0  0  0  0  0
   44.8309   36.7942   42.8021 H   0  0  0  0  0  0  0  0  0  0  0  0
   45.8031   33.3983   47.3822 H   0  0  0  0  0  0  0  0  0  0  0  0
   45.2222   32.1458   46.2332 H   0  0  0  0  0  0  0  0  0  0  0  0
   46.9515   32.6317   46.2332 H   0  0  0  0  0  0  0  0  0  0  0  0
  1  9  1  0
  2  1  1  0
  3  2  1  0
  4  3  1  0
  5  4  1  0
  6  7  1  0
  6  5  2  0
  7  8  1  0
  8  4  2  0
  9 12  1  0
 10 15  2  0
 11 10  1  0
 12 11  2  0
 12 13  1  0
 13 14  2  0
 14 15  1  0
 14 16  1  0
  1 17  1  0
  1 18  1  0
  2 19  1  0
  2 20  1  0
  3 21  1  0
  5 22  1  0
  6 23  1  0
  7 24  1  0
 10 25  1  0
 11 26  1  0
 16 27  1  0
 16 28  1  0
 16 29  1  0
M  ISO  8  17   8  18   8  19   8  20   8  22  14  23  14  24   9  25  14
M  ISO  4  26  14  27   8  28   8  29   8
M  END
>  <minimizedAffinity>  (1) 
-4.73110199

>  <minimizedRMSD>  (1) 
0.0625784919

$$$$
