
     RDKit          3D

 48 52  0  0  1  0  0  0  0  0999 V2000
   46.5560   33.5560   42.7120 C   0  0  0  0  0  0  0  0  0  0  0  0
   46.3040   32.3390   43.3040 C   0  0  0  0  0  0  0  0  0  0  0  0
   45.0760   31.7590   43.1900 C   0  0  0  0  0  0  0  0  0  0  0  0
   44.0710   32.3260   42.5140 N   0  0  0  0  0  0  0  0  0  0  0  0
   44.3240   33.4980   41.9470 C   0  0  0  0  0  0  0  0  0  0  0  0
   45.5120   34.0910   42.0390 N   0  0  0  0  0  0  0  0  0  0  0  0
   48.8600   34.2620   41.6710 C   0  0  1  0  0  0  0  0  0  0  0  0
   48.0970   35.5040   41.9810 C   0  0  0  0  0  0  0  0  0  0  0  0
   47.8290   34.3360   42.7700 C   0  0  1  0  0  0  0  0  0  0  0  0
   47.8030   33.5960   38.1680 C   0  0  0  0  0  0  0  0  0  0  0  0
   48.0520   34.2920   39.3970 C   0  0  0  0  0  0  0  0  0  0  0  0
   48.6170   33.5420   40.4270 C   0  0  0  0  0  0  0  0  0  0  0  0
   48.9010   32.2300   40.2430 N   0  0  0  0  0  0  0  0  0  0  0  0
   48.6600   31.6020   39.0880 C   0  0  0  0  0  0  0  0  0  0  0  0
   48.1100   32.2710   38.0370 N   0  0  0  0  0  0  0  0  0  0  0  0
   43.2250   34.1590   41.2000 C   0  0  1  0  0  0  0  0  0  0  0  0
   43.3860   35.6420   41.3250 C   0  0  0  0  0  0  0  0  0  0  0  0
   43.1920   33.7310   39.7540 C   0  0  0  0  0  0  0  0  0  0  0  0
   42.1430   34.3000   38.9220 C   0  0  0  0  0  0  0  0  0  0  0  0
   42.3660   35.4890   38.2800 N   0  0  0  0  0  0  0  0  0  0  0  0
   41.4680   36.1040   37.5170 C   0  0  0  0  0  0  0  0  0  0  0  0
   40.2530   35.5590   37.3350 N   0  0  0  0  0  0  0  0  0  0  0  0
   39.9280   34.4050   37.9110 C   0  0  0  0  0  0  0  0  0  0  0  0
   38.6830   33.8390   37.7210 C   0  0  0  0  0  0  0  0  0  0  0  0
   38.3560   32.6370   38.3140 C   0  0  0  0  0  0  0  0  0  0  0  0
   39.3270   32.0430   39.0950 C   0  0  0  0  0  0  0  0  0  0  0  0
   40.5790   32.5990   39.2940 C   0  0  0  0  0  0  0  0  0  0  0  0
   40.8760   33.8030   38.6880 C   0  0  0  0  0  0  0  0  0  0  0  0
   47.0979   31.8320   43.8720 H   0  0  0  0  0  0  0  0  0  0  0  0
   44.9047   30.7858   43.6732 H   0  0  0  0  0  0  0  0  0  0  0  0
   49.9160   33.9608   41.6066 H   0  0  0  0  0  0  0  0  0  0  0  0
   48.6145   36.3613   42.4363 H   0  0  0  0  0  0  0  0  0  0  0  0
   47.4715   36.1865   41.3869 H   0  0  0  0  0  0  0  0  0  0  0  0
   47.8141   34.1365   43.8517 H   0  0  0  0  0  0  0  0  0  0  0  0
   47.3587   34.1363   37.3191 H   0  0  0  0  0  0  0  0  0  0  0  0
   47.8106   35.3581   39.5199 H   0  0  0  0  0  0  0  0  0  0  0  0
   48.9081   30.5353   38.9854 H   0  0  0  0  0  0  0  0  0  0  0  0
   42.2613   33.8539   41.6337 H   0  0  0  0  0  0  0  0  0  0  0  0
   43.4161   35.9192   42.3891 H   0  0  0  0  0  0  0  0  0  0  0  0
   44.3230   35.9514   40.8389 H   0  0  0  0  0  0  0  0  0  0  0  0
   42.5372   36.1452   40.8389 H   0  0  0  0  0  0  0  0  0  0  0  0
   44.1578   34.0050   39.3044 H   0  0  0  0  0  0  0  0  0  0  0  0
   42.9831   32.6513   39.7797 H   0  0  0  0  0  0  0  0  0  0  0  0
   41.7195   37.0598   37.0341 H   0  0  0  0  0  0  0  0  0  0  0  0
   37.9432   34.3525   37.0894 H   0  0  0  0  0  0  0  0  0  0  0  0
   37.3685   32.1740   38.1713 H   0  0  0  0  0  0  0  0  0  0  0  0
   39.0953   31.0840   39.5814 H   0  0  0  0  0  0  0  0  0  0  0  0
   41.3238   32.0904   39.9238 H   0  0  0  0  0  0  0  0  0  0  0  0
  1  9  1  0
  1  2  2  0
  3  2  1  0
  4  3  2  0
  5  6  2  0
  5  4  1  0
  6  1  1  0
  7  8  1  0
  7  9  1  0
  8  9  1  0
 10 11  2  0
 11 12  1  0
 12  7  1  0
 13 12  2  0
 14 13  1  0
 15 10  1  0
 15 14  2  0
 16 17  1  0
 16  5  1  0
 18 16  1  0
 19 18  1  0
 20 19  2  0
 21 20  1  0
 22 21  2  0
 22 23  1  0
 23 28  2  0
 24 23  1  0
 24 25  2  0
 25 26  1  0
 26 27  2  0
 28 19  1  0
 28 27  1  0
  2 29  1  0
  3 30  1  0
  7 31  1  1
  8 32  1  0
  8 33  1  0
  9 34  1  1
 10 35  1  0
 11 36  1  0
 14 37  1  0
 16 38  1  1
 17 39  1  0
 17 40  1  0
 17 41  1  0
 18 42  1  0
 18 43  1  0
 21 44  1  0
 24 45  1  0
 25 46  1  0
 26 47  1  0
 27 48  1  0
M  ISO  8  29  14  30  14  31  13  32  13  33  13  34  13  35  14  36  14
M  ISO  8  37  14  38   8  39   8  40   8  41   8  42   8  43   8  44  14
M  ISO  4  45  14  46  14  47  14  48  14
M  END
>  <minimizedAffinity>  (1) 
-6.27169752

>  <minimizedRMSD>  (1) 
2.19887328

$$$$
