
     RDKit          3D

 57 60  0  0  1  0  0  0  0  0999 V2000
   44.6340   35.3320   45.4290 C   0  0  0  0  0  0  0  0  0  0  0  0
   45.0490   35.6670   44.1460 C   0  0  0  0  0  0  0  0  0  0  0  0
   45.9150   34.8330   43.4470 C   0  0  0  0  0  0  0  0  0  0  0  0
   46.2990   33.7070   44.1160 N   0  0  0  0  0  0  0  0  0  0  0  0
   45.8830   33.4010   45.3600 C   0  0  0  0  0  0  0  0  0  0  0  0
   45.0570   34.2180   45.9990 N   0  0  0  0  0  0  0  0  0  0  0  0
   46.3370   32.1950   45.9850 N   0  0  0  0  0  0  0  0  0  0  0  0
   47.4820   31.4650   45.5330 C   0  0  0  0  0  0  0  0  0  0  0  0
   47.0760   30.0110   45.4840 C   0  0  0  0  0  0  0  0  0  0  0  0
   46.6730   29.5140   46.7100 O   0  0  0  0  0  0  0  0  0  0  0  0
   46.4880   30.4920   47.6560 C   0  0  0  0  0  0  0  0  0  0  0  0
   45.6470   31.6500   47.1250 C   0  0  1  0  0  0  0  0  0  0  0  0
   45.2790   32.6030   48.1870 C   0  0  0  0  0  0  0  0  0  0  0  0
   46.4180   35.0210   42.1740 O   0  0  0  0  0  0  0  0  0  0  0  0
   47.7850   35.3860   41.9760 C   0  0  0  0  0  0  0  0  0  0  0  0
   48.3670   34.5670   40.8770 C   0  0  0  0  0  0  0  0  0  0  0  0
   47.3320   34.2640   39.9460 N   0  0  0  0  0  0  0  0  0  0  0  0
   47.6680   33.9090   38.5940 C   0  0  0  0  0  0  0  0  0  0  0  0
   48.4790   34.5100   37.6540 C   0  0  0  0  0  0  0  0  0  0  0  0
   48.3730   33.6620   36.5500 C   0  0  0  0  0  0  0  0  0  0  0  0
   47.5580   32.6530   36.8500 N   0  0  0  0  0  0  0  0  0  0  0  0
   47.1190   32.7880   38.0930 N   0  0  0  0  0  0  0  0  0  0  0  0
   45.2970   32.7600   34.0890 N   0  0  0  0  0  0  0  0  0  0  0  0
   44.9160   32.4390   35.4310 C   0  0  0  0  0  0  0  0  0  0  0  0
   45.7230   31.2980   36.0100 C   0  0  0  0  0  0  0  0  0  0  0  0
   47.2140   31.5670   35.9230 C   0  0  0  0  0  0  0  0  0  0  0  0
   47.5870   31.9390   34.5170 C   0  0  0  0  0  0  0  0  0  0  0  0
   46.3470   31.8980   33.6220 C   0  0  0  0  0  0  0  0  0  0  0  0
   43.9490   35.9986   45.9734 H   0  0  0  0  0  0  0  0  0  0  0  0
   44.6906   36.5970   43.6806 H   0  0  0  0  0  0  0  0  0  0  0  0
   47.7807   31.8095   44.5319 H   0  0  0  0  0  0  0  0  0  0  0  0
   48.3388   31.6148   46.2064 H   0  0  0  0  0  0  0  0  0  0  0  0
   46.2431   29.9048   44.7733 H   0  0  0  0  0  0  0  0  0  0  0  0
   47.9610   29.4359   45.1742 H   0  0  0  0  0  0  0  0  0  0  0  0
   45.9781   30.0526   48.5260 H   0  0  0  0  0  0  0  0  0  0  0  0
   47.4761   30.8886   47.9322 H   0  0  0  0  0  0  0  0  0  0  0  0
   44.6601   31.3128   46.7751 H   0  0  0  0  0  0  0  0  0  0  0  0
   45.4567   32.1429   49.1702 H   0  0  0  0  0  0  0  0  0  0  0  0
   45.8907   33.5123   48.0918 H   0  0  0  0  0  0  0  0  0  0  0  0
   44.2150   32.8652   48.0918 H   0  0  0  0  0  0  0  0  0  0  0  0
   47.8444   36.4515   41.7093 H   0  0  0  0  0  0  0  0  0  0  0  0
   48.3489   35.2063   42.9032 H   0  0  0  0  0  0  0  0  0  0  0  0
   49.1650   35.1331   40.3743 H   0  0  0  0  0  0  0  0  0  0  0  0
   48.7942   33.6382   41.2830 H   0  0  0  0  0  0  0  0  0  0  0  0
   46.3457   34.2992   40.2408 H   0  0  0  0  0  0  0  0  0  0  0  0
   49.0673   35.4344   37.7508 H   0  0  0  0  0  0  0  0  0  0  0  0
   48.8821   33.8049   35.5854 H   0  0  0  0  0  0  0  0  0  0  0  0
   44.4779   32.6541   33.4736 H   0  0  0  0  0  0  0  0  0  0  0  0
   45.0626   33.3288   36.0608 H   0  0  0  0  0  0  0  0  0  0  0  0
   43.8623   32.1240   35.4109 H   0  0  0  0  0  0  0  0  0  0  0  0
   45.4455   31.1645   37.0660 H   0  0  0  0  0  0  0  0  0  0  0  0
   45.5027   30.3910   35.4279 H   0  0  0  0  0  0  0  0  0  0  0  0
   47.7730   30.6611   36.2003 H   0  0  0  0  0  0  0  0  0  0  0  0
   48.0099   32.9544   34.5082 H   0  0  0  0  0  0  0  0  0  0  0  0
   48.3314   31.2233   34.1380 H   0  0  0  0  0  0  0  0  0  0  0  0
   45.9680   30.8658   33.5930 H   0  0  0  0  0  0  0  0  0  0  0  0
   46.6462   32.2499   32.6237 H   0  0  0  0  0  0  0  0  0  0  0  0
  1  6  2  0
  2  1  1  0
  3  4  1  0
  3  2  2  0
  4  5  2  0
  5  7  1  0
  5  6  1  0
  7 12  1  0
  8  7  1  0
  9  8  1  0
  9 10  1  0
 10 11  1  0
 12 11  1  0
 12 13  1  0
 14  3  1  0
 15 14  1  0
 16 15  1  0
 17 16  1  0
 18 17  1  0
 19 18  1  0
 20 21  1  0
 20 19  2  0
 21 22  1  0
 22 18  2  0
 23 24  1  0
 24 25  1  0
 26 25  1  0
 26 21  1  0
 27 26  1  0
 28 23  1  0
 28 27  1  0
  1 29  1  0
  2 30  1  0
  8 31  1  0
  8 32  1  0
  9 33  1  0
  9 34  1  0
 11 35  1  0
 11 36  1  0
 12 37  1  6
 13 38  1  0
 13 39  1  0
 13 40  1  0
 15 41  1  0
 15 42  1  0
 16 43  1  0
 16 44  1  0
 17 45  1  0
 19 46  1  0
 20 47  1  0
 23 48  1  0
 24 49  1  0
 24 50  1  0
 25 51  1  0
 25 52  1  0
 26 53  1  0
 27 54  1  0
 27 55  1  0
 28 56  1  0
 28 57  1  0
M  ISO  8  29  14  30  14  31  13  32  13  33  13  34  13  35  13  36  13
M  ISO  8  37  13  38   8  39   8  40   8  41   8  42   8  43   8  44   8
M  ISO  8  46  14  47  14  48   5  49  13  50  13  51  13  52  13  53  13
M  ISO  4  54  13  55  13  56  13  57  13
M  END
>  <minimizedAffinity>  (1) 
-6.41354752

>  <minimizedRMSD>  (1) 
1.2935679

$$$$
