
     RDKit          3D

 49 52  0  0  1  0  0  0  0  0999 V2000
   44.6660   35.2790   45.3060 C   0  0  0  0  0  0  0  0  0  0  0  0
   45.1770   35.6200   44.0660 C   0  0  0  0  0  0  0  0  0  0  0  0
   46.1110   34.7970   43.4510 C   0  0  0  0  0  0  0  0  0  0  0  0
   46.4560   33.6790   44.1520 N   0  0  0  0  0  0  0  0  0  0  0  0
   45.9500   33.3600   45.3560 C   0  0  0  0  0  0  0  0  0  0  0  0
   45.0500   34.1730   45.9260 N   0  0  0  0  0  0  0  0  0  0  0  0
   46.3490   32.1780   46.0410 N   0  0  0  0  0  0  0  0  0  0  0  0
   47.5420   31.4550   45.6750 C   0  0  0  0  0  0  0  0  0  0  0  0
   47.1450   29.9990   45.6210 C   0  0  0  0  0  0  0  0  0  0  0  0
   46.6790   29.5240   46.8340 O   0  0  0  0  0  0  0  0  0  0  0  0
   46.4080   30.5070   47.7440 C   0  0  0  0  0  0  0  0  0  0  0  0
   45.5800   31.6460   47.1310 C   0  0  1  0  0  0  0  0  0  0  0  0
   45.2430   32.6440   48.1890 C   0  0  0  0  0  0  0  0  0  0  0  0
   46.7240   34.9810   42.2200 O   0  0  0  0  0  0  0  0  0  0  0  0
   48.1270   34.9240   42.0850 C   0  0  0  0  0  0  0  0  0  0  0  0
   48.5300   35.0710   40.6550 C   0  0  0  0  0  0  0  0  0  0  0  0
   47.5120   34.4820   39.8490 N   0  0  0  0  0  0  0  0  0  0  0  0
   47.8340   33.9850   38.5410 C   0  0  0  0  0  0  0  0  0  0  0  0
   48.4620   34.5600   37.4630 C   0  0  0  0  0  0  0  0  0  0  0  0
   48.4670   33.5700   36.4960 C   0  0  0  0  0  0  0  0  0  0  0  0
   47.8720   32.4860   36.9980 N   0  0  0  0  0  0  0  0  0  0  0  0
   47.4770   32.7160   38.2440 N   0  0  0  0  0  0  0  0  0  0  0  0
   47.1710   29.1900   35.7620 N   0  0  0  0  0  0  0  0  0  0  0  0
   47.1580   30.0530   36.7830 N   0  0  0  0  0  0  0  0  0  0  0  0
   47.6520   31.2180   36.3470 C   0  0  0  0  0  0  0  0  0  0  0  0
   47.9870   31.0640   34.9990 C   0  0  0  0  0  0  0  0  0  0  0  0
   47.6710   29.7720   34.6580 C   0  0  0  0  0  0  0  0  0  0  0  0
   43.9275   35.9383   45.7856 H   0  0  0  0  0  0  0  0  0  0  0  0
   44.8435   36.5423   43.5679 H   0  0  0  0  0  0  0  0  0  0  0  0
   47.9051   31.7891   44.6919 H   0  0  0  0  0  0  0  0  0  0  0  0
   48.3542   31.6251   46.3971 H   0  0  0  0  0  0  0  0  0  0  0  0
   46.3516   29.8789   44.8686 H   0  0  0  0  0  0  0  0  0  0  0  0
   48.0442   29.4204   45.3627 H   0  0  0  0  0  0  0  0  0  0  0  0
   45.8451   30.0699   48.5819 H   0  0  0  0  0  0  0  0  0  0  0  0
   47.3654   30.9281   48.0845 H   0  0  0  0  0  0  0  0  0  0  0  0
   44.6121   31.3070   46.7333 H   0  0  0  0  0  0  0  0  0  0  0  0
   45.3954   32.1928   49.1806 H   0  0  0  0  0  0  0  0  0  0  0  0
   45.8936   33.5246   48.0830 H   0  0  0  0  0  0  0  0  0  0  0  0
   44.1917   32.9499   48.0830 H   0  0  0  0  0  0  0  0  0  0  0  0
   48.5788   35.7371   42.6721 H   0  0  0  0  0  0  0  0  0  0  0  0
   48.4763   33.9470   42.4504 H   0  0  0  0  0  0  0  0  0  0  0  0
   48.6351   36.1369   40.4042 H   0  0  0  0  0  0  0  0  0  0  0  0
   49.4950   34.5742   40.4763 H   0  0  0  0  0  0  0  0  0  0  0  0
   46.5477   34.4132   40.2043 H   0  0  0  0  0  0  0  0  0  0  0  0
   48.8695   35.5788   37.3857 H   0  0  0  0  0  0  0  0  0  0  0  0
   48.8899   33.6612   35.4846 H   0  0  0  0  0  0  0  0  0  0  0  0
   46.8435   28.2148   35.8140 H   0  0  0  0  0  0  0  0  0  0  0  0
   48.4201   31.8298   34.3388 H   0  0  0  0  0  0  0  0  0  0  0  0
   47.8018   29.3034   33.6715 H   0  0  0  0  0  0  0  0  0  0  0  0
  1  6  2  0
  2  1  1  0
  3  2  2  0
  3  4  1  0
  4  5  2  0
  5  6  1  0
  5  7  1  0
  7 12  1  0
  8  7  1  0
  9  8  1  0
  9 10  1  0
 10 11  1  0
 12 11  1  0
 12 13  1  0
 14  3  1  0
 15 14  1  0
 16 15  1  0
 17 16  1  0
 18 17  1  0
 19 18  1  0
 20 21  1  0
 20 19  2  0
 21 22  1  0
 22 18  2  0
 23 24  1  0
 25 24  2  0
 25 21  1  0
 26 25  1  0
 27 26  2  0
 27 23  1  0
  1 28  1  0
  2 29  1  0
  8 30  1  0
  8 31  1  0
  9 32  1  0
  9 33  1  0
 11 34  1  0
 11 35  1  0
 12 36  1  6
 13 37  1  0
 13 38  1  0
 13 39  1  0
 15 40  1  0
 15 41  1  0
 16 42  1  0
 16 43  1  0
 17 44  1  0
 19 45  1  0
 20 46  1  0
 23 47  1  0
 26 48  1  0
 27 49  1  0
M  ISO  8  28  14  29  14  30  13  31  13  32  13  33  13  34  13  35  13
M  ISO  8  36  13  37   8  38   8  39   8  40   8  41   8  42   8  43   8
M  ISO  5  45  14  46  14  47   9  48  14  49  14
M  END
>  <minimizedAffinity>  (1) 
-5.80109501

>  <minimizedRMSD>  (1) 
0.225698233

$$$$
