
     RDKit          3D

 52 55  0  0  1  0  0  0  0  0999 V2000
   44.6600   35.2860   45.3110 C   0  0  0  0  0  0  0  0  0  0  0  0
   45.1750   35.6270   44.0660 C   0  0  0  0  0  0  0  0  0  0  0  0
   46.1130   34.8030   43.4510 C   0  0  0  0  0  0  0  0  0  0  0  0
   46.4600   33.6790   44.1600 N   0  0  0  0  0  0  0  0  0  0  0  0
   45.9460   33.3750   45.3620 C   0  0  0  0  0  0  0  0  0  0  0  0
   45.0470   34.1860   45.9280 N   0  0  0  0  0  0  0  0  0  0  0  0
   46.3490   32.1930   46.0460 N   0  0  0  0  0  0  0  0  0  0  0  0
   47.5330   31.4620   45.6900 C   0  0  0  0  0  0  0  0  0  0  0  0
   47.1280   30.0080   45.6340 C   0  0  0  0  0  0  0  0  0  0  0  0
   46.6690   29.5350   46.8480 O   0  0  0  0  0  0  0  0  0  0  0  0
   46.4180   30.5250   47.7610 C   0  0  0  0  0  0  0  0  0  0  0  0
   45.5910   31.6580   47.1380 C   0  0  1  0  0  0  0  0  0  0  0  0
   45.1790   32.6460   48.1740 C   0  0  0  0  0  0  0  0  0  0  0  0
   46.7240   34.9910   42.2230 O   0  0  0  0  0  0  0  0  0  0  0  0
   48.1210   34.8910   42.0690 C   0  0  0  0  0  0  0  0  0  0  0  0
   48.5200   35.0640   40.6500 C   0  0  0  0  0  0  0  0  0  0  0  0
   47.5070   34.4770   39.8380 N   0  0  0  0  0  0  0  0  0  0  0  0
   47.8270   33.9820   38.5280 C   0  0  0  0  0  0  0  0  0  0  0  0
   48.4580   34.5570   37.4500 C   0  0  0  0  0  0  0  0  0  0  0  0
   48.4540   33.5610   36.4810 C   0  0  0  0  0  0  0  0  0  0  0  0
   47.8530   32.4800   36.9830 N   0  0  0  0  0  0  0  0  0  0  0  0
   47.4650   32.7170   38.2280 N   0  0  0  0  0  0  0  0  0  0  0  0
   47.6810   31.2680   36.2410 C   0  0  0  0  0  0  0  0  0  0  0  0
   46.9300   30.1650   36.5900 C   0  0  0  0  0  0  0  0  0  0  0  0
   46.8980   29.0830   35.7180 C   0  0  0  0  0  0  0  0  0  0  0  0
   47.6000   29.1120   34.5300 C   0  0  0  0  0  0  0  0  0  0  0  0
   48.3610   30.2170   34.1650 C   0  0  0  0  0  0  0  0  0  0  0  0
   48.3860   31.2820   35.0350 C   0  0  0  0  0  0  0  0  0  0  0  0
   43.9186   35.9431   45.7891 H   0  0  0  0  0  0  0  0  0  0  0  0
   44.8412   36.5484   43.5665 H   0  0  0  0  0  0  0  0  0  0  0  0
   47.9050   31.7925   44.7090 H   0  0  0  0  0  0  0  0  0  0  0  0
   48.3403   31.6260   46.4189 H   0  0  0  0  0  0  0  0  0  0  0  0
   46.3287   29.8939   44.8870 H   0  0  0  0  0  0  0  0  0  0  0  0
   48.0213   29.4245   45.3665 H   0  0  0  0  0  0  0  0  0  0  0  0
   45.8613   30.0987   48.6086 H   0  0  0  0  0  0  0  0  0  0  0  0
   47.3794   30.9401   48.0978 H   0  0  0  0  0  0  0  0  0  0  0  0
   44.6358   31.2978   46.7284 H   0  0  0  0  0  0  0  0  0  0  0  0
   45.3552   32.2235   49.1742 H   0  0  0  0  0  0  0  0  0  0  0  0
   45.7678   33.5677   48.0564 H   0  0  0  0  0  0  0  0  0  0  0  0
   44.1098   32.8763   48.0564 H   0  0  0  0  0  0  0  0  0  0  0  0
   48.6052   35.6708   42.6752 H   0  0  0  0  0  0  0  0  0  0  0  0
   48.4363   33.8902   42.3992 H   0  0  0  0  0  0  0  0  0  0  0  0
   48.6138   36.1346   40.4156 H   0  0  0  0  0  0  0  0  0  0  0  0
   49.4905   34.5815   40.4622 H   0  0  0  0  0  0  0  0  0  0  0  0
   46.5421   34.4074   40.1915 H   0  0  0  0  0  0  0  0  0  0  0  0
   48.8715   35.5734   37.3724 H   0  0  0  0  0  0  0  0  0  0  0  0
   48.8758   33.6488   35.4689 H   0  0  0  0  0  0  0  0  0  0  0  0
   46.3695   30.1421   37.5362 H   0  0  0  0  0  0  0  0  0  0  0  0
   46.3061   28.1930   35.9779 H   0  0  0  0  0  0  0  0  0  0  0  0
   47.5565   28.2425   33.8577 H   0  0  0  0  0  0  0  0  0  0  0  0
   48.9207   30.2386   33.2183 H   0  0  0  0  0  0  0  0  0  0  0  0
   48.9786   32.1710   34.7735 H   0  0  0  0  0  0  0  0  0  0  0  0
  1  6  2  0
  2  1  1  0
  3  2  2  0
  3  4  1  0
  4  5  2  0
  5  6  1  0
  5  7  1  0
  7 12  1  0
  8  7  1  0
  9  8  1  0
  9 10  1  0
 10 11  1  0
 12 11  1  0
 12 13  1  0
 14  3  1  0
 15 14  1  0
 16 15  1  0
 17 16  1  0
 18 17  1  0
 19 18  1  0
 20 21  1  0
 20 19  2  0
 21 22  1  0
 22 18  2  0
 23 24  2  0
 23 21  1  0
 25 24  1  0
 26 25  2  0
 27 26  1  0
 27 28  2  0
 28 23  1  0
  1 29  1  0
  2 30  1  0
  8 31  1  0
  8 32  1  0
  9 33  1  0
  9 34  1  0
 11 35  1  0
 11 36  1  0
 12 37  1  6
 13 38  1  0
 13 39  1  0
 13 40  1  0
 15 41  1  0
 15 42  1  0
 16 43  1  0
 16 44  1  0
 17 45  1  0
 19 46  1  0
 20 47  1  0
 24 48  1  0
 25 49  1  0
 26 50  1  0
 27 51  1  0
 28 52  1  0
M  ISO  8  29  14  30  14  31  13  32  13  33  13  34  13  35  13  36  13
M  ISO  8  37  13  38   8  39   8  40   8  41   8  42   8  43   8  44   8
M  ISO  7  46  14  47  14  48  14  49  14  50  14  51  14  52  14
M  END
>  <minimizedAffinity>  (1) 
-5.65106583

>  <minimizedRMSD>  (1) 
0.249473974

$$$$
