
     RDKit          3D

 51 54  0  0  1  0  0  0  0  0999 V2000
   44.6530   35.3050   45.3130 C   0  0  0  0  0  0  0  0  0  0  0  0
   45.1610   35.6410   44.0640 C   0  0  0  0  0  0  0  0  0  0  0  0
   46.0960   34.8120   43.4420 C   0  0  0  0  0  0  0  0  0  0  0  0
   46.4450   33.6960   44.1480 N   0  0  0  0  0  0  0  0  0  0  0  0
   45.9410   33.3910   45.3540 C   0  0  0  0  0  0  0  0  0  0  0  0
   45.0470   34.1960   45.9320 N   0  0  0  0  0  0  0  0  0  0  0  0
   46.3480   32.2110   46.0360 N   0  0  0  0  0  0  0  0  0  0  0  0
   47.5290   31.4850   45.6750 C   0  0  0  0  0  0  0  0  0  0  0  0
   47.1430   30.0250   45.6120 C   0  0  0  0  0  0  0  0  0  0  0  0
   46.6600   29.5390   46.8130 O   0  0  0  0  0  0  0  0  0  0  0  0
   46.4260   30.5240   47.7360 C   0  0  0  0  0  0  0  0  0  0  0  0
   45.6010   31.6670   47.1340 C   0  0  1  0  0  0  0  0  0  0  0  0
   45.1840   32.6430   48.1650 C   0  0  0  0  0  0  0  0  0  0  0  0
   46.6910   35.0030   42.2110 O   0  0  0  0  0  0  0  0  0  0  0  0
   48.1050   34.9240   42.0650 C   0  0  0  0  0  0  0  0  0  0  0  0
   48.4850   35.0910   40.6350 C   0  0  0  0  0  0  0  0  0  0  0  0
   47.5130   34.4220   39.8360 N   0  0  0  0  0  0  0  0  0  0  0  0
   47.8650   33.9500   38.5240 C   0  0  0  0  0  0  0  0  0  0  0  0
   48.4620   34.5730   37.4490 C   0  0  0  0  0  0  0  0  0  0  0  0
   48.5190   33.5630   36.4840 C   0  0  0  0  0  0  0  0  0  0  0  0
   47.9900   32.4480   36.9850 N   0  0  0  0  0  0  0  0  0  0  0  0
   47.5860   32.6670   38.2270 N   0  0  0  0  0  0  0  0  0  0  0  0
   47.9200   31.2570   36.2090 C   0  0  0  0  0  0  0  0  0  0  0  0
   49.0170   30.9100   35.4480 C   0  0  0  0  0  0  0  0  0  0  0  0
   49.0450   29.7610   34.6520 C   0  0  0  0  0  0  0  0  0  0  0  0
   47.8840   29.0170   34.7030 C   0  0  0  0  0  0  0  0  0  0  0  0
   46.7820   29.3390   35.4490 C   0  0  0  0  0  0  0  0  0  0  0  0
   46.8270   30.4510   36.1840 N   0  0  0  0  0  0  0  0  0  0  0  0
   43.9162   35.9642   45.7954 H   0  0  0  0  0  0  0  0  0  0  0  0
   44.8257   36.5619   43.5646 H   0  0  0  0  0  0  0  0  0  0  0  0
   47.8957   31.8222   44.6943 H   0  0  0  0  0  0  0  0  0  0  0  0
   48.3324   31.6492   46.4082 H   0  0  0  0  0  0  0  0  0  0  0  0
   46.3635   29.9018   44.8457 H   0  0  0  0  0  0  0  0  0  0  0  0
   48.0525   29.4556   45.3699 H   0  0  0  0  0  0  0  0  0  0  0  0
   45.8762   30.0947   48.5866 H   0  0  0  0  0  0  0  0  0  0  0  0
   47.3945   30.9300   48.0635 H   0  0  0  0  0  0  0  0  0  0  0  0
   44.6423   31.3055   46.7337 H   0  0  0  0  0  0  0  0  0  0  0  0
   45.3646   32.2203   49.1644 H   0  0  0  0  0  0  0  0  0  0  0  0
   45.7646   33.5700   48.0485 H   0  0  0  0  0  0  0  0  0  0  0  0
   44.1128   32.8642   48.0485 H   0  0  0  0  0  0  0  0  0  0  0  0
   48.5767   35.7188   42.6614 H   0  0  0  0  0  0  0  0  0  0  0  0
   48.4472   33.9387   42.4143 H   0  0  0  0  0  0  0  0  0  0  0  0
   48.5068   36.1603   40.3777 H   0  0  0  0  0  0  0  0  0  0  0  0
   49.4835   34.6661   40.4546 H   0  0  0  0  0  0  0  0  0  0  0  0
   46.5596   34.2767   40.1977 H   0  0  0  0  0  0  0  0  0  0  0  0
   48.8096   35.6136   37.3696 H   0  0  0  0  0  0  0  0  0  0  0  0
   48.9348   33.6719   35.4715 H   0  0  0  0  0  0  0  0  0  0  0  0
   49.9029   31.5617   35.4682 H   0  0  0  0  0  0  0  0  0  0  0  0
   49.9138   29.4759   34.0405 H   0  0  0  0  0  0  0  0  0  0  0  0
   47.8407   28.0979   34.1002 H   0  0  0  0  0  0  0  0  0  0  0  0
   45.8867   28.7000   35.4423 H   0  0  0  0  0  0  0  0  0  0  0  0
  1  6  2  0
  2  1  1  0
  3  2  2  0
  3  4  1  0
  4  5  2  0
  5  6  1  0
  5  7  1  0
  7 12  1  0
  8  7  1  0
  9  8  1  0
  9 10  1  0
 10 11  1  0
 12 11  1  0
 12 13  1  0
 14  3  1  0
 15 14  1  0
 16 15  1  0
 17 16  1  0
 18 17  1  0
 19 18  1  0
 20 21  1  0
 20 19  2  0
 21 22  1  0
 22 18  2  0
 23 21  1  0
 24 23  2  0
 25 26  2  0
 25 24  1  0
 26 27  1  0
 27 28  2  0
 28 23  1  0
  1 29  1  0
  2 30  1  0
  8 31  1  0
  8 32  1  0
  9 33  1  0
  9 34  1  0
 11 35  1  0
 11 36  1  0
 12 37  1  6
 13 38  1  0
 13 39  1  0
 13 40  1  0
 15 41  1  0
 15 42  1  0
 16 43  1  0
 16 44  1  0
 17 45  1  0
 19 46  1  0
 20 47  1  0
 24 48  1  0
 25 49  1  0
 26 50  1  0
 27 51  1  0
M  ISO  8  29  14  30  14  31  13  32  13  33  13  34  13  35  13  36  13
M  ISO  8  37  13  38   8  39   8  40   8  41   8  42   8  43   8  44   8
M  ISO  6  46  14  47  14  48  14  49  14  50  14  51  14
M  END
>  <minimizedAffinity>  (1) 
-5.64780951

>  <minimizedRMSD>  (1) 
0.43151173

$$$$
