
     RDKit          3D

 50 53  0  0  1  0  0  0  0  0999 V2000
   44.5020   33.3920   42.5210 C   0  0  0  0  0  0  0  0  0  0  0  0
   44.4520   32.0380   42.2710 C   0  0  0  0  0  0  0  0  0  0  0  0
   43.3970   31.5010   41.5960 C   0  0  0  0  0  0  0  0  0  0  0  0
   42.3800   32.2390   41.1510 N   0  0  0  0  0  0  0  0  0  0  0  0
   42.4330   33.5460   41.3950 C   0  0  0  0  0  0  0  0  0  0  0  0
   43.4490   34.1000   42.0510 N   0  0  0  0  0  0  0  0  0  0  0  0
   46.9970   34.1560   42.7990 C   0  0  1  0  0  0  0  0  0  0  0  0
   46.1400   35.3730   42.8480 C   0  0  0  0  0  0  0  0  0  0  0  0
   45.5640   34.1290   43.2720 C   0  0  1  0  0  0  0  0  0  0  0  0
   47.8050   33.9400   39.1750 C   0  0  0  0  0  0  0  0  0  0  0  0
   47.4120   34.4810   40.4440 C   0  0  0  0  0  0  0  0  0  0  0  0
   47.4040   33.5910   41.5200 C   0  0  0  0  0  0  0  0  0  0  0  0
   47.7530   32.2960   41.3370 N   0  0  0  0  0  0  0  0  0  0  0  0
   48.1160   31.8150   40.1430 C   0  0  0  0  0  0  0  0  0  0  0  0
   48.1480   32.6210   39.0520 N   0  0  0  0  0  0  0  0  0  0  0  0
   41.3050   34.4060   40.9270 C   0  0  1  0  0  0  0  0  0  0  0  0
   41.7260   35.8280   41.0170 C   0  0  0  0  0  0  0  0  0  0  0  0
   40.8650   34.0480   39.5370 C   0  0  0  0  0  0  0  0  0  0  0  0
   39.5660   34.6620   39.1570 C   0  0  0  0  0  0  0  0  0  0  0  0
   38.4450   33.9530   39.8800 C   0  0  0  0  0  0  0  0  0  0  0  0
   38.5010   32.4710   39.6520 C   0  0  0  0  0  0  0  0  0  0  0  0
   38.4390   32.1560   38.1890 C   0  0  0  0  0  0  0  0  0  0  0  0
   38.2660   33.4200   37.3860 C   0  0  0  0  0  0  0  0  0  0  0  0
   39.3510   34.4030   37.6760 C   0  0  0  0  0  0  0  0  0  0  0  0
   45.2680   31.3871   42.6181 H   0  0  0  0  0  0  0  0  0  0  0  0
   43.3841   30.4167   41.4112 H   0  0  0  0  0  0  0  0  0  0  0  0
   47.9649   33.8363   43.2124 H   0  0  0  0  0  0  0  0  0  0  0  0
   46.3498   36.1566   43.5909 H   0  0  0  0  0  0  0  0  0  0  0  0
   45.8532   36.1371   42.1105 H   0  0  0  0  0  0  0  0  0  0  0  0
   45.0387   33.8076   44.1834 H   0  0  0  0  0  0  0  0  0  0  0  0
   47.8310   34.5931   38.2903 H   0  0  0  0  0  0  0  0  0  0  0  0
   47.1325   35.5382   40.5629 H   0  0  0  0  0  0  0  0  0  0  0  0
   48.3915   30.7546   40.0444 H   0  0  0  0  0  0  0  0  0  0  0  0
   40.4313   34.2385   41.5739 H   0  0  0  0  0  0  0  0  0  0  0  0
   41.8121   36.1187   42.0744 H   0  0  0  0  0  0  0  0  0  0  0  0
   42.7000   35.9541   40.5216 H   0  0  0  0  0  0  0  0  0  0  0  0
   40.9776   36.4640   40.5216 H   0  0  0  0  0  0  0  0  0  0  0  0
   41.6337   34.3897   38.8282 H   0  0  0  0  0  0  0  0  0  0  0  0
   40.7313   32.9565   39.5077 H   0  0  0  0  0  0  0  0  0  0  0  0
   39.5758   35.7343   39.4022 H   0  0  0  0  0  0  0  0  0  0  0  0
   38.5308   34.1532   40.9582 H   0  0  0  0  0  0  0  0  0  0  0  0
   37.4876   34.3285   39.4896 H   0  0  0  0  0  0  0  0  0  0  0  0
   39.4410   32.0775   40.0662 H   0  0  0  0  0  0  0  0  0  0  0  0
   37.6385   32.0044   40.1503 H   0  0  0  0  0  0  0  0  0  0  0  0
   39.3720   31.6587   37.8855 H   0  0  0  0  0  0  0  0  0  0  0  0
   37.5801   31.4946   38.0026 H   0  0  0  0  0  0  0  0  0  0  0  0
   37.2958   33.8735   37.6372 H   0  0  0  0  0  0  0  0  0  0  0  0
   38.3110   33.1602   36.3181 H   0  0  0  0  0  0  0  0  0  0  0  0
   40.2900   34.0179   37.2517 H   0  0  0  0  0  0  0  0  0  0  0  0
   39.0452   35.3588   37.2255 H   0  0  0  0  0  0  0  0  0  0  0  0
  1  9  1  0
  2  1  2  0
  3  2  1  0
  4  5  1  0
  4  3  2  0
  5  6  2  0
  6  1  1  0
  7  8  1  0
  7  9  1  0
  8  9  1  0
 10 11  2  0
 11 12  1  0
 12  7  1  0
 13 12  2  0
 14 13  1  0
 15 10  1  0
 15 14  2  0
 16 17  1  0
 16  5  1  0
 18 16  1  0
 19 18  1  0
 19 20  1  0
 21 20  1  0
 22 21  1  0
 23 24  1  0
 23 22  1  0
 24 19  1  0
  2 25  1  0
  3 26  1  0
  7 27  1  1
  8 28  1  0
  8 29  1  0
  9 30  1  1
 10 31  1  0
 11 32  1  0
 14 33  1  0
 16 34  1  1
 17 35  1  0
 17 36  1  0
 17 37  1  0
 18 38  1  0
 18 39  1  0
 19 40  1  0
 20 41  1  0
 20 42  1  0
 21 43  1  0
 21 44  1  0
 22 45  1  0
 22 46  1  0
 23 47  1  0
 23 48  1  0
 24 49  1  0
 24 50  1  0
M  ISO  8  25  14  26  14  27  13  28  13  29  13  30  13  31  14  32  14
M  ISO  8  33  14  34   8  35   8  36   8  37   8  38   8  39   8  40  13
M  ISO  8  41  13  42  13  43  13  44  13  45  13  46  13  47  13  48  13
M  ISO  2  49  13  50  13
M  END
>  <minimizedAffinity>  (1) 
-5.82931232

>  <minimizedRMSD>  (1) 
1.52627122

$$$$
