
     RDKit          3D

 50 53  0  0  1  0  0  0  0  0999 V2000
   44.6570   35.2990   45.3160 C   0  0  0  0  0  0  0  0  0  0  0  0
   45.1620   35.6340   44.0630 C   0  0  0  0  0  0  0  0  0  0  0  0
   46.0980   34.8020   43.4520 C   0  0  0  0  0  0  0  0  0  0  0  0
   46.4460   33.6970   44.1670 N   0  0  0  0  0  0  0  0  0  0  0  0
   45.9460   33.3950   45.3750 C   0  0  0  0  0  0  0  0  0  0  0  0
   45.0490   34.2060   45.9400 N   0  0  0  0  0  0  0  0  0  0  0  0
   46.3670   32.2080   46.0540 N   0  0  0  0  0  0  0  0  0  0  0  0
   47.5390   31.4840   45.7000 C   0  0  0  0  0  0  0  0  0  0  0  0
   47.1560   30.0250   45.6390 C   0  0  0  0  0  0  0  0  0  0  0  0
   46.6780   29.5460   46.8440 O   0  0  0  0  0  0  0  0  0  0  0  0
   46.4210   30.5340   47.7600 C   0  0  0  0  0  0  0  0  0  0  0  0
   45.6190   31.6730   47.1490 C   0  0  1  0  0  0  0  0  0  0  0  0
   45.1350   32.6320   48.1640 C   0  0  0  0  0  0  0  0  0  0  0  0
   46.6980   34.9860   42.2180 O   0  0  0  0  0  0  0  0  0  0  0  0
   48.1190   34.9210   42.0840 C   0  0  0  0  0  0  0  0  0  0  0  0
   48.5300   35.0880   40.6550 C   0  0  0  0  0  0  0  0  0  0  0  0
   47.5420   34.5050   39.8480 N   0  0  0  0  0  0  0  0  0  0  0  0
   47.8430   33.9920   38.5450 C   0  0  0  0  0  0  0  0  0  0  0  0
   48.4750   34.5610   37.4600 C   0  0  0  0  0  0  0  0  0  0  0  0
   48.4410   33.5690   36.4960 C   0  0  0  0  0  0  0  0  0  0  0  0
   47.8270   32.4990   36.9960 N   0  0  0  0  0  0  0  0  0  0  0  0
   47.4540   32.7390   38.2520 N   0  0  0  0  0  0  0  0  0  0  0  0
   47.5630   31.2340   36.3570 C   0  0  0  0  0  0  0  0  0  0  0  0
   47.8830   31.0710   35.0230 C   0  0  0  0  0  0  0  0  0  0  0  0
   47.5910   29.8190   34.4910 C   0  0  0  0  0  0  0  0  0  0  0  0
   47.0390   28.8000   35.1750 N   0  0  0  0  0  0  0  0  0  0  0  0
   46.7490   29.0260   36.4840 C   0  0  0  0  0  0  0  0  0  0  0  0
   47.0030   30.2250   37.0800 N   0  0  0  0  0  0  0  0  0  0  0  0
   43.9175   35.9582   45.7942 H   0  0  0  0  0  0  0  0  0  0  0  0
   44.8240   36.5508   43.5577 H   0  0  0  0  0  0  0  0  0  0  0  0
   47.9079   31.8189   44.7193 H   0  0  0  0  0  0  0  0  0  0  0  0
   48.3393   31.6489   46.4364 H   0  0  0  0  0  0  0  0  0  0  0  0
   46.3743   29.8985   44.8755 H   0  0  0  0  0  0  0  0  0  0  0  0
   48.0635   29.4544   45.3923 H   0  0  0  0  0  0  0  0  0  0  0  0
   45.8501   30.1048   48.5966 H   0  0  0  0  0  0  0  0  0  0  0  0
   47.3832   30.9393   48.1062 H   0  0  0  0  0  0  0  0  0  0  0  0
   44.6699   31.3129   46.7253 H   0  0  0  0  0  0  0  0  0  0  0  0
   45.3358   32.2341   49.1696 H   0  0  0  0  0  0  0  0  0  0  0  0
   45.6563   33.5925   48.0389 H   0  0  0  0  0  0  0  0  0  0  0  0
   44.0526   32.7832   48.0389 H   0  0  0  0  0  0  0  0  0  0  0  0
   48.5742   35.7217   42.6854 H   0  0  0  0  0  0  0  0  0  0  0  0
   48.4598   33.9355   42.4343 H   0  0  0  0  0  0  0  0  0  0  0  0
   48.6236   36.1577   40.4162 H   0  0  0  0  0  0  0  0  0  0  0  0
   49.5019   34.6041   40.4782 H   0  0  0  0  0  0  0  0  0  0  0  0
   46.5763   34.4443   40.2010 H   0  0  0  0  0  0  0  0  0  0  0  0
   48.9063   35.5697   37.3793 H   0  0  0  0  0  0  0  0  0  0  0  0
   48.8547   33.6513   35.4801 H   0  0  0  0  0  0  0  0  0  0  0  0
   48.3366   31.8743   34.4238 H   0  0  0  0  0  0  0  0  0  0  0  0
   47.8295   29.6492   33.4307 H   0  0  0  0  0  0  0  0  0  0  0  0
   46.2967   28.2186   37.0786 H   0  0  0  0  0  0  0  0  0  0  0  0
  1  6  2  0
  2  1  1  0
  3  2  2  0
  3  4  1  0
  4  5  2  0
  5  6  1  0
  5  7  1  0
  7 12  1  0
  8  7  1  0
  9  8  1  0
  9 10  1  0
 10 11  1  0
 12 11  1  0
 12 13  1  0
 14  3  1  0
 15 14  1  0
 16 15  1  0
 17 16  1  0
 18 17  1  0
 19 18  1  0
 20 21  1  0
 20 19  2  0
 21 22  1  0
 22 18  2  0
 23 21  1  0
 23 28  1  0
 24 23  2  0
 25 24  1  0
 25 26  2  0
 26 27  1  0
 27 28  2  0
  1 29  1  0
  2 30  1  0
  8 31  1  0
  8 32  1  0
  9 33  1  0
  9 34  1  0
 11 35  1  0
 11 36  1  0
 12 37  1  6
 13 38  1  0
 13 39  1  0
 13 40  1  0
 15 41  1  0
 15 42  1  0
 16 43  1  0
 16 44  1  0
 17 45  1  0
 19 46  1  0
 20 47  1  0
 24 48  1  0
 25 49  1  0
 27 50  1  0
M  ISO  8  29  14  30  14  31  13  32  13  33  13  34  13  35  13  36  13
M  ISO  8  37  13  38   8  39   8  40   8  41   8  42   8  43   8  44   8
M  ISO  5  46  14  47  14  48  14  49  14  50  14
M  END
>  <minimizedAffinity>  (1) 
-5.62107182

>  <minimizedRMSD>  (1) 
0.282917917

$$$$
