
     RDKit          3D

 48 51  0  0  1  0  0  0  0  0999 V2000
   44.6550   35.3040   45.3150 C   0  0  0  0  0  0  0  0  0  0  0  0
   45.1620   35.6340   44.0660 C   0  0  0  0  0  0  0  0  0  0  0  0
   46.0940   34.8040   43.4470 C   0  0  0  0  0  0  0  0  0  0  0  0
   46.4420   33.6890   44.1550 N   0  0  0  0  0  0  0  0  0  0  0  0
   45.9400   33.3900   45.3600 C   0  0  0  0  0  0  0  0  0  0  0  0
   45.0530   34.1950   45.9310 N   0  0  0  0  0  0  0  0  0  0  0  0
   46.3520   32.2030   46.0440 N   0  0  0  0  0  0  0  0  0  0  0  0
   47.5260   31.4750   45.6830 C   0  0  0  0  0  0  0  0  0  0  0  0
   47.1490   30.0190   45.6250 C   0  0  0  0  0  0  0  0  0  0  0  0
   46.6840   29.5420   46.8360 O   0  0  0  0  0  0  0  0  0  0  0  0
   46.4360   30.5420   47.7600 C   0  0  0  0  0  0  0  0  0  0  0  0
   45.6040   31.6690   47.1390 C   0  0  1  0  0  0  0  0  0  0  0  0
   45.1780   32.6430   48.1670 C   0  0  0  0  0  0  0  0  0  0  0  0
   46.6940   34.9860   42.2150 O   0  0  0  0  0  0  0  0  0  0  0  0
   48.1140   34.9470   42.0770 C   0  0  0  0  0  0  0  0  0  0  0  0
   48.5040   35.0670   40.6390 C   0  0  0  0  0  0  0  0  0  0  0  0
   47.4880   34.4470   39.8540 N   0  0  0  0  0  0  0  0  0  0  0  0
   47.8210   33.9550   38.5550 C   0  0  0  0  0  0  0  0  0  0  0  0
   48.4320   34.5230   37.4550 C   0  0  0  0  0  0  0  0  0  0  0  0
   48.4540   33.5020   36.5070 C   0  0  0  0  0  0  0  0  0  0  0  0
   47.8820   32.4010   37.0400 N   0  0  0  0  0  0  0  0  0  0  0  0
   47.4950   32.6610   38.2750 N   0  0  0  0  0  0  0  0  0  0  0  0
   47.7540   31.1660   36.2930 C   0  0  0  0  0  0  0  0  0  0  0  0
   47.6270   29.8590   36.8650 C   0  0  0  0  0  0  0  0  0  0  0  0
   47.5190   28.8680   35.2810 S   0  0  0  0  0  0  0  0  0  0  0  0
   47.6670   30.4190   34.1910 C   0  0  0  0  0  0  0  0  0  0  0  0
   47.7720   31.4300   34.9810 N   0  0  0  0  0  0  0  0  0  0  0  0
   43.9195   35.9639   45.7982 H   0  0  0  0  0  0  0  0  0  0  0  0
   44.8271   36.5534   43.5634 H   0  0  0  0  0  0  0  0  0  0  0  0
   47.8890   31.8094   44.6999 H   0  0  0  0  0  0  0  0  0  0  0  0
   48.3284   31.6408   46.4170 H   0  0  0  0  0  0  0  0  0  0  0  0
   46.3607   29.8890   44.8689 H   0  0  0  0  0  0  0  0  0  0  0  0
   48.0548   29.4501   45.3684 H   0  0  0  0  0  0  0  0  0  0  0  0
   45.8858   30.1162   48.6120 H   0  0  0  0  0  0  0  0  0  0  0  0
   47.3982   30.9588   48.0923 H   0  0  0  0  0  0  0  0  0  0  0  0
   44.6502   31.3054   46.7291 H   0  0  0  0  0  0  0  0  0  0  0  0
   45.3613   32.2240   49.1674 H   0  0  0  0  0  0  0  0  0  0  0  0
   45.7508   33.5747   48.0491 H   0  0  0  0  0  0  0  0  0  0  0  0
   44.1050   32.8549   48.0491 H   0  0  0  0  0  0  0  0  0  0  0  0
   48.5556   35.7807   42.6426 H   0  0  0  0  0  0  0  0  0  0  0  0
   48.4829   33.9867   42.4666 H   0  0  0  0  0  0  0  0  0  0  0  0
   48.5931   36.1282   40.3636 H   0  0  0  0  0  0  0  0  0  0  0  0
   49.4739   34.5784   40.4639 H   0  0  0  0  0  0  0  0  0  0  0  0
   46.5288   34.3553   40.2179 H   0  0  0  0  0  0  0  0  0  0  0  0
   48.8147   35.5490   37.3506 H   0  0  0  0  0  0  0  0  0  0  0  0
   48.8691   33.5800   35.4913 H   0  0  0  0  0  0  0  0  0  0  0  0
   47.6009   29.5358   37.9161 H   0  0  0  0  0  0  0  0  0  0  0  0
   47.6635   30.4471   33.0914 H   0  0  0  0  0  0  0  0  0  0  0  0
  1  6  2  0
  2  1  1  0
  3  2  2  0
  3  4  1  0
  4  5  2  0
  5  6  1  0
  5  7  1  0
  7 12  1  0
  8  7  1  0
  9  8  1  0
  9 10  1  0
 10 11  1  0
 12 11  1  0
 12 13  1  0
 14  3  1  0
 15 14  1  0
 16 15  1  0
 17 16  1  0
 18 17  1  0
 19 18  1  0
 20 21  1  0
 20 19  2  0
 21 22  1  0
 22 18  2  0
 23 24  2  0
 23 21  1  0
 25 24  1  0
 26 27  2  0
 26 25  1  0
 27 23  1  0
  1 28  1  0
  2 29  1  0
  8 30  1  0
  8 31  1  0
  9 32  1  0
  9 33  1  0
 11 34  1  0
 11 35  1  0
 12 36  1  6
 13 37  1  0
 13 38  1  0
 13 39  1  0
 15 40  1  0
 15 41  1  0
 16 42  1  0
 16 43  1  0
 17 44  1  0
 19 45  1  0
 20 46  1  0
 24 47  1  0
 26 48  1  0
M  ISO  8  28  14  29  14  30  13  31  13  32  13  33  13  34  13  35  13
M  ISO  8  36  13  37   8  38   8  39   8  40   8  41   8  42   8  43   8
M  ISO  4  45  14  46  14  47  14  48  14
M  END
>  <minimizedAffinity>  (1) 
-5.59315014

>  <minimizedRMSD>  (1) 
0.213260934

$$$$
