
     RDKit          3D

 49 52  0  0  1  0  0  0  0  0999 V2000
   44.6450   35.3200   45.3190 C   0  0  0  0  0  0  0  0  0  0  0  0
   45.1540   35.6530   44.0720 C   0  0  0  0  0  0  0  0  0  0  0  0
   46.0890   34.8240   43.4540 C   0  0  0  0  0  0  0  0  0  0  0  0
   46.4390   33.7140   44.1550 N   0  0  0  0  0  0  0  0  0  0  0  0
   45.9310   33.4090   45.3690 C   0  0  0  0  0  0  0  0  0  0  0  0
   45.0420   34.2130   45.9370 N   0  0  0  0  0  0  0  0  0  0  0  0
   46.3550   32.2170   46.0390 N   0  0  0  0  0  0  0  0  0  0  0  0
   47.5380   31.4960   45.6750 C   0  0  0  0  0  0  0  0  0  0  0  0
   47.1480   30.0380   45.6140 C   0  0  0  0  0  0  0  0  0  0  0  0
   46.6730   29.5500   46.8160 O   0  0  0  0  0  0  0  0  0  0  0  0
   46.4100   30.5270   47.7350 C   0  0  0  0  0  0  0  0  0  0  0  0
   45.5980   31.6730   47.1330 C   0  0  1  0  0  0  0  0  0  0  0  0
   45.1690   32.6410   48.1640 C   0  0  0  0  0  0  0  0  0  0  0  0
   46.6840   35.0230   42.2150 O   0  0  0  0  0  0  0  0  0  0  0  0
   48.0980   34.9440   42.0700 C   0  0  0  0  0  0  0  0  0  0  0  0
   48.4800   35.0950   40.6380 C   0  0  0  0  0  0  0  0  0  0  0  0
   47.5050   34.4260   39.8450 N   0  0  0  0  0  0  0  0  0  0  0  0
   47.8540   33.9460   38.5340 C   0  0  0  0  0  0  0  0  0  0  0  0
   48.4490   34.5420   37.4580 C   0  0  0  0  0  0  0  0  0  0  0  0
   48.5060   33.5480   36.4950 C   0  0  0  0  0  0  0  0  0  0  0  0
   47.9690   32.4410   37.0010 N   0  0  0  0  0  0  0  0  0  0  0  0
   47.5650   32.6580   38.2440 N   0  0  0  0  0  0  0  0  0  0  0  0
   47.8550   31.2210   36.3020 C   0  0  0  0  0  0  0  0  0  0  0  0
   47.0100   30.1870   36.4350 C   0  0  0  0  0  0  0  0  0  0  0  0
   47.0910   29.0860   35.6260 C   0  0  0  0  0  0  0  0  0  0  0  0
   48.1480   29.1590   34.6490 C   0  0  0  0  0  0  0  0  0  0  0  0
   48.9110   30.8080   35.0050 S   0  0  0  0  0  0  0  0  0  0  0  0
   43.9065   35.9782   45.8000 H   0  0  0  0  0  0  0  0  0  0  0  0
   44.8192   36.5728   43.5701 H   0  0  0  0  0  0  0  0  0  0  0  0
   47.9022   31.8336   44.6935 H   0  0  0  0  0  0  0  0  0  0  0  0
   48.3458   31.6623   46.4029 H   0  0  0  0  0  0  0  0  0  0  0  0
   46.3626   29.9179   44.8533 H   0  0  0  0  0  0  0  0  0  0  0  0
   48.0552   29.4675   45.3657 H   0  0  0  0  0  0  0  0  0  0  0  0
   45.8415   30.0877   48.5680 H   0  0  0  0  0  0  0  0  0  0  0  0
   47.3705   30.9357   48.0819 H   0  0  0  0  0  0  0  0  0  0  0  0
   44.6412   31.3196   46.7212 H   0  0  0  0  0  0  0  0  0  0  0  0
   45.3557   32.2197   49.1628 H   0  0  0  0  0  0  0  0  0  0  0  0
   45.7371   33.5758   48.0483 H   0  0  0  0  0  0  0  0  0  0  0  0
   44.0949   32.8480   48.0483 H   0  0  0  0  0  0  0  0  0  0  0  0
   48.5684   35.7461   42.6576 H   0  0  0  0  0  0  0  0  0  0  0  0
   48.4404   33.9627   42.4302 H   0  0  0  0  0  0  0  0  0  0  0  0
   48.5093   36.1617   40.3708 H   0  0  0  0  0  0  0  0  0  0  0  0
   49.4755   34.6613   40.4624 H   0  0  0  0  0  0  0  0  0  0  0  0
   46.5517   34.2858   40.2089 H   0  0  0  0  0  0  0  0  0  0  0  0
   48.8037   35.5799   37.3750 H   0  0  0  0  0  0  0  0  0  0  0  0
   48.9244   33.6557   35.4834 H   0  0  0  0  0  0  0  0  0  0  0  0
   46.2334   30.2252   37.2131 H   0  0  0  0  0  0  0  0  0  0  0  0
   46.4121   28.2249   35.7134 H   0  0  0  0  0  0  0  0  0  0  0  0
   48.4304   28.4207   33.8841 H   0  0  0  0  0  0  0  0  0  0  0  0
  1  6  2  0
  2  1  1  0
  3  2  2  0
  3  4  1  0
  4  5  2  0
  5  6  1  0
  5  7  1  0
  7 12  1  0
  8  7  1  0
  9  8  1  0
  9 10  1  0
 10 11  1  0
 12 11  1  0
 12 13  1  0
 14  3  1  0
 15 14  1  0
 16 15  1  0
 17 16  1  0
 18 17  1  0
 19 18  1  0
 20 21  1  0
 20 19  2  0
 21 22  1  0
 22 18  2  0
 23 24  2  0
 23 21  1  0
 25 24  1  0
 26 27  1  0
 26 25  2  0
 27 23  1  0
  1 28  1  0
  2 29  1  0
  8 30  1  0
  8 31  1  0
  9 32  1  0
  9 33  1  0
 11 34  1  0
 11 35  1  0
 12 36  1  6
 13 37  1  0
 13 38  1  0
 13 39  1  0
 15 40  1  0
 15 41  1  0
 16 42  1  0
 16 43  1  0
 17 44  1  0
 19 45  1  0
 20 46  1  0
 24 47  1  0
 25 48  1  0
 26 49  1  0
M  ISO  8  28  14  29  14  30  13  31  13  32  13  33  13  34  13  35  13
M  ISO  8  36  13  37   8  38   8  39   8  40   8  41   8  42   8  43   8
M  ISO  5  45  14  46  14  47  14  48  14  49  14
M  END
>  <minimizedAffinity>  (1) 
-5.56711245

>  <minimizedRMSD>  (1) 
0.206114635

$$$$
