
     RDKit          3D

 20 20  0  0  0  0  0  0  0  0999 V2000
   46.5800   34.3680   41.3210 C   0  0  0  0  0  0  0  0  0  0  0  0
   46.5170   33.9290   42.6660 C   0  0  0  0  0  0  0  0  0  0  0  0
   47.7200   33.9870   43.4150 C   0  0  0  0  0  0  0  0  0  0  0  0
   48.8500   34.4540   42.8100 N   0  0  0  0  0  0  0  0  0  0  0  0
   48.8510   34.8570   41.5290 C   0  0  0  0  0  0  0  0  0  0  0  0
   47.7290   34.8090   40.8140 N   0  0  0  0  0  0  0  0  0  0  0  0
   45.4140   34.3030   40.6230 O   0  0  0  0  0  0  0  0  0  0  0  0
   44.1520   34.2420   41.2560 C   0  0  0  0  0  0  0  0  0  0  0  0
   43.2510   33.2260   40.5910 C   0  0  0  0  0  0  0  0  0  0  0  0
   43.4640   35.5830   41.2900 C   0  0  0  0  0  0  0  0  0  0  0  0
   45.5798   33.5606   43.1086 H   0  0  0  0  0  0  0  0  0  0  0  0
   47.7415   33.6611   44.4654 H   0  0  0  0  0  0  0  0  0  0  0  0
   49.7797   35.2271   41.0701 H   0  0  0  0  0  0  0  0  0  0  0  0
   44.3429   33.9294   42.2932 H   0  0  0  0  0  0  0  0  0  0  0  0
   42.7299   32.6384   41.3611 H   0  0  0  0  0  0  0  0  0  0  0  0
   42.5118   33.7462   39.9640 H   0  0  0  0  0  0  0  0  0  0  0  0
   43.8558   32.5543   39.9640 H   0  0  0  0  0  0  0  0  0  0  0  0
   43.3073   35.8883   42.3351 H   0  0  0  0  0  0  0  0  0  0  0  0
   44.0904   36.3295   40.7799 H   0  0  0  0  0  0  0  0  0  0  0  0
   42.4922   35.5096   40.7799 H   0  0  0  0  0  0  0  0  0  0  0  0
  1  2  2  0
  2  3  1  0
  4  3  2  0
  5  4  1  0
  6  1  1  0
  6  5  2  0
  7  8  1  0
  7  1  1  0
  8 10  1  0
  9  8  1  0
  2 11  1  0
  3 12  1  0
  5 13  1  0
  8 14  1  0
  9 15  1  0
  9 16  1  0
  9 17  1  0
 10 18  1  0
 10 19  1  0
 10 20  1  0
M  ISO  8  11  14  12  14  13  14  14   8  15   8  16   8  17   8  18   8
M  ISO  2  19   8  20   8
M  END
>  <minimizedAffinity>  (1) 
-2.70184922

>  <minimizedRMSD>  (1) 
3.98156548

$$$$
