
     RDKit          3D

 30 31  0  0  1  0  0  0  0  0999 V2000
   41.6780   34.9690   41.4870 C   0  0  2  0  0  0  0  0  0  0  0  0
   41.4520   33.5000   41.3180 C   0  0  0  0  0  0  0  0  0  0  0  0
   40.4770   35.7270   40.9260 C   0  0  0  0  0  0  0  0  0  0  0  0
   39.7870   35.0100   39.8560 C   0  0  0  0  0  0  0  0  0  0  0  0
   40.2480   35.1480   38.5600 C   0  0  0  0  0  0  0  0  0  0  0  0
   39.7200   34.5500   37.4450 C   0  0  0  0  0  0  0  0  0  0  0  0
   38.6230   33.7320   37.6390 C   0  0  0  0  0  0  0  0  0  0  0  0
   38.1020   33.5430   38.9010 C   0  0  0  0  0  0  0  0  0  0  0  0
   38.6820   34.1760   39.9860 C   0  0  0  0  0  0  0  0  0  0  0  0
   42.8550   35.4020   40.8550 O   0  0  0  0  0  0  0  0  0  0  0  0
   44.1030   35.1740   41.3140 C   0  0  0  0  0  0  0  0  0  0  0  0
   44.3970   35.7870   42.5380 C   0  0  0  0  0  0  0  0  0  0  0  0
   45.6780   35.6090   43.0920 C   0  0  0  0  0  0  0  0  0  0  0  0
   46.5690   34.8360   42.3870 N   0  0  0  0  0  0  0  0  0  0  0  0
   46.2380   34.2750   41.2260 C   0  0  0  0  0  0  0  0  0  0  0  0
   45.0350   34.4420   40.7090 N   0  0  0  0  0  0  0  0  0  0  0  0
   41.7929   35.1738   42.5616 H   0  0  0  0  0  0  0  0  0  0  0  0
   41.3788   33.0241   42.3070 H   0  0  0  0  0  0  0  0  0  0  0  0
   40.5178   33.3344   40.7613 H   0  0  0  0  0  0  0  0  0  0  0  0
   42.2932   33.0612   40.7613 H   0  0  0  0  0  0  0  0  0  0  0  0
   39.7632   35.9040   41.7440 H   0  0  0  0  0  0  0  0  0  0  0  0
   40.8571   36.6654   40.4958 H   0  0  0  0  0  0  0  0  0  0  0  0
   41.1214   35.7995   38.4091 H   0  0  0  0  0  0  0  0  0  0  0  0
   40.1484   34.7132   36.4451 H   0  0  0  0  0  0  0  0  0  0  0  0
   38.1612   33.2269   36.7779 H   0  0  0  0  0  0  0  0  0  0  0  0
   37.2279   32.8910   39.0451 H   0  0  0  0  0  0  0  0  0  0  0  0
   38.2541   34.0138   40.9863 H   0  0  0  0  0  0  0  0  0  0  0  0
   43.6414   36.3957   43.0562 H   0  0  0  0  0  0  0  0  0  0  0  0
   45.9553   36.0703   44.0513 H   0  0  0  0  0  0  0  0  0  0  0  0
   46.9781   33.6631   40.6895 H   0  0  0  0  0  0  0  0  0  0  0  0
  2  1  1  0
  3  1  1  0
  4  9  1  0
  4  3  1  0
  5  4  2  0
  6  7  2  0
  6  5  1  0
  7  8  1  0
  8  9  2  0
 10 11  1  0
 10  1  1  0
 11 12  2  0
 12 13  1  0
 14 13  2  0
 15 14  1  0
 16 15  2  0
 16 11  1  0
  1 17  1  1
  2 18  1  0
  2 19  1  0
  2 20  1  0
  3 21  1  0
  3 22  1  0
  5 23  1  0
  6 24  1  0
  7 25  1  0
  8 26  1  0
  9 27  1  0
 12 28  1  0
 13 29  1  0
 15 30  1  0
M  ISO  8  17   8  18   8  19   8  20   8  21   8  22   8  23  14  24  14
M  ISO  6  25  14  26  14  27  14  28  14  29  14  30  14
M  END
>  <minimizedAffinity>  (1) 
-5.23671913

>  <minimizedRMSD>  (1) 
5.43882799

$$$$
