
     RDKit          3D

 27 28  0  0  1  0  0  0  0  0999 V2000
   42.7150   34.9180   41.2800 C   0  0  2  0  0  0  0  0  0  0  0  0
   43.0300   34.8140   39.8210 C   0  0  0  0  0  0  0  0  0  0  0  0
   41.3550   35.5910   41.4750 C   0  0  0  0  0  0  0  0  0  0  0  0
   40.2560   34.6890   41.0480 C   0  0  0  0  0  0  0  0  0  0  0  0
   39.4140   34.9910   39.9730 C   0  0  0  0  0  0  0  0  0  0  0  0
   38.4810   33.9750   39.8000 C   0  0  0  0  0  0  0  0  0  0  0  0
   38.8280   33.0870   40.8200 C   0  0  0  0  0  0  0  0  0  0  0  0
   39.8400   33.5320   41.5050 O   0  0  0  0  0  0  0  0  0  0  0  0
   43.6910   35.6050   42.0170 O   0  0  0  0  0  0  0  0  0  0  0  0
   44.2270   35.1840   43.1790 C   0  0  0  0  0  0  0  0  0  0  0  0
   44.9270   33.9720   43.1070 C   0  0  0  0  0  0  0  0  0  0  0  0
   45.5150   33.4600   44.2790 C   0  0  0  0  0  0  0  0  0  0  0  0
   45.3660   34.1880   45.4380 N   0  0  0  0  0  0  0  0  0  0  0  0
   44.6920   35.3360   45.4580 C   0  0  0  0  0  0  0  0  0  0  0  0
   44.1450   35.8020   44.3440 N   0  0  0  0  0  0  0  0  0  0  0  0
   42.6942   33.8881   41.6659 H   0  0  0  0  0  0  0  0  0  0  0  0
   44.0675   34.4715   39.6934 H   0  0  0  0  0  0  0  0  0  0  0  0
   42.3455   34.0942   39.3485 H   0  0  0  0  0  0  0  0  0  0  0  0
   42.9086   35.7999   39.3485 H   0  0  0  0  0  0  0  0  0  0  0  0
   41.2248   35.8402   42.5385 H   0  0  0  0  0  0  0  0  0  0  0  0
   41.3214   36.5036   40.8618 H   0  0  0  0  0  0  0  0  0  0  0  0
   39.4802   35.8988   39.3553 H   0  0  0  0  0  0  0  0  0  0  0  0
   37.6777   33.8922   39.0531 H   0  0  0  0  0  0  0  0  0  0  0  0
   38.3129   32.1355   41.0183 H   0  0  0  0  0  0  0  0  0  0  0  0
   45.0152   33.4313   42.1531 H   0  0  0  0  0  0  0  0  0  0  0  0
   46.0734   32.5123   44.2692 H   0  0  0  0  0  0  0  0  0  0  0  0
   44.5891   35.8975   46.3983 H   0  0  0  0  0  0  0  0  0  0  0  0
  1  3  1  0
  1  9  1  0
  2  1  1  0
  4  3  1  0
  4  8  1  0
  5  4  2  0
  6  5  1  0
  6  7  2  0
  7  8  1  0
  9 10  1  0
 10 15  1  0
 11 10  2  0
 11 12  1  0
 12 13  2  0
 13 14  1  0
 15 14  2  0
  1 16  1  1
  2 17  1  0
  2 18  1  0
  2 19  1  0
  3 20  1  0
  3 21  1  0
  5 22  1  0
  6 23  1  0
  7 24  1  0
 11 25  1  0
 12 26  1  0
 14 27  1  0
M  ISO  8  16   8  17   8  18   8  19   8  20   8  21   8  22  14  23  14
M  ISO  4  24  14  25  14  26  14  27  14
M  END
>  <minimizedAffinity>  (1) 
-4.69635677

>  <minimizedRMSD>  (1) 
4.96074295

$$$$
