
     RDKit          3D

 31 33  0  0  1  0  0  0  0  0999 V2000
   44.0030   34.1170   40.4010 C   0  0  2  0  0  0  0  0  0  0  0  0
   44.4370   33.2890   39.2320 C   0  0  0  0  0  0  0  0  0  0  0  0
   42.9660   35.1540   39.9460 C   0  0  0  0  0  0  0  0  0  0  0  0
   41.6470   34.7630   40.3340 N   0  0  0  0  0  0  0  0  0  0  0  0
   41.2440   34.7190   41.6360 C   0  0  0  0  0  0  0  0  0  0  0  0
   39.9560   34.3190   41.7260 N   0  0  0  0  0  0  0  0  0  0  0  0
   39.4900   34.0920   40.4740 C   0  0  0  0  0  0  0  0  0  0  0  0
   38.3310   33.6860   39.8450 C   0  0  0  0  0  0  0  0  0  0  0  0
   38.2590   33.5780   38.5050 N   0  0  0  0  0  0  0  0  0  0  0  0
   39.3270   33.8640   37.7160 C   0  0  0  0  0  0  0  0  0  0  0  0
   40.4880   34.2670   38.2890 N   0  0  0  0  0  0  0  0  0  0  0  0
   40.5570   34.3740   39.6280 C   0  0  0  0  0  0  0  0  0  0  0  0
   45.0780   34.7810   41.0200 O   0  0  0  0  0  0  0  0  0  0  0  0
   45.6190   34.4400   42.2040 C   0  0  0  0  0  0  0  0  0  0  0  0
   44.7840   34.6310   43.3120 C   0  0  0  0  0  0  0  0  0  0  0  0
   45.2730   34.3050   44.5900 C   0  0  0  0  0  0  0  0  0  0  0  0
   46.5550   33.8120   44.6790 N   0  0  0  0  0  0  0  0  0  0  0  0
   47.3140   33.6460   43.5870 C   0  0  0  0  0  0  0  0  0  0  0  0
   46.8350   33.9620   42.3800 N   0  0  0  0  0  0  0  0  0  0  0  0
   43.5646   33.4291   41.1390 H   0  0  0  0  0  0  0  0  0  0  0  0
   44.9193   32.3688   39.5934 H   0  0  0  0  0  0  0  0  0  0  0  0
   43.5598   33.0279   38.6218 H   0  0  0  0  0  0  0  0  0  0  0  0
   45.1508   33.8618   38.6218 H   0  0  0  0  0  0  0  0  0  0  0  0
   43.0063   35.2465   38.8506 H   0  0  0  0  0  0  0  0  0  0  0  0
   43.2007   36.1172   40.4227 H   0  0  0  0  0  0  0  0  0  0  0  0
   41.8805   34.9743   42.4960 H   0  0  0  0  0  0  0  0  0  0  0  0
   37.4459   33.4451   40.4521 H   0  0  0  0  0  0  0  0  0  0  0  0
   39.2508   33.7696   36.6227 H   0  0  0  0  0  0  0  0  0  0  0  0
   43.7660   35.0281   43.1854 H   0  0  0  0  0  0  0  0  0  0  0  0
   44.6519   34.4395   45.4878 H   0  0  0  0  0  0  0  0  0  0  0  0
   48.3349   33.2482   43.6845 H   0  0  0  0  0  0  0  0  0  0  0  0
  1 13  1  0
  2  1  1  0
  3  4  1  0
  3  1  1  0
  4  5  1  0
  5  6  2  0
  7  6  1  0
  8  7  2  0
  9  8  1  0
 10 11  1  0
 10  9  2  0
 11 12  2  0
 12  4  1  0
 12  7  1  0
 13 14  1  0
 14 19  1  0
 14 15  2  0
 15 16  1  0
 16 17  2  0
 18 17  1  0
 19 18  2  0
  1 20  1  1
  2 21  1  0
  2 22  1  0
  2 23  1  0
  3 24  1  0
  3 25  1  0
  5 26  1  0
  8 27  1  0
 10 28  1  0
 15 29  1  0
 16 30  1  0
 18 31  1  0
M  ISO  8  20   8  21   8  22   8  23   8  24   8  25   8  26  14  27  14
M  ISO  4  28  14  29  14  30  14  31  14
M  END
>  <minimizedAffinity>  (1) 
-4.50773573

>  <minimizedRMSD>  (1) 
2.7467525

$$$$
