
     RDKit          3D

 25 26  0  0  1  0  0  0  0  0999 V2000
   45.2320   34.5200   41.6140 C   0  0  2  0  0  0  0  0  0  0  0  0
   44.0190   34.5690   40.7400 C   0  0  0  0  0  0  0  0  0  0  0  0
   45.1330   35.6240   42.6750 C   0  0  0  0  0  0  0  0  0  0  0  0
   45.1470   35.0600   44.0340 C   0  0  0  0  0  0  0  0  0  0  0  0
   44.4690   35.6220   45.0640 N   0  0  0  0  0  0  0  0  0  0  0  0
   44.6380   34.9460   46.1440 O   0  0  0  0  0  0  0  0  0  0  0  0
   45.4290   33.9140   45.8810 C   0  0  0  0  0  0  0  0  0  0  0  0
   45.7530   33.9790   44.5560 N   0  0  0  0  0  0  0  0  0  0  0  0
   46.4330   34.6740   40.9060 O   0  0  0  0  0  0  0  0  0  0  0  0
   47.6650   34.5720   41.4420 C   0  0  0  0  0  0  0  0  0  0  0  0
   48.0570   33.2710   41.7810 C   0  0  0  0  0  0  0  0  0  0  0  0
   49.3310   33.0710   42.3510 C   0  0  0  0  0  0  0  0  0  0  0  0
   50.1210   34.1810   42.5390 N   0  0  0  0  0  0  0  0  0  0  0  0
   49.6980   35.3960   42.1970 C   0  0  0  0  0  0  0  0  0  0  0  0
   48.5040   35.5810   41.6630 N   0  0  0  0  0  0  0  0  0  0  0  0
   45.2542   33.5213   42.0746 H   0  0  0  0  0  0  0  0  0  0  0  0
   43.1162   34.6055   41.3674 H   0  0  0  0  0  0  0  0  0  0  0  0
   44.0606   35.4662   40.1049 H   0  0  0  0  0  0  0  0  0  0  0  0
   43.9881   33.6714   40.1049 H   0  0  0  0  0  0  0  0  0  0  0  0
   45.9871   36.3079   42.5617 H   0  0  0  0  0  0  0  0  0  0  0  0
   44.1838   36.1609   42.5309 H   0  0  0  0  0  0  0  0  0  0  0  0
   45.7620   33.1483   46.5971 H   0  0  0  0  0  0  0  0  0  0  0  0
   47.3826   32.4198   41.6056 H   0  0  0  0  0  0  0  0  0  0  0  0
   49.6794   32.0668   42.6342 H   0  0  0  0  0  0  0  0  0  0  0  0
   50.3553   36.2624   42.3622 H   0  0  0  0  0  0  0  0  0  0  0  0
  1  3  1  0
  2  1  1  0
  3  4  1  0
  4  8  1  0
  4  5  2  0
  5  6  1  0
  7  6  1  0
  8  7  2  0
  9 10  1  0
  9  1  1  0
 10 15  1  0
 10 11  2  0
 11 12  1  0
 12 13  2  0
 14 13  1  0
 15 14  2  0
  1 16  1  1
  2 17  1  0
  2 18  1  0
  2 19  1  0
  3 20  1  0
  3 21  1  0
  7 22  1  0
 11 23  1  0
 12 24  1  0
 14 25  1  0
M  ISO  8  16   8  17   8  18   8  19   8  20   8  21   8  22  14  23  14
M  ISO  2  24  14  25  14
M  END
>  <minimizedAffinity>  (1) 
-4.40593529

>  <minimizedRMSD>  (1) 
2.62616086

$$$$
