
     RDKit          3D

 27 27  0  0  1  0  0  0  0  0999 V2000
   44.0030   34.3270   41.4930 C   0  0  2  0  0  0  0  0  0  0  0  0
   44.8390   33.8110   40.3630 C   0  0  0  0  0  0  0  0  0  0  0  0
   44.7560   34.1540   42.8190 C   0  0  0  0  0  0  0  0  0  0  0  0
   45.3520   35.4110   43.2560 N   0  0  0  0  0  0  0  0  0  0  0  0
   44.7970   36.0970   44.3690 C   0  0  0  0  0  0  0  0  0  0  0  0
   44.1880   35.4480   45.3010 N   0  0  0  0  0  0  0  0  0  0  0  0
   44.9290   37.5130   44.4240 N   0  0  0  0  0  0  0  0  0  0  0  0
   43.7750   35.9120   46.1200 H   0  0  0  0  0  0  0  0  0  0  0  0
   42.7620   33.6850   41.5850 O   0  0  0  0  0  0  0  0  0  0  0  0
   41.6060   34.1450   41.0650 C   0  0  0  0  0  0  0  0  0  0  0  0
   41.4530   35.5370   41.0960 C   0  0  0  0  0  0  0  0  0  0  0  0
   40.2730   36.1060   40.5770 C   0  0  0  0  0  0  0  0  0  0  0  0
   39.3340   35.2400   40.0660 N   0  0  0  0  0  0  0  0  0  0  0  0
   39.5160   33.9200   40.0520 C   0  0  0  0  0  0  0  0  0  0  0  0
   40.6390   33.4070   40.5490 N   0  0  0  0  0  0  0  0  0  0  0  0
   43.8139   35.3914   41.2895 H   0  0  0  0  0  0  0  0  0  0  0  0
   45.7097   33.2736   40.7667 H   0  0  0  0  0  0  0  0  0  0  0  0
   44.2390   33.1259   39.7461 H   0  0  0  0  0  0  0  0  0  0  0  0
   45.1824   34.6545   39.7461 H   0  0  0  0  0  0  0  0  0  0  0  0
   44.0518   33.8044   43.5883 H   0  0  0  0  0  0  0  0  0  0  0  0
   45.5620   33.4207   42.6683 H   0  0  0  0  0  0  0  0  0  0  0  0
   46.1685   35.7982   42.7618 H   0  0  0  0  0  0  0  0  0  0  0  0
   44.5362   38.0363   45.2194 H   0  0  0  0  0  0  0  0  0  0  0  0
   45.4174   38.0144   43.6684 H   0  0  0  0  0  0  0  0  0  0  0  0
   42.2420   36.1762   41.5190 H   0  0  0  0  0  0  0  0  0  0  0  0
   40.1099   37.1938   40.5803 H   0  0  0  0  0  0  0  0  0  0  0  0
   38.7434   33.2589   39.6325 H   0  0  0  0  0  0  0  0  0  0  0  0
  1  9  1  0
  1  3  1  0
  2  1  1  0
  3  4  1  0
  4  5  1  0
  5  7  1  0
  5  6  2  0
  6  8  1  0
 10 11  2  0
 10  9  1  0
 12 11  1  0
 13 12  2  0
 14 13  1  0
 14 15  2  0
 15 10  1  0
  1 16  1  6
  2 17  1  0
  2 18  1  0
  2 19  1  0
  3 20  1  0
  3 21  1  0
  4 22  1  0
  7 23  1  0
  7 24  1  0
 11 25  1  0
 12 26  1  0
 14 27  1  0
M  ISO  8  16   8  17   8  18   8  19   8  20   8  21   8  25  14  26  14
M  ISO  1  27  14
M  END
>  <minimizedAffinity>  (1) 
-4.33424664

>  <minimizedRMSD>  (1) 
6.06923866

$$$$
