
     RDKit          3D

 26 27  0  0  1  0  0  0  0  0999 V2000
   45.2460   34.6010   41.7130 C   0  0  2  0  0  0  0  0  0  0  0  0
   44.0290   34.7900   40.8560 C   0  0  0  0  0  0  0  0  0  0  0  0
   45.2710   35.6930   42.7870 C   0  0  0  0  0  0  0  0  0  0  0  0
   45.1690   35.1710   44.1090 N   0  0  0  0  0  0  0  0  0  0  0  0
   44.4740   35.6360   45.1620 C   0  0  0  0  0  0  0  0  0  0  0  0
   44.6670   34.8150   46.2320 N   0  0  0  0  0  0  0  0  0  0  0  0
   45.4930   33.8380   45.8150 C   0  0  0  0  0  0  0  0  0  0  0  0
   45.7770   34.0770   44.5420 N   0  0  0  0  0  0  0  0  0  0  0  0
   46.4290   34.6560   40.9620 O   0  0  0  0  0  0  0  0  0  0  0  0
   47.6760   34.5710   41.4670 C   0  0  0  0  0  0  0  0  0  0  0  0
   48.0770   33.2700   41.7930 C   0  0  0  0  0  0  0  0  0  0  0  0
   49.3730   33.0820   42.3380 C   0  0  0  0  0  0  0  0  0  0  0  0
   50.1510   34.1910   42.5080 N   0  0  0  0  0  0  0  0  0  0  0  0
   49.7170   35.4060   42.1800 C   0  0  0  0  0  0  0  0  0  0  0  0
   48.5120   35.5880   41.6730 N   0  0  0  0  0  0  0  0  0  0  0  0
   45.1906   33.6037   42.1737 H   0  0  0  0  0  0  0  0  0  0  0  0
   43.1463   34.9271   41.4978 H   0  0  0  0  0  0  0  0  0  0  0  0
   44.1621   35.6782   40.2209 H   0  0  0  0  0  0  0  0  0  0  0  0
   43.8864   33.9032   40.2209 H   0  0  0  0  0  0  0  0  0  0  0  0
   46.2163   36.2489   42.7008 H   0  0  0  0  0  0  0  0  0  0  0  0
   44.3987   36.3418   42.6194 H   0  0  0  0  0  0  0  0  0  0  0  0
   43.8466   36.5395   45.1598 H   0  0  0  0  0  0  0  0  0  0  0  0
   45.8641   32.9966   46.4186 H   0  0  0  0  0  0  0  0  0  0  0  0
   47.4041   32.4151   41.6306 H   0  0  0  0  0  0  0  0  0  0  0  0
   49.7372   32.0812   42.6131 H   0  0  0  0  0  0  0  0  0  0  0  0
   50.3746   36.2742   42.3343 H   0  0  0  0  0  0  0  0  0  0  0  0
  1  3  1  0
  2  1  1  0
  3  4  1  0
  4  8  1  0
  4  5  1  0
  5  6  2  0
  7  6  1  0
  8  7  2  0
  9 10  1  0
  9  1  1  0
 10 15  1  0
 10 11  2  0
 11 12  1  0
 12 13  2  0
 14 13  1  0
 15 14  2  0
  1 16  1  1
  2 17  1  0
  2 18  1  0
  2 19  1  0
  3 20  1  0
  3 21  1  0
  5 22  1  0
  7 23  1  0
 11 24  1  0
 12 25  1  0
 14 26  1  0
M  ISO  8  16   8  17   8  18   8  19   8  20   8  21   8  22  14  23  14
M  ISO  3  24  14  25  14  26  14
M  END
>  <minimizedAffinity>  (1) 
-4.21048832

>  <minimizedRMSD>  (1) 
2.68751621

$$$$
