
     RDKit          3D

 27 28  0  0  1  0  0  0  0  0999 V2000
   45.3280   34.5530   41.6920 C   0  0  2  0  0  0  0  0  0  0  0  0
   44.1100   34.6210   40.8270 C   0  0  0  0  0  0  0  0  0  0  0  0
   45.2800   35.6840   42.7280 C   0  0  0  0  0  0  0  0  0  0  0  0
   45.1630   35.1840   44.0610 N   0  0  0  0  0  0  0  0  0  0  0  0
   45.7750   34.0480   44.4900 C   0  0  0  0  0  0  0  0  0  0  0  0
   45.4650   33.8410   45.8170 C   0  0  0  0  0  0  0  0  0  0  0  0
   44.6680   34.8660   46.1600 N   0  0  0  0  0  0  0  0  0  0  0  0
   44.4820   35.6760   45.1130 C   0  0  0  0  0  0  0  0  0  0  0  0
   46.5170   34.6290   40.9540 O   0  0  0  0  0  0  0  0  0  0  0  0
   47.7570   34.4810   41.4700 C   0  0  0  0  0  0  0  0  0  0  0  0
   48.1530   33.1500   41.6730 C   0  0  0  0  0  0  0  0  0  0  0  0
   49.4390   32.9100   42.2190 C   0  0  0  0  0  0  0  0  0  0  0  0
   50.2030   33.9900   42.5070 N   0  0  0  0  0  0  0  0  0  0  0  0
   49.8000   35.2430   42.3020 C   0  0  0  0  0  0  0  0  0  0  0  0
   48.5980   35.4520   41.7930 N   0  0  0  0  0  0  0  0  0  0  0  0
   45.3249   33.5746   42.1947 H   0  0  0  0  0  0  0  0  0  0  0  0
   43.2124   34.6711   41.4609 H   0  0  0  0  0  0  0  0  0  0  0  0
   44.1609   35.5177   40.1919 H   0  0  0  0  0  0  0  0  0  0  0  0
   44.0608   33.7242   40.1919 H   0  0  0  0  0  0  0  0  0  0  0  0
   46.2039   36.2760   42.6506 H   0  0  0  0  0  0  0  0  0  0  0  0
   44.3936   36.3004   42.5173 H   0  0  0  0  0  0  0  0  0  0  0  0
   46.4154   33.3978   43.8759 H   0  0  0  0  0  0  0  0  0  0  0  0
   45.7993   33.0124   46.4586 H   0  0  0  0  0  0  0  0  0  0  0  0
   43.8735   36.5924   45.1113 H   0  0  0  0  0  0  0  0  0  0  0  0
   47.4838   32.3158   41.4155 H   0  0  0  0  0  0  0  0  0  0  0  0
   49.8015   31.8876   42.4013 H   0  0  0  0  0  0  0  0  0  0  0  0
   50.4564   36.0896   42.5521 H   0  0  0  0  0  0  0  0  0  0  0  0
  1  3  1  0
  2  1  1  0
  3  4  1  0
  4  5  1  0
  4  8  1  0
  5  6  2  0
  6  7  1  0
  8  7  2  0
  9 10  1  0
  9  1  1  0
 10 11  2  0
 10 15  1  0
 11 12  1  0
 12 13  2  0
 14 13  1  0
 15 14  2  0
  1 16  1  1
  2 17  1  0
  2 18  1  0
  2 19  1  0
  3 20  1  0
  3 21  1  0
  5 22  1  0
  6 23  1  0
  8 24  1  0
 11 25  1  0
 12 26  1  0
 14 27  1  0
M  ISO  8  16   8  17   8  18   8  19   8  20   8  21   8  22  14  23  14
M  ISO  4  24  14  25  14  26  14  27  14
M  END
>  <minimizedAffinity>  (1) 
-4.20583582

>  <minimizedRMSD>  (1) 
2.59988308

$$$$
