
     RDKit          3D

 34 35  0  0  1  0  0  0  0  0999 V2000
   43.7010   34.0400   41.6860 C   0  0  2  0  0  0  0  0  0  0  0  0
   42.8310   32.8620   41.3820 C   0  0  0  0  0  0  0  0  0  0  0  0
   42.8250   35.2660   41.9640 C   0  0  0  0  0  0  0  0  0  0  0  0
   42.0470   35.5880   40.8070 N   0  0  0  0  0  0  0  0  0  0  0  0
   40.6720   35.5000   41.0270 C   0  0  0  0  0  0  0  0  0  0  0  0
   39.8340   35.0210   39.8670 C   0  0  0  0  0  0  0  0  0  0  0  0
   40.5580   34.1710   38.9420 N   0  0  0  0  0  0  0  0  0  0  0  0
   41.6920   34.9540   38.4680 C   0  0  0  0  0  0  0  0  0  0  0  0
   42.6360   35.0560   39.6500 C   0  0  0  0  0  0  0  0  0  0  0  0
   44.6280   34.3290   40.6830 O   0  0  0  0  0  0  0  0  0  0  0  0
   45.9670   34.3140   40.8430 C   0  0  0  0  0  0  0  0  0  0  0  0
   46.4340   34.8260   42.0570 C   0  0  0  0  0  0  0  0  0  0  0  0
   47.8290   34.8440   42.2820 C   0  0  0  0  0  0  0  0  0  0  0  0
   48.6380   34.3610   41.3030 N   0  0  0  0  0  0  0  0  0  0  0  0
   48.1420   33.8810   40.1560 C   0  0  0  0  0  0  0  0  0  0  0  0
   46.8300   33.8600   39.9330 N   0  0  0  0  0  0  0  0  0  0  0  0
   44.2898   33.7758   42.5768 H   0  0  0  0  0  0  0  0  0  0  0  0
   42.4925   32.4036   42.3229 H   0  0  0  0  0  0  0  0  0  0  0  0
   41.9579   33.1916   40.7998 H   0  0  0  0  0  0  0  0  0  0  0  0
   43.4028   32.1244   40.7998 H   0  0  0  0  0  0  0  0  0  0  0  0
   42.1515   35.0484   42.8061 H   0  0  0  0  0  0  0  0  0  0  0  0
   43.4711   36.1209   42.2123 H   0  0  0  0  0  0  0  0  0  0  0  0
   40.5113   34.8054   41.8647 H   0  0  0  0  0  0  0  0  0  0  0  0
   40.3412   36.5314   41.2189 H   0  0  0  0  0  0  0  0  0  0  0  0
   38.9799   34.4537   40.2654 H   0  0  0  0  0  0  0  0  0  0  0  0
   39.5177   35.9131   39.3065 H   0  0  0  0  0  0  0  0  0  0  0  0
   40.8872   33.3211   39.4218 H   0  0  0  0  0  0  0  0  0  0  0  0
   42.1844   34.4464   37.6254 H   0  0  0  0  0  0  0  0  0  0  0  0
   41.3811   35.9455   38.1072 H   0  0  0  0  0  0  0  0  0  0  0  0
   43.0078   34.0475   39.8837 H   0  0  0  0  0  0  0  0  0  0  0  0
   43.4402   35.7466   39.3561 H   0  0  0  0  0  0  0  0  0  0  0  0
   45.7344   35.2047   42.8167 H   0  0  0  0  0  0  0  0  0  0  0  0
   48.2470   35.2368   43.2206 H   0  0  0  0  0  0  0  0  0  0  0  0
   48.8287   33.4984   39.3866 H   0  0  0  0  0  0  0  0  0  0  0  0
  1  3  1  0
  2  1  1  0
  4  5  1  0
  4  3  1  0
  6  5  1  0
  7  6  1  0
  8  7  1  0
  8  9  1  0
  9  4  1  0
 10 11  1  0
 10  1  1  0
 11 12  2  0
 12 13  1  0
 14 13  2  0
 15 14  1  0
 16 15  2  0
 16 11  1  0
  1 17  1  1
  2 18  1  0
  2 19  1  0
  2 20  1  0
  3 21  1  0
  3 22  1  0
  5 23  1  0
  5 24  1  0
  6 25  1  0
  6 26  1  0
  7 27  1  0
  8 28  1  0
  8 29  1  0
  9 30  1  0
  9 31  1  0
 12 32  1  0
 13 33  1  0
 15 34  1  0
M  ISO  8  17   8  18   8  19   8  20   8  21   8  22   8  23  13  24  13
M  ISO  8  25  13  26  13  27   5  28  13  29  13  30  13  31  13  32  14
M  ISO  2  33  14  34  14
M  END
>  <minimizedAffinity>  (1) 
-3.79685998

>  <minimizedRMSD>  (1) 
1.6453054

$$$$
