
     RDKit          3D

 43 45  0  0  1  0  0  0  0  0999 V2000
   43.6680   31.9730   40.0190 C   0  0  2  0  0  0  0  0  0  0  0  0
   42.9650   30.7060   39.6750 C   0  0  0  0  0  0  0  0  0  0  0  0
   42.7760   32.7620   40.9450 C   0  0  0  0  0  0  0  0  0  0  0  0
   43.4220   33.8670   41.5860 N   0  0  0  0  0  0  0  0  0  0  0  0
   44.5010   33.6600   42.3440 C   0  0  0  0  0  0  0  0  0  0  0  0
   45.2160   34.6350   43.0010 C   0  0  0  0  0  0  0  0  0  0  0  0
   44.7230   35.9260   42.8250 C   0  0  0  0  0  0  0  0  0  0  0  0
   45.3250   36.8880   43.4010 O   0  0  0  0  0  0  0  0  0  0  0  0
   43.6400   36.1660   42.0710 N   0  0  0  0  0  0  0  0  0  0  0  0
   42.9970   35.1560   41.4590 C   0  0  0  0  0  0  0  0  0  0  0  0
   41.9750   35.3660   40.7450 O   0  0  0  0  0  0  0  0  0  0  0  0
   46.4050   34.3020   43.8140 C   0  0  0  0  0  0  0  0  0  0  0  0
   43.9990   32.7810   38.8920 O   0  0  0  0  0  0  0  0  0  0  0  0
   45.2810   33.0530   38.5710 C   0  0  0  0  0  0  0  0  0  0  0  0
   45.6920   32.9510   37.2520 C   0  0  0  0  0  0  0  0  0  0  0  0
   47.0280   33.2450   36.9610 C   0  0  0  0  0  0  0  0  0  0  0  0
   47.8710   33.6200   37.9850 N   0  0  0  0  0  0  0  0  0  0  0  0
   47.4330   33.7040   39.2330 C   0  0  0  0  0  0  0  0  0  0  0  0
   46.1550   33.4200   39.5020 N   0  0  0  0  0  0  0  0  0  0  0  0
   48.2840   34.0960   40.3540 C   0  0  0  0  0  0  0  0  0  0  0  0
   48.4280   35.4090   40.7520 C   0  0  0  0  0  0  0  0  0  0  0  0
   49.2180   35.8250   41.8030 C   0  0  0  0  0  0  0  0  0  0  0  0
   49.9230   34.8480   42.5150 C   0  0  0  0  0  0  0  0  0  0  0  0
   49.8190   33.5190   42.1620 C   0  0  0  0  0  0  0  0  0  0  0  0
   49.0110   33.1650   41.1020 C   0  0  0  0  0  0  0  0  0  0  0  0
   44.6243   31.6980   40.4880 H   0  0  0  0  0  0  0  0  0  0  0  0
   42.6757   30.1846   40.5993 H   0  0  0  0  0  0  0  0  0  0  0  0
   42.0647   30.9345   39.0858 H   0  0  0  0  0  0  0  0  0  0  0  0
   43.6354   30.0630   39.0858 H   0  0  0  0  0  0  0  0  0  0  0  0
   41.9294   33.1502   40.3598 H   0  0  0  0  0  0  0  0  0  0  0  0
   42.4637   32.0733   41.7439 H   0  0  0  0  0  0  0  0  0  0  0  0
   44.8481   32.6219   42.4527 H   0  0  0  0  0  0  0  0  0  0  0  0
   43.2983   37.1313   41.9599 H   0  0  0  0  0  0  0  0  0  0  0  0
   46.1507   34.3732   44.8818 H   0  0  0  0  0  0  0  0  0  0  0  0
   46.7323   33.2776   43.5825 H   0  0  0  0  0  0  0  0  0  0  0  0
   47.2167   35.0074   43.5825 H   0  0  0  0  0  0  0  0  0  0  0  0
   44.9910   32.6489   36.4600 H   0  0  0  0  0  0  0  0  0  0  0  0
   47.4011   33.1778   35.9284 H   0  0  0  0  0  0  0  0  0  0  0  0
   47.8744   36.1773   40.1923 H   0  0  0  0  0  0  0  0  0  0  0  0
   49.2915   36.8889   42.0726 H   0  0  0  0  0  0  0  0  0  0  0  0
   50.5630   35.1415   43.3601 H   0  0  0  0  0  0  0  0  0  0  0  0
   50.3741   32.7502   42.7195 H   0  0  0  0  0  0  0  0  0  0  0  0
   48.9350   32.1012   40.8326 H   0  0  0  0  0  0  0  0  0  0  0  0
  1  3  1  0
  2  1  1  0
  3  4  1  0
  4  5  1  0
  5  6  2  0
  6 12  1  0
  7  6  1  0
  7  8  2  0
  9  7  1  0
 10  4  1  0
 10  9  1  0
 11 10  2  0
 13  1  1  0
 14 13  1  0
 14 19  1  0
 15 14  2  0
 16 15  1  0
 16 17  2  0
 17 18  1  0
 18 19  2  0
 18 20  1  0
 20 21  2  0
 20 25  1  0
 21 22  1  0
 22 23  2  0
 24 23  1  0
 25 24  2  0
  1 26  1  1
  2 27  1  0
  2 28  1  0
  2 29  1  0
  3 30  1  0
  3 31  1  0
  5 32  1  0
  9 33  1  0
 12 34  1  0
 12 35  1  0
 12 36  1  0
 15 37  1  0
 16 38  1  0
 21 39  1  0
 22 40  1  0
 23 41  1  0
 24 42  1  0
 25 43  1  0
M  ISO  8  26   8  27   8  28   8  29   8  30   8  31   8  32  14  33   9
M  ISO  8  34   8  35   8  36   8  37  14  38  14  39  14  40  14  41  14
M  ISO  2  42  14  43  14
M  END
>  <minimizedAffinity>  (1) 
-5.98137331

>  <minimizedRMSD>  (1) 
3.63301396

$$$$
