
     RDKit          3D

 40 41  0  0  1  0  0  0  0  0999 V2000
   44.6700   31.9190   40.7440 C   0  0  2  0  0  0  0  0  0  0  0  0
   43.4780   31.0430   40.5700 C   0  0  0  0  0  0  0  0  0  0  0  0
   44.2060   33.3540   40.7060 C   0  0  0  0  0  0  0  0  0  0  0  0
   44.2870   34.0310   41.9630 N   0  0  0  0  0  0  0  0  0  0  0  0
   45.0470   33.5430   42.9410 C   0  0  0  0  0  0  0  0  0  0  0  0
   45.2140   34.1040   44.1840 C   0  0  0  0  0  0  0  0  0  0  0  0
   44.4990   35.2830   44.3850 C   0  0  0  0  0  0  0  0  0  0  0  0
   44.5970   35.8640   45.5110 O   0  0  0  0  0  0  0  0  0  0  0  0
   43.7210   35.8010   43.4190 N   0  0  0  0  0  0  0  0  0  0  0  0
   43.6150   35.1880   42.2270 C   0  0  0  0  0  0  0  0  0  0  0  0
   42.8830   35.6680   41.3110 O   0  0  0  0  0  0  0  0  0  0  0  0
   46.0880   33.4780   45.1990 C   0  0  0  0  0  0  0  0  0  0  0  0
   45.6790   31.7300   39.7560 O   0  0  0  0  0  0  0  0  0  0  0  0
   46.9900   31.7090   40.0810 C   0  0  0  0  0  0  0  0  0  0  0  0
   47.6890   30.5150   40.0380 C   0  0  0  0  0  0  0  0  0  0  0  0
   49.0430   30.5400   40.3770 C   0  0  0  0  0  0  0  0  0  0  0  0
   49.6210   31.7410   40.7370 N   0  0  0  0  0  0  0  0  0  0  0  0
   48.9140   32.8570   40.7640 C   0  0  0  0  0  0  0  0  0  0  0  0
   47.6240   32.8220   40.4390 N   0  0  0  0  0  0  0  0  0  0  0  0
   49.4360   34.1370   41.1270 N   0  0  0  0  0  0  0  0  0  0  0  0
   50.2670   34.2280   42.2710 C   0  0  0  0  0  0  0  0  0  0  0  0
   51.1300   33.3200   42.5450 N   0  0  0  0  0  0  0  0  0  0  0  0
   50.1750   35.3470   43.1690 N   0  0  0  0  0  0  0  0  0  0  0  0
   51.3090   32.4650   41.9920 H   0  0  0  0  0  0  0  0  0  0  0  0
   45.1306   31.6534   41.7070 H   0  0  0  0  0  0  0  0  0  0  0  0
   43.0869   30.7556   41.5572 H   0  0  0  0  0  0  0  0  0  0  0  0
   42.7015   31.5870   40.0122 H   0  0  0  0  0  0  0  0  0  0  0  0
   43.7652   30.1395   40.0122 H   0  0  0  0  0  0  0  0  0  0  0  0
   44.8283   33.8984   39.9805 H   0  0  0  0  0  0  0  0  0  0  0  0
   43.1424   33.3344   40.4262 H   0  0  0  0  0  0  0  0  0  0  0  0
   45.5891   32.6081   42.7358 H   0  0  0  0  0  0  0  0  0  0  0  0
   43.2024   36.6737   43.5931 H   0  0  0  0  0  0  0  0  0  0  0  0
   45.7259   33.7373   46.2048 H   0  0  0  0  0  0  0  0  0  0  0  0
   46.0712   32.3853   45.0737 H   0  0  0  0  0  0  0  0  0  0  0  0
   47.1171   33.8456   45.0737 H   0  0  0  0  0  0  0  0  0  0  0  0
   47.1938   29.5771   39.7462 H   0  0  0  0  0  0  0  0  0  0  0  0
   49.6404   29.6166   40.3576 H   0  0  0  0  0  0  0  0  0  0  0  0
   49.2132   34.9741   40.5698 H   0  0  0  0  0  0  0  0  0  0  0  0
   50.7876   35.3957   43.9956 H   0  0  0  0  0  0  0  0  0  0  0  0
   49.4965   36.1000   42.9857 H   0  0  0  0  0  0  0  0  0  0  0  0
  2  1  1  0
  3  1  1  0
  3  4  1  0
  4 10  1  0
  4  5  1  0
  5  6  2  0
  6  7  1  0
  6 12  1  0
  7  8  2  0
  9  7  1  0
 10  9  1  0
 11 10  2  0
 13 14  1  0
 13  1  1  0
 14 19  1  0
 15 14  2  0
 15 16  1  0
 16 17  2  0
 17 18  1  0
 18 20  1  0
 19 18  2  0
 20 21  1  0
 21 22  2  0
 21 23  1  0
 24 22  1  0
  1 25  1  1
  2 26  1  0
  2 27  1  0
  2 28  1  0
  3 29  1  0
  3 30  1  0
  5 31  1  0
  9 32  1  0
 12 33  1  0
 12 34  1  0
 12 35  1  0
 15 36  1  0
 16 37  1  0
 20 38  1  0
 23 39  1  0
 23 40  1  0
M  ISO  8  25   8  26   8  27   8  28   8  29   8  30   8  31  14  32   9
M  ISO  5  33   8  34   8  35   8  36  14  37  14
M  END
>  <minimizedAffinity>  (1) 
-5.95688057

>  <minimizedRMSD>  (1) 
2.48015594

$$$$
