
     RDKit          3D

 38 40  0  0  1  0  0  0  0  0999 V2000
   44.4070   32.1350   40.0770 C   0  0  2  0  0  0  0  0  0  0  0  0
   43.8540   30.7570   40.1830 C   0  0  0  0  0  0  0  0  0  0  0  0
   43.3320   33.1050   40.4990 C   0  0  0  0  0  0  0  0  0  0  0  0
   43.6780   33.9150   41.6250 N   0  0  0  0  0  0  0  0  0  0  0  0
   44.7330   33.6010   42.3790 C   0  0  0  0  0  0  0  0  0  0  0  0
   45.1770   34.2990   43.4760 C   0  0  0  0  0  0  0  0  0  0  0  0
   44.4180   35.4270   43.7830 C   0  0  0  0  0  0  0  0  0  0  0  0
   44.7540   36.1340   44.7830 O   0  0  0  0  0  0  0  0  0  0  0  0
   43.3400   35.7780   43.0410 N   0  0  0  0  0  0  0  0  0  0  0  0
   42.9850   35.0270   41.9820 C   0  0  0  0  0  0  0  0  0  0  0  0
   41.9770   35.3450   41.2800 O   0  0  0  0  0  0  0  0  0  0  0  0
   46.3610   33.8650   44.2450 C   0  0  0  0  0  0  0  0  0  0  0  0
   44.8630   32.4830   38.7720 O   0  0  0  0  0  0  0  0  0  0  0  0
   46.0410   33.1140   38.5770 C   0  0  0  0  0  0  0  0  0  0  0  0
   46.4990   33.3190   37.2850 C   0  0  0  0  0  0  0  0  0  0  0  0
   47.7210   33.9800   37.1250 C   0  0  0  0  0  0  0  0  0  0  0  0
   48.4130   34.3950   38.2430 N   0  0  0  0  0  0  0  0  0  0  0  0
   47.9320   34.1750   39.4600 C   0  0  0  0  0  0  0  0  0  0  0  0
   46.7660   33.5430   39.6070 N   0  0  0  0  0  0  0  0  0  0  0  0
   48.6340   34.5990   40.6670 C   0  0  0  0  0  0  0  0  0  0  0  0
   48.9420   35.8440   41.0710 N   0  0  0  0  0  0  0  0  0  0  0  0
   49.5680   35.7870   42.2010 O   0  0  0  0  0  0  0  0  0  0  0  0
   49.7130   34.5600   42.6050 C   0  0  0  0  0  0  0  0  0  0  0  0
   49.1300   33.7980   41.6520 N   0  0  0  0  0  0  0  0  0  0  0  0
   45.2912   32.1794   40.7299 H   0  0  0  0  0  0  0  0  0  0  0  0
   43.7453   30.4861   41.2436 H   0  0  0  0  0  0  0  0  0  0  0  0
   42.8705   30.7178   39.6919 H   0  0  0  0  0  0  0  0  0  0  0  0
   44.5376   30.0488   39.6919 H   0  0  0  0  0  0  0  0  0  0  0  0
   43.1158   33.7701   39.6499 H   0  0  0  0  0  0  0  0  0  0  0  0
   42.4641   32.5006   40.8012 H   0  0  0  0  0  0  0  0  0  0  0  0
   45.2990   32.7011   42.0966 H   0  0  0  0  0  0  0  0  0  0  0  0
   42.7943   36.6164   43.2864 H   0  0  0  0  0  0  0  0  0  0  0  0
   46.1480   33.9431   45.3213 H   0  0  0  0  0  0  0  0  0  0  0  0
   46.5993   32.8211   43.9932 H   0  0  0  0  0  0  0  0  0  0  0  0
   47.2175   34.5076   43.9932 H   0  0  0  0  0  0  0  0  0  0  0  0
   45.9210   32.9736   36.4152 H   0  0  0  0  0  0  0  0  0  0  0  0
   48.1253   34.1666   36.1192 H   0  0  0  0  0  0  0  0  0  0  0  0
   50.2053   34.2149   43.5262 H   0  0  0  0  0  0  0  0  0  0  0  0
  1  2  1  0
  1  3  1  0
  3  4  1  0
  4 10  1  0
  4  5  1  0
  5  6  2  0
  6  7  1  0
  6 12  1  0
  7  8  2  0
  9  7  1  0
 10  9  1  0
 11 10  2  0
 13  1  1  0
 14 13  1  0
 14 19  1  0
 15 14  2  0
 16 15  1  0
 16 17  2  0
 17 18  1  0
 18 19  2  0
 18 20  1  0
 20 21  2  0
 20 24  1  0
 21 22  1  0
 22 23  1  0
 24 23  2  0
  1 25  1  1
  2 26  1  0
  2 27  1  0
  2 28  1  0
  3 29  1  0
  3 30  1  0
  5 31  1  0
  9 32  1  0
 12 33  1  0
 12 34  1  0
 12 35  1  0
 15 36  1  0
 16 37  1  0
 23 38  1  0
M  ISO  8  25   8  26   8  27   8  28   8  29   8  30   8  31  14  32   9
M  ISO  6  33   8  34   8  35   8  36  14  37  14  38  14
M  END
>  <minimizedAffinity>  (1) 
-5.49669313

>  <minimizedRMSD>  (1) 
2.99222302

$$$$
