
     RDKit          3D

 34 35  0  0  1  0  0  0  0  0999 V2000
   45.9360   32.5700   40.7880 C   0  0  2  0  0  0  0  0  0  0  0  0
   45.3260   31.4450   40.0300 C   0  0  0  0  0  0  0  0  0  0  0  0
   44.9130   33.6730   40.9060 C   0  0  0  0  0  0  0  0  0  0  0  0
   44.7700   34.2080   42.2270 N   0  0  0  0  0  0  0  0  0  0  0  0
   45.4110   33.6420   43.2530 C   0  0  0  0  0  0  0  0  0  0  0  0
   45.3730   34.0690   44.5590 C   0  0  0  0  0  0  0  0  0  0  0  0
   44.5760   35.1940   44.7680 C   0  0  0  0  0  0  0  0  0  0  0  0
   44.4820   35.6560   45.9480 O   0  0  0  0  0  0  0  0  0  0  0  0
   43.9170   35.7840   43.7590 N   0  0  0  0  0  0  0  0  0  0  0  0
   44.0130   35.2990   42.5070 C   0  0  0  0  0  0  0  0  0  0  0  0
   43.3940   35.8490   41.5470 O   0  0  0  0  0  0  0  0  0  0  0  0
   46.1260   33.3720   45.6230 C   0  0  0  0  0  0  0  0  0  0  0  0
   47.1180   33.1020   40.1950 O   0  0  0  0  0  0  0  0  0  0  0  0
   48.1360   33.5770   40.9410 C   0  0  0  0  0  0  0  0  0  0  0  0
   48.9810   32.6900   41.5900 C   0  0  0  0  0  0  0  0  0  0  0  0
   50.0250   33.2260   42.3510 C   0  0  0  0  0  0  0  0  0  0  0  0
   50.1720   34.5960   42.4250 N   0  0  0  0  0  0  0  0  0  0  0  0
   49.3360   35.4010   41.7850 C   0  0  0  0  0  0  0  0  0  0  0  0
   48.3430   34.8850   41.0620 N   0  0  0  0  0  0  0  0  0  0  0  0
   49.4680   36.7820   41.8470 O   0  0  0  0  0  0  0  0  0  0  0  0
   46.2351   32.1681   41.7673 H   0  0  0  0  0  0  0  0  0  0  0  0
   44.9237   30.7030   40.7355 H   0  0  0  0  0  0  0  0  0  0  0  0
   44.5120   31.8281   39.3970 H   0  0  0  0  0  0  0  0  0  0  0  0
   46.0911   30.9719   39.3970 H   0  0  0  0  0  0  0  0  0  0  0  0
   45.2101   34.4913   40.2336 H   0  0  0  0  0  0  0  0  0  0  0  0
   43.9418   33.2305   40.6395 H   0  0  0  0  0  0  0  0  0  0  0  0
   46.0238   32.7553   43.0333 H   0  0  0  0  0  0  0  0  0  0  0  0
   43.3342   36.6130   43.9436 H   0  0  0  0  0  0  0  0  0  0  0  0
   45.7649   33.7062   46.6068 H   0  0  0  0  0  0  0  0  0  0  0  0
   45.9766   32.2864   45.5270 H   0  0  0  0  0  0  0  0  0  0  0  0
   47.1968   33.6047   45.5270 H   0  0  0  0  0  0  0  0  0  0  0  0
   48.8355   31.6027   41.5093 H   0  0  0  0  0  0  0  0  0  0  0  0
   50.7214   32.5625   42.8847 H   0  0  0  0  0  0  0  0  0  0  0  0
   48.8308   37.3625   41.3601 H   0  0  0  0  0  0  0  0  0  0  0  0
  1  3  1  0
  2  1  1  0
  3  4  1  0
  4 10  1  0
  4  5  1  0
  5  6  2  0
  6  7  1  0
  6 12  1  0
  7  8  2  0
  9  7  1  0
 10  9  1  0
 11 10  2  0
 13  1  1  0
 13 14  1  0
 14 19  1  0
 14 15  2  0
 15 16  1  0
 16 17  2  0
 18 20  1  0
 18 17  1  0
 19 18  2  0
  1 21  1  1
  2 22  1  0
  2 23  1  0
  2 24  1  0
  3 25  1  0
  3 26  1  0
  5 27  1  0
  9 28  1  0
 12 29  1  0
 12 30  1  0
 12 31  1  0
 15 32  1  0
 16 33  1  0
 20 34  1  0
M  ISO  8  21   8  22   8  23   8  24   8  25   8  26   8  27  14  28   9
M  ISO  6  29   8  30   8  31   8  32  14  33  14  34   3
M  END
>  <minimizedAffinity>  (1) 
-5.11591291

>  <minimizedRMSD>  (1) 
0.407340825

$$$$
