
     RDKit          3D

 42 43  0  0  1  0  0  0  0  0999 V2000
   44.3910   32.1630   40.0290 C   0  0  2  0  0  0  0  0  0  0  0  0
   43.8120   31.2380   39.0170 C   0  0  0  0  0  0  0  0  0  0  0  0
   43.2530   32.8910   40.7030 C   0  0  0  0  0  0  0  0  0  0  0  0
   43.6660   33.8710   41.6590 N   0  0  0  0  0  0  0  0  0  0  0  0
   44.3910   33.5100   42.7200 C   0  0  0  0  0  0  0  0  0  0  0  0
   44.8580   34.3570   43.6970 C   0  0  0  0  0  0  0  0  0  0  0  0
   44.5130   35.6940   43.5170 C   0  0  0  0  0  0  0  0  0  0  0  0
   44.9060   36.5390   44.3790 O   0  0  0  0  0  0  0  0  0  0  0  0
   43.7790   36.0900   42.4560 N   0  0  0  0  0  0  0  0  0  0  0  0
   43.3660   35.1900   41.5460 C   0  0  0  0  0  0  0  0  0  0  0  0
   42.6760   35.5590   40.5470 O   0  0  0  0  0  0  0  0  0  0  0  0
   45.6630   33.8470   44.8320 C   0  0  0  0  0  0  0  0  0  0  0  0
   45.3020   33.1210   39.4940 O   0  0  0  0  0  0  0  0  0  0  0  0
   46.6200   33.0810   39.7840 C   0  0  0  0  0  0  0  0  0  0  0  0
   47.4470   32.2200   39.0860 C   0  0  0  0  0  0  0  0  0  0  0  0
   48.8070   32.2120   39.4140 C   0  0  0  0  0  0  0  0  0  0  0  0
   49.2630   33.0530   40.4090 N   0  0  0  0  0  0  0  0  0  0  0  0
   48.4330   33.8600   41.0510 C   0  0  0  0  0  0  0  0  0  0  0  0
   47.1350   33.8620   40.7310 N   0  0  0  0  0  0  0  0  0  0  0  0
   49.1000   34.6920   42.0870 C   0  0  0  0  0  0  0  0  0  0  0  0
   49.1430   36.1030   41.5430 C   0  0  0  0  0  0  0  0  0  0  0  0
   50.4280   34.1650   42.5210 C   0  0  0  0  0  0  0  0  0  0  0  0
   44.9728   31.5484   40.7316 H   0  0  0  0  0  0  0  0  0  0  0  0
   43.2952   30.4124   39.5281 H   0  0  0  0  0  0  0  0  0  0  0  0
   43.0951   31.7855   38.3875 H   0  0  0  0  0  0  0  0  0  0  0  0
   44.6177   30.8325   38.3875 H   0  0  0  0  0  0  0  0  0  0  0  0
   42.6590   33.3957   39.9268 H   0  0  0  0  0  0  0  0  0  0  0  0
   42.6780   32.1338   41.2562 H   0  0  0  0  0  0  0  0  0  0  0  0
   44.6360   32.4424   42.8214 H   0  0  0  0  0  0  0  0  0  0  0  0
   43.5345   37.0841   42.3429 H   0  0  0  0  0  0  0  0  0  0  0  0
   45.1912   34.1459   45.7797 H   0  0  0  0  0  0  0  0  0  0  0  0
   45.7170   32.7496   44.7794 H   0  0  0  0  0  0  0  0  0  0  0  0
   46.6783   34.2670   44.7794 H   0  0  0  0  0  0  0  0  0  0  0  0
   47.0486   31.5630   38.2988 H   0  0  0  0  0  0  0  0  0  0  0  0
   49.5037   31.5443   38.8859 H   0  0  0  0  0  0  0  0  0  0  0  0
   48.5255   34.6673   43.0247 H   0  0  0  0  0  0  0  0  0  0  0  0
   49.1648   36.8177   42.3789 H   0  0  0  0  0  0  0  0  0  0  0  0
   50.0455   36.2313   40.9273 H   0  0  0  0  0  0  0  0  0  0  0  0
   48.2500   36.2860   40.9273 H   0  0  0  0  0  0  0  0  0  0  0  0
   50.4739   34.1468   43.6199 H   0  0  0  0  0  0  0  0  0  0  0  0
   50.5629   33.1452   42.1314 H   0  0  0  0  0  0  0  0  0  0  0  0
   51.2255   34.8148   42.1314 H   0  0  0  0  0  0  0  0  0  0  0  0
  1  3  1  0
  2  1  1  0
  3  4  1  0
  4  5  1  0
  5  6  2  0
  6 12  1  0
  7  6  1  0
  7  8  2  0
  9  7  1  0
 10  4  1  0
 10  9  1  0
 11 10  2  0
 13 14  1  0
 13  1  1  0
 14 19  2  0
 15 16  2  0
 15 14  1  0
 16 17  1  0
 17 18  2  0
 18 20  1  0
 19 18  1  0
 20 22  1  0
 21 20  1  0
  1 23  1  1
  2 24  1  0
  2 25  1  0
  2 26  1  0
  3 27  1  0
  3 28  1  0
  5 29  1  0
  9 30  1  0
 12 31  1  0
 12 32  1  0
 12 33  1  0
 15 34  1  0
 16 35  1  0
 20 36  1  0
 21 37  1  0
 21 38  1  0
 21 39  1  0
 22 40  1  0
 22 41  1  0
 22 42  1  0
M  ISO  8  23   8  24   8  25   8  26   8  27   8  28   8  29  14  30   9
M  ISO  8  31   8  32   8  33   8  34  14  35  14  36   8  37   8  38   8
M  ISO  4  39   8  40   8  41   8  42   8
M  END
>  <minimizedAffinity>  (1) 
-5.02262402

>  <minimizedRMSD>  (1) 
2.12876749

$$$$
