
     RDKit          3D

 42 44  0  0  1  0  0  0  0  0999 V2000
   43.1240   32.2100   39.5460 C   0  0  2  0  0  0  0  0  0  0  0  0
   42.2710   31.0090   39.3790 C   0  0  0  0  0  0  0  0  0  0  0  0
   42.2960   33.2430   40.2790 C   0  0  0  0  0  0  0  0  0  0  0  0
   42.9720   33.9330   41.3210 N   0  0  0  0  0  0  0  0  0  0  0  0
   44.0470   33.3930   41.8760 C   0  0  0  0  0  0  0  0  0  0  0  0
   44.8020   33.9650   42.8770 C   0  0  0  0  0  0  0  0  0  0  0  0
   44.3540   35.2200   43.3080 C   0  0  0  0  0  0  0  0  0  0  0  0
   44.9930   35.8180   44.2290 O   0  0  0  0  0  0  0  0  0  0  0  0
   43.2680   35.7930   42.7660 N   0  0  0  0  0  0  0  0  0  0  0  0
   42.5840   35.1660   41.7900 C   0  0  0  0  0  0  0  0  0  0  0  0
   41.5600   35.6980   41.2740 O   0  0  0  0  0  0  0  0  0  0  0  0
   45.9940   33.2920   43.4300 C   0  0  0  0  0  0  0  0  0  0  0  0
   43.6050   32.7790   38.3160 O   0  0  0  0  0  0  0  0  0  0  0  0
   44.9190   32.9380   38.0930 C   0  0  0  0  0  0  0  0  0  0  0  0
   45.4260   32.8150   36.8230 C   0  0  0  0  0  0  0  0  0  0  0  0
   46.7930   32.9870   36.6200 C   0  0  0  0  0  0  0  0  0  0  0  0
   47.5810   33.2720   37.7060 N   0  0  0  0  0  0  0  0  0  0  0  0
   47.0650   33.3840   38.9150 C   0  0  0  0  0  0  0  0  0  0  0  0
   45.7520   33.2180   39.0960 N   0  0  0  0  0  0  0  0  0  0  0  0
   47.9920   33.6970   40.0720 C   0  0  0  0  0  0  0  0  0  0  0  0
   48.7980   32.7000   40.6760 C   0  0  0  0  0  0  0  0  0  0  0  0
   49.5900   33.0930   41.7030 C   0  0  0  0  0  0  0  0  0  0  0  0
   49.6380   34.3810   42.1650 C   0  0  0  0  0  0  0  0  0  0  0  0
   48.3720   35.1970   40.9790 S   0  0  0  0  0  0  0  0  0  0  0  0
   50.2570   35.1100   43.1000 N   0  0  0  0  0  0  0  0  0  0  0  0
   44.0244   31.9035   40.0985 H   0  0  0  0  0  0  0  0  0  0  0  0
   41.9924   30.6167   40.3682 H   0  0  0  0  0  0  0  0  0  0  0  0
   41.3616   31.2797   38.8225 H   0  0  0  0  0  0  0  0  0  0  0  0
   42.8261   30.2395   38.8225 H   0  0  0  0  0  0  0  0  0  0  0  0
   41.9530   33.9871   39.5451 H   0  0  0  0  0  0  0  0  0  0  0  0
   41.4762   32.6903   40.7612 H   0  0  0  0  0  0  0  0  0  0  0  0
   44.3632   32.4061   41.5072 H   0  0  0  0  0  0  0  0  0  0  0  0
   42.9562   36.7168   43.0982 H   0  0  0  0  0  0  0  0  0  0  0  0
   45.9518   33.3158   44.5289 H   0  0  0  0  0  0  0  0  0  0  0  0
   46.0176   32.2473   43.0865 H   0  0  0  0  0  0  0  0  0  0  0  0
   46.9008   33.8115   43.0865 H   0  0  0  0  0  0  0  0  0  0  0  0
   44.7615   32.5838   35.9774 H   0  0  0  0  0  0  0  0  0  0  0  0
   47.2297   32.8966   35.6144 H   0  0  0  0  0  0  0  0  0  0  0  0
   48.7815   31.6567   40.3277 H   0  0  0  0  0  0  0  0  0  0  0  0
   50.2263   32.3393   42.1899 H   0  0  0  0  0  0  0  0  0  0  0  0
   50.0537   36.1160   43.1869 H   0  0  0  0  0  0  0  0  0  0  0  0
   50.9369   34.6654   43.7332 H   0  0  0  0  0  0  0  0  0  0  0  0
  1  3  1  0
  2  1  1  0
  3  4  1  0
  4 10  1  0
  4  5  1  0
  5  6  2  0
  6  7  1  0
  6 12  1  0
  7  8  2  0
  9  7  1  0
 10  9  1  0
 11 10  2  0
 13  1  1  0
 14 13  1  0
 14 19  1  0
 15 14  2  0
 16 15  1  0
 16 17  2  0
 17 18  1  0
 18 19  2  0
 18 20  1  0
 20 21  2  0
 20 24  1  0
 21 22  1  0
 22 23  2  0
 23 25  1  0
 24 23  1  0
  1 26  1  1
  2 27  1  0
  2 28  1  0
  2 29  1  0
  3 30  1  0
  3 31  1  0
  5 32  1  0
  9 33  1  0
 12 34  1  0
 12 35  1  0
 12 36  1  0
 15 37  1  0
 16 38  1  0
 21 39  1  0
 22 40  1  0
 25 41  1  0
 25 42  1  0
M  ISO  8  26   8  27   8  28   8  29   8  30   8  31   8  32  14  33   9
M  ISO  7  34   8  35   8  36   8  37  14  38  14  39  14  40  14
M  END
>  <minimizedAffinity>  (1) 
-5.66555405

>  <minimizedRMSD>  (1) 
0.706206918

$$$$
