
     RDKit          3D

 46 48  0  0  1  0  0  0  0  0999 V2000
   41.9830   32.0750   39.5440 C   0  0  2  0  0  0  0  0  0  0  0  0
   40.8730   31.0940   39.4800 C   0  0  0  0  0  0  0  0  0  0  0  0
   41.4400   33.3150   40.2190 C   0  0  0  0  0  0  0  0  0  0  0  0
   42.3640   33.9900   41.0740 N   0  0  0  0  0  0  0  0  0  0  0  0
   43.3670   33.3170   41.6180 C   0  0  0  0  0  0  0  0  0  0  0  0
   44.3310   33.8510   42.4420 C   0  0  0  0  0  0  0  0  0  0  0  0
   44.1950   35.2230   42.6940 C   0  0  0  0  0  0  0  0  0  0  0  0
   45.0430   35.7980   43.4440 O   0  0  0  0  0  0  0  0  0  0  0  0
   43.1860   35.9350   42.1560 N   0  0  0  0  0  0  0  0  0  0  0  0
   42.2830   35.3320   41.3590 C   0  0  0  0  0  0  0  0  0  0  0  0
   41.3320   35.9900   40.8490 O   0  0  0  0  0  0  0  0  0  0  0  0
   45.4140   33.0260   42.9970 C   0  0  0  0  0  0  0  0  0  0  0  0
   42.5390   32.4330   38.2700 O   0  0  0  0  0  0  0  0  0  0  0  0
   43.8350   32.2210   37.9940 C   0  0  0  0  0  0  0  0  0  0  0  0
   44.2030   31.6430   36.8050 C   0  0  0  0  0  0  0  0  0  0  0  0
   45.5550   31.4350   36.5410 C   0  0  0  0  0  0  0  0  0  0  0  0
   46.4710   31.8210   37.4900 N   0  0  0  0  0  0  0  0  0  0  0  0
   46.0870   32.3770   38.6300 C   0  0  0  0  0  0  0  0  0  0  0  0
   44.7850   32.5640   38.8570 N   0  0  0  0  0  0  0  0  0  0  0  0
   47.1470   32.7790   39.6350 C   0  0  0  0  0  0  0  0  0  0  0  0
   47.9590   31.8170   40.2800 C   0  0  0  0  0  0  0  0  0  0  0  0
   48.8760   32.2770   41.1590 C   0  0  0  0  0  0  0  0  0  0  0  0
   49.0370   33.5990   41.4340 C   0  0  0  0  0  0  0  0  0  0  0  0
   47.7090   34.3450   40.2980 S   0  0  0  0  0  0  0  0  0  0  0  0
   49.8180   34.5340   42.2370 C   0  0  0  0  0  0  0  0  0  0  0  0
   49.3940   35.9490   41.9500 C   0  0  0  0  0  0  0  0  0  0  0  0
   42.8092   31.6075   40.0997 H   0  0  0  0  0  0  0  0  0  0  0  0
   40.5650   30.8218   40.5003 H   0  0  0  0  0  0  0  0  0  0  0  0
   40.0205   31.5392   38.9461 H   0  0  0  0  0  0  0  0  0  0  0  0
   41.2101   30.1932   38.9461 H   0  0  0  0  0  0  0  0  0  0  0  0
   41.1230   34.0190   39.4355 H   0  0  0  0  0  0  0  0  0  0  0  0
   40.6144   32.9781   40.8632 H   0  0  0  0  0  0  0  0  0  0  0  0
   43.4348   32.2425   41.3924 H   0  0  0  0  0  0  0  0  0  0  0  0
   43.1048   36.9424   42.3545 H   0  0  0  0  0  0  0  0  0  0  0  0
   45.3727   33.0575   44.0958 H   0  0  0  0  0  0  0  0  0  0  0  0
   45.2956   31.9872   42.6552 H   0  0  0  0  0  0  0  0  0  0  0  0
   46.3841   33.4161   42.6552 H   0  0  0  0  0  0  0  0  0  0  0  0
   43.4401   31.3476   36.0697 H   0  0  0  0  0  0  0  0  0  0  0  0
   45.8810   30.9736   35.5971 H   0  0  0  0  0  0  0  0  0  0  0  0
   47.8487   30.7419   40.0750 H   0  0  0  0  0  0  0  0  0  0  0  0
   49.5207   31.5503   41.6749 H   0  0  0  0  0  0  0  0  0  0  0  0
   49.6594   34.3168   43.3036 H   0  0  0  0  0  0  0  0  0  0  0  0
   50.8825   34.4209   41.9838 H   0  0  0  0  0  0  0  0  0  0  0  0
   49.2339   36.4833   42.8981 H   0  0  0  0  0  0  0  0  0  0  0  0
   50.1794   36.4569   41.3710 H   0  0  0  0  0  0  0  0  0  0  0  0
   48.4587   35.9413   41.3710 H   0  0  0  0  0  0  0  0  0  0  0  0
  1  3  1  0
  2  1  1  0
  3  4  1  0
  4 10  1  0
  4  5  1  0
  5  6  2  0
  6  7  1  0
  6 12  1  0
  7  8  2  0
  9  7  1  0
 10  9  1  0
 11 10  2  0
 13  1  1  0
 14 13  1  0
 14 19  1  0
 15 14  2  0
 16 15  1  0
 16 17  2  0
 17 18  1  0
 18 19  2  0
 18 20  1  0
 20 21  2  0
 20 24  1  0
 21 22  1  0
 22 23  2  0
 23 25  1  0
 24 23  1  0
 26 25  1  0
  1 27  1  1
  2 28  1  0
  2 29  1  0
  2 30  1  0
  3 31  1  0
  3 32  1  0
  5 33  1  0
  9 34  1  0
 12 35  1  0
 12 36  1  0
 12 37  1  0
 15 38  1  0
 16 39  1  0
 21 40  1  0
 22 41  1  0
 25 42  1  0
 25 43  1  0
 26 44  1  0
 26 45  1  0
 26 46  1  0
M  ISO  8  27   8  28   8  29   8  30   8  31   8  32   8  33  14  34   9
M  ISO  8  35   8  36   8  37   8  38  14  39  14  40  14  41  14  42   8
M  ISO  4  43   8  44   8  45   8  46   8
M  END
>  <minimizedAffinity>  (1) 
-4.85464096

>  <minimizedRMSD>  (1) 
1.81622076

$$$$
