
     RDKit          3D

 29 32  0  0  0  0  0  0  0  0999 V2000
   46.9140   34.8060   42.0580 C   0  0  0  0  0  0  0  0  0  0  0  0
   48.1290   35.4150   41.8980 C   0  0  0  0  0  0  0  0  0  0  0  0
   48.8610   35.4190   40.7380 C   0  0  0  0  0  0  0  0  0  0  0  0
   48.3400   34.7710   39.6750 N   0  0  0  0  0  0  0  0  0  0  0  0
   47.1520   34.1680   39.8070 C   0  0  0  0  0  0  0  0  0  0  0  0
   46.4640   34.1830   40.9540 N   0  0  0  0  0  0  0  0  0  0  0  0
   46.4510   33.4360   38.7810 N   0  0  0  0  0  0  0  0  0  0  0  0
   45.1700   32.9700   38.7680 C   0  0  0  0  0  0  0  0  0  0  0  0
   44.9670   32.3460   37.5940 N   0  0  0  0  0  0  0  0  0  0  0  0
   46.1030   32.4030   36.8460 C   0  0  0  0  0  0  0  0  0  0  0  0
   46.4610   31.9520   35.6100 C   0  0  0  0  0  0  0  0  0  0  0  0
   47.7100   32.1660   35.1090 N   0  0  0  0  0  0  0  0  0  0  0  0
   48.6000   32.8360   35.8560 C   0  0  0  0  0  0  0  0  0  0  0  0
   48.2760   33.2900   37.0760 N   0  0  0  0  0  0  0  0  0  0  0  0
   47.0380   33.1010   37.6170 C   0  0  0  0  0  0  0  0  0  0  0  0
   44.5390   35.6630   44.8700 C   0  0  0  0  0  0  0  0  0  0  0  0
   45.1770   35.7710   43.6150 C   0  0  0  0  0  0  0  0  0  0  0  0
   46.1650   34.8270   43.3120 C   0  0  0  0  0  0  0  0  0  0  0  0
   46.4550   33.8730   44.2180 N   0  0  0  0  0  0  0  0  0  0  0  0
   45.8290   33.7950   45.4090 C   0  0  0  0  0  0  0  0  0  0  0  0
   44.8710   34.6850   45.7410 N   0  0  0  0  0  0  0  0  0  0  0  0
   48.5511   35.9419   42.7665 H   0  0  0  0  0  0  0  0  0  0  0  0
   49.8333   35.9297   40.6767 H   0  0  0  0  0  0  0  0  0  0  0  0
   44.4321   33.0842   39.5757 H   0  0  0  0  0  0  0  0  0  0  0  0
   45.7252   31.4032   35.0039 H   0  0  0  0  0  0  0  0  0  0  0  0
   49.6112   33.0160   35.4621 H   0  0  0  0  0  0  0  0  0  0  0  0
   43.7580   36.3878   45.1433 H   0  0  0  0  0  0  0  0  0  0  0  0
   44.9082   36.5657   42.9035 H   0  0  0  0  0  0  0  0  0  0  0  0
   46.1017   32.9984   46.1168 H   0  0  0  0  0  0  0  0  0  0  0  0
  1 18  1  0
  2  1  2  0
  3  2  1  0
  4  5  1  0
  4  3  2  0
  5  6  2  0
  6  1  1  0
  7  5  1  0
  8  7  1  0
  9  8  2  0
 10  9  1  0
 10 15  2  0
 11 10  1  0
 12 11  2  0
 12 13  1  0
 13 14  2  0
 14 15  1  0
 15  7  1  0
 16 21  2  0
 17 16  1  0
 18 17  2  0
 18 19  1  0
 19 20  2  0
 20 21  1  0
  2 22  1  0
  3 23  1  0
  8 24  1  0
 11 25  1  0
 13 26  1  0
 16 27  1  0
 17 28  1  0
 20 29  1  0
M  ISO  8  22  14  23  14  24  14  25  14  26  14  27  14  28  14  29  14
M  END
>  <minimizedAffinity>  (1) 
-5.93814135

>  <minimizedRMSD>  (1) 
0.530802965

$$$$
