
     RDKit          3D

 33 35  0  0  0  0  0  0  0  0999 V2000
   46.7390   34.7670   42.0750 C   0  0  0  0  0  0  0  0  0  0  0  0
   47.9330   35.4040   41.8440 C   0  0  0  0  0  0  0  0  0  0  0  0
   48.6670   35.2810   40.6860 C   0  0  0  0  0  0  0  0  0  0  0  0
   48.1520   34.4650   39.7150 N   0  0  0  0  0  0  0  0  0  0  0  0
   47.0040   33.8500   39.9300 C   0  0  0  0  0  0  0  0  0  0  0  0
   46.2910   33.9720   41.0620 N   0  0  0  0  0  0  0  0  0  0  0  0
   46.4960   33.0090   38.8980 N   0  0  0  0  0  0  0  0  0  0  0  0
   45.6770   31.8490   39.2060 C   0  0  0  0  0  0  0  0  0  0  0  0
   44.2960   32.2120   38.6640 C   0  0  0  0  0  0  0  0  0  0  0  0
   44.4550   32.2010   37.1590 C   0  0  0  0  0  0  0  0  0  0  0  0
   45.4900   33.1540   36.6610 C   0  0  0  0  0  0  0  0  0  0  0  0
   46.7310   33.2100   37.5040 C   0  0  0  0  0  0  0  0  0  0  0  0
   44.4620   35.9440   44.8520 C   0  0  0  0  0  0  0  0  0  0  0  0
   45.1020   35.9460   43.5970 C   0  0  0  0  0  0  0  0  0  0  0  0
   45.9900   34.9220   43.3220 C   0  0  0  0  0  0  0  0  0  0  0  0
   46.1960   33.9710   44.2810 N   0  0  0  0  0  0  0  0  0  0  0  0
   45.5740   33.9910   45.4740 C   0  0  0  0  0  0  0  0  0  0  0  0
   44.7070   34.9720   45.7660 N   0  0  0  0  0  0  0  0  0  0  0  0
   48.3293   36.0557   42.6366 H   0  0  0  0  0  0  0  0  0  0  0  0
   49.6203   35.8122   40.5477 H   0  0  0  0  0  0  0  0  0  0  0  0
   46.0687   30.9508   38.7061 H   0  0  0  0  0  0  0  0  0  0  0  0
   45.6606   31.6179   40.2813 H   0  0  0  0  0  0  0  0  0  0  0  0
   43.5485   31.4694   38.9799 H   0  0  0  0  0  0  0  0  0  0  0  0
   43.9469   33.1861   39.0371 H   0  0  0  0  0  0  0  0  0  0  0  0
   44.7385   31.1851   36.8466 H   0  0  0  0  0  0  0  0  0  0  0  0
   43.4924   32.5169   36.7304 H   0  0  0  0  0  0  0  0  0  0  0  0
   45.7775   32.8505   35.6435 H   0  0  0  0  0  0  0  0  0  0  0  0
   45.0391   34.1567   36.6950 H   0  0  0  0  0  0  0  0  0  0  0  0
   47.4225   32.4295   37.1538 H   0  0  0  0  0  0  0  0  0  0  0  0
   47.1449   34.2232   37.3940 H   0  0  0  0  0  0  0  0  0  0  0  0
   43.7498   36.7462   45.0955 H   0  0  0  0  0  0  0  0  0  0  0  0
   44.9018   36.7369   42.8592 H   0  0  0  0  0  0  0  0  0  0  0  0
   45.7770   33.2008   46.2118 H   0  0  0  0  0  0  0  0  0  0  0  0
  1 15  1  0
  2  1  2  0
  3  2  1  0
  4  5  1  0
  4  3  2  0
  5  6  2  0
  6  1  1  0
  7  8  1  0
  7  5  1  0
  9  8  1  0
 10  9  1  0
 11 10  1  0
 11 12  1  0
 12  7  1  0
 13 18  2  0
 14 13  1  0
 15 14  2  0
 15 16  1  0
 16 17  2  0
 17 18  1  0
  2 19  1  0
  3 20  1  0
  8 21  1  0
  8 22  1  0
  9 23  1  0
  9 24  1  0
 10 25  1  0
 10 26  1  0
 11 27  1  0
 11 28  1  0
 12 29  1  0
 12 30  1  0
 13 31  1  0
 14 32  1  0
 17 33  1  0
M  ISO  8  19  14  20  14  21  13  22  13  23  13  24  13  25  13  26  13
M  ISO  7  27  13  28  13  29  13  30  13  31  14  32  14  33  14
M  END
>  <minimizedAffinity>  (1) 
-5.37268162

>  <minimizedRMSD>  (1) 
0.123651065

$$$$
