
     RDKit          3D

 31 33  0  0  0  0  0  0  0  0999 V2000
   46.7490   34.7770   42.0090 C   0  0  0  0  0  0  0  0  0  0  0  0
   47.9880   35.3310   41.8100 C   0  0  0  0  0  0  0  0  0  0  0  0
   48.7040   35.2000   40.6330 C   0  0  0  0  0  0  0  0  0  0  0  0
   48.1350   34.4820   39.6290 N   0  0  0  0  0  0  0  0  0  0  0  0
   46.9410   33.9470   39.8160 C   0  0  0  0  0  0  0  0  0  0  0  0
   46.2550   34.0780   40.9600 N   0  0  0  0  0  0  0  0  0  0  0  0
   44.4750   35.9660   44.7850 C   0  0  0  0  0  0  0  0  0  0  0  0
   45.1190   35.9590   43.5360 C   0  0  0  0  0  0  0  0  0  0  0  0
   46.0070   34.9230   43.2560 C   0  0  0  0  0  0  0  0  0  0  0  0
   46.1930   33.9880   44.2080 N   0  0  0  0  0  0  0  0  0  0  0  0
   45.5750   34.0000   45.3990 C   0  0  0  0  0  0  0  0  0  0  0  0
   44.7080   34.9980   45.6900 N   0  0  0  0  0  0  0  0  0  0  0  0
   45.1460   31.6870   36.6830 C   0  0  0  0  0  0  0  0  0  0  0  0
   46.1530   32.5850   36.3930 C   0  0  0  0  0  0  0  0  0  0  0  0
   46.7320   33.3170   37.4140 C   0  0  0  0  0  0  0  0  0  0  0  0
   46.3300   33.1750   38.7390 C   0  0  0  0  0  0  0  0  0  0  0  0
   45.3200   32.2620   38.9620 C   0  0  0  0  0  0  0  0  0  0  0  0
   44.7050   31.5050   37.9850 C   0  0  0  0  0  0  0  0  0  0  0  0
   44.5100   30.8360   35.2930 S   0  0  0  0  0  0  0  0  0  0  0  0
   43.0130   30.7530   35.4410 O   0  0  0  0  0  0  0  0  0  0  0  0
   44.8810   31.4940   34.0090 O   0  0  0  0  0  0  0  0  0  0  0  0
   48.4366   35.9106   42.6302 H   0  0  0  0  0  0  0  0  0  0  0  0
   49.6963   35.6597   40.5145 H   0  0  0  0  0  0  0  0  0  0  0  0
   43.7698   36.7750   45.0264 H   0  0  0  0  0  0  0  0  0  0  0  0
   44.9267   36.7517   42.7980 H   0  0  0  0  0  0  0  0  0  0  0  0
   45.7714   33.2049   46.1333 H   0  0  0  0  0  0  0  0  0  0  0  0
   46.4934   32.7180   35.3555 H   0  0  0  0  0  0  0  0  0  0  0  0
   47.5326   34.0314   37.1720 H   0  0  0  0  0  0  0  0  0  0  0  0
   44.9782   32.1267   39.9988 H   0  0  0  0  0  0  0  0  0  0  0  0
   43.9036   30.7917   38.2277 H   0  0  0  0  0  0  0  0  0  0  0  0
   45.0578   29.5811   35.2487 H   0  0  0  0  0  0  0  0  0  0  0  0
  1  9  1  0
  2  1  2  0
  3  2  1  0
  4  5  1  0
  4  3  2  0
  5  6  2  0
  6  1  1  0
  7 12  2  0
  8  7  1  0
  9  8  2  0
  9 10  1  0
 10 11  2  0
 11 12  1  0
 13 18  2  0
 14 13  1  0
 14 15  2  0
 15 16  1  0
 16 17  2  0
 16  5  1  0
 18 17  1  0
 19 20  2  0
 19 13  1  0
 21 19  2  0
  2 22  1  0
  3 23  1  0
  7 24  1  0
  8 25  1  0
 11 26  1  0
 14 27  1  0
 15 28  1  0
 17 29  1  0
 18 30  1  0
 19 31  1  0
M  ISO  8  22  14  23  14  24  14  25  14  26  14  27  14  28  14  29  14
M  ISO  2  30  14  31  11
M  END
>  <minimizedAffinity>  (1) 
-5.37234068

>  <minimizedRMSD>  (1) 
0.655313551

$$$$
