
     RDKit          3D

 25 27  0  0  0  0  0  0  0  0999 V2000
   46.7520   34.7880   42.0580 C   0  0  0  0  0  0  0  0  0  0  0  0
   48.0050   35.3510   41.8680 C   0  0  0  0  0  0  0  0  0  0  0  0
   48.7440   35.2490   40.7120 C   0  0  0  0  0  0  0  0  0  0  0  0
   48.1880   34.5390   39.6860 N   0  0  0  0  0  0  0  0  0  0  0  0
   46.9900   33.9980   39.8580 C   0  0  0  0  0  0  0  0  0  0  0  0
   46.2840   34.1080   40.9940 N   0  0  0  0  0  0  0  0  0  0  0  0
   46.2830   33.2260   38.8680 N   0  0  0  0  0  0  0  0  0  0  0  0
   45.2580   32.3920   39.1170 C   0  0  0  0  0  0  0  0  0  0  0  0
   44.8820   31.8620   37.8860 C   0  0  0  0  0  0  0  0  0  0  0  0
   45.6560   32.3610   36.9220 N   0  0  0  0  0  0  0  0  0  0  0  0
   46.5120   33.1950   37.5240 C   0  0  0  0  0  0  0  0  0  0  0  0
   44.4620   35.9500   44.8210 C   0  0  0  0  0  0  0  0  0  0  0  0
   45.1150   35.9420   43.5750 C   0  0  0  0  0  0  0  0  0  0  0  0
   46.0060   34.9230   43.3010 C   0  0  0  0  0  0  0  0  0  0  0  0
   46.2110   33.9770   44.2410 N   0  0  0  0  0  0  0  0  0  0  0  0
   45.5810   33.9890   45.4350 C   0  0  0  0  0  0  0  0  0  0  0  0
   44.7100   34.9680   45.7260 N   0  0  0  0  0  0  0  0  0  0  0  0
   48.4398   35.9207   42.7025 H   0  0  0  0  0  0  0  0  0  0  0  0
   49.7352   35.7168   40.6184 H   0  0  0  0  0  0  0  0  0  0  0  0
   44.8074   32.1727   40.0962 H   0  0  0  0  0  0  0  0  0  0  0  0
   44.0675   31.1390   37.7316 H   0  0  0  0  0  0  0  0  0  0  0  0
   47.2912   33.7744   37.0072 H   0  0  0  0  0  0  0  0  0  0  0  0
   43.7496   36.7526   45.0627 H   0  0  0  0  0  0  0  0  0  0  0  0
   44.9199   36.7313   42.8341 H   0  0  0  0  0  0  0  0  0  0  0  0
   45.7817   33.1957   46.1701 H   0  0  0  0  0  0  0  0  0  0  0  0
  1 14  1  0
  2  1  2  0
  3  2  1  0
  4  5  1  0
  4  3  2  0
  5  6  2  0
  6  1  1  0
  7  8  1  0
  7  5  1  0
  9  8  2  0
 10 11  2  0
 10  9  1  0
 11  7  1  0
 12 17  2  0
 13 12  1  0
 14 13  2  0
 14 15  1  0
 15 16  2  0
 16 17  1  0
  2 18  1  0
  3 19  1  0
  8 20  1  0
  9 21  1  0
 11 22  1  0
 12 23  1  0
 13 24  1  0
 16 25  1  0
M  ISO  8  18  14  19  14  20  14  21  14  22  14  23  14  24  14  25  14
M  END
>  <minimizedAffinity>  (1) 
-5.15572309

>  <minimizedRMSD>  (1) 
0.176238433

$$$$
