
     RDKit          3D

 26 28  0  0  0  0  0  0  0  0999 V2000
   46.7310   34.7670   42.0590 C   0  0  0  0  0  0  0  0  0  0  0  0
   47.9860   35.3040   41.8630 C   0  0  0  0  0  0  0  0  0  0  0  0
   48.7000   35.1840   40.6860 C   0  0  0  0  0  0  0  0  0  0  0  0
   48.1290   34.4950   39.6680 N   0  0  0  0  0  0  0  0  0  0  0  0
   46.9230   33.9740   39.8450 C   0  0  0  0  0  0  0  0  0  0  0  0
   46.2490   34.1020   40.9940 N   0  0  0  0  0  0  0  0  0  0  0  0
   44.4630   35.9560   44.8280 C   0  0  0  0  0  0  0  0  0  0  0  0
   45.1080   35.9400   43.5810 C   0  0  0  0  0  0  0  0  0  0  0  0
   45.9980   34.9040   43.3030 C   0  0  0  0  0  0  0  0  0  0  0  0
   46.2000   33.9580   44.2490 N   0  0  0  0  0  0  0  0  0  0  0  0
   45.5700   33.9900   45.4420 C   0  0  0  0  0  0  0  0  0  0  0  0
   44.7060   34.9810   45.7370 N   0  0  0  0  0  0  0  0  0  0  0  0
   46.2700   33.2240   38.7750 C   0  0  0  0  0  0  0  0  0  0  0  0
   46.7130   33.2960   37.4660 C   0  0  0  0  0  0  0  0  0  0  0  0
   46.1380   32.6110   36.4040 C   0  0  0  0  0  0  0  0  0  0  0  0
   45.0720   31.8250   36.6900 N   0  0  0  0  0  0  0  0  0  0  0  0
   44.6230   31.7390   37.9570 C   0  0  0  0  0  0  0  0  0  0  0  0
   45.1990   32.4190   38.9900 N   0  0  0  0  0  0  0  0  0  0  0  0
   48.4459   35.8608   42.6927 H   0  0  0  0  0  0  0  0  0  0  0  0
   49.6986   35.6327   40.5788 H   0  0  0  0  0  0  0  0  0  0  0  0
   43.7567   36.7643   45.0683 H   0  0  0  0  0  0  0  0  0  0  0  0
   44.9150   36.7287   42.8389 H   0  0  0  0  0  0  0  0  0  0  0  0
   45.7638   33.1989   46.1813 H   0  0  0  0  0  0  0  0  0  0  0  0
   47.5792   33.9394   37.2524 H   0  0  0  0  0  0  0  0  0  0  0  0
   46.5290   32.7020   35.3799 H   0  0  0  0  0  0  0  0  0  0  0  0
   43.7568   31.0944   38.1673 H   0  0  0  0  0  0  0  0  0  0  0  0
  1  9  1  0
  2  1  2  0
  3  2  1  0
  4  5  1  0
  4  3  2  0
  5  6  2  0
  6  1  1  0
  7 12  2  0
  8  7  1  0
  9  8  2  0
  9 10  1  0
 10 11  2  0
 11 12  1  0
 13 18  1  0
 13  5  1  0
 14 13  2  0
 15 16  2  0
 15 14  1  0
 16 17  1  0
 17 18  2  0
  2 19  1  0
  3 20  1  0
  7 21  1  0
  8 22  1  0
 11 23  1  0
 14 24  1  0
 15 25  1  0
 17 26  1  0
M  ISO  8  19  14  20  14  21  14  22  14  23  14  24  14  25  14  26  14
M  END
>  <minimizedAffinity>  (1) 
-5.07672834

>  <minimizedRMSD>  (1) 
0.896730661

$$$$
