
     RDKit          3D

 25 27  0  0  0  0  0  0  0  0999 V2000
   46.7540   34.7850   42.0930 C   0  0  0  0  0  0  0  0  0  0  0  0
   47.9970   35.3250   41.9000 C   0  0  0  0  0  0  0  0  0  0  0  0
   48.7430   35.2280   40.7460 C   0  0  0  0  0  0  0  0  0  0  0  0
   48.1860   34.5300   39.7150 N   0  0  0  0  0  0  0  0  0  0  0  0
   46.9890   34.0030   39.8850 C   0  0  0  0  0  0  0  0  0  0  0  0
   46.2610   34.1020   41.0180 N   0  0  0  0  0  0  0  0  0  0  0  0
   44.4560   35.9370   44.8520 C   0  0  0  0  0  0  0  0  0  0  0  0
   45.1090   35.9330   43.6100 C   0  0  0  0  0  0  0  0  0  0  0  0
   46.0070   34.9170   43.3330 C   0  0  0  0  0  0  0  0  0  0  0  0
   46.2250   33.9550   44.2760 N   0  0  0  0  0  0  0  0  0  0  0  0
   45.5800   33.9830   45.4660 C   0  0  0  0  0  0  0  0  0  0  0  0
   44.7030   34.9600   45.7600 N   0  0  0  0  0  0  0  0  0  0  0  0
   46.2460   33.2240   38.8770 C   0  0  0  0  0  0  0  0  0  0  0  0
   45.1510   32.4670   38.8300 C   0  0  0  0  0  0  0  0  0  0  0  0
   44.7430   31.8790   37.6840 C   0  0  0  0  0  0  0  0  0  0  0  0
   45.6250   32.1630   36.5180 C   0  0  0  0  0  0  0  0  0  0  0  0
   46.9440   33.2730   37.3010 S   0  0  0  0  0  0  0  0  0  0  0  0
   48.4379   35.8843   42.7383 H   0  0  0  0  0  0  0  0  0  0  0  0
   49.7376   35.6901   40.6603 H   0  0  0  0  0  0  0  0  0  0  0  0
   43.7397   36.7370   45.0907 H   0  0  0  0  0  0  0  0  0  0  0  0
   44.9108   36.7227   42.8703 H   0  0  0  0  0  0  0  0  0  0  0  0
   45.7765   33.1929   46.2057 H   0  0  0  0  0  0  0  0  0  0  0  0
   44.5637   32.3167   39.7479 H   0  0  0  0  0  0  0  0  0  0  0  0
   43.8434   31.2493   37.6183 H   0  0  0  0  0  0  0  0  0  0  0  0
   45.5342   31.8189   35.4772 H   0  0  0  0  0  0  0  0  0  0  0  0
  1  9  1  0
  2  1  2  0
  3  2  1  0
  4  5  1  0
  4  3  2  0
  5  6  2  0
  6  1  1  0
  7 12  2  0
  8  7  1  0
  9  8  2  0
  9 10  1  0
 10 11  2  0
 11 12  1  0
 13  5  1  0
 14 13  2  0
 15 14  1  0
 16 17  1  0
 16 15  2  0
 17 13  1  0
  2 18  1  0
  3 19  1  0
  7 20  1  0
  8 21  1  0
 11 22  1  0
 14 23  1  0
 15 24  1  0
 16 25  1  0
M  ISO  8  18  14  19  14  20  14  21  14  22  14  23  14  24  14  25  14
M  END
>  <minimizedAffinity>  (1) 
-4.92106915

>  <minimizedRMSD>  (1) 
0.620404243

$$$$
