
     RDKit          3D

 41 44  0  0  1  0  0  0  0  0999 V2000
   44.3510   33.4430   42.6490 C   0  0  0  0  0  0  0  0  0  0  0  0
   44.3000   32.0670   42.6500 C   0  0  0  0  0  0  0  0  0  0  0  0
   43.3840   31.4140   41.8830 C   0  0  0  0  0  0  0  0  0  0  0  0
   42.5070   32.0570   41.1090 N   0  0  0  0  0  0  0  0  0  0  0  0
   42.5610   33.3790   41.1120 C   0  0  0  0  0  0  0  0  0  0  0  0
   43.4450   34.0520   41.8490 N   0  0  0  0  0  0  0  0  0  0  0  0
   46.7370   34.4270   43.1280 C   0  0  1  0  0  0  0  0  0  0  0  0
   45.7890   35.5700   43.0080 C   0  0  0  0  0  0  0  0  0  0  0  0
   45.2690   34.3090   43.4550 C   0  0  1  0  0  0  0  0  0  0  0  0
   47.9820   34.0790   39.6410 C   0  0  0  0  0  0  0  0  0  0  0  0
   47.4140   34.6580   40.8260 C   0  0  0  0  0  0  0  0  0  0  0  0
   47.3190   33.8210   41.9400 C   0  0  0  0  0  0  0  0  0  0  0  0
   47.7500   32.5400   41.8660 N   0  0  0  0  0  0  0  0  0  0  0  0
   48.2750   32.0220   40.7530 C   0  0  0  0  0  0  0  0  0  0  0  0
   48.3980   32.7800   39.6280 N   0  0  0  0  0  0  0  0  0  0  0  0
   41.5910   34.1320   40.2760 C   0  0  1  0  0  0  0  0  0  0  0  0
   41.8370   35.5880   40.4370 C   0  0  0  0  0  0  0  0  0  0  0  0
   41.6520   33.7270   38.8190 C   0  0  0  0  0  0  0  0  0  0  0  0
   40.3440   33.3640   38.3100 N   0  0  0  0  0  0  0  0  0  0  0  0
   39.8020   32.1700   38.1780 N   0  0  0  0  0  0  0  0  0  0  0  0
   38.5640   32.2430   37.6640 C   0  0  0  0  0  0  0  0  0  0  0  0
   38.3020   33.5900   37.4540 C   0  0  0  0  0  0  0  0  0  0  0  0
   39.4480   34.2710   37.8720 C   0  0  0  0  0  0  0  0  0  0  0  0
   45.0020   31.4931   43.2728 H   0  0  0  0  0  0  0  0  0  0  0  0
   43.3660   30.3143   41.9019 H   0  0  0  0  0  0  0  0  0  0  0  0
   47.6778   34.2150   43.6571 H   0  0  0  0  0  0  0  0  0  0  0  0
   45.8584   36.4110   43.7136 H   0  0  0  0  0  0  0  0  0  0  0  0
   45.5240   36.2627   42.1956 H   0  0  0  0  0  0  0  0  0  0  0  0
   44.6771   33.9989   44.3288 H   0  0  0  0  0  0  0  0  0  0  0  0
   48.0829   34.6907   38.7323 H   0  0  0  0  0  0  0  0  0  0  0  0
   47.0725   35.7033   40.8548 H   0  0  0  0  0  0  0  0  0  0  0  0
   48.6109   30.9746   40.7445 H   0  0  0  0  0  0  0  0  0  0  0  0
   40.5752   33.8887   40.6208 H   0  0  0  0  0  0  0  0  0  0  0  0
   41.8790   35.8366   41.5077 H   0  0  0  0  0  0  0  0  0  0  0  0
   42.7927   35.8532   39.9613 H   0  0  0  0  0  0  0  0  0  0  0  0
   41.0215   36.1525   39.9613 H   0  0  0  0  0  0  0  0  0  0  0  0
   42.0426   34.5702   38.2303 H   0  0  0  0  0  0  0  0  0  0  0  0
   42.3098   32.8495   38.7334 H   0  0  0  0  0  0  0  0  0  0  0  0
   37.8894   31.4006   37.4510 H   0  0  0  0  0  0  0  0  0  0  0  0
   37.3816   34.0305   37.0431 H   0  0  0  0  0  0  0  0  0  0  0  0
   39.5942   35.3610   37.8478 H   0  0  0  0  0  0  0  0  0  0  0  0
  1  2  2  0
  1  9  1  0
  3  2  1  0
  4  5  1  0
  4  3  2  0
  5  6  2  0
  6  1  1  0
  7  9  1  0
  8  7  1  0
  8  9  1  0
 10 11  2  0
 11 12  1  0
 12  7  1  0
 13 12  2  0
 14 13  1  0
 15 10  1  0
 15 14  2  0
 16 17  1  0
 16  5  1  0
 18 16  1  0
 19 18  1  0
 20 19  1  0
 21 20  2  0
 22 21  1  0
 22 23  2  0
 23 19  1  0
  2 24  1  0
  3 25  1  0
  7 26  1  1
  8 27  1  0
  8 28  1  0
  9 29  1  1
 10 30  1  0
 11 31  1  0
 14 32  1  0
 16 33  1  1
 17 34  1  0
 17 35  1  0
 17 36  1  0
 18 37  1  0
 18 38  1  0
 21 39  1  0
 22 40  1  0
 23 41  1  0
M  ISO  8  24  14  25  14  26  13  27  13  28  13  29  13  30  14  31  14
M  ISO  8  32  14  33   8  34   8  35   8  36   8  37   8  38   8  39  14
M  ISO  2  40  14  41  14
M  END
>  <minimizedAffinity>  (1) 
-4.9536891

>  <minimizedRMSD>  (1) 
1.93657553

$$$$
