
     RDKit          3D

 21 22  0  0  0  0  0  0  0  0999 V2000
   46.7690   34.7910   42.0180 C   0  0  0  0  0  0  0  0  0  0  0  0
   47.9970   35.3730   41.8060 C   0  0  0  0  0  0  0  0  0  0  0  0
   48.7330   35.2560   40.6470 C   0  0  0  0  0  0  0  0  0  0  0  0
   48.1960   34.5040   39.6380 N   0  0  0  0  0  0  0  0  0  0  0  0
   47.0040   33.9340   39.8340 C   0  0  0  0  0  0  0  0  0  0  0  0
   46.3160   34.0670   40.9690 N   0  0  0  0  0  0  0  0  0  0  0  0
   44.4730   35.9600   44.7730 C   0  0  0  0  0  0  0  0  0  0  0  0
   45.1300   35.9490   43.5310 C   0  0  0  0  0  0  0  0  0  0  0  0
   46.0210   34.9330   43.2500 C   0  0  0  0  0  0  0  0  0  0  0  0
   46.2150   33.9930   44.2020 N   0  0  0  0  0  0  0  0  0  0  0  0
   45.5920   33.9930   45.3930 C   0  0  0  0  0  0  0  0  0  0  0  0
   44.7140   34.9840   45.6820 N   0  0  0  0  0  0  0  0  0  0  0  0
   46.3420   33.0990   38.7960 C   0  0  0  0  0  0  0  0  0  0  0  0
   44.9710   33.1350   39.0590 F   0  0  0  0  0  0  0  0  0  0  0  0
   46.6180   33.5410   37.5230 F   0  0  0  0  0  0  0  0  0  0  0  0
   46.7550   31.7700   38.9000 F   0  0  0  0  0  0  0  0  0  0  0  0
   48.4228   35.9761   42.6215 H   0  0  0  0  0  0  0  0  0  0  0  0
   49.7114   35.7467   40.5376 H   0  0  0  0  0  0  0  0  0  0  0  0
   43.7602   36.7640   45.0085 H   0  0  0  0  0  0  0  0  0  0  0  0
   44.9366   36.7403   42.7918 H   0  0  0  0  0  0  0  0  0  0  0  0
   45.7927   33.1971   46.1253 H   0  0  0  0  0  0  0  0  0  0  0  0
  1  9  1  0
  2  1  2  0
  3  2  1  0
  4  5  1  0
  4  3  2  0
  5  6  2  0
  6  1  1  0
  7 12  2  0
  8  7  1  0
  9  8  2  0
  9 10  1  0
 10 11  2  0
 11 12  1  0
 13 16  1  0
 13 14  1  0
 13  5  1  0
 15 13  1  0
  2 17  1  0
  3 18  1  0
  7 19  1  0
  8 20  1  0
 11 21  1  0
M  ISO  5  17  14  18  14  19  14  20  14  21  14
M  END
>  <minimizedAffinity>  (1) 
-4.755651

>  <minimizedRMSD>  (1) 
0.220207438

$$$$
