
     RDKit          3D

 47 50  0  0  1  0  0  0  0  0999 V2000
   45.0020   32.9830   43.2440 C   0  0  0  0  0  0  0  0  0  0  0  0
   45.4490   31.7550   43.6700 C   0  0  0  0  0  0  0  0  0  0  0  0
   44.7890   30.6150   43.3280 C   0  0  0  0  0  0  0  0  0  0  0  0
   43.6810   30.6270   42.5660 N   0  0  0  0  0  0  0  0  0  0  0  0
   43.2500   31.8100   42.1550 C   0  0  0  0  0  0  0  0  0  0  0  0
   43.8860   32.9500   42.4800 N   0  0  0  0  0  0  0  0  0  0  0  0
   46.8610   34.8030   42.9010 C   0  0  1  0  0  0  0  0  0  0  0  0
   45.5360   35.4480   42.6860 C   0  0  0  0  0  0  0  0  0  0  0  0
   45.5980   34.3140   43.5650 C   0  0  1  0  0  0  0  0  0  0  0  0
   47.6870   33.6640   39.4560 C   0  0  0  0  0  0  0  0  0  0  0  0
   47.0730   34.3810   40.5430 C   0  0  0  0  0  0  0  0  0  0  0  0
   47.5050   34.0610   41.8260 C   0  0  0  0  0  0  0  0  0  0  0  0
   48.4580   33.1130   42.0010 N   0  0  0  0  0  0  0  0  0  0  0  0
   49.0160   32.4590   40.9730 C   0  0  0  0  0  0  0  0  0  0  0  0
   48.6470   32.7190   39.7050 N   0  0  0  0  0  0  0  0  0  0  0  0
   42.0210   31.8780   41.3270 C   0  0  1  0  0  0  0  0  0  0  0  0
   40.8700   31.3410   42.1100 C   0  0  0  0  0  0  0  0  0  0  0  0
   41.7490   33.2930   40.8580 C   0  0  0  0  0  0  0  0  0  0  0  0
   40.5140   33.3840   40.1040 N   0  0  0  0  0  0  0  0  0  0  0  0
   40.9080   33.5800   38.7010 C   0  0  0  0  0  0  0  0  0  0  0  0
   40.5960   34.9430   38.1820 C   0  0  0  0  0  0  0  0  0  0  0  0
   41.0520   35.9700   39.0100 O   0  0  0  0  0  0  0  0  0  0  0  0
   40.5790   35.8320   40.3120 C   0  0  0  0  0  0  0  0  0  0  0  0
   39.7580   34.5820   40.5080 C   0  0  0  0  0  0  0  0  0  0  0  0
   46.3518   31.6929   44.2954 H   0  0  0  0  0  0  0  0  0  0  0  0
   45.1754   29.6499   43.6875 H   0  0  0  0  0  0  0  0  0  0  0  0
   47.8586   35.1140   43.2444 H   0  0  0  0  0  0  0  0  0  0  0  0
   45.3440   36.4484   43.1010 H   0  0  0  0  0  0  0  0  0  0  0  0
   44.9400   35.6942   41.7949 H   0  0  0  0  0  0  0  0  0  0  0  0
   45.2751   34.1322   44.6007 H   0  0  0  0  0  0  0  0  0  0  0  0
   47.3837   33.8761   38.4201 H   0  0  0  0  0  0  0  0  0  0  0  0
   46.3004   35.1442   40.3677 H   0  0  0  0  0  0  0  0  0  0  0  0
   49.7867   31.6988   41.1683 H   0  0  0  0  0  0  0  0  0  0  0  0
   42.1636   31.2630   40.4262 H   0  0  0  0  0  0  0  0  0  0  0  0
   41.0804   31.4391   43.1852 H   0  0  0  0  0  0  0  0  0  0  0  0
   39.9608   31.9079   41.8610 H   0  0  0  0  0  0  0  0  0  0  0  0
   40.7203   30.2801   41.8610 H   0  0  0  0  0  0  0  0  0  0  0  0
   41.6789   33.9516   41.7363 H   0  0  0  0  0  0  0  0  0  0  0  0
   42.5747   33.5985   40.1985 H   0  0  0  0  0  0  0  0  0  0  0  0
   41.9923   33.4150   38.6172 H   0  0  0  0  0  0  0  0  0  0  0  0
   40.3301   32.8635   38.0988 H   0  0  0  0  0  0  0  0  0  0  0  0
   41.0672   35.0562   37.1945 H   0  0  0  0  0  0  0  0  0  0  0  0
   39.5004   35.0284   38.1326 H   0  0  0  0  0  0  0  0  0  0  0  0
   41.4395   35.7978   40.9964 H   0  0  0  0  0  0  0  0  0  0  0  0
   39.9256   36.6923   40.5191 H   0  0  0  0  0  0  0  0  0  0  0  0
   38.8444   34.6528   39.8994 H   0  0  0  0  0  0  0  0  0  0  0  0
   39.5051   34.4930   41.5748 H   0  0  0  0  0  0  0  0  0  0  0  0
  1  9  1  0
  1  2  2  0
  3  2  1  0
  4  3  2  0
  5  6  2  0
  5  4  1  0
  6  1  1  0
  7  9  1  0
  8  7  1  0
  8  9  1  0
 10 15  2  0
 10 11  1  0
 11 12  2  0
 12 13  1  0
 12  7  1  0
 14 13  2  0
 15 14  1  0
 16 17  1  0
 16  5  1  0
 18 16  1  0
 19 24  1  0
 19 18  1  0
 20 19  1  0
 21 20  1  0
 21 22  1  0
 22 23  1  0
 23 24  1  0
  2 25  1  0
  3 26  1  0
  7 27  1  1
  8 28  1  0
  8 29  1  0
  9 30  1  1
 10 31  1  0
 11 32  1  0
 14 33  1  0
 16 34  1  6
 17 35  1  0
 17 36  1  0
 17 37  1  0
 18 38  1  0
 18 39  1  0
 20 40  1  0
 20 41  1  0
 21 42  1  0
 21 43  1  0
 23 44  1  0
 23 45  1  0
 24 46  1  0
 24 47  1  0
M  ISO  8  25  14  26  14  27  13  28  13  29  13  30  13  31  14  32  14
M  ISO  8  33  14  34   8  35   8  36   8  37   8  38   8  39   8  40  13
M  ISO  7  41  13  42  13  43  13  44  13  45  13  46  13  47  13
M  END
>  <minimizedAffinity>  (1) 
-4.90213346

>  <minimizedRMSD>  (1) 
2.56583548

$$$$
