
     RDKit          3D

 20 21  0  0  0  0  0  0  0  0999 V2000
   46.7140   34.7330   42.1000 C   0  0  0  0  0  0  0  0  0  0  0  0
   47.9240   35.3240   41.8540 C   0  0  0  0  0  0  0  0  0  0  0  0
   48.6390   35.2020   40.6840 C   0  0  0  0  0  0  0  0  0  0  0  0
   48.0950   34.4370   39.7070 N   0  0  0  0  0  0  0  0  0  0  0  0
   46.9110   33.8480   39.9230 C   0  0  0  0  0  0  0  0  0  0  0  0
   46.2280   33.9780   41.0710 N   0  0  0  0  0  0  0  0  0  0  0  0
   46.4090   33.0590   38.8430 N   0  0  0  0  0  0  0  0  0  0  0  0
   44.4530   35.9600   44.8640 C   0  0  0  0  0  0  0  0  0  0  0  0
   45.0950   35.9330   43.6150 C   0  0  0  0  0  0  0  0  0  0  0  0
   45.9850   34.8840   43.3470 C   0  0  0  0  0  0  0  0  0  0  0  0
   46.1800   33.9560   44.3020 N   0  0  0  0  0  0  0  0  0  0  0  0
   45.5560   34.0000   45.4940 C   0  0  0  0  0  0  0  0  0  0  0  0
   44.6970   34.9880   45.7820 N   0  0  0  0  0  0  0  0  0  0  0  0
   48.3582   35.9438   42.6523 H   0  0  0  0  0  0  0  0  0  0  0  0
   49.6087   35.7032   40.5483 H   0  0  0  0  0  0  0  0  0  0  0  0
   45.5042   32.5755   38.9355 H   0  0  0  0  0  0  0  0  0  0  0  0
   46.9518   32.9736   37.9718 H   0  0  0  0  0  0  0  0  0  0  0  0
   43.7493   36.7718   45.1003 H   0  0  0  0  0  0  0  0  0  0  0  0
   44.9040   36.7156   42.8659 H   0  0  0  0  0  0  0  0  0  0  0  0
   45.7532   33.2163   46.2402 H   0  0  0  0  0  0  0  0  0  0  0  0
  1 10  1  0
  2  1  2  0
  3  2  1  0
  4  5  1  0
  4  3  2  0
  5  6  2  0
  6  1  1  0
  7  5  1  0
  8 13  2  0
  9  8  1  0
 10  9  2  0
 10 11  1  0
 11 12  2  0
 12 13  1  0
  2 14  1  0
  3 15  1  0
  7 16  1  0
  7 17  1  0
  8 18  1  0
  9 19  1  0
 12 20  1  0
M  ISO  5  14  14  15  14  18  14  19  14  20  14
M  END
>  <minimizedAffinity>  (1) 
-4.5272193

>  <minimizedRMSD>  (1) 
0.00983847026

$$$$
