
     RDKit          3D

 25 27  0  0  0  0  0  0  0  0999 V2000
   46.7910   34.7840   42.0630 C   0  0  0  0  0  0  0  0  0  0  0  0
   48.0150   35.3660   41.8680 C   0  0  0  0  0  0  0  0  0  0  0  0
   48.7430   35.2670   40.7060 C   0  0  0  0  0  0  0  0  0  0  0  0
   48.2140   34.5490   39.6930 N   0  0  0  0  0  0  0  0  0  0  0  0
   47.0230   33.9770   39.8680 C   0  0  0  0  0  0  0  0  0  0  0  0
   46.3020   34.0710   41.0100 N   0  0  0  0  0  0  0  0  0  0  0  0
   44.4660   35.9350   44.8210 C   0  0  0  0  0  0  0  0  0  0  0  0
   45.1270   35.9400   43.5770 C   0  0  0  0  0  0  0  0  0  0  0  0
   46.0360   34.9060   43.3110 C   0  0  0  0  0  0  0  0  0  0  0  0
   46.2380   33.9620   44.2500 N   0  0  0  0  0  0  0  0  0  0  0  0
   45.5870   33.9860   45.4370 C   0  0  0  0  0  0  0  0  0  0  0  0
   44.7110   34.9600   45.7240 N   0  0  0  0  0  0  0  0  0  0  0  0
   46.3230   33.1710   38.8660 C   0  0  0  0  0  0  0  0  0  0  0  0
   46.6510   33.2860   37.5090 C   0  0  0  0  0  0  0  0  0  0  0  0
   45.8360   32.4100   36.7820 C   0  0  0  0  0  0  0  0  0  0  0  0
   45.0530   31.8130   37.7750 C   0  0  0  0  0  0  0  0  0  0  0  0
   45.3690   32.2810   38.9520 O   0  0  0  0  0  0  0  0  0  0  0  0
   48.4438   35.9509   42.6951 H   0  0  0  0  0  0  0  0  0  0  0  0
   49.7231   35.7562   40.6053 H   0  0  0  0  0  0  0  0  0  0  0  0
   43.7449   36.7308   45.0591 H   0  0  0  0  0  0  0  0  0  0  0  0
   44.9359   36.7310   42.8368 H   0  0  0  0  0  0  0  0  0  0  0  0
   45.7795   33.1950   46.1768 H   0  0  0  0  0  0  0  0  0  0  0  0
   47.4183   33.9513   37.0865 H   0  0  0  0  0  0  0  0  0  0  0  0
   45.8164   32.2344   35.6963 H   0  0  0  0  0  0  0  0  0  0  0  0
   44.2783   31.0543   37.5900 H   0  0  0  0  0  0  0  0  0  0  0  0
  1  9  1  0
  2  1  2  0
  3  2  1  0
  4  5  1  0
  4  3  2  0
  5  6  2  0
  6  1  1  0
  7 12  2  0
  8  7  1  0
  9  8  2  0
  9 10  1  0
 10 11  2  0
 11 12  1  0
 13 17  1  0
 13  5  1  0
 14 13  2  0
 15 14  1  0
 15 16  2  0
 16 17  1  0
  2 18  1  0
  3 19  1  0
  7 20  1  0
  8 21  1  0
 11 22  1  0
 14 23  1  0
 15 24  1  0
 16 25  1  0
M  ISO  8  18  14  19  14  20  14  21  14  22  14  23  14  24  14  25  14
M  END
>  <minimizedAffinity>  (1) 
-4.9163146

>  <minimizedRMSD>  (1) 
0.422084659

$$$$
