
     RDKit          3D

 41 45  0  0  0  0  0  0  0  0999 V2000
   46.3690   31.6690   45.3860 C   0  0  0  0  0  0  0  0  0  0  0  0
   47.4980   31.1380   44.8080 C   0  0  0  0  0  0  0  0  0  0  0  0
   47.8580   31.3260   43.4950 C   0  0  0  0  0  0  0  0  0  0  0  0
   47.0480   32.0820   42.7220 N   0  0  0  0  0  0  0  0  0  0  0  0
   45.9430   32.6060   43.2770 C   0  0  0  0  0  0  0  0  0  0  0  0
   45.5850   32.4240   44.5690 N   0  0  0  0  0  0  0  0  0  0  0  0
   45.8060   32.0680   49.1010 C   0  0  0  0  0  0  0  0  0  0  0  0
   46.1890   32.4180   47.7900 C   0  0  0  0  0  0  0  0  0  0  0  0
   46.0170   31.4480   46.7910 C   0  0  0  0  0  0  0  0  0  0  0  0
   45.5010   30.2380   47.1130 N   0  0  0  0  0  0  0  0  0  0  0  0
   45.1460   29.9430   48.3760 C   0  0  0  0  0  0  0  0  0  0  0  0
   45.2940   30.8420   49.3670 N   0  0  0  0  0  0  0  0  0  0  0  0
   44.9850   33.4340   42.5600 C   0  0  0  0  0  0  0  0  0  0  0  0
   45.3330   34.6530   41.9980 C   0  0  0  0  0  0  0  0  0  0  0  0
   44.2100   35.1950   41.3890 C   0  0  0  0  0  0  0  0  0  0  0  0
   43.2030   34.2490   41.6210 C   0  0  0  0  0  0  0  0  0  0  0  0
   43.7350   33.2840   42.2920 O   0  0  0  0  0  0  0  0  0  0  0  0
   41.8730   34.5220   41.1000 C   0  0  0  0  0  0  0  0  0  0  0  0
   41.4970   35.7210   40.5610 C   0  0  0  0  0  0  0  0  0  0  0  0
   40.2570   36.0290   40.0560 C   0  0  0  0  0  0  0  0  0  0  0  0
   39.2740   35.0670   40.0770 C   0  0  0  0  0  0  0  0  0  0  0  0
   39.5760   33.8330   40.6030 C   0  0  0  0  0  0  0  0  0  0  0  0
   38.5760   32.8850   40.6140 C   0  0  0  0  0  0  0  0  0  0  0  0
   38.8130   31.6270   41.1280 C   0  0  0  0  0  0  0  0  0  0  0  0
   40.0850   31.3510   41.6310 C   0  0  0  0  0  0  0  0  0  0  0  0
   41.0370   32.3430   41.5910 C   0  0  0  0  0  0  0  0  0  0  0  0
   40.8440   33.6080   41.0890 C   0  0  0  0  0  0  0  0  0  0  0  0
   48.1565   30.5221   45.4381 H   0  0  0  0  0  0  0  0  0  0  0  0
   48.7751   30.8759   43.0871 H   0  0  0  0  0  0  0  0  0  0  0  0
   45.9240   32.7974   49.9159 H   0  0  0  0  0  0  0  0  0  0  0  0
   46.6052   33.4099   47.5601 H   0  0  0  0  0  0  0  0  0  0  0  0
   44.7280   28.9512   48.6030 H   0  0  0  0  0  0  0  0  0  0  0  0
   46.3316   35.1131   42.0296 H   0  0  0  0  0  0  0  0  0  0  0  0
   44.1290   36.1492   40.8478 H   0  0  0  0  0  0  0  0  0  0  0  0
   42.2591   36.5136   40.5287 H   0  0  0  0  0  0  0  0  0  0  0  0
   40.0538   37.0277   39.6420 H   0  0  0  0  0  0  0  0  0  0  0  0
   38.2696   35.2800   39.6822 H   0  0  0  0  0  0  0  0  0  0  0  0
   37.5831   33.1328   40.2106 H   0  0  0  0  0  0  0  0  0  0  0  0
   38.0217   30.8630   41.1410 H   0  0  0  0  0  0  0  0  0  0  0  0
   40.3212   30.3619   42.0503 H   0  0  0  0  0  0  0  0  0  0  0  0
   42.0328   32.1049   41.9930 H   0  0  0  0  0  0  0  0  0  0  0  0
  1  9  1  0
  2  1  2  0
  3  2  1  0
  4  5  1  0
  4  3  2  0
  5  6  2  0
  6  1  1  0
  7 12  2  0
  8  7  1  0
  9 10  1  0
  9  8  2  0
 10 11  2  0
 11 12  1  0
 13  5  1  0
 14 13  2  0
 15 16  2  0
 15 14  1  0
 16 17  1  0
 17 13  1  0
 18 16  1  0
 19 18  2  0
 20 21  2  0
 20 19  1  0
 21 22  1  0
 22 23  1  0
 22 27  2  0
 23 24  2  0
 24 25  1  0
 26 25  2  0
 27 18  1  0
 27 26  1  0
  2 28  1  0
  3 29  1  0
  7 30  1  0
  8 31  1  0
 11 32  1  0
 14 33  1  0
 15 34  1  0
 19 35  1  0
 20 36  1  0
 21 37  1  0
 23 38  1  0
 24 39  1  0
 25 40  1  0
 26 41  1  0
M  ISO  8  28  14  29  14  30  14  31  14  32  14  33  14  34  14  35  14
M  ISO  6  36  14  37  14  38  14  39  14  40  14  41  14
M  END
>  <minimizedAffinity>  (1) 
-7.05520964

>  <minimizedRMSD>  (1) 
5.85563231

$$$$
