
     RDKit          3D

 38 42  0  0  0  0  0  0  0  0999 V2000
   46.7971   34.7952   42.0577 C   0  0  0  0  0  0  0  0  0  0  0  0
   48.0178   35.3709   41.8676 C   0  0  0  0  0  0  0  0  0  0  0  0
   48.7412   35.2634   40.7022 C   0  0  0  0  0  0  0  0  0  0  0  0
   48.2120   34.5481   39.6917 N   0  0  0  0  0  0  0  0  0  0  0  0
   47.0096   33.9787   39.8736 C   0  0  0  0  0  0  0  0  0  0  0  0
   46.2900   34.0752   41.0085 N   0  0  0  0  0  0  0  0  0  0  0  0
   44.4776   35.9237   44.8231 C   0  0  0  0  0  0  0  0  0  0  0  0
   45.1350   35.9447   43.5721 C   0  0  0  0  0  0  0  0  0  0  0  0
   46.0352   34.9168   43.3075 C   0  0  0  0  0  0  0  0  0  0  0  0
   46.2320   33.9621   44.2507 N   0  0  0  0  0  0  0  0  0  0  0  0
   45.5871   33.9733   45.4341 C   0  0  0  0  0  0  0  0  0  0  0  0
   44.7089   34.9550   45.7209 N   0  0  0  0  0  0  0  0  0  0  0  0
   46.3228   33.1777   38.8741 C   0  0  0  0  0  0  0  0  0  0  0  0
   46.6453   33.2678   37.5241 C   0  0  0  0  0  0  0  0  0  0  0  0
   45.8492   32.4028   36.7797 C   0  0  0  0  0  0  0  0  0  0  0  0
   45.0619   31.8188   37.7641 C   0  0  0  0  0  0  0  0  0  0  0  0
   45.3623   32.2899   38.9604 O   0  0  0  0  0  0  0  0  0  0  0  0
   48.3884   35.9330   42.7189 H   0  0  0  0  0  0  0  0  0  0  0  0
   49.7048   35.7483   40.6235 H   0  0  0  0  0  0  0  0  0  0  0  0
   43.7898   36.7508   44.9679 H   0  0  0  0  0  0  0  0  0  0  0  0
   44.9897   36.6929   42.8163 H   0  0  0  0  0  0  0  0  0  0  0  0
   45.7403   33.2157   46.1879 H   0  0  0  0  0  0  0  0  0  0  0  0
   47.4083   33.9123   37.0669 H   0  0  0  0  0  0  0  0  0  0  0  0
   45.8082   32.1989   35.7313 H   0  0  0  0  0  0  0  0  0  0  0  0
   44.0563   30.8298   37.4819 N   0  0  0  0  0  0  0  0  0  0  0  0
   43.2069   30.2247   38.3633 C   0  0  0  0  0  0  0  0  0  0  0  0
   42.4190   29.3525   37.6691 N   0  0  0  0  0  0  0  0  0  0  0  0
   42.7886   29.4290   36.3771 C   0  0  0  0  0  0  0  0  0  0  0  0
   42.3892   28.8187   35.2073 C   0  0  0  0  0  0  0  0  0  0  0  0
   41.3600   27.8674   35.2148 N   0  0  0  0  0  0  0  0  0  0  0  0
   42.9569   29.1000   34.0198 N   0  0  0  0  0  0  0  0  0  0  0  0
   43.9559   30.0104   33.9493 C   0  0  0  0  0  0  0  0  0  0  0  0
   44.3815   30.6335   35.0632 N   0  0  0  0  0  0  0  0  0  0  0  0
   43.8101   30.3463   36.2391 C   0  0  0  0  0  0  0  0  0  0  0  0
   43.1947   30.4321   39.4271 H   0  0  0  0  0  0  0  0  0  0  0  0
   40.5496   28.2290   34.6317 H   0  0  0  0  0  0  0  0  0  0  0  0
   40.4000   27.6574   34.8626 H   0  0  0  0  0  0  0  0  0  0  0  0
   44.4807   30.3114   33.0504 H   0  0  0  0  0  0  0  0  0  0  0  0
  1  9  1  0
  2  1  2  0
  3  2  1  0
  4  5  1  0
  4  3  2  0
  5  6  2  0
  6  1  1  0
  7 12  2  0
  8  7  1  0
  9  8  2  0
  9 10  1  0
 10 11  2  0
 11 12  1  0
 13 17  1  0
 13  5  1  0
 14 13  2  0
 15 14  1  0
 15 16  2  0
 16 17  1  0
  2 18  1  0
  3 19  1  0
  7 20  1  0
  8 21  1  0
 11 22  1  0
 14 23  1  0
 15 24  1  0
 25 26  1  0
 26 27  2  0
 27 28  1  0
 28 29  2  0
 29 30  1  0
 29 31  1  0
 31 32  2  0
 32 33  1  0
 33 34  2  0
 34 25  1  0
 34 28  1  0
 26 35  1  0
 30 36  1  0
 30 37  1  0
 32 38  1  0
 16 25  1  0
M  END
>  <DihAtoms>  (1) 
14,15,24,25

>  <DihDeg>  (1) 
47.057953617400344

$$$$
