
     RDKit          3D

 35 38  0  0  0  0  0  0  0  0999 V2000
   46.9570   34.8060   42.0670 C   0  0  0  0  0  0  0  0  0  0  0  0
   48.0530   35.5800   41.8300 C   0  0  0  0  0  0  0  0  0  0  0  0
   48.8200   35.5080   40.6950 C   0  0  0  0  0  0  0  0  0  0  0  0
   48.4650   34.6100   39.7540 N   0  0  0  0  0  0  0  0  0  0  0  0
   47.3860   33.8380   39.9700 C   0  0  0  0  0  0  0  0  0  0  0  0
   46.6290   33.9070   41.0840 N   0  0  0  0  0  0  0  0  0  0  0  0
   44.4950   35.8750   44.7320 C   0  0  0  0  0  0  0  0  0  0  0  0
   45.2040   35.9020   43.5180 C   0  0  0  0  0  0  0  0  0  0  0  0
   46.1450   34.9000   43.2920 C   0  0  0  0  0  0  0  0  0  0  0  0
   46.3450   33.9450   44.2330 N   0  0  0  0  0  0  0  0  0  0  0  0
   45.6360   33.9620   45.3880 C   0  0  0  0  0  0  0  0  0  0  0  0
   44.7240   34.9020   45.6480 N   0  0  0  0  0  0  0  0  0  0  0  0
   46.8910   32.8310   39.0430 C   0  0  0  0  0  0  0  0  0  0  0  0
   47.5910   31.6420   38.8390 C   0  0  0  0  0  0  0  0  0  0  0  0
   46.9030   30.8600   37.9070 C   0  0  0  0  0  0  0  0  0  0  0  0
   45.8010   31.6550   37.6020 C   0  0  0  0  0  0  0  0  0  0  0  0
   45.8330   32.7800   38.2790 O   0  0  0  0  0  0  0  0  0  0  0  0
   44.8120   31.2250   36.6650 N   0  0  0  0  0  0  0  0  0  0  0  0
   43.8170   30.3720   37.0400 C   0  0  0  0  0  0  0  0  0  0  0  0
   42.8560   29.9510   36.1460 C   0  0  0  0  0  0  0  0  0  0  0  0
   42.8960   30.3950   34.8470 C   0  0  0  0  0  0  0  0  0  0  0  0
   42.0560   30.0580   33.9670 O   0  0  0  0  0  0  0  0  0  0  0  0
   43.8870   31.2350   34.5020 N   0  0  0  0  0  0  0  0  0  0  0  0
   44.8360   31.6500   35.3870 C   0  0  0  0  0  0  0  0  0  0  0  0
   45.7640   32.4440   35.0410 O   0  0  0  0  0  0  0  0  0  0  0  0
   48.3419   36.3109   42.5997 H   0  0  0  0  0  0  0  0  0  0  0  0
   49.6948   36.1606   40.5573 H   0  0  0  0  0  0  0  0  0  0  0  0
   43.7456   36.6526   44.9410 H   0  0  0  0  0  0  0  0  0  0  0  0
   45.0215   36.6887   42.7711 H   0  0  0  0  0  0  0  0  0  0  0  0
   45.8178   33.1758   46.1356 H   0  0  0  0  0  0  0  0  0  0  0  0
   48.5339   31.3641   39.3327 H   0  0  0  0  0  0  0  0  0  0  0  0
   47.1657   29.8669   37.5136 H   0  0  0  0  0  0  0  0  0  0  0  0
   43.7802   30.0118   38.0787 H   0  0  0  0  0  0  0  0  0  0  0  0
   42.0615   29.2632   36.4712 H   0  0  0  0  0  0  0  0  0  0  0  0
   43.9306   31.5779   33.5317 H   0  0  0  0  0  0  0  0  0  0  0  0
  1  9  1  0
  2  1  2  0
  3  2  1  0
  4  5  1  0
  4  3  2  0
  5  6  2  0
  6  1  1  0
  7 12  2  0
  8  7  1  0
  9  8  2  0
  9 10  1  0
 10 11  2  0
 11 12  1  0
 13  5  1  0
 14 13  2  0
 15 14  1  0
 16 15  2  0
 16 17  1  0
 17 13  1  0
 18 19  1  0
 18 16  1  0
 20 19  2  0
 21 20  1  0
 22 21  2  0
 23 21  1  0
 23 24  1  0
 24 18  1  0
 25 24  2  0
  2 26  1  0
  3 27  1  0
  7 28  1  0
  8 29  1  0
 11 30  1  0
 14 31  1  0
 15 32  1  0
 19 33  1  0
 20 34  1  0
 23 35  1  0
M  ISO  8  26  14  27  14  28  14  29  14  30  14  31  14  32  14  33  14
M  ISO  2  34  14  35   9
M  END
>  <minimizedAffinity>  (1) 
-5.74227667

>  <minimizedRMSD>  (1) 
1.45235229

$$$$
