
     RDKit          3D

 45 48  0  0  1  0  0  0  0  0999 V2000
   44.7780   33.5110   42.7640 C   0  0  0  0  0  0  0  0  0  0  0  0
   44.5650   32.1630   42.9410 C   0  0  0  0  0  0  0  0  0  0  0  0
   43.4800   31.5560   42.3810 C   0  0  0  0  0  0  0  0  0  0  0  0
   42.5860   32.2220   41.6470 N   0  0  0  0  0  0  0  0  0  0  0  0
   42.7880   33.5230   41.4740 C   0  0  0  0  0  0  0  0  0  0  0  0
   43.8510   34.1500   42.0150 N   0  0  0  0  0  0  0  0  0  0  0  0
   47.2740   34.3240   42.7240 C   0  0  1  0  0  0  0  0  0  0  0  0
   46.3950   35.5280   42.7440 C   0  0  0  0  0  0  0  0  0  0  0  0
   45.8950   34.3220   43.3380 C   0  0  1  0  0  0  0  0  0  0  0  0
   47.8120   33.8020   39.0810 C   0  0  0  0  0  0  0  0  0  0  0  0
   47.5300   34.4540   40.3290 C   0  0  0  0  0  0  0  0  0  0  0  0
   47.5660   33.6480   41.4680 C   0  0  0  0  0  0  0  0  0  0  0  0
   47.8540   32.3290   41.3630 N   0  0  0  0  0  0  0  0  0  0  0  0
   48.1120   31.7430   40.1890 C   0  0  0  0  0  0  0  0  0  0  0  0
   48.0960   32.4640   39.0370 N   0  0  0  0  0  0  0  0  0  0  0  0
   41.8170   34.3130   40.6870 C   0  0  1  0  0  0  0  0  0  0  0  0
   41.3600   35.4720   41.4950 C   0  0  0  0  0  0  0  0  0  0  0  0
   42.3760   34.7330   39.3430 C   0  0  0  0  0  0  0  0  0  0  0  0
   42.6800   33.5440   38.5790 N   0  0  0  0  0  0  0  0  0  0  0  0
   44.0160   33.3210   38.3780 C   0  0  0  0  0  0  0  0  0  0  0  0
   44.5320   32.2550   37.6700 C   0  0  0  0  0  0  0  0  0  0  0  0
   43.6590   31.3450   37.1200 C   0  0  0  0  0  0  0  0  0  0  0  0
   44.1200   30.2240   36.3780 N   0  0  0  0  0  0  0  0  0  0  0  0
   42.3510   31.5780   37.3250 N   0  0  0  0  0  0  0  0  0  0  0  0
   41.8770   32.6240   38.0200 C   0  0  0  0  0  0  0  0  0  0  0  0
   40.6590   32.8280   38.2050 O   0  0  0  0  0  0  0  0  0  0  0  0
   45.2746   31.5714   43.5381 H   0  0  0  0  0  0  0  0  0  0  0  0
   43.3361   30.4771   42.5401 H   0  0  0  0  0  0  0  0  0  0  0  0
   48.2848   34.0586   43.0674 H   0  0  0  0  0  0  0  0  0  0  0  0
   46.6570   36.3824   43.3854 H   0  0  0  0  0  0  0  0  0  0  0  0
   46.0182   36.2134   41.9705 H   0  0  0  0  0  0  0  0  0  0  0  0
   45.4736   34.0768   44.3240 H   0  0  0  0  0  0  0  0  0  0  0  0
   47.7996   34.3854   38.1486 H   0  0  0  0  0  0  0  0  0  0  0  0
   47.2987   35.5280   40.3842 H   0  0  0  0  0  0  0  0  0  0  0  0
   48.3393   30.6673   40.1553 H   0  0  0  0  0  0  0  0  0  0  0  0
   40.9477   33.6791   40.4578 H   0  0  0  0  0  0  0  0  0  0  0  0
   41.4542   35.2332   42.5646 H   0  0  0  0  0  0  0  0  0  0  0  0
   41.9792   36.3501   41.2595 H   0  0  0  0  0  0  0  0  0  0  0  0
   40.3081   35.6912   41.2595 H   0  0  0  0  0  0  0  0  0  0  0  0
   41.6322   35.3392   38.8052 H   0  0  0  0  0  0  0  0  0  0  0  0
   43.2876   35.3320   39.4853 H   0  0  0  0  0  0  0  0  0  0  0  0
   44.7264   34.0409   38.8105 H   0  0  0  0  0  0  0  0  0  0  0  0
   45.6186   32.1353   37.5479 H   0  0  0  0  0  0  0  0  0  0  0  0
   45.1302   30.0772   36.2410 H   0  0  0  0  0  0  0  0  0  0  0  0
   43.4439   29.5583   35.9772 H   0  0  0  0  0  0  0  0  0  0  0  0
  1  2  2  0
  1  9  1  0
  3  2  1  0
  4  3  2  0
  5  4  1  0
  5  6  2  0
  6  1  1  0
  7  8  1  0
  7  9  1  0
  8  9  1  0
 10 11  2  0
 11 12  1  0
 12  7  1  0
 13 12  2  0
 14 13  1  0
 15 10  1  0
 15 14  2  0
 16  5  1  0
 16 17  1  0
 18 16  1  0
 19 18  1  0
 20 19  1  0
 21 20  2  0
 22 24  2  0
 22 21  1  0
 23 22  1  0
 24 25  1  0
 25 26  2  0
 25 19  1  0
  2 27  1  0
  3 28  1  0
  7 29  1  1
  8 30  1  0
  8 31  1  0
  9 32  1  1
 10 33  1  0
 11 34  1  0
 14 35  1  0
 16 36  1  6
 17 37  1  0
 17 38  1  0
 17 39  1  0
 18 40  1  0
 18 41  1  0
 20 42  1  0
 21 43  1  0
 23 44  1  0
 23 45  1  0
M  ISO  8  27  14  28  14  29  13  30  13  31  13  32  13  33  14  34  14
M  ISO  8  35  14  36   8  37   8  38   8  39   8  40   8  41   8  42  14
M  ISO  1  43  14
M  END
>  <minimizedAffinity>  (1) 
-4.79312944

>  <minimizedRMSD>  (1) 
0.654500902

$$$$
