
     RDKit          3D

 40 43  0  0  0  0  0  0  0  0999 V2000
   46.7300   34.7520   42.1060 C   0  0  0  0  0  0  0  0  0  0  0  0
   47.9560   35.3210   41.8850 C   0  0  0  0  0  0  0  0  0  0  0  0
   48.6710   35.2030   40.7170 C   0  0  0  0  0  0  0  0  0  0  0  0
   48.1260   34.4750   39.7190 N   0  0  0  0  0  0  0  0  0  0  0  0
   46.9390   33.9220   39.9260 C   0  0  0  0  0  0  0  0  0  0  0  0
   46.2350   34.0310   41.0620 N   0  0  0  0  0  0  0  0  0  0  0  0
   44.4520   35.9560   44.8820 C   0  0  0  0  0  0  0  0  0  0  0  0
   45.0990   35.9450   43.6220 C   0  0  0  0  0  0  0  0  0  0  0  0
   45.9900   34.8920   43.3650 C   0  0  0  0  0  0  0  0  0  0  0  0
   46.1830   33.9670   44.3060 N   0  0  0  0  0  0  0  0  0  0  0  0
   45.5600   33.9980   45.4950 C   0  0  0  0  0  0  0  0  0  0  0  0
   44.6960   34.9880   45.7850 N   0  0  0  0  0  0  0  0  0  0  0  0
   46.2280   33.1030   38.9340 C   0  0  0  0  0  0  0  0  0  0  0  0
   46.9110   32.3600   37.9760 C   0  0  0  0  0  0  0  0  0  0  0  0
   45.9740   31.6980   37.1910 C   0  0  0  0  0  0  0  0  0  0  0  0
   44.7570   32.0780   37.7220 C   0  0  0  0  0  0  0  0  0  0  0  0
   44.9460   32.8860   38.7220 O   0  0  0  0  0  0  0  0  0  0  0  0
   43.3740   31.8450   37.4960 N   0  0  0  0  0  0  0  0  0  0  0  0
   42.6070   30.9130   36.6940 C   0  0  0  0  0  0  0  0  0  0  0  0
   41.7740   30.1230   37.7240 C   0  0  0  0  0  0  0  0  0  0  0  0
   40.6410   31.0470   38.1070 C   0  0  0  0  0  0  0  0  0  0  0  0
   41.0770   32.4640   38.2300 C   0  0  0  0  0  0  0  0  0  0  0  0
   42.5300   32.7360   38.2280 C   0  0  0  0  0  0  0  0  0  0  0  0
   48.3993   35.9136   42.6988 H   0  0  0  0  0  0  0  0  0  0  0  0
   49.6529   35.6848   40.5995 H   0  0  0  0  0  0  0  0  0  0  0  0
   43.7442   36.7623   45.1246 H   0  0  0  0  0  0  0  0  0  0  0  0
   44.9105   36.7303   42.8751 H   0  0  0  0  0  0  0  0  0  0  0  0
   45.7570   33.2096   46.2363 H   0  0  0  0  0  0  0  0  0  0  0  0
   48.0035   32.3059   37.8599 H   0  0  0  0  0  0  0  0  0  0  0  0
   46.1595   31.0250   36.3409 H   0  0  0  0  0  0  0  0  0  0  0  0
   41.9520   31.4497   35.9919 H   0  0  0  0  0  0  0  0  0  0  0  0
   43.2456   30.2611   36.0799 H   0  0  0  0  0  0  0  0  0  0  0  0
   41.3829   29.1976   37.2760 H   0  0  0  0  0  0  0  0  0  0  0  0
   42.3738   29.8234   38.5960 H   0  0  0  0  0  0  0  0  0  0  0  0
   39.8590   30.9844   37.3359 H   0  0  0  0  0  0  0  0  0  0  0  0
   40.2667   30.7264   39.0904 H   0  0  0  0  0  0  0  0  0  0  0  0
   40.6374   33.0178   37.3873 H   0  0  0  0  0  0  0  0  0  0  0  0
   40.7361   32.7753   39.2284 H   0  0  0  0  0  0  0  0  0  0  0  0
   42.8678   32.7220   39.2748 H   0  0  0  0  0  0  0  0  0  0  0  0
   42.6303   33.7009   37.7095 H   0  0  0  0  0  0  0  0  0  0  0  0
  1  9  1  0
  2  1  2  0
  3  2  1  0
  4  5  1  0
  4  3  2  0
  5  6  2  0
  6  1  1  0
  7 12  2  0
  8  7  1  0
  9  8  2  0
  9 10  1  0
 10 11  2  0
 11 12  1  0
 13  5  1  0
 14 13  2  0
 15 16  2  0
 15 14  1  0
 16 17  1  0
 17 13  1  0
 18 16  1  0
 18 23  1  0
 19 18  1  0
 19 20  1  0
 20 21  1  0
 21 22  1  0
 23 22  1  0
  2 24  1  0
  3 25  1  0
  7 26  1  0
  8 27  1  0
 11 28  1  0
 14 29  1  0
 15 30  1  0
 19 31  1  0
 19 32  1  0
 20 33  1  0
 20 34  1  0
 21 35  1  0
 21 36  1  0
 22 37  1  0
 22 38  1  0
 23 39  1  0
 23 40  1  0
M  ISO  8  24  14  25  14  26  14  27  14  28  14  29  14  30  14  31  13
M  ISO  8  32  13  33  13  34  13  35  13  36  13  37  13  38  13  39  13
M  ISO  1  40  13
M  END
>  <minimizedAffinity>  (1) 
-5.48090744

>  <minimizedRMSD>  (1) 
1.339311

$$$$
