
     RDKit          3D

 38 41  0  0  0  0  0  0  0  0999 V2000
   46.7890   34.7900   42.0770 C   0  0  0  0  0  0  0  0  0  0  0  0
   48.0270   35.3220   41.8930 C   0  0  0  0  0  0  0  0  0  0  0  0
   48.7530   35.2210   40.7300 C   0  0  0  0  0  0  0  0  0  0  0  0
   48.1960   34.5460   39.7000 N   0  0  0  0  0  0  0  0  0  0  0  0
   46.9790   34.0190   39.8700 C   0  0  0  0  0  0  0  0  0  0  0  0
   46.2690   34.1190   41.0110 N   0  0  0  0  0  0  0  0  0  0  0  0
   44.4620   35.9250   44.8370 C   0  0  0  0  0  0  0  0  0  0  0  0
   45.1190   35.9280   43.6020 C   0  0  0  0  0  0  0  0  0  0  0  0
   46.0320   34.9090   43.3260 C   0  0  0  0  0  0  0  0  0  0  0  0
   46.2430   33.9600   44.2670 N   0  0  0  0  0  0  0  0  0  0  0  0
   45.5880   33.9920   45.4520 C   0  0  0  0  0  0  0  0  0  0  0  0
   44.7020   34.9640   45.7420 N   0  0  0  0  0  0  0  0  0  0  0  0
   46.2590   33.2660   38.8430 C   0  0  0  0  0  0  0  0  0  0  0  0
   46.6820   33.2780   37.5110 C   0  0  0  0  0  0  0  0  0  0  0  0
   45.8130   32.4780   36.7630 C   0  0  0  0  0  0  0  0  0  0  0  0
   44.9000   32.0240   37.7070 C   0  0  0  0  0  0  0  0  0  0  0  0
   45.2000   32.5060   38.8940 O   0  0  0  0  0  0  0  0  0  0  0  0
   43.7440   31.1290   37.4680 C   0  0  0  0  0  0  0  0  0  0  0  0
   43.5480   30.7770   36.0060 C   0  0  0  0  0  0  0  0  0  0  0  0
   42.1710   30.1380   36.0460 C   0  0  0  0  0  0  0  0  0  0  0  0
   41.4540   30.7570   37.2360 C   0  0  0  0  0  0  0  0  0  0  0  0
   42.4260   31.8170   37.7680 C   0  0  0  0  0  0  0  0  0  0  0  0
   48.4785   35.8709   42.7326 H   0  0  0  0  0  0  0  0  0  0  0  0
   49.7517   35.6734   40.6409 H   0  0  0  0  0  0  0  0  0  0  0  0
   43.7391   36.7210   45.0692 H   0  0  0  0  0  0  0  0  0  0  0  0
   44.9200   36.7180   42.8629 H   0  0  0  0  0  0  0  0  0  0  0  0
   45.7843   33.2053   46.1954 H   0  0  0  0  0  0  0  0  0  0  0  0
   47.5518   33.8246   37.1176 H   0  0  0  0  0  0  0  0  0  0  0  0
   45.8445   32.2601   35.6853 H   0  0  0  0  0  0  0  0  0  0  0  0
   43.9730   30.2611   38.1039 H   0  0  0  0  0  0  0  0  0  0  0  0
   44.3125   30.0684   35.6548 H   0  0  0  0  0  0  0  0  0  0  0  0
   43.6326   31.6310   35.3179 H   0  0  0  0  0  0  0  0  0  0  0  0
   41.6234   30.3524   35.1164 H   0  0  0  0  0  0  0  0  0  0  0  0
   42.2378   29.0442   36.1412 H   0  0  0  0  0  0  0  0  0  0  0  0
   40.5082   31.2216   36.9203 H   0  0  0  0  0  0  0  0  0  0  0  0
   41.1943   30.0096   38.0002 H   0  0  0  0  0  0  0  0  0  0  0  0
   42.2914   31.9919   38.8456 H   0  0  0  0  0  0  0  0  0  0  0  0
   42.3115   32.8179   37.3264 H   0  0  0  0  0  0  0  0  0  0  0  0
  1  9  1  0
  2  1  2  0
  3  2  1  0
  4  5  1  0
  4  3  2  0
  5  6  2  0
  6  1  1  0
  7 12  2  0
  8  7  1  0
  9  8  2  0
  9 10  1  0
 10 11  2  0
 11 12  1  0
 13 17  1  0
 13  5  1  0
 14 13  2  0
 15 14  1  0
 15 16  2  0
 16 17  1  0
 18 16  1  0
 18 22  1  0
 19 20  1  0
 19 18  1  0
 20 21  1  0
 21 22  1  0
  2 23  1  0
  3 24  1  0
  7 25  1  0
  8 26  1  0
 11 27  1  0
 14 28  1  0
 15 29  1  0
 18 30  1  0
 19 31  1  0
 19 32  1  0
 20 33  1  0
 20 34  1  0
 21 35  1  0
 21 36  1  0
 22 37  1  0
 22 38  1  0
M  ISO  8  23  14  24  14  25  14  26  14  27  14  28  14  29  14  30  13
M  ISO  8  31  13  32  13  33  13  34  13  35  13  36  13  37  13  38  13
M  END
>  <minimizedAffinity>  (1) 
-5.43890476

>  <minimizedRMSD>  (1) 
0.788972855

$$$$
