
     RDKit          3D

 33 36  0  0  0  0  0  0  0  0999 V2000
   46.7760   34.7770   42.0940 C   0  0  0  0  0  0  0  0  0  0  0  0
   48.0270   35.2860   41.9170 C   0  0  0  0  0  0  0  0  0  0  0  0
   48.7510   35.1870   40.7570 C   0  0  0  0  0  0  0  0  0  0  0  0
   48.1800   34.5360   39.7180 N   0  0  0  0  0  0  0  0  0  0  0  0
   46.9520   34.0290   39.8730 C   0  0  0  0  0  0  0  0  0  0  0  0
   46.2450   34.1310   41.0170 N   0  0  0  0  0  0  0  0  0  0  0  0
   44.4540   35.9350   44.8560 C   0  0  0  0  0  0  0  0  0  0  0  0
   45.1200   35.9190   43.6220 C   0  0  0  0  0  0  0  0  0  0  0  0
   46.0260   34.8980   43.3450 C   0  0  0  0  0  0  0  0  0  0  0  0
   46.2240   33.9640   44.2810 N   0  0  0  0  0  0  0  0  0  0  0  0
   45.5750   33.9900   45.4710 C   0  0  0  0  0  0  0  0  0  0  0  0
   44.7030   34.9610   45.7540 N   0  0  0  0  0  0  0  0  0  0  0  0
   46.2210   33.3050   38.8360 C   0  0  0  0  0  0  0  0  0  0  0  0
   46.7960   33.0600   37.5880 C   0  0  0  0  0  0  0  0  0  0  0  0
   45.8520   32.3500   36.8200 C   0  0  0  0  0  0  0  0  0  0  0  0
   44.7530   32.2160   37.6760 C   0  0  0  0  0  0  0  0  0  0  0  0
   45.0200   32.7830   38.8230 O   0  0  0  0  0  0  0  0  0  0  0  0
   43.5180   31.5360   37.3020 C   0  0  0  0  0  0  0  0  0  0  0  0
   43.4740   30.6230   36.2700 C   0  0  0  0  0  0  0  0  0  0  0  0
   42.2570   30.0250   35.9830 C   0  0  0  0  0  0  0  0  0  0  0  0
   41.1170   30.3030   36.6730 N   0  0  0  0  0  0  0  0  0  0  0  0
   41.2030   31.2030   37.6750 C   0  0  0  0  0  0  0  0  0  0  0  0
   42.3850   31.8100   37.9840 N   0  0  0  0  0  0  0  0  0  0  0  0
   48.4889   35.8137   42.7645 H   0  0  0  0  0  0  0  0  0  0  0  0
   49.7585   35.6207   40.6744 H   0  0  0  0  0  0  0  0  0  0  0  0
   43.7354   36.7346   45.0889 H   0  0  0  0  0  0  0  0  0  0  0  0
   44.9284   36.7067   42.8785 H   0  0  0  0  0  0  0  0  0  0  0  0
   45.7692   33.2013   46.2128 H   0  0  0  0  0  0  0  0  0  0  0  0
   47.8018   33.3653   37.2636 H   0  0  0  0  0  0  0  0  0  0  0  0
   45.9549   31.9856   35.7872 H   0  0  0  0  0  0  0  0  0  0  0  0
   44.3770   30.3767   35.6921 H   0  0  0  0  0  0  0  0  0  0  0  0
   42.2103   29.2942   35.1622 H   0  0  0  0  0  0  0  0  0  0  0  0
   40.3017   31.4522   38.2543 H   0  0  0  0  0  0  0  0  0  0  0  0
  1  9  1  0
  2  1  2  0
  3  2  1  0
  4  5  1  0
  4  3  2  0
  5  6  2  0
  6  1  1  0
  7 12  2  0
  8  7  1  0
  9  8  2  0
  9 10  1  0
 10 11  2  0
 11 12  1  0
 13  5  1  0
 14 13  2  0
 15 14  1  0
 15 16  2  0
 16 17  1  0
 17 13  1  0
 18 16  1  0
 18 23  1  0
 19 18  2  0
 20 19  1  0
 20 21  2  0
 21 22  1  0
 22 23  2  0
  2 24  1  0
  3 25  1  0
  7 26  1  0
  8 27  1  0
 11 28  1  0
 14 29  1  0
 15 30  1  0
 19 31  1  0
 20 32  1  0
 22 33  1  0
M  ISO  8  24  14  25  14  26  14  27  14  28  14  29  14  30  14  31  14
M  ISO  2  32  14  33  14
M  END
>  <minimizedAffinity>  (1) 
-5.40461302

>  <minimizedRMSD>  (1) 
0.709692419

$$$$
