
     RDKit          3D

 32 35  0  0  0  0  0  0  0  0999 V2000
   46.7440   34.7800   42.0870 C   0  0  0  0  0  0  0  0  0  0  0  0
   48.0190   35.2790   41.9200 C   0  0  0  0  0  0  0  0  0  0  0  0
   48.7450   35.1630   40.7580 C   0  0  0  0  0  0  0  0  0  0  0  0
   48.1770   34.5230   39.7140 N   0  0  0  0  0  0  0  0  0  0  0  0
   46.9350   34.0340   39.8700 C   0  0  0  0  0  0  0  0  0  0  0  0
   46.2090   34.1410   41.0080 N   0  0  0  0  0  0  0  0  0  0  0  0
   44.4510   35.9440   44.8540 C   0  0  0  0  0  0  0  0  0  0  0  0
   45.1010   35.9430   43.6010 C   0  0  0  0  0  0  0  0  0  0  0  0
   45.9970   34.9140   43.3330 C   0  0  0  0  0  0  0  0  0  0  0  0
   46.2040   33.9660   44.2790 N   0  0  0  0  0  0  0  0  0  0  0  0
   45.5670   33.9920   45.4700 C   0  0  0  0  0  0  0  0  0  0  0  0
   44.7010   34.9680   45.7550 N   0  0  0  0  0  0  0  0  0  0  0  0
   46.2070   33.3100   38.8450 C   0  0  0  0  0  0  0  0  0  0  0  0
   46.7670   33.0720   37.5890 C   0  0  0  0  0  0  0  0  0  0  0  0
   45.8710   32.3610   36.8020 C   0  0  0  0  0  0  0  0  0  0  0  0
   44.7910   32.2070   37.6570 C   0  0  0  0  0  0  0  0  0  0  0  0
   45.0140   32.7670   38.8310 O   0  0  0  0  0  0  0  0  0  0  0  0
   43.5560   31.5040   37.2820 C   0  0  0  0  0  0  0  0  0  0  0  0
   42.3210   31.6320   37.8860 C   0  0  0  0  0  0  0  0  0  0  0  0
   41.4380   30.7980   37.2280 C   0  0  0  0  0  0  0  0  0  0  0  0
   42.1920   30.1850   36.2270 C   0  0  0  0  0  0  0  0  0  0  0  0
   43.4410   30.6420   36.3060 O   0  0  0  0  0  0  0  0  0  0  0  0
   48.4837   35.8020   42.7688 H   0  0  0  0  0  0  0  0  0  0  0  0
   49.7600   35.5800   40.6813 H   0  0  0  0  0  0  0  0  0  0  0  0
   43.7367   36.7439   45.0987 H   0  0  0  0  0  0  0  0  0  0  0  0
   44.9048   36.7317   42.8597 H   0  0  0  0  0  0  0  0  0  0  0  0
   45.7631   33.2030   46.2110 H   0  0  0  0  0  0  0  0  0  0  0  0
   47.7679   33.3987   37.2704 H   0  0  0  0  0  0  0  0  0  0  0  0
   45.9881   32.0101   35.7661 H   0  0  0  0  0  0  0  0  0  0  0  0
   42.0824   32.2829   38.7400 H   0  0  0  0  0  0  0  0  0  0  0  0
   40.3702   30.6492   37.4463 H   0  0  0  0  0  0  0  0  0  0  0  0
   41.8193   29.4506   35.4978 H   0  0  0  0  0  0  0  0  0  0  0  0
  1  9  1  0
  2  1  2  0
  3  2  1  0
  4  5  1  0
  4  3  2  0
  5  6  2  0
  6  1  1  0
  7 12  2  0
  8  7  1  0
  9  8  2  0
  9 10  1  0
 10 11  2  0
 11 12  1  0
 13  5  1  0
 14 13  2  0
 15 14  1  0
 15 16  2  0
 16 17  1  0
 17 13  1  0
 18 16  1  0
 18 19  2  0
 20 19  1  0
 21 22  1  0
 21 20  2  0
 22 18  1  0
  2 23  1  0
  3 24  1  0
  7 25  1  0
  8 26  1  0
 11 27  1  0
 14 28  1  0
 15 29  1  0
 19 30  1  0
 20 31  1  0
 21 32  1  0
M  ISO  8  23  14  24  14  25  14  26  14  27  14  28  14  29  14  30  14
M  ISO  2  31  14  32  14
M  END
>  <minimizedAffinity>  (1) 
-5.3011713

>  <minimizedRMSD>  (1) 
0.781324744

$$$$
