
     RDKit          3D

 43 46  0  0  1  0  0  0  0  0999 V2000
   44.8590   33.4740   42.8050 C   0  0  0  0  0  0  0  0  0  0  0  0
   44.6330   32.1350   43.0340 C   0  0  0  0  0  0  0  0  0  0  0  0
   43.5520   31.5170   42.4870 C   0  0  0  0  0  0  0  0  0  0  0  0
   42.6690   32.1560   41.7180 N   0  0  0  0  0  0  0  0  0  0  0  0
   42.8890   33.4450   41.5020 C   0  0  0  0  0  0  0  0  0  0  0  0
   43.9400   34.0840   42.0200 N   0  0  0  0  0  0  0  0  0  0  0  0
   47.3390   34.3220   42.7120 C   0  0  1  0  0  0  0  0  0  0  0  0
   46.4520   35.5180   42.7450 C   0  0  0  0  0  0  0  0  0  0  0  0
   45.9730   34.3080   43.3520 C   0  0  1  0  0  0  0  0  0  0  0  0
   47.8180   33.8020   39.0610 C   0  0  0  0  0  0  0  0  0  0  0  0
   47.5550   34.4490   40.3140 C   0  0  0  0  0  0  0  0  0  0  0  0
   47.6150   33.6450   41.4540 C   0  0  0  0  0  0  0  0  0  0  0  0
   47.9100   32.3270   41.3390 N   0  0  0  0  0  0  0  0  0  0  0  0
   48.1500   31.7470   40.1630 C   0  0  0  0  0  0  0  0  0  0  0  0
   48.1090   32.4710   39.0090 N   0  0  0  0  0  0  0  0  0  0  0  0
   41.9190   34.1980   40.6650 C   0  0  1  0  0  0  0  0  0  0  0  0
   41.3310   35.2990   41.4730 C   0  0  0  0  0  0  0  0  0  0  0  0
   42.5540   34.7460   39.4010 C   0  0  0  0  0  0  0  0  0  0  0  0
   42.9180   33.5430   38.5710 C   0  0  0  0  0  0  0  0  0  0  0  0
   41.8890   32.6790   38.2040 C   0  0  0  0  0  0  0  0  0  0  0  0
   42.1340   31.5580   37.4490 C   0  0  0  0  0  0  0  0  0  0  0  0
   43.4100   31.2710   37.0400 C   0  0  0  0  0  0  0  0  0  0  0  0
   44.4040   32.1530   37.4250 C   0  0  0  0  0  0  0  0  0  0  0  0
   44.1800   33.2680   38.1740 N   0  0  0  0  0  0  0  0  0  0  0  0
   45.3306   31.5622   43.6627 H   0  0  0  0  0  0  0  0  0  0  0  0
   43.3996   30.4461   42.6870 H   0  0  0  0  0  0  0  0  0  0  0  0
   48.3584   34.0667   43.0371 H   0  0  0  0  0  0  0  0  0  0  0  0
   46.7190   36.3763   43.3791 H   0  0  0  0  0  0  0  0  0  0  0  0
   46.0553   36.1983   41.9770 H   0  0  0  0  0  0  0  0  0  0  0  0
   45.5681   34.0669   44.3460 H   0  0  0  0  0  0  0  0  0  0  0  0
   47.7845   34.3872   38.1302 H   0  0  0  0  0  0  0  0  0  0  0  0
   47.3186   35.5216   40.3736 H   0  0  0  0  0  0  0  0  0  0  0  0
   48.3836   30.6728   40.1235 H   0  0  0  0  0  0  0  0  0  0  0  0
   41.1290   33.5025   40.3454 H   0  0  0  0  0  0  0  0  0  0  0  0
   41.4515   35.0734   42.5428 H   0  0  0  0  0  0  0  0  0  0  0  0
   41.8455   36.2422   41.2370 H   0  0  0  0  0  0  0  0  0  0  0  0
   40.2610   35.3960   41.2370 H   0  0  0  0  0  0  0  0  0  0  0  0
   41.8402   35.3838   38.8590 H   0  0  0  0  0  0  0  0  0  0  0  0
   43.4351   35.3650   39.6256 H   0  0  0  0  0  0  0  0  0  0  0  0
   40.8601   32.8987   38.5251 H   0  0  0  0  0  0  0  0  0  0  0  0
   41.3050   30.8899   37.1724 H   0  0  0  0  0  0  0  0  0  0  0  0
   43.6336   30.3808   36.4338 H   0  0  0  0  0  0  0  0  0  0  0  0
   45.4357   31.9412   37.1075 H   0  0  0  0  0  0  0  0  0  0  0  0
  1  2  2  0
  1  9  1  0
  3  2  1  0
  4  3  2  0
  5  4  1  0
  5  6  2  0
  6  1  1  0
  7  8  1  0
  7  9  1  0
  8  9  1  0
 10 11  2  0
 11 12  1  0
 12  7  1  0
 13 12  2  0
 14 13  1  0
 15 10  1  0
 15 14  2  0
 16 17  1  0
 16  5  1  0
 18 16  1  0
 19 18  1  0
 20 19  2  0
 21 20  1  0
 22 23  1  0
 22 21  2  0
 23 24  2  0
 24 19  1  0
  2 25  1  0
  3 26  1  0
  7 27  1  1
  8 28  1  0
  8 29  1  0
  9 30  1  1
 10 31  1  0
 11 32  1  0
 14 33  1  0
 16 34  1  6
 17 35  1  0
 17 36  1  0
 17 37  1  0
 18 38  1  0
 18 39  1  0
 20 40  1  0
 21 41  1  0
 22 42  1  0
 23 43  1  0
M  ISO  8  25  14  26  14  27  13  28  13  29  13  30  13  31  14  32  14
M  ISO  8  33  14  34   8  35   8  36   8  37   8  38   8  39   8  40  14
M  ISO  3  41  14  42  14  43  14
M  END
>  <minimizedAffinity>  (1) 
-4.65845013

>  <minimizedRMSD>  (1) 
0.483074278

$$$$
