
     RDKit          3D

 44 47  0  0  1  0  0  0  0  0999 V2000
   44.8440   33.4550   42.8050 C   0  0  0  0  0  0  0  0  0  0  0  0
   44.6320   32.1120   43.0250 C   0  0  0  0  0  0  0  0  0  0  0  0
   43.5480   31.4870   42.4800 C   0  0  0  0  0  0  0  0  0  0  0  0
   42.6570   32.1290   41.7230 N   0  0  0  0  0  0  0  0  0  0  0  0
   42.8640   33.4290   41.5110 C   0  0  0  0  0  0  0  0  0  0  0  0
   43.9150   34.0620   42.0320 N   0  0  0  0  0  0  0  0  0  0  0  0
   47.3230   34.3110   42.7120 C   0  0  1  0  0  0  0  0  0  0  0  0
   46.4290   35.5020   42.7510 C   0  0  0  0  0  0  0  0  0  0  0  0
   45.9560   34.2880   43.3530 C   0  0  1  0  0  0  0  0  0  0  0  0
   47.8070   33.7980   39.0610 C   0  0  0  0  0  0  0  0  0  0  0  0
   47.5410   34.4430   40.3150 C   0  0  0  0  0  0  0  0  0  0  0  0
   47.6000   33.6370   41.4520 C   0  0  0  0  0  0  0  0  0  0  0  0
   47.8960   32.3200   41.3400 N   0  0  0  0  0  0  0  0  0  0  0  0
   48.1400   31.7400   40.1610 C   0  0  0  0  0  0  0  0  0  0  0  0
   48.1000   32.4640   39.0100 N   0  0  0  0  0  0  0  0  0  0  0  0
   41.8830   34.1710   40.6910 C   0  0  1  0  0  0  0  0  0  0  0  0
   41.3960   35.3430   41.4670 C   0  0  0  0  0  0  0  0  0  0  0  0
   42.4700   34.6190   39.3660 C   0  0  0  0  0  0  0  0  0  0  0  0
   42.9260   33.4850   38.5470 C   0  0  0  0  0  0  0  0  0  0  0  0
   44.1950   33.2070   38.1220 C   0  0  0  0  0  0  0  0  0  0  0  0
   44.4690   32.0960   37.3540 C   0  0  0  0  0  0  0  0  0  0  0  0
   43.4160   31.2510   37.0170 C   0  0  0  0  0  0  0  0  0  0  0  0
   42.1120   31.4910   37.4260 C   0  0  0  0  0  0  0  0  0  0  0  0
   41.9010   32.6170   38.1910 C   0  0  0  0  0  0  0  0  0  0  0  0
   45.3399   31.5403   43.6431 H   0  0  0  0  0  0  0  0  0  0  0  0
   43.4037   30.4136   42.6722 H   0  0  0  0  0  0  0  0  0  0  0  0
   48.3447   34.0615   43.0344 H   0  0  0  0  0  0  0  0  0  0  0  0
   46.6919   36.3589   43.3886 H   0  0  0  0  0  0  0  0  0  0  0  0
   46.0283   36.1832   41.9859 H   0  0  0  0  0  0  0  0  0  0  0  0
   45.5538   34.0392   44.3462 H   0  0  0  0  0  0  0  0  0  0  0  0
   47.7747   34.3837   38.1305 H   0  0  0  0  0  0  0  0  0  0  0  0
   47.3034   35.5153   40.3763 H   0  0  0  0  0  0  0  0  0  0  0  0
   48.3756   30.6663   40.1209 H   0  0  0  0  0  0  0  0  0  0  0  0
   41.0454   33.4978   40.4561 H   0  0  0  0  0  0  0  0  0  0  0  0
   41.4836   35.1323   42.5431 H   0  0  0  0  0  0  0  0  0  0  0  0
   42.0016   36.2263   41.2159 H   0  0  0  0  0  0  0  0  0  0  0  0
   40.3428   35.5370   41.2159 H   0  0  0  0  0  0  0  0  0  0  0  0
   41.7010   35.1726   38.8073 H   0  0  0  0  0  0  0  0  0  0  0  0
   43.3433   35.2523   39.5810 H   0  0  0  0  0  0  0  0  0  0  0  0
   45.0157   33.8850   38.3991 H   0  0  0  0  0  0  0  0  0  0  0  0
   45.4938   31.8826   37.0160 H   0  0  0  0  0  0  0  0  0  0  0  0
   43.6248   30.3613   36.4047 H   0  0  0  0  0  0  0  0  0  0  0  0
   41.2877   30.8157   37.1530 H   0  0  0  0  0  0  0  0  0  0  0  0
   40.8795   32.8380   38.5340 H   0  0  0  0  0  0  0  0  0  0  0  0
  1  2  2  0
  1  9  1  0
  3  2  1  0
  4  3  2  0
  5  4  1  0
  5  6  2  0
  6  1  1  0
  7  8  1  0
  7  9  1  0
  8  9  1  0
 10 11  2  0
 11 12  1  0
 12  7  1  0
 13 12  2  0
 14 13  1  0
 15 10  1  0
 15 14  2  0
 16 17  1  0
 16  5  1  0
 18 16  1  0
 19 18  1  0
 20 19  2  0
 21 20  1  0
 22 21  2  0
 22 23  1  0
 23 24  2  0
 24 19  1  0
  2 25  1  0
  3 26  1  0
  7 27  1  1
  8 28  1  0
  8 29  1  0
  9 30  1  1
 10 31  1  0
 11 32  1  0
 14 33  1  0
 16 34  1  6
 17 35  1  0
 17 36  1  0
 17 37  1  0
 18 38  1  0
 18 39  1  0
 20 40  1  0
 21 41  1  0
 22 42  1  0
 23 43  1  0
 24 44  1  0
M  ISO  8  25  14  26  14  27  13  28  13  29  13  30  13  31  14  32  14
M  ISO  8  33  14  34   8  35   8  36   8  37   8  38   8  39   8  40  14
M  ISO  4  41  14  42  14  43  14  44  14
M  END
>  <minimizedAffinity>  (1) 
-4.65621853

>  <minimizedRMSD>  (1) 
0.666251659

$$$$
