
     RDKit          3D

 27 29  0  0  0  0  0  0  0  0999 V2000
   46.7940   34.7990   42.0370 C   0  0  0  0  0  0  0  0  0  0  0  0
   48.0340   35.3270   41.8560 C   0  0  0  0  0  0  0  0  0  0  0  0
   48.7600   35.2190   40.6930 C   0  0  0  0  0  0  0  0  0  0  0  0
   48.2010   34.5400   39.6680 N   0  0  0  0  0  0  0  0  0  0  0  0
   46.9810   34.0140   39.8330 C   0  0  0  0  0  0  0  0  0  0  0  0
   46.2670   34.1180   40.9670 N   0  0  0  0  0  0  0  0  0  0  0  0
   44.4660   35.9420   44.7860 C   0  0  0  0  0  0  0  0  0  0  0  0
   45.1260   35.9470   43.5450 C   0  0  0  0  0  0  0  0  0  0  0  0
   46.0310   34.9240   43.2870 C   0  0  0  0  0  0  0  0  0  0  0  0
   46.2430   33.9700   44.2280 N   0  0  0  0  0  0  0  0  0  0  0  0
   45.5810   34.0060   45.4140 C   0  0  0  0  0  0  0  0  0  0  0  0
   44.7030   34.9750   45.6960 N   0  0  0  0  0  0  0  0  0  0  0  0
   46.2710   33.2600   38.8140 C   0  0  0  0  0  0  0  0  0  0  0  0
   46.6880   33.2710   37.4790 C   0  0  0  0  0  0  0  0  0  0  0  0
   45.8410   32.4700   36.7220 C   0  0  0  0  0  0  0  0  0  0  0  0
   44.9360   32.0090   37.6700 C   0  0  0  0  0  0  0  0  0  0  0  0
   45.2140   32.4850   38.8670 O   0  0  0  0  0  0  0  0  0  0  0  0
   43.8250   31.1110   37.3500 C   0  0  0  0  0  0  0  0  0  0  0  0
   42.6630   31.5590   37.2780 O   0  0  0  0  0  0  0  0  0  0  0  0
   48.4860   35.8765   42.6948 H   0  0  0  0  0  0  0  0  0  0  0  0
   49.7594   35.6692   40.6009 H   0  0  0  0  0  0  0  0  0  0  0  0
   43.7448   36.7393   45.0187 H   0  0  0  0  0  0  0  0  0  0  0  0
   44.9326   36.7349   42.8021 H   0  0  0  0  0  0  0  0  0  0  0  0
   45.7715   33.2200   46.1596 H   0  0  0  0  0  0  0  0  0  0  0  0
   47.5527   33.8276   37.0885 H   0  0  0  0  0  0  0  0  0  0  0  0
   45.8779   32.2552   35.6438 H   0  0  0  0  0  0  0  0  0  0  0  0
   44.0147   30.0420   37.1732 H   0  0  0  0  0  0  0  0  0  0  0  0
  1  9  1  0
  2  1  2  0
  3  2  1  0
  4  5  1  0
  4  3  2  0
  5  6  2  0
  6  1  1  0
  7 12  2  0
  8  7  1  0
  9  8  2  0
  9 10  1  0
 10 11  2  0
 11 12  1  0
 13 17  1  0
 13  5  1  0
 14 13  2  0
 15 14  1  0
 15 16  2  0
 16 17  1  0
 18 16  1  0
 19 18  2  0
  2 20  1  0
  3 21  1  0
  7 22  1  0
  8 23  1  0
 11 24  1  0
 14 25  1  0
 15 26  1  0
 18 27  1  0
M  ISO  8  20  14  21  14  22  14  23  14  24  14  25  14  26  14  27   6
M  END
>  <minimizedAffinity>  (1) 
-4.91684341

>  <minimizedRMSD>  (1) 
0.171380535

$$$$
