
     RDKit          3D

 41 44  0  0  0  0  0  0  0  0999 V2000
   44.7550   32.9210   38.9680 C   0  0  0  0  0  0  0  0  0  0  0  0
   45.1180   32.2020   37.8210 C   0  0  0  0  0  0  0  0  0  0  0  0
   43.9600   31.7200   37.2000 C   0  0  0  0  0  0  0  0  0  0  0  0
   42.9490   32.1930   38.0370 C   0  0  0  0  0  0  0  0  0  0  0  0
   43.4570   32.8700   39.0290 O   0  0  0  0  0  0  0  0  0  0  0  0
   46.1050   34.3910   41.9770 C   0  0  0  0  0  0  0  0  0  0  0  0
   47.3810   34.6470   41.5730 C   0  0  0  0  0  0  0  0  0  0  0  0
   47.8720   34.3590   40.3160 C   0  0  0  0  0  0  0  0  0  0  0  0
   47.0280   33.7850   39.4230 N   0  0  0  0  0  0  0  0  0  0  0  0
   45.7780   33.5280   39.7970 C   0  0  0  0  0  0  0  0  0  0  0  0
   45.2840   33.8070   41.0330 N   0  0  0  0  0  0  0  0  0  0  0  0
   44.4570   36.0650   44.9460 C   0  0  0  0  0  0  0  0  0  0  0  0
   44.8990   35.8590   43.6330 C   0  0  0  0  0  0  0  0  0  0  0  0
   45.6040   34.7000   43.3030 C   0  0  0  0  0  0  0  0  0  0  0  0
   45.8240   33.8270   44.2790 N   0  0  0  0  0  0  0  0  0  0  0  0
   45.3990   34.0190   45.5550 C   0  0  0  0  0  0  0  0  0  0  0  0
   44.7240   35.1210   45.8880 N   0  0  0  0  0  0  0  0  0  0  0  0
   41.5180   31.9030   37.7400 C   0  0  0  0  0  0  0  0  0  0  0  0
   40.6130   32.8460   38.5130 C   0  0  0  0  0  0  0  0  0  0  0  0
   39.6410   32.1080   39.2610 N   0  0  0  0  0  0  0  0  0  0  0  0
   39.2910   30.8370   39.0890 C   0  0  0  0  0  0  0  0  0  0  0  0
   38.3360   30.2340   39.8790 C   0  0  0  0  0  0  0  0  0  0  0  0
   37.7210   30.9800   40.8850 C   0  0  0  0  0  0  0  0  0  0  0  0
   36.8360   30.5200   41.6590 O   0  0  0  0  0  0  0  0  0  0  0  0
   38.0810   32.2730   41.0530 N   0  0  0  0  0  0  0  0  0  0  0  0
   39.0240   32.7910   40.2410 C   0  0  0  0  0  0  0  0  0  0  0  0
   39.2920   34.0160   40.4820 O   0  0  0  0  0  0  0  0  0  0  0  0
   46.1469   32.0423   37.4661 H   0  0  0  0  0  0  0  0  0  0  0  0
   43.8697   31.1194   36.2829 H   0  0  0  0  0  0  0  0  0  0  0  0
   48.0649   35.1142   42.2969 H   0  0  0  0  0  0  0  0  0  0  0  0
   48.9139   34.5875   40.0471 H   0  0  0  0  0  0  0  0  0  0  0  0
   43.9021   36.9769   45.2114 H   0  0  0  0  0  0  0  0  0  0  0  0
   44.6900   36.6127   42.8595 H   0  0  0  0  0  0  0  0  0  0  0  0
   45.6133   33.2590   46.3208 H   0  0  0  0  0  0  0  0  0  0  0  0
   41.3387   32.0313   36.6623 H   0  0  0  0  0  0  0  0  0  0  0  0
   41.2946   30.8688   38.0410 H   0  0  0  0  0  0  0  0  0  0  0  0
   41.2222   33.4465   39.2046 H   0  0  0  0  0  0  0  0  0  0  0  0
   40.0907   33.5014   37.8005 H   0  0  0  0  0  0  0  0  0  0  0  0
   39.7766   30.2509   38.2949 H   0  0  0  0  0  0  0  0  0  0  0  0
   38.0628   29.1806   39.7188 H   0  0  0  0  0  0  0  0  0  0  0  0
   37.6438   32.8496   41.7860 H   0  0  0  0  0  0  0  0  0  0  0  0
  1  5  1  0
  1 10  1  0
  2  1  2  0
  3  2  1  0
  3  4  2  0
  4  5  1  0
  6 14  1  0
  7  6  2  0
  8  7  1  0
  9 10  1  0
  9  8  2  0
 10 11  2  0
 11  6  1  0
 12 17  2  0
 13 12  1  0
 14 13  2  0
 14 15  1  0
 15 16  2  0
 16 17  1  0
 18  4  1  0
 18 19  1  0
 19 20  1  0
 20 26  1  0
 21 20  1  0
 21 22  2  0
 22 23  1  0
 23 25  1  0
 23 24  2  0
 26 27  2  0
 26 25  1  0
  2 28  1  0
  3 29  1  0
  7 30  1  0
  8 31  1  0
 12 32  1  0
 13 33  1  0
 16 34  1  0
 18 35  1  0
 18 36  1  0
 19 37  1  0
 19 38  1  0
 21 39  1  0
 22 40  1  0
 25 41  1  0
M  ISO  8  28  14  29  14  30  14  31  14  32  14  33  14  34  14  35   8
M  ISO  6  36   8  37   8  38   8  39  14  40  14  41   9
M  END
>  <minimizedAffinity>  (1) 
-6.24471235

>  <minimizedRMSD>  (1) 
2.26372266

$$$$
