
     RDKit          3D

 39 42  0  0  0  0  0  0  0  0999 V2000
   45.2020   32.9950   38.9190 C   0  0  0  0  0  0  0  0  0  0  0  0
   45.6180   32.4750   37.7030 C   0  0  0  0  0  0  0  0  0  0  0  0
   44.5300   31.9020   37.0440 C   0  0  0  0  0  0  0  0  0  0  0  0
   43.4890   32.1240   37.9410 C   0  0  0  0  0  0  0  0  0  0  0  0
   43.9110   32.7480   38.9960 O   0  0  0  0  0  0  0  0  0  0  0  0
   46.3120   34.5040   42.0090 C   0  0  0  0  0  0  0  0  0  0  0  0
   47.5900   34.8390   41.6640 C   0  0  0  0  0  0  0  0  0  0  0  0
   48.1560   34.5970   40.4290 C   0  0  0  0  0  0  0  0  0  0  0  0
   47.3940   33.9870   39.4890 N   0  0  0  0  0  0  0  0  0  0  0  0
   46.1410   33.6550   39.8150 C   0  0  0  0  0  0  0  0  0  0  0  0
   45.5840   33.8870   41.0180 N   0  0  0  0  0  0  0  0  0  0  0  0
   44.4670   36.0650   44.9210 C   0  0  0  0  0  0  0  0  0  0  0  0
   44.9790   35.9090   43.6180 C   0  0  0  0  0  0  0  0  0  0  0  0
   45.7360   34.7680   43.3170 C   0  0  0  0  0  0  0  0  0  0  0  0
   45.9430   33.8660   44.2840 N   0  0  0  0  0  0  0  0  0  0  0  0
   45.4350   34.0460   45.5300 C   0  0  0  0  0  0  0  0  0  0  0  0
   44.7080   35.1270   45.8510 N   0  0  0  0  0  0  0  0  0  0  0  0
   42.0920   31.6640   37.6430 C   0  0  0  0  0  0  0  0  0  0  0  0
   41.1080   32.7700   37.9490 C   0  0  0  0  0  0  0  0  0  0  0  0
   40.3260   32.5450   39.1790 C   0  0  0  0  0  0  0  0  0  0  0  0
   39.1730   31.7880   38.9570 C   0  0  0  0  0  0  0  0  0  0  0  0
   38.3370   31.5000   40.0430 C   0  0  0  0  0  0  0  0  0  0  0  0
   38.6590   31.9550   41.2720 N   0  0  0  0  0  0  0  0  0  0  0  0
   39.7680   32.6760   41.4520 C   0  0  0  0  0  0  0  0  0  0  0  0
   40.5860   32.9640   40.4240 N   0  0  0  0  0  0  0  0  0  0  0  0
   46.6475   32.5090   37.3172 H   0  0  0  0  0  0  0  0  0  0  0  0
   44.5019   31.4020   36.0646 H   0  0  0  0  0  0  0  0  0  0  0  0
   48.2115   35.3363   42.4233 H   0  0  0  0  0  0  0  0  0  0  0  0
   49.1942   34.8903   40.2141 H   0  0  0  0  0  0  0  0  0  0  0  0
   43.8709   36.9536   45.1761 H   0  0  0  0  0  0  0  0  0  0  0  0
   44.7877   36.6711   42.8481 H   0  0  0  0  0  0  0  0  0  0  0  0
   45.6250   33.2830   46.2992 H   0  0  0  0  0  0  0  0  0  0  0  0
   42.0166   31.3931   36.5796 H   0  0  0  0  0  0  0  0  0  0  0  0
   41.8585   30.7894   38.2679 H   0  0  0  0  0  0  0  0  0  0  0  0
   41.6668   33.7109   38.0601 H   0  0  0  0  0  0  0  0  0  0  0  0
   40.3919   32.8028   37.1146 H   0  0  0  0  0  0  0  0  0  0  0  0
   38.9265   31.4250   37.9483 H   0  0  0  0  0  0  0  0  0  0  0  0
   37.4229   30.9062   39.8951 H   0  0  0  0  0  0  0  0  0  0  0  0
   40.0173   33.0411   42.4592 H   0  0  0  0  0  0  0  0  0  0  0  0
  1  5  1  0
  1 10  1  0
  2  1  2  0
  3  2  1  0
  3  4  2  0
  4  5  1  0
  6 14  1  0
  7  6  2  0
  8  7  1  0
  9 10  1  0
  9  8  2  0
 10 11  2  0
 11  6  1  0
 12 17  2  0
 13 12  1  0
 14 13  2  0
 14 15  1  0
 15 16  2  0
 16 17  1  0
 18  4  1  0
 18 19  1  0
 19 20  1  0
 20 25  1  0
 21 20  2  0
 21 22  1  0
 22 23  2  0
 23 24  1  0
 25 24  2  0
  2 26  1  0
  3 27  1  0
  7 28  1  0
  8 29  1  0
 12 30  1  0
 13 31  1  0
 16 32  1  0
 18 33  1  0
 18 34  1  0
 19 35  1  0
 19 36  1  0
 21 37  1  0
 22 38  1  0
 24 39  1  0
M  ISO  8  26  14  27  14  28  14  29  14  30  14  31  14  32  14  33   8
M  ISO  6  34   8  35   8  36   8  37  14  38  14  39  14
M  END
>  <minimizedAffinity>  (1) 
-5.49899054

>  <minimizedRMSD>  (1) 
1.95176709

$$$$
