
     RDKit          3D

 38 40  0  0  0  0  0  0  0  0999 V2000
   45.9700   33.2290   38.8310 C   0  0  0  0  0  0  0  0  0  0  0  0
   46.4610   33.0060   37.5510 C   0  0  0  0  0  0  0  0  0  0  0  0
   45.5080   32.3140   36.8030 C   0  0  0  0  0  0  0  0  0  0  0  0
   44.4660   32.1630   37.7200 C   0  0  0  0  0  0  0  0  0  0  0  0
   44.7730   32.7000   38.8640 O   0  0  0  0  0  0  0  0  0  0  0  0
   46.6780   34.7190   42.0430 C   0  0  0  0  0  0  0  0  0  0  0  0
   47.9400   35.1810   41.8360 C   0  0  0  0  0  0  0  0  0  0  0  0
   48.6230   35.0310   40.6420 C   0  0  0  0  0  0  0  0  0  0  0  0
   48.0050   34.3930   39.6320 N   0  0  0  0  0  0  0  0  0  0  0  0
   46.7610   33.9360   39.8320 C   0  0  0  0  0  0  0  0  0  0  0  0
   46.0890   34.0770   40.9910 N   0  0  0  0  0  0  0  0  0  0  0  0
   44.4570   35.9890   44.8440 C   0  0  0  0  0  0  0  0  0  0  0  0
   45.0910   35.9410   43.5850 C   0  0  0  0  0  0  0  0  0  0  0  0
   45.9620   34.8810   43.3130 C   0  0  0  0  0  0  0  0  0  0  0  0
   46.1500   33.9620   44.2630 N   0  0  0  0  0  0  0  0  0  0  0  0
   45.5320   34.0230   45.4670 C   0  0  0  0  0  0  0  0  0  0  0  0
   44.6950   35.0190   45.7620 N   0  0  0  0  0  0  0  0  0  0  0  0
   43.2030   31.4580   37.3380 C   0  0  0  0  0  0  0  0  0  0  0  0
   42.0180   32.0660   38.0400 C   0  0  0  0  0  0  0  0  0  0  0  0
   41.8920   33.4790   37.9170 N   0  0  0  0  0  0  0  0  0  0  0  0
   41.7340   34.3500   39.0560 C   0  0  0  0  0  0  0  0  0  0  0  0
   42.3570   33.9740   40.1440 N   0  0  0  0  0  0  0  0  0  0  0  0
   40.9110   35.5170   38.8410 N   0  0  0  0  0  0  0  0  0  0  0  0
   42.2620   34.5810   40.9850 H   0  0  0  0  0  0  0  0  0  0  0  0
   47.4476   33.3253   37.1841 H   0  0  0  0  0  0  0  0  0  0  0  0
   45.5634   31.9743   35.7582 H   0  0  0  0  0  0  0  0  0  0  0  0
   48.4453   35.7022   42.6625 H   0  0  0  0  0  0  0  0  0  0  0  0
   49.6438   35.4229   40.5221 H   0  0  0  0  0  0  0  0  0  0  0  0
   43.7690   36.8137   45.0817 H   0  0  0  0  0  0  0  0  0  0  0  0
   44.9043   36.7212   42.8324 H   0  0  0  0  0  0  0  0  0  0  0  0
   45.7235   33.2383   46.2137 H   0  0  0  0  0  0  0  0  0  0  0  0
   43.0590   31.5399   36.2505 H   0  0  0  0  0  0  0  0  0  0  0  0
   43.2850   30.4020   37.6349 H   0  0  0  0  0  0  0  0  0  0  0  0
   41.1074   31.6072   37.6273 H   0  0  0  0  0  0  0  0  0  0  0  0
   42.1673   31.8680   39.1117 H   0  0  0  0  0  0  0  0  0  0  0  0
   41.9146   33.8965   36.9757 H   0  0  0  0  0  0  0  0  0  0  0  0
   40.7532   36.1845   39.6094 H   0  0  0  0  0  0  0  0  0  0  0  0
   40.4818   35.6818   37.9193 H   0  0  0  0  0  0  0  0  0  0  0  0
  1  5  1  0
  1 10  1  0
  2  1  2  0
  3  2  1  0
  3  4  2  0
  4  5  1  0
  6 14  1  0
  7  6  2  0
  8  7  1  0
  9 10  1  0
  9  8  2  0
 10 11  2  0
 11  6  1  0
 12 17  2  0
 13 12  1  0
 14 13  2  0
 14 15  1  0
 15 16  2  0
 16 17  1  0
 18  4  1  0
 18 19  1  0
 20 19  1  0
 20 21  1  0
 21 22  2  0
 22 24  1  0
 23 21  1  0
  2 25  1  0
  3 26  1  0
  7 27  1  0
  8 28  1  0
 12 29  1  0
 13 30  1  0
 16 31  1  0
 18 32  1  0
 18 33  1  0
 19 34  1  0
 19 35  1  0
 20 36  1  0
 23 37  1  0
 23 38  1  0
M  ISO  8  25  14  26  14  27  14  28  14  29  14  30  14  31  14  32   8
M  ISO  3  33   8  34   8  35   8
M  END
>  <minimizedAffinity>  (1) 
-5.4971199

>  <minimizedRMSD>  (1) 
1.61716473

$$$$
