
     RDKit          3D

 38 41  0  0  0  0  0  0  0  0999 V2000
   46.1580   33.2860   38.8650 C   0  0  0  0  0  0  0  0  0  0  0  0
   46.6970   33.0730   37.6030 C   0  0  0  0  0  0  0  0  0  0  0  0
   45.7790   32.3630   36.8260 C   0  0  0  0  0  0  0  0  0  0  0  0
   44.7130   32.1890   37.7020 C   0  0  0  0  0  0  0  0  0  0  0  0
   44.9690   32.7300   38.8530 O   0  0  0  0  0  0  0  0  0  0  0  0
   46.7530   34.7620   42.1040 C   0  0  0  0  0  0  0  0  0  0  0  0
   48.0020   35.2640   41.9220 C   0  0  0  0  0  0  0  0  0  0  0  0
   48.7180   35.1540   40.7460 C   0  0  0  0  0  0  0  0  0  0  0  0
   48.1400   34.5050   39.7120 N   0  0  0  0  0  0  0  0  0  0  0  0
   46.9130   34.0090   39.8820 C   0  0  0  0  0  0  0  0  0  0  0  0
   46.2020   34.1110   41.0310 N   0  0  0  0  0  0  0  0  0  0  0  0
   44.4540   35.9440   44.8770 C   0  0  0  0  0  0  0  0  0  0  0  0
   45.1100   35.9280   43.6270 C   0  0  0  0  0  0  0  0  0  0  0  0
   46.0120   34.8890   43.3590 C   0  0  0  0  0  0  0  0  0  0  0  0
   46.2130   33.9590   44.2970 N   0  0  0  0  0  0  0  0  0  0  0  0
   45.5740   33.9920   45.4900 C   0  0  0  0  0  0  0  0  0  0  0  0
   44.7000   34.9800   45.7760 N   0  0  0  0  0  0  0  0  0  0  0  0
   43.4820   31.4670   37.2870 C   0  0  0  0  0  0  0  0  0  0  0  0
   42.3340   31.7700   38.2190 C   0  0  0  0  0  0  0  0  0  0  0  0
   41.0210   31.3520   37.7220 C   0  0  0  0  0  0  0  0  0  0  0  0
   39.7520   31.9040   37.9280 C   0  0  0  0  0  0  0  0  0  0  0  0
   38.6740   31.3180   37.3440 C   0  0  0  0  0  0  0  0  0  0  0  0
   38.9030   30.1590   36.5450 C   0  0  0  0  0  0  0  0  0  0  0  0
   40.7800   29.9650   36.6880 S   0  0  0  0  0  0  0  0  0  0  0  0
   47.6893   33.4099   37.2685 H   0  0  0  0  0  0  0  0  0  0  0  0
   45.8750   32.0261   35.7833 H   0  0  0  0  0  0  0  0  0  0  0  0
   48.4730   35.7915   42.7645 H   0  0  0  0  0  0  0  0  0  0  0  0
   49.7274   35.5816   40.6544 H   0  0  0  0  0  0  0  0  0  0  0  0
   43.7409   36.7475   45.1135 H   0  0  0  0  0  0  0  0  0  0  0  0
   44.9177   36.7128   42.8806 H   0  0  0  0  0  0  0  0  0  0  0  0
   45.7691   33.2055   46.2339 H   0  0  0  0  0  0  0  0  0  0  0  0
   43.2092   31.7784   36.2679 H   0  0  0  0  0  0  0  0  0  0  0  0
   43.6830   30.3860   37.3202 H   0  0  0  0  0  0  0  0  0  0  0  0
   42.5204   31.2543   39.1726 H   0  0  0  0  0  0  0  0  0  0  0  0
   42.2954   32.8645   38.3220 H   0  0  0  0  0  0  0  0  0  0  0  0
   39.6286   32.8000   38.5541 H   0  0  0  0  0  0  0  0  0  0  0  0
   37.6608   31.7231   37.4826 H   0  0  0  0  0  0  0  0  0  0  0  0
   38.1800   29.5414   35.9920 H   0  0  0  0  0  0  0  0  0  0  0  0
  1 10  1  0
  2  1  2  0
  3  2  1  0
  3  4  2  0
  4  5  1  0
  5  1  1  0
  6 14  1  0
  7  6  2  0
  8  7  1  0
  9 10  1  0
  9  8  2  0
 10 11  2  0
 11  6  1  0
 12 17  2  0
 13 12  1  0
 14 13  2  0
 14 15  1  0
 15 16  2  0
 16 17  1  0
 18  4  1  0
 18 19  1  0
 20 21  2  0
 20 19  1  0
 22 21  1  0
 23 24  1  0
 23 22  2  0
 24 20  1  0
  2 25  1  0
  3 26  1  0
  7 27  1  0
  8 28  1  0
 12 29  1  0
 13 30  1  0
 16 31  1  0
 18 32  1  0
 18 33  1  0
 19 34  1  0
 19 35  1  0
 21 36  1  0
 22 37  1  0
 23 38  1  0
M  ISO  8  25  14  26  14  27  14  28  14  29  14  30  14  31  14  32   8
M  ISO  6  33   8  34   8  35   8  36  14  37  14  38  14
M  END
>  <minimizedAffinity>  (1) 
-5.30446291

>  <minimizedRMSD>  (1) 
0.191271439

$$$$
