
     RDKit          3D

 36 38  0  0  1  0  0  0  0  0999 V2000
   44.0240   33.8160   42.3550 C   0  0  0  0  0  0  0  0  0  0  0  0
   43.9510   32.4430   42.2590 C   0  0  0  0  0  0  0  0  0  0  0  0
   43.1000   31.8620   41.3680 C   0  0  0  0  0  0  0  0  0  0  0  0
   42.3080   32.5730   40.5590 N   0  0  0  0  0  0  0  0  0  0  0  0
   42.3840   33.8970   40.6570 C   0  0  0  0  0  0  0  0  0  0  0  0
   43.2070   34.4950   41.5180 N   0  0  0  0  0  0  0  0  0  0  0  0
   46.3820   34.6290   43.1720 C   0  0  1  0  0  0  0  0  0  0  0  0
   45.5330   35.8350   42.9580 C   0  0  0  0  0  0  0  0  0  0  0  0
   44.8770   34.6030   43.2970 C   0  0  1  0  0  0  0  0  0  0  0  0
   48.0630   34.2710   39.8740 C   0  0  0  0  0  0  0  0  0  0  0  0
   47.3800   34.8610   40.9930 C   0  0  0  0  0  0  0  0  0  0  0  0
   47.0780   34.0080   42.0560 C   0  0  0  0  0  0  0  0  0  0  0  0
   47.4280   32.7000   41.9950 N   0  0  0  0  0  0  0  0  0  0  0  0
   48.0600   32.1710   40.9490 C   0  0  0  0  0  0  0  0  0  0  0  0
   48.3870   32.9480   39.8750 N   0  0  0  0  0  0  0  0  0  0  0  0
   41.5090   34.7170   39.7860 C   0  0  1  0  0  0  0  0  0  0  0  0
   40.8790   35.7860   40.6070 C   0  0  0  0  0  0  0  0  0  0  0  0
   42.2640   35.3110   38.6140 C   0  0  0  0  0  0  0  0  0  0  0  0
   43.2620   34.3320   38.2390 N   0  0  0  0  0  0  0  0  0  0  0  0
   44.5822   31.8142   42.9041 H   0  0  0  0  0  0  0  0  0  0  0  0
   43.0630   30.7641   41.3119 H   0  0  0  0  0  0  0  0  0  0  0  0
   47.2275   34.3452   43.8158 H   0  0  0  0  0  0  0  0  0  0  0  0
   45.5601   36.6562   43.6894 H   0  0  0  0  0  0  0  0  0  0  0  0
   45.4248   36.5587   42.1367 H   0  0  0  0  0  0  0  0  0  0  0  0
   44.1536   34.3174   44.0749 H   0  0  0  0  0  0  0  0  0  0  0  0
   48.3269   34.8949   39.0073 H   0  0  0  0  0  0  0  0  0  0  0  0
   47.1099   35.9272   41.0106 H   0  0  0  0  0  0  0  0  0  0  0  0
   48.3200   31.1022   40.9503 H   0  0  0  0  0  0  0  0  0  0  0  0
   40.7321   34.0662   39.3584 H   0  0  0  0  0  0  0  0  0  0  0  0
   41.0143   35.5564   41.6742 H   0  0  0  0  0  0  0  0  0  0  0  0
   41.3522   36.7520   40.3769 H   0  0  0  0  0  0  0  0  0  0  0  0
   39.8047   35.8399   40.3769 H   0  0  0  0  0  0  0  0  0  0  0  0
   41.5787   35.4979   37.7741 H   0  0  0  0  0  0  0  0  0  0  0  0
   42.7262   36.2728   38.8808 H   0  0  0  0  0  0  0  0  0  0  0  0
   43.6783   33.9236   39.0880 H   0  0  0  0  0  0  0  0  0  0  0  0
   42.8200   33.5875   37.6811 H   0  0  0  0  0  0  0  0  0  0  0  0
  1  9  1  0
  2  1  2  0
  3  2  1  0
  4  5  1  0
  4  3  2  0
  5  6  2  0
  6  1  1  0
  7  9  1  0
  8  7  1  0
  8  9  1  0
 10 15  2  0
 10 11  1  0
 11 12  2  0
 12  7  1  0
 13 12  1  0
 14 13  2  0
 15 14  1  0
 16 17  1  0
 16  5  1  0
 18 16  1  0
 19 18  1  0
  2 20  1  0
  3 21  1  0
  7 22  1  1
  8 23  1  0
  8 24  1  0
  9 25  1  1
 10 26  1  0
 11 27  1  0
 14 28  1  0
 16 29  1  6
 17 30  1  0
 17 31  1  0
 17 32  1  0
 18 33  1  0
 18 34  1  0
 19 35  1  0
 19 36  1  0
M  ISO  8  20  14  21  14  22  13  23  13  24  13  25  13  26  14  27  14
M  ISO  8  28  14  29   8  30   8  31   8  32   8  33   8  34   8  35   5
M  ISO  1  36   5
M  END
>  <minimizedAffinity>  (1) 
-4.48711586

>  <minimizedRMSD>  (1) 
0.610942543

$$$$
