
     RDKit          3D

 37 40  0  0  0  0  0  0  0  0999 V2000
   46.1080   33.1240   38.9140 C   0  0  0  0  0  0  0  0  0  0  0  0
   46.4250   33.1910   37.5580 C   0  0  0  0  0  0  0  0  0  0  0  0
   45.5640   32.3470   36.8540 C   0  0  0  0  0  0  0  0  0  0  0  0
   44.7600   31.8100   37.8610 C   0  0  0  0  0  0  0  0  0  0  0  0
   45.1190   32.2890   39.0090 O   0  0  0  0  0  0  0  0  0  0  0  0
   46.6930   34.7360   42.0960 C   0  0  0  0  0  0  0  0  0  0  0  0
   47.9250   35.2740   41.8700 C   0  0  0  0  0  0  0  0  0  0  0  0
   48.6260   35.1440   40.6870 C   0  0  0  0  0  0  0  0  0  0  0  0
   48.0530   34.4370   39.6890 N   0  0  0  0  0  0  0  0  0  0  0  0
   46.8460   33.9040   39.8970 C   0  0  0  0  0  0  0  0  0  0  0  0
   46.1590   34.0290   41.0520 N   0  0  0  0  0  0  0  0  0  0  0  0
   44.4580   35.9690   44.8760 C   0  0  0  0  0  0  0  0  0  0  0  0
   45.0880   35.9490   43.6120 C   0  0  0  0  0  0  0  0  0  0  0  0
   45.9740   34.8870   43.3520 C   0  0  0  0  0  0  0  0  0  0  0  0
   46.1730   33.9590   44.3000 N   0  0  0  0  0  0  0  0  0  0  0  0
   45.5440   34.0210   45.4990 C   0  0  0  0  0  0  0  0  0  0  0  0
   44.7000   35.0060   45.7890 N   0  0  0  0  0  0  0  0  0  0  0  0
   43.6880   30.8440   37.5380 C   0  0  0  0  0  0  0  0  0  0  0  0
   42.3700   31.5140   37.3120 C   0  0  0  0  0  0  0  0  0  0  0  0
   41.8760   32.1130   38.5150 N   0  0  0  0  0  0  0  0  0  0  0  0
   41.5330   31.7790   39.7670 C   0  0  0  0  0  0  0  0  0  0  0  0
   41.0760   32.8610   40.4340 N   0  0  0  0  0  0  0  0  0  0  0  0
   41.1380   33.9110   39.5660 C   0  0  0  0  0  0  0  0  0  0  0  0
   41.6270   33.4250   38.4130 N   0  0  0  0  0  0  0  0  0  0  0  0
   47.2218   33.8071   37.1158 H   0  0  0  0  0  0  0  0  0  0  0  0
   45.5280   32.1529   35.7719 H   0  0  0  0  0  0  0  0  0  0  0  0
   48.3915   35.8494   42.6832 H   0  0  0  0  0  0  0  0  0  0  0  0
   49.6185   35.6013   40.5618 H   0  0  0  0  0  0  0  0  0  0  0  0
   43.7590   36.7827   45.1197 H   0  0  0  0  0  0  0  0  0  0  0  0
   44.8943   36.7305   42.8625 H   0  0  0  0  0  0  0  0  0  0  0  0
   45.7362   33.2391   46.2484 H   0  0  0  0  0  0  0  0  0  0  0  0
   43.9678   30.2969   36.6257 H   0  0  0  0  0  0  0  0  0  0  0  0
   43.5775   30.1643   38.3958 H   0  0  0  0  0  0  0  0  0  0  0  0
   42.4919   32.2950   36.5471 H   0  0  0  0  0  0  0  0  0  0  0  0
   41.6471   30.7537   36.9814 H   0  0  0  0  0  0  0  0  0  0  0  0
   41.6124   30.7672   40.1911 H   0  0  0  0  0  0  0  0  0  0  0  0
   40.8451   34.9515   39.7699 H   0  0  0  0  0  0  0  0  0  0  0  0
  1  5  1  0
  1 10  1  0
  2  1  2  0
  3  2  1  0
  3  4  2  0
  4  5  1  0
  6 14  1  0
  7  6  2  0
  8  7  1  0
  9 10  1  0
  9  8  2  0
 10 11  2  0
 11  6  1  0
 12 17  2  0
 13 12  1  0
 14 13  2  0
 14 15  1  0
 15 16  2  0
 16 17  1  0
 18  4  1  0
 19 18  1  0
 19 20  1  0
 20 21  1  0
 21 22  2  0
 23 22  1  0
 24 20  1  0
 24 23  2  0
  2 25  1  0
  3 26  1  0
  7 27  1  0
  8 28  1  0
 12 29  1  0
 13 30  1  0
 16 31  1  0
 18 32  1  0
 18 33  1  0
 19 34  1  0
 19 35  1  0
 21 36  1  0
 23 37  1  0
M  ISO  8  25  14  26  14  27  14  28  14  29  14  30  14  31  14  32   8
M  ISO  5  33   8  34   8  35   8  36  14  37  14
M  END
>  <minimizedAffinity>  (1) 
-5.24470758

>  <minimizedRMSD>  (1) 
1.06265593

$$$$
