
     RDKit          3D

 32 34  0  0  0  0  0  0  0  0999 V2000
   46.6850   34.7150   42.0350 C   0  0  0  0  0  0  0  0  0  0  0  0
   47.9360   35.1890   41.8210 C   0  0  0  0  0  0  0  0  0  0  0  0
   48.6270   35.0490   40.6290 C   0  0  0  0  0  0  0  0  0  0  0  0
   48.0130   34.4010   39.6160 N   0  0  0  0  0  0  0  0  0  0  0  0
   46.7790   33.9290   39.8130 C   0  0  0  0  0  0  0  0  0  0  0  0
   46.0960   34.0610   40.9800 N   0  0  0  0  0  0  0  0  0  0  0  0
   44.4610   35.9780   44.8310 C   0  0  0  0  0  0  0  0  0  0  0  0
   45.0970   35.9220   43.5800 C   0  0  0  0  0  0  0  0  0  0  0  0
   45.9730   34.8710   43.2970 C   0  0  0  0  0  0  0  0  0  0  0  0
   46.1570   33.9650   44.2490 N   0  0  0  0  0  0  0  0  0  0  0  0
   45.5430   34.0170   45.4560 C   0  0  0  0  0  0  0  0  0  0  0  0
   44.6990   35.0130   45.7530 N   0  0  0  0  0  0  0  0  0  0  0  0
   45.9870   33.2150   38.8330 C   0  0  0  0  0  0  0  0  0  0  0  0
   46.4830   33.0190   37.5360 C   0  0  0  0  0  0  0  0  0  0  0  0
   45.5290   32.3050   36.7900 C   0  0  0  0  0  0  0  0  0  0  0  0
   44.5110   32.1210   37.7200 C   0  0  0  0  0  0  0  0  0  0  0  0
   44.8080   32.6510   38.8650 O   0  0  0  0  0  0  0  0  0  0  0  0
   43.2760   31.3860   37.3210 C   0  0  0  0  0  0  0  0  0  0  0  0
   42.0470   32.0230   37.9180 C   0  0  0  0  0  0  0  0  0  0  0  0
   42.0830   33.4010   37.8830 O   0  0  0  0  0  0  0  0  0  0  0  0
   48.4344   35.7186   42.6463 H   0  0  0  0  0  0  0  0  0  0  0  0
   49.6434   35.4528   40.5113 H   0  0  0  0  0  0  0  0  0  0  0  0
   43.7712   36.8031   45.0622 H   0  0  0  0  0  0  0  0  0  0  0  0
   44.9065   36.7012   42.8273 H   0  0  0  0  0  0  0  0  0  0  0  0
   45.7404   33.2316   46.2005 H   0  0  0  0  0  0  0  0  0  0  0  0
   47.4579   33.3667   37.1637 H   0  0  0  0  0  0  0  0  0  0  0  0
   45.5755   31.9765   35.7412 H   0  0  0  0  0  0  0  0  0  0  0  0
   43.1898   31.3976   36.2244 H   0  0  0  0  0  0  0  0  0  0  0  0
   43.3492   30.3533   37.6928 H   0  0  0  0  0  0  0  0  0  0  0  0
   41.1662   31.6810   37.3547 H   0  0  0  0  0  0  0  0  0  0  0  0
   42.0010   31.7219   38.9750 H   0  0  0  0  0  0  0  0  0  0  0  0
   42.0922   33.7545   38.8077 H   0  0  0  0  0  0  0  0  0  0  0  0
  1  9  1  0
  2  1  2  0
  3  2  1  0
  4  5  1  0
  4  3  2  0
  5  6  2  0
  6  1  1  0
  7 12  2  0
  8  7  1  0
  9  8  2  0
  9 10  1  0
 10 11  2  0
 11 12  1  0
 13 17  1  0
 13  5  1  0
 14 13  2  0
 15 14  1  0
 15 16  2  0
 16 17  1  0
 18 16  1  0
 18 19  1  0
 20 19  1  0
  2 21  1  0
  3 22  1  0
  7 23  1  0
  8 24  1  0
 11 25  1  0
 14 26  1  0
 15 27  1  0
 18 28  1  0
 18 29  1  0
 19 30  1  0
 19 31  1  0
 20 32  1  0
M  ISO  8  21  14  22  14  23  14  24  14  25  14  26  14  27  14  28   8
M  ISO  4  29   8  30   8  31   8  32   3
M  END
>  <minimizedAffinity>  (1) 
-5.05957317

>  <minimizedRMSD>  (1) 
0.0912456065

$$$$
