
     RDKit          3D

 51 55  0  0  1  0  0  0  0  0999 V2000
   45.6520   33.0990   38.8040 C   0  0  0  0  0  0  0  0  0  0  0  0
   45.9620   33.0700   37.4380 C   0  0  0  0  0  0  0  0  0  0  0  0
   44.9920   32.3490   36.7480 C   0  0  0  0  0  0  0  0  0  0  0  0
   44.1310   31.9750   37.7700 C   0  0  0  0  0  0  0  0  0  0  0  0
   44.5440   32.4220   38.9240 O   0  0  0  0  0  0  0  0  0  0  0  0
   46.5160   34.6160   41.9540 C   0  0  0  0  0  0  0  0  0  0  0  0
   47.7910   35.0250   41.6890 C   0  0  0  0  0  0  0  0  0  0  0  0
   48.4380   34.8320   40.4760 C   0  0  0  0  0  0  0  0  0  0  0  0
   47.7550   34.1960   39.5000 N   0  0  0  0  0  0  0  0  0  0  0  0
   46.5120   33.7930   39.7480 C   0  0  0  0  0  0  0  0  0  0  0  0
   45.8740   33.9750   40.9220 N   0  0  0  0  0  0  0  0  0  0  0  0
   44.4550   36.0600   44.7840 C   0  0  0  0  0  0  0  0  0  0  0  0
   45.0450   35.9400   43.5160 C   0  0  0  0  0  0  0  0  0  0  0  0
   45.8630   34.8310   43.2320 C   0  0  0  0  0  0  0  0  0  0  0  0
   46.0360   33.9430   44.1930 N   0  0  0  0  0  0  0  0  0  0  0  0
   45.4600   34.0690   45.4200 C   0  0  0  0  0  0  0  0  0  0  0  0
   44.6760   35.1130   45.7190 N   0  0  0  0  0  0  0  0  0  0  0  0
   42.9130   31.1600   37.4710 C   0  0  0  0  0  0  0  0  0  0  0  0
   41.7810   31.5210   38.4260 C   0  0  0  0  0  0  0  0  0  0  0  0
   41.2610   32.9260   38.1100 C   0  0  1  0  0  0  0  0  0  0  0  0
   39.7470   33.0460   38.0420 C   0  0  0  0  0  0  0  0  0  0  0  0
   40.5290   33.6710   39.1500 C   0  0  2  0  0  0  0  0  0  0  0  0
   40.7920   35.1570   39.1840 C   0  0  0  0  0  0  0  0  0  0  0  0
   40.2140   35.8570   40.3700 C   0  0  0  0  0  0  0  0  0  0  0  0
   41.2480   35.8000   41.4490 C   0  0  0  0  0  0  0  0  0  0  0  0
   42.4590   35.1200   40.8210 C   0  0  0  0  0  0  0  0  0  0  0  0
   42.2820   35.3870   39.3410 C   0  0  0  0  0  0  0  0  0  0  0  0
   46.8411   33.5462   36.9792 H   0  0  0  0  0  0  0  0  0  0  0  0
   44.9252   32.1319   35.6717 H   0  0  0  0  0  0  0  0  0  0  0  0
   48.3419   35.5413   42.4889 H   0  0  0  0  0  0  0  0  0  0  0  0
   49.4679   35.1838   40.3160 H   0  0  0  0  0  0  0  0  0  0  0  0
   43.8142   36.9238   45.0146 H   0  0  0  0  0  0  0  0  0  0  0  0
   44.8689   36.7084   42.7489 H   0  0  0  0  0  0  0  0  0  0  0  0
   45.6423   33.2970   46.1821 H   0  0  0  0  0  0  0  0  0  0  0  0
   42.5911   31.3560   36.4376 H   0  0  0  0  0  0  0  0  0  0  0  0
   43.1581   30.0950   37.5965 H   0  0  0  0  0  0  0  0  0  0  0  0
   40.9625   30.7950   38.3124 H   0  0  0  0  0  0  0  0  0  0  0  0
   42.1576   31.4980   39.4593 H   0  0  0  0  0  0  0  0  0  0  0  0
   42.1175   33.1736   37.4657 H   0  0  0  0  0  0  0  0  0  0  0  0
   39.2752   33.6756   37.2733 H   0  0  0  0  0  0  0  0  0  0  0  0
   38.9048   32.3417   37.9741 H   0  0  0  0  0  0  0  0  0  0  0  0
   40.4161   33.6246   40.2432 H   0  0  0  0  0  0  0  0  0  0  0  0
   40.3448   35.5430   38.2561 H   0  0  0  0  0  0  0  0  0  0  0  0
   39.9858   36.9033   40.1186 H   0  0  0  0  0  0  0  0  0  0  0  0
   39.2776   35.3792   40.6938 H   0  0  0  0  0  0  0  0  0  0  0  0
   41.5086   36.8145   41.7850 H   0  0  0  0  0  0  0  0  0  0  0  0
   40.8857   35.2521   42.3313 H   0  0  0  0  0  0  0  0  0  0  0  0
   43.3953   35.5625   41.1917 H   0  0  0  0  0  0  0  0  0  0  0  0
   42.5219   34.0481   41.0598 H   0  0  0  0  0  0  0  0  0  0  0  0
   42.8663   34.6829   38.7304 H   0  0  0  0  0  0  0  0  0  0  0  0
   42.6253   36.3796   39.0142 H   0  0  0  0  0  0  0  0  0  0  0  0
  1  5  1  0
  1 10  1  0
  2  1  2  0
  3  2  1  0
  3  4  2  0
  4  5  1  0
  6 14  1  0
  7  6  2  0
  8  7  1  0
  9 10  1  0
  9  8  2  0
 10 11  2  0
 11  6  1  0
 12 17  2  0
 13 12  1  0
 14 13  2  0
 14 15  1  0
 15 16  2  0
 16 17  1  0
 18  4  1  0
 18 19  1  0
 20 19  1  0
 20 22  1  0
 21 20  1  0
 21 22  1  0
 22 23  1  0
 23 27  1  0
 23 24  1  0
 24 25  1  0
 26 25  1  0
 27 26  1  0
  2 28  1  0
  3 29  1  0
  7 30  1  0
  8 31  1  0
 12 32  1  0
 13 33  1  0
 16 34  1  0
 18 35  1  0
 18 36  1  0
 19 37  1  0
 19 38  1  0
 20 39  1  6
 21 40  1  0
 21 41  1  0
 22 42  1  1
 23 43  1  0
 24 44  1  0
 24 45  1  0
 25 46  1  0
 25 47  1  0
 26 48  1  0
 26 49  1  0
 27 50  1  0
 27 51  1  0
M  ISO  8  28  14  29  14  30  14  31  14  32  14  33  14  34  14  35   8
M  ISO  8  36   8  37   8  38   8  39  13  40  13  41  13  42  13  43  13
M  ISO  8  44  13  45  13  46  13  47  13  48  13  49  13  50  13  51  13
M  END
>  <minimizedAffinity>  (1) 
-6.42921925

>  <minimizedRMSD>  (1) 
3.16359496

$$$$
