
     RDKit          3D

 47 50  0  0  1  0  0  0  0  0999 V2000
   45.9630   33.2660   38.8460 C   0  0  0  0  0  0  0  0  0  0  0  0
   46.4030   33.1730   37.5260 C   0  0  0  0  0  0  0  0  0  0  0  0
   45.4610   32.4700   36.7710 C   0  0  0  0  0  0  0  0  0  0  0  0
   44.4830   32.1760   37.7150 C   0  0  0  0  0  0  0  0  0  0  0  0
   44.8180   32.6550   38.8930 O   0  0  0  0  0  0  0  0  0  0  0  0
   46.6780   34.7030   42.0770 C   0  0  0  0  0  0  0  0  0  0  0  0
   47.9470   35.1620   41.8730 C   0  0  0  0  0  0  0  0  0  0  0  0
   48.6340   35.0290   40.6780 C   0  0  0  0  0  0  0  0  0  0  0  0
   48.0130   34.4110   39.6620 N   0  0  0  0  0  0  0  0  0  0  0  0
   46.7640   33.9540   39.8490 C   0  0  0  0  0  0  0  0  0  0  0  0
   46.0930   34.0790   41.0030 N   0  0  0  0  0  0  0  0  0  0  0  0
   44.4510   35.9650   44.8740 C   0  0  0  0  0  0  0  0  0  0  0  0
   45.0860   35.9120   43.6210 C   0  0  0  0  0  0  0  0  0  0  0  0
   45.9710   34.8510   43.3390 C   0  0  0  0  0  0  0  0  0  0  0  0
   46.1590   33.9430   44.2900 N   0  0  0  0  0  0  0  0  0  0  0  0
   45.5300   34.0190   45.4940 C   0  0  0  0  0  0  0  0  0  0  0  0
   44.6850   35.0180   45.7890 N   0  0  0  0  0  0  0  0  0  0  0  0
   43.2640   31.4170   37.3350 C   0  0  0  0  0  0  0  0  0  0  0  0
   42.1530   31.6580   38.3420 C   0  0  0  0  0  0  0  0  0  0  0  0
   41.5940   33.0760   38.1540 C   0  0  1  0  0  0  0  0  0  0  0  0
   40.0820   33.1950   38.3860 C   0  0  0  0  0  0  0  0  0  0  0  0
   41.0520   33.8050   39.3250 C   0  0  2  0  0  0  0  0  0  0  0  0
   41.2840   35.2800   39.3680 C   0  0  0  0  0  0  0  0  0  0  0  0
   41.2340   35.8780   37.9570 C   0  0  0  0  0  0  0  0  0  0  0  0
   40.3150   36.0620   40.1840 C   0  0  0  0  0  0  0  0  0  0  0  0
   47.3453   33.5886   37.1394 H   0  0  0  0  0  0  0  0  0  0  0  0
   45.4864   32.2140   35.7015 H   0  0  0  0  0  0  0  0  0  0  0  0
   48.4544   35.6678   42.7077 H   0  0  0  0  0  0  0  0  0  0  0  0
   49.6568   35.4179   40.5654 H   0  0  0  0  0  0  0  0  0  0  0  0
   43.7588   36.7887   45.1029 H   0  0  0  0  0  0  0  0  0  0  0  0
   44.8944   36.6905   42.8679 H   0  0  0  0  0  0  0  0  0  0  0  0
   45.7197   33.2394   46.2465 H   0  0  0  0  0  0  0  0  0  0  0  0
   42.9285   31.7452   36.3401 H   0  0  0  0  0  0  0  0  0  0  0  0
   43.5034   30.3435   37.3190 H   0  0  0  0  0  0  0  0  0  0  0  0
   41.3498   30.9230   38.1854 H   0  0  0  0  0  0  0  0  0  0  0  0
   42.5516   31.5520   39.3618 H   0  0  0  0  0  0  0  0  0  0  0  0
   42.3210   33.3366   37.3707 H   0  0  0  0  0  0  0  0  0  0  0  0
   39.4703   33.8327   37.7309 H   0  0  0  0  0  0  0  0  0  0  0  0
   39.2436   32.4883   38.4733 H   0  0  0  0  0  0  0  0  0  0  0  0
   41.1568   33.7393   40.4180 H   0  0  0  0  0  0  0  0  0  0  0  0
   42.2735   35.3651   39.8409 H   0  0  0  0  0  0  0  0  0  0  0  0
   41.1425   36.9720   38.0255 H   0  0  0  0  0  0  0  0  0  0  0  0
   42.1568   35.6203   37.4166 H   0  0  0  0  0  0  0  0  0  0  0  0
   40.3668   35.4706   37.4166 H   0  0  0  0  0  0  0  0  0  0  0  0
   40.5187   35.8976   41.2524 H   0  0  0  0  0  0  0  0  0  0  0  0
   40.4192   37.1320   39.9513 H   0  0  0  0  0  0  0  0  0  0  0  0
   39.2911   35.7342   39.9513 H   0  0  0  0  0  0  0  0  0  0  0  0
  1  5  1  0
  1 10  1  0
  2  1  2  0
  3  2  1  0
  3  4  2  0
  4  5  1  0
  6 14  1  0
  7  6  2  0
  8  7  1  0
  9 10  1  0
  9  8  2  0
 10 11  2  0
 11  6  1  0
 12 17  2  0
 13 12  1  0
 14 13  2  0
 14 15  1  0
 15 16  2  0
 16 17  1  0
 18  4  1  0
 18 19  1  0
 20 19  1  0
 20 21  1  0
 20 22  1  0
 21 22  1  0
 22 23  1  0
 23 25  1  0
 24 23  1  0
  2 26  1  0
  3 27  1  0
  7 28  1  0
  8 29  1  0
 12 30  1  0
 13 31  1  0
 16 32  1  0
 18 33  1  0
 18 34  1  0
 19 35  1  0
 19 36  1  0
 20 37  1  6
 21 38  1  0
 21 39  1  0
 22 40  1  1
 23 41  1  0
 24 42  1  0
 24 43  1  0
 24 44  1  0
 25 45  1  0
 25 46  1  0
 25 47  1  0
M  ISO  8  26  14  27  14  28  14  29  14  30  14  31  14  32  14  33   8
M  ISO  8  34   8  35   8  36   8  37  13  38  13  39  13  40  13  41   8
M  ISO  6  42   8  43   8  44   8  45   8  46   8  47   8
M  END
>  <minimizedAffinity>  (1) 
-6.06000757

>  <minimizedRMSD>  (1) 
2.44940972

$$$$
