
     RDKit          3D

 41 44  0  0  1  0  0  0  0  0999 V2000
   45.2290   32.9750   38.8250 C   0  0  0  0  0  0  0  0  0  0  0  0
   45.6590   32.4610   37.6010 C   0  0  0  0  0  0  0  0  0  0  0  0
   44.5680   31.8740   36.9380 C   0  0  0  0  0  0  0  0  0  0  0  0
   43.5320   32.0830   37.8350 C   0  0  0  0  0  0  0  0  0  0  0  0
   43.9610   32.7180   38.9020 O   0  0  0  0  0  0  0  0  0  0  0  0
   46.3320   34.5000   41.8950 C   0  0  0  0  0  0  0  0  0  0  0  0
   47.6090   34.8390   41.5740 C   0  0  0  0  0  0  0  0  0  0  0  0
   48.1870   34.5870   40.3270 C   0  0  0  0  0  0  0  0  0  0  0  0
   47.4230   33.9730   39.4040 N   0  0  0  0  0  0  0  0  0  0  0  0
   46.1680   33.6350   39.7080 C   0  0  0  0  0  0  0  0  0  0  0  0
   45.5960   33.8780   40.9190 N   0  0  0  0  0  0  0  0  0  0  0  0
   44.4750   36.0740   44.8010 C   0  0  0  0  0  0  0  0  0  0  0  0
   44.9960   35.9080   43.5000 C   0  0  0  0  0  0  0  0  0  0  0  0
   45.7460   34.7750   43.2070 C   0  0  0  0  0  0  0  0  0  0  0  0
   45.9350   33.8930   44.1830 N   0  0  0  0  0  0  0  0  0  0  0  0
   45.4290   34.0640   45.4310 C   0  0  0  0  0  0  0  0  0  0  0  0
   44.7080   35.1430   45.7350 N   0  0  0  0  0  0  0  0  0  0  0  0
   42.1640   31.6070   37.5200 C   0  0  0  0  0  0  0  0  0  0  0  0
   41.1570   32.1640   38.5090 C   0  0  0  0  0  0  0  0  0  0  0  0
   39.8500   31.3720   38.4350 C   0  0  1  0  0  0  0  0  0  0  0  0
   38.8600   31.6690   39.5630 C   0  0  0  0  0  0  0  0  0  0  0  0
   38.5840   32.0750   38.1580 C   0  0  1  0  0  0  0  0  0  0  0  0
   38.5000   33.5440   37.8890 C   0  0  0  0  0  0  0  0  0  0  0  0
   39.5850   34.0300   37.1920 F   0  0  0  0  0  0  0  0  0  0  0  0
   37.3710   33.7760   37.1310 F   0  0  0  0  0  0  0  0  0  0  0  0
   38.3950   34.2370   39.0780 F   0  0  0  0  0  0  0  0  0  0  0  0
   46.6885   32.5079   37.2163 H   0  0  0  0  0  0  0  0  0  0  0  0
   44.5425   31.3759   35.9576 H   0  0  0  0  0  0  0  0  0  0  0  0
   48.2213   35.3395   42.3386 H   0  0  0  0  0  0  0  0  0  0  0  0
   49.2248   34.8786   40.1082 H   0  0  0  0  0  0  0  0  0  0  0  0
   43.8793   36.9654   45.0471 H   0  0  0  0  0  0  0  0  0  0  0  0
   44.8105   36.6672   42.7260 H   0  0  0  0  0  0  0  0  0  0  0  0
   45.6165   33.3019   46.2017 H   0  0  0  0  0  0  0  0  0  0  0  0
   41.8927   31.9356   36.5059 H   0  0  0  0  0  0  0  0  0  0  0  0
   42.1499   30.5090   37.5841 H   0  0  0  0  0  0  0  0  0  0  0  0
   41.5687   32.0915   39.5265 H   0  0  0  0  0  0  0  0  0  0  0  0
   40.9537   33.2160   38.2602 H   0  0  0  0  0  0  0  0  0  0  0  0
   40.3338   30.4894   37.9911 H   0  0  0  0  0  0  0  0  0  0  0  0
   38.2869   30.8526   40.0267 H   0  0  0  0  0  0  0  0  0  0  0  0
   38.9058   32.1812   40.5354 H   0  0  0  0  0  0  0  0  0  0  0  0
   37.8031   31.8912   37.4054 H   0  0  0  0  0  0  0  0  0  0  0  0
  1  5  1  0
  1 10  1  0
  2  1  2  0
  3  2  1  0
  3  4  2  0
  4  5  1  0
  6 14  1  0
  7  6  2  0
  8  7  1  0
  9 10  1  0
  9  8  2  0
 10 11  2  0
 11  6  1  0
 12 17  2  0
 13 12  1  0
 14 13  2  0
 14 15  1  0
 15 16  2  0
 16 17  1  0
 18  4  1  0
 18 19  1  0
 20 19  1  0
 20 21  1  0
 22 20  1  0
 22 21  1  0
 23 22  1  0
 23 26  1  0
 24 23  1  0
 25 23  1  0
  2 27  1  0
  3 28  1  0
  7 29  1  0
  8 30  1  0
 12 31  1  0
 13 32  1  0
 16 33  1  0
 18 34  1  0
 18 35  1  0
 19 36  1  0
 19 37  1  0
 20 38  1  6
 21 39  1  0
 21 40  1  0
 22 41  1  6
M  ISO  8  27  14  28  14  29  14  30  14  31  14  32  14  33  14  34   8
M  ISO  7  35   8  36   8  37   8  38  13  39  13  40  13  41  13
M  END
>  <minimizedAffinity>  (1) 
-6.02104044

>  <minimizedRMSD>  (1) 
0.925485969

$$$$
