
     RDKit          3D

 45 49  0  0  1  0  0  0  0  0999 V2000
   46.0580   33.2750   38.8530 C   0  0  0  0  0  0  0  0  0  0  0  0
   46.5620   33.0870   37.5780 C   0  0  0  0  0  0  0  0  0  0  0  0
   45.6240   32.3810   36.8050 C   0  0  0  0  0  0  0  0  0  0  0  0
   44.5920   32.1920   37.7040 C   0  0  0  0  0  0  0  0  0  0  0  0
   44.8810   32.7190   38.8650 O   0  0  0  0  0  0  0  0  0  0  0  0
   46.7090   34.7310   42.0840 C   0  0  0  0  0  0  0  0  0  0  0  0
   47.9640   35.2190   41.8950 C   0  0  0  0  0  0  0  0  0  0  0  0
   48.6720   35.1030   40.7090 C   0  0  0  0  0  0  0  0  0  0  0  0
   48.0670   34.4660   39.6850 N   0  0  0  0  0  0  0  0  0  0  0  0
   46.8310   33.9820   39.8640 C   0  0  0  0  0  0  0  0  0  0  0  0
   46.1450   34.0930   41.0110 N   0  0  0  0  0  0  0  0  0  0  0  0
   44.4520   35.9540   44.8670 C   0  0  0  0  0  0  0  0  0  0  0  0
   45.0940   35.9250   43.6120 C   0  0  0  0  0  0  0  0  0  0  0  0
   45.9880   34.8680   43.3460 C   0  0  0  0  0  0  0  0  0  0  0  0
   46.1770   33.9570   44.2940 N   0  0  0  0  0  0  0  0  0  0  0  0
   45.5450   34.0110   45.4930 C   0  0  0  0  0  0  0  0  0  0  0  0
   44.6890   35.0020   45.7780 N   0  0  0  0  0  0  0  0  0  0  0  0
   43.3680   31.4690   37.2880 C   0  0  0  0  0  0  0  0  0  0  0  0
   42.5040   31.1210   38.5010 C   0  0  0  0  0  0  0  0  0  0  0  0
   41.2680   32.0500   38.5380 C   0  0  1  0  0  0  0  0  0  0  0  0
   40.6900   32.2260   39.9480 C   0  0  0  0  0  0  0  0  0  0  0  0
   41.3820   33.3430   39.2080 C   0  0  2  0  0  0  0  0  0  0  0  0
   40.5990   34.5460   38.7870 C   0  0  0  0  0  0  0  0  0  0  0  0
   39.5570   34.3830   37.7360 C   0  0  0  0  0  0  0  0  0  0  0  0
   39.1460   34.6250   39.1830 C   0  0  0  0  0  0  0  0  0  0  0  0
   47.5436   33.4357   37.2246 H   0  0  0  0  0  0  0  0  0  0  0  0
   45.6936   32.0613   35.7548 H   0  0  0  0  0  0  0  0  0  0  0  0
   48.4475   35.7382   42.7356 H   0  0  0  0  0  0  0  0  0  0  0  0
   49.6871   35.5141   40.6067 H   0  0  0  0  0  0  0  0  0  0  0  0
   43.7490   36.7674   45.1000 H   0  0  0  0  0  0  0  0  0  0  0  0
   44.9025   36.7057   42.8611 H   0  0  0  0  0  0  0  0  0  0  0  0
   45.7380   33.2296   46.2427 H   0  0  0  0  0  0  0  0  0  0  0  0
   42.7884   32.1054   36.6031 H   0  0  0  0  0  0  0  0  0  0  0  0
   43.6632   30.5358   36.7860 H   0  0  0  0  0  0  0  0  0  0  0  0
   42.1738   30.0743   38.4276 H   0  0  0  0  0  0  0  0  0  0  0  0
   43.0920   31.2567   39.4207 H   0  0  0  0  0  0  0  0  0  0  0  0
   40.9005   31.7568   37.5436 H   0  0  0  0  0  0  0  0  0  0  0  0
   39.6015   32.2520   40.1046 H   0  0  0  0  0  0  0  0  0  0  0  0
   40.8081   31.7272   40.9213 H   0  0  0  0  0  0  0  0  0  0  0  0
   42.2369   34.0054   39.4091 H   0  0  0  0  0  0  0  0  0  0  0  0
   41.4710   35.2049   38.9108 H   0  0  0  0  0  0  0  0  0  0  0  0
   39.4077   35.1708   36.9829 H   0  0  0  0  0  0  0  0  0  0  0  0
   39.3280   33.6170   36.9805 H   0  0  0  0  0  0  0  0  0  0  0  0
   38.6880   33.8158   39.7707 H   0  0  0  0  0  0  0  0  0  0  0  0
   38.5143   35.3572   39.7073 H   0  0  0  0  0  0  0  0  0  0  0  0
  1  5  1  0
  1 10  1  0
  2  1  2  0
  3  2  1  0
  3  4  2  0
  4  5  1  0
  6 14  1  0
  7  6  2  0
  8  7  1  0
  9 10  1  0
  9  8  2  0
 10 11  2  0
 11  6  1  0
 12 17  2  0
 13 12  1  0
 14 13  2  0
 14 15  1  0
 15 16  2  0
 16 17  1  0
 18  4  1  0
 18 19  1  0
 19 20  1  0
 20 22  1  0
 20 21  1  0
 22 21  1  0
 23 25  1  0
 23 22  1  0
 24 23  1  0
 24 25  1  0
  2 26  1  0
  3 27  1  0
  7 28  1  0
  8 29  1  0
 12 30  1  0
 13 31  1  0
 16 32  1  0
 18 33  1  0
 18 34  1  0
 19 35  1  0
 19 36  1  0
 20 37  1  6
 21 38  1  0
 21 39  1  0
 22 40  1  1
 23 41  1  0
 24 42  1  0
 24 43  1  0
 25 44  1  0
 25 45  1  0
M  ISO  8  26  14  27  14  28  14  29  14  30  14  31  14  32  14  33   8
M  ISO  8  34   8  35   8  36   8  37  13  38  13  39  13  40  13  41  13
M  ISO  4  42  13  43  13  44  13  45  13
M  END
>  <minimizedAffinity>  (1) 
-5.84205675

>  <minimizedRMSD>  (1) 
2.07729077

$$$$
