
     RDKit          3D

 45 49  0  0  1  0  0  0  0  0999 V2000
   45.9260   33.2010   38.8370 C   0  0  0  0  0  0  0  0  0  0  0  0
   46.4110   32.9700   37.5600 C   0  0  0  0  0  0  0  0  0  0  0  0
   45.4470   32.2770   36.8140 C   0  0  0  0  0  0  0  0  0  0  0  0
   44.4150   32.1360   37.7270 C   0  0  0  0  0  0  0  0  0  0  0  0
   44.7370   32.6820   38.8770 O   0  0  0  0  0  0  0  0  0  0  0  0
   46.6590   34.6890   42.0480 C   0  0  0  0  0  0  0  0  0  0  0  0
   47.9220   35.1490   41.8230 C   0  0  0  0  0  0  0  0  0  0  0  0
   48.6000   35.0030   40.6320 C   0  0  0  0  0  0  0  0  0  0  0  0
   47.9720   34.3640   39.6200 N   0  0  0  0  0  0  0  0  0  0  0  0
   46.7330   33.9070   39.8230 C   0  0  0  0  0  0  0  0  0  0  0  0
   46.0580   34.0470   40.9950 N   0  0  0  0  0  0  0  0  0  0  0  0
   44.4570   35.9890   44.8490 C   0  0  0  0  0  0  0  0  0  0  0  0
   45.0870   35.9180   43.6000 C   0  0  0  0  0  0  0  0  0  0  0  0
   45.9590   34.8520   43.3100 C   0  0  0  0  0  0  0  0  0  0  0  0
   46.1390   33.9520   44.2670 N   0  0  0  0  0  0  0  0  0  0  0  0
   45.5270   34.0280   45.4740 C   0  0  0  0  0  0  0  0  0  0  0  0
   44.6960   35.0270   45.7730 N   0  0  0  0  0  0  0  0  0  0  0  0
   43.1610   31.4410   37.3470 C   0  0  0  0  0  0  0  0  0  0  0  0
   41.9640   32.0900   38.0110 C   0  0  0  0  0  0  0  0  0  0  0  0
   40.8200   31.0810   38.1280 C   0  0  1  0  0  0  0  0  0  0  0  0
   39.6760   31.5200   39.0260 C   0  0  0  0  0  0  0  0  0  0  0  0
   39.4930   31.4220   37.5540 C   0  0  2  0  0  0  0  0  0  0  0  0
   38.7980   30.3360   36.9260 N   0  0  0  0  0  0  0  0  0  0  0  0
   38.4310   30.2240   35.6620 N   0  0  0  0  0  0  0  0  0  0  0  0
   37.8000   29.0610   35.4490 C   0  0  0  0  0  0  0  0  0  0  0  0
   37.7480   28.3660   36.6340 C   0  0  0  0  0  0  0  0  0  0  0  0
   38.3900   29.2080   37.5370 C   0  0  0  0  0  0  0  0  0  0  0  0
   47.3985   33.2817   37.1891 H   0  0  0  0  0  0  0  0  0  0  0  0
   45.4974   31.9332   35.7703 H   0  0  0  0  0  0  0  0  0  0  0  0
   48.4335   35.6707   42.6454 H   0  0  0  0  0  0  0  0  0  0  0  0
   49.6206   35.3944   40.5088 H   0  0  0  0  0  0  0  0  0  0  0  0
   43.7732   36.8196   45.0782 H   0  0  0  0  0  0  0  0  0  0  0  0
   44.9001   36.6960   42.8452 H   0  0  0  0  0  0  0  0  0  0  0  0
   45.7204   33.2473   46.2244 H   0  0  0  0  0  0  0  0  0  0  0  0
   43.0382   31.4899   36.2550 H   0  0  0  0  0  0  0  0  0  0  0  0
   43.2236   30.3941   37.6786 H   0  0  0  0  0  0  0  0  0  0  0  0
   42.2481   32.4367   39.0155 H   0  0  0  0  0  0  0  0  0  0  0  0
   41.6318   32.9436   37.4019 H   0  0  0  0  0  0  0  0  0  0  0  0
   41.4846   30.2096   38.0332 H   0  0  0  0  0  0  0  0  0  0  0  0
   39.1875   30.7941   39.6927 H   0  0  0  0  0  0  0  0  0  0  0  0
   39.5320   32.3063   39.7816 H   0  0  0  0  0  0  0  0  0  0  0  0
   39.0806   32.1361   36.8260 H   0  0  0  0  0  0  0  0  0  0  0  0
   37.3917   28.7194   34.4864 H   0  0  0  0  0  0  0  0  0  0  0  0
   37.3038   27.3777   36.8236 H   0  0  0  0  0  0  0  0  0  0  0  0
   38.5430   28.9829   38.6028 H   0  0  0  0  0  0  0  0  0  0  0  0
  1  5  1  0
  1 10  1  0
  2  1  2  0
  3  2  1  0
  3  4  2  0
  4  5  1  0
  6 14  1  0
  7  6  2  0
  8  7  1  0
  9 10  1  0
  9  8  2  0
 10 11  2  0
 11  6  1  0
 12 17  2  0
 13 12  1  0
 14 13  2  0
 14 15  1  0
 15 16  2  0
 16 17  1  0
 18  4  1  0
 18 19  1  0
 19 20  1  0
 20 21  1  0
 22 20  1  0
 22 21  1  0
 23 27  1  0
 23 22  1  0
 24 23  1  0
 25 24  2  0
 25 26  1  0
 26 27  2  0
  2 28  1  0
  3 29  1  0
  7 30  1  0
  8 31  1  0
 12 32  1  0
 13 33  1  0
 16 34  1  0
 18 35  1  0
 18 36  1  0
 19 37  1  0
 19 38  1  0
 20 39  1  1
 21 40  1  0
 21 41  1  0
 22 42  1  6
 25 43  1  0
 26 44  1  0
 27 45  1  0
M  ISO  8  28  14  29  14  30  14  31  14  32  14  33  14  34  14  35   8
M  ISO  8  36   8  37   8  38   8  39  13  40  13  41  13  42  13  43  14
M  ISO  2  44  14  45  14
M  END
>  <minimizedAffinity>  (1) 
-5.33372498

>  <minimizedRMSD>  (1) 
1.85956216

$$$$
