
     RDKit          3D

 45 49  0  0  1  0  0  0  0  0999 V2000
   45.9400   33.2110   38.8550 C   0  0  0  0  0  0  0  0  0  0  0  0
   46.4300   32.9690   37.5790 C   0  0  0  0  0  0  0  0  0  0  0  0
   45.4780   32.2820   36.8380 C   0  0  0  0  0  0  0  0  0  0  0  0
   44.4360   32.1430   37.7350 C   0  0  0  0  0  0  0  0  0  0  0  0
   44.7420   32.6920   38.8870 O   0  0  0  0  0  0  0  0  0  0  0  0
   46.6640   34.7030   42.0570 C   0  0  0  0  0  0  0  0  0  0  0  0
   47.9230   35.1690   41.8450 C   0  0  0  0  0  0  0  0  0  0  0  0
   48.6110   35.0260   40.6530 C   0  0  0  0  0  0  0  0  0  0  0  0
   47.9750   34.3800   39.6450 N   0  0  0  0  0  0  0  0  0  0  0  0
   46.7450   33.9220   39.8430 C   0  0  0  0  0  0  0  0  0  0  0  0
   46.0650   34.0560   41.0060 N   0  0  0  0  0  0  0  0  0  0  0  0
   44.4570   35.9790   44.8640 C   0  0  0  0  0  0  0  0  0  0  0  0
   45.0860   35.9240   43.6030 C   0  0  0  0  0  0  0  0  0  0  0  0
   45.9550   34.8660   43.3300 C   0  0  0  0  0  0  0  0  0  0  0  0
   46.1430   33.9590   44.2850 N   0  0  0  0  0  0  0  0  0  0  0  0
   45.5270   34.0320   45.4930 C   0  0  0  0  0  0  0  0  0  0  0  0
   44.6900   35.0310   45.7850 N   0  0  0  0  0  0  0  0  0  0  0  0
   43.1770   31.4450   37.3430 C   0  0  0  0  0  0  0  0  0  0  0  0
   41.9640   32.1470   37.9290 C   0  0  0  0  0  0  0  0  0  0  0  0
   40.8390   31.1520   38.2010 C   0  0  1  0  0  0  0  0  0  0  0  0
   39.7360   31.6630   39.1100 C   0  0  0  0  0  0  0  0  0  0  0  0
   39.4910   31.4030   37.6660 C   0  0  2  0  0  0  0  0  0  0  0  0
   38.7570   30.2340   37.2200 N   0  0  0  0  0  0  0  0  0  0  0  0
   38.5220   29.9870   35.9020 C   0  0  0  0  0  0  0  0  0  0  0  0
   37.8070   28.7990   35.9010 C   0  0  0  0  0  0  0  0  0  0  0  0
   37.6280   28.3670   37.1550 N   0  0  0  0  0  0  0  0  0  0  0  0
   38.2210   29.2620   37.9800 C   0  0  0  0  0  0  0  0  0  0  0  0
   47.4207   33.2747   37.2114 H   0  0  0  0  0  0  0  0  0  0  0  0
   45.5382   31.9347   35.7960 H   0  0  0  0  0  0  0  0  0  0  0  0
   48.4259   35.6920   42.6718 H   0  0  0  0  0  0  0  0  0  0  0  0
   49.6306   35.4197   40.5286 H   0  0  0  0  0  0  0  0  0  0  0  0
   43.7694   36.8061   45.0947 H   0  0  0  0  0  0  0  0  0  0  0  0
   44.8953   36.7009   42.8480 H   0  0  0  0  0  0  0  0  0  0  0  0
   45.7211   33.2534   46.2455 H   0  0  0  0  0  0  0  0  0  0  0  0
   43.0949   31.4391   36.2461 H   0  0  0  0  0  0  0  0  0  0  0  0
   43.2096   30.4162   37.7310 H   0  0  0  0  0  0  0  0  0  0  0  0
   42.2505   32.6339   38.8728 H   0  0  0  0  0  0  0  0  0  0  0  0
   41.6059   32.8940   37.2053 H   0  0  0  0  0  0  0  0  0  0  0  0
   41.5157   30.2858   38.1583 H   0  0  0  0  0  0  0  0  0  0  0  0
   39.2977   31.0035   39.8735 H   0  0  0  0  0  0  0  0  0  0  0  0
   39.6097   32.5213   39.7863 H   0  0  0  0  0  0  0  0  0  0  0  0
   39.0471   32.0224   36.8727 H   0  0  0  0  0  0  0  0  0  0  0  0
   38.8291   30.5916   35.0359 H   0  0  0  0  0  0  0  0  0  0  0  0
   37.4400   28.2858   34.9999 H   0  0  0  0  0  0  0  0  0  0  0  0
   38.2580   29.2045   39.0779 H   0  0  0  0  0  0  0  0  0  0  0  0
  1  5  1  0
  1 10  1  0
  2  1  2  0
  3  2  1  0
  3  4  2  0
  4  5  1  0
  6 14  1  0
  7  6  2  0
  8  7  1  0
  9 10  1  0
  9  8  2  0
 10 11  2  0
 11  6  1  0
 12 17  2  0
 13 12  1  0
 14 13  2  0
 14 15  1  0
 15 16  2  0
 16 17  1  0
 18  4  1  0
 18 19  1  0
 19 20  1  0
 20 21  1  0
 22 20  1  0
 22 21  1  0
 23 22  1  0
 23 27  1  0
 24 23  1  0
 25 24  2  0
 25 26  1  0
 26 27  2  0
  2 28  1  0
  3 29  1  0
  7 30  1  0
  8 31  1  0
 12 32  1  0
 13 33  1  0
 16 34  1  0
 18 35  1  0
 18 36  1  0
 19 37  1  0
 19 38  1  0
 20 39  1  1
 21 40  1  0
 21 41  1  0
 22 42  1  6
 24 43  1  0
 25 44  1  0
 27 45  1  0
M  ISO  8  28  14  29  14  30  14  31  14  32  14  33  14  34  14  35   8
M  ISO  8  36   8  37   8  38   8  39  13  40  13  41  13  42  13  43  14
M  ISO  2  44  14  45  14
M  END
>  <minimizedAffinity>  (1) 
-5.31087923

>  <minimizedRMSD>  (1) 
1.96259069

$$$$
