
     RDKit          3D

 29 31  0  0  0  0  0  0  0  0999 V2000
   44.8410   35.6470   42.5110 C   0  0  0  0  0  0  0  0  0  0  0  0
   45.6450   34.5910   43.1340 C   0  0  0  0  0  0  0  0  0  0  0  0
   45.1970   33.6320   44.0270 C   0  0  0  0  0  0  0  0  0  0  0  0
   46.0610   32.6740   44.5530 C   0  0  0  0  0  0  0  0  0  0  0  0
   47.3970   32.6470   44.2030 C   0  0  0  0  0  0  0  0  0  0  0  0
   47.8330   33.6160   43.3040 C   0  0  0  0  0  0  0  0  0  0  0  0
   49.1650   33.6030   42.9420 C   0  0  0  0  0  0  0  0  0  0  0  0
   49.6580   34.5530   42.0440 C   0  0  0  0  0  0  0  0  0  0  0  0
   48.8380   35.5250   41.4930 C   0  0  0  0  0  0  0  0  0  0  0  0
   47.5190   35.4790   41.8980 C   0  0  0  0  0  0  0  0  0  0  0  0
   46.9780   34.5660   42.7800 C   0  0  0  0  0  0  0  0  0  0  0  0
   43.7870   35.1320   41.6060 C   0  0  0  0  0  0  0  0  0  0  0  0
   44.1680   34.3410   40.5130 C   0  0  0  0  0  0  0  0  0  0  0  0
   43.1720   33.8570   39.6630 C   0  0  0  0  0  0  0  0  0  0  0  0
   41.8790   34.1760   39.9370 N   0  0  0  0  0  0  0  0  0  0  0  0
   41.5510   34.9390   40.9980 C   0  0  0  0  0  0  0  0  0  0  0  0
   42.4810   35.4290   41.8470 N   0  0  0  0  0  0  0  0  0  0  0  0
   44.3598   36.2337   43.3074 H   0  0  0  0  0  0  0  0  0  0  0  0
   45.5238   36.2548   41.8991 H   0  0  0  0  0  0  0  0  0  0  0  0
   44.1386   33.6266   44.3268 H   0  0  0  0  0  0  0  0  0  0  0  0
   45.6724   31.9258   45.2596 H   0  0  0  0  0  0  0  0  0  0  0  0
   48.0847   31.8943   44.6158 H   0  0  0  0  0  0  0  0  0  0  0  0
   49.8401   32.8427   43.3617 H   0  0  0  0  0  0  0  0  0  0  0  0
   50.7225   34.5289   41.7677 H   0  0  0  0  0  0  0  0  0  0  0  0
   49.2112   36.2788   40.7841 H   0  0  0  0  0  0  0  0  0  0  0  0
   46.8395   36.2368   41.4809 H   0  0  0  0  0  0  0  0  0  0  0  0
   45.2271   34.1072   40.3295 H   0  0  0  0  0  0  0  0  0  0  0  0
   43.4268   33.2333   38.7935 H   0  0  0  0  0  0  0  0  0  0  0  0
   40.4910   35.1707   41.1790 H   0  0  0  0  0  0  0  0  0  0  0  0
  1  2  1  0
  2  3  2  0
  3  4  1  0
  5  4  2  0
  6  5  1  0
  7  6  2  0
  8  7  1  0
  9 10  1  0
  9  8  2  0
 10 11  2  0
 11  2  1  0
 11  6  1  0
 12 17  1  0
 12  1  1  0
 13 12  2  0
 14 15  2  0
 14 13  1  0
 15 16  1  0
 16 17  2  0
  1 18  1  0
  1 19  1  0
  3 20  1  0
  4 21  1  0
  5 22  1  0
  7 23  1  0
  8 24  1  0
  9 25  1  0
 10 26  1  0
 13 27  1  0
 14 28  1  0
 16 29  1  0
M  ISO  8  18   8  19   8  20  14  21  14  22  14  23  14  24  14  25  14
M  ISO  4  26  14  27  14  28  14  29  14
M  END
>  <minimizedAffinity>  (1) 
-5.20639753

>  <minimizedRMSD>  (1) 
4.51382065

$$$$
