
     RDKit          3D

 27 29  0  0  0  0  0  0  0  0999 V2000
   45.5300   34.8240   42.2770 C   0  0  0  0  0  0  0  0  0  0  0  0
   44.9290   34.3620   41.0120 C   0  0  0  0  0  0  0  0  0  0  0  0
   45.6940   33.6240   40.1950 N   0  0  0  0  0  0  0  0  0  0  0  0
   45.1850   33.1810   39.0300 C   0  0  0  0  0  0  0  0  0  0  0  0
   43.9210   33.4550   38.6500 N   0  0  0  0  0  0  0  0  0  0  0  0
   43.1110   34.1940   39.4400 C   0  0  0  0  0  0  0  0  0  0  0  0
   41.8050   34.5040   39.0980 C   0  0  0  0  0  0  0  0  0  0  0  0
   41.0340   35.2690   39.9620 C   0  0  0  0  0  0  0  0  0  0  0  0
   41.5380   35.7330   41.1600 C   0  0  0  0  0  0  0  0  0  0  0  0
   42.8420   35.4180   41.4910 C   0  0  0  0  0  0  0  0  0  0  0  0
   43.6290   34.6530   40.6410 C   0  0  0  0  0  0  0  0  0  0  0  0
   47.0040   34.6600   42.2980 C   0  0  0  0  0  0  0  0  0  0  0  0
   47.5280   33.5140   42.9020 C   0  0  0  0  0  0  0  0  0  0  0  0
   48.9100   33.3530   42.9250 C   0  0  0  0  0  0  0  0  0  0  0  0
   49.6760   34.3170   42.3620 N   0  0  0  0  0  0  0  0  0  0  0  0
   49.1470   35.4120   41.7880 C   0  0  0  0  0  0  0  0  0  0  0  0
   47.8130   35.5890   41.7530 N   0  0  0  0  0  0  0  0  0  0  0  0
   45.0985   34.2432   43.1055 H   0  0  0  0  0  0  0  0  0  0  0  0
   45.3113   35.8972   42.3789 H   0  0  0  0  0  0  0  0  0  0  0  0
   45.8210   32.5761   38.3670 H   0  0  0  0  0  0  0  0  0  0  0  0
   41.3817   34.1462   38.1478 H   0  0  0  0  0  0  0  0  0  0  0  0
   39.9972   35.5111   39.6855 H   0  0  0  0  0  0  0  0  0  0  0  0
   40.9164   36.3392   41.8353 H   0  0  0  0  0  0  0  0  0  0  0  0
   43.2624   35.7785   42.4414 H   0  0  0  0  0  0  0  0  0  0  0  0
   46.8648   32.7582   43.3480 H   0  0  0  0  0  0  0  0  0  0  0  0
   49.3678   32.4664   43.3881 H   0  0  0  0  0  0  0  0  0  0  0  0
   49.8097   36.1692   41.3435 H   0  0  0  0  0  0  0  0  0  0  0  0
  1 12  1  0
  2  1  1  0
  3  2  2  0
  4  3  1  0
  5  4  2  0
  5  6  1  0
  6 11  2  0
  7  6  1  0
  7  8  2  0
  8  9  1  0
  9 10  2  0
 11  2  1  0
 11 10  1  0
 12 13  2  0
 13 14  1  0
 15 14  2  0
 16 15  1  0
 17 16  2  0
 17 12  1  0
  1 18  1  0
  1 19  1  0
  4 20  1  0
  7 21  1  0
  8 22  1  0
  9 23  1  0
 10 24  1  0
 13 25  1  0
 14 26  1  0
 16 27  1  0
M  ISO  8  18   8  19   8  20  14  21  14  22  14  23  14  24  14  25  14
M  ISO  2  26  14  27  14
M  END
>  <minimizedAffinity>  (1) 
-4.60159302

>  <minimizedRMSD>  (1) 
6.52979279

$$$$
