
     RDKit          3D

 26 27  0  0  0  0  0  0  0  0999 V2000
   46.4530   34.6970   41.5720 C   0  0  0  0  0  0  0  0  0  0  0  0
   47.7750   34.0960   41.6530 N   0  0  0  0  0  0  0  0  0  0  0  0
   47.8840   32.7550   41.6300 C   0  0  0  0  0  0  0  0  0  0  0  0
   49.0570   32.0310   41.6980 C   0  0  0  0  0  0  0  0  0  0  0  0
   49.0440   30.5470   41.6630 C   0  0  0  0  0  0  0  0  0  0  0  0
   50.2170   32.8080   41.8000 C   0  0  0  0  0  0  0  0  0  0  0  0
   51.3080   32.2090   41.8650 O   0  0  0  0  0  0  0  0  0  0  0  0
   50.1030   34.1490   41.8220 N   0  0  0  0  0  0  0  0  0  0  0  0
   48.9280   34.8000   41.7520 C   0  0  0  0  0  0  0  0  0  0  0  0
   48.8280   36.0570   41.7740 O   0  0  0  0  0  0  0  0  0  0  0  0
   45.8530   34.9120   42.9060 C   0  0  0  0  0  0  0  0  0  0  0  0
   46.0030   33.8880   43.8610 C   0  0  0  0  0  0  0  0  0  0  0  0
   45.4390   34.0690   45.1430 C   0  0  0  0  0  0  0  0  0  0  0  0
   44.7810   35.2280   45.3810 N   0  0  0  0  0  0  0  0  0  0  0  0
   44.6490   36.2020   44.4410 C   0  0  0  0  0  0  0  0  0  0  0  0
   45.1840   36.0310   43.2240 N   0  0  0  0  0  0  0  0  0  0  0  0
   46.5360   35.6674   41.0607 H   0  0  0  0  0  0  0  0  0  0  0  0
   45.8019   34.0056   41.0170 H   0  0  0  0  0  0  0  0  0  0  0  0
   46.9490   32.1811   41.5493 H   0  0  0  0  0  0  0  0  0  0  0  0
   49.0406   30.1560   42.6912 H   0  0  0  0  0  0  0  0  0  0  0  0
   48.1428   30.2005   41.1360 H   0  0  0  0  0  0  0  0  0  0  0  0
   49.9390   30.1848   41.1360 H   0  0  0  0  0  0  0  0  0  0  0  0
   50.9645   34.7085   41.8967 H   0  0  0  0  0  0  0  0  0  0  0  0
   46.5486   32.9655   43.6133 H   0  0  0  0  0  0  0  0  0  0  0  0
   45.5310   33.2961   45.9203 H   0  0  0  0  0  0  0  0  0  0  0  0
   44.1046   37.1277   44.6789 H   0  0  0  0  0  0  0  0  0  0  0  0
  1  2  1  0
  1 11  1  0
  2  9  1  0
  3  2  1  0
  3  4  2  0
  4  6  1  0
  5  4  1  0
  6  8  1  0
  6  7  2  0
  9 10  2  0
  9  8  1  0
 11 16  1  0
 11 12  2  0
 12 13  1  0
 13 14  2  0
 15 14  1  0
 16 15  2  0
  1 17  1  0
  1 18  1  0
  3 19  1  0
  5 20  1  0
  5 21  1  0
  5 22  1  0
  8 23  1  0
 12 24  1  0
 13 25  1  0
 15 26  1  0
M  ISO  8  17   8  18   8  19  14  20   8  21   8  22   8  23   9  24  14
M  ISO  2  25  14  26  14
M  END
>  <minimizedAffinity>  (1) 
-4.5535903

>  <minimizedRMSD>  (1) 
2.50558138

$$$$
