
     RDKit          3D

 20 21  0  0  0  0  0  0  0  0999 V2000
   45.7980   34.2800   43.6160 C   0  0  0  0  0  0  0  0  0  0  0  0
   45.8400   33.6270   44.8520 C   0  0  0  0  0  0  0  0  0  0  0  0
   45.1910   34.1950   45.9480 C   0  0  0  0  0  0  0  0  0  0  0  0
   44.5380   35.3760   45.7550 N   0  0  0  0  0  0  0  0  0  0  0  0
   44.5170   35.9790   44.5500 C   0  0  0  0  0  0  0  0  0  0  0  0
   45.1340   35.4580   43.4700 N   0  0  0  0  0  0  0  0  0  0  0  0
   46.4940   33.6590   42.4640 C   0  0  0  0  0  0  0  0  0  0  0  0
   47.7600   34.4220   42.2710 C   0  0  0  0  0  0  0  0  0  0  0  0
   48.9680   34.1090   42.8850 C   0  0  0  0  0  0  0  0  0  0  0  0
   49.8570   35.0740   42.4190 C   0  0  0  0  0  0  0  0  0  0  0  0
   49.1620   35.9140   41.5620 C   0  0  0  0  0  0  0  0  0  0  0  0
   47.9280   35.4770   41.5160 O   0  0  0  0  0  0  0  0  0  0  0  0
   46.3798   32.6745   44.9587 H   0  0  0  0  0  0  0  0  0  0  0  0
   45.2055   33.7071   46.9338 H   0  0  0  0  0  0  0  0  0  0  0  0
   43.9767   36.9312   44.4435 H   0  0  0  0  0  0  0  0  0  0  0  0
   46.7159   32.6032   42.6786 H   0  0  0  0  0  0  0  0  0  0  0  0
   45.8696   33.6902   41.5589 H   0  0  0  0  0  0  0  0  0  0  0  0
   49.1748   33.2839   43.5825 H   0  0  0  0  0  0  0  0  0  0  0  0
   50.9216   35.1556   42.6836 H   0  0  0  0  0  0  0  0  0  0  0  0
   49.5695   36.7822   41.0233 H   0  0  0  0  0  0  0  0  0  0  0  0
  1  2  2  0
  2  3  1  0
  4  3  2  0
  5  4  1  0
  6  1  1  0
  6  5  2  0
  7  1  1  0
  8  7  1  0
  8  9  2  0
 10  9  1  0
 11 10  2  0
 12 11  1  0
 12  8  1  0
  2 13  1  0
  3 14  1  0
  5 15  1  0
  7 16  1  0
  7 17  1  0
  9 18  1  0
 10 19  1  0
 11 20  1  0
M  ISO  8  13  14  14  14  15  14  16   8  17   8  18  14  19  14  20  14
M  END
>  <minimizedAffinity>  (1) 
-4.24257565

>  <minimizedRMSD>  (1) 
1.02327883

$$$$
