
     RDKit          3D

 29 30  0  0  1  0  0  0  0  0999 V2000
   47.6620   33.9800   42.2250 C   0  0  2  0  0  0  0  0  0  0  0  0
   48.9540   33.7060   42.8480 C   0  0  2  0  0  0  0  0  0  0  0  0
   49.8930   34.8470   42.4660 C   0  0  0  0  0  0  0  0  0  0  0  0
   49.0740   35.8940   41.7460 C   0  0  0  0  0  0  0  0  0  0  0  0
   47.9600   35.0920   41.1760 C   0  0  0  0  0  0  0  0  0  0  0  0
   46.5950   34.5300   43.0780 C   0  0  0  0  0  0  0  0  0  0  0  0
   46.3060   33.8970   44.2960 C   0  0  0  0  0  0  0  0  0  0  0  0
   45.3140   34.4220   45.1240 C   0  0  0  0  0  0  0  0  0  0  0  0
   44.6710   35.5510   44.6760 N   0  0  0  0  0  0  0  0  0  0  0  0
   44.9730   36.1370   43.4950 C   0  0  0  0  0  0  0  0  0  0  0  0
   45.9240   35.6270   42.7110 N   0  0  0  0  0  0  0  0  0  0  0  0
   49.6150   32.4230   42.3690 C   0  0  0  0  0  0  0  0  0  0  0  0
   51.0100   32.6290   41.8950 C   0  0  0  0  0  0  0  0  0  0  0  0
   47.2835   33.0111   41.8672 H   0  0  0  0  0  0  0  0  0  0  0  0
   48.7741   33.6063   43.9286 H   0  0  0  0  0  0  0  0  0  0  0  0
   50.3434   35.2806   43.3710 H   0  0  0  0  0  0  0  0  0  0  0  0
   50.7032   34.4793   41.8192 H   0  0  0  0  0  0  0  0  0  0  0  0
   48.6987   36.6557   42.4452 H   0  0  0  0  0  0  0  0  0  0  0  0
   49.6438   36.4541   40.9900 H   0  0  0  0  0  0  0  0  0  0  0  0
   47.0721   35.7231   41.0232 H   0  0  0  0  0  0  0  0  0  0  0  0
   48.2255   34.6662   40.1971 H   0  0  0  0  0  0  0  0  0  0  0  0
   46.8574   32.9936   44.5957 H   0  0  0  0  0  0  0  0  0  0  0  0
   45.0591   33.9559   46.0872 H   0  0  0  0  0  0  0  0  0  0  0  0
   44.4307   37.0403   43.1789 H   0  0  0  0  0  0  0  0  0  0  0  0
   49.6304   31.7046   43.2019 H   0  0  0  0  0  0  0  0  0  0  0  0
   49.0295   32.0503   41.5156 H   0  0  0  0  0  0  0  0  0  0  0  0
   51.6807   32.7280   42.7612 H   0  0  0  0  0  0  0  0  0  0  0  0
   51.3216   31.7671   41.2867 H   0  0  0  0  0  0  0  0  0  0  0  0
   51.0592   33.5441   41.2867 H   0  0  0  0  0  0  0  0  0  0  0  0
  1  2  1  0
  1  6  1  0
  3  2  1  0
  4  3  1  0
  5  4  1  0
  5  1  1  0
  6  7  2  0
  7  8  1  0
  9  8  2  0
 10  9  1  0
 11  6  1  0
 11 10  2  0
 12  2  1  0
 13 12  1  0
  1 14  1  6
  2 15  1  1
  3 16  1  0
  3 17  1  0
  4 18  1  0
  4 19  1  0
  5 20  1  0
  5 21  1  0
  7 22  1  0
  8 23  1  0
 10 24  1  0
 12 25  1  0
 12 26  1  0
 13 27  1  0
 13 28  1  0
 13 29  1  0
M  ISO  8  14  13  15  13  16  13  17  13  18  13  19  13  20  13  21  13
M  ISO  8  22  14  23  14  24  14  25   8  26   8  27   8  28   8  29   8
M  END
>  <minimizedAffinity>  (1) 
-4.97007227

>  <minimizedRMSD>  (1) 
3.84817243

$$$$
