
     RDKit          3D

 14 14  0  0  0  0  0  0  0  0999 V2000
   46.1290   34.8840   43.2140 C   0  0  0  0  0  0  0  0  0  0  0  0
   46.2760   33.9060   44.2040 C   0  0  0  0  0  0  0  0  0  0  0  0
   45.5350   34.0280   45.3830 C   0  0  0  0  0  0  0  0  0  0  0  0
   44.7100   35.0930   45.5070 N   0  0  0  0  0  0  0  0  0  0  0  0
   44.5910   36.0200   44.5340 C   0  0  0  0  0  0  0  0  0  0  0  0
   45.2920   35.9280   43.3870 N   0  0  0  0  0  0  0  0  0  0  0  0
   46.9190   34.7500   41.9610 C   0  0  0  0  0  0  0  0  0  0  0  0
   45.8850   33.8690   40.7350 S   0  0  0  0  0  0  0  0  0  0  0  0
   46.9611   33.0580   44.0573 H   0  0  0  0  0  0  0  0  0  0  0  0
   45.6201   33.2807   46.1857 H   0  0  0  0  0  0  0  0  0  0  0  0
   43.9071   36.8690   44.6802 H   0  0  0  0  0  0  0  0  0  0  0  0
   47.1848   35.7465   41.5785 H   0  0  0  0  0  0  0  0  0  0  0  0
   47.8472   34.1912   42.1514 H   0  0  0  0  0  0  0  0  0  0  0  0
   44.9682   33.0879   41.3879 H   0  0  0  0  0  0  0  0  0  0  0  0
  1  6  2  0
  1  2  1  0
  2  3  2  0
  3  4  1  0
  5  4  2  0
  6  5  1  0
  7  1  1  0
  8  7  1  0
  2  9  1  0
  3 10  1  0
  5 11  1  0
  7 12  1  0
  7 13  1  0
  8 14  1  0
M  ISO  6   9  14  10  14  11  14  12   8  13   8  14  11
M  END
>  <minimizedAffinity>  (1) 
-2.98899555

>  <minimizedRMSD>  (1) 
0.0599776246

$$$$
