
     RDKit          3D

 39 41  0  0  1  0  0  0  0  0999 V2000
   45.0130   33.0290   42.8930 N   0  0  0  0  0  0  0  0  0  0  0  0
   44.0450   32.4000   42.2610 C   0  0  0  0  0  0  0  0  0  0  0  0
   43.7780   31.0520   42.5960 C   0  0  0  0  0  0  0  0  0  0  0  0
   44.5340   30.4350   43.5650 C   0  0  0  0  0  0  0  0  0  0  0  0
   44.3140   29.2490   43.8720 O   0  0  0  0  0  0  0  0  0  0  0  0
   45.5140   31.0970   44.1920 N   0  0  0  0  0  0  0  0  0  0  0  0
   45.7220   32.3740   43.8350 C   0  0  0  0  0  0  0  0  0  0  0  0
   46.6670   32.9760   44.4560 O   0  0  0  0  0  0  0  0  0  0  0  0
   45.3760   34.4190   42.6300 C   0  0  0  0  0  0  0  0  0  0  0  0
   46.4690   34.5230   41.6260 C   0  0  0  0  0  0  0  0  0  0  0  0
   47.5980   35.2590   41.9560 C   0  0  0  0  0  0  0  0  0  0  0  0
   48.6040   35.3460   41.0100 C   0  0  0  0  0  0  0  0  0  0  0  0
   48.4510   34.7140   39.8030 N   0  0  0  0  0  0  0  0  0  0  0  0
   47.3370   34.0110   39.5280 C   0  0  0  0  0  0  0  0  0  0  0  0
   46.3490   33.9090   40.4200 N   0  0  0  0  0  0  0  0  0  0  0  0
   46.3270   30.4710   45.2200 C   0  0  2  0  0  0  0  0  0  0  0  0
   47.1880   29.3520   44.7260 C   0  0  0  0  0  0  0  0  0  0  0  0
   45.4970   29.9180   46.3610 C   0  0  0  0  0  0  0  0  0  0  0  0
   45.4810   30.8970   47.5070 C   0  0  0  0  0  0  0  0  0  0  0  0
   45.3220   30.4790   48.8190 C   0  0  0  0  0  0  0  0  0  0  0  0
   45.3500   31.6030   49.6310 C   0  0  0  0  0  0  0  0  0  0  0  0
   45.5230   32.6560   48.7860 N   0  0  0  0  0  0  0  0  0  0  0  0
   45.6000   32.2390   47.5330 N   0  0  0  0  0  0  0  0  0  0  0  0
   43.4549   32.9128   41.4871 H   0  0  0  0  0  0  0  0  0  0  0  0
   42.9731   30.5023   42.0862 H   0  0  0  0  0  0  0  0  0  0  0  0
   44.4919   34.9524   42.2507 H   0  0  0  0  0  0  0  0  0  0  0  0
   45.7320   34.8638   43.5710 H   0  0  0  0  0  0  0  0  0  0  0  0
   47.6899   35.7550   42.9335 H   0  0  0  0  0  0  0  0  0  0  0  0
   49.5190   35.9176   41.2246 H   0  0  0  0  0  0  0  0  0  0  0  0
   47.2389   33.5123   38.5525 H   0  0  0  0  0  0  0  0  0  0  0  0
   46.9694   31.2948   45.5644 H   0  0  0  0  0  0  0  0  0  0  0  0
   47.6079   28.8063   45.5838 H   0  0  0  0  0  0  0  0  0  0  0  0
   46.5828   28.6657   44.1155 H   0  0  0  0  0  0  0  0  0  0  0  0
   48.0064   29.7611   44.1155 H   0  0  0  0  0  0  0  0  0  0  0  0
   44.4675   29.7470   46.0133 H   0  0  0  0  0  0  0  0  0  0  0  0
   45.9375   28.9694   46.7019 H   0  0  0  0  0  0  0  0  0  0  0  0
   45.1959   29.4397   49.1565 H   0  0  0  0  0  0  0  0  0  0  0  0
   45.2529   31.6364   50.7262 H   0  0  0  0  0  0  0  0  0  0  0  0
   45.5853   33.6408   49.0812 H   0  0  0  0  0  0  0  0  0  0  0  0
  1  7  1  0
  2  3  2  0
  2  1  1  0
  3  4  1  0
  4  5  2  0
  4  6  1  0
  6 16  1  0
  7  6  1  0
  7  8  2  0
  9  1  1  0
 10 11  2  0
 10  9  1  0
 12 11  1  0
 13 12  2  0
 14 13  1  0
 14 15  2  0
 15 10  1  0
 16 18  1  0
 17 16  1  0
 18 19  1  0
 19 23  2  0
 19 20  1  0
 20 21  2  0
 22 21  1  0
 23 22  1  0
  2 24  1  0
  3 25  1  0
  9 26  1  0
  9 27  1  0
 11 28  1  0
 12 29  1  0
 14 30  1  0
 16 31  1  1
 17 32  1  0
 17 33  1  0
 17 34  1  0
 18 35  1  0
 18 36  1  0
 20 37  1  0
 21 38  1  0
 22 39  1  0
M  ISO  8  24  14  25  14  26   8  27   8  28  14  29  14  30  14  31   8
M  ISO  8  32   8  33   8  34   8  35   8  36   8  37  14  38  14  39   9
M  END
>  <minimizedAffinity>  (1) 
-4.77080774

>  <minimizedRMSD>  (1) 
2.32042241

$$$$
