
     RDKit          3D

 24 25  0  0  1  0  0  0  0  0999 V2000
   49.1700   33.5140   42.5590 C   0  0  2  0  0  0  0  0  0  0  0  0
   47.7600   33.8120   42.3240 C   0  0  2  0  0  0  0  0  0  0  0  0
   47.6650   35.2530   41.8110 C   0  0  0  0  0  0  0  0  0  0  0  0
   49.0760   35.7540   41.6240 C   0  0  0  0  0  0  0  0  0  0  0  0
   49.8570   34.9090   42.5630 C   0  0  0  0  0  0  0  0  0  0  0  0
   49.8860   32.7360   41.5340 C   0  0  0  0  0  0  0  0  0  0  0  0
   49.1820   32.3120   40.3850 C   0  0  0  0  0  0  0  0  0  0  0  0
   49.8520   31.5950   39.3950 C   0  0  0  0  0  0  0  0  0  0  0  0
   51.1860   31.3480   39.6190 N   0  0  0  0  0  0  0  0  0  0  0  0
   51.8310   31.7640   40.7230 C   0  0  0  0  0  0  0  0  0  0  0  0
   51.1840   32.4490   41.6670 N   0  0  0  0  0  0  0  0  0  0  0  0
   46.8700   33.6940   43.9330 S   0  0  0  0  0  0  0  0  0  0  0  0
   49.2102   32.9018   43.4720 H   0  0  0  0  0  0  0  0  0  0  0  0
   47.3224   33.1127   41.5963 H   0  0  0  0  0  0  0  0  0  0  0  0
   47.1264   35.2770   40.8522 H   0  0  0  0  0  0  0  0  0  0  0  0
   47.1172   35.8861   42.5244 H   0  0  0  0  0  0  0  0  0  0  0  0
   49.4132   35.6085   40.5871 H   0  0  0  0  0  0  0  0  0  0  0  0
   49.1831   36.8314   41.8184 H   0  0  0  0  0  0  0  0  0  0  0  0
   49.8364   35.3420   43.5740 H   0  0  0  0  0  0  0  0  0  0  0  0
   50.9118   34.8389   42.2590 H   0  0  0  0  0  0  0  0  0  0  0  0
   48.1131   32.5459   40.2724 H   0  0  0  0  0  0  0  0  0  0  0  0
   49.3418   31.2461   38.4850 H   0  0  0  0  0  0  0  0  0  0  0  0
   52.9001   31.5377   40.8486 H   0  0  0  0  0  0  0  0  0  0  0  0
   47.7676   33.8130   44.9612 H   0  0  0  0  0  0  0  0  0  0  0  0
  1  5  1  0
  2  1  1  0
  2 12  1  0
  3  2  1  0
  4  3  1  0
  4  5  1  0
  6 11  1  0
  6  1  1  0
  7  6  2  0
  8  9  2  0
  8  7  1  0
  9 10  1  0
 10 11  2  0
  1 13  1  1
  2 14  1  6
  3 15  1  0
  3 16  1  0
  4 17  1  0
  4 18  1  0
  5 19  1  0
  5 20  1  0
  7 21  1  0
  8 22  1  0
 10 23  1  0
 12 24  1  0
M  ISO  8  13  13  14  13  15  13  16  13  17  13  18  13  19  13  20  13
M  ISO  4  21  14  22  14  23  14  24  11
M  END
>  <minimizedAffinity>  (1) 
-3.97865701

>  <minimizedRMSD>  (1) 
4.71123791

$$$$
