
     RDKit          3D

 46 49  0  0  1  0  0  0  0  0999 V2000
   43.6140   34.3790   41.7830 N   0  0  0  0  0  0  0  0  0  0  0  0
   43.1700   33.1760   41.4920 C   0  0  0  0  0  0  0  0  0  0  0  0
   43.7270   32.0690   42.1700 C   0  0  0  0  0  0  0  0  0  0  0  0
   44.7050   32.2750   43.1020 C   0  0  0  0  0  0  0  0  0  0  0  0
   45.1960   31.3010   43.6990 O   0  0  0  0  0  0  0  0  0  0  0  0
   45.1410   33.4980   43.3820 N   0  0  0  0  0  0  0  0  0  0  0  0
   44.5770   34.5230   42.7080 C   0  0  0  0  0  0  0  0  0  0  0  0
   45.0160   35.6870   42.9980 O   0  0  0  0  0  0  0  0  0  0  0  0
   43.1090   35.5930   41.1430 C   0  0  0  0  0  0  0  0  0  0  0  0
   41.8930   35.3160   40.3260 C   0  0  0  0  0  0  0  0  0  0  0  0
   42.0350   35.1310   38.9490 C   0  0  0  0  0  0  0  0  0  0  0  0
   40.8950   34.8740   38.2040 C   0  0  0  0  0  0  0  0  0  0  0  0
   39.6880   34.8140   38.8500 N   0  0  0  0  0  0  0  0  0  0  0  0
   39.5930   34.9990   40.1860 C   0  0  0  0  0  0  0  0  0  0  0  0
   40.6780   35.2440   40.9020 N   0  0  0  0  0  0  0  0  0  0  0  0
   46.1810   33.7300   44.3700 C   0  0  2  0  0  0  0  0  0  0  0  0
   47.3370   32.8080   44.2680 C   0  0  0  0  0  0  0  0  0  0  0  0
   45.6750   33.6840   45.7720 C   0  0  0  0  0  0  0  0  0  0  0  0
   46.1080   32.4510   46.5290 C   0  0  2  0  0  0  0  0  0  0  0  0
   45.4720   32.3520   47.9010 C   0  0  0  0  0  0  0  0  0  0  0  0
   46.9170   32.5600   47.7520 C   0  0  1  0  0  0  0  0  0  0  0  0
   47.7660   31.3670   48.0510 C   0  0  0  0  0  0  0  0  0  0  0  0
   47.7770   30.1280   47.5540 C   0  0  0  0  0  0  0  0  0  0  0  0
   48.6550   29.1880   47.9840 C   0  0  0  0  0  0  0  0  0  0  0  0
   49.5480   29.6430   48.9990 C   0  0  0  0  0  0  0  0  0  0  0  0
   49.0380   31.4050   49.2490 S   0  0  0  0  0  0  0  0  0  0  0  0
   42.3823   33.0348   40.7373 H   0  0  0  0  0  0  0  0  0  0  0  0
   43.3765   31.0499   41.9497 H   0  0  0  0  0  0  0  0  0  0  0  0
   42.8567   36.3285   41.9211 H   0  0  0  0  0  0  0  0  0  0  0  0
   43.8918   35.9816   40.4750 H   0  0  0  0  0  0  0  0  0  0  0  0
   43.0234   35.1877   38.4695 H   0  0  0  0  0  0  0  0  0  0  0  0
   40.9578   34.7213   37.1165 H   0  0  0  0  0  0  0  0  0  0  0  0
   38.6110   34.9456   40.6788 H   0  0  0  0  0  0  0  0  0  0  0  0
   46.5253   34.7469   44.1304 H   0  0  0  0  0  0  0  0  0  0  0  0
   47.6788   32.5354   45.2774 H   0  0  0  0  0  0  0  0  0  0  0  0
   47.0351   31.9000   43.7255 H   0  0  0  0  0  0  0  0  0  0  0  0
   48.1551   33.3043   43.7255 H   0  0  0  0  0  0  0  0  0  0  0  0
   46.0491   34.5698   46.3063 H   0  0  0  0  0  0  0  0  0  0  0  0
   44.5765   33.6616   45.7188 H   0  0  0  0  0  0  0  0  0  0  0  0
   46.2230   31.8435   45.6192 H   0  0  0  0  0  0  0  0  0  0  0  0
   44.8321   33.1655   48.2735 H   0  0  0  0  0  0  0  0  0  0  0  0
   44.8352   31.6192   48.4183 H   0  0  0  0  0  0  0  0  0  0  0  0
   47.6269   33.3047   48.1413 H   0  0  0  0  0  0  0  0  0  0  0  0
   47.0514   29.8612   46.7714 H   0  0  0  0  0  0  0  0  0  0  0  0
   48.6766   28.1633   47.5846 H   0  0  0  0  0  0  0  0  0  0  0  0
   50.3457   29.0831   49.5091 H   0  0  0  0  0  0  0  0  0  0  0  0
  1  7  1  0
  2  1  1  0
  2  3  2  0
  3  4  1  0
  4  6  1  0
  4  5  2  0
  6 16  1  0
  7  8  2  0
  7  6  1  0
  9  1  1  0
 10 15  1  0
 10  9  1  0
 11 10  2  0
 12 13  2  0
 12 11  1  0
 13 14  1  0
 14 15  2  0
 16 18  1  0
 17 16  1  0
 18 19  1  0
 19 21  1  0
 19 20  1  0
 21 20  1  0
 21 22  1  0
 22 26  1  0
 23 24  1  0
 23 22  2  0
 24 25  2  0
 25 26  1  0
  2 27  1  0
  3 28  1  0
  9 29  1  0
  9 30  1  0
 11 31  1  0
 12 32  1  0
 14 33  1  0
 16 34  1  6
 17 35  1  0
 17 36  1  0
 17 37  1  0
 18 38  1  0
 18 39  1  0
 19 40  1  6
 20 41  1  0
 20 42  1  0
 21 43  1  1
 23 44  1  0
 24 45  1  0
 25 46  1  0
M  ISO  8  27  14  28  14  29   8  30   8  31  14  32  14  33  14  34   8
M  ISO  8  35   8  36   8  37   8  38   8  39   8  40  13  41  13  42  13
M  ISO  4  43  13  44  14  45  14  46  14
M  END
>  <minimizedAffinity>  (1) 
-5.76962614

>  <minimizedRMSD>  (1) 
5.14203167

$$$$
