
     RDKit          3D

 42 44  0  0  1  0  0  0  0  0999 V2000
   45.8630   32.3250   45.1260 N   0  0  0  0  0  0  0  0  0  0  0  0
   45.7860   31.2800   44.3060 C   0  0  0  0  0  0  0  0  0  0  0  0
   46.0400   29.9830   44.8300 C   0  0  0  0  0  0  0  0  0  0  0  0
   46.3530   29.8470   46.1560 C   0  0  0  0  0  0  0  0  0  0  0  0
   46.5740   28.7170   46.6140 O   0  0  0  0  0  0  0  0  0  0  0  0
   46.4250   30.9150   46.9650 N   0  0  0  0  0  0  0  0  0  0  0  0
   46.1750   32.1160   46.4130 C   0  0  0  0  0  0  0  0  0  0  0  0
   46.2510   33.1030   47.2040 O   0  0  0  0  0  0  0  0  0  0  0  0
   45.6200   33.6820   44.6750 C   0  0  0  0  0  0  0  0  0  0  0  0
   46.3070   33.9760   43.3900 C   0  0  0  0  0  0  0  0  0  0  0  0
   47.6890   34.1060   43.3580 C   0  0  0  0  0  0  0  0  0  0  0  0
   48.2940   34.3800   42.1440 C   0  0  0  0  0  0  0  0  0  0  0  0
   47.5130   34.5120   41.0320 N   0  0  0  0  0  0  0  0  0  0  0  0
   46.1530   34.3790   41.1030 C   0  0  0  0  0  0  0  0  0  0  0  0
   45.5740   34.1180   42.2570 N   0  0  0  0  0  0  0  0  0  0  0  0
   46.7560   30.7770   48.3710 C   0  0  2  0  0  0  0  0  0  0  0  0
   45.6410   31.0880   49.2880 C   0  0  0  0  0  0  0  0  0  0  0  0
   47.9290   31.6030   48.7850 C   0  0  0  0  0  0  0  0  0  0  0  0
   49.2060   30.8040   48.8970 C   0  0  2  0  0  0  0  0  0  0  0  0
   49.5100   30.3530   50.3260 C   0  0  0  0  0  0  0  0  0  0  0  0
   50.3740   31.3110   49.6230 C   0  0  1  0  0  0  0  0  0  0  0  0
   51.7070   30.9120   49.0220 C   0  0  0  0  0  0  0  0  0  0  0  0
   52.4270   32.0760   48.7190 F   0  0  0  0  0  0  0  0  0  0  0  0
   51.5510   30.1380   47.8900 F   0  0  0  0  0  0  0  0  0  0  0  0
   52.4280   30.2640   50.0100 F   0  0  0  0  0  0  0  0  0  0  0  0
   45.5311   31.4167   43.2447 H   0  0  0  0  0  0  0  0  0  0  0  0
   45.9857   29.0990   44.1777 H   0  0  0  0  0  0  0  0  0  0  0  0
   44.5375   33.8218   44.5385 H   0  0  0  0  0  0  0  0  0  0  0  0
   46.0184   34.3684   45.4367 H   0  0  0  0  0  0  0  0  0  0  0  0
   48.2875   33.9941   44.2741 H   0  0  0  0  0  0  0  0  0  0  0  0
   49.3864   34.4897   42.0760 H   0  0  0  0  0  0  0  0  0  0  0  0
   45.5422   34.4902   40.1949 H   0  0  0  0  0  0  0  0  0  0  0  0
   47.0018   29.7084   48.4590 H   0  0  0  0  0  0  0  0  0  0  0  0
   45.9845   30.9922   50.3286 H   0  0  0  0  0  0  0  0  0  0  0  0
   45.2953   32.1169   49.1092 H   0  0  0  0  0  0  0  0  0  0  0  0
   44.8127   30.3866   49.1092 H   0  0  0  0  0  0  0  0  0  0  0  0
   48.0778   32.3982   48.0397 H   0  0  0  0  0  0  0  0  0  0  0  0
   47.7080   32.0100   49.7828 H   0  0  0  0  0  0  0  0  0  0  0  0
   49.0945   30.3736   47.8908 H   0  0  0  0  0  0  0  0  0  0  0  0
   48.8750   30.6876   51.1596 H   0  0  0  0  0  0  0  0  0  0  0  0
   49.6551   29.3871   50.8319 H   0  0  0  0  0  0  0  0  0  0  0  0
   50.7655   32.2878   49.9431 H   0  0  0  0  0  0  0  0  0  0  0  0
  1  7  1  0
  2  3  2  0
  2  1  1  0
  3  4  1  0
  4  5  2  0
  4  6  1  0
  6 16  1  0
  7  6  1  0
  7  8  2  0
  9  1  1  0
 10  9  1  0
 11 10  2  0
 12 11  1  0
 13 14  1  0
 13 12  2  0
 14 15  2  0
 15 10  1  0
 16 18  1  0
 16 17  1  0
 18 19  1  0
 19 21  1  0
 19 20  1  0
 21 20  1  0
 22 21  1  0
 22 25  1  0
 23 22  1  0
 24 22  1  0
  2 26  1  0
  3 27  1  0
  9 28  1  0
  9 29  1  0
 11 30  1  0
 12 31  1  0
 14 32  1  0
 16 33  1  6
 17 34  1  0
 17 35  1  0
 17 36  1  0
 18 37  1  0
 18 38  1  0
 19 39  1  6
 20 40  1  0
 20 41  1  0
 21 42  1  1
M  ISO  8  26  14  27  14  28   8  29   8  30  14  31  14  32  14  33   8
M  ISO  8  34   8  35   8  36   8  37   8  38   8  39  13  40  13  41  13
M  ISO  1  42  13
M  END
>  <minimizedAffinity>  (1) 
-4.97788811

>  <minimizedRMSD>  (1) 
4.32004118

$$$$
