
     RDKit          3D

 46 49  0  0  1  0  0  0  0  0999 V2000
   46.4890   30.1650   47.1360 C   0  0  2  0  0  0  0  0  0  0  0  0
   47.1670   32.4210   44.2800 N   0  0  0  0  0  0  0  0  0  0  0  0
   48.0450   31.7460   43.5670 C   0  0  0  0  0  0  0  0  0  0  0  0
   48.4550   30.4700   44.0290 C   0  0  0  0  0  0  0  0  0  0  0  0
   47.9330   29.9800   45.1920 C   0  0  0  0  0  0  0  0  0  0  0  0
   48.2890   28.8660   45.5990 O   0  0  0  0  0  0  0  0  0  0  0  0
   47.0390   30.6850   45.9050 N   0  0  0  0  0  0  0  0  0  0  0  0
   46.6850   31.8900   45.4200 C   0  0  0  0  0  0  0  0  0  0  0  0
   45.8460   32.5300   46.1050 O   0  0  0  0  0  0  0  0  0  0  0  0
   46.6800   33.7410   43.8920 C   0  0  0  0  0  0  0  0  0  0  0  0
   47.2570   34.1910   42.5890 C   0  0  0  0  0  0  0  0  0  0  0  0
   48.3560   35.0380   42.5950 C   0  0  0  0  0  0  0  0  0  0  0  0
   48.8720   35.4400   41.3790 C   0  0  0  0  0  0  0  0  0  0  0  0
   48.2900   34.9950   40.2360 N   0  0  0  0  0  0  0  0  0  0  0  0
   47.2070   34.1610   40.2740 C   0  0  0  0  0  0  0  0  0  0  0  0
   46.7000   33.7660   41.4280 N   0  0  0  0  0  0  0  0  0  0  0  0
   47.2430   30.5300   48.3550 C   0  0  0  0  0  0  0  0  0  0  0  0
   46.3130   28.6740   47.1290 C   0  0  0  0  0  0  0  0  0  0  0  0
   44.8860   28.2440   47.2590 C   0  0  2  0  0  0  0  0  0  0  0  0
   44.6900   27.1590   48.3160 C   0  0  0  0  0  0  0  0  0  0  0  0
   44.4430   26.8990   46.8780 C   0  0  1  0  0  0  0  0  0  0  0  0
   43.0410   26.6820   46.5470 N   0  0  0  0  0  0  0  0  0  0  0  0
   42.5360   27.5390   45.6790 N   0  0  0  0  0  0  0  0  0  0  0  0
   41.2520   27.2780   45.4260 C   0  0  0  0  0  0  0  0  0  0  0  0
   40.9290   26.1720   46.1930 C   0  0  0  0  0  0  0  0  0  0  0  0
   42.0700   25.7950   46.9060 C   0  0  0  0  0  0  0  0  0  0  0  0
   45.5058   30.6565   47.1772 H   0  0  0  0  0  0  0  0  0  0  0  0
   48.4511   32.1631   42.6337 H   0  0  0  0  0  0  0  0  0  0  0  0
   49.1862   29.8805   43.4565 H   0  0  0  0  0  0  0  0  0  0  0  0
   45.5845   33.7024   43.8006 H   0  0  0  0  0  0  0  0  0  0  0  0
   46.9902   34.4582   44.6662 H   0  0  0  0  0  0  0  0  0  0  0  0
   48.8029   35.3791   43.5405 H   0  0  0  0  0  0  0  0  0  0  0  0
   49.7424   36.1113   41.3369 H   0  0  0  0  0  0  0  0  0  0  0  0
   46.7532   33.8154   39.3335 H   0  0  0  0  0  0  0  0  0  0  0  0
   46.6606   30.2481   49.2446 H   0  0  0  0  0  0  0  0  0  0  0  0
   48.2059   29.9983   48.3635 H   0  0  0  0  0  0  0  0  0  0  0  0
   47.4232   31.6151   48.3635 H   0  0  0  0  0  0  0  0  0  0  0  0
   46.7110   28.2803   46.1821 H   0  0  0  0  0  0  0  0  0  0  0  0
   46.8522   28.2791   48.0026 H   0  0  0  0  0  0  0  0  0  0  0  0
   44.4969   29.2403   47.0023 H   0  0  0  0  0  0  0  0  0  0  0  0
   45.5597   26.7113   48.8192 H   0  0  0  0  0  0  0  0  0  0  0  0
   44.1098   27.0603   49.2453 H   0  0  0  0  0  0  0  0  0  0  0  0
   44.8142   26.1894   46.1239 H   0  0  0  0  0  0  0  0  0  0  0  0
   40.5859   27.8296   44.7463 H   0  0  0  0  0  0  0  0  0  0  0  0
   39.9474   25.6772   46.2340 H   0  0  0  0  0  0  0  0  0  0  0  0
   42.1651   24.9561   47.6111 H   0  0  0  0  0  0  0  0  0  0  0  0
  1 17  1  0
  2  8  1  0
  3  4  2  0
  3  2  1  0
  4  5  1  0
  5  6  2  0
  5  7  1  0
  7  1  1  0
  8  7  1  0
  8  9  2  0
 10  2  1  0
 11 12  2  0
 11 10  1  0
 13 12  1  0
 14 15  1  0
 14 13  2  0
 15 16  2  0
 16 11  1  0
 18  1  1  0
 18 19  1  0
 19 20  1  0
 21 19  1  0
 21 20  1  0
 22 21  1  0
 22 26  1  0
 23 22  1  0
 24 23  2  0
 24 25  1  0
 25 26  2  0
  1 27  1  1
  3 28  1  0
  4 29  1  0
 10 30  1  0
 10 31  1  0
 12 32  1  0
 13 33  1  0
 15 34  1  0
 17 35  1  0
 17 36  1  0
 17 37  1  0
 18 38  1  0
 18 39  1  0
 19 40  1  1
 20 41  1  0
 20 42  1  0
 21 43  1  6
 24 44  1  0
 25 45  1  0
 26 46  1  0
M  ISO  8  27   8  28  14  29  14  30   8  31   8  32  14  33  14  34  14
M  ISO  8  35   8  36   8  37   8  38   8  39   8  40  13  41  13  42  13
M  ISO  4  43  13  44  14  45  14  46  14
M  END
>  <minimizedAffinity>  (1) 
-4.85722685

>  <minimizedRMSD>  (1) 
3.89055824

$$$$
