
     RDKit          3D

 40 42  0  0  1  0  0  0  0  0999 V2000
   45.3970   32.9050   43.2210 N   0  0  0  0  0  0  0  0  0  0  0  0
   44.4540   32.1230   42.7010 C   0  0  0  0  0  0  0  0  0  0  0  0
   44.3840   30.7830   43.1470 C   0  0  0  0  0  0  0  0  0  0  0  0
   45.2690   30.3260   44.0850 C   0  0  0  0  0  0  0  0  0  0  0  0
   45.2000   29.1520   44.4690 O   0  0  0  0  0  0  0  0  0  0  0  0
   46.2080   31.1360   44.5910 N   0  0  0  0  0  0  0  0  0  0  0  0
   46.2370   32.4060   44.1370 C   0  0  0  0  0  0  0  0  0  0  0  0
   47.1360   33.1460   44.6350 O   0  0  0  0  0  0  0  0  0  0  0  0
   45.5630   34.3010   42.8380 C   0  0  0  0  0  0  0  0  0  0  0  0
   46.5700   34.4600   41.7470 C   0  0  0  0  0  0  0  0  0  0  0  0
   47.6960   35.2500   41.9800 C   0  0  0  0  0  0  0  0  0  0  0  0
   48.6180   35.3870   40.9620 C   0  0  0  0  0  0  0  0  0  0  0  0
   48.3900   34.7470   39.7770 N   0  0  0  0  0  0  0  0  0  0  0  0
   47.2860   33.9860   39.5820 C   0  0  0  0  0  0  0  0  0  0  0  0
   46.3900   33.8470   40.5590 N   0  0  0  0  0  0  0  0  0  0  0  0
   47.1500   30.6630   45.5850 C   0  0  2  0  0  0  0  0  0  0  0  0
   48.1190   29.6670   45.0860 C   0  0  0  0  0  0  0  0  0  0  0  0
   46.4910   30.0940   46.7950 C   0  0  0  0  0  0  0  0  0  0  0  0
   46.1210   31.1410   47.8270 C   0  0  2  0  0  0  0  0  0  0  0  0
   46.9950   31.0790   49.0770 C   0  0  0  0  0  0  0  0  0  0  0  0
   45.5420   30.7700   49.1180 C   0  0  1  0  0  0  0  0  0  0  0  0
   44.7440   31.6730   49.8060 O   0  0  0  0  0  0  0  0  0  0  0  0
   43.7507   32.5072   41.9475 H   0  0  0  0  0  0  0  0  0  0  0  0
   43.6174   30.1075   42.7395 H   0  0  0  0  0  0  0  0  0  0  0  0
   44.5957   34.6922   42.4897 H   0  0  0  0  0  0  0  0  0  0  0  0
   45.9204   34.8569   43.7173 H   0  0  0  0  0  0  0  0  0  0  0  0
   47.8450   35.7500   42.9484 H   0  0  0  0  0  0  0  0  0  0  0  0
   49.5201   36.0005   41.1025 H   0  0  0  0  0  0  0  0  0  0  0  0
   47.1291   33.4825   38.6167 H   0  0  0  0  0  0  0  0  0  0  0  0
   47.6973   31.5792   45.8516 H   0  0  0  0  0  0  0  0  0  0  0  0
   48.6041   29.1684   45.9381 H   0  0  0  0  0  0  0  0  0  0  0  0
   47.5937   28.9190   44.4740 H   0  0  0  0  0  0  0  0  0  0  0  0
   48.8812   30.1716   44.4740 H   0  0  0  0  0  0  0  0  0  0  0  0
   45.5737   29.5745   46.4808 H   0  0  0  0  0  0  0  0  0  0  0  0
   47.2132   29.4124   47.2681 H   0  0  0  0  0  0  0  0  0  0  0  0
   45.8082   31.8733   47.0681 H   0  0  0  0  0  0  0  0  0  0  0  0
   47.7371   30.2758   49.1964 H   0  0  0  0  0  0  0  0  0  0  0  0
   47.6697   31.7705   49.6030 H   0  0  0  0  0  0  0  0  0  0  0  0
   44.9280   29.9147   49.4366 H   0  0  0  0  0  0  0  0  0  0  0  0
   44.8607   31.5410   50.7802 H   0  0  0  0  0  0  0  0  0  0  0  0
  1  7  1  0
  2  3  2  0
  2  1  1  0
  3  4  1  0
  4  5  2  0
  4  6  1  0
  6 16  1  0
  7  6  1  0
  7  8  2  0
  9  1  1  0
 10 11  2  0
 10  9  1  0
 12 11  1  0
 13 12  2  0
 14 13  1  0
 14 15  2  0
 15 10  1  0
 16 18  1  0
 17 16  1  0
 18 19  1  0
 19 20  1  0
 19 21  1  0
 20 21  1  0
 21 22  1  0
  2 23  1  0
  3 24  1  0
  9 25  1  0
  9 26  1  0
 11 27  1  0
 12 28  1  0
 14 29  1  0
 16 30  1  1
 17 31  1  0
 17 32  1  0
 17 33  1  0
 18 34  1  0
 18 35  1  0
 19 36  1  6
 20 37  1  0
 20 38  1  0
 21 39  1  6
 22 40  1  0
M  ISO  8  23  14  24  14  25   8  26   8  27  14  28  14  29  14  30   8
M  ISO  8  31   8  32   8  33   8  34   8  35   8  36  13  37  13  38  13
M  ISO  2  39  13  40   3
M  END
>  <minimizedAffinity>  (1) 
-4.47977638

>  <minimizedRMSD>  (1) 
0.663295567

$$$$
