
     RDKit          3D

 46 49  0  0  1  0  0  0  0  0999 V2000
   48.2830   30.8330   43.3590 C   0  0  2  0  0  0  0  0  0  0  0  0
   46.2960   31.7820   40.3870 N   0  0  0  0  0  0  0  0  0  0  0  0
   45.8100   30.6360   39.9660 C   0  0  0  0  0  0  0  0  0  0  0  0
   46.1430   29.4570   40.6880 C   0  0  0  0  0  0  0  0  0  0  0  0
   46.9480   29.5580   41.7840 C   0  0  0  0  0  0  0  0  0  0  0  0
   47.2360   28.5210   42.4140 O   0  0  0  0  0  0  0  0  0  0  0  0
   47.4230   30.7290   42.1870 N   0  0  0  0  0  0  0  0  0  0  0  0
   47.0810   31.8050   41.4740 C   0  0  0  0  0  0  0  0  0  0  0  0
   47.5480   32.9170   41.8780 O   0  0  0  0  0  0  0  0  0  0  0  0
   46.0110   33.0410   39.7130 C   0  0  0  0  0  0  0  0  0  0  0  0
   46.8730   33.2330   38.5050 C   0  0  0  0  0  0  0  0  0  0  0  0
   47.9450   34.1240   38.5730 C   0  0  0  0  0  0  0  0  0  0  0  0
   48.7300   34.2850   37.4430 C   0  0  0  0  0  0  0  0  0  0  0  0
   48.4270   33.5780   36.3300 N   0  0  0  0  0  0  0  0  0  0  0  0
   47.3750   32.7150   36.2930 C   0  0  0  0  0  0  0  0  0  0  0  0
   46.6080   32.5470   37.3720 N   0  0  0  0  0  0  0  0  0  0  0  0
   49.7110   30.5440   43.1060 C   0  0  0  0  0  0  0  0  0  0  0  0
   47.8340   29.9690   44.4940 C   0  0  0  0  0  0  0  0  0  0  0  0
   46.8910   30.6700   45.4390 C   0  0  2  0  0  0  0  0  0  0  0  0
   47.0360   32.1790   45.4240 C   0  0  0  0  0  0  0  0  0  0  0  0
   47.3950   31.4030   46.6160 C   0  0  1  0  0  0  0  0  0  0  0  0
   46.4810   31.4380   47.7900 C   0  0  0  0  0  0  0  0  0  0  0  0
   45.4590   30.5220   48.0360 C   0  0  0  0  0  0  0  0  0  0  0  0
   44.8500   30.9010   49.2180 C   0  0  0  0  0  0  0  0  0  0  0  0
   45.4850   32.0170   49.6760 N   0  0  0  0  0  0  0  0  0  0  0  0
   46.4430   32.3190   48.8220 N   0  0  0  0  0  0  0  0  0  0  0  0
   48.1883   31.8947   43.6309 H   0  0  0  0  0  0  0  0  0  0  0  0
   45.1623   30.5899   39.0781 H   0  0  0  0  0  0  0  0  0  0  0  0
   45.7570   28.4782   40.3672 H   0  0  0  0  0  0  0  0  0  0  0  0
   44.9559   33.0473   39.4020 H   0  0  0  0  0  0  0  0  0  0  0  0
   46.2212   33.8602   40.4163 H   0  0  0  0  0  0  0  0  0  0  0  0
   48.1602   34.6818   39.4963 H   0  0  0  0  0  0  0  0  0  0  0  0
   49.5856   34.9763   37.4505 H   0  0  0  0  0  0  0  0  0  0  0  0
   47.1567   32.1549   35.3718 H   0  0  0  0  0  0  0  0  0  0  0  0
   50.2390   30.4371   44.0651 H   0  0  0  0  0  0  0  0  0  0  0  0
   49.8000   29.6096   42.5324 H   0  0  0  0  0  0  0  0  0  0  0  0
   50.1563   31.3702   42.5324 H   0  0  0  0  0  0  0  0  0  0  0  0
   47.3228   29.0870   44.0807 H   0  0  0  0  0  0  0  0  0  0  0  0
   48.7302   29.6957   45.0704 H   0  0  0  0  0  0  0  0  0  0  0  0
   46.1048   29.9099   45.3198 H   0  0  0  0  0  0  0  0  0  0  0  0
   47.8213   32.6521   44.8161 H   0  0  0  0  0  0  0  0  0  0  0  0
   46.3673   33.0270   45.2149 H   0  0  0  0  0  0  0  0  0  0  0  0
   48.3021   31.3609   47.2368 H   0  0  0  0  0  0  0  0  0  0  0  0
   45.1883   29.6603   47.4081 H   0  0  0  0  0  0  0  0  0  0  0  0
   44.0036   30.3924   49.7027 H   0  0  0  0  0  0  0  0  0  0  0  0
   45.2566   32.5333   50.5375 H   0  0  0  0  0  0  0  0  0  0  0  0
  1 18  1  0
  2  8  1  0
  3  2  1  0
  3  4  2  0
  4  5  1  0
  5  7  1  0
  5  6  2  0
  7  1  1  0
  8  9  2  0
  8  7  1  0
 10  2  1  0
 11 12  2  0
 11 10  1  0
 13 12  1  0
 14 13  2  0
 15 14  1  0
 15 16  2  0
 16 11  1  0
 17  1  1  0
 18 19  1  0
 19 21  1  0
 20 19  1  0
 20 21  1  0
 21 22  1  0
 22 23  1  0
 22 26  2  0
 23 24  2  0
 24 25  1  0
 26 25  1  0
  1 27  1  1
  3 28  1  0
  4 29  1  0
 10 30  1  0
 10 31  1  0
 12 32  1  0
 13 33  1  0
 15 34  1  0
 17 35  1  0
 17 36  1  0
 17 37  1  0
 18 38  1  0
 18 39  1  0
 19 40  1  1
 20 41  1  0
 20 42  1  0
 21 43  1  1
 23 44  1  0
 24 45  1  0
 25 46  1  0
M  ISO  8  27   8  28  14  29  14  30   8  31   8  32  14  33  14  34  14
M  ISO  8  35   8  36   8  37   8  38   8  39   8  40  13  41  13  42  13
M  ISO  4  43  13  44  14  45  14  46   9
M  END
>  <minimizedAffinity>  (1) 
-4.22778988

>  <minimizedRMSD>  (1) 
3.58649015

$$$$
