
     RDKit          3D

 25 27  0  0  0  0  0  0  0  0999 V2000
   45.6360   33.8500   40.4450 S   0  0  0  0  0  0  0  0  0  0  0  0
   44.2710   34.6250   41.2620 C   0  0  0  0  0  0  0  0  0  0  0  0
   44.1300   35.0460   42.5700 C   0  0  0  0  0  0  0  0  0  0  0  0
   42.8930   35.5790   42.7030 N   0  0  0  0  0  0  0  0  0  0  0  0
   42.2480   35.5120   41.5280 C   0  0  0  0  0  0  0  0  0  0  0  0
   40.9770   35.9180   41.1530 C   0  0  0  0  0  0  0  0  0  0  0  0
   40.5330   35.7350   39.8520 C   0  0  0  0  0  0  0  0  0  0  0  0
   41.3780   35.1350   38.9140 C   0  0  0  0  0  0  0  0  0  0  0  0
   42.6440   34.7370   39.3150 C   0  0  0  0  0  0  0  0  0  0  0  0
   43.1070   34.9110   40.6060 C   0  0  0  0  0  0  0  0  0  0  0  0
   48.0720   35.1460   40.9010 C   0  0  0  0  0  0  0  0  0  0  0  0
   47.1690   34.1530   41.3310 C   0  0  0  0  0  0  0  0  0  0  0  0
   47.5060   33.4160   42.4620 C   0  0  0  0  0  0  0  0  0  0  0  0
   48.6830   33.6780   43.1070 N   0  0  0  0  0  0  0  0  0  0  0  0
   49.5160   34.6460   42.6490 C   0  0  0  0  0  0  0  0  0  0  0  0
   49.2210   35.3790   41.5560 N   0  0  0  0  0  0  0  0  0  0  0  0
   44.8882   34.9629   43.3626 H   0  0  0  0  0  0  0  0  0  0  0  0
   42.5064   35.9749   43.5718 H   0  0  0  0  0  0  0  0  0  0  0  0
   40.3146   36.3895   41.8938 H   0  0  0  0  0  0  0  0  0  0  0  0
   39.5233   36.0596   39.5604 H   0  0  0  0  0  0  0  0  0  0  0  0
   41.0447   34.9815   37.8770 H   0  0  0  0  0  0  0  0  0  0  0  0
   43.3071   34.2635   38.5760 H   0  0  0  0  0  0  0  0  0  0  0  0
   47.8304   35.7432   40.0094 H   0  0  0  0  0  0  0  0  0  0  0  0
   46.8321   32.6301   42.8338 H   0  0  0  0  0  0  0  0  0  0  0  0
   50.4578   34.8383   43.1838 H   0  0  0  0  0  0  0  0  0  0  0  0
  1  2  1  0
  1 12  1  0
  2  3  2  0
  3  4  1  0
  5  4  1  0
  6  5  2  0
  7  6  1  0
  8  9  1  0
  8  7  2  0
  9 10  2  0
 10  2  1  0
 10  5  1  0
 11 12  2  0
 11 16  1  0
 12 13  1  0
 13 14  2  0
 15 14  1  0
 16 15  2  0
  3 17  1  0
  4 18  1  0
  6 19  1  0
  7 20  1  0
  8 21  1  0
  9 22  1  0
 11 23  1  0
 13 24  1  0
 15 25  1  0
M  ISO  8  17  14  18   9  19  14  20  14  21  14  22  14  23  14  24  14
M  ISO  1  25  14
M  END
>  <minimizedAffinity>  (1) 
-5.14959526

>  <minimizedRMSD>  (1) 
3.53599858

$$$$
