
     RDKit          3D

 24 25  0  0  0  0  0  0  0  0999 V2000
   45.2300   35.4680   43.5910 S   0  0  0  0  0  0  0  0  0  0  0  0
   44.7840   34.5450   46.1760 C   0  0  0  0  0  0  0  0  0  0  0  0
   45.4780   34.3400   44.9680 C   0  0  0  0  0  0  0  0  0  0  0  0
   46.3480   33.2530   44.8800 C   0  0  0  0  0  0  0  0  0  0  0  0
   46.4880   32.4370   45.9690 N   0  0  0  0  0  0  0  0  0  0  0  0
   45.8050   32.6690   47.1040 C   0  0  0  0  0  0  0  0  0  0  0  0
   44.9550   33.7100   47.2260 N   0  0  0  0  0  0  0  0  0  0  0  0
   47.5670   34.0900   39.8700 C   0  0  0  0  0  0  0  0  0  0  0  0
   48.2030   34.8350   40.8500 C   0  0  0  0  0  0  0  0  0  0  0  0
   47.5300   35.2610   41.9740 C   0  0  0  0  0  0  0  0  0  0  0  0
   46.2000   34.9690   42.1760 C   0  0  0  0  0  0  0  0  0  0  0  0
   45.5530   34.2180   41.1920 C   0  0  0  0  0  0  0  0  0  0  0  0
   46.2280   33.7850   40.0560 C   0  0  0  0  0  0  0  0  0  0  0  0
   48.3830   33.5280   38.4270 S   0  0  0  0  0  0  0  0  0  0  0  0
   48.5920   34.6980   37.5190 O   0  0  0  0  0  0  0  0  0  0  0  0
   47.6110   32.4290   37.7680 O   0  0  0  0  0  0  0  0  0  0  0  0
   44.0932   35.3962   46.2669 H   0  0  0  0  0  0  0  0  0  0  0  0
   46.9094   33.0563   43.9547 H   0  0  0  0  0  0  0  0  0  0  0  0
   45.9433   31.9900   47.9583 H   0  0  0  0  0  0  0  0  0  0  0  0
   49.2658   35.0912   40.7281 H   0  0  0  0  0  0  0  0  0  0  0  0
   48.0697   35.8501   42.7301 H   0  0  0  0  0  0  0  0  0  0  0  0
   44.4901   33.9644   41.3180 H   0  0  0  0  0  0  0  0  0  0  0  0
   45.6937   33.1944   39.2973 H   0  0  0  0  0  0  0  0  0  0  0  0
   49.6027   32.9942   38.7501 H   0  0  0  0  0  0  0  0  0  0  0  0
  1  3  1  0
  2  7  2  0
  3  2  1  0
  4  3  2  0
  4  5  1  0
  5  6  2  0
  6  7  1  0
  8 13  2  0
  8  9  1  0
  9 10  2  0
 10 11  1  0
 11  1  1  0
 12 11  2  0
 13 12  1  0
 14  8  1  0
 15 14  2  0
 16 14  2  0
  2 17  1  0
  4 18  1  0
  6 19  1  0
  9 20  1  0
 10 21  1  0
 12 22  1  0
 13 23  1  0
 14 24  1  0
M  ISO  8  17  14  18  14  19  14  20  14  21  14  22  14  23  14  24  11
M  END
>  <minimizedAffinity>  (1) 
-4.38940382

>  <minimizedRMSD>  (1) 
3.1622014

$$$$
