
     RDKit          3D

 23 24  0  0  1  0  0  0  0  0999 V2000
   44.2580   35.7660   44.1640 C   0  0  0  0  0  0  0  0  0  0  0  0
   44.3530   34.9020   43.0560 C   0  0  0  0  0  0  0  0  0  0  0  0
   44.9740   33.6560   43.1860 C   0  0  0  0  0  0  0  0  0  0  0  0
   45.4770   33.3250   44.4250 N   0  0  0  0  0  0  0  0  0  0  0  0
   45.3660   34.1850   45.4660 C   0  0  0  0  0  0  0  0  0  0  0  0
   44.7670   35.3860   45.3430 N   0  0  0  0  0  0  0  0  0  0  0  0
   43.6740   35.3870   41.4440 S   0  0  0  0  0  0  0  0  0  0  0  0
   41.0610   35.1190   41.8690 N   0  0  0  0  0  0  0  0  0  0  0  0
   40.4900   36.1110   40.9950 C   0  0  0  0  0  0  0  0  0  0  0  0
   40.8240   35.7280   39.5740 C   0  0  0  0  0  0  0  0  0  0  0  0
   41.8050   34.5870   39.6810 C   0  0  0  0  0  0  0  0  0  0  0  0
   42.1350   34.4810   41.1360 C   0  0  1  0  0  0  0  0  0  0  0  0
   43.7692   36.7461   44.0618 H   0  0  0  0  0  0  0  0  0  0  0  0
   45.0576   32.9672   42.3325 H   0  0  0  0  0  0  0  0  0  0  0  0
   45.7782   33.8935   46.4433 H   0  0  0  0  0  0  0  0  0  0  0  0
   41.4301   35.5669   42.7199 H   0  0  0  0  0  0  0  0  0  0  0  0
   39.3983   36.1408   41.1269 H   0  0  0  0  0  0  0  0  0  0  0  0
   40.8971   37.1059   41.2285 H   0  0  0  0  0  0  0  0  0  0  0  0
   41.2796   36.5776   39.0443 H   0  0  0  0  0  0  0  0  0  0  0  0
   39.9256   35.4405   39.0082 H   0  0  0  0  0  0  0  0  0  0  0  0
   41.3494   33.6528   39.3208 H   0  0  0  0  0  0  0  0  0  0  0  0
   42.7029   34.7612   39.0699 H   0  0  0  0  0  0  0  0  0  0  0  0
   42.2522   33.4315   41.4440 H   0  0  0  0  0  0  0  0  0  0  0  0
  1  6  2  0
  2  3  2  0
  2  1  1  0
  3  4  1  0
  4  5  2  0
  6  5  1  0
  7  2  1  0
  9  8  1  0
 10 11  1  0
 10  9  1  0
 11 12  1  0
 12  7  1  0
 12  8  1  0
  1 13  1  0
  3 14  1  0
  5 15  1  0
  8 16  1  0
  9 17  1  0
  9 18  1  0
 10 19  1  0
 10 20  1  0
 11 21  1  0
 11 22  1  0
 12 23  1  1
M  ISO  8  13  14  14  14  15  14  16   5  17  13  18  13  19  13  20  13
M  ISO  3  21  13  22  13  23  13
M  END
>  <minimizedAffinity>  (1) 
-3.98999429

>  <minimizedRMSD>  (1) 
0.414448202

$$$$
