
     RDKit          3D

 24 25  0  0  0  0  0  0  0  0999 V2000
   44.2880   35.8210   44.0180 C   0  0  0  0  0  0  0  0  0  0  0  0
   44.3410   34.9770   42.8890 C   0  0  0  0  0  0  0  0  0  0  0  0
   44.9020   33.6960   43.0340 C   0  0  0  0  0  0  0  0  0  0  0  0
   45.3710   33.3400   44.2780 N   0  0  0  0  0  0  0  0  0  0  0  0
   45.2960   34.1820   45.3220 C   0  0  0  0  0  0  0  0  0  0  0  0
   44.7640   35.4080   45.1990 N   0  0  0  0  0  0  0  0  0  0  0  0
   43.7160   35.4780   41.2730 S   0  0  0  0  0  0  0  0  0  0  0  0
   42.0490   34.8420   41.1540 C   0  0  0  0  0  0  0  0  0  0  0  0
   41.8710   34.2160   39.7640 C   0  0  0  0  0  0  0  0  0  0  0  0
   40.4500   34.5070   39.3850 C   0  0  0  0  0  0  0  0  0  0  0  0
   39.8200   35.1630   40.5940 C   0  0  0  0  0  0  0  0  0  0  0  0
   41.0020   35.9640   41.1500 C   0  0  0  0  0  0  0  0  0  0  0  0
   43.8519   36.8268   43.9272 H   0  0  0  0  0  0  0  0  0  0  0  0
   44.9639   33.0023   42.1826 H   0  0  0  0  0  0  0  0  0  0  0  0
   45.6797   33.8590   46.3010 H   0  0  0  0  0  0  0  0  0  0  0  0
   41.9137   34.1566   42.0037 H   0  0  0  0  0  0  0  0  0  0  0  0
   42.5646   34.6729   39.0428 H   0  0  0  0  0  0  0  0  0  0  0  0
   42.0846   33.1369   39.7670 H   0  0  0  0  0  0  0  0  0  0  0  0
   40.4168   35.1869   38.5209 H   0  0  0  0  0  0  0  0  0  0  0  0
   39.9139   33.5897   39.1001 H   0  0  0  0  0  0  0  0  0  0  0  0
   38.9868   35.8213   40.3067 H   0  0  0  0  0  0  0  0  0  0  0  0
   39.3774   34.4560   41.3111 H   0  0  0  0  0  0  0  0  0  0  0  0
   41.2874   36.7959   40.4893 H   0  0  0  0  0  0  0  0  0  0  0  0
   40.8310   36.4637   42.1149 H   0  0  0  0  0  0  0  0  0  0  0  0
  1  6  2  0
  2  3  2  0
  2  1  1  0
  3  4  1  0
  4  5  2  0
  6  5  1  0
  7  2  1  0
  8  7  1  0
  9  8  1  0
 10  9  1  0
 10 11  1  0
 11 12  1  0
 12  8  1  0
  1 13  1  0
  3 14  1  0
  5 15  1  0
  8 16  1  0
  9 17  1  0
  9 18  1  0
 10 19  1  0
 10 20  1  0
 11 21  1  0
 11 22  1  0
 12 23  1  0
 12 24  1  0
M  ISO  8  13  14  14  14  15  14  16  13  17  13  18  13  19  13  20  13
M  ISO  4  21  13  22  13  23  13  24  13
M  END
>  <minimizedAffinity>  (1) 
-3.94523335

>  <minimizedRMSD>  (1) 
1.52790511

$$$$
