
     RDKit          3D

 19 20  0  0  0  0  0  0  0  0999 V2000
   45.5700   34.8480   43.8060 C   0  0  0  0  0  0  0  0  0  0  0  0
   46.2360   33.7490   44.3840 C   0  0  0  0  0  0  0  0  0  0  0  0
   45.9880   33.4220   45.7160 C   0  0  0  0  0  0  0  0  0  0  0  0
   45.0920   34.2020   46.4030 N   0  0  0  0  0  0  0  0  0  0  0  0
   44.4700   35.2500   45.8150 C   0  0  0  0  0  0  0  0  0  0  0  0
   44.7000   35.5710   44.5420 N   0  0  0  0  0  0  0  0  0  0  0  0
   47.4000   32.7830   43.3940 S   0  0  0  0  0  0  0  0  0  0  0  0
   47.9220   33.8440   42.0440 C   0  0  0  0  0  0  0  0  0  0  0  0
   47.6350   33.7240   40.6980 C   0  0  0  0  0  0  0  0  0  0  0  0
   48.1570   34.6750   39.8450 C   0  0  0  0  0  0  0  0  0  0  0  0
   48.9150   35.6770   40.3300 N   0  0  0  0  0  0  0  0  0  0  0  0
   49.1960   35.7950   41.6460 C   0  0  0  0  0  0  0  0  0  0  0  0
   48.6890   34.8640   42.5040 N   0  0  0  0  0  0  0  0  0  0  0  0
   45.7590   35.1163   42.7561 H   0  0  0  0  0  0  0  0  0  0  0  0
   46.4913   32.5711   46.1982 H   0  0  0  0  0  0  0  0  0  0  0  0
   43.7585   35.8505   46.4008 H   0  0  0  0  0  0  0  0  0  0  0  0
   47.0125   32.8998   40.3196 H   0  0  0  0  0  0  0  0  0  0  0  0
   47.9534   34.6144   38.7657 H   0  0  0  0  0  0  0  0  0  0  0  0
   49.8189   36.6223   42.0168 H   0  0  0  0  0  0  0  0  0  0  0  0
  1  2  2  0
  1  6  1  0
  2  3  1  0
  3  4  2  0
  5  4  1  0
  6  5  2  0
  7  2  1  0
  8 13  1  0
  8  7  1  0
  9  8  2  0
 10 11  2  0
 10  9  1  0
 11 12  1  0
 12 13  2  0
  1 14  1  0
  3 15  1  0
  5 16  1  0
  9 17  1  0
 10 18  1  0
 12 19  1  0
M  ISO  6  14  14  15  14  16  14  17  14  18  14  19  14
M  END
>  <minimizedAffinity>  (1) 
-3.73920012

>  <minimizedRMSD>  (1) 
4.92874336

$$$$
