
     RDKit          3D

 16 17  0  0  0  0  0  0  0  0999 V2000
   44.3010   35.7410   44.3290 C   0  0  0  0  0  0  0  0  0  0  0  0
   44.4400   34.9230   43.1660 C   0  0  0  0  0  0  0  0  0  0  0  0
   45.0600   33.6850   43.2880 C   0  0  0  0  0  0  0  0  0  0  0  0
   45.5180   33.2850   44.5120 N   0  0  0  0  0  0  0  0  0  0  0  0
   45.3690   34.0860   45.5920 C   0  0  0  0  0  0  0  0  0  0  0  0
   44.7770   35.2740   45.4910 N   0  0  0  0  0  0  0  0  0  0  0  0
   43.8280   35.4710   41.5530 S   0  0  0  0  0  0  0  0  0  0  0  0
   42.1520   34.8930   41.3460 C   0  0  0  0  0  0  0  0  0  0  0  0
   41.1970   35.8600   41.2210 N   0  0  0  0  0  0  0  0  0  0  0  0
   40.0340   35.2780   41.0800 O   0  0  0  0  0  0  0  0  0  0  0  0
   40.1820   33.9750   41.1050 C   0  0  0  0  0  0  0  0  0  0  0  0
   41.5070   33.6920   41.2730 N   0  0  0  0  0  0  0  0  0  0  0  0
   43.8166   36.7269   44.2720 H   0  0  0  0  0  0  0  0  0  0  0  0
   45.1807   33.0345   42.4092 H   0  0  0  0  0  0  0  0  0  0  0  0
   45.7434   33.7499   46.5702 H   0  0  0  0  0  0  0  0  0  0  0  0
   39.3743   33.2347   41.0071 H   0  0  0  0  0  0  0  0  0  0  0  0
  1  6  2  0
  2  3  2  0
  2  1  1  0
  3  4  1  0
  4  5  2  0
  6  5  1  0
  7  2  1  0
  8  7  1  0
  9  8  2  0
 10 11  1  0
 10  9  1  0
 11 12  2  0
 12  8  1  0
  1 13  1  0
  3 14  1  0
  5 15  1  0
 11 16  1  0
M  ISO  4  13  14  14  14  15  14  16  14
M  END
>  <minimizedAffinity>  (1) 
-3.70286655

>  <minimizedRMSD>  (1) 
2.83443737

$$$$
