
     RDKit          3D

 23 23  0  0  0  0  0  0  0  0999 V2000
   44.2740   35.7900   44.1680 C   0  0  0  0  0  0  0  0  0  0  0  0
   44.4930   34.9290   43.0710 C   0  0  0  0  0  0  0  0  0  0  0  0
   45.1150   33.7020   43.2970 C   0  0  0  0  0  0  0  0  0  0  0  0
   45.4800   33.4030   44.5780 N   0  0  0  0  0  0  0  0  0  0  0  0
   45.2560   34.2460   45.5950 C   0  0  0  0  0  0  0  0  0  0  0  0
   44.6570   35.4370   45.4010 N   0  0  0  0  0  0  0  0  0  0  0  0
   43.9900   35.3760   41.4020 S   0  0  0  0  0  0  0  0  0  0  0  0
   42.3670   34.7930   40.9590 C   0  0  0  0  0  0  0  0  0  0  0  0
   42.1460   35.0750   39.4730 C   0  0  0  0  0  0  0  0  0  0  0  0
   41.2510   35.4730   41.7070 C   0  0  0  0  0  0  0  0  0  0  0  0
   42.1790   33.2950   41.1550 C   0  0  0  0  0  0  0  0  0  0  0  0
   43.7834   36.7614   44.0078 H   0  0  0  0  0  0  0  0  0  0  0  0
   45.3050   32.9995   42.4721 H   0  0  0  0  0  0  0  0  0  0  0  0
   45.5679   33.9595   46.6102 H   0  0  0  0  0  0  0  0  0  0  0  0
   41.4711   35.9362   39.3596 H   0  0  0  0  0  0  0  0  0  0  0  0
   43.1109   35.2999   38.9950 H   0  0  0  0  0  0  0  0  0  0  0  0
   41.6970   34.1919   38.9950 H   0  0  0  0  0  0  0  0  0  0  0  0
   41.4192   35.3705   42.7892 H   0  0  0  0  0  0  0  0  0  0  0  0
   41.2266   36.5396   41.4391 H   0  0  0  0  0  0  0  0  0  0  0  0
   40.2919   35.0056   41.4391 H   0  0  0  0  0  0  0  0  0  0  0  0
   42.1503   33.0667   42.2307 H   0  0  0  0  0  0  0  0  0  0  0  0
   41.2343   32.9798   40.6880 H   0  0  0  0  0  0  0  0  0  0  0  0
   43.0166   32.7561   40.6880 H   0  0  0  0  0  0  0  0  0  0  0  0
  1  6  2  0
  2  3  2  0
  2  1  1  0
  3  4  1  0
  4  5  2  0
  6  5  1  0
  7  2  1  0
  8 11  1  0
  8  7  1  0
  8 10  1  0
  9  8  1  0
  1 12  1  0
  3 13  1  0
  5 14  1  0
  9 15  1  0
  9 16  1  0
  9 17  1  0
 10 18  1  0
 10 19  1  0
 10 20  1  0
 11 21  1  0
 11 22  1  0
 11 23  1  0
M  ISO  8  12  14  13  14  14  14  15   8  16   8  17   8  18   8  19   8
M  ISO  4  20   8  21   8  22   8  23   8
M  END
>  <minimizedAffinity>  (1) 
-3.42481279

>  <minimizedRMSD>  (1) 
0.324331373

$$$$
