
     RDKit          3D

 18 19  0  0  0  0  0  0  0  0999 V2000
   44.2170   35.8190   43.9740 C   0  0  0  0  0  0  0  0  0  0  0  0
   44.1850   34.9740   42.8470 C   0  0  0  0  0  0  0  0  0  0  0  0
   44.7660   33.7160   42.9510 C   0  0  0  0  0  0  0  0  0  0  0  0
   45.3400   33.3540   44.1400 N   0  0  0  0  0  0  0  0  0  0  0  0
   45.3420   34.2060   45.1900 C   0  0  0  0  0  0  0  0  0  0  0  0
   44.7870   35.4340   45.1230 N   0  0  0  0  0  0  0  0  0  0  0  0
   43.4200   35.4910   41.3050 S   0  0  0  0  0  0  0  0  0  0  0  0
   41.6350   35.2590   41.5440 C   0  0  0  0  0  0  0  0  0  0  0  0
   40.6820   36.2270   40.9470 C   0  0  0  0  0  0  0  0  0  0  0  0
   40.8710   34.8890   40.3300 C   0  0  0  0  0  0  0  0  0  0  0  0
   43.7630   36.8188   43.9085 H   0  0  0  0  0  0  0  0  0  0  0  0
   44.7647   33.0249   42.0952 H   0  0  0  0  0  0  0  0  0  0  0  0
   45.8125   33.8868   46.1317 H   0  0  0  0  0  0  0  0  0  0  0  0
   41.7665   34.8605   42.5608 H   0  0  0  0  0  0  0  0  0  0  0  0
   39.7422   36.4658   41.4664 H   0  0  0  0  0  0  0  0  0  0  0  0
   40.7479   37.2654   40.5901 H   0  0  0  0  0  0  0  0  0  0  0  0
   40.0707   34.1369   40.3918 H   0  0  0  0  0  0  0  0  0  0  0  0
   41.1347   34.5259   39.3257 H   0  0  0  0  0  0  0  0  0  0  0  0
  1  6  2  0
  2  3  2  0
  2  1  1  0
  3  4  1  0
  4  5  2  0
  6  5  1  0
  7  8  1  0
  7  2  1  0
  9  8  1  0
 10  9  1  0
 10  8  1  0
  1 11  1  0
  3 12  1  0
  5 13  1  0
  8 14  1  0
  9 15  1  0
  9 16  1  0
 10 17  1  0
 10 18  1  0
M  ISO  8  11  14  12  14  13  14  14  13  15  13  16  13  17  13  18  13
M  END
>  <minimizedAffinity>  (1) 
-3.32664347

>  <minimizedRMSD>  (1) 
1.38403726

$$$$
