
     RDKit          3D

 18 19  0  0  0  0  0  0  0  0999 V2000
   44.3110   35.7280   44.4150 C   0  0  0  0  0  0  0  0  0  0  0  0
   44.4670   34.9620   43.2440 C   0  0  0  0  0  0  0  0  0  0  0  0
   45.0950   33.7170   43.3450 C   0  0  0  0  0  0  0  0  0  0  0  0
   45.5320   33.2850   44.5650 N   0  0  0  0  0  0  0  0  0  0  0  0
   45.3540   34.0660   45.6630 C   0  0  0  0  0  0  0  0  0  0  0  0
   44.7550   35.2660   45.5920 N   0  0  0  0  0  0  0  0  0  0  0  0
   43.8810   35.5590   41.6550 S   0  0  0  0  0  0  0  0  0  0  0  0
   40.4960   33.7490   41.0040 N   0  0  0  0  0  0  0  0  0  0  0  0
   41.7890   33.7260   41.2680 N   0  0  0  0  0  0  0  0  0  0  0  0
   42.2410   35.0140   41.3320 C   0  0  0  0  0  0  0  0  0  0  0  0
   41.1490   35.7840   41.0940 C   0  0  0  0  0  0  0  0  0  0  0  0
   40.0250   35.0220   40.8810 C   0  0  0  0  0  0  0  0  0  0  0  0
   43.8216   36.7118   44.3634 H   0  0  0  0  0  0  0  0  0  0  0  0
   45.2358   33.0916   42.4511 H   0  0  0  0  0  0  0  0  0  0  0  0
   45.7111   33.7046   46.6386 H   0  0  0  0  0  0  0  0  0  0  0  0
   39.9129   32.9060   40.9030 H   0  0  0  0  0  0  0  0  0  0  0  0
   41.1619   36.8837   41.0740 H   0  0  0  0  0  0  0  0  0  0  0  0
   38.9997   35.3566   40.6649 H   0  0  0  0  0  0  0  0  0  0  0  0
  1  6  2  0
  2  3  2  0
  2  1  1  0
  3  4  1  0
  4  5  2  0
  6  5  1  0
  7  2  1  0
  8  9  1  0
  9 10  2  0
 10  7  1  0
 11 10  1  0
 12  8  1  0
 12 11  2  0
  1 13  1  0
  3 14  1  0
  5 15  1  0
  8 16  1  0
 11 17  1  0
 12 18  1  0
M  ISO  6  13  14  14  14  15  14  16   9  17  14  18  14
M  END
>  <minimizedAffinity>  (1) 
-3.74287748

>  <minimizedRMSD>  (1) 
2.73658776

$$$$
