
     RDKit          3D

 31 33  0  0  0  0  0  0  0  0999 V2000
   41.3650   33.4550   40.7750 N   0  0  0  0  0  0  0  0  0  0  0  0
   42.4980   33.5960   41.4280 N   0  0  0  0  0  0  0  0  0  0  0  0
   42.9270   34.8910   41.2990 C   0  0  0  0  0  0  0  0  0  0  0  0
   41.9930   35.5010   40.5420 C   0  0  0  0  0  0  0  0  0  0  0  0
   40.9930   34.6300   40.1900 C   0  0  0  0  0  0  0  0  0  0  0  0
   39.7440   34.6760   39.4100 C   0  0  0  0  0  0  0  0  0  0  0  0
   38.7870   33.5590   39.8450 C   0  0  0  0  0  0  0  0  0  0  0  0
   37.9820   33.2290   38.6110 C   0  0  0  0  0  0  0  0  0  0  0  0
   38.5910   34.0240   37.4750 C   0  0  0  0  0  0  0  0  0  0  0  0
   39.9970   34.2580   37.9750 C   0  0  0  0  0  0  0  0  0  0  0  0
   44.3820   35.6230   41.9710 S   0  0  0  0  0  0  0  0  0  0  0  0
   44.4470   35.5630   44.7690 C   0  0  0  0  0  0  0  0  0  0  0  0
   44.7980   34.9010   43.5680 C   0  0  0  0  0  0  0  0  0  0  0  0
   45.4690   33.6860   43.6560 C   0  0  0  0  0  0  0  0  0  0  0  0
   45.7660   33.1710   44.8750 N   0  0  0  0  0  0  0  0  0  0  0  0
   45.4080   33.8430   46.0090 C   0  0  0  0  0  0  0  0  0  0  0  0
   44.7640   35.0100   45.9570 N   0  0  0  0  0  0  0  0  0  0  0  0
   40.8309   32.5764   40.7136 H   0  0  0  0  0  0  0  0  0  0  0  0
   42.0281   36.5596   40.2451 H   0  0  0  0  0  0  0  0  0  0  0  0
   39.3583   35.6977   39.5419 H   0  0  0  0  0  0  0  0  0  0  0  0
   39.3509   32.6780   40.1854 H   0  0  0  0  0  0  0  0  0  0  0  0
   38.1469   33.8680   40.6846 H   0  0  0  0  0  0  0  0  0  0  0  0
   38.0411   32.1519   38.3955 H   0  0  0  0  0  0  0  0  0  0  0  0
   36.9204   33.4819   38.7492 H   0  0  0  0  0  0  0  0  0  0  0  0
   38.0581   34.9739   37.3211 H   0  0  0  0  0  0  0  0  0  0  0  0
   38.5453   33.5136   36.5016 H   0  0  0  0  0  0  0  0  0  0  0  0
   40.5992   33.3388   37.9248 H   0  0  0  0  0  0  0  0  0  0  0  0
   40.5643   34.9949   37.3874 H   0  0  0  0  0  0  0  0  0  0  0  0
   43.9169   36.5262   44.7331 H   0  0  0  0  0  0  0  0  0  0  0  0
   45.7572   33.1458   42.7421 H   0  0  0  0  0  0  0  0  0  0  0  0
   45.6570   33.4111   46.9895 H   0  0  0  0  0  0  0  0  0  0  0  0
  1  2  1  0
  3  2  2  0
  3 11  1  0
  4  3  1  0
  5  4  2  0
  5  1  1  0
  6  7  1  0
  6  5  1  0
  8  7  1  0
  9 10  1  0
  9  8  1  0
 10  6  1  0
 11 13  1  0
 12 17  2  0
 13 14  2  0
 13 12  1  0
 14 15  1  0
 15 16  2  0
 17 16  1  0
  1 18  1  0
  4 19  1  0
  6 20  1  0
  7 21  1  0
  7 22  1  0
  8 23  1  0
  8 24  1  0
  9 25  1  0
  9 26  1  0
 10 27  1  0
 10 28  1  0
 12 29  1  0
 14 30  1  0
 16 31  1  0
M  ISO  8  18   9  19  14  20  13  21  13  22  13  23  13  24  13  25  13
M  ISO  6  26  13  27  13  28  13  29  14  30  14  31  14
M  END
>  <minimizedAffinity>  (1) 
-5.25941563

>  <minimizedRMSD>  (1) 
1.28687656

$$$$
