
     RDKit          3D

 28 30  0  0  0  0  0  0  0  0999 V2000
   41.6340   32.4930   40.7620 N   0  0  0  0  0  0  0  0  0  0  0  0
   42.6830   32.8600   41.4610 N   0  0  0  0  0  0  0  0  0  0  0  0
   43.1050   34.0890   41.0210 C   0  0  0  0  0  0  0  0  0  0  0  0
   42.2350   34.4020   40.0320 C   0  0  0  0  0  0  0  0  0  0  0  0
   41.3000   33.4260   39.8410 C   0  0  0  0  0  0  0  0  0  0  0  0
   40.1830   33.2900   38.9270 C   0  0  0  0  0  0  0  0  0  0  0  0
   39.7590   32.0170   38.6050 C   0  0  0  0  0  0  0  0  0  0  0  0
   38.6950   31.8130   37.7370 C   0  0  0  0  0  0  0  0  0  0  0  0
   38.1110   32.9550   37.2360 C   0  0  0  0  0  0  0  0  0  0  0  0
   38.4820   34.2550   37.5140 C   0  0  0  0  0  0  0  0  0  0  0  0
   39.5590   34.4080   38.3940 C   0  0  0  0  0  0  0  0  0  0  0  0
   44.4680   35.0400   41.6140 S   0  0  0  0  0  0  0  0  0  0  0  0
   44.3910   35.6310   44.3420 C   0  0  0  0  0  0  0  0  0  0  0  0
   44.7760   34.7130   43.3420 C   0  0  0  0  0  0  0  0  0  0  0  0
   45.4130   33.5300   43.7430 C   0  0  0  0  0  0  0  0  0  0  0  0
   45.6390   33.2990   45.0780 N   0  0  0  0  0  0  0  0  0  0  0  0
   45.2420   34.2280   45.9850 C   0  0  0  0  0  0  0  0  0  0  0  0
   44.6270   35.3790   45.6440 N   0  0  0  0  0  0  0  0  0  0  0  0
   41.1286   31.6058   40.8978 H   0  0  0  0  0  0  0  0  0  0  0  0
   42.2768   35.3345   39.4500 H   0  0  0  0  0  0  0  0  0  0  0  0
   40.2729   31.1489   39.0436 H   0  0  0  0  0  0  0  0  0  0  0  0
   38.3421   30.8066   37.4675 H   0  0  0  0  0  0  0  0  0  0  0  0
   37.2653   32.8176   36.5461 H   0  0  0  0  0  0  0  0  0  0  0  0
   37.9629   35.1177   37.0710 H   0  0  0  0  0  0  0  0  0  0  0  0
   39.9107   35.4149   38.6630 H   0  0  0  0  0  0  0  0  0  0  0  0
   43.8903   36.5671   44.0538 H   0  0  0  0  0  0  0  0  0  0  0  0
   45.7300   32.7909   42.9925 H   0  0  0  0  0  0  0  0  0  0  0  0
   45.4313   34.0323   47.0508 H   0  0  0  0  0  0  0  0  0  0  0  0
  1  2  1  0
  3  2  2  0
  3 12  1  0
  4  3  1  0
  5  4  2  0
  5  1  1  0
  6  5  1  0
  7  6  2  0
  8  7  1  0
  9 10  1  0
  9  8  2  0
 10 11  2  0
 11  6  1  0
 12 14  1  0
 13 18  2  0
 14 15  2  0
 14 13  1  0
 15 16  1  0
 16 17  2  0
 18 17  1  0
  1 19  1  0
  4 20  1  0
  7 21  1  0
  8 22  1  0
  9 23  1  0
 10 24  1  0
 11 25  1  0
 13 26  1  0
 15 27  1  0
 17 28  1  0
M  ISO  8  19   9  20  14  21  14  22  14  23  14  24  14  25  14  26  14
M  ISO  2  27  14  28  14
M  END
>  <minimizedAffinity>  (1) 
-5.12108707

>  <minimizedRMSD>  (1) 
2.42743468

$$$$
