
     RDKit          3D

 26 28  0  0  0  0  0  0  0  0999 V2000
   40.2590   34.8880   41.2600 N   0  0  0  0  0  0  0  0  0  0  0  0
   41.2850   35.4310   41.8990 N   0  0  0  0  0  0  0  0  0  0  0  0
   42.4190   35.1580   41.2080 C   0  0  0  0  0  0  0  0  0  0  0  0
   42.0330   34.4310   40.1300 C   0  0  0  0  0  0  0  0  0  0  0  0
   40.6620   34.2450   40.1400 C   0  0  0  0  0  0  0  0  0  0  0  0
   39.8820   33.5160   39.1500 C   0  0  0  0  0  0  0  0  0  0  0  0
   38.9670   34.2540   38.3920 C   0  0  0  0  0  0  0  0  0  0  0  0
   38.2560   33.5080   37.4670 C   0  0  0  0  0  0  0  0  0  0  0  0
   38.4020   32.1830   37.2820 N   0  0  0  0  0  0  0  0  0  0  0  0
   39.3090   31.5100   38.0480 C   0  0  0  0  0  0  0  0  0  0  0  0
   40.0300   32.1890   38.9650 N   0  0  0  0  0  0  0  0  0  0  0  0
   44.0660   35.6400   41.6090 S   0  0  0  0  0  0  0  0  0  0  0  0
   44.3660   35.7730   44.3890 C   0  0  0  0  0  0  0  0  0  0  0  0
   44.5600   35.0070   43.2210 C   0  0  0  0  0  0  0  0  0  0  0  0
   45.1400   33.7510   43.3390 C   0  0  0  0  0  0  0  0  0  0  0  0
   45.5030   33.2960   44.5700 N   0  0  0  0  0  0  0  0  0  0  0  0
   45.2980   34.0710   45.6760 C   0  0  0  0  0  0  0  0  0  0  0  0
   44.7400   35.2840   45.5780 N   0  0  0  0  0  0  0  0  0  0  0  0
   39.2803   34.9478   41.5755 H   0  0  0  0  0  0  0  0  0  0  0  0
   42.7135   34.0441   39.3572 H   0  0  0  0  0  0  0  0  0  0  0  0
   38.8240   35.3371   38.5200 H   0  0  0  0  0  0  0  0  0  0  0  0
   37.5213   34.0347   36.8403 H   0  0  0  0  0  0  0  0  0  0  0  0
   39.4508   30.4268   37.9196 H   0  0  0  0  0  0  0  0  0  0  0  0
   43.9080   36.7710   44.3233 H   0  0  0  0  0  0  0  0  0  0  0  0
   45.3047   33.1294   42.4465 H   0  0  0  0  0  0  0  0  0  0  0  0
   45.5966   33.6918   46.6645 H   0  0  0  0  0  0  0  0  0  0  0  0
  1  2  1  0
  3 12  1  0
  3  2  2  0
  4  5  2  0
  4  3  1  0
  5  1  1  0
  6  5  1  0
  7  6  2  0
  8  7  1  0
  9  8  2  0
  9 10  1  0
 10 11  2  0
 11  6  1  0
 12 14  1  0
 13 18  2  0
 14 15  2  0
 14 13  1  0
 15 16  1  0
 16 17  2  0
 18 17  1  0
  1 19  1  0
  4 20  1  0
  7 21  1  0
  8 22  1  0
 10 23  1  0
 13 24  1  0
 15 25  1  0
 17 26  1  0
M  ISO  8  19   9  20  14  21  14  22  14  23  14  24  14  25  14  26  14
M  END
>  <minimizedAffinity>  (1) 
-4.95059776

>  <minimizedRMSD>  (1) 
2.72564626

$$$$
