
     RDKit          3D

 25 27  0  0  0  0  0  0  0  0999 V2000
   44.2800   33.2430   41.5930 N   0  0  0  0  0  0  0  0  0  0  0  0
   42.9680   33.4150   41.5890 N   0  0  0  0  0  0  0  0  0  0  0  0
   42.6950   34.7380   41.4000 C   0  0  0  0  0  0  0  0  0  0  0  0
   43.9120   35.3310   41.2930 C   0  0  0  0  0  0  0  0  0  0  0  0
   44.9350   34.4130   41.4100 C   0  0  0  0  0  0  0  0  0  0  0  0
   46.3400   34.6380   41.3550 N   0  0  0  0  0  0  0  0  0  0  0  0
   47.0100   35.2880   42.2860 N   0  0  0  0  0  0  0  0  0  0  0  0
   48.3290   35.3360   41.9470 C   0  0  0  0  0  0  0  0  0  0  0  0
   48.4430   34.6650   40.7270 C   0  0  0  0  0  0  0  0  0  0  0  0
   47.1590   34.2420   40.3950 C   0  0  0  0  0  0  0  0  0  0  0  0
   41.1200   35.5160   41.3110 S   0  0  0  0  0  0  0  0  0  0  0  0
   40.6380   35.2060   38.5690 C   0  0  0  0  0  0  0  0  0  0  0  0
   40.1900   34.9310   39.8830 C   0  0  0  0  0  0  0  0  0  0  0  0
   39.0110   34.1960   40.0390 C   0  0  0  0  0  0  0  0  0  0  0  0
   38.3370   33.7720   38.9390 N   0  0  0  0  0  0  0  0  0  0  0  0
   38.8090   34.0610   37.7000 C   0  0  0  0  0  0  0  0  0  0  0  0
   39.9320   34.7620   37.5150 N   0  0  0  0  0  0  0  0  0  0  0  0
   44.7446   32.3325   41.7196 H   0  0  0  0  0  0  0  0  0  0  0  0
   44.0632   36.4088   41.1330 H   0  0  0  0  0  0  0  0  0  0  0  0
   49.1411   35.8083   42.5192 H   0  0  0  0  0  0  0  0  0  0  0  0
   49.3627   34.5034   40.1455 H   0  0  0  0  0  0  0  0  0  0  0  0
   46.8758   33.6783   39.4939 H   0  0  0  0  0  0  0  0  0  0  0  0
   41.5618   35.7818   38.4107 H   0  0  0  0  0  0  0  0  0  0  0  0
   38.6322   33.9629   41.0451 H   0  0  0  0  0  0  0  0  0  0  0  0
   38.2503   33.7075   36.8209 H   0  0  0  0  0  0  0  0  0  0  0  0
  2  1  1  0
  3  2  2  0
  4  3  1  0
  4  5  2  0
  5  1  1  0
  6  5  1  0
  6  7  1  0
  8  7  2  0
  9  8  1  0
 10  9  2  0
 10  6  1  0
 11  3  1  0
 12 13  2  0
 13 14  1  0
 13 11  1  0
 15 14  2  0
 16 15  1  0
 17 16  2  0
 17 12  1  0
  1 18  1  0
  4 19  1  0
  8 20  1  0
  9 21  1  0
 10 22  1  0
 12 23  1  0
 14 24  1  0
 16 25  1  0
M  ISO  8  18   9  19  14  20  14  21  14  22  14  23  14  24  14  25  14
M  END
>  <minimizedAffinity>  (1) 
-4.85079336

>  <minimizedRMSD>  (1) 
7.57510853

$$$$
