
     RDKit          3D

 30 31  0  0  0  0  0  0  0  0999 V2000
   42.0440   33.4340   41.0760 N   0  0  0  0  0  0  0  0  0  0  0  0
   43.2470   33.2880   41.5980 N   0  0  0  0  0  0  0  0  0  0  0  0
   43.9110   34.4850   41.4850 C   0  0  0  0  0  0  0  0  0  0  0  0
   43.0380   35.3270   40.8750 C   0  0  0  0  0  0  0  0  0  0  0  0
   41.8390   34.6980   40.5980 C   0  0  0  0  0  0  0  0  0  0  0  0
   40.5840   35.1580   39.9570 C   0  0  0  0  0  0  0  0  0  0  0  0
   39.5220   34.1030   40.2700 C   0  0  0  0  0  0  0  0  0  0  0  0
   40.6950   35.2560   38.4460 C   0  0  0  0  0  0  0  0  0  0  0  0
   40.1670   36.4490   40.5840 C   0  0  0  0  0  0  0  0  0  0  0  0
   45.5470   34.8410   42.0210 S   0  0  0  0  0  0  0  0  0  0  0  0
   45.1010   34.5710   44.7790 C   0  0  0  0  0  0  0  0  0  0  0  0
   45.8530   34.1760   43.6670 C   0  0  0  0  0  0  0  0  0  0  0  0
   46.8770   33.2310   43.8610 C   0  0  0  0  0  0  0  0  0  0  0  0
   47.0810   32.7490   45.1210 N   0  0  0  0  0  0  0  0  0  0  0  0
   46.3230   33.1660   46.1560 C   0  0  0  0  0  0  0  0  0  0  0  0
   45.3390   34.0700   45.9900 N   0  0  0  0  0  0  0  0  0  0  0  0
   41.3409   32.6825   41.0336 H   0  0  0  0  0  0  0  0  0  0  0  0
   43.2573   36.3772   40.6319 H   0  0  0  0  0  0  0  0  0  0  0  0
   39.4180   33.9997   41.3602 H   0  0  0  0  0  0  0  0  0  0  0  0
   38.5591   34.4124   39.8375 H   0  0  0  0  0  0  0  0  0  0  0  0
   39.8251   33.1381   39.8375 H   0  0  0  0  0  0  0  0  0  0  0  0
   41.4955   35.9628   38.1822 H   0  0  0  0  0  0  0  0  0  0  0  0
   40.9294   34.2648   38.0305 H   0  0  0  0  0  0  0  0  0  0  0  0
   39.7405   35.6114   38.0305 H   0  0  0  0  0  0  0  0  0  0  0  0
   40.1984   36.3517   41.6792 H   0  0  0  0  0  0  0  0  0  0  0  0
   40.8525   37.2488   40.2671 H   0  0  0  0  0  0  0  0  0  0  0  0
   39.1432   36.6967   40.2671 H   0  0  0  0  0  0  0  0  0  0  0  0
   44.2968   35.3104   44.6504 H   0  0  0  0  0  0  0  0  0  0  0  0
   47.4969   32.8897   43.0189 H   0  0  0  0  0  0  0  0  0  0  0  0
   46.5133   32.7578   47.1596 H   0  0  0  0  0  0  0  0  0  0  0  0
  1  2  1  0
  3  2  2  0
  3 10  1  0
  4  3  1  0
  5  4  2  0
  5  1  1  0
  6  7  1  0
  6  9  1  0
  6  5  1  0
  8  6  1  0
 10 12  1  0
 11 16  2  0
 12 13  2  0
 12 11  1  0
 13 14  1  0
 14 15  2  0
 16 15  1  0
  1 17  1  0
  4 18  1  0
  7 19  1  0
  7 20  1  0
  7 21  1  0
  8 22  1  0
  8 23  1  0
  8 24  1  0
  9 25  1  0
  9 26  1  0
  9 27  1  0
 11 28  1  0
 13 29  1  0
 15 30  1  0
M  ISO  8  17   9  18  14  19   8  20   8  21   8  22   8  23   8  24   8
M  ISO  6  25   8  26   8  27   8  28  14  29  14  30  14
M  END
>  <minimizedAffinity>  (1) 
-4.84692144

>  <minimizedRMSD>  (1) 
1.83023524

$$$$
