
     RDKit          3D

 24 25  0  0  0  0  0  0  0  0999 V2000
   43.9560   35.5720   41.6420 S   0  0  0  0  0  0  0  0  0  0  0  0
   44.3290   35.7350   44.3980 C   0  0  0  0  0  0  0  0  0  0  0  0
   44.5080   34.9700   43.2400 C   0  0  0  0  0  0  0  0  0  0  0  0
   45.1320   33.7140   43.3490 C   0  0  0  0  0  0  0  0  0  0  0  0
   45.5450   33.2790   44.5850 N   0  0  0  0  0  0  0  0  0  0  0  0
   45.3410   34.0670   45.6660 C   0  0  0  0  0  0  0  0  0  0  0  0
   44.7440   35.2790   45.5860 N   0  0  0  0  0  0  0  0  0  0  0  0
   40.8140   33.4100   40.8500 N   0  0  0  0  0  0  0  0  0  0  0  0
   42.0200   33.5530   41.3520 N   0  0  0  0  0  0  0  0  0  0  0  0
   42.4330   34.8310   41.1690 C   0  0  0  0  0  0  0  0  0  0  0  0
   41.4050   35.4410   40.5330 C   0  0  0  0  0  0  0  0  0  0  0  0
   40.3650   34.5880   40.3100 C   0  0  0  0  0  0  0  0  0  0  0  0
   39.0310   34.6810   39.6850 C   0  0  0  0  0  0  0  0  0  0  0  0
   39.0560   34.2670   38.2240 C   0  0  0  0  0  0  0  0  0  0  0  0
   43.8430   36.7196   44.3314 H   0  0  0  0  0  0  0  0  0  0  0  0
   45.2871   33.0890   42.4572 H   0  0  0  0  0  0  0  0  0  0  0  0
   45.6743   33.7075   46.6507 H   0  0  0  0  0  0  0  0  0  0  0  0
   40.2776   32.5307   40.8607 H   0  0  0  0  0  0  0  0  0  0  0  0
   41.4085   36.4990   40.2320 H   0  0  0  0  0  0  0  0  0  0  0  0
   38.3376   34.0225   40.2287 H   0  0  0  0  0  0  0  0  0  0  0  0
   38.7054   35.7305   39.7348 H   0  0  0  0  0  0  0  0  0  0  0  0
   39.1222   33.1712   38.1545 H   0  0  0  0  0  0  0  0  0  0  0  0
   38.1355   34.6108   37.7297 H   0  0  0  0  0  0  0  0  0  0  0  0
   39.9285   34.7191   37.7297 H   0  0  0  0  0  0  0  0  0  0  0  0
  1  3  1  0
  2  7  2  0
  3  4  2  0
  3  2  1  0
  4  5  1  0
  5  6  2  0
  7  6  1  0
  8  9  1  0
 10  9  2  0
 10  1  1  0
 11 10  1  0
 12 11  2  0
 12  8  1  0
 13 12  1  0
 14 13  1  0
  2 15  1  0
  4 16  1  0
  6 17  1  0
  8 18  1  0
 11 19  1  0
 13 20  1  0
 13 21  1  0
 14 22  1  0
 14 23  1  0
 14 24  1  0
M  ISO  8  15  14  16  14  17  14  18   9  19  14  20   8  21   8  22   8
M  ISO  2  23   8  24   8
M  END
>  <minimizedAffinity>  (1) 
-4.36265135

>  <minimizedRMSD>  (1) 
0.587173939

$$$$
