
     RDKit          3D

 21 22  0  0  0  0  0  0  0  0999 V2000
   43.8440   35.4930   41.5370 S   0  0  0  0  0  0  0  0  0  0  0  0
   44.2750   35.7610   44.2920 C   0  0  0  0  0  0  0  0  0  0  0  0
   44.4340   34.9610   43.1390 C   0  0  0  0  0  0  0  0  0  0  0  0
   45.0720   33.7220   43.2730 C   0  0  0  0  0  0  0  0  0  0  0  0
   45.5200   33.3200   44.4990 N   0  0  0  0  0  0  0  0  0  0  0  0
   45.3400   34.1310   45.5760 C   0  0  0  0  0  0  0  0  0  0  0  0
   44.7300   35.3280   45.4790 N   0  0  0  0  0  0  0  0  0  0  0  0
   40.7640   33.2190   40.8790 N   0  0  0  0  0  0  0  0  0  0  0  0
   41.9810   33.4190   41.3350 N   0  0  0  0  0  0  0  0  0  0  0  0
   42.3290   34.7300   41.1130 C   0  0  0  0  0  0  0  0  0  0  0  0
   41.2400   35.2730   40.5020 C   0  0  0  0  0  0  0  0  0  0  0  0
   40.2410   34.3480   40.3410 C   0  0  0  0  0  0  0  0  0  0  0  0
   38.9580   34.6820   39.7080 C   0  0  0  0  0  0  0  0  0  0  0  0
   43.7781   36.7395   44.2177 H   0  0  0  0  0  0  0  0  0  0  0  0
   45.2119   33.0750   42.3945 H   0  0  0  0  0  0  0  0  0  0  0  0
   45.7047   33.7983   46.5590 H   0  0  0  0  0  0  0  0  0  0  0  0
   40.2695   32.3166   40.9249 H   0  0  0  0  0  0  0  0  0  0  0  0
   41.1705   36.3220   40.1783 H   0  0  0  0  0  0  0  0  0  0  0  0
   38.2054   34.8779   40.4859 H   0  0  0  0  0  0  0  0  0  0  0  0
   39.0803   35.5782   39.0821 H   0  0  0  0  0  0  0  0  0  0  0  0
   38.6277   33.8399   39.0821 H   0  0  0  0  0  0  0  0  0  0  0  0
  1  3  1  0
  2  7  2  0
  3  4  2  0
  3  2  1  0
  4  5  1  0
  5  6  2  0
  7  6  1  0
  8  9  1  0
 10  9  2  0
 10  1  1  0
 11 10  1  0
 12 11  2  0
 12  8  1  0
 13 12  1  0
  2 14  1  0
  4 15  1  0
  6 16  1  0
  8 17  1  0
 11 18  1  0
 13 19  1  0
 13 20  1  0
 13 21  1  0
M  ISO  8  14  14  15  14  16  14  17   9  18  14  19   8  20   8  21   8
M  END
>  <minimizedAffinity>  (1) 
-4.06795979

>  <minimizedRMSD>  (1) 
0.547812402

$$$$
