
     RDKit          3D

 32 34  0  0  1  0  0  0  0  0999 V2000
   43.4130   32.9340   42.0220 N   0  0  0  0  0  0  0  0  0  0  0  0
   42.2160   33.3310   41.5820 N   0  0  0  0  0  0  0  0  0  0  0  0
   42.2400   34.7030   41.4600 C   0  0  0  0  0  0  0  0  0  0  0  0
   43.4930   35.0920   41.8430 C   0  0  0  0  0  0  0  0  0  0  0  0
   44.2520   34.0120   42.2010 C   0  0  0  0  0  0  0  0  0  0  0  0
   45.6200   33.8430   42.6810 C   0  0  1  0  0  0  0  0  0  0  0  0
   46.5510   35.0040   42.6830 C   0  0  0  0  0  0  0  0  0  0  0  0
   45.9780   34.4540   43.9800 C   0  0  2  0  0  0  0  0  0  0  0  0
   46.8100   33.7830   44.9310 N   0  0  0  0  0  0  0  0  0  0  0  0
   46.3030   33.0830   46.0870 C   0  0  0  0  0  0  0  0  0  0  0  0
   45.2930   33.6840   46.6690 N   0  0  0  0  0  0  0  0  0  0  0  0
   46.9520   31.8450   46.4490 N   0  0  0  0  0  0  0  0  0  0  0  0
   44.9040   33.2100   47.5030 H   0  0  0  0  0  0  0  0  0  0  0  0
   40.9150   35.7340   40.9220 S   0  0  0  0  0  0  0  0  0  0  0  0
   40.2880   35.0460   38.2930 C   0  0  0  0  0  0  0  0  0  0  0  0
   39.9560   34.9400   39.6490 C   0  0  0  0  0  0  0  0  0  0  0  0
   38.8300   34.1760   39.9580 C   0  0  0  0  0  0  0  0  0  0  0  0
   38.1020   33.5700   38.9730 N   0  0  0  0  0  0  0  0  0  0  0  0
   38.4980   33.7270   37.6840 C   0  0  0  0  0  0  0  0  0  0  0  0
   39.5680   34.4490   37.3420 N   0  0  0  0  0  0  0  0  0  0  0  0
   43.6736   31.9541   42.2031 H   0  0  0  0  0  0  0  0  0  0  0  0
   43.8441   36.1343   41.8609 H   0  0  0  0  0  0  0  0  0  0  0  0
   45.6739   32.8302   42.2551 H   0  0  0  0  0  0  0  0  0  0  0  0
   47.6149   34.8602   42.4435 H   0  0  0  0  0  0  0  0  0  0  0  0
   46.5782   35.9883   42.1928 H   0  0  0  0  0  0  0  0  0  0  0  0
   45.4094   34.8670   44.8262 H   0  0  0  0  0  0  0  0  0  0  0  0
   47.8291   33.8004   44.7822 H   0  0  0  0  0  0  0  0  0  0  0  0
   46.6239   31.3114   47.2666 H   0  0  0  0  0  0  0  0  0  0  0  0
   47.7431   31.4955   45.8896 H   0  0  0  0  0  0  0  0  0  0  0  0
   41.1682   35.6388   38.0035 H   0  0  0  0  0  0  0  0  0  0  0  0
   38.5243   34.0600   41.0083 H   0  0  0  0  0  0  0  0  0  0  0  0
   37.9139   33.2399   36.8893 H   0  0  0  0  0  0  0  0  0  0  0  0
  1  5  1  0
  2  1  1  0
  3  2  2  0
  3  4  1  0
  4  5  2  0
  5  6  1  0
  6  7  1  0
  6  8  1  0
  7  8  1  0
  8  9  1  0
  9 10  1  0
 10 12  1  0
 10 11  2  0
 11 13  1  0
 14  3  1  0
 15 16  2  0
 16 17  1  0
 16 14  1  0
 18 17  2  0
 19 18  1  0
 20 19  2  0
 20 15  1  0
  1 21  1  0
  4 22  1  0
  6 23  1  1
  7 24  1  0
  7 25  1  0
  8 26  1  1
  9 27  1  0
 12 28  1  0
 12 29  1  0
 15 30  1  0
 17 31  1  0
 19 32  1  0
M  ISO  8  21   9  22  14  23  13  24  13  25  13  26  13  30  14  31  14
M  ISO  1  32  14
M  END
>  <minimizedAffinity>  (1) 
-5.30235481

>  <minimizedRMSD>  (1) 
8.20979595

$$$$
