
     RDKit          3D

 31 33  0  0  1  0  0  0  0  0999 V2000
   41.5330   33.6660   40.7040 N   0  0  0  0  0  0  0  0  0  0  0  0
   42.6440   33.4720   41.4160 N   0  0  0  0  0  0  0  0  0  0  0  0
   43.5130   34.4950   41.1280 C   0  0  0  0  0  0  0  0  0  0  0  0
   42.8780   35.2940   40.2250 C   0  0  0  0  0  0  0  0  0  0  0  0
   41.6390   34.8010   39.9390 C   0  0  0  0  0  0  0  0  0  0  0  0
   40.5490   35.2300   39.0520 C   0  0  1  0  0  0  0  0  0  0  0  0
   40.8570   35.6320   37.6520 C   0  0  0  0  0  0  0  0  0  0  0  0
   40.1460   34.3130   37.9640 C   0  0  2  0  0  0  0  0  0  0  0  0
   38.7040   34.1820   37.5550 C   0  0  0  0  0  0  0  0  0  0  0  0
   38.2810   32.7710   37.8640 C   0  0  0  0  0  0  0  0  0  0  0  0
   45.1370   34.7320   41.7820 S   0  0  0  0  0  0  0  0  0  0  0  0
   44.5880   35.4560   44.4060 C   0  0  0  0  0  0  0  0  0  0  0  0
   45.1550   34.4980   43.5550 C   0  0  0  0  0  0  0  0  0  0  0  0
   45.7220   33.3660   44.1470 C   0  0  0  0  0  0  0  0  0  0  0  0
   45.7100   33.2270   45.4980 N   0  0  0  0  0  0  0  0  0  0  0  0
   45.1430   34.1970   46.2580 C   0  0  0  0  0  0  0  0  0  0  0  0
   44.5880   35.2950   45.7390 N   0  0  0  0  0  0  0  0  0  0  0  0
   40.7086   33.0489   40.7252 H   0  0  0  0  0  0  0  0  0  0  0  0
   43.3050   36.2087   39.7879 H   0  0  0  0  0  0  0  0  0  0  0  0
   40.0256   35.7270   39.8821 H   0  0  0  0  0  0  0  0  0  0  0  0
   41.8960   35.6291   37.2909 H   0  0  0  0  0  0  0  0  0  0  0  0
   40.6460   36.5084   37.0217 H   0  0  0  0  0  0  0  0  0  0  0  0
   40.3156   33.2446   37.7648 H   0  0  0  0  0  0  0  0  0  0  0  0
   38.5980   34.3801   36.4782 H   0  0  0  0  0  0  0  0  0  0  0  0
   38.0769   34.9055   38.0966 H   0  0  0  0  0  0  0  0  0  0  0  0
   38.2391   32.6312   38.9543 H   0  0  0  0  0  0  0  0  0  0  0  0
   37.2871   32.5832   37.4318 H   0  0  0  0  0  0  0  0  0  0  0  0
   39.0077   32.0674   37.4318 H   0  0  0  0  0  0  0  0  0  0  0  0
   44.1333   36.3591   43.9728 H   0  0  0  0  0  0  0  0  0  0  0  0
   46.1783   32.5871   43.5183 H   0  0  0  0  0  0  0  0  0  0  0  0
   45.1403   34.0735   47.3510 H   0  0  0  0  0  0  0  0  0  0  0  0
  1  2  1  0
  3  2  2  0
  3 11  1  0
  4  3  1  0
  5  4  2  0
  5  1  1  0
  6  5  1  0
  7  8  1  0
  7  6  1  0
  8  6  1  0
  9 10  1  0
  9  8  1  0
 11 13  1  0
 12 17  2  0
 13 14  2  0
 13 12  1  0
 14 15  1  0
 15 16  2  0
 17 16  1  0
  1 18  1  0
  4 19  1  0
  6 20  1  1
  7 21  1  0
  7 22  1  0
  8 23  1  1
  9 24  1  0
  9 25  1  0
 10 26  1  0
 10 27  1  0
 10 28  1  0
 12 29  1  0
 14 30  1  0
 16 31  1  0
M  ISO  8  18   9  19  14  20  13  21  13  22  13  23  13  24   8  25   8
M  ISO  6  26   8  27   8  28   8  29  14  30  14  31  14
M  END
>  <minimizedAffinity>  (1) 
-5.15129042

>  <minimizedRMSD>  (1) 
1.57500982

$$$$
