
     RDKit          3D

 28 30  0  0  1  0  0  0  0  0999 V2000
   42.2570   33.5710   40.9790 N   0  0  0  0  0  0  0  0  0  0  0  0
   43.3710   33.6550   41.6980 N   0  0  0  0  0  0  0  0  0  0  0  0
   43.6750   34.9920   41.8460 C   0  0  0  0  0  0  0  0  0  0  0  0
   42.6980   35.6860   41.1880 C   0  0  0  0  0  0  0  0  0  0  0  0
   41.7940   34.8160   40.6340 C   0  0  0  0  0  0  0  0  0  0  0  0
   40.5820   35.0010   39.8310 C   0  0  1  0  0  0  0  0  0  0  0  0
   40.6860   35.2360   38.3670 C   0  0  0  0  0  0  0  0  0  0  0  0
   40.1850   33.9040   38.9290 C   0  0  2  0  0  0  0  0  0  0  0  0
   38.7270   33.6180   38.8740 C   0  0  0  0  0  0  0  0  0  0  0  0
   38.0330   33.2860   37.8820 O   0  0  0  0  0  0  0  0  0  0  0  0
   37.9440   33.7080   40.0410 O   0  0  0  0  0  0  0  0  0  0  0  0
   45.0500   35.6930   42.7080 S   0  0  0  0  0  0  0  0  0  0  0  0
   45.0340   34.5850   45.2650 C   0  0  0  0  0  0  0  0  0  0  0  0
   45.6140   34.6050   43.9970 C   0  0  0  0  0  0  0  0  0  0  0  0
   46.6690   33.7160   43.7960 C   0  0  0  0  0  0  0  0  0  0  0  0
   47.0900   32.8860   44.7920 N   0  0  0  0  0  0  0  0  0  0  0  0
   46.4670   32.9350   45.9950 C   0  0  0  0  0  0  0  0  0  0  0  0
   45.4520   33.7710   46.2320 N   0  0  0  0  0  0  0  0  0  0  0  0
   41.8002   32.6864   40.7148 H   0  0  0  0  0  0  0  0  0  0  0  0
   42.6447   36.7822   41.1137 H   0  0  0  0  0  0  0  0  0  0  0  0
   40.0938   35.5547   40.6465 H   0  0  0  0  0  0  0  0  0  0  0  0
   41.6726   35.2978   37.8845 H   0  0  0  0  0  0  0  0  0  0  0  0
   40.3004   35.9868   37.6616 H   0  0  0  0  0  0  0  0  0  0  0  0
   40.4689   32.8524   38.7757 H   0  0  0  0  0  0  0  0  0  0  0  0
   36.9734   33.5171   40.0018 H   0  0  0  0  0  0  0  0  0  0  0  0
   44.1982   35.2687   45.4745 H   0  0  0  0  0  0  0  0  0  0  0  0
   47.1701   33.6838   42.8173 H   0  0  0  0  0  0  0  0  0  0  0  0
   46.8071   32.2668   46.7998 H   0  0  0  0  0  0  0  0  0  0  0  0
  1  2  1  0
  2  3  2  0
  3 12  1  0
  4  3  1  0
  5  1  1  0
  5  4  2  0
  6  5  1  0
  7  8  1  0
  7  6  1  0
  8  6  1  0
  9  8  1  0
  9 11  1  0
 10  9  2  0
 12 14  1  0
 13 18  2  0
 14 13  1  0
 15 14  2  0
 15 16  1  0
 16 17  2  0
 17 18  1  0
  1 19  1  0
  4 20  1  0
  6 21  1  1
  7 22  1  0
  7 23  1  0
  8 24  1  1
 11 25  1  0
 13 26  1  0
 15 27  1  0
 17 28  1  0
M  ISO  8  19   9  20  14  21  13  22  13  23  13  24  13  25   3  26  14
M  ISO  2  27  14  28  14
M  END
>  <minimizedAffinity>  (1) 
-5.05688095

>  <minimizedRMSD>  (1) 
1.76940072

$$$$
