
     RDKit          3D

 28 30  0  0  1  0  0  0  0  0999 V2000
   41.1180   33.4630   40.7440 N   0  0  0  0  0  0  0  0  0  0  0  0
   42.2360   33.6590   41.4470 N   0  0  0  0  0  0  0  0  0  0  0  0
   42.7500   34.8840   41.0700 C   0  0  0  0  0  0  0  0  0  0  0  0
   41.8940   35.3830   40.1310 C   0  0  0  0  0  0  0  0  0  0  0  0
   40.8670   34.5220   39.9050 C   0  0  0  0  0  0  0  0  0  0  0  0
   39.6940   34.5220   39.0270 C   0  0  1  0  0  0  0  0  0  0  0  0
   39.8520   34.8590   37.5860 C   0  0  0  0  0  0  0  0  0  0  0  0
   39.5410   33.4340   38.0520 C   0  0  2  0  0  0  0  0  0  0  0  0
   38.1150   32.9450   37.7670 C   0  0  0  0  0  0  0  0  0  0  0  0
   44.2230   35.6500   41.6780 S   0  0  0  0  0  0  0  0  0  0  0  0
   44.3900   35.7280   44.4600 C   0  0  0  0  0  0  0  0  0  0  0  0
   44.6560   35.0130   43.2940 C   0  0  0  0  0  0  0  0  0  0  0  0
   45.2760   33.7740   43.4510 C   0  0  0  0  0  0  0  0  0  0  0  0
   45.5930   33.3080   44.6840 N   0  0  0  0  0  0  0  0  0  0  0  0
   45.3010   34.0630   45.7730 C   0  0  0  0  0  0  0  0  0  0  0  0
   44.7080   35.2550   45.6640 N   0  0  0  0  0  0  0  0  0  0  0  0
   40.5213   32.6269   40.8205 H   0  0  0  0  0  0  0  0  0  0  0  0
   42.0187   36.3518   39.6252 H   0  0  0  0  0  0  0  0  0  0  0  0
   39.0658   34.9245   39.8353 H   0  0  0  0  0  0  0  0  0  0  0  0
   40.8438   35.1058   37.1793 H   0  0  0  0  0  0  0  0  0  0  0  0
   39.3953   35.5780   36.8900 H   0  0  0  0  0  0  0  0  0  0  0  0
   39.9976   32.4414   37.9246 H   0  0  0  0  0  0  0  0  0  0  0  0
   37.5920   32.7656   38.7179 H   0  0  0  0  0  0  0  0  0  0  0  0
   37.5740   33.7090   37.1894 H   0  0  0  0  0  0  0  0  0  0  0  0
   38.1566   32.0098   37.1894 H   0  0  0  0  0  0  0  0  0  0  0  0
   43.9033   36.7115   44.3841 H   0  0  0  0  0  0  0  0  0  0  0  0
   45.5107   33.1674   42.5639 H   0  0  0  0  0  0  0  0  0  0  0  0
   45.5596   33.6833   46.7725 H   0  0  0  0  0  0  0  0  0  0  0  0
  1  2  1  0
  3  2  2  0
  3 10  1  0
  4  3  1  0
  5  4  2  0
  5  1  1  0
  6  5  1  0
  7  8  1  0
  7  6  1  0
  8  6  1  0
  9  8  1  0
 10 12  1  0
 11 16  2  0
 12 13  2  0
 12 11  1  0
 13 14  1  0
 14 15  2  0
 16 15  1  0
  1 17  1  0
  4 18  1  0
  6 19  1  1
  7 20  1  0
  7 21  1  0
  8 22  1  1
  9 23  1  0
  9 24  1  0
  9 25  1  0
 11 26  1  0
 13 27  1  0
 15 28  1  0
M  ISO  8  17   9  18  14  19  13  20  13  21  13  22  13  23   8  24   8
M  ISO  4  25   8  26  14  27  14  28  14
M  END
>  <minimizedAffinity>  (1) 
-4.92119551

>  <minimizedRMSD>  (1) 
0.957390606

$$$$
