
     RDKit          3D

 27 29  0  0  1  0  0  0  0  0999 V2000
   40.8320   35.4040   41.2520 N   0  0  0  0  0  0  0  0  0  0  0  0
   41.9400   35.3470   41.9910 N   0  0  0  0  0  0  0  0  0  0  0  0
   43.0070   35.1510   41.1400 C   0  0  0  0  0  0  0  0  0  0  0  0
   42.4850   35.0970   39.8780 C   0  0  0  0  0  0  0  0  0  0  0  0
   41.1330   35.2510   39.9190 C   0  0  0  0  0  0  0  0  0  0  0  0
   40.0800   35.2670   38.8910 C   0  0  1  0  0  0  0  0  0  0  0  0
   40.4560   35.3970   37.4580 C   0  0  0  0  0  0  0  0  0  0  0  0
   39.9450   34.0730   38.0280 C   0  0  2  0  0  0  0  0  0  0  0  0
   38.5810   33.6730   37.5240 C   0  0  0  0  0  0  0  0  0  0  0  0
   38.0500   32.9670   38.3810 O   0  0  0  0  0  0  0  0  0  0  0  0
   44.7070   34.9970   41.5910 S   0  0  0  0  0  0  0  0  0  0  0  0
   44.4760   35.6350   44.3000 C   0  0  0  0  0  0  0  0  0  0  0  0
   44.8860   34.7020   43.3340 C   0  0  0  0  0  0  0  0  0  0  0  0
   45.4430   33.5230   43.8270 C   0  0  0  0  0  0  0  0  0  0  0  0
   45.5740   33.3050   45.1630 N   0  0  0  0  0  0  0  0  0  0  0  0
   45.1500   34.2630   46.0280 C   0  0  0  0  0  0  0  0  0  0  0  0
   44.6100   35.4090   45.6040 N   0  0  0  0  0  0  0  0  0  0  0  0
   39.8829   35.5432   41.6271 H   0  0  0  0  0  0  0  0  0  0  0  0
   43.0733   34.9501   38.9602 H   0  0  0  0  0  0  0  0  0  0  0  0
   39.4016   35.8320   39.5472 H   0  0  0  0  0  0  0  0  0  0  0  0
   41.5123   35.5049   37.1705 H   0  0  0  0  0  0  0  0  0  0  0  0
   40.1675   36.0578   36.6273 H   0  0  0  0  0  0  0  0  0  0  0  0
   40.2982   33.0352   38.1191 H   0  0  0  0  0  0  0  0  0  0  0  0
   38.1382   33.9617   36.5593 H   0  0  0  0  0  0  0  0  0  0  0  0
   44.0294   36.5837   43.9676 H   0  0  0  0  0  0  0  0  0  0  0  0
   45.7840   32.7523   43.1201 H   0  0  0  0  0  0  0  0  0  0  0  0
   45.2544   34.0900   47.1093 H   0  0  0  0  0  0  0  0  0  0  0  0
  1  2  1  0
  3 11  1  0
  3  2  2  0
  4  5  2  0
  4  3  1  0
  5  1  1  0
  6  5  1  0
  7  8  1  0
  7  6  1  0
  8  6  1  0
  9  8  1  0
  9 10  2  0
 11 13  1  0
 12 17  2  0
 13 14  2  0
 13 12  1  0
 14 15  1  0
 15 16  2  0
 17 16  1  0
  1 18  1  0
  4 19  1  0
  6 20  1  1
  7 21  1  0
  7 22  1  0
  8 23  1  1
  9 24  1  0
 12 25  1  0
 14 26  1  0
 16 27  1  0
M  ISO  8  18   9  19  14  20  13  21  13  22  13  23  13  24   6  25  14
M  ISO  2  26  14  27  14
M  END
>  <minimizedAffinity>  (1) 
-4.79912996

>  <minimizedRMSD>  (1) 
1.52751231

$$$$
