
     RDKit          3D

 26 28  0  0  1  0  0  0  0  0999 V2000
   41.2570   33.3920   40.7510 N   0  0  0  0  0  0  0  0  0  0  0  0
   42.4010   33.4090   41.4340 N   0  0  0  0  0  0  0  0  0  0  0  0
   43.1170   34.5170   41.0300 C   0  0  0  0  0  0  0  0  0  0  0  0
   42.3450   35.1410   40.0900 C   0  0  0  0  0  0  0  0  0  0  0  0
   41.1820   34.4650   39.8950 C   0  0  0  0  0  0  0  0  0  0  0  0
   40.0190   34.6640   39.0240 C   0  0  1  0  0  0  0  0  0  0  0  0
   40.2200   35.0660   37.6050 C   0  0  0  0  0  0  0  0  0  0  0  0
   39.7540   33.6590   37.9780 C   0  0  2  0  0  0  0  0  0  0  0  0
   38.0680   33.2900   37.4270 S   0  0  0  0  0  0  0  0  0  0  0  0
   44.7070   35.0310   41.6020 S   0  0  0  0  0  0  0  0  0  0  0  0
   44.4540   35.6410   44.3040 C   0  0  0  0  0  0  0  0  0  0  0  0
   44.8910   34.7210   43.3420 C   0  0  0  0  0  0  0  0  0  0  0  0
   45.4790   33.5410   43.8220 C   0  0  0  0  0  0  0  0  0  0  0  0
   45.6070   33.3240   45.1590 N   0  0  0  0  0  0  0  0  0  0  0  0
   45.1550   34.2690   46.0220 C   0  0  0  0  0  0  0  0  0  0  0  0
   44.5880   35.4090   45.6170 N   0  0  0  0  0  0  0  0  0  0  0  0
   40.5273   32.6720   40.8509 H   0  0  0  0  0  0  0  0  0  0  0  0
   42.6267   36.0646   39.5631 H   0  0  0  0  0  0  0  0  0  0  0  0
   39.4372   35.0894   39.8550 H   0  0  0  0  0  0  0  0  0  0  0  0
   41.2351   35.2279   37.2134 H   0  0  0  0  0  0  0  0  0  0  0  0
   39.8472   35.8716   36.9554 H   0  0  0  0  0  0  0  0  0  0  0  0
   40.0862   32.6173   37.8579 H   0  0  0  0  0  0  0  0  0  0  0  0
   37.2593   33.1130   38.5186 H   0  0  0  0  0  0  0  0  0  0  0  0
   43.9877   36.5804   43.9721 H   0  0  0  0  0  0  0  0  0  0  0  0
   45.8401   32.7839   43.1104 H   0  0  0  0  0  0  0  0  0  0  0  0
   45.2601   34.0885   47.1020 H   0  0  0  0  0  0  0  0  0  0  0  0
  1  2  1  0
  3  2  2  0
  3 10  1  0
  4  3  1  0
  5  4  2  0
  5  1  1  0
  6  5  1  0
  7  8  1  0
  7  6  1  0
  8  6  1  0
  9  8  1  0
 10 12  1  0
 11 16  2  0
 12 13  2  0
 12 11  1  0
 13 14  1  0
 14 15  2  0
 16 15  1  0
  1 17  1  0
  4 18  1  0
  6 19  1  1
  7 20  1  0
  7 21  1  0
  8 22  1  1
  9 23  1  0
 11 24  1  0
 13 25  1  0
 15 26  1  0
M  ISO  8  17   9  18  14  19  13  20  13  21  13  22  13  23  11  24  14
M  ISO  2  25  14  26  14
M  END
>  <minimizedAffinity>  (1) 
-4.65154028

>  <minimizedRMSD>  (1) 
1.17412865

$$$$
