
     RDKit          3D

 28 30  0  0  1  0  0  0  0  0999 V2000
   42.4020   33.6230   40.9830 N   0  0  0  0  0  0  0  0  0  0  0  0
   43.5270   33.6590   41.6860 N   0  0  0  0  0  0  0  0  0  0  0  0
   43.8550   34.9850   41.8820 C   0  0  0  0  0  0  0  0  0  0  0  0
   42.8810   35.7190   41.2670 C   0  0  0  0  0  0  0  0  0  0  0  0
   41.9620   34.8950   40.6990 C   0  0  0  0  0  0  0  0  0  0  0  0
   40.7320   35.1180   39.9120 C   0  0  1  0  0  0  0  0  0  0  0  0
   40.8240   35.2730   38.4360 C   0  0  0  0  0  0  0  0  0  0  0  0
   40.2470   34.0050   39.0680 C   0  0  2  0  0  0  0  0  0  0  0  0
   38.7690   33.8240   38.8120 C   0  0  0  0  0  0  0  0  0  0  0  0
   38.5310   32.4530   38.6950 F   0  0  0  0  0  0  0  0  0  0  0  0
   38.4280   34.3920   37.6000 F   0  0  0  0  0  0  0  0  0  0  0  0
   38.0060   34.3700   39.8050 F   0  0  0  0  0  0  0  0  0  0  0  0
   45.2580   35.6290   42.7490 S   0  0  0  0  0  0  0  0  0  0  0  0
   45.0870   34.5370   45.3070 C   0  0  0  0  0  0  0  0  0  0  0  0
   45.7420   34.5400   44.0760 C   0  0  0  0  0  0  0  0  0  0  0  0
   46.8000   33.6420   43.9390 C   0  0  0  0  0  0  0  0  0  0  0  0
   47.1550   32.8170   44.9600 N   0  0  0  0  0  0  0  0  0  0  0  0
   46.4650   32.8780   46.1270 C   0  0  0  0  0  0  0  0  0  0  0  0
   45.4450   33.7240   46.3020 N   0  0  0  0  0  0  0  0  0  0  0  0
   41.9231   32.7595   40.6897 H   0  0  0  0  0  0  0  0  0  0  0  0
   42.8457   36.8180   41.2360 H   0  0  0  0  0  0  0  0  0  0  0  0
   40.2938   35.7364   40.7092 H   0  0  0  0  0  0  0  0  0  0  0  0
   41.8037   35.2462   37.9365 H   0  0  0  0  0  0  0  0  0  0  0  0
   40.4751   36.0129   37.7006 H   0  0  0  0  0  0  0  0  0  0  0  0
   40.4490   32.9237   39.0767 H   0  0  0  0  0  0  0  0  0  0  0  0
   44.2462   35.2289   45.4629 H   0  0  0  0  0  0  0  0  0  0  0  0
   47.3558   33.6004   42.9907 H   0  0  0  0  0  0  0  0  0  0  0  0
   46.7536   32.2116   46.9532 H   0  0  0  0  0  0  0  0  0  0  0  0
  1  2  1  0
  2  3  2  0
  3 13  1  0
  4  3  1  0
  5  1  1  0
  5  4  2  0
  6  5  1  0
  7  8  1  0
  7  6  1  0
  8  6  1  0
  9  8  1  0
  9 12  1  0
 10  9  1  0
 11  9  1  0
 13 15  1  0
 14 19  2  0
 15 14  1  0
 16 15  2  0
 16 17  1  0
 17 18  2  0
 18 19  1  0
  1 20  1  0
  4 21  1  0
  6 22  1  1
  7 23  1  0
  7 24  1  0
  8 25  1  1
 14 26  1  0
 16 27  1  0
 18 28  1  0
M  ISO  8  20   9  21  14  22  13  23  13  24  13  25  13  26  14  27  14
M  ISO  1  28  14
M  END
>  <minimizedAffinity>  (1) 
-5.37453651

>  <minimizedRMSD>  (1) 
1.84680653

$$$$
