
     RDKit          3D

 38 41  0  0  1  0  0  0  0  0999 V2000
   42.4920   33.7700   40.0570 N   0  0  0  0  0  0  0  0  0  0  0  0
   43.6040   33.9600   40.7560 N   0  0  0  0  0  0  0  0  0  0  0  0
   43.5070   35.2150   41.3390 C   0  0  0  0  0  0  0  0  0  0  0  0
   42.2970   35.7480   40.9550 C   0  0  0  0  0  0  0  0  0  0  0  0
   41.6510   34.8690   40.1590 C   0  0  0  0  0  0  0  0  0  0  0  0
   40.3510   34.8850   39.4500 C   0  0  1  0  0  0  0  0  0  0  0  0
   40.3490   34.9610   37.9480 C   0  0  0  0  0  0  0  0  0  0  0  0
   39.9520   33.6990   38.6920 C   0  0  2  0  0  0  0  0  0  0  0  0
   38.5020   33.3170   38.5410 C   0  0  0  0  0  0  0  0  0  0  0  0
   38.4270   31.9290   38.4510 F   0  0  0  0  0  0  0  0  0  0  0  0
   38.0070   33.8190   37.3520 F   0  0  0  0  0  0  0  0  0  0  0  0
   37.7530   33.7710   39.5770 F   0  0  0  0  0  0  0  0  0  0  0  0
   44.7020   36.0180   42.3830 S   0  0  0  0  0  0  0  0  0  0  0  0
   44.6200   35.2910   45.0440 C   0  0  0  0  0  0  0  0  0  0  0  0
   45.1210   34.9870   43.7710 C   0  0  0  0  0  0  0  0  0  0  0  0
   45.9290   33.8650   43.6910 C   0  0  0  0  0  0  0  0  0  0  0  0
   46.2090   33.1140   44.7930 N   0  0  0  0  0  0  0  0  0  0  0  0
   45.6850   33.4790   45.9790 C   0  0  0  0  0  0  0  0  0  0  0  0
   44.9050   34.5420   46.1210 N   0  0  0  0  0  0  0  0  0  0  0  0
   45.9960   32.6640   47.1490 C   0  0  0  0  0  0  0  0  0  0  0  0
   47.2900   32.2540   47.4110 C   0  0  0  0  0  0  0  0  0  0  0  0
   47.6930   31.4830   48.4840 C   0  0  0  0  0  0  0  0  0  0  0  0
   46.6730   31.1270   49.3260 C   0  0  0  0  0  0  0  0  0  0  0  0
   45.3500   31.4800   49.1620 C   0  0  0  0  0  0  0  0  0  0  0  0
   45.0500   32.2510   48.0590 C   0  0  0  0  0  0  0  0  0  0  0  0
   42.2816   32.9214   39.5124 H   0  0  0  0  0  0  0  0  0  0  0  0
   41.9157   36.7365   41.2507 H   0  0  0  0  0  0  0  0  0  0  0  0
   39.8856   35.4792   40.2502 H   0  0  0  0  0  0  0  0  0  0  0  0
   41.2975   35.0035   37.3925 H   0  0  0  0  0  0  0  0  0  0  0  0
   39.8856   35.6103   37.1906 H   0  0  0  0  0  0  0  0  0  0  0  0
   40.2755   32.6491   38.7466 H   0  0  0  0  0  0  0  0  0  0  0  0
   43.9723   36.1718   45.1646 H   0  0  0  0  0  0  0  0  0  0  0  0
   46.3531   33.5743   42.7186 H   0  0  0  0  0  0  0  0  0  0  0  0
   48.0687   32.5701   46.7013 H   0  0  0  0  0  0  0  0  0  0  0  0
   48.7384   31.1822   48.6474 H   0  0  0  0  0  0  0  0  0  0  0  0
   46.9290   30.5117   50.2011 H   0  0  0  0  0  0  0  0  0  0  0  0
   44.5741   31.1628   49.8744 H   0  0  0  0  0  0  0  0  0  0  0  0
   44.0038   32.5505   47.8987 H   0  0  0  0  0  0  0  0  0  0  0  0
  1  5  1  0
  1  2  1  0
  2  3  2  0
  3 13  1  0
  4  3  1  0
  5  4  2  0
  6  5  1  0
  7  8  1  0
  7  6  1  0
  8  6  1  0
  9  8  1  0
  9 12  1  0
 10  9  1  0
 11  9  1  0
 13 15  1  0
 14 19  2  0
 15 14  1  0
 16 15  2  0
 16 17  1  0
 17 18  2  0
 18 19  1  0
 18 20  1  0
 20 21  2  0
 20 25  1  0
 21 22  1  0
 22 23  2  0
 24 23  1  0
 25 24  2  0
  1 26  1  0
  4 27  1  0
  6 28  1  1
  7 29  1  0
  7 30  1  0
  8 31  1  6
 14 32  1  0
 16 33  1  0
 21 34  1  0
 22 35  1  0
 23 36  1  0
 24 37  1  0
 25 38  1  0
M  ISO  8  26   9  27  14  28  13  29  13  30  13  31  13  32  14  33  14
M  ISO  5  34  14  35  14  36  14  37  14  38  14
M  END
>  <minimizedAffinity>  (1) 
-6.98026657

>  <minimizedRMSD>  (1) 
0.940116048

$$$$
