
     RDKit          3D

 35 38  0  0  1  0  0  0  0  0999 V2000
   43.2600   33.8470   40.1010 N   0  0  0  0  0  0  0  0  0  0  0  0
   44.4420   33.7410   40.6870 N   0  0  0  0  0  0  0  0  0  0  0  0
   44.6280   34.8970   41.4340 C   0  0  0  0  0  0  0  0  0  0  0  0
   43.5080   35.6770   41.2590 C   0  0  0  0  0  0  0  0  0  0  0  0
   42.6460   35.0450   40.4360 C   0  0  0  0  0  0  0  0  0  0  0  0
   41.3110   35.3910   39.8850 C   0  0  1  0  0  0  0  0  0  0  0  0
   41.2040   35.7090   38.4180 C   0  0  0  0  0  0  0  0  0  0  0  0
   40.6630   34.4200   39.0040 C   0  0  2  0  0  0  0  0  0  0  0  0
   39.1610   34.2800   38.9450 C   0  0  0  0  0  0  0  0  0  0  0  0
   38.8480   32.9350   39.1650 F   0  0  0  0  0  0  0  0  0  0  0  0
   38.7180   34.5730   37.6600 F   0  0  0  0  0  0  0  0  0  0  0  0
   38.5550   35.0910   39.8470 F   0  0  0  0  0  0  0  0  0  0  0  0
   46.0310   35.3380   42.4360 S   0  0  0  0  0  0  0  0  0  0  0  0
   45.1610   34.6590   44.9640 C   0  0  0  0  0  0  0  0  0  0  0  0
   46.0500   34.3810   43.9400 C   0  0  0  0  0  0  0  0  0  0  0  0
   46.9260   33.3360   44.1710 C   0  0  0  0  0  0  0  0  0  0  0  0
   46.8860   32.6500   45.3420 N   0  0  0  0  0  0  0  0  0  0  0  0
   45.9940   32.9730   46.3000 C   0  0  0  0  0  0  0  0  0  0  0  0
   45.1310   33.9760   46.1130 N   0  0  0  0  0  0  0  0  0  0  0  0
   45.9580   32.2500   47.5260 N   0  0  0  0  0  0  0  0  0  0  0  0
   47.1040   31.8140   48.0180 N   0  0  0  0  0  0  0  0  0  0  0  0
   46.9380   31.1510   49.1690 C   0  0  0  0  0  0  0  0  0  0  0  0
   45.5780   31.1900   49.3910 C   0  0  0  0  0  0  0  0  0  0  0  0
   44.9510   31.8750   48.3710 C   0  0  0  0  0  0  0  0  0  0  0  0
   42.8507   33.1351   39.4793 H   0  0  0  0  0  0  0  0  0  0  0  0
   43.3415   36.6624   41.7186 H   0  0  0  0  0  0  0  0  0  0  0  0
   41.0171   35.9148   40.8065 H   0  0  0  0  0  0  0  0  0  0  0  0
   42.0999   35.6963   37.7799 H   0  0  0  0  0  0  0  0  0  0  0  0
   40.7970   36.5352   37.8165 H   0  0  0  0  0  0  0  0  0  0  0  0
   40.8113   33.3384   38.8695 H   0  0  0  0  0  0  0  0  0  0  0  0
   44.4443   35.4819   44.8257 H   0  0  0  0  0  0  0  0  0  0  0  0
   47.6604   33.0586   43.4005 H   0  0  0  0  0  0  0  0  0  0  0  0
   47.7110   30.6818   49.7953 H   0  0  0  0  0  0  0  0  0  0  0  0
   45.0673   30.7405   50.2554 H   0  0  0  0  0  0  0  0  0  0  0  0
   43.8750   32.0758   48.2614 H   0  0  0  0  0  0  0  0  0  0  0  0
  1  5  1  0
  1  2  1  0
  2  3  2  0
  3 13  1  0
  4  3  1  0
  5  4  2  0
  6  5  1  0
  7  8  1  0
  7  6  1  0
  8  6  1  0
  9  8  1  0
  9 10  1  0
  9 12  1  0
 11  9  1  0
 13 15  1  0
 14 19  2  0
 15 16  2  0
 15 14  1  0
 16 17  1  0
 17 18  2  0
 18 20  1  0
 19 18  1  0
 20 21  1  0
 20 24  1  0
 21 22  2  0
 22 23  1  0
 24 23  2  0
  1 25  1  0
  4 26  1  0
  6 27  1  1
  7 28  1  0
  7 29  1  0
  8 30  1  6
 14 31  1  0
 16 32  1  0
 22 33  1  0
 23 34  1  0
 24 35  1  0
M  ISO  8  25   9  26  14  27  13  28  13  29  13  30  13  31  14  32  14
M  ISO  3  33  14  34  14  35  14
M  END
>  <minimizedAffinity>  (1) 
-6.91487026

>  <minimizedRMSD>  (1) 
0.88867414

$$$$
