
     RDKit          3D

 34 37  0  0  1  0  0  0  0  0999 V2000
   43.2750   33.8030   40.0350 N   0  0  0  0  0  0  0  0  0  0  0  0
   44.4710   33.6920   40.6020 N   0  0  0  0  0  0  0  0  0  0  0  0
   44.6830   34.8320   41.3670 C   0  0  0  0  0  0  0  0  0  0  0  0
   43.5580   35.6110   41.2210 C   0  0  0  0  0  0  0  0  0  0  0  0
   42.6760   34.9980   40.4040 C   0  0  0  0  0  0  0  0  0  0  0  0
   41.3310   35.3590   39.8830 C   0  0  1  0  0  0  0  0  0  0  0  0
   41.2000   35.7100   38.4270 C   0  0  0  0  0  0  0  0  0  0  0  0
   40.6600   34.4100   38.9950 C   0  0  2  0  0  0  0  0  0  0  0  0
   39.1590   34.2800   38.9600 C   0  0  0  0  0  0  0  0  0  0  0  0
   38.8350   32.9480   39.2190 F   0  0  0  0  0  0  0  0  0  0  0  0
   38.6960   34.5710   37.6820 F   0  0  0  0  0  0  0  0  0  0  0  0
   38.5720   35.1150   39.8540 F   0  0  0  0  0  0  0  0  0  0  0  0
   46.1120   35.2230   42.3340 S   0  0  0  0  0  0  0  0  0  0  0  0
   45.1540   34.7030   44.9020 C   0  0  0  0  0  0  0  0  0  0  0  0
   46.0760   34.3590   43.9010 C   0  0  0  0  0  0  0  0  0  0  0  0
   46.9570   33.3010   44.1800 C   0  0  0  0  0  0  0  0  0  0  0  0
   46.8920   32.6510   45.3850 N   0  0  0  0  0  0  0  0  0  0  0  0
   45.9720   33.0540   46.2820 C   0  0  0  0  0  0  0  0  0  0  0  0
   45.1170   34.0460   46.0740 N   0  0  0  0  0  0  0  0  0  0  0  0
   45.9770   32.3200   47.5070 N   0  0  0  0  0  0  0  0  0  0  0  0
   47.1160   31.8160   48.0430 C   0  0  0  0  0  0  0  0  0  0  0  0
   46.8870   31.1600   49.2020 N   0  0  0  0  0  0  0  0  0  0  0  0
   45.5380   31.2720   49.3780 C   0  0  0  0  0  0  0  0  0  0  0  0
   45.0100   31.9780   48.3420 N   0  0  0  0  0  0  0  0  0  0  0  0
   42.8526   33.1014   39.4102 H   0  0  0  0  0  0  0  0  0  0  0  0
   43.4009   36.5889   41.6996 H   0  0  0  0  0  0  0  0  0  0  0  0
   41.0563   35.8631   40.8213 H   0  0  0  0  0  0  0  0  0  0  0  0
   42.0842   35.7057   37.7726 H   0  0  0  0  0  0  0  0  0  0  0  0
   40.7880   36.5520   37.8514 H   0  0  0  0  0  0  0  0  0  0  0  0
   40.7981   33.3304   38.8355 H   0  0  0  0  0  0  0  0  0  0  0  0
   44.4474   35.5270   44.7236 H   0  0  0  0  0  0  0  0  0  0  0  0
   47.7005   32.9936   43.4299 H   0  0  0  0  0  0  0  0  0  0  0  0
   48.1109   31.9281   47.5873 H   0  0  0  0  0  0  0  0  0  0  0  0
   44.9686   30.8574   50.2229 H   0  0  0  0  0  0  0  0  0  0  0  0
  1  5  1  0
  1  2  1  0
  2  3  2  0
  3 13  1  0
  4  3  1  0
  5  4  2  0
  6  5  1  0
  7  8  1  0
  7  6  1  0
  8  6  1  0
  9  8  1  0
  9 10  1  0
  9 12  1  0
 11  9  1  0
 13 15  1  0
 14 19  2  0
 15 16  2  0
 15 14  1  0
 16 17  1  0
 17 18  2  0
 18 20  1  0
 19 18  1  0
 20 21  1  0
 20 24  1  0
 21 22  2  0
 22 23  1  0
 24 23  2  0
  1 25  1  0
  4 26  1  0
  6 27  1  1
  7 28  1  0
  7 29  1  0
  8 30  1  6
 14 31  1  0
 16 32  1  0
 21 33  1  0
 23 34  1  0
M  ISO  8  25   9  26  14  27  13  28  13  29  13  30  13  31  14  32  14
M  ISO  2  33  14  34  14
M  END
>  <minimizedAffinity>  (1) 
-6.86563826

>  <minimizedRMSD>  (1) 
0.961123884

$$$$
