
     RDKit          3D

 36 39  0  0  1  0  0  0  0  0999 V2000
   42.4940   33.7690   40.0720 N   0  0  0  0  0  0  0  0  0  0  0  0
   43.6030   33.9650   40.7710 N   0  0  0  0  0  0  0  0  0  0  0  0
   43.5010   35.2240   41.3520 C   0  0  0  0  0  0  0  0  0  0  0  0
   42.2900   35.7540   40.9670 C   0  0  0  0  0  0  0  0  0  0  0  0
   41.6530   34.8660   40.1730 C   0  0  0  0  0  0  0  0  0  0  0  0
   40.3480   34.8930   39.4600 C   0  0  1  0  0  0  0  0  0  0  0  0
   40.3510   34.9520   37.9580 C   0  0  0  0  0  0  0  0  0  0  0  0
   39.9590   33.6970   38.7140 C   0  0  2  0  0  0  0  0  0  0  0  0
   38.5170   33.2960   38.5500 C   0  0  0  0  0  0  0  0  0  0  0  0
   38.4630   31.9030   38.4550 F   0  0  0  0  0  0  0  0  0  0  0  0
   38.0250   33.7920   37.3520 F   0  0  0  0  0  0  0  0  0  0  0  0
   37.7610   33.7380   39.5860 F   0  0  0  0  0  0  0  0  0  0  0  0
   44.6890   36.0380   42.3970 S   0  0  0  0  0  0  0  0  0  0  0  0
   44.6630   35.2280   45.0360 C   0  0  0  0  0  0  0  0  0  0  0  0
   45.1470   34.9960   43.7600 C   0  0  0  0  0  0  0  0  0  0  0  0
   45.9960   33.9080   43.6490 C   0  0  0  0  0  0  0  0  0  0  0  0
   46.3200   33.1370   44.7200 N   0  0  0  0  0  0  0  0  0  0  0  0
   45.7990   33.4390   45.9260 C   0  0  0  0  0  0  0  0  0  0  0  0
   44.9750   34.4760   46.0940 N   0  0  0  0  0  0  0  0  0  0  0  0
   46.1150   32.6440   47.1070 C   0  0  0  0  0  0  0  0  0  0  0  0
   45.1280   32.2500   47.9880 C   0  0  0  0  0  0  0  0  0  0  0  0
   45.3650   31.4870   49.1360 C   0  0  0  0  0  0  0  0  0  0  0  0
   46.6260   31.1270   49.3840 N   0  0  0  0  0  0  0  0  0  0  0  0
   47.5970   31.5050   48.5340 C   0  0  0  0  0  0  0  0  0  0  0  0
   47.3570   32.2400   47.4290 N   0  0  0  0  0  0  0  0  0  0  0  0
   42.2860   32.9189   39.5288 H   0  0  0  0  0  0  0  0  0  0  0  0
   41.9034   36.7416   41.2590 H   0  0  0  0  0  0  0  0  0  0  0  0
   39.8793   35.5019   40.2471 H   0  0  0  0  0  0  0  0  0  0  0  0
   41.3012   34.9939   37.4054 H   0  0  0  0  0  0  0  0  0  0  0  0
   39.8865   35.5900   37.1917 H   0  0  0  0  0  0  0  0  0  0  0  0
   40.2879   32.6499   38.7878 H   0  0  0  0  0  0  0  0  0  0  0  0
   43.9833   36.0796   45.1866 H   0  0  0  0  0  0  0  0  0  0  0  0
   46.4207   33.6604   42.6650 H   0  0  0  0  0  0  0  0  0  0  0  0
   44.0928   32.5544   47.7743 H   0  0  0  0  0  0  0  0  0  0  0  0
   44.5444   31.1952   49.8080 H   0  0  0  0  0  0  0  0  0  0  0  0
   48.6321   31.2015   48.7493 H   0  0  0  0  0  0  0  0  0  0  0  0
  1  5  1  0
  1  2  1  0
  2  3  2  0
  3 13  1  0
  4  3  1  0
  5  4  2  0
  6  5  1  0
  7  8  1  0
  7  6  1  0
  8  6  1  0
  9  8  1  0
  9 12  1  0
 10  9  1  0
 11  9  1  0
 13 15  1  0
 14 19  2  0
 15 14  1  0
 16 15  2  0
 16 17  1  0
 17 18  2  0
 18 19  1  0
 18 20  1  0
 20 25  1  0
 20 21  2  0
 21 22  1  0
 22 23  2  0
 24 23  1  0
 25 24  2  0
  1 26  1  0
  4 27  1  0
  6 28  1  1
  7 29  1  0
  7 30  1  0
  8 31  1  6
 14 32  1  0
 16 33  1  0
 21 34  1  0
 22 35  1  0
 24 36  1  0
M  ISO  8  26   9  27  14  28  13  29  13  30  13  31  13  32  14  33  14
M  ISO  3  34  14  35  14  36  14
M  END
>  <minimizedAffinity>  (1) 
-6.69309139

>  <minimizedRMSD>  (1) 
0.844516754

$$$$
