
     RDKit          3D

 35 38  0  0  1  0  0  0  0  0999 V2000
   43.3190   33.8610   39.9970 N   0  0  0  0  0  0  0  0  0  0  0  0
   44.5030   33.7520   40.5820 N   0  0  0  0  0  0  0  0  0  0  0  0
   44.6610   34.8800   41.3800 C   0  0  0  0  0  0  0  0  0  0  0  0
   43.5250   35.6440   41.2360 C   0  0  0  0  0  0  0  0  0  0  0  0
   42.6800   35.0300   40.3830 C   0  0  0  0  0  0  0  0  0  0  0  0
   41.3440   35.3710   39.8430 C   0  0  1  0  0  0  0  0  0  0  0  0
   41.2260   35.7480   38.3930 C   0  0  0  0  0  0  0  0  0  0  0  0
   40.7090   34.4270   38.9260 C   0  0  2  0  0  0  0  0  0  0  0  0
   39.2090   34.2630   38.8590 C   0  0  0  0  0  0  0  0  0  0  0  0
   38.9080   32.9160   39.0320 F   0  0  0  0  0  0  0  0  0  0  0  0
   38.7510   34.6080   37.6000 F   0  0  0  0  0  0  0  0  0  0  0  0
   38.5880   35.0250   39.7970 F   0  0  0  0  0  0  0  0  0  0  0  0
   46.0530   35.3050   42.4070 S   0  0  0  0  0  0  0  0  0  0  0  0
   45.1460   34.7170   44.9470 C   0  0  0  0  0  0  0  0  0  0  0  0
   46.0150   34.3780   43.9230 C   0  0  0  0  0  0  0  0  0  0  0  0
   46.8310   33.2890   44.1730 C   0  0  0  0  0  0  0  0  0  0  0  0
   46.7670   32.6110   45.3560 N   0  0  0  0  0  0  0  0  0  0  0  0
   45.8930   33.0050   46.3030 C   0  0  0  0  0  0  0  0  0  0  0  0
   45.0860   34.0480   46.1060 N   0  0  0  0  0  0  0  0  0  0  0  0
   45.8900   32.2240   47.5370 C   0  0  0  0  0  0  0  0  0  0  0  0
   44.9400   31.7490   48.4170 C   0  0  0  0  0  0  0  0  0  0  0  0
   45.6580   31.0630   49.4020 C   0  0  0  0  0  0  0  0  0  0  0  0
   46.9950   31.1590   49.0660 C   0  0  0  0  0  0  0  0  0  0  0  0
   47.0920   31.8450   47.9680 O   0  0  0  0  0  0  0  0  0  0  0  0
   42.9256   33.1696   39.3427 H   0  0  0  0  0  0  0  0  0  0  0  0
   43.3362   36.6045   41.7379 H   0  0  0  0  0  0  0  0  0  0  0  0
   41.0450   35.8515   40.7862 H   0  0  0  0  0  0  0  0  0  0  0  0
   42.1194   35.7772   37.7519 H   0  0  0  0  0  0  0  0  0  0  0  0
   40.8030   36.5918   37.8281 H   0  0  0  0  0  0  0  0  0  0  0  0
   40.8745   33.3539   38.7497 H   0  0  0  0  0  0  0  0  0  0  0  0
   44.4739   35.5756   44.8017 H   0  0  0  0  0  0  0  0  0  0  0  0
   47.5457   32.9630   43.4030 H   0  0  0  0  0  0  0  0  0  0  0  0
   43.8497   31.8815   48.3569 H   0  0  0  0  0  0  0  0  0  0  0  0
   45.2384   30.5456   50.2774 H   0  0  0  0  0  0  0  0  0  0  0  0
   47.8338   30.7278   49.6321 H   0  0  0  0  0  0  0  0  0  0  0  0
  1  5  1  0
  1  2  1  0
  2  3  2  0
  3 13  1  0
  4  3  1  0
  5  4  2  0
  6  5  1  0
  7  8  1  0
  7  6  1  0
  8  6  1  0
  9  8  1  0
  9 10  1  0
  9 12  1  0
 11  9  1  0
 13 15  1  0
 14 19  2  0
 15 16  2  0
 15 14  1  0
 16 17  1  0
 17 18  2  0
 18 20  1  0
 19 18  1  0
 20 24  1  0
 20 21  2  0
 21 22  1  0
 23 22  2  0
 24 23  1  0
  1 25  1  0
  4 26  1  0
  6 27  1  1
  7 28  1  0
  7 29  1  0
  8 30  1  6
 14 31  1  0
 16 32  1  0
 21 33  1  0
 22 34  1  0
 23 35  1  0
M  ISO  8  25   9  26  14  27  13  28  13  29  13  30  13  31  14  32  14
M  ISO  3  33  14  34  14  35  14
M  END
>  <minimizedAffinity>  (1) 
-6.68054295

>  <minimizedRMSD>  (1) 
0.981771171

$$$$
