
     RDKit          3D

 34 37  0  0  1  0  0  0  0  0999 V2000
   42.4920   33.7750   40.0550 N   0  0  0  0  0  0  0  0  0  0  0  0
   43.6040   33.9700   40.7520 N   0  0  0  0  0  0  0  0  0  0  0  0
   43.5110   35.2250   41.3380 C   0  0  0  0  0  0  0  0  0  0  0  0
   42.3020   35.7470   40.9540 C   0  0  0  0  0  0  0  0  0  0  0  0
   41.6500   34.8720   40.1590 C   0  0  0  0  0  0  0  0  0  0  0  0
   40.3480   34.8950   39.4510 C   0  0  1  0  0  0  0  0  0  0  0  0
   40.3480   34.9640   37.9460 C   0  0  0  0  0  0  0  0  0  0  0  0
   39.9490   33.7070   38.6990 C   0  0  2  0  0  0  0  0  0  0  0  0
   38.5030   33.3240   38.5420 C   0  0  0  0  0  0  0  0  0  0  0  0
   38.4380   31.9250   38.4450 F   0  0  0  0  0  0  0  0  0  0  0  0
   38.0060   33.8080   37.3480 F   0  0  0  0  0  0  0  0  0  0  0  0
   37.7530   33.7730   39.5860 F   0  0  0  0  0  0  0  0  0  0  0  0
   44.7090   36.0180   42.3730 S   0  0  0  0  0  0  0  0  0  0  0  0
   44.6430   35.2640   45.0450 C   0  0  0  0  0  0  0  0  0  0  0  0
   45.1250   34.9800   43.7750 C   0  0  0  0  0  0  0  0  0  0  0  0
   45.9440   33.8510   43.6420 C   0  0  0  0  0  0  0  0  0  0  0  0
   46.2330   33.0860   44.7340 N   0  0  0  0  0  0  0  0  0  0  0  0
   45.7210   33.4340   45.9310 C   0  0  0  0  0  0  0  0  0  0  0  0
   44.9420   34.4950   46.1060 N   0  0  0  0  0  0  0  0  0  0  0  0
   46.0070   32.6410   47.1250 C   0  0  0  0  0  0  0  0  0  0  0  0
   45.0100   31.9490   48.0140 C   0  0  0  0  0  0  0  0  0  0  0  0
   46.0630   31.1920   49.2490 S   0  0  0  0  0  0  0  0  0  0  0  0
   47.6410   31.8750   48.4430 C   0  0  0  0  0  0  0  0  0  0  0  0
   47.2720   32.4790   47.5150 N   0  0  0  0  0  0  0  0  0  0  0  0
   42.2828   32.9255   39.5113 H   0  0  0  0  0  0  0  0  0  0  0  0
   41.9194   36.7347   41.2506 H   0  0  0  0  0  0  0  0  0  0  0  0
   39.8831   35.4960   40.2464 H   0  0  0  0  0  0  0  0  0  0  0  0
   41.2970   35.0022   37.3911 H   0  0  0  0  0  0  0  0  0  0  0  0
   39.8864   35.6093   37.1841 H   0  0  0  0  0  0  0  0  0  0  0  0
   40.2714   32.6573   38.7639 H   0  0  0  0  0  0  0  0  0  0  0  0
   43.9979   36.1435   45.1874 H   0  0  0  0  0  0  0  0  0  0  0  0
   46.3538   33.5815   42.6574 H   0  0  0  0  0  0  0  0  0  0  0  0
   43.9139   31.9163   47.9275 H   0  0  0  0  0  0  0  0  0  0  0  0
   48.6788   31.7322   48.7784 H   0  0  0  0  0  0  0  0  0  0  0  0
  1  5  1  0
  1  2  1  0
  2  3  2  0
  3 13  1  0
  4  3  1  0
  5  4  2  0
  6  5  1  0
  7  8  1  0
  7  6  1  0
  8  6  1  0
  9  8  1  0
  9 12  1  0
 10  9  1  0
 11  9  1  0
 13 15  1  0
 14 19  2  0
 15 14  1  0
 16 15  2  0
 16 17  1  0
 17 18  2  0
 18 19  1  0
 18 20  1  0
 20 24  1  0
 20 21  2  0
 21 22  1  0
 23 22  1  0
 24 23  2  0
  1 25  1  0
  4 26  1  0
  6 27  1  1
  7 28  1  0
  7 29  1  0
  8 30  1  6
 14 31  1  0
 16 32  1  0
 21 33  1  0
 23 34  1  0
M  ISO  8  25   9  26  14  27  13  28  13  29  13  30  13  31  14  32  14
M  ISO  2  33  14  34  14
M  END
>  <minimizedAffinity>  (1) 
-6.33952188

>  <minimizedRMSD>  (1) 
0.868827462

$$$$
