
     RDKit          3D

 31 33  0  0  1  0  0  0  0  0999 V2000
   42.3870   33.5070   41.1080 N   0  0  0  0  0  0  0  0  0  0  0  0
   43.5380   33.4480   41.7610 N   0  0  0  0  0  0  0  0  0  0  0  0
   44.0190   34.7490   41.8490 C   0  0  0  0  0  0  0  0  0  0  0  0
   43.1050   35.5660   41.2230 C   0  0  0  0  0  0  0  0  0  0  0  0
   42.0860   34.8150   40.7570 C   0  0  0  0  0  0  0  0  0  0  0  0
   40.8470   35.1190   40.0050 C   0  0  1  0  0  0  0  0  0  0  0  0
   40.9480   35.4310   38.5370 C   0  0  0  0  0  0  0  0  0  0  0  0
   40.3500   34.1320   39.0490 C   0  0  2  0  0  0  0  0  0  0  0  0
   38.8770   33.9770   38.7640 C   0  0  0  0  0  0  0  0  0  0  0  0
   38.6180   32.6060   38.6090 F   0  0  0  0  0  0  0  0  0  0  0  0
   38.5570   34.5710   37.5690 F   0  0  0  0  0  0  0  0  0  0  0  0
   38.1210   34.4930   39.7640 F   0  0  0  0  0  0  0  0  0  0  0  0
   45.5300   35.2970   42.6120 S   0  0  0  0  0  0  0  0  0  0  0  0
   45.1080   34.5610   45.2390 C   0  0  0  0  0  0  0  0  0  0  0  0
   45.8590   34.3740   44.0910 C   0  0  0  0  0  0  0  0  0  0  0  0
   46.8610   33.4270   44.2020 C   0  0  0  0  0  0  0  0  0  0  0  0
   47.0820   32.7380   45.3560 N   0  0  0  0  0  0  0  0  0  0  0  0
   46.2970   32.9910   46.4220 C   0  0  0  0  0  0  0  0  0  0  0  0
   45.3210   33.8890   46.3720 N   0  0  0  0  0  0  0  0  0  0  0  0
   46.4660   32.2870   47.7240 C   0  0  0  0  0  0  0  0  0  0  0  0
   46.3030   30.9350   47.6450 F   0  0  0  0  0  0  0  0  0  0  0  0
   47.7120   32.6420   48.2210 F   0  0  0  0  0  0  0  0  0  0  0  0
   45.5070   32.7780   48.6210 F   0  0  0  0  0  0  0  0  0  0  0  0
   41.7957   32.6922   40.8904 H   0  0  0  0  0  0  0  0  0  0  0  0
   43.1918   36.6577   41.1193 H   0  0  0  0  0  0  0  0  0  0  0  0
   40.4119   35.6387   40.8714 H   0  0  0  0  0  0  0  0  0  0  0  0
   41.9268   35.4327   38.0350 H   0  0  0  0  0  0  0  0  0  0  0  0
   40.6180   36.2475   37.8779 H   0  0  0  0  0  0  0  0  0  0  0  0
   40.5337   33.0518   38.9520 H   0  0  0  0  0  0  0  0  0  0  0  0
   44.2945   35.3011   45.2159 H   0  0  0  0  0  0  0  0  0  0  0  0
   47.5001   33.2237   43.3301 H   0  0  0  0  0  0  0  0  0  0  0  0
  1  2  1  0
  2  3  2  0
  3 13  1  0
  4  3  1  0
  5  1  1  0
  5  4  2  0
  6  5  1  0
  7  8  1  0
  7  6  1  0
  8  6  1  0
  9  8  1  0
  9 12  1  0
 10  9  1  0
 11  9  1  0
 13 15  1  0
 14 19  2  0
 15 16  2  0
 15 14  1  0
 16 17  1  0
 17 18  2  0
 18 20  1  0
 19 18  1  0
 20 22  1  0
 20 23  1  0
 21 20  1  0
  1 24  1  0
  4 25  1  0
  6 26  1  1
  7 27  1  0
  7 28  1  0
  8 29  1  6
 14 30  1  0
 16 31  1  0
M  ISO  8  24   9  25  14  26  13  27  13  28  13  29  13  30  14  31  14
M  END
>  <minimizedAffinity>  (1) 
-6.22770977

>  <minimizedRMSD>  (1) 
0.66162467

$$$$
