
     RDKit          3D

 29 31  0  0  1  0  0  0  0  0999 V2000
   42.3820   33.5880   40.9930 N   0  0  0  0  0  0  0  0  0  0  0  0
   43.5150   33.6300   41.6860 N   0  0  0  0  0  0  0  0  0  0  0  0
   43.8510   34.9660   41.8600 C   0  0  0  0  0  0  0  0  0  0  0  0
   42.8710   35.7080   41.2440 C   0  0  0  0  0  0  0  0  0  0  0  0
   41.9550   34.8760   40.7020 C   0  0  0  0  0  0  0  0  0  0  0  0
   40.7090   35.1050   39.9220 C   0  0  1  0  0  0  0  0  0  0  0  0
   40.8160   35.2520   38.4270 C   0  0  0  0  0  0  0  0  0  0  0  0
   40.2230   34.0160   39.0760 C   0  0  2  0  0  0  0  0  0  0  0  0
   38.7530   33.8110   38.8120 C   0  0  0  0  0  0  0  0  0  0  0  0
   38.5180   32.4430   38.6910 F   0  0  0  0  0  0  0  0  0  0  0  0
   38.4090   34.3690   37.5940 F   0  0  0  0  0  0  0  0  0  0  0  0
   37.9940   34.3470   39.7990 F   0  0  0  0  0  0  0  0  0  0  0  0
   45.2660   35.6200   42.7070 S   0  0  0  0  0  0  0  0  0  0  0  0
   45.0890   34.5530   45.2720 C   0  0  0  0  0  0  0  0  0  0  0  0
   45.7640   34.5390   44.0400 C   0  0  0  0  0  0  0  0  0  0  0  0
   46.8240   33.6440   43.9260 C   0  0  0  0  0  0  0  0  0  0  0  0
   47.1700   32.8350   44.9670 N   0  0  0  0  0  0  0  0  0  0  0  0
   46.4670   32.9150   46.1140 C   0  0  0  0  0  0  0  0  0  0  0  0
   45.4470   33.7480   46.2830 N   0  0  0  0  0  0  0  0  0  0  0  0
   46.9270   32.0340   47.0930 O   0  0  0  0  0  0  0  0  0  0  0  0
   41.8926   32.7261   40.7129 H   0  0  0  0  0  0  0  0  0  0  0  0
   42.8380   36.8066   41.1995 H   0  0  0  0  0  0  0  0  0  0  0  0
   40.2685   35.7175   40.7225 H   0  0  0  0  0  0  0  0  0  0  0  0
   41.7974   35.2036   37.9325 H   0  0  0  0  0  0  0  0  0  0  0  0
   40.4849   35.9881   37.6797 H   0  0  0  0  0  0  0  0  0  0  0  0
   40.4145   32.9330   39.0946 H   0  0  0  0  0  0  0  0  0  0  0  0
   44.2438   35.2431   45.4111 H   0  0  0  0  0  0  0  0  0  0  0  0
   47.3895   33.5889   42.9841 H   0  0  0  0  0  0  0  0  0  0  0  0
   46.4861   32.0044   47.9789 H   0  0  0  0  0  0  0  0  0  0  0  0
  1  2  1  0
  2  3  2  0
  3 13  1  0
  4  3  1  0
  5  1  1  0
  5  4  2  0
  6  5  1  0
  7  8  1  0
  7  6  1  0
  8  6  1  0
  9  8  1  0
  9 12  1  0
 10  9  1  0
 11  9  1  0
 13 15  1  0
 14 19  2  0
 15 14  1  0
 16 15  2  0
 16 17  1  0
 17 18  2  0
 18 19  1  0
 18 20  1  0
  1 21  1  0
  4 22  1  0
  6 23  1  1
  7 24  1  0
  7 25  1  0
  8 26  1  1
 14 27  1  0
 16 28  1  0
 20 29  1  0
M  ISO  8  21   9  22  14  23  13  24  13  25  13  26  13  27  14  28  14
M  ISO  1  29   3
M  END
>  <minimizedAffinity>  (1) 
-5.59450293

>  <minimizedRMSD>  (1) 
0.043628037

$$$$
