
     RDKit          3D

 36 39  0  0  1  0  0  0  0  0999 V2000
   49.1440   33.6510   42.6270 C   0  0  2  0  0  0  0  0  0  0  0  0
   47.7280   33.8400   42.4220 C   0  0  2  0  0  0  0  0  0  0  0  0
   47.6080   35.2900   41.8950 C   0  0  0  0  0  0  0  0  0  0  0  0
   48.9770   35.7770   41.5200 C   0  0  0  0  0  0  0  0  0  0  0  0
   49.8210   35.0420   42.4810 C   0  0  0  0  0  0  0  0  0  0  0  0
   49.8610   32.8000   41.6630 C   0  0  0  0  0  0  0  0  0  0  0  0
   49.1220   32.2260   40.6290 C   0  0  0  0  0  0  0  0  0  0  0  0
   49.7430   31.4150   39.6790 C   0  0  0  0  0  0  0  0  0  0  0  0
   51.1030   31.2410   39.8480 N   0  0  0  0  0  0  0  0  0  0  0  0
   51.7940   31.8020   40.8490 C   0  0  0  0  0  0  0  0  0  0  0  0
   51.1710   32.5780   41.7490 N   0  0  0  0  0  0  0  0  0  0  0  0
   46.8570   33.7130   43.6320 C   0  0  0  0  0  0  0  0  0  0  0  0
   46.0780   34.5740   43.9430 O   0  0  0  0  0  0  0  0  0  0  0  0
   45.6020   31.8340   47.7180 N   0  0  0  0  0  0  0  0  0  0  0  0
   45.1890   33.1040   47.5560 C   0  0  0  0  0  0  0  0  0  0  0  0
   45.6040   33.5310   46.3620 N   0  0  0  0  0  0  0  0  0  0  0  0
   46.2870   32.5780   45.7180 C   0  0  0  0  0  0  0  0  0  0  0  0
   46.9070   32.5240   44.4850 C   0  0  0  0  0  0  0  0  0  0  0  0
   47.5040   31.3530   44.1920 N   0  0  0  0  0  0  0  0  0  0  0  0
   47.4900   30.3180   45.0430 C   0  0  0  0  0  0  0  0  0  0  0  0
   46.8940   30.3530   46.2400 N   0  0  0  0  0  0  0  0  0  0  0  0
   46.2740   31.4950   46.6070 C   0  0  0  0  0  0  0  0  0  0  0  0
   49.2084   33.1575   43.6080 H   0  0  0  0  0  0  0  0  0  0  0  0
   47.3736   33.0450   41.7494 H   0  0  0  0  0  0  0  0  0  0  0  0
   46.9524   35.3105   41.0119 H   0  0  0  0  0  0  0  0  0  0  0  0
   47.1780   35.9385   42.6725 H   0  0  0  0  0  0  0  0  0  0  0  0
   49.2271   35.5140   40.4816 H   0  0  0  0  0  0  0  0  0  0  0  0
   49.0930   36.8700   41.5639 H   0  0  0  0  0  0  0  0  0  0  0  0
   50.8450   34.9351   42.0937 H   0  0  0  0  0  0  0  0  0  0  0  0
   49.9025   35.5656   43.4449 H   0  0  0  0  0  0  0  0  0  0  0  0
   48.0403   32.4143   40.5620 H   0  0  0  0  0  0  0  0  0  0  0  0
   49.1883   30.9465   38.8527 H   0  0  0  0  0  0  0  0  0  0  0  0
   52.8765   31.6258   40.9335 H   0  0  0  0  0  0  0  0  0  0  0  0
   45.4342   31.2353   48.5392 H   0  0  0  0  0  0  0  0  0  0  0  0
   44.6084   33.6902   48.2835 H   0  0  0  0  0  0  0  0  0  0  0  0
   47.9961   29.3892   44.7408 H   0  0  0  0  0  0  0  0  0  0  0  0
  2  1  1  0
  2 12  1  0
  3  2  1  0
  4  3  1  0
  4  5  1  0
  5  1  1  0
  6 11  1  0
  6  1  1  0
  7  6  2  0
  8  9  2  0
  8  7  1  0
  9 10  1  0
 10 11  2  0
 12 13  2  0
 12 18  1  0
 15 14  1  0
 16 15  2  0
 17 16  1  0
 17 22  2  0
 18 17  1  0
 19 18  2  0
 19 20  1  0
 20 21  2  0
 21 22  1  0
 22 14  1  0
  1 23  1  1
  2 24  1  6
  3 25  1  0
  3 26  1  0
  4 27  1  0
  4 28  1  0
  5 29  1  0
  5 30  1  0
  7 31  1  0
  8 32  1  0
 10 33  1  0
 14 34  1  0
 15 35  1  0
 20 36  1  0
M  ISO  8  23  13  24  13  25  13  26  13  27  13  28  13  29  13  30  13
M  ISO  6  31  14  32  14  33  14  34   9  35  14  36  14
M  END
>  <minimizedAffinity>  (1) 
-5.72193336

>  <minimizedRMSD>  (1) 
0.39457196

$$$$
