
     RDKit          3D

 23 24  0  0  0  0  0  0  0  0999 V2000
   44.5560   35.8510   44.8370 C   0  0  0  0  0  0  0  0  0  0  0  0
   44.6750   35.9490   43.4420 C   0  0  0  0  0  0  0  0  0  0  0  0
   45.3320   34.8820   42.7760 C   0  0  0  0  0  0  0  0  0  0  0  0
   45.8020   33.8400   43.4900 N   0  0  0  0  0  0  0  0  0  0  0  0
   45.6540   33.8030   44.8560 C   0  0  0  0  0  0  0  0  0  0  0  0
   45.0350   34.8040   45.5100 N   0  0  0  0  0  0  0  0  0  0  0  0
   46.1360   32.7230   45.6410 N   0  0  0  0  0  0  0  0  0  0  0  0
   46.9920   31.8650   45.0300 C   0  0  0  0  0  0  0  0  0  0  0  0
   47.5320   30.7740   45.6800 C   0  0  0  0  0  0  0  0  0  0  0  0
   47.1940   30.5450   46.9930 C   0  0  0  0  0  0  0  0  0  0  0  0
   47.6260   29.5880   47.6740 O   0  0  0  0  0  0  0  0  0  0  0  0
   46.3430   31.4160   47.5660 N   0  0  0  0  0  0  0  0  0  0  0  0
   45.8270   32.4730   46.9190 C   0  0  0  0  0  0  0  0  0  0  0  0
   45.0430   33.2620   47.4730 O   0  0  0  0  0  0  0  0  0  0  0  0
   45.9190   31.2610   48.9630 C   0  0  0  0  0  0  0  0  0  0  0  0
   46.9820   30.6940   49.6730 F   0  0  0  0  0  0  0  0  0  0  0  0
   44.8400   30.4410   49.0730 F   0  0  0  0  0  0  0  0  0  0  0  0
   45.6300   32.4980   49.5120 F   0  0  0  0  0  0  0  0  0  0  0  0
   44.0545   36.6590   45.3898 H   0  0  0  0  0  0  0  0  0  0  0  0
   44.2772   36.8134   42.8901 H   0  0  0  0  0  0  0  0  0  0  0  0
   45.4570   34.9052   41.6834 H   0  0  0  0  0  0  0  0  0  0  0  0
   47.2649   32.0456   43.9798 H   0  0  0  0  0  0  0  0  0  0  0  0
   48.2227   30.0975   45.1554 H   0  0  0  0  0  0  0  0  0  0  0  0
  1  6  2  0
  2  1  1  0
  3  2  2  0
  3  4  1  0
  4  5  2  0
  5  6  1  0
  5  7  1  0
  7 13  1  0
  8  7  1  0
  8  9  2  0
  9 10  1  0
 10 12  1  0
 10 11  2  0
 12 15  1  0
 13 14  2  0
 13 12  1  0
 15 17  1  0
 15 18  1  0
 15 16  1  0
  1 19  1  0
  2 20  1  0
  3 21  1  0
  8 22  1  0
  9 23  1  0
M  ISO  5  19  14  20  14  21  14  22  14  23  14
M  END
>  <minimizedAffinity>  (1) 
-5.70181894

>  <minimizedRMSD>  (1) 
1.60141551

$$$$
