
     RDKit          3D

 32 34  0  0  1  0  0  0  0  0999 V2000
   47.8850   35.2890   41.8860 C   0  0  0  0  0  0  0  0  0  0  0  0
   48.3160   34.8910   40.6130 C   0  0  0  0  0  0  0  0  0  0  0  0
   48.5690   33.5050   40.4160 C   0  0  0  0  0  0  0  0  0  0  0  0
   48.3890   32.6440   41.4350 N   0  0  0  0  0  0  0  0  0  0  0  0
   47.9640   33.1000   42.6600 C   0  0  0  0  0  0  0  0  0  0  0  0
   47.7190   34.4090   42.8670 N   0  0  0  0  0  0  0  0  0  0  0  0
   47.7580   32.2120   43.7640 N   0  0  0  0  0  0  0  0  0  0  0  0
   48.2920   30.9860   43.6710 C   0  0  0  0  0  0  0  0  0  0  0  0
   48.1640   30.0380   44.6580 C   0  0  0  0  0  0  0  0  0  0  0  0
   47.4600   30.3550   45.7910 C   0  0  0  0  0  0  0  0  0  0  0  0
   47.2620   29.5900   46.7740 O   0  0  0  0  0  0  0  0  0  0  0  0
   46.9470   31.5930   45.8360 N   0  0  0  0  0  0  0  0  0  0  0  0
   47.0740   32.5100   44.8740 C   0  0  0  0  0  0  0  0  0  0  0  0
   46.5790   33.6420   44.9660 O   0  0  0  0  0  0  0  0  0  0  0  0
   45.0430   31.1720   47.2330 N   0  0  0  0  0  0  0  0  0  0  0  0
   44.7380   31.2090   48.6240 C   0  0  0  0  0  0  0  0  0  0  0  0
   45.8490   31.8790   49.3520 C   0  0  0  0  0  0  0  0  0  0  0  0
   46.9360   31.9810   48.2790 C   0  0  0  0  0  0  0  0  0  0  0  0
   46.1700   32.0530   47.0000 C   0  0  1  0  0  0  0  0  0  0  0  0
   47.6799   36.3528   42.0767 H   0  0  0  0  0  0  0  0  0  0  0  0
   48.4529   35.6197   39.8005 H   0  0  0  0  0  0  0  0  0  0  0  0
   48.9099   33.1389   39.4363 H   0  0  0  0  0  0  0  0  0  0  0  0
   48.8581   30.7270   42.7641 H   0  0  0  0  0  0  0  0  0  0  0  0
   48.6182   29.0430   44.5410 H   0  0  0  0  0  0  0  0  0  0  0  0
   45.2865   30.2110   46.9537 H   0  0  0  0  0  0  0  0  0  0  0  0
   43.8047   31.7696   48.7810 H   0  0  0  0  0  0  0  0  0  0  0  0
   44.6145   30.1834   49.0021 H   0  0  0  0  0  0  0  0  0  0  0  0
   45.5472   32.8752   49.7077 H   0  0  0  0  0  0  0  0  0  0  0  0
   46.1723   31.3367   50.2528 H   0  0  0  0  0  0  0  0  0  0  0  0
   47.5444   32.8861   48.4226 H   0  0  0  0  0  0  0  0  0  0  0  0
   47.6399   31.1361   48.3057 H   0  0  0  0  0  0  0  0  0  0  0  0
   45.8888   33.0883   46.7567 H   0  0  0  0  0  0  0  0  0  0  0  0
  1  6  2  0
  2  1  1  0
  3  2  2  0
  3  4  1  0
  4  5  2  0
  5  6  1  0
  5  7  1  0
  7 13  1  0
  8  7  1  0
  8  9  2  0
  9 10  1  0
 10 12  1  0
 10 11  2  0
 13 14  2  0
 13 12  1  0
 15 16  1  0
 16 17  1  0
 18 17  1  0
 19 12  1  0
 19 15  1  0
 19 18  1  0
  1 20  1  0
  2 21  1  0
  3 22  1  0
  8 23  1  0
  9 24  1  0
 15 25  1  0
 16 26  1  0
 16 27  1  0
 17 28  1  0
 17 29  1  0
 18 30  1  0
 18 31  1  0
 19 32  1  6
M  ISO  8  20  14  21  14  22  14  23  14  24  14  25   5  26  13  27  13
M  ISO  5  28  13  29  13  30  13  31  13  32  13
M  END
>  <minimizedAffinity>  (1) 
-5.21326399

>  <minimizedRMSD>  (1) 
3.3466177

$$$$
