
     RDKit          3D

 29 30  0  0  0  0  0  0  0  0999 V2000
   44.6470   35.9830   44.3430 C   0  0  0  0  0  0  0  0  0  0  0  0
   44.6170   36.0230   42.9340 C   0  0  0  0  0  0  0  0  0  0  0  0
   45.1400   34.9040   42.2420 C   0  0  0  0  0  0  0  0  0  0  0  0
   45.6340   33.8650   42.9570 N   0  0  0  0  0  0  0  0  0  0  0  0
   45.6350   33.8810   44.3220 C   0  0  0  0  0  0  0  0  0  0  0  0
   45.1450   34.9310   44.9950 N   0  0  0  0  0  0  0  0  0  0  0  0
   46.1490   32.8010   45.1040 N   0  0  0  0  0  0  0  0  0  0  0  0
   46.9200   31.8970   44.4580 C   0  0  0  0  0  0  0  0  0  0  0  0
   47.4770   30.8090   45.0950 C   0  0  0  0  0  0  0  0  0  0  0  0
   47.2390   30.6320   46.4500 C   0  0  0  0  0  0  0  0  0  0  0  0
   47.6890   29.6830   47.1390 O   0  0  0  0  0  0  0  0  0  0  0  0
   46.4670   31.5540   47.0510 N   0  0  0  0  0  0  0  0  0  0  0  0
   45.9370   32.6020   46.4110 C   0  0  0  0  0  0  0  0  0  0  0  0
   45.2200   33.4460   47.0060 O   0  0  0  0  0  0  0  0  0  0  0  0
   46.1900   31.4080   48.4720 C   0  0  0  0  0  0  0  0  0  0  0  0
   47.4540   31.0860   49.2590 C   0  0  0  0  0  0  0  0  0  0  0  0
   45.2200   30.2710   48.7400 C   0  0  0  0  0  0  0  0  0  0  0  0
   44.2523   36.8353   44.9155 H   0  0  0  0  0  0  0  0  0  0  0  0
   44.2042   36.8881   42.3944 H   0  0  0  0  0  0  0  0  0  0  0  0
   45.1451   34.8788   41.1423 H   0  0  0  0  0  0  0  0  0  0  0  0
   47.1098   32.0353   43.3834 H   0  0  0  0  0  0  0  0  0  0  0  0
   48.0997   30.0932   44.5383 H   0  0  0  0  0  0  0  0  0  0  0  0
   45.7631   32.3708   48.7894 H   0  0  0  0  0  0  0  0  0  0  0  0
   47.2390   31.1408   50.3364 H   0  0  0  0  0  0  0  0  0  0  0  0
   47.7961   30.0720   49.0044 H   0  0  0  0  0  0  0  0  0  0  0  0
   48.2395   31.8127   49.0044 H   0  0  0  0  0  0  0  0  0  0  0  0
   45.1046   30.1357   49.8255 H   0  0  0  0  0  0  0  0  0  0  0  0
   44.2431   30.5097   48.2943 H   0  0  0  0  0  0  0  0  0  0  0  0
   45.6096   29.3439   48.2943 H   0  0  0  0  0  0  0  0  0  0  0  0
  1  6  2  0
  2  1  1  0
  3  2  2  0
  3  4  1  0
  4  5  2  0
  5  6  1  0
  5  7  1  0
  7 13  1  0
  8  9  2  0
  8  7  1  0
  9 10  1  0
 10 12  1  0
 10 11  2  0
 12 15  1  0
 13 14  2  0
 13 12  1  0
 15 17  1  0
 15 16  1  0
  1 18  1  0
  2 19  1  0
  3 20  1  0
  8 21  1  0
  9 22  1  0
 15 23  1  0
 16 24  1  0
 16 25  1  0
 16 26  1  0
 17 27  1  0
 17 28  1  0
 17 29  1  0
M  ISO  8  18  14  19  14  20  14  21  14  22  14  23   8  24   8  25   8
M  ISO  4  26   8  27   8  28   8  29   8
M  END
>  <minimizedAffinity>  (1) 
-4.82288074

>  <minimizedRMSD>  (1) 
1.90939569

$$$$
