
     RDKit          3D

 33 35  0  0  0  0  0  0  0  0999 V2000
   44.6320   35.6510   44.8890 C   0  0  0  0  0  0  0  0  0  0  0  0
   44.0740   35.8010   43.5920 C   0  0  0  0  0  0  0  0  0  0  0  0
   44.3380   34.7730   42.6610 C   0  0  0  0  0  0  0  0  0  0  0  0
   45.0890   33.7160   43.0240 N   0  0  0  0  0  0  0  0  0  0  0  0
   45.6010   33.6300   44.2990 C   0  0  0  0  0  0  0  0  0  0  0  0
   45.3720   34.5870   45.2150 N   0  0  0  0  0  0  0  0  0  0  0  0
   46.3960   32.5090   44.7000 N   0  0  0  0  0  0  0  0  0  0  0  0
   46.8960   31.7230   43.7380 C   0  0  0  0  0  0  0  0  0  0  0  0
   47.6680   30.6150   44.0120 C   0  0  0  0  0  0  0  0  0  0  0  0
   47.9350   30.3080   45.3240 C   0  0  0  0  0  0  0  0  0  0  0  0
   48.6350   29.3100   45.6750 O   0  0  0  0  0  0  0  0  0  0  0  0
   47.4160   31.1210   46.2580 N   0  0  0  0  0  0  0  0  0  0  0  0
   46.6730   32.1860   45.9660 C   0  0  0  0  0  0  0  0  0  0  0  0
   46.2150   32.9090   46.8720 O   0  0  0  0  0  0  0  0  0  0  0  0
   47.7120   30.7740   47.6270 C   0  0  0  0  0  0  0  0  0  0  0  0
   48.8460   29.8580   47.8600 C   0  0  0  0  0  0  0  0  0  0  0  0
   48.9340   29.9820   49.3970 C   0  0  0  0  0  0  0  0  0  0  0  0
   49.1680   31.5000   49.4430 C   0  0  0  0  0  0  0  0  0  0  0  0
   48.1520   32.0140   48.4190 C   0  0  0  0  0  0  0  0  0  0  0  0
   44.4507   36.4299   45.6442 H   0  0  0  0  0  0  0  0  0  0  0  0
   43.4646   36.6770   43.3251 H   0  0  0  0  0  0  0  0  0  0  0  0
   43.9309   34.8354   41.6410 H   0  0  0  0  0  0  0  0  0  0  0  0
   46.6821   31.9716   42.6880 H   0  0  0  0  0  0  0  0  0  0  0  0
   48.0621   29.9896   43.1974 H   0  0  0  0  0  0  0  0  0  0  0  0
   46.7681   30.2991   47.9328 H   0  0  0  0  0  0  0  0  0  0  0  0
   48.6201   28.8301   47.5401 H   0  0  0  0  0  0  0  0  0  0  0  0
   49.7689   30.0933   47.3097 H   0  0  0  0  0  0  0  0  0  0  0  0
   48.0015   29.6836   49.8983 H   0  0  0  0  0  0  0  0  0  0  0  0
   49.6801   29.3510   49.9022 H   0  0  0  0  0  0  0  0  0  0  0  0
   48.9642   31.9050   50.4452 H   0  0  0  0  0  0  0  0  0  0  0  0
   50.2048   31.7942   49.2229 H   0  0  0  0  0  0  0  0  0  0  0  0
   48.6186   32.7525   47.7506 H   0  0  0  0  0  0  0  0  0  0  0  0
   47.3005   32.5153   48.9023 H   0  0  0  0  0  0  0  0  0  0  0  0
  1  6  2  0
  2  1  1  0
  3  4  1  0
  3  2  2  0
  4  5  2  0
  5  7  1  0
  5  6  1  0
  7 13  1  0
  8  9  2  0
  8  7  1  0
  9 10  1  0
 10 11  2  0
 10 12  1  0
 12 15  1  0
 13 12  1  0
 13 14  2  0
 15 16  1  0
 15 19  1  0
 16 17  1  0
 17 18  1  0
 19 18  1  0
  1 20  1  0
  2 21  1  0
  3 22  1  0
  8 23  1  0
  9 24  1  0
 15 25  1  0
 16 26  1  0
 16 27  1  0
 17 28  1  0
 17 29  1  0
 18 30  1  0
 18 31  1  0
 19 32  1  0
 19 33  1  0
M  ISO  8  20  14  21  14  22  14  23  14  24  14  25  13  26  13  27  13
M  ISO  6  28  13  29  13  30  13  31  13  32  13  33  13
M  END
>  <minimizedAffinity>  (1) 
-4.68201542

>  <minimizedRMSD>  (1) 
3.33578324

$$$$
