
     RDKit          3D

 38 40  0  0  1  0  0  0  0  0999 V2000
   49.0270   33.8510   42.6720 C   0  0  2  0  0  0  0  0  0  0  0  0
   47.6660   34.1810   42.3640 C   0  0  2  0  0  0  0  0  0  0  0  0
   47.7190   35.5990   41.7500 C   0  0  0  0  0  0  0  0  0  0  0  0
   49.1350   35.9230   41.4140 C   0  0  0  0  0  0  0  0  0  0  0  0
   49.8420   35.1760   42.4850 C   0  0  0  0  0  0  0  0  0  0  0  0
   49.7230   32.8880   41.7960 C   0  0  0  0  0  0  0  0  0  0  0  0
   48.9300   32.2000   40.8440 C   0  0  0  0  0  0  0  0  0  0  0  0
   49.5600   31.3150   39.9760 C   0  0  0  0  0  0  0  0  0  0  0  0
   50.9270   31.1710   40.1100 N   0  0  0  0  0  0  0  0  0  0  0  0
   51.6490   31.8350   41.0210 C   0  0  0  0  0  0  0  0  0  0  0  0
   51.0310   32.6730   41.8380 N   0  0  0  0  0  0  0  0  0  0  0  0
   46.7050   34.2040   43.5000 C   0  0  0  0  0  0  0  0  0  0  0  0
   45.8720   35.0480   43.6330 O   0  0  0  0  0  0  0  0  0  0  0  0
   46.4270   31.3240   46.6790 C   0  0  0  0  0  0  0  0  0  0  0  0
   46.0040   32.6210   46.8530 C   0  0  0  0  0  0  0  0  0  0  0  0
   46.1140   33.5440   45.8030 C   0  0  0  0  0  0  0  0  0  0  0  0
   46.6370   33.2180   44.5710 C   0  0  0  0  0  0  0  0  0  0  0  0
   47.0400   31.9050   44.4620 C   0  0  0  0  0  0  0  0  0  0  0  0
   46.9510   30.9670   45.4650 C   0  0  0  0  0  0  0  0  0  0  0  0
   46.2690   30.2150   48.0160 S   0  0  0  0  0  0  0  0  0  0  0  0
   47.4080   29.2080   47.9850 O   0  0  0  0  0  0  0  0  0  0  0  0
   46.2680   30.9000   49.3310 O   0  0  0  0  0  0  0  0  0  0  0  0
   48.9812   33.3946   43.6718 H   0  0  0  0  0  0  0  0  0  0  0  0
   47.2839   33.3862   41.7065 H   0  0  0  0  0  0  0  0  0  0  0  0
   47.1058   35.6301   40.8373 H   0  0  0  0  0  0  0  0  0  0  0  0
   47.3276   36.3333   42.4694 H   0  0  0  0  0  0  0  0  0  0  0  0
   49.4095   35.5569   40.4137 H   0  0  0  0  0  0  0  0  0  0  0  0
   49.3637   36.9983   41.3759 H   0  0  0  0  0  0  0  0  0  0  0  0
   50.8755   34.9531   42.1815 H   0  0  0  0  0  0  0  0  0  0  0  0
   49.9023   35.7555   43.4180 H   0  0  0  0  0  0  0  0  0  0  0  0
   47.8432   32.3621   40.7930 H   0  0  0  0  0  0  0  0  0  0  0  0
   48.9949   30.7547   39.2166 H   0  0  0  0  0  0  0  0  0  0  0  0
   52.7368   31.6867   41.0893 H   0  0  0  0  0  0  0  0  0  0  0  0
   45.5786   32.9350   47.8176 H   0  0  0  0  0  0  0  0  0  0  0  0
   45.7672   34.5743   45.9706 H   0  0  0  0  0  0  0  0  0  0  0  0
   47.4651   31.5820   43.5003 H   0  0  0  0  0  0  0  0  0  0  0  0
   47.2983   29.9376   45.2929 H   0  0  0  0  0  0  0  0  0  0  0  0
   45.0599   29.5872   47.8719 H   0  0  0  0  0  0  0  0  0  0  0  0
  2  1  1  0
  2 12  1  0
  3  2  1  0
  4  3  1  0
  4  5  1  0
  5  1  1  0
  6 11  1  0
  6  1  1  0
  7  6  2  0
  8  9  2  0
  8  7  1  0
  9 10  1  0
 10 11  2  0
 12 13  2  0
 12 17  1  0
 14 15  2  0
 14 20  1  0
 16 15  1  0
 17 16  2  0
 18 17  1  0
 18 19  2  0
 19 14  1  0
 20 22  2  0
 21 20  2  0
  1 23  1  1
  2 24  1  6
  3 25  1  0
  3 26  1  0
  4 27  1  0
  4 28  1  0
  5 29  1  0
  5 30  1  0
  7 31  1  0
  8 32  1  0
 10 33  1  0
 15 34  1  0
 16 35  1  0
 18 36  1  0
 19 37  1  0
 20 38  1  0
M  ISO  8  23  13  24  13  25  13  26  13  27  13  28  13  29  13  30  13
M  ISO  8  31  14  32  14  33  14  34  14  35  14  36  14  37  14  38  11
M  END
>  <minimizedAffinity>  (1) 
-5.63944435

>  <minimizedRMSD>  (1) 
0.576697648

$$$$
