
     RDKit          3D

 36 38  0  0  1  0  0  0  0  0999 V2000
   40.9150   36.0110   41.0910 C   0  0  0  0  0  0  0  0  0  0  0  0
   39.7690   35.6240   40.3640 C   0  0  0  0  0  0  0  0  0  0  0  0
   39.9510   34.6560   39.3480 C   0  0  0  0  0  0  0  0  0  0  0  0
   41.1680   34.1420   39.1030 N   0  0  0  0  0  0  0  0  0  0  0  0
   42.2450   34.5670   39.8560 C   0  0  0  0  0  0  0  0  0  0  0  0
   42.1180   35.4920   40.8370 N   0  0  0  0  0  0  0  0  0  0  0  0
   43.5540   34.0300   39.6390 N   0  0  0  0  0  0  0  0  0  0  0  0
   43.7840   33.4120   38.4750 C   0  0  0  0  0  0  0  0  0  0  0  0
   45.0010   32.8430   38.1770 C   0  0  0  0  0  0  0  0  0  0  0  0
   46.0080   32.9140   39.1020 C   0  0  0  0  0  0  0  0  0  0  0  0
   47.1410   32.4150   38.8930 O   0  0  0  0  0  0  0  0  0  0  0  0
   45.7470   33.5370   40.2510 N   0  0  0  0  0  0  0  0  0  0  0  0
   44.5610   34.0800   40.5160 C   0  0  0  0  0  0  0  0  0  0  0  0
   44.3420   34.6520   41.5810 O   0  0  0  0  0  0  0  0  0  0  0  0
   46.8340   33.5820   41.2130 C   0  0  1  0  0  0  0  0  0  0  0  0
   47.2100   32.2900   41.8220 C   0  0  0  0  0  0  0  0  0  0  0  0
   48.6070   32.6500   42.3720 C   0  0  0  0  0  0  0  0  0  0  0  0
   49.2130   33.0920   41.0710 C   0  0  0  0  0  0  0  0  0  0  0  0
   48.0960   34.1310   40.6560 C   0  0  2  0  0  0  0  0  0  0  0  0
   48.6430   35.3890   41.2730 C   0  0  0  0  0  0  0  0  0  0  0  0
   49.1280   36.2510   40.2490 F   0  0  0  0  0  0  0  0  0  0  0  0
   47.9020   36.0220   42.2050 F   0  0  0  0  0  0  0  0  0  0  0  0
   49.8820   35.1950   41.9420 F   0  0  0  0  0  0  0  0  0  0  0  0
   40.8139   36.7612   41.8891 H   0  0  0  0  0  0  0  0  0  0  0  0
   38.7797   36.0550   40.5773 H   0  0  0  0  0  0  0  0  0  0  0  0
   39.0882   34.3213   38.7533 H   0  0  0  0  0  0  0  0  0  0  0  0
   42.9744   33.3569   37.7324 H   0  0  0  0  0  0  0  0  0  0  0  0
   45.1620   32.3398   37.2122 H   0  0  0  0  0  0  0  0  0  0  0  0
   46.3974   34.2391   41.9796 H   0  0  0  0  0  0  0  0  0  0  0  0
   46.5170   32.0003   42.6256 H   0  0  0  0  0  0  0  0  0  0  0  0
   47.1894   31.4306   41.1357 H   0  0  0  0  0  0  0  0  0  0  0  0
   48.5699   33.4604   43.1149 H   0  0  0  0  0  0  0  0  0  0  0  0
   49.1393   31.8561   42.9165 H   0  0  0  0  0  0  0  0  0  0  0  0
   50.1953   33.5676   41.2082 H   0  0  0  0  0  0  0  0  0  0  0  0
   49.4300   32.2969   40.3425 H   0  0  0  0  0  0  0  0  0  0  0  0
   47.8733   34.3238   39.5962 H   0  0  0  0  0  0  0  0  0  0  0  0
  2  1  2  0
  3  2  1  0
  4  3  2  0
  4  5  1  0
  5  6  2  0
  6  1  1  0
  7  5  1  0
  7 13  1  0
  8  7  1  0
  9  8  2  0
  9 10  1  0
 10 12  1  0
 11 10  2  0
 12 13  1  0
 12 15  1  0
 13 14  2  0
 15 16  1  0
 16 17  1  0
 18 17  1  0
 19 18  1  0
 19 15  1  0
 19 20  1  0
 20 23  1  0
 20 22  1  0
 21 20  1  0
  1 24  1  0
  2 25  1  0
  3 26  1  0
  8 27  1  0
  9 28  1  0
 15 29  1  1
 16 30  1  0
 16 31  1  0
 17 32  1  0
 17 33  1  0
 18 34  1  0
 18 35  1  0
 19 36  1  6
M  ISO  8  24  14  25  14  26  14  27  14  28  14  29  13  30  13  31  13
M  ISO  5  32  13  33  13  34  13  35  13  36  13
M  END
>  <minimizedAffinity>  (1) 
-6.27941751

>  <minimizedRMSD>  (1) 
7.17615509

$$$$
