
     RDKit          3D

 46 49  0  0  1  0  0  0  0  0999 V2000
   44.5650   35.8460   44.1070 C   0  0  0  0  0  0  0  0  0  0  0  0
   44.3790   36.1510   42.7330 C   0  0  0  0  0  0  0  0  0  0  0  0
   44.9620   35.2790   41.7870 C   0  0  0  0  0  0  0  0  0  0  0  0
   45.6570   34.2150   42.2170 N   0  0  0  0  0  0  0  0  0  0  0  0
   45.8040   33.9700   43.5590 C   0  0  0  0  0  0  0  0  0  0  0  0
   45.2650   34.7760   44.4780 N   0  0  0  0  0  0  0  0  0  0  0  0
   46.5490   32.8280   44.0200 N   0  0  0  0  0  0  0  0  0  0  0  0
   47.3390   32.2010   43.1460 C   0  0  0  0  0  0  0  0  0  0  0  0
   48.0930   31.0940   43.4880 C   0  0  0  0  0  0  0  0  0  0  0  0
   48.0220   30.6300   44.7800 C   0  0  0  0  0  0  0  0  0  0  0  0
   48.6760   29.6320   45.1660 O   0  0  0  0  0  0  0  0  0  0  0  0
   47.2170   31.2870   45.6280 N   0  0  0  0  0  0  0  0  0  0  0  0
   46.5030   32.3470   45.2730 C   0  0  0  0  0  0  0  0  0  0  0  0
   45.7730   32.9290   46.0760 O   0  0  0  0  0  0  0  0  0  0  0  0
   47.1750   30.7670   46.9660 C   0  0  1  0  0  0  0  0  0  0  0  0
   47.6580   31.6190   48.0590 C   0  0  0  0  0  0  0  0  0  0  0  0
   47.1030   30.8290   49.2780 C   0  0  0  0  0  0  0  0  0  0  0  0
   45.6550   30.8240   48.8760 C   0  0  0  0  0  0  0  0  0  0  0  0
   45.7810   30.4010   47.3960 C   0  0  2  0  0  0  0  0  0  0  0  0
   45.4320   29.0330   47.3750 N   0  0  0  0  0  0  0  0  0  0  0  0
   44.3980   28.5700   46.5530 C   0  0  0  0  0  0  0  0  0  0  0  0
   44.1410   27.1010   46.9380 C   0  0  0  0  0  0  0  0  0  0  0  0
   45.2570   26.3340   46.7170 O   0  0  0  0  0  0  0  0  0  0  0  0
   46.2340   26.7960   47.6270 C   0  0  0  0  0  0  0  0  0  0  0  0
   46.6150   28.2250   47.3210 C   0  0  0  0  0  0  0  0  0  0  0  0
   44.1258   36.5011   44.8737 H   0  0  0  0  0  0  0  0  0  0  0  0
   43.8027   37.0330   42.4170 H   0  0  0  0  0  0  0  0  0  0  0  0
   44.8475   35.4701   40.7098 H   0  0  0  0  0  0  0  0  0  0  0  0
   47.3922   32.5794   42.1145 H   0  0  0  0  0  0  0  0  0  0  0  0
   48.7338   30.5969   42.7449 H   0  0  0  0  0  0  0  0  0  0  0  0
   47.8647   29.9186   46.8459 H   0  0  0  0  0  0  0  0  0  0  0  0
   48.7563   31.6785   48.0761 H   0  0  0  0  0  0  0  0  0  0  0  0
   47.3404   32.6707   48.0033 H   0  0  0  0  0  0  0  0  0  0  0  0
   47.5216   29.8139   49.3432 H   0  0  0  0  0  0  0  0  0  0  0  0
   47.3290   31.2471   50.2700 H   0  0  0  0  0  0  0  0  0  0  0  0
   45.0732   30.0953   49.4594 H   0  0  0  0  0  0  0  0  0  0  0  0
   45.1284   31.7758   49.0396 H   0  0  0  0  0  0  0  0  0  0  0  0
   45.1211   30.8993   46.6705 H   0  0  0  0  0  0  0  0  0  0  0  0
   44.6964   28.6371   45.4964 H   0  0  0  0  0  0  0  0  0  0  0  0
   43.4894   29.1756   46.6859 H   0  0  0  0  0  0  0  0  0  0  0  0
   43.8740   27.0495   48.0039 H   0  0  0  0  0  0  0  0  0  0  0  0
   43.3199   26.7136   46.3169 H   0  0  0  0  0  0  0  0  0  0  0  0
   45.8306   26.7407   48.6489 H   0  0  0  0  0  0  0  0  0  0  0  0
   47.1296   26.1638   47.5356 H   0  0  0  0  0  0  0  0  0  0  0  0
   47.0588   28.2836   46.3162 H   0  0  0  0  0  0  0  0  0  0  0  0
   47.3506   28.5844   48.0557 H   0  0  0  0  0  0  0  0  0  0  0  0
  1  6  2  0
  2  1  1  0
  3  4  1  0
  3  2  2  0
  4  5  2  0
  5  7  1  0
  5  6  1  0
  7 13  1  0
  8  9  2  0
  8  7  1  0
  9 10  1  0
 10 11  2  0
 10 12  1  0
 12 15  1  0
 13 12  1  0
 13 14  2  0
 15 19  1  0
 15 16  1  0
 16 17  1  0
 18 17  1  0
 19 18  1  0
 20 19  1  0
 21 22  1  0
 21 20  1  0
 23 22  1  0
 23 24  1  0
 25 20  1  0
 25 24  1  0
  1 26  1  0
  2 27  1  0
  3 28  1  0
  8 29  1  0
  9 30  1  0
 15 31  1  6
 16 32  1  0
 16 33  1  0
 17 34  1  0
 17 35  1  0
 18 36  1  0
 18 37  1  0
 19 38  1  6
 21 39  1  0
 21 40  1  0
 22 41  1  0
 22 42  1  0
 24 43  1  0
 24 44  1  0
 25 45  1  0
 25 46  1  0
M  ISO  8  26  14  27  14  28  14  29  14  30  14  31  13  32  13  33  13
M  ISO  8  34  13  35  13  36  13  37  13  38  13  39  13  40  13  41  13
M  ISO  5  42  13  43  13  44  13  45  13  46  13
M  END
>  <minimizedAffinity>  (1) 
-5.2911334

>  <minimizedRMSD>  (1) 
3.29362059

$$$$
