
     RDKit          3D

 40 42  0  0  1  0  0  0  0  0999 V2000
   49.1000   33.6050   42.6240 C   0  0  2  0  0  0  0  0  0  0  0  0
   47.7030   33.8520   42.4200 C   0  0  2  0  0  0  0  0  0  0  0  0
   47.6190   35.3060   41.9320 C   0  0  0  0  0  0  0  0  0  0  0  0
   48.9820   35.7660   41.5330 C   0  0  0  0  0  0  0  0  0  0  0  0
   49.8080   35.0090   42.5120 C   0  0  0  0  0  0  0  0  0  0  0  0
   49.8260   32.7690   41.6650 C   0  0  0  0  0  0  0  0  0  0  0  0
   49.0700   32.2190   40.6020 C   0  0  0  0  0  0  0  0  0  0  0  0
   49.7270   31.4490   39.6530 C   0  0  0  0  0  0  0  0  0  0  0  0
   51.0850   31.2750   39.8200 N   0  0  0  0  0  0  0  0  0  0  0  0
   51.7720   31.8020   40.8320 C   0  0  0  0  0  0  0  0  0  0  0  0
   51.1300   32.5340   41.7280 N   0  0  0  0  0  0  0  0  0  0  0  0
   46.8510   33.7180   43.6570 C   0  0  0  0  0  0  0  0  0  0  0  0
   45.9700   34.5200   43.8950 O   0  0  0  0  0  0  0  0  0  0  0  0
   46.9440   32.7180   44.6380 N   0  0  0  0  0  0  0  0  0  0  0  0
   46.4970   33.3730   45.8770 C   0  0  0  0  0  0  0  0  0  0  0  0
   46.6060   32.4400   47.0500 C   0  0  0  0  0  0  0  0  0  0  0  0
   45.8240   31.1610   46.8500 C   0  0  0  0  0  0  0  0  0  0  0  0
   46.0220   30.6730   45.4310 C   0  0  0  0  0  0  0  0  0  0  0  0
   47.3010   31.3260   44.8900 C   0  0  0  0  0  0  0  0  0  0  0  0
   49.1330   33.0626   43.5804 H   0  0  0  0  0  0  0  0  0  0  0  0
   47.3148   33.1024   41.7147 H   0  0  0  0  0  0  0  0  0  0  0  0
   46.9420   35.3659   41.0671 H   0  0  0  0  0  0  0  0  0  0  0  0
   47.2328   35.9463   42.7388 H   0  0  0  0  0  0  0  0  0  0  0  0
   49.2198   35.4864   40.4960 H   0  0  0  0  0  0  0  0  0  0  0  0
   49.1263   36.8564   41.5508 H   0  0  0  0  0  0  0  0  0  0  0  0
   50.8391   34.8963   42.1458 H   0  0  0  0  0  0  0  0  0  0  0  0
   49.8787   35.5204   43.4833 H   0  0  0  0  0  0  0  0  0  0  0  0
   47.9870   32.3979   40.5301 H   0  0  0  0  0  0  0  0  0  0  0  0
   49.1893   30.9979   38.8060 H   0  0  0  0  0  0  0  0  0  0  0  0
   52.8550   31.6316   40.9215 H   0  0  0  0  0  0  0  0  0  0  0  0
   47.1235   34.2580   46.0621 H   0  0  0  0  0  0  0  0  0  0  0  0
   45.4430   33.6645   45.7583 H   0  0  0  0  0  0  0  0  0  0  0  0
   47.6655   32.1854   47.2004 H   0  0  0  0  0  0  0  0  0  0  0  0
   46.1844   32.9550   47.9258 H   0  0  0  0  0  0  0  0  0  0  0  0
   46.1823   30.3966   47.5552 H   0  0  0  0  0  0  0  0  0  0  0  0
   44.7553   31.3494   47.0302 H   0  0  0  0  0  0  0  0  0  0  0  0
   46.1272   29.5781   45.4221 H   0  0  0  0  0  0  0  0  0  0  0  0
   45.1573   30.9410   44.8061 H   0  0  0  0  0  0  0  0  0  0  0  0
   47.6203   30.8352   43.9588 H   0  0  0  0  0  0  0  0  0  0  0  0
   48.1380   31.2385   45.5983 H   0  0  0  0  0  0  0  0  0  0  0  0
  2  1  1  0
  2 12  1  0
  3  2  1  0
  4  3  1  0
  4  5  1  0
  5  1  1  0
  6 11  1  0
  6  1  1  0
  7  6  2  0
  8  9  2  0
  8  7  1  0
  9 10  1  0
 10 11  2  0
 12 13  2  0
 12 14  1  0
 14 19  1  0
 14 15  1  0
 15 16  1  0
 17 16  1  0
 18 17  1  0
 19 18  1  0
  1 20  1  1
  2 21  1  6
  3 22  1  0
  3 23  1  0
  4 24  1  0
  4 25  1  0
  5 26  1  0
  5 27  1  0
  7 28  1  0
  8 29  1  0
 10 30  1  0
 15 31  1  0
 15 32  1  0
 16 33  1  0
 16 34  1  0
 17 35  1  0
 17 36  1  0
 18 37  1  0
 18 38  1  0
 19 39  1  0
 19 40  1  0
M  ISO  8  20  13  21  13  22  13  23  13  24  13  25  13  26  13  27  13
M  ISO  8  28  14  29  14  30  14  31  13  32  13  33  13  34  13  35  13
M  ISO  5  36  13  37  13  38  13  39  13  40  13
M  END
>  <minimizedAffinity>  (1) 
-5.53025389

>  <minimizedRMSD>  (1) 
0.195983425

$$$$
