
     RDKit          3D

 35 37  0  0  1  0  0  0  0  0999 V2000
   45.4040   34.0770   45.7400 C   0  0  0  0  0  0  0  0  0  0  0  0
   44.5920   35.2400   45.7070 C   0  0  0  0  0  0  0  0  0  0  0  0
   44.5640   35.9630   44.4920 C   0  0  0  0  0  0  0  0  0  0  0  0
   45.2880   35.5400   43.4310 N   0  0  0  0  0  0  0  0  0  0  0  0
   46.0530   34.4040   43.5330 C   0  0  0  0  0  0  0  0  0  0  0  0
   46.1060   33.6840   44.6770 N   0  0  0  0  0  0  0  0  0  0  0  0
   46.8380   33.9260   42.4340 N   0  0  0  0  0  0  0  0  0  0  0  0
   47.0760   34.7960   41.4320 C   0  0  0  0  0  0  0  0  0  0  0  0
   47.8260   34.4490   40.3320 C   0  0  0  0  0  0  0  0  0  0  0  0
   48.3470   33.1700   40.2570 C   0  0  0  0  0  0  0  0  0  0  0  0
   49.0460   32.7770   39.2800 O   0  0  0  0  0  0  0  0  0  0  0  0
   48.0770   32.3560   41.2780 N   0  0  0  0  0  0  0  0  0  0  0  0
   47.3540   32.7000   42.3300 C   0  0  0  0  0  0  0  0  0  0  0  0
   47.1360   31.9000   43.2480 O   0  0  0  0  0  0  0  0  0  0  0  0
   48.6310   31.0310   41.1630 C   0  0  1  0  0  0  0  0  0  0  0  0
   49.1620   30.5860   39.8850 C   0  0  0  0  0  0  0  0  0  0  0  0
   49.8420   29.2650   40.3590 C   0  0  0  0  0  0  0  0  0  0  0  0
   50.7270   29.8550   41.4330 C   0  0  0  0  0  0  0  0  0  0  0  0
   49.8000   30.8440   42.1280 C   0  0  1  0  0  0  0  0  0  0  0  0
   50.5590   32.1200   42.3180 C   0  0  0  0  0  0  0  0  0  0  0  0
   51.3420   33.0120   41.9610 O   0  0  0  0  0  0  0  0  0  0  0  0
   45.4556   33.4849   46.6656 H   0  0  0  0  0  0  0  0  0  0  0  0
   44.0123   35.5636   46.5841 H   0  0  0  0  0  0  0  0  0  0  0  0
   43.9511   36.8727   44.4096 H   0  0  0  0  0  0  0  0  0  0  0  0
   46.6588   35.8118   41.4957 H   0  0  0  0  0  0  0  0  0  0  0  0
   48.0080   35.1758   39.5266 H   0  0  0  0  0  0  0  0  0  0  0  0
   47.7279   30.4366   41.3657 H   0  0  0  0  0  0  0  0  0  0  0  0
   49.8887   31.2989   39.4681 H   0  0  0  0  0  0  0  0  0  0  0  0
   48.4254   30.4781   39.0752 H   0  0  0  0  0  0  0  0  0  0  0  0
   49.1160   28.5460   40.7663 H   0  0  0  0  0  0  0  0  0  0  0  0
   50.3536   28.6801   39.5805 H   0  0  0  0  0  0  0  0  0  0  0  0
   51.0738   29.0790   42.1313 H   0  0  0  0  0  0  0  0  0  0  0  0
   51.6419   30.3199   41.0369 H   0  0  0  0  0  0  0  0  0  0  0  0
   49.4411   30.5103   43.1128 H   0  0  0  0  0  0  0  0  0  0  0  0
   50.2564   32.4424   43.3252 H   0  0  0  0  0  0  0  0  0  0  0  0
  2  1  2  0
  3  2  1  0
  4  5  1  0
  4  3  2  0
  5  6  2  0
  6  1  1  0
  7  5  1  0
  8  7  1  0
  9  8  2  0
 10  9  1  0
 10 12  1  0
 11 10  2  0
 12 13  1  0
 13  7  1  0
 13 14  2  0
 15 12  1  0
 15 19  1  0
 16 17  1  0
 16 15  1  0
 17 18  1  0
 18 19  1  0
 19 20  1  0
 21 20  2  0
  1 22  1  0
  2 23  1  0
  3 24  1  0
  8 25  1  0
  9 26  1  0
 15 27  1  1
 16 28  1  0
 16 29  1  0
 17 30  1  0
 17 31  1  0
 18 32  1  0
 18 33  1  0
 19 34  1  1
 20 35  1  0
M  ISO  8  22  14  23  14  24  14  25  14  26  14  27  13  28  13  29  13
M  ISO  6  30  13  31  13  32  13  33  13  34  13  35   6
M  END
>  <minimizedAffinity>  (1) 
-4.74164772

>  <minimizedRMSD>  (1) 
5.21434736

$$$$
