
     RDKit          3D

 40 43  0  0  1  0  0  0  0  0999 V2000
   46.0000   33.9620   44.9800 C   0  0  2  0  0  0  0  0  0  0  0  0
   45.0130   35.0730   45.2880 C   0  0  0  0  0  0  0  0  0  0  0  0
   44.2510   35.6890   44.2260 C   0  0  0  0  0  0  0  0  0  0  0  0
   44.4470   35.2220   42.8580 C   0  0  0  0  0  0  0  0  0  0  0  0
   45.5490   34.2870   42.6370 C   0  0  0  0  0  0  0  0  0  0  0  0
   45.6100   33.2550   43.7300 C   0  0  1  0  0  0  0  0  0  0  0  0
   46.6810   32.3640   43.1940 C   0  0  0  0  0  0  0  0  0  0  0  0
   46.5560   31.0060   42.9640 C   0  0  0  0  0  0  0  0  0  0  0  0
   47.5670   30.2040   42.4800 C   0  0  0  0  0  0  0  0  0  0  0  0
   48.7950   30.7660   42.1970 C   0  0  0  0  0  0  0  0  0  0  0  0
   48.9680   32.1180   42.4110 C   0  0  0  0  0  0  0  0  0  0  0  0
   50.2200   32.6020   42.1070 C   0  0  0  0  0  0  0  0  0  0  0  0
   50.4810   33.9330   42.2900 C   0  0  0  0  0  0  0  0  0  0  0  0
   49.4870   34.7570   42.7740 C   0  0  0  0  0  0  0  0  0  0  0  0
   48.2470   34.2260   43.0650 C   0  0  0  0  0  0  0  0  0  0  0  0
   47.9390   32.8940   42.8960 C   0  0  0  0  0  0  0  0  0  0  0  0
   45.1610   33.1970   47.1740 C   0  0  0  0  0  0  0  0  0  0  0  0
   46.1210   33.0930   46.1660 C   0  0  0  0  0  0  0  0  0  0  0  0
   47.1770   32.1640   46.3410 C   0  0  0  0  0  0  0  0  0  0  0  0
   47.2130   31.4250   47.4650 N   0  0  0  0  0  0  0  0  0  0  0  0
   46.2640   31.5470   48.4310 C   0  0  0  0  0  0  0  0  0  0  0  0
   45.2480   32.4290   48.2810 N   0  0  0  0  0  0  0  0  0  0  0  0
   47.0040   34.3636   44.7782 H   0  0  0  0  0  0  0  0  0  0  0  0
   44.8769   35.4113   46.3258 H   0  0  0  0  0  0  0  0  0  0  0  0
   43.5359   36.4956   44.4452 H   0  0  0  0  0  0  0  0  0  0  0  0
   43.5189   34.7254   42.5387 H   0  0  0  0  0  0  0  0  0  0  0  0
   44.7085   36.1203   42.2795 H   0  0  0  0  0  0  0  0  0  0  0  0
   45.4022   33.7801   41.6719 H   0  0  0  0  0  0  0  0  0  0  0  0
   46.4926   34.8523   42.6367 H   0  0  0  0  0  0  0  0  0  0  0  0
   44.6899   32.7022   43.9706 H   0  0  0  0  0  0  0  0  0  0  0  0
   45.5860   30.5351   43.1816 H   0  0  0  0  0  0  0  0  0  0  0  0
   47.3970   29.1289   42.3212 H   0  0  0  0  0  0  0  0  0  0  0  0
   49.6188   30.1490   41.8089 H   0  0  0  0  0  0  0  0  0  0  0  0
   51.0000   31.9285   41.7223 H   0  0  0  0  0  0  0  0  0  0  0  0
   51.4745   34.3416   42.0532 H   0  0  0  0  0  0  0  0  0  0  0  0
   49.6809   35.8289   42.9269 H   0  0  0  0  0  0  0  0  0  0  0  0
   47.4668   34.8988   43.4505 H   0  0  0  0  0  0  0  0  0  0  0  0
   44.3291   33.9085   47.0658 H   0  0  0  0  0  0  0  0  0  0  0  0
   47.9541   32.0490   45.5710 H   0  0  0  0  0  0  0  0  0  0  0  0
   46.3220   30.9268   49.3376 H   0  0  0  0  0  0  0  0  0  0  0  0
  1  2  1  0
  1 18  1  0
  3  2  2  0
  4  3  1  0
  5  4  1  0
  5  6  1  0
  6  1  1  0
  7  6  1  0
  8  7  2  0
  9  8  1  0
 10 11  1  0
 10  9  2  0
 11 16  2  0
 12 13  2  0
 12 11  1  0
 13 14  1  0
 14 15  2  0
 16 15  1  0
 16  7  1  0
 17 22  2  0
 18 19  2  0
 18 17  1  0
 19 20  1  0
 20 21  2  0
 22 21  1  0
  1 23  1  6
  2 24  1  0
  3 25  1  0
  4 26  1  0
  4 27  1  0
  5 28  1  0
  5 29  1  0
  6 30  1  1
  8 31  1  0
  9 32  1  0
 10 33  1  0
 12 34  1  0
 13 35  1  0
 14 36  1  0
 15 37  1  0
 17 38  1  0
 19 39  1  0
 21 40  1  0
M  ISO  8  23  13  24  13  25  13  26  13  27  13  28  13  29  13  30  13
M  ISO  8  31  14  32  14  33  14  34  14  35  14  36  14  37  14  38  14
M  ISO  2  39  14  40  14
M  END
>  <minimizedAffinity>  (1) 
-5.77274561

>  <minimizedRMSD>  (1) 
1.05680358

$$$$
