
     RDKit          3D

 38 40  0  0  1  0  0  0  0  0999 V2000
   46.2740   34.0480   44.7330 C   0  0  2  0  0  0  0  0  0  0  0  0
   44.9990   34.7660   45.1870 C   0  0  0  0  0  0  0  0  0  0  0  0
   44.4150   35.7600   44.3180 C   0  0  0  0  0  0  0  0  0  0  0  0
   45.0460   36.0610   43.0370 C   0  0  0  0  0  0  0  0  0  0  0  0
   46.3850   35.4450   42.8160 C   0  0  0  0  0  0  0  0  0  0  0  0
   46.2840   33.9730   43.2530 C   0  0  1  0  0  0  0  0  0  0  0  0
   46.9170   32.6820   46.7310 C   0  0  0  0  0  0  0  0  0  0  0  0
   46.3510   32.7800   45.4600 C   0  0  0  0  0  0  0  0  0  0  0  0
   45.8510   31.5870   44.8820 C   0  0  0  0  0  0  0  0  0  0  0  0
   45.9410   30.4340   45.5700 N   0  0  0  0  0  0  0  0  0  0  0  0
   46.5010   30.3890   46.8080 C   0  0  0  0  0  0  0  0  0  0  0  0
   46.9770   31.5150   47.3640 N   0  0  0  0  0  0  0  0  0  0  0  0
   47.3220   33.2270   42.6210 N   0  0  0  0  0  0  0  0  0  0  0  0
   48.6530   33.6560   43.0090 C   0  0  0  0  0  0  0  0  0  0  0  0
   49.4720   34.1760   41.8610 C   0  0  0  0  0  0  0  0  0  0  0  0
   49.6260   33.1150   40.8940 N   0  0  0  0  0  0  0  0  0  0  0  0
   48.3810   32.4780   40.5680 C   0  0  0  0  0  0  0  0  0  0  0  0
   47.1930   33.1420   41.2040 C   0  0  0  0  0  0  0  0  0  0  0  0
   47.2013   34.5859   44.9798 H   0  0  0  0  0  0  0  0  0  0  0  0
   44.5373   34.5286   46.1568 H   0  0  0  0  0  0  0  0  0  0  0  0
   43.4986   36.2881   44.6201 H   0  0  0  0  0  0  0  0  0  0  0  0
   44.3759   35.7086   42.2390 H   0  0  0  0  0  0  0  0  0  0  0  0
   45.2116   37.1485   43.0323 H   0  0  0  0  0  0  0  0  0  0  0  0
   46.6568   35.5048   41.7518 H   0  0  0  0  0  0  0  0  0  0  0  0
   47.1586   35.9725   43.3934 H   0  0  0  0  0  0  0  0  0  0  0  0
   45.3851   33.4200   42.9428 H   0  0  0  0  0  0  0  0  0  0  0  0
   47.3194   33.5834   47.2163 H   0  0  0  0  0  0  0  0  0  0  0  0
   45.3941   31.6031   43.8815 H   0  0  0  0  0  0  0  0  0  0  0  0
   46.5639   29.4348   47.3517 H   0  0  0  0  0  0  0  0  0  0  0  0
   48.5568   34.4552   43.7587 H   0  0  0  0  0  0  0  0  0  0  0  0
   49.1753   32.7732   43.4063 H   0  0  0  0  0  0  0  0  0  0  0  0
   48.9593   35.0310   41.3960 H   0  0  0  0  0  0  0  0  0  0  0  0
   50.4579   34.5070   42.2193 H   0  0  0  0  0  0  0  0  0  0  0  0
   50.0296   33.5101   40.0326 H   0  0  0  0  0  0  0  0  0  0  0  0
   48.2516   32.5013   39.4759 H   0  0  0  0  0  0  0  0  0  0  0  0
   48.4280   31.4499   40.9563 H   0  0  0  0  0  0  0  0  0  0  0  0
   47.0935   34.1583   40.7952 H   0  0  0  0  0  0  0  0  0  0  0  0
   46.3044   32.5335   40.9803 H   0  0  0  0  0  0  0  0  0  0  0  0
  1  2  1  0
  1  8  1  0
  3  2  2  0
  4  3  1  0
  5  4  1  0
  5  6  1  0
  6  1  1  0
  7 12  2  0
  8  7  1  0
  9  8  2  0
  9 10  1  0
 10 11  2  0
 11 12  1  0
 13 14  1  0
 13  6  1  0
 15 14  1  0
 16 15  1  0
 17 16  1  0
 17 18  1  0
 18 13  1  0
  1 19  1  1
  2 20  1  0
  3 21  1  0
  4 22  1  0
  4 23  1  0
  5 24  1  0
  5 25  1  0
  6 26  1  6
  7 27  1  0
  9 28  1  0
 11 29  1  0
 14 30  1  0
 14 31  1  0
 15 32  1  0
 15 33  1  0
 16 34  1  0
 17 35  1  0
 17 36  1  0
 18 37  1  0
 18 38  1  0
M  ISO  8  19  13  20  13  21  13  22  13  23  13  24  13  25  13  26  13
M  ISO  8  27  14  28  14  29  14  30  13  31  13  32  13  33  13  34   5
M  ISO  4  35  13  36  13  37  13  38  13
M  END
>  <minimizedAffinity>  (1) 
-4.90196133

>  <minimizedRMSD>  (1) 
1.27898276

$$$$
