
     RDKit          3D

 37 39  0  0  1  0  0  0  0  0999 V2000
   46.0870   34.0910   44.7850 C   0  0  2  0  0  0  0  0  0  0  0  0
   44.9600   34.9270   45.3300 C   0  0  0  0  0  0  0  0  0  0  0  0
   44.5030   36.0020   44.4690 C   0  0  0  0  0  0  0  0  0  0  0  0
   45.1250   36.2130   43.1570 C   0  0  0  0  0  0  0  0  0  0  0  0
   46.1850   35.2860   42.7550 C   0  0  0  0  0  0  0  0  0  0  0  0
   45.9140   33.8840   43.3160 C   0  0  2  0  0  0  0  0  0  0  0  0
   45.6220   32.7550   46.8480 C   0  0  0  0  0  0  0  0  0  0  0  0
   46.2610   32.9140   45.6180 C   0  0  0  0  0  0  0  0  0  0  0  0
   47.0950   31.8770   45.2170 C   0  0  0  0  0  0  0  0  0  0  0  0
   47.2360   30.8020   46.0210 N   0  0  0  0  0  0  0  0  0  0  0  0
   46.6090   30.6840   47.1920 C   0  0  0  0  0  0  0  0  0  0  0  0
   45.8030   31.6640   47.5990 N   0  0  0  0  0  0  0  0  0  0  0  0
   44.5910   33.3900   42.8680 C   0  0  0  0  0  0  0  0  0  0  0  0
   44.3950   31.9120   42.8790 C   0  0  0  0  0  0  0  0  0  0  0  0
   43.1170   31.7880   42.0130 C   0  0  0  0  0  0  0  0  0  0  0  0
   43.6490   32.5260   40.7880 C   0  0  0  0  0  0  0  0  0  0  0  0
   44.2320   33.7680   41.4530 C   0  0  0  0  0  0  0  0  0  0  0  0
   47.0579   34.6042   44.8476 H   0  0  0  0  0  0  0  0  0  0  0  0
   44.5122   34.7355   46.3163 H   0  0  0  0  0  0  0  0  0  0  0  0
   43.6873   36.6611   44.8012 H   0  0  0  0  0  0  0  0  0  0  0  0
   44.3285   36.1509   42.4008 H   0  0  0  0  0  0  0  0  0  0  0  0
   45.6227   37.1908   43.2365 H   0  0  0  0  0  0  0  0  0  0  0  0
   46.2242   35.2351   41.6569 H   0  0  0  0  0  0  0  0  0  0  0  0
   47.1444   35.6488   43.1523 H   0  0  0  0  0  0  0  0  0  0  0  0
   46.5822   33.0839   42.9649 H   0  0  0  0  0  0  0  0  0  0  0  0
   44.9514   33.5485   47.2094 H   0  0  0  0  0  0  0  0  0  0  0  0
   47.6322   31.9315   44.2586 H   0  0  0  0  0  0  0  0  0  0  0  0
   46.7553   29.7888   47.8142 H   0  0  0  0  0  0  0  0  0  0  0  0
   43.9609   33.8802   43.6247 H   0  0  0  0  0  0  0  0  0  0  0  0
   45.2468   31.3864   42.4228 H   0  0  0  0  0  0  0  0  0  0  0  0
   44.3125   31.4689   43.8824 H   0  0  0  0  0  0  0  0  0  0  0  0
   42.8572   30.7418   41.7939 H   0  0  0  0  0  0  0  0  0  0  0  0
   42.1852   32.1729   42.4531 H   0  0  0  0  0  0  0  0  0  0  0  0
   42.8430   32.7811   40.0842 H   0  0  0  0  0  0  0  0  0  0  0  0
   44.3616   31.9523   40.1772 H   0  0  0  0  0  0  0  0  0  0  0  0
   45.1308   34.0984   40.9117 H   0  0  0  0  0  0  0  0  0  0  0  0
   43.5055   34.5939   41.4421 H   0  0  0  0  0  0  0  0  0  0  0  0
  1  2  1  0
  1  8  1  0
  3  2  2  0
  4  3  1  0
  5  4  1  0
  5  6  1  0
  6  1  1  0
  7 12  2  0
  8  7  1  0
  9  8  2  0
  9 10  1  0
 10 11  2  0
 11 12  1  0
 13 14  1  0
 13  6  1  0
 15 14  1  0
 16 17  1  0
 16 15  1  0
 17 13  1  0
  1 18  1  6
  2 19  1  0
  3 20  1  0
  4 21  1  0
  4 22  1  0
  5 23  1  0
  5 24  1  0
  6 25  1  6
  7 26  1  0
  9 27  1  0
 11 28  1  0
 13 29  1  0
 14 30  1  0
 14 31  1  0
 15 32  1  0
 15 33  1  0
 16 34  1  0
 16 35  1  0
 17 36  1  0
 17 37  1  0
M  ISO  8  18  13  19  13  20  13  21  13  22  13  23  13  24  13  25  13
M  ISO  8  26  14  27  14  28  14  29  13  30  13  31  13  32  13  33  13
M  ISO  4  34  13  35  13  36  13  37  13
M  END
>  <minimizedAffinity>  (1) 
-4.65933752

>  <minimizedRMSD>  (1) 
1.13807237

$$$$
