
     RDKit          3D

 45 49  0  0  1  0  0  0  0  0999 V2000
   48.0050   33.9440   40.7910 C   0  0  2  0  0  0  0  0  0  0  0  0
   48.3090   35.3970   41.0430 C   0  0  0  0  0  0  0  0  0  0  0  0
   49.3970   35.7550   41.9670 C   0  0  0  0  0  0  0  0  0  0  0  0
   50.1890   34.7140   42.5840 C   0  0  0  0  0  0  0  0  0  0  0  0
   49.6290   33.3560   42.5070 C   0  0  0  0  0  0  0  0  0  0  0  0
   49.1010   33.0830   41.1640 C   0  0  1  0  0  0  0  0  0  0  0  0
   46.2850   33.1210   39.2510 C   0  0  0  0  0  0  0  0  0  0  0  0
   47.5020   33.7720   39.4100 C   0  0  0  0  0  0  0  0  0  0  0  0
   48.1840   34.2090   38.2610 C   0  0  0  0  0  0  0  0  0  0  0  0
   47.6410   33.9870   37.0500 N   0  0  0  0  0  0  0  0  0  0  0  0
   46.4600   33.3550   36.9120 C   0  0  0  0  0  0  0  0  0  0  0  0
   45.7950   32.9300   37.9980 N   0  0  0  0  0  0  0  0  0  0  0  0
   48.8010   31.6580   41.1850 N   0  0  0  0  0  0  0  0  0  0  0  0
   48.1580   30.9420   42.1440 N   0  0  0  0  0  0  0  0  0  0  0  0
   48.0600   29.7040   41.6760 C   0  0  0  0  0  0  0  0  0  0  0  0
   48.6480   29.6690   40.4230 C   0  0  0  0  0  0  0  0  0  0  0  0
   49.1310   30.9410   40.1100 C   0  0  0  0  0  0  0  0  0  0  0  0
   49.7760   30.9040   38.8030 C   0  0  0  0  0  0  0  0  0  0  0  0
   49.0030   30.7640   37.6770 N   0  0  0  0  0  0  0  0  0  0  0  0
   49.6580   30.7210   36.5110 C   0  0  0  0  0  0  0  0  0  0  0  0
   50.9910   30.8020   36.3630 N   0  0  0  0  0  0  0  0  0  0  0  0
   51.8090   30.9410   37.4430 C   0  0  0  0  0  0  0  0  0  0  0  0
   53.1790   31.0170   37.3130 C   0  0  0  0  0  0  0  0  0  0  0  0
   53.9650   31.1480   38.4380 C   0  0  0  0  0  0  0  0  0  0  0  0
   53.3560   31.1990   39.6980 C   0  0  0  0  0  0  0  0  0  0  0  0
   51.9790   31.1160   39.7430 C   0  0  0  0  0  0  0  0  0  0  0  0
   51.1620   30.9880   38.6590 C   0  0  0  0  0  0  0  0  0  0  0  0
   47.1920   33.6144   41.4546 H   0  0  0  0  0  0  0  0  0  0  0  0
   47.7242   36.1824   40.5419 H   0  0  0  0  0  0  0  0  0  0  0  0
   49.6074   36.8119   42.1879 H   0  0  0  0  0  0  0  0  0  0  0  0
   51.1731   34.7021   42.0927 H   0  0  0  0  0  0  0  0  0  0  0  0
   50.2280   34.9619   43.6550 H   0  0  0  0  0  0  0  0  0  0  0  0
   50.4193   32.6267   42.7385 H   0  0  0  0  0  0  0  0  0  0  0  0
   48.8060   33.2733   43.2321 H   0  0  0  0  0  0  0  0  0  0  0  0
   49.8220   33.3159   40.3666 H   0  0  0  0  0  0  0  0  0  0  0  0
   45.7252   32.7647   40.1283 H   0  0  0  0  0  0  0  0  0  0  0  0
   49.1505   34.7265   38.3509 H   0  0  0  0  0  0  0  0  0  0  0  0
   46.0401   33.1869   35.9093 H   0  0  0  0  0  0  0  0  0  0  0  0
   47.5927   28.8533   42.1937 H   0  0  0  0  0  0  0  0  0  0  0  0
   48.7226   28.7814   39.7776 H   0  0  0  0  0  0  0  0  0  0  0  0
   49.0550   30.6101   35.5977 H   0  0  0  0  0  0  0  0  0  0  0  0
   53.6429   30.9733   36.3166 H   0  0  0  0  0  0  0  0  0  0  0  0
   55.0594   31.2118   38.3468 H   0  0  0  0  0  0  0  0  0  0  0  0
   53.9522   31.3013   40.6167 H   0  0  0  0  0  0  0  0  0  0  0  0
   51.5022   31.1564   40.7335 H   0  0  0  0  0  0  0  0  0  0  0  0
  1  2  1  0
  1  6  1  0
  2  3  2  0
  3  4  1  0
  5  4  1  0
  6 13  1  0
  6  5  1  0
  7  8  2  0
  8  1  1  0
  9  8  1  0
 10  9  2  0
 11 10  1  0
 11 12  2  0
 12  7  1  0
 13 14  1  0
 15 14  2  0
 16 15  1  0
 17 16  2  0
 17 13  1  0
 18 17  1  0
 19 18  2  0
 20 19  1  0
 21 20  2  0
 21 22  1  0
 22 27  2  0
 23 22  1  0
 23 24  2  0
 24 25  1  0
 25 26  2  0
 27 18  1  0
 27 26  1  0
  1 28  1  1
  2 29  1  0
  3 30  1  0
  4 31  1  0
  4 32  1  0
  5 33  1  0
  5 34  1  0
  6 35  1  6
  7 36  1  0
  9 37  1  0
 11 38  1  0
 15 39  1  0
 16 40  1  0
 20 41  1  0
 23 42  1  0
 24 43  1  0
 25 44  1  0
 26 45  1  0
M  ISO  8  28  13  29  13  30  13  31  13  32  13  33  13  34  13  35  13
M  ISO  8  36  14  37  14  38  14  39  14  40  14  41  14  42  14  43  14
M  ISO  2  44  14  45  14
M  END
>  <minimizedAffinity>  (1) 
-5.47760868

>  <minimizedRMSD>  (1) 
7.09437037

$$$$
