
     RDKit          3D

 37 40  0  0  1  0  0  0  0  0999 V2000
   46.3030   33.4730   45.5270 C   0  0  2  0  0  0  0  0  0  0  0  0
   45.2260   34.4850   45.8570 C   0  0  0  0  0  0  0  0  0  0  0  0
   44.5140   35.1540   44.7570 C   0  0  0  0  0  0  0  0  0  0  0  0
   44.8260   34.8120   43.3770 C   0  0  0  0  0  0  0  0  0  0  0  0
   46.1310   34.1340   43.2210 C   0  0  0  0  0  0  0  0  0  0  0  0
   46.2100   32.9860   44.1640 C   0  0  1  0  0  0  0  0  0  0  0  0
   47.3070   32.6050   47.5920 C   0  0  0  0  0  0  0  0  0  0  0  0
   46.3630   32.4480   46.5840 C   0  0  0  0  0  0  0  0  0  0  0  0
   45.5260   31.3150   46.6090 C   0  0  0  0  0  0  0  0  0  0  0  0
   45.6720   30.4250   47.6080 N   0  0  0  0  0  0  0  0  0  0  0  0
   46.5930   30.5930   48.5770 C   0  0  0  0  0  0  0  0  0  0  0  0
   47.3980   31.6690   48.5670 N   0  0  0  0  0  0  0  0  0  0  0  0
   47.3510   32.2340   43.6980 N   0  0  0  0  0  0  0  0  0  0  0  0
   47.7180   30.9640   43.9570 N   0  0  0  0  0  0  0  0  0  0  0  0
   48.8280   30.7240   43.2680 C   0  0  0  0  0  0  0  0  0  0  0  0
   49.1560   31.8700   42.5670 C   0  0  0  0  0  0  0  0  0  0  0  0
   48.2010   32.8270   42.8560 C   0  0  0  0  0  0  0  0  0  0  0  0
   48.5300   34.0230   42.1470 N   0  0  0  0  0  0  0  0  0  0  0  0
   48.2360   34.4090   40.8570 C   0  0  0  0  0  0  0  0  0  0  0  0
   48.7880   35.6220   40.6740 N   0  0  0  0  0  0  0  0  0  0  0  0
   49.4110   35.9930   41.8050 C   0  0  0  0  0  0  0  0  0  0  0  0
   49.2550   35.0140   42.7110 N   0  0  0  0  0  0  0  0  0  0  0  0
   47.2891   33.9603   45.5331 H   0  0  0  0  0  0  0  0  0  0  0  0
   44.9796   34.7165   46.9037 H   0  0  0  0  0  0  0  0  0  0  0  0
   43.7472   35.9113   44.9771 H   0  0  0  0  0  0  0  0  0  0  0  0
   44.0386   34.1447   42.9965 H   0  0  0  0  0  0  0  0  0  0  0  0
   44.8802   35.7548   42.8129 H   0  0  0  0  0  0  0  0  0  0  0  0
   46.2329   33.7681   42.1887 H   0  0  0  0  0  0  0  0  0  0  0  0
   46.9416   34.8446   43.4401 H   0  0  0  0  0  0  0  0  0  0  0  0
   45.3225   32.3364   44.1827 H   0  0  0  0  0  0  0  0  0  0  0  0
   47.9733   33.4802   47.5980 H   0  0  0  0  0  0  0  0  0  0  0  0
   44.7678   31.1608   45.8271 H   0  0  0  0  0  0  0  0  0  0  0  0
   46.6863   29.8464   49.3795 H   0  0  0  0  0  0  0  0  0  0  0  0
   49.3890   29.7778   43.2570 H   0  0  0  0  0  0  0  0  0  0  0  0
   50.0211   31.9973   41.8996 H   0  0  0  0  0  0  0  0  0  0  0  0
   47.6593   33.8342   40.1174 H   0  0  0  0  0  0  0  0  0  0  0  0
   49.9551   36.9361   41.9619 H   0  0  0  0  0  0  0  0  0  0  0  0
  1  2  1  0
  1  8  1  0
  3  2  2  0
  4  3  1  0
  5  4  1  0
  5  6  1  0
  6  1  1  0
  7 12  2  0
  8  9  2  0
  8  7  1  0
  9 10  1  0
 10 11  2  0
 12 11  1  0
 13 14  1  0
 13  6  1  0
 15 14  2  0
 16 17  2  0
 16 15  1  0
 17 13  1  0
 18 22  1  0
 18 17  1  0
 19 18  1  0
 20 19  2  0
 20 21  1  0
 21 22  2  0
  1 23  1  6
  2 24  1  0
  3 25  1  0
  4 26  1  0
  4 27  1  0
  5 28  1  0
  5 29  1  0
  6 30  1  1
  7 31  1  0
  9 32  1  0
 11 33  1  0
 15 34  1  0
 16 35  1  0
 19 36  1  0
 21 37  1  0
M  ISO  8  23  13  24  13  25  13  26  13  27  13  28  13  29  13  30  13
M  ISO  7  31  14  32  14  33  14  34  14  35  14  36  14  37  14
M  END
>  <minimizedAffinity>  (1) 
-5.16604996

>  <minimizedRMSD>  (1) 
1.84435475

$$$$
