
     RDKit          3D

 38 41  0  0  1  0  0  0  0  0999 V2000
   46.2900   33.4620   45.5100 C   0  0  2  0  0  0  0  0  0  0  0  0
   45.2280   34.4860   45.8510 C   0  0  0  0  0  0  0  0  0  0  0  0
   44.5150   35.1650   44.7550 C   0  0  0  0  0  0  0  0  0  0  0  0
   44.8050   34.8130   43.3770 C   0  0  0  0  0  0  0  0  0  0  0  0
   46.1060   34.1290   43.2090 C   0  0  0  0  0  0  0  0  0  0  0  0
   46.1740   32.9690   44.1500 C   0  0  1  0  0  0  0  0  0  0  0  0
   47.3080   32.6040   47.5720 C   0  0  0  0  0  0  0  0  0  0  0  0
   46.3600   32.4450   46.5720 C   0  0  0  0  0  0  0  0  0  0  0  0
   45.5250   31.3130   46.6060 C   0  0  0  0  0  0  0  0  0  0  0  0
   45.6760   30.4250   47.6070 N   0  0  0  0  0  0  0  0  0  0  0  0
   46.6020   30.5980   48.5710 C   0  0  0  0  0  0  0  0  0  0  0  0
   47.4060   31.6740   48.5500 N   0  0  0  0  0  0  0  0  0  0  0  0
   47.3020   32.2090   43.6720 N   0  0  0  0  0  0  0  0  0  0  0  0
   47.6430   30.9260   43.9040 N   0  0  0  0  0  0  0  0  0  0  0  0
   48.7500   30.6780   43.2160 C   0  0  0  0  0  0  0  0  0  0  0  0
   49.1060   31.8330   42.5430 C   0  0  0  0  0  0  0  0  0  0  0  0
   48.1670   32.8040   42.8480 C   0  0  0  0  0  0  0  0  0  0  0  0
   48.5240   34.0070   42.1660 N   0  0  0  0  0  0  0  0  0  0  0  0
   49.2950   35.0250   42.6850 C   0  0  0  0  0  0  0  0  0  0  0  0
   49.4170   35.9890   41.7150 C   0  0  0  0  0  0  0  0  0  0  0  0
   48.7420   35.5790   40.6280 N   0  0  0  0  0  0  0  0  0  0  0  0
   48.1910   34.3760   40.8780 C   0  0  0  0  0  0  0  0  0  0  0  0
   47.2805   33.9403   45.4972 H   0  0  0  0  0  0  0  0  0  0  0  0
   44.9927   34.7192   46.8999 H   0  0  0  0  0  0  0  0  0  0  0  0
   43.7646   35.9370   44.9805 H   0  0  0  0  0  0  0  0  0  0  0  0
   44.0101   34.1457   43.0124 H   0  0  0  0  0  0  0  0  0  0  0  0
   44.8538   35.7510   42.8045 H   0  0  0  0  0  0  0  0  0  0  0  0
   46.2023   33.7697   42.1738 H   0  0  0  0  0  0  0  0  0  0  0  0
   46.9245   34.8310   43.4263 H   0  0  0  0  0  0  0  0  0  0  0  0
   45.2817   32.3263   44.1760 H   0  0  0  0  0  0  0  0  0  0  0  0
   47.9747   33.4790   47.5700 H   0  0  0  0  0  0  0  0  0  0  0  0
   44.7625   31.1562   45.8288 H   0  0  0  0  0  0  0  0  0  0  0  0
   46.6996   29.8560   49.3772 H   0  0  0  0  0  0  0  0  0  0  0  0
   49.2907   29.7205   43.1860 H   0  0  0  0  0  0  0  0  0  0  0  0
   49.9780   31.9577   41.8842 H   0  0  0  0  0  0  0  0  0  0  0  0
   49.7331   35.0589   43.6934 H   0  0  0  0  0  0  0  0  0  0  0  0
   49.9717   36.9340   41.8112 H   0  0  0  0  0  0  0  0  0  0  0  0
   47.5805   33.7883   40.1766 H   0  0  0  0  0  0  0  0  0  0  0  0
  1  2  1  0
  1  8  1  0
  3  2  2  0
  4  3  1  0
  5  4  1  0
  5  6  1  0
  6  1  1  0
  7 12  2  0
  8  9  2  0
  8  7  1  0
  9 10  1  0
 10 11  2  0
 12 11  1  0
 13 14  1  0
 13  6  1  0
 15 14  2  0
 16 17  2  0
 16 15  1  0
 17 13  1  0
 18 19  1  0
 18 17  1  0
 20 19  2  0
 21 22  2  0
 21 20  1  0
 22 18  1  0
  1 23  1  6
  2 24  1  0
  3 25  1  0
  4 26  1  0
  4 27  1  0
  5 28  1  0
  5 29  1  0
  6 30  1  1
  7 31  1  0
  9 32  1  0
 11 33  1  0
 15 34  1  0
 16 35  1  0
 19 36  1  0
 20 37  1  0
 22 38  1  0
M  ISO  8  23  13  24  13  25  13  26  13  27  13  28  13  29  13  30  13
M  ISO  8  31  14  32  14  33  14  34  14  35  14  36  14  37  14  38  14
M  END
>  <minimizedAffinity>  (1) 
-5.12210941

>  <minimizedRMSD>  (1) 
1.85743177

$$$$
