
     RDKit          3D

 39 42  0  0  1  0  0  0  0  0999 V2000
   45.1490   33.4310   41.5720 C   0  0  2  0  0  0  0  0  0  0  0  0
   43.7900   34.0900   41.6370 C   0  0  0  0  0  0  0  0  0  0  0  0
   43.6210   35.3500   42.2920 C   0  0  0  0  0  0  0  0  0  0  0  0
   44.7680   35.9860   42.8770 C   0  0  0  0  0  0  0  0  0  0  0  0
   46.0920   35.4290   42.6760 C   0  0  0  0  0  0  0  0  0  0  0  0
   46.2020   34.4120   41.6530 C   0  0  1  0  0  0  0  0  0  0  0  0
   45.3420   31.1970   40.5700 C   0  0  0  0  0  0  0  0  0  0  0  0
   45.2120   32.5770   40.3530 C   0  0  0  0  0  0  0  0  0  0  0  0
   45.1730   33.0480   39.0310 C   0  0  0  0  0  0  0  0  0  0  0  0
   45.2650   32.1560   38.0260 N   0  0  0  0  0  0  0  0  0  0  0  0
   45.3890   30.8390   38.2500 C   0  0  0  0  0  0  0  0  0  0  0  0
   45.4280   30.3660   39.5020 N   0  0  0  0  0  0  0  0  0  0  0  0
   47.5400   33.8530   41.8340 N   0  0  0  0  0  0  0  0  0  0  0  0
   48.6460   34.0810   41.0620 N   0  0  0  0  0  0  0  0  0  0  0  0
   49.6400   33.4550   41.6710 C   0  0  0  0  0  0  0  0  0  0  0  0
   49.1430   32.8500   42.8060 C   0  0  0  0  0  0  0  0  0  0  0  0
   47.7720   33.1050   42.9020 C   0  0  0  0  0  0  0  0  0  0  0  0
   47.0480   32.4370   44.0250 C   0  0  0  0  0  0  0  0  0  0  0  0
   46.7960   33.1130   45.2140 C   0  0  0  0  0  0  0  0  0  0  0  0
   46.1770   32.4360   46.2440 C   0  0  0  0  0  0  0  0  0  0  0  0
   45.8150   31.1710   46.1400 N   0  0  0  0  0  0  0  0  0  0  0  0
   46.0440   30.5000   45.0070 C   0  0  0  0  0  0  0  0  0  0  0  0
   46.6380   31.1850   44.0530 N   0  0  0  0  0  0  0  0  0  0  0  0
   45.3015   32.7744   42.4412 H   0  0  0  0  0  0  0  0  0  0  0  0
   42.9224   33.5954   41.1759 H   0  0  0  0  0  0  0  0  0  0  0  0
   42.6297   35.8237   42.3468 H   0  0  0  0  0  0  0  0  0  0  0  0
   44.7941   37.0138   42.4860 H   0  0  0  0  0  0  0  0  0  0  0  0
   44.6028   35.8572   43.9569 H   0  0  0  0  0  0  0  0  0  0  0  0
   46.7669   36.2541   42.4046 H   0  0  0  0  0  0  0  0  0  0  0  0
   46.3508   34.9292   43.6211 H   0  0  0  0  0  0  0  0  0  0  0  0
   46.0627   34.8719   40.6635 H   0  0  0  0  0  0  0  0  0  0  0  0
   45.3737   30.7944   41.5932 H   0  0  0  0  0  0  0  0  0  0  0  0
   45.0695   34.1227   38.8204 H   0  0  0  0  0  0  0  0  0  0  0  0
   45.4590   30.1439   37.4003 H   0  0  0  0  0  0  0  0  0  0  0  0
   50.6852   33.4227   41.3298 H   0  0  0  0  0  0  0  0  0  0  0  0
   49.7325   32.2597   43.5229 H   0  0  0  0  0  0  0  0  0  0  0  0
   47.0850   34.1679   45.3308 H   0  0  0  0  0  0  0  0  0  0  0  0
   45.9780   32.9692   47.1854 H   0  0  0  0  0  0  0  0  0  0  0  0
   45.7554   29.4461   44.8804 H   0  0  0  0  0  0  0  0  0  0  0  0
  1  2  1  0
  1  6  1  0
  2  3  2  0
  3  4  1  0
  5  4  1  0
  6 13  1  0
  6  5  1  0
  8  7  2  0
  8  1  1  0
  9  8  1  0
 10 11  1  0
 10  9  2  0
 11 12  2  0
 12  7  1  0
 13 17  1  0
 14 15  2  0
 14 13  1  0
 15 16  1  0
 16 17  2  0
 17 18  1  0
 18 23  1  0
 18 19  2  0
 19 20  1  0
 21 20  2  0
 22 21  1  0
 23 22  2  0
  1 24  1  1
  2 25  1  0
  3 26  1  0
  4 27  1  0
  4 28  1  0
  5 29  1  0
  5 30  1  0
  6 31  1  6
  7 32  1  0
  9 33  1  0
 11 34  1  0
 15 35  1  0
 16 36  1  0
 19 37  1  0
 20 38  1  0
 22 39  1  0
M  ISO  8  24  13  25  13  26  13  27  13  28  13  29  13  30  13  31  13
M  ISO  8  32  14  33  14  34  14  35  14  36  14  37  14  38  14  39  14
M  END
>  <minimizedAffinity>  (1) 
-4.34878016

>  <minimizedRMSD>  (1) 
5.23178196

$$$$
