
     RDKit          3D

 23 24  0  0  0  0  0  0  0  0999 V2000
   47.8120   34.1290   39.5850 C   0  0  0  0  0  0  0  0  0  0  0  0
   46.5710   33.6170   39.8760 C   0  0  0  0  0  0  0  0  0  0  0  0
   45.9240   33.8510   41.0780 C   0  0  0  0  0  0  0  0  0  0  0  0
   46.5640   34.6360   42.0130 C   0  0  0  0  0  0  0  0  0  0  0  0
   47.8080   35.1430   41.7040 C   0  0  0  0  0  0  0  0  0  0  0  0
   48.4710   34.9250   40.5230 C   0  0  0  0  0  0  0  0  0  0  0  0
   44.4650   36.1130   44.7930 C   0  0  0  0  0  0  0  0  0  0  0  0
   45.0790   35.9940   43.5160 C   0  0  0  0  0  0  0  0  0  0  0  0
   45.8780   34.8800   43.2750 C   0  0  0  0  0  0  0  0  0  0  0  0
   46.0340   33.9650   44.2630 N   0  0  0  0  0  0  0  0  0  0  0  0
   45.4300   34.1140   45.4740 C   0  0  0  0  0  0  0  0  0  0  0  0
   44.6590   35.1760   45.7250 N   0  0  0  0  0  0  0  0  0  0  0  0
   48.5290   33.7570   38.0200 S   0  0  0  0  0  0  0  0  0  0  0  0
   48.1440   32.3480   37.6330 O   0  0  0  0  0  0  0  0  0  0  0  0
   48.1150   34.7620   36.9810 O   0  0  0  0  0  0  0  0  0  0  0  0
   46.0691   32.9938   39.1212 H   0  0  0  0  0  0  0  0  0  0  0  0
   44.9307   33.4239   41.2802 H   0  0  0  0  0  0  0  0  0  0  0  0
   48.3056   35.7683   42.4599 H   0  0  0  0  0  0  0  0  0  0  0  0
   49.4651   35.3531   40.3266 H   0  0  0  0  0  0  0  0  0  0  0  0
   43.8269   36.9812   45.0145 H   0  0  0  0  0  0  0  0  0  0  0  0
   44.9270   36.7599   42.7412 H   0  0  0  0  0  0  0  0  0  0  0  0
   45.5782   33.3524   46.2537 H   0  0  0  0  0  0  0  0  0  0  0  0
   49.8942   33.8340   38.1052 H   0  0  0  0  0  0  0  0  0  0  0  0
  1  2  2  0
  1  6  1  0
  2  3  1  0
  3  4  2  0
  4  9  1  0
  5  4  1  0
  6  5  2  0
  7 12  2  0
  8  7  1  0
  9  8  2  0
  9 10  1  0
 10 11  2  0
 11 12  1  0
 13  1  1  0
 14 13  2  0
 15 13  2  0
  2 16  1  0
  3 17  1  0
  5 18  1  0
  6 19  1  0
  7 20  1  0
  8 21  1  0
 11 22  1  0
 13 23  1  0
M  ISO  8  16  14  17  14  18  14  19  14  20  14  21  14  22  14  23  11
M  END
>  <minimizedAffinity>  (1) 
-5.05934572

>  <minimizedRMSD>  (1) 
1.39244735

$$$$
