
     RDKit          3D

 37 40  0  0  0  0  0  0  0  0999 V2000
   47.4470   33.8870   39.4740 C   0  0  0  0  0  0  0  0  0  0  0  0
   46.1700   33.5550   39.8120 C   0  0  0  0  0  0  0  0  0  0  0  0
   45.6050   33.8630   41.0340 C   0  0  0  0  0  0  0  0  0  0  0  0
   46.3600   34.5330   41.9540 C   0  0  0  0  0  0  0  0  0  0  0  0
   47.6400   34.8610   41.6050 C   0  0  0  0  0  0  0  0  0  0  0  0
   48.2150   34.5660   40.4030 C   0  0  0  0  0  0  0  0  0  0  0  0
   44.4840   36.2390   44.7600 C   0  0  0  0  0  0  0  0  0  0  0  0
   45.0360   36.0390   43.4660 C   0  0  0  0  0  0  0  0  0  0  0  0
   45.7500   34.8550   43.2350 C   0  0  0  0  0  0  0  0  0  0  0  0
   45.8920   33.9450   44.2440 N   0  0  0  0  0  0  0  0  0  0  0  0
   45.3410   34.1890   45.4680 C   0  0  0  0  0  0  0  0  0  0  0  0
   44.6510   35.3190   45.7120 N   0  0  0  0  0  0  0  0  0  0  0  0
   48.1150   33.4490   37.9110 S   0  0  0  0  0  0  0  0  0  0  0  0
   47.0120   32.6440   37.1730 O   0  0  0  0  0  0  0  0  0  0  0  0
   48.4220   34.6360   37.0930 O   0  0  0  0  0  0  0  0  0  0  0  0
   49.3790   32.2930   38.1610 C   0  0  0  0  0  0  0  0  0  0  0  0
   50.5740   32.3690   37.5030 N   0  0  0  0  0  0  0  0  0  0  0  0
   51.5760   31.4980   37.6750 C   0  0  0  0  0  0  0  0  0  0  0  0
   51.4950   30.4640   38.5180 N   0  0  0  0  0  0  0  0  0  0  0  0
   50.3490   30.3030   39.2160 C   0  0  0  0  0  0  0  0  0  0  0  0
   50.2010   29.2490   40.1090 C   0  0  0  0  0  0  0  0  0  0  0  0
   49.0260   29.0690   40.8390 C   0  0  0  0  0  0  0  0  0  0  0  0
   47.9810   29.9830   40.6540 C   0  0  0  0  0  0  0  0  0  0  0  0
   48.1990   31.0030   39.7530 C   0  0  0  0  0  0  0  0  0  0  0  0
   49.3340   31.2150   39.0190 C   0  0  0  0  0  0  0  0  0  0  0  0
   45.5581   33.0145   39.0748 H   0  0  0  0  0  0  0  0  0  0  0  0
   44.5682   33.5746   41.2617 H   0  0  0  0  0  0  0  0  0  0  0  0
   48.2495   35.4006   42.3448 H   0  0  0  0  0  0  0  0  0  0  0  0
   49.2521   34.8577   40.1808 H   0  0  0  0  0  0  0  0  0  0  0  0
   43.9167   37.1559   44.9778 H   0  0  0  0  0  0  0  0  0  0  0  0
   44.9072   36.7888   42.6715 H   0  0  0  0  0  0  0  0  0  0  0  0
   45.4629   33.4477   46.2715 H   0  0  0  0  0  0  0  0  0  0  0  0
   52.5029   31.6389   37.0996 H   0  0  0  0  0  0  0  0  0  0  0  0
   51.0305   28.5392   40.2437 H   0  0  0  0  0  0  0  0  0  0  0  0
   48.9227   28.2298   41.5427 H   0  0  0  0  0  0  0  0  0  0  0  0
   47.0315   29.8912   41.2017 H   0  0  0  0  0  0  0  0  0  0  0  0
   47.3768   31.7195   39.6094 H   0  0  0  0  0  0  0  0  0  0  0  0
  1  2  2  0
  1  6  1  0
  2  3  1  0
  3  4  2  0
  4  9  1  0
  5  4  1  0
  6  5  2  0
  7 12  2  0
  8  7  1  0
  9  8  2  0
  9 10  1  0
 10 11  2  0
 11 12  1  0
 13 16  1  0
 13  1  1  0
 14 13  2  0
 15 13  2  0
 16 25  2  0
 17 18  2  0
 17 16  1  0
 18 19  1  0
 19 20  2  0
 20 21  1  0
 21 22  2  0
 23 22  1  0
 24 23  2  0
 25 20  1  0
 25 24  1  0
  2 26  1  0
  3 27  1  0
  5 28  1  0
  6 29  1  0
  7 30  1  0
  8 31  1  0
 11 32  1  0
 18 33  1  0
 21 34  1  0
 22 35  1  0
 23 36  1  0
 24 37  1  0
M  ISO  8  26  14  27  14  28  14  29  14  30  14  31  14  32  14  33  14
M  ISO  4  34  14  35  14  36  14  37  14
M  END
>  <minimizedAffinity>  (1) 
-5.57047176

>  <minimizedRMSD>  (1) 
2.03244662

$$$$
