
     RDKit          3D

 30 32  0  0  0  0  0  0  0  0999 V2000
   47.5020   33.9160   39.4510 C   0  0  0  0  0  0  0  0  0  0  0  0
   46.2670   33.4780   39.8180 C   0  0  0  0  0  0  0  0  0  0  0  0
   45.7070   33.7640   41.0480 C   0  0  0  0  0  0  0  0  0  0  0  0
   46.4120   34.5150   41.9420 C   0  0  0  0  0  0  0  0  0  0  0  0
   47.6520   34.9500   41.5680 C   0  0  0  0  0  0  0  0  0  0  0  0
   48.2360   34.6890   40.3620 C   0  0  0  0  0  0  0  0  0  0  0  0
   44.4850   36.1470   44.7650 C   0  0  0  0  0  0  0  0  0  0  0  0
   45.0450   35.9650   43.4760 C   0  0  0  0  0  0  0  0  0  0  0  0
   45.7930   34.8050   43.2290 C   0  0  0  0  0  0  0  0  0  0  0  0
   45.9590   33.8960   44.2240 N   0  0  0  0  0  0  0  0  0  0  0  0
   45.4000   34.1150   45.4530 C   0  0  0  0  0  0  0  0  0  0  0  0
   44.6790   35.2230   45.7060 N   0  0  0  0  0  0  0  0  0  0  0  0
   48.1550   33.5030   37.8720 S   0  0  0  0  0  0  0  0  0  0  0  0
   48.3350   34.8040   37.0950 O   0  0  0  0  0  0  0  0  0  0  0  0
   49.4380   32.7670   37.9940 O   0  0  0  0  0  0  0  0  0  0  0  0
   46.9850   32.4940   37.0700 C   0  0  0  0  0  0  0  0  0  0  0  0
   45.8740   32.8810   36.3490 C   0  0  0  0  0  0  0  0  0  0  0  0
   45.1960   31.7970   35.8690 C   0  0  0  0  0  0  0  0  0  0  0  0
   45.9350   30.7570   36.3270 N   0  0  0  0  0  0  0  0  0  0  0  0
   46.9820   31.1680   37.0290 N   0  0  0  0  0  0  0  0  0  0  0  0
   45.6902   32.8705   39.1051 H   0  0  0  0  0  0  0  0  0  0  0  0
   44.7044   33.3905   41.3034 H   0  0  0  0  0  0  0  0  0  0  0  0
   48.2206   35.5539   42.2905 H   0  0  0  0  0  0  0  0  0  0  0  0
   49.2386   35.0685   40.1156 H   0  0  0  0  0  0  0  0  0  0  0  0
   43.8928   37.0468   44.9880 H   0  0  0  0  0  0  0  0  0  0  0  0
   44.8962   36.7168   42.6870 H   0  0  0  0  0  0  0  0  0  0  0  0
   45.5425   33.3708   46.2504 H   0  0  0  0  0  0  0  0  0  0  0  0
   45.5737   33.9260   36.1826 H   0  0  0  0  0  0  0  0  0  0  0  0
   44.2789   31.7737   35.2621 H   0  0  0  0  0  0  0  0  0  0  0  0
   45.7104   29.7673   36.1510 H   0  0  0  0  0  0  0  0  0  0  0  0
  1  2  2  0
  1  6  1  0
  2  3  1  0
  3  4  2  0
  4  9  1  0
  5  4  1  0
  6  5  2  0
  7 12  2  0
  8  7  1  0
  9  8  2  0
  9 10  1  0
 10 11  2  0
 11 12  1  0
 13 15  2  0
 13  1  1  0
 14 13  2  0
 16 13  1  0
 17 16  1  0
 18 19  1  0
 18 17  2  0
 19 20  1  0
 20 16  2  0
  2 21  1  0
  3 22  1  0
  5 23  1  0
  6 24  1  0
  7 25  1  0
  8 26  1  0
 11 27  1  0
 17 28  1  0
 18 29  1  0
 19 30  1  0
M  ISO  8  21  14  22  14  23  14  24  14  25  14  26  14  27  14  28  14
M  ISO  2  29  14  30   9
M  END
>  <minimizedAffinity>  (1) 
-5.45671797

>  <minimizedRMSD>  (1) 
3.24845815

$$$$
