
     RDKit          3D

 38 40  0  0  1  0  0  0  0  0999 V2000
   49.0380   33.5760   42.5110 C   0  0  2  0  0  0  0  0  0  0  0  0
   47.7060   33.9810   42.2000 C   0  0  2  0  0  0  0  0  0  0  0  0
   47.8150   35.4840   41.8520 C   0  0  0  0  0  0  0  0  0  0  0  0
   49.2470   35.8290   41.6470 C   0  0  0  0  0  0  0  0  0  0  0  0
   49.8770   34.8980   42.6160 C   0  0  0  0  0  0  0  0  0  0  0  0
   49.7660   32.7620   41.5050 C   0  0  0  0  0  0  0  0  0  0  0  0
   49.0690   32.3510   40.3730 C   0  0  0  0  0  0  0  0  0  0  0  0
   49.7620   31.6180   39.4180 C   0  0  0  0  0  0  0  0  0  0  0  0
   51.0920   31.3500   39.6650 N   0  0  0  0  0  0  0  0  0  0  0  0
   51.7330   31.7570   40.7590 C   0  0  0  0  0  0  0  0  0  0  0  0
   51.0600   32.4550   41.6620 N   0  0  0  0  0  0  0  0  0  0  0  0
   46.6660   33.8120   43.2610 C   0  0  0  0  0  0  0  0  0  0  0  0
   47.0090   33.7080   44.4290 O   0  0  0  0  0  0  0  0  0  0  0  0
   45.2100   33.7660   43.1230 C   0  0  0  0  0  0  0  0  0  0  0  0
   44.6260   35.1250   43.3030 C   0  0  0  0  0  0  0  0  0  0  0  0
   43.6690   35.3140   42.0980 C   0  0  0  0  0  0  0  0  0  0  0  0
   44.4430   34.6010   40.9930 C   0  0  0  0  0  0  0  0  0  0  0  0
   44.8400   33.3400   41.7240 C   0  0  0  0  0  0  0  0  0  0  0  0
   48.9391   32.9492   43.4095 H   0  0  0  0  0  0  0  0  0  0  0  0
   47.3519   33.3215   41.3940 H   0  0  0  0  0  0  0  0  0  0  0  0
   47.2498   35.6917   40.9314 H   0  0  0  0  0  0  0  0  0  0  0  0
   47.4004   36.0874   42.6730 H   0  0  0  0  0  0  0  0  0  0  0  0
   49.5722   35.6267   40.6158 H   0  0  0  0  0  0  0  0  0  0  0  0
   49.4940   36.8905   41.7962 H   0  0  0  0  0  0  0  0  0  0  0  0
   49.8267   35.3082   43.6354 H   0  0  0  0  0  0  0  0  0  0  0  0
   50.9419   34.7308   42.3967 H   0  0  0  0  0  0  0  0  0  0  0  0
   48.0055   32.5981   40.2389 H   0  0  0  0  0  0  0  0  0  0  0  0
   49.2690   31.2650   38.5002 H   0  0  0  0  0  0  0  0  0  0  0  0
   52.7964   31.5193   40.9095 H   0  0  0  0  0  0  0  0  0  0  0  0
   44.8299   33.0638   43.8796 H   0  0  0  0  0  0  0  0  0  0  0  0
   44.0707   35.1846   44.2507 H   0  0  0  0  0  0  0  0  0  0  0  0
   45.4003   35.9054   43.3417 H   0  0  0  0  0  0  0  0  0  0  0  0
   42.6937   34.8385   42.2789 H   0  0  0  0  0  0  0  0  0  0  0  0
   43.4247   36.3630   41.8746 H   0  0  0  0  0  0  0  0  0  0  0  0
   45.3211   35.1798   40.6706 H   0  0  0  0  0  0  0  0  0  0  0  0
   43.8796   34.4395   40.0622 H   0  0  0  0  0  0  0  0  0  0  0  0
   43.9978   32.6329   41.7505 H   0  0  0  0  0  0  0  0  0  0  0  0
   45.6780   32.8325   41.2237 H   0  0  0  0  0  0  0  0  0  0  0  0
  1  5  1  0
  2  1  1  0
  2 12  1  0
  3  2  1  0
  4  3  1  0
  4  5  1  0
  6 11  1  0
  6  1  1  0
  7  6  2  0
  8  9  2  0
  8  7  1  0
  9 10  1  0
 10 11  2  0
 12 13  2  0
 14 12  1  0
 14 15  1  0
 16 15  1  0
 17 18  1  0
 17 16  1  0
 18 14  1  0
  1 19  1  1
  2 20  1  6
  3 21  1  0
  3 22  1  0
  4 23  1  0
  4 24  1  0
  5 25  1  0
  5 26  1  0
  7 27  1  0
  8 28  1  0
 10 29  1  0
 14 30  1  0
 15 31  1  0
 15 32  1  0
 16 33  1  0
 16 34  1  0
 17 35  1  0
 17 36  1  0
 18 37  1  0
 18 38  1  0
M  ISO  8  19  13  20  13  21  13  22  13  23  13  24  13  25  13  26  13
M  ISO  8  27  14  28  14  29  14  30  13  31  13  32  13  33  13  34  13
M  ISO  4  35  13  36  13  37  13  38  13
M  END
>  <minimizedAffinity>  (1) 
-5.03051615

>  <minimizedRMSD>  (1) 
2.77405

$$$$
