
     RDKit          3D

 38 40  0  0  0  0  0  0  0  0999 V2000
   47.3580   33.9660   39.4760 C   0  0  0  0  0  0  0  0  0  0  0  0
   46.0870   33.5610   39.8570 C   0  0  0  0  0  0  0  0  0  0  0  0
   45.5300   33.7990   41.1010 C   0  0  0  0  0  0  0  0  0  0  0  0
   46.2890   34.4800   42.0120 C   0  0  0  0  0  0  0  0  0  0  0  0
   47.5570   34.8810   41.6260 C   0  0  0  0  0  0  0  0  0  0  0  0
   48.0960   34.6400   40.3980 C   0  0  0  0  0  0  0  0  0  0  0  0
   44.4570   36.0180   44.9370 C   0  0  0  0  0  0  0  0  0  0  0  0
   44.9580   35.8770   43.6170 C   0  0  0  0  0  0  0  0  0  0  0  0
   45.7200   34.7390   43.3200 C   0  0  0  0  0  0  0  0  0  0  0  0
   45.9550   33.8120   44.2950 N   0  0  0  0  0  0  0  0  0  0  0  0
   45.4460   34.0000   45.5490 C   0  0  0  0  0  0  0  0  0  0  0  0
   44.7130   35.0850   45.8570 N   0  0  0  0  0  0  0  0  0  0  0  0
   47.9310   33.5590   37.8800 S   0  0  0  0  0  0  0  0  0  0  0  0
   46.7240   33.4810   36.9220 O   0  0  0  0  0  0  0  0  0  0  0  0
   48.8640   34.6450   37.3670 O   0  0  0  0  0  0  0  0  0  0  0  0
   48.3260   30.6460   35.2070 N   0  0  0  0  0  0  0  0  0  0  0  0
   49.1690   31.8120   35.3200 C   0  0  0  0  0  0  0  0  0  0  0  0
   49.7380   31.8610   36.7260 C   0  0  0  0  0  0  0  0  0  0  0  0
   48.6880   31.9720   37.7350 C   0  0  0  0  0  0  0  0  0  0  0  0
   47.5830   30.9030   37.5270 C   0  0  0  0  0  0  0  0  0  0  0  0
   47.1940   30.7260   36.1090 C   0  0  0  0  0  0  0  0  0  0  0  0
   45.4809   33.0135   39.1201 H   0  0  0  0  0  0  0  0  0  0  0  0
   44.5152   33.4535   41.3477 H   0  0  0  0  0  0  0  0  0  0  0  0
   48.1684   35.4293   42.3578 H   0  0  0  0  0  0  0  0  0  0  0  0
   49.1121   34.9852   40.1563 H   0  0  0  0  0  0  0  0  0  0  0  0
   43.8553   36.8995   45.2034 H   0  0  0  0  0  0  0  0  0  0  0  0
   44.7543   36.6383   42.8496 H   0  0  0  0  0  0  0  0  0  0  0  0
   45.6404   33.2457   46.3256 H   0  0  0  0  0  0  0  0  0  0  0  0
   47.9799   30.5745   34.2395 H   0  0  0  0  0  0  0  0  0  0  0  0
   49.9893   31.7489   34.5898 H   0  0  0  0  0  0  0  0  0  0  0  0
   48.5834   32.7211   35.1187 H   0  0  0  0  0  0  0  0  0  0  0  0
   50.3118   30.9407   36.9097 H   0  0  0  0  0  0  0  0  0  0  0  0
   50.3801   32.7508   36.8030 H   0  0  0  0  0  0  0  0  0  0  0  0
   49.2251   31.8010   38.6796 H   0  0  0  0  0  0  0  0  0  0  0  0
   47.9530   29.9403   37.9096 H   0  0  0  0  0  0  0  0  0  0  0  0
   46.6900   31.2503   38.0673 H   0  0  0  0  0  0  0  0  0  0  0  0
   46.5693   31.5805   35.8096 H   0  0  0  0  0  0  0  0  0  0  0  0
   46.6537   29.7705   36.0374 H   0  0  0  0  0  0  0  0  0  0  0  0
  1  2  2  0
  1  6  1  0
  2  3  1  0
  3  4  2  0
  4  9  1  0
  5  4  1  0
  6  5  2  0
  7 12  2  0
  8  7  1  0
  9  8  2  0
  9 10  1  0
 10 11  2  0
 11 12  1  0
 13  1  1  0
 14 13  2  0
 15 13  2  0
 16 17  1  0
 16 21  1  0
 17 18  1  0
 18 19  1  0
 19 13  1  0
 20 19  1  0
 21 20  1  0
  2 22  1  0
  3 23  1  0
  5 24  1  0
  6 25  1  0
  7 26  1  0
  8 27  1  0
 11 28  1  0
 16 29  1  0
 17 30  1  0
 17 31  1  0
 18 32  1  0
 18 33  1  0
 19 34  1  0
 20 35  1  0
 20 36  1  0
 21 37  1  0
 21 38  1  0
M  ISO  8  22  14  23  14  24  14  25  14  26  14  27  14  28  14  29   5
M  ISO  8  30  13  31  13  32  13  33  13  34  13  35  13  36  13  37  13
M  ISO  1  38  13
M  END
>  <minimizedAffinity>  (1) 
-5.41728783

>  <minimizedRMSD>  (1) 
1.66445327

$$$$
