
     RDKit          3D

 26 27  0  0  0  0  0  0  0  0999 V2000
   47.5440   33.9920   39.5620 C   0  0  0  0  0  0  0  0  0  0  0  0
   46.3170   33.5330   39.9150 C   0  0  0  0  0  0  0  0  0  0  0  0
   45.7280   33.7910   41.1380 C   0  0  0  0  0  0  0  0  0  0  0  0
   46.4140   34.5500   42.0450 C   0  0  0  0  0  0  0  0  0  0  0  0
   47.6490   35.0070   41.6780 C   0  0  0  0  0  0  0  0  0  0  0  0
   48.2440   34.7620   40.4750 C   0  0  0  0  0  0  0  0  0  0  0  0
   44.4540   36.0860   44.8850 C   0  0  0  0  0  0  0  0  0  0  0  0
   45.0120   35.9480   43.5870 C   0  0  0  0  0  0  0  0  0  0  0  0
   45.7850   34.8130   43.3300 C   0  0  0  0  0  0  0  0  0  0  0  0
   45.9720   33.8900   44.3190 N   0  0  0  0  0  0  0  0  0  0  0  0
   45.4140   34.0690   45.5520 C   0  0  0  0  0  0  0  0  0  0  0  0
   44.6680   35.1550   45.8200 N   0  0  0  0  0  0  0  0  0  0  0  0
   48.2100   33.5740   37.9860 S   0  0  0  0  0  0  0  0  0  0  0  0
   47.0520   33.0720   37.1040 O   0  0  0  0  0  0  0  0  0  0  0  0
   48.8480   34.7530   37.3490 O   0  0  0  0  0  0  0  0  0  0  0  0
   49.3170   32.2170   38.0250 C   0  0  0  0  0  0  0  0  0  0  0  0
   49.6280   31.9770   39.3650 F   0  0  0  0  0  0  0  0  0  0  0  0
   48.7660   31.0400   37.5720 F   0  0  0  0  0  0  0  0  0  0  0  0
   50.5090   32.5140   37.4060 F   0  0  0  0  0  0  0  0  0  0  0  0
   45.7610   32.9225   39.1883 H   0  0  0  0  0  0  0  0  0  0  0  0
   44.7299   33.3948   41.3765 H   0  0  0  0  0  0  0  0  0  0  0  0
   48.2037   35.6170   42.4061 H   0  0  0  0  0  0  0  0  0  0  0  0
   49.2417   35.1610   40.2395 H   0  0  0  0  0  0  0  0  0  0  0  0
   43.8400   36.9670   45.1235 H   0  0  0  0  0  0  0  0  0  0  0  0
   44.8417   36.7083   42.8105 H   0  0  0  0  0  0  0  0  0  0  0  0
   45.5768   33.3151   46.3363 H   0  0  0  0  0  0  0  0  0  0  0  0
  1  2  2  0
  1  6  1  0
  2  3  1  0
  3  4  2  0
  4  9  1  0
  5  4  1  0
  6  5  2  0
  7 12  2  0
  8  7  1  0
  9  8  2  0
  9 10  1  0
 10 11  2  0
 11 12  1  0
 13 16  1  0
 13  1  1  0
 14 13  2  0
 15 13  2  0
 16 17  1  0
 18 16  1  0
 19 16  1  0
  2 20  1  0
  3 21  1  0
  5 22  1  0
  6 23  1  0
  7 24  1  0
  8 25  1  0
 11 26  1  0
M  ISO  7  20  14  21  14  22  14  23  14  24  14  25  14  26  14
M  END
>  <minimizedAffinity>  (1) 
-5.32665491

>  <minimizedRMSD>  (1) 
1.01599133

$$$$
