
     RDKit          3D

 32 33  0  0  0  0  0  0  0  0999 V2000
   47.5390   34.0090   39.5250 C   0  0  0  0  0  0  0  0  0  0  0  0
   46.3090   33.5500   39.8890 C   0  0  0  0  0  0  0  0  0  0  0  0
   45.7350   33.7870   41.1220 C   0  0  0  0  0  0  0  0  0  0  0  0
   46.4380   34.5230   42.0330 C   0  0  0  0  0  0  0  0  0  0  0  0
   47.6700   34.9810   41.6630 C   0  0  0  0  0  0  0  0  0  0  0  0
   48.2440   34.7530   40.4510 C   0  0  0  0  0  0  0  0  0  0  0  0
   44.4630   36.0470   44.8830 C   0  0  0  0  0  0  0  0  0  0  0  0
   45.0260   35.8990   43.5960 C   0  0  0  0  0  0  0  0  0  0  0  0
   45.8120   34.7690   43.3260 C   0  0  0  0  0  0  0  0  0  0  0  0
   46.0050   33.8580   44.3050 N   0  0  0  0  0  0  0  0  0  0  0  0
   45.4430   34.0350   45.5380 C   0  0  0  0  0  0  0  0  0  0  0  0
   44.6870   35.1140   45.8120 N   0  0  0  0  0  0  0  0  0  0  0  0
   48.1660   33.6390   37.9350 S   0  0  0  0  0  0  0  0  0  0  0  0
   47.0200   33.0470   37.0950 O   0  0  0  0  0  0  0  0  0  0  0  0
   48.7100   34.8580   37.2670 O   0  0  0  0  0  0  0  0  0  0  0  0
   49.4110   32.3950   37.9230 C   0  0  0  0  0  0  0  0  0  0  0  0
   49.2900   31.4910   39.1410 C   0  0  0  0  0  0  0  0  0  0  0  0
   49.5610   31.6630   36.6380 C   0  0  0  0  0  0  0  0  0  0  0  0
   45.7403   32.9562   39.1582 H   0  0  0  0  0  0  0  0  0  0  0  0
   44.7370   33.3932   41.3646 H   0  0  0  0  0  0  0  0  0  0  0  0
   48.2370   35.5749   42.3950 H   0  0  0  0  0  0  0  0  0  0  0  0
   49.2422   35.1502   40.2148 H   0  0  0  0  0  0  0  0  0  0  0  0
   43.8439   36.9252   45.1186 H   0  0  0  0  0  0  0  0  0  0  0  0
   44.8510   36.6572   42.8185 H   0  0  0  0  0  0  0  0  0  0  0  0
   45.6118   33.2813   46.3212 H   0  0  0  0  0  0  0  0  0  0  0  0
   50.3708   32.9263   38.0030 H   0  0  0  0  0  0  0  0  0  0  0  0
   49.3710   32.0960   40.0561 H   0  0  0  0  0  0  0  0  0  0  0  0
   48.3156   30.9809   39.1237 H   0  0  0  0  0  0  0  0  0  0  0  0
   50.0960   30.7426   39.1237 H   0  0  0  0  0  0  0  0  0  0  0  0
   49.7780   30.6042   36.8424 H   0  0  0  0  0  0  0  0  0  0  0  0
   48.6282   31.7413   36.0604 H   0  0  0  0  0  0  0  0  0  0  0  0
   50.3879   32.1019   36.0604 H   0  0  0  0  0  0  0  0  0  0  0  0
  1  2  2  0
  1  6  1  0
  2  3  1  0
  3  4  2  0
  4  9  1  0
  5  4  1  0
  6  5  2  0
  7 12  2  0
  8  7  1  0
  9  8  2  0
  9 10  1  0
 10 11  2  0
 11 12  1  0
 13  1  1  0
 14 13  2  0
 15 13  2  0
 16 13  1  0
 16 17  1  0
 18 16  1  0
  2 19  1  0
  3 20  1  0
  5 21  1  0
  6 22  1  0
  7 23  1  0
  8 24  1  0
 11 25  1  0
 16 26  1  0
 17 27  1  0
 17 28  1  0
 17 29  1  0
 18 30  1  0
 18 31  1  0
 18 32  1  0
M  ISO  8  19  14  20  14  21  14  22  14  23  14  24  14  25  14  26   8
M  ISO  6  27   8  28   8  29   8  30   8  31   8  32   8
M  END
>  <minimizedAffinity>  (1) 
-5.20580435

>  <minimizedRMSD>  (1) 
0.883961499

$$$$
