
     RDKit          3D

 42 45  0  0  0  0  0  0  0  0999 V2000
   47.6000   33.9640   39.5270 C   0  0  0  0  0  0  0  0  0  0  0  0
   46.3770   33.4660   39.8940 C   0  0  0  0  0  0  0  0  0  0  0  0
   45.8030   33.7340   41.1110 C   0  0  0  0  0  0  0  0  0  0  0  0
   46.4590   34.5300   42.0090 C   0  0  0  0  0  0  0  0  0  0  0  0
   47.6800   35.0220   41.6320 C   0  0  0  0  0  0  0  0  0  0  0  0
   48.2830   34.7770   40.4320 C   0  0  0  0  0  0  0  0  0  0  0  0
   44.4530   36.1000   44.8010 C   0  0  0  0  0  0  0  0  0  0  0  0
   45.0390   35.9360   43.5190 C   0  0  0  0  0  0  0  0  0  0  0  0
   45.8170   34.7910   43.2890 C   0  0  0  0  0  0  0  0  0  0  0  0
   45.9850   33.8880   44.2760 N   0  0  0  0  0  0  0  0  0  0  0  0
   45.3990   34.0960   45.4930 C   0  0  0  0  0  0  0  0  0  0  0  0
   44.6490   35.1830   45.7420 N   0  0  0  0  0  0  0  0  0  0  0  0
   48.2780   33.5810   37.9520 S   0  0  0  0  0  0  0  0  0  0  0  0
   48.8120   34.8810   37.3560 O   0  0  0  0  0  0  0  0  0  0  0  0
   49.3510   32.5690   38.0780 O   0  0  0  0  0  0  0  0  0  0  0  0
   46.9880   32.9880   36.9230 C   0  0  0  0  0  0  0  0  0  0  0  0
   45.7270   33.4080   36.7330 N   0  0  0  0  0  0  0  0  0  0  0  0
   45.1280   32.6710   35.8780 O   0  0  0  0  0  0  0  0  0  0  0  0
   45.9450   31.7290   35.4530 C   0  0  0  0  0  0  0  0  0  0  0  0
   47.1000   31.9260   36.1020 N   0  0  0  0  0  0  0  0  0  0  0  0
   45.7730   30.6720   34.5180 N   0  0  0  0  0  0  0  0  0  0  0  0
   44.4620   30.2300   34.0330 C   0  0  0  0  0  0  0  0  0  0  0  0
   44.6000   28.8770   33.3940 C   0  0  0  0  0  0  0  0  0  0  0  0
   45.4230   28.9990   32.2080 N   0  0  0  0  0  0  0  0  0  0  0  0
   46.6680   29.6920   32.4680 C   0  0  0  0  0  0  0  0  0  0  0  0
   46.8780   29.9270   33.9500 C   0  0  0  0  0  0  0  0  0  0  0  0
   45.8335   32.8254   39.1839 H   0  0  0  0  0  0  0  0  0  0  0  0
   44.8196   33.3105   41.3633 H   0  0  0  0  0  0  0  0  0  0  0  0
   48.2146   35.6621   42.3493 H   0  0  0  0  0  0  0  0  0  0  0  0
   49.2674   35.2033   40.1885 H   0  0  0  0  0  0  0  0  0  0  0  0
   43.8370   36.9857   45.0154 H   0  0  0  0  0  0  0  0  0  0  0  0
   44.8877   36.6852   42.7279 H   0  0  0  0  0  0  0  0  0  0  0  0
   45.5453   33.3531   46.2909 H   0  0  0  0  0  0  0  0  0  0  0  0
   43.7596   30.1679   34.8772 H   0  0  0  0  0  0  0  0  0  0  0  0
   44.0804   30.9497   33.2939 H   0  0  0  0  0  0  0  0  0  0  0  0
   45.0737   28.1810   34.1020 H   0  0  0  0  0  0  0  0  0  0  0  0
   43.6068   28.4916   33.1200 H   0  0  0  0  0  0  0  0  0  0  0  0
   44.8970   29.5212   31.4928 H   0  0  0  0  0  0  0  0  0  0  0  0
   47.5009   29.0864   32.0813 H   0  0  0  0  0  0  0  0  0  0  0  0
   46.6275   30.6706   31.9674 H   0  0  0  0  0  0  0  0  0  0  0  0
   46.9577   28.9560   34.4607 H   0  0  0  0  0  0  0  0  0  0  0  0
   47.8009   30.5100   34.0856 H   0  0  0  0  0  0  0  0  0  0  0  0
  1  2  2  0
  1  6  1  0
  2  3  1  0
  3  4  2  0
  4  9  1  0
  5  4  1  0
  6  5  2  0
  7 12  2  0
  8  7  1  0
  9  8  2  0
  9 10  1  0
 10 11  2  0
 11 12  1  0
 13 15  2  0
 13  1  1  0
 14 13  2  0
 16 13  1  0
 17 16  2  0
 18 17  1  0
 19 18  1  0
 19 20  2  0
 20 16  1  0
 21 19  1  0
 22 21  1  0
 23 22  1  0
 24 25  1  0
 24 23  1  0
 25 26  1  0
 26 21  1  0
  2 27  1  0
  3 28  1  0
  5 29  1  0
  6 30  1  0
  7 31  1  0
  8 32  1  0
 11 33  1  0
 22 34  1  0
 22 35  1  0
 23 36  1  0
 23 37  1  0
 24 38  1  0
 25 39  1  0
 25 40  1  0
 26 41  1  0
 26 42  1  0
M  ISO  8  27  14  28  14  29  14  30  14  31  14  32  14  33  14  34  13
M  ISO  8  35  13  36  13  37  13  38   5  39  13  40  13  41  13  42  13
M  END
>  <minimizedAffinity>  (1) 
-6.59928417

>  <minimizedRMSD>  (1) 
1.01103544

$$$$
