
     RDKit          3D

 41 44  0  0  0  0  0  0  0  0999 V2000
   47.5450   33.9390   39.5420 C   0  0  0  0  0  0  0  0  0  0  0  0
   46.3140   33.4750   39.9180 C   0  0  0  0  0  0  0  0  0  0  0  0
   45.7560   33.7530   41.1400 C   0  0  0  0  0  0  0  0  0  0  0  0
   46.4370   34.5220   42.0330 C   0  0  0  0  0  0  0  0  0  0  0  0
   47.6700   34.9910   41.6640 C   0  0  0  0  0  0  0  0  0  0  0  0
   48.2560   34.7370   40.4630 C   0  0  0  0  0  0  0  0  0  0  0  0
   44.4580   36.1070   44.8490 C   0  0  0  0  0  0  0  0  0  0  0  0
   45.0290   35.9390   43.5630 C   0  0  0  0  0  0  0  0  0  0  0  0
   45.8040   34.7880   43.3250 C   0  0  0  0  0  0  0  0  0  0  0  0
   45.9730   33.8920   44.3170 N   0  0  0  0  0  0  0  0  0  0  0  0
   45.4120   34.0850   45.5360 C   0  0  0  0  0  0  0  0  0  0  0  0
   44.6660   35.1780   45.7910 N   0  0  0  0  0  0  0  0  0  0  0  0
   48.2100   33.5480   37.9720 S   0  0  0  0  0  0  0  0  0  0  0  0
   48.5670   34.8710   37.2910 O   0  0  0  0  0  0  0  0  0  0  0  0
   49.3940   32.6700   38.0920 O   0  0  0  0  0  0  0  0  0  0  0  0
   46.9640   32.7640   37.0270 C   0  0  0  0  0  0  0  0  0  0  0  0
   45.7740   33.2070   36.5630 N   0  0  0  0  0  0  0  0  0  0  0  0
   45.1760   32.3010   35.9070 O   0  0  0  0  0  0  0  0  0  0  0  0
   45.9190   31.2030   35.8900 C   0  0  0  0  0  0  0  0  0  0  0  0
   47.0190   31.5030   36.5860 N   0  0  0  0  0  0  0  0  0  0  0  0
   45.3880   30.0870   35.1920 N   0  0  0  0  0  0  0  0  0  0  0  0
   44.0450   29.5470   35.1330 C   0  0  0  0  0  0  0  0  0  0  0  0
   43.5720   29.6450   33.6850 C   0  0  0  0  0  0  0  0  0  0  0  0
   44.4680   29.0740   32.8190 O   0  0  0  0  0  0  0  0  0  0  0  0
   45.7700   29.5390   32.9270 C   0  0  0  0  0  0  0  0  0  0  0  0
   46.2770   29.2690   34.3520 C   0  0  0  0  0  0  0  0  0  0  0  0
   45.7474   32.8523   39.2100 H   0  0  0  0  0  0  0  0  0  0  0  0
   44.7627   33.3562   41.3970 H   0  0  0  0  0  0  0  0  0  0  0  0
   48.2214   35.6126   42.3848 H   0  0  0  0  0  0  0  0  0  0  0  0
   49.2499   35.1399   40.2183 H   0  0  0  0  0  0  0  0  0  0  0  0
   43.8479   36.9947   45.0721 H   0  0  0  0  0  0  0  0  0  0  0  0
   44.8711   36.6873   42.7724 H   0  0  0  0  0  0  0  0  0  0  0  0
   45.5680   33.3384   46.3286 H   0  0  0  0  0  0  0  0  0  0  0  0
   44.0489   28.4955   35.4561 H   0  0  0  0  0  0  0  0  0  0  0  0
   43.3728   30.1090   35.7981 H   0  0  0  0  0  0  0  0  0  0  0  0
   42.6056   29.1283   33.5900 H   0  0  0  0  0  0  0  0  0  0  0  0
   43.4768   30.7100   33.4268 H   0  0  0  0  0  0  0  0  0  0  0  0
   46.4105   29.0159   32.2017 H   0  0  0  0  0  0  0  0  0  0  0  0
   45.7991   30.6187   32.7188 H   0  0  0  0  0  0  0  0  0  0  0  0
   46.1871   28.2025   34.6061 H   0  0  0  0  0  0  0  0  0  0  0  0
   47.3404   29.5179   34.4834 H   0  0  0  0  0  0  0  0  0  0  0  0
  1  2  2  0
  1  6  1  0
  2  3  1  0
  3  4  2  0
  4  9  1  0
  5  4  1  0
  6  5  2  0
  7 12  2  0
  8  7  1  0
  9  8  2  0
  9 10  1  0
 10 11  2  0
 11 12  1  0
 13 15  2  0
 13  1  1  0
 14 13  2  0
 16 13  1  0
 17 16  2  0
 18 17  1  0
 19 18  1  0
 19 20  2  0
 20 16  1  0
 21 19  1  0
 22 21  1  0
 23 22  1  0
 24 25  1  0
 24 23  1  0
 25 26  1  0
 26 21  1  0
  2 27  1  0
  3 28  1  0
  5 29  1  0
  6 30  1  0
  7 31  1  0
  8 32  1  0
 11 33  1  0
 22 34  1  0
 22 35  1  0
 23 36  1  0
 23 37  1  0
 25 38  1  0
 25 39  1  0
 26 40  1  0
 26 41  1  0
M  ISO  8  27  14  28  14  29  14  30  14  31  14  32  14  33  14  34  13
M  ISO  7  35  13  36  13  37  13  38  13  39  13  40  13  41  13
M  END
>  <minimizedAffinity>  (1) 
-6.47095776

>  <minimizedRMSD>  (1) 
0.200260103

$$$$
