
     RDKit          3D

 38 41  0  0  0  0  0  0  0  0999 V2000
   47.6040   33.9770   39.5320 C   0  0  0  0  0  0  0  0  0  0  0  0
   46.3910   33.4810   39.8970 C   0  0  0  0  0  0  0  0  0  0  0  0
   45.8050   33.7430   41.1220 C   0  0  0  0  0  0  0  0  0  0  0  0
   46.4570   34.5300   42.0160 C   0  0  0  0  0  0  0  0  0  0  0  0
   47.6790   35.0270   41.6440 C   0  0  0  0  0  0  0  0  0  0  0  0
   48.2800   34.7850   40.4410 C   0  0  0  0  0  0  0  0  0  0  0  0
   44.4570   36.0690   44.8360 C   0  0  0  0  0  0  0  0  0  0  0  0
   45.0370   35.9130   43.5510 C   0  0  0  0  0  0  0  0  0  0  0  0
   45.8190   34.7870   43.2940 C   0  0  0  0  0  0  0  0  0  0  0  0
   45.9950   33.8820   44.2830 N   0  0  0  0  0  0  0  0  0  0  0  0
   45.4210   34.0640   45.5100 C   0  0  0  0  0  0  0  0  0  0  0  0
   44.6660   35.1510   45.7630 N   0  0  0  0  0  0  0  0  0  0  0  0
   48.2850   33.6000   37.9520 S   0  0  0  0  0  0  0  0  0  0  0  0
   48.8070   34.8990   37.3610 O   0  0  0  0  0  0  0  0  0  0  0  0
   49.3570   32.5760   38.0820 O   0  0  0  0  0  0  0  0  0  0  0  0
   46.9920   33.0050   36.9330 C   0  0  0  0  0  0  0  0  0  0  0  0
   45.6980   33.3800   36.8130 N   0  0  0  0  0  0  0  0  0  0  0  0
   45.1050   32.6540   35.9300 O   0  0  0  0  0  0  0  0  0  0  0  0
   45.9460   31.7820   35.4290 C   0  0  0  0  0  0  0  0  0  0  0  0
   47.1120   31.9980   36.0480 N   0  0  0  0  0  0  0  0  0  0  0  0
   45.6300   30.7880   34.3990 C   0  0  0  0  0  0  0  0  0  0  0  0
   44.3370   30.2980   34.3480 C   0  0  0  0  0  0  0  0  0  0  0  0
   44.0060   29.3520   33.3810 C   0  0  0  0  0  0  0  0  0  0  0  0
   45.0220   28.9710   32.5280 C   0  0  0  0  0  0  0  0  0  0  0  0
   46.3150   29.4530   32.5690 C   0  0  0  0  0  0  0  0  0  0  0  0
   46.6300   30.3890   33.5330 C   0  0  0  0  0  0  0  0  0  0  0  0
   45.8506   32.8411   39.1839 H   0  0  0  0  0  0  0  0  0  0  0  0
   44.8210   33.3183   41.3695 H   0  0  0  0  0  0  0  0  0  0  0  0
   48.2129   35.6649   42.3638 H   0  0  0  0  0  0  0  0  0  0  0  0
   49.2638   35.2139   40.1996 H   0  0  0  0  0  0  0  0  0  0  0  0
   43.8366   36.9494   45.0595 H   0  0  0  0  0  0  0  0  0  0  0  0
   44.8725   36.6688   42.7688 H   0  0  0  0  0  0  0  0  0  0  0  0
   45.5772   33.3146   46.2999 H   0  0  0  0  0  0  0  0  0  0  0  0
   43.5794   30.6515   35.0629 H   0  0  0  0  0  0  0  0  0  0  0  0
   42.9923   28.9323   33.3015 H   0  0  0  0  0  0  0  0  0  0  0  0
   44.7829   28.2253   31.7555 H   0  0  0  0  0  0  0  0  0  0  0  0
   47.0728   29.1010   31.8535 H   0  0  0  0  0  0  0  0  0  0  0  0
   47.6456   30.8045   33.6096 H   0  0  0  0  0  0  0  0  0  0  0  0
  1  2  2  0
  1  6  1  0
  2  3  1  0
  3  4  2  0
  4  9  1  0
  5  4  1  0
  6  5  2  0
  7 12  2  0
  8  7  1  0
  9  8  2  0
  9 10  1  0
 10 11  2  0
 11 12  1  0
 13 15  2  0
 13  1  1  0
 14 13  2  0
 16 13  1  0
 17 16  2  0
 18 17  1  0
 19 18  1  0
 19 20  2  0
 20 16  1  0
 21 19  1  0
 22 21  2  0
 23 22  1  0
 24 25  1  0
 24 23  2  0
 25 26  2  0
 26 21  1  0
  2 27  1  0
  3 28  1  0
  5 29  1  0
  6 30  1  0
  7 31  1  0
  8 32  1  0
 11 33  1  0
 22 34  1  0
 23 35  1  0
 24 36  1  0
 25 37  1  0
 26 38  1  0
M  ISO  8  27  14  28  14  29  14  30  14  31  14  32  14  33  14  34  14
M  ISO  4  35  14  36  14  37  14  38  14
M  END
>  <minimizedAffinity>  (1) 
-6.41722488

>  <minimizedRMSD>  (1) 
1.0575726

$$$$
