
     RDKit          3D

 35 38  0  0  0  0  0  0  0  0999 V2000
   47.6380   33.9410   39.5490 C   0  0  0  0  0  0  0  0  0  0  0  0
   46.4700   33.3560   39.9480 C   0  0  0  0  0  0  0  0  0  0  0  0
   45.9030   33.6070   41.1790 C   0  0  0  0  0  0  0  0  0  0  0  0
   46.5100   34.4620   42.0430 C   0  0  0  0  0  0  0  0  0  0  0  0
   47.6790   35.0470   41.6450 C   0  0  0  0  0  0  0  0  0  0  0  0
   48.2710   34.8260   40.4380 C   0  0  0  0  0  0  0  0  0  0  0  0
   44.4650   35.9430   44.8700 C   0  0  0  0  0  0  0  0  0  0  0  0
   45.0460   35.7970   43.5830 C   0  0  0  0  0  0  0  0  0  0  0  0
   45.8720   34.6940   43.3300 C   0  0  0  0  0  0  0  0  0  0  0  0
   46.0900   33.8030   44.3160 N   0  0  0  0  0  0  0  0  0  0  0  0
   45.5110   33.9760   45.5500 C   0  0  0  0  0  0  0  0  0  0  0  0
   44.7160   35.0320   45.8040 N   0  0  0  0  0  0  0  0  0  0  0  0
   48.3210   33.5910   37.9740 S   0  0  0  0  0  0  0  0  0  0  0  0
   48.8450   34.8980   37.3990 O   0  0  0  0  0  0  0  0  0  0  0  0
   49.3970   32.5760   38.0840 O   0  0  0  0  0  0  0  0  0  0  0  0
   47.0340   33.0040   36.9390 C   0  0  0  0  0  0  0  0  0  0  0  0
   45.7340   33.3520   36.8450 N   0  0  0  0  0  0  0  0  0  0  0  0
   45.1460   32.6550   35.9370 O   0  0  0  0  0  0  0  0  0  0  0  0
   46.0040   31.8290   35.3940 C   0  0  0  0  0  0  0  0  0  0  0  0
   47.1680   32.0440   36.0110 N   0  0  0  0  0  0  0  0  0  0  0  0
   45.7760   30.8560   34.3310 C   0  0  0  0  0  0  0  0  0  0  0  0
   44.6120   30.2220   33.9820 C   0  0  0  0  0  0  0  0  0  0  0  0
   44.8380   29.3980   32.9380 N   0  0  0  0  0  0  0  0  0  0  0  0
   46.1580   29.5340   32.6480 C   0  0  0  0  0  0  0  0  0  0  0  0
   46.7290   30.4160   33.4890 N   0  0  0  0  0  0  0  0  0  0  0  0
   45.9640   32.6600   39.2627 H   0  0  0  0  0  0  0  0  0  0  0  0
   44.9602   33.1157   41.4615 H   0  0  0  0  0  0  0  0  0  0  0  0
   48.1728   35.7395   42.3426 H   0  0  0  0  0  0  0  0  0  0  0  0
   49.2139   35.3242   40.1682 H   0  0  0  0  0  0  0  0  0  0  0  0
   43.8138   36.8014   45.0917 H   0  0  0  0  0  0  0  0  0  0  0  0
   44.8504   36.5395   42.7954 H   0  0  0  0  0  0  0  0  0  0  0  0
   45.7005   33.2387   46.3441 H   0  0  0  0  0  0  0  0  0  0  0  0
   43.6405   30.3636   34.4781 H   0  0  0  0  0  0  0  0  0  0  0  0
   46.6840   29.0006   31.8425 H   0  0  0  0  0  0  0  0  0  0  0  0
   47.7183   30.7028   33.4883 H   0  0  0  0  0  0  0  0  0  0  0  0
  1  2  2  0
  1  6  1  0
  2  3  1  0
  3  4  2  0
  4  9  1  0
  5  4  1  0
  6  5  2  0
  7 12  2  0
  8  7  1  0
  9  8  2  0
  9 10  1  0
 10 11  2  0
 11 12  1  0
 13 15  2  0
 13  1  1  0
 14 13  2  0
 16 13  1  0
 17 16  2  0
 18 17  1  0
 19 18  1  0
 19 20  2  0
 20 16  1  0
 21 19  1  0
 22 21  2  0
 23 22  1  0
 24 23  2  0
 24 25  1  0
 25 21  1  0
  2 26  1  0
  3 27  1  0
  5 28  1  0
  6 29  1  0
  7 30  1  0
  8 31  1  0
 11 32  1  0
 22 33  1  0
 24 34  1  0
 25 35  1  0
M  ISO  8  26  14  27  14  28  14  29  14  30  14  31  14  32  14  33  14
M  ISO  2  34  14  35   9
M  END
>  <minimizedAffinity>  (1) 
-6.1864748

>  <minimizedRMSD>  (1) 
1.13970065

$$$$
