
     RDKit          3D

 17 18  0  0  0  0  0  0  0  0999 V2000
   44.5010   36.0240   44.5840 C   0  0  0  0  0  0  0  0  0  0  0  0
   45.2300   35.9550   43.3820 C   0  0  0  0  0  0  0  0  0  0  0  0
   46.1270   34.9000   43.2270 C   0  0  0  0  0  0  0  0  0  0  0  0
   46.2600   33.9880   44.2360 N   0  0  0  0  0  0  0  0  0  0  0  0
   45.5430   34.0870   45.3770 C   0  0  0  0  0  0  0  0  0  0  0  0
   44.6740   35.0930   45.5490 N   0  0  0  0  0  0  0  0  0  0  0  0
   46.9090   34.7910   41.9830 C   0  0  0  0  0  0  0  0  0  0  0  0
   46.4600   34.1130   40.8690 C   0  0  0  0  0  0  0  0  0  0  0  0
   47.4650   34.2500   39.9530 N   0  0  0  0  0  0  0  0  0  0  0  0
   48.4440   34.9760   40.5220 C   0  0  0  0  0  0  0  0  0  0  0  0
   48.1300   35.3260   41.7800 N   0  0  0  0  0  0  0  0  0  0  0  0
   43.7836   36.8432   44.7398 H   0  0  0  0  0  0  0  0  0  0  0  0
   45.0962   36.7084   42.5917 H   0  0  0  0  0  0  0  0  0  0  0  0
   45.6734   33.3365   46.1706 H   0  0  0  0  0  0  0  0  0  0  0  0
   45.5055   33.5805   40.7453 H   0  0  0  0  0  0  0  0  0  0  0  0
   49.3839   35.2488   40.0199 H   0  0  0  0  0  0  0  0  0  0  0  0
   48.6946   35.8786   42.4409 H   0  0  0  0  0  0  0  0  0  0  0  0
  1  6  2  0
  2  1  1  0
  3  2  2  0
  3  4  1  0
  4  5  2  0
  5  6  1  0
  7  3  1  0
  8  7  2  0
  9 10  2  0
  9  8  1  0
 10 11  1  0
 11  7  1  0
  1 12  1  0
  2 13  1  0
  5 14  1  0
  8 15  1  0
 10 16  1  0
 11 17  1  0
M  ISO  6  12  14  13  14  14  14  15  14  16  14  17   9
M  END
>  <minimizedAffinity>  (1) 
-4.04156923

>  <minimizedRMSD>  (1) 
0.571197629

$$$$
