
     RDKit          3D

 27 28  0  0  1  0  0  0  0  0999 V2000
   49.1190   33.7080   42.6740 C   0  0  2  0  0  0  0  0  0  0  0  0
   47.7220   33.9740   42.4860 C   0  0  2  0  0  0  0  0  0  0  0  0
   47.6450   35.3990   41.9180 C   0  0  0  0  0  0  0  0  0  0  0  0
   49.0140   35.8190   41.4870 C   0  0  0  0  0  0  0  0  0  0  0  0
   49.8500   35.0910   42.4760 C   0  0  0  0  0  0  0  0  0  0  0  0
   49.8070   32.8180   41.7340 C   0  0  0  0  0  0  0  0  0  0  0  0
   49.0140   32.2230   40.7270 C   0  0  0  0  0  0  0  0  0  0  0  0
   49.6320   31.3990   39.7960 C   0  0  0  0  0  0  0  0  0  0  0  0
   50.9940   31.2230   39.9280 N   0  0  0  0  0  0  0  0  0  0  0  0
   51.7220   31.7950   40.8860 C   0  0  0  0  0  0  0  0  0  0  0  0
   51.1110   32.5770   41.7640 N   0  0  0  0  0  0  0  0  0  0  0  0
   46.9110   33.9250   43.7570 C   0  0  0  0  0  0  0  0  0  0  0  0
   45.8890   34.5770   43.8620 O   0  0  0  0  0  0  0  0  0  0  0  0
   47.2750   33.1320   44.8800 N   0  0  0  0  0  0  0  0  0  0  0  0
   49.1637   33.2108   43.6542 H   0  0  0  0  0  0  0  0  0  0  0  0
   47.3009   33.1999   41.8276 H   0  0  0  0  0  0  0  0  0  0  0  0
   46.9636   35.4168   41.0547 H   0  0  0  0  0  0  0  0  0  0  0  0
   47.2666   36.0886   42.6869 H   0  0  0  0  0  0  0  0  0  0  0  0
   49.2313   35.4973   40.4578 H   0  0  0  0  0  0  0  0  0  0  0  0
   49.1728   36.9073   41.4683 H   0  0  0  0  0  0  0  0  0  0  0  0
   50.8680   34.9400   42.0875 H   0  0  0  0  0  0  0  0  0  0  0  0
   49.9566   35.6452   43.4202 H   0  0  0  0  0  0  0  0  0  0  0  0
   47.9307   32.4086   40.6817 H   0  0  0  0  0  0  0  0  0  0  0  0
   49.0629   30.9099   38.9917 H   0  0  0  0  0  0  0  0  0  0  0  0
   52.8066   31.6219   40.9468 H   0  0  0  0  0  0  0  0  0  0  0  0
   46.6857   33.1343   45.7248 H   0  0  0  0  0  0  0  0  0  0  0  0
   48.1279   32.5554   44.8486 H   0  0  0  0  0  0  0  0  0  0  0  0
  2  1  1  0
  2 12  1  0
  3  2  1  0
  4  3  1  0
  4  5  1  0
  5  1  1  0
  6 11  1  0
  6  1  1  0
  7  6  2  0
  8  9  2  0
  8  7  1  0
  9 10  1  0
 10 11  2  0
 12 13  2  0
 12 14  1  0
  1 15  1  1
  2 16  1  6
  3 17  1  0
  3 18  1  0
  4 19  1  0
  4 20  1  0
  5 21  1  0
  5 22  1  0
  7 23  1  0
  8 24  1  0
 10 25  1  0
 14 26  1  0
 14 27  1  0
M  ISO  8  15  13  16  13  17  13  18  13  19  13  20  13  21  13  22  13
M  ISO  3  23  14  24  14  25  14
M  END
>  <minimizedAffinity>  (1) 
-4.53665257

>  <minimizedRMSD>  (1) 
0.116596587

$$$$
