
     RDKit          3D

 20 21  0  0  0  0  0  0  0  0999 V2000
   46.5270   34.3700   41.5290 C   0  0  0  0  0  0  0  0  0  0  0  0
   45.8300   33.8480   40.4700 C   0  0  0  0  0  0  0  0  0  0  0  0
   46.7490   33.6700   39.4880 N   0  0  0  0  0  0  0  0  0  0  0  0
   47.9460   34.0810   39.9730 C   0  0  0  0  0  0  0  0  0  0  0  0
   47.8290   34.5190   41.2380 N   0  0  0  0  0  0  0  0  0  0  0  0
   44.7270   36.2830   44.2120 C   0  0  0  0  0  0  0  0  0  0  0  0
   45.3170   35.9820   42.9720 C   0  0  0  0  0  0  0  0  0  0  0  0
   45.9000   34.7170   42.8160 C   0  0  0  0  0  0  0  0  0  0  0  0
   45.8710   33.8470   43.8560 N   0  0  0  0  0  0  0  0  0  0  0  0
   45.2940   34.1700   45.0360 C   0  0  0  0  0  0  0  0  0  0  0  0
   44.7310   35.3620   45.2170 N   0  0  0  0  0  0  0  0  0  0  0  0
   48.8420   35.0320   42.1060 C   0  0  0  0  0  0  0  0  0  0  0  0
   50.0970   34.5420   41.7280 F   0  0  0  0  0  0  0  0  0  0  0  0
   48.6290   34.6810   43.4150 F   0  0  0  0  0  0  0  0  0  0  0  0
   48.9060   36.4030   41.9130 F   0  0  0  0  0  0  0  0  0  0  0  0
   44.7544   33.6217   40.4259 H   0  0  0  0  0  0  0  0  0  0  0  0
   48.8885   34.0589   39.4062 H   0  0  0  0  0  0  0  0  0  0  0  0
   44.2601   37.2660   44.3720 H   0  0  0  0  0  0  0  0  0  0  0  0
   45.3210   36.7148   42.1516 H   0  0  0  0  0  0  0  0  0  0  0  0
   45.2901   33.4376   45.8568 H   0  0  0  0  0  0  0  0  0  0  0  0
  1  8  1  0
  2  1  2  0
  3  4  2  0
  3  2  1  0
  4  5  1  0
  5  1  1  0
  5 12  1  0
  6 11  2  0
  7  6  1  0
  8  7  2  0
  8  9  1  0
  9 10  2  0
 10 11  1  0
 12 14  1  0
 13 12  1  0
 15 12  1  0
  2 16  1  0
  4 17  1  0
  6 18  1  0
  7 19  1  0
 10 20  1  0
M  ISO  5  16  14  17  14  18  14  19  14  20  14
M  END
>  <minimizedAffinity>  (1) 
-4.81535387

>  <minimizedRMSD>  (1) 
0.920711517

$$$$
