
     RDKit          3D

 27 29  0  0  0  0  0  0  0  0999 V2000
   46.5110   34.1290   40.8400 C   0  0  0  0  0  0  0  0  0  0  0  0
   47.4930   34.2560   39.8860 C   0  0  0  0  0  0  0  0  0  0  0  0
   48.4920   34.9440   40.5270 N   0  0  0  0  0  0  0  0  0  0  0  0
   48.0890   35.1910   41.7880 C   0  0  0  0  0  0  0  0  0  0  0  0
   46.8700   34.6970   41.9990 N   0  0  0  0  0  0  0  0  0  0  0  0
   42.8970   33.5130   40.0230 C   0  0  0  0  0  0  0  0  0  0  0  0
   44.1020   34.1870   40.2600 C   0  0  0  0  0  0  0  0  0  0  0  0
   45.2360   33.4470   40.5860 C   0  0  0  0  0  0  0  0  0  0  0  0
   45.1210   32.0870   40.6600 N   0  0  0  0  0  0  0  0  0  0  0  0
   43.9450   31.4540   40.4260 C   0  0  0  0  0  0  0  0  0  0  0  0
   42.8460   32.1620   40.1110 N   0  0  0  0  0  0  0  0  0  0  0  0
   46.1670   34.7880   43.2090 C   0  0  0  0  0  0  0  0  0  0  0  0
   46.1740   33.9060   44.2770 C   0  0  0  0  0  0  0  0  0  0  0  0
   45.4150   34.1540   45.3990 C   0  0  0  0  0  0  0  0  0  0  0  0
   44.6170   35.2920   45.5060 C   0  0  0  0  0  0  0  0  0  0  0  0
   44.5950   36.1850   44.4530 C   0  0  0  0  0  0  0  0  0  0  0  0
   45.3680   35.9270   43.3150 C   0  0  0  0  0  0  0  0  0  0  0  0
   47.4805   33.8905   38.8486 H   0  0  0  0  0  0  0  0  0  0  0  0
   48.6850   35.7274   42.5410 H   0  0  0  0  0  0  0  0  0  0  0  0
   41.9912   34.0813   39.7652 H   0  0  0  0  0  0  0  0  0  0  0  0
   44.1518   35.2836   40.1897 H   0  0  0  0  0  0  0  0  0  0  0  0
   43.8897   30.3575   40.4941 H   0  0  0  0  0  0  0  0  0  0  0  0
   46.7925   32.9977   44.2284 H   0  0  0  0  0  0  0  0  0  0  0  0
   45.4390   33.4359   46.2319 H   0  0  0  0  0  0  0  0  0  0  0  0
   44.0176   35.4747   46.4100 H   0  0  0  0  0  0  0  0  0  0  0  0
   43.9749   37.0919   44.5081 H   0  0  0  0  0  0  0  0  0  0  0  0
   45.3449   36.6428   42.4801 H   0  0  0  0  0  0  0  0  0  0  0  0
  1  5  1  0
  2  3  1  0
  2  1  2  0
  3  4  2  0
  4  5  1  0
  5 12  1  0
  6 11  2  0
  6  7  1  0
  7  8  2  0
  8  9  1  0
  8  1  1  0
 10  9  2  0
 11 10  1  0
 12 17  1  0
 12 13  2  0
 13 14  1  0
 14 15  2  0
 16 15  1  0
 17 16  2  0
  2 18  1  0
  4 19  1  0
  6 20  1  0
  7 21  1  0
 10 22  1  0
 13 23  1  0
 14 24  1  0
 15 25  1  0
 16 26  1  0
 17 27  1  0
M  ISO  8  18  14  19  14  20  14  21  14  22  14  23  14  24  14  25  14
M  ISO  2  26  14  27  14
M  END
>  <minimizedAffinity>  (1) 
-4.75509882

>  <minimizedRMSD>  (1) 
4.21880913

$$$$
