
     RDKit          3D

 25 27  0  0  0  0  0  0  0  0999 V2000
   46.2300   34.2020   40.9880 C   0  0  0  0  0  0  0  0  0  0  0  0
   47.2400   34.2000   40.0530 C   0  0  0  0  0  0  0  0  0  0  0  0
   48.3140   34.7560   40.6850 N   0  0  0  0  0  0  0  0  0  0  0  0
   47.9220   35.0640   41.9460 C   0  0  0  0  0  0  0  0  0  0  0  0
   46.6490   34.7290   42.1450 N   0  0  0  0  0  0  0  0  0  0  0  0
   42.5860   34.0150   40.1290 C   0  0  0  0  0  0  0  0  0  0  0  0
   43.8580   34.5500   40.3820 C   0  0  0  0  0  0  0  0  0  0  0  0
   44.8820   33.6820   40.7150 C   0  0  0  0  0  0  0  0  0  0  0  0
   44.6210   32.3390   40.7850 N   0  0  0  0  0  0  0  0  0  0  0  0
   43.3820   31.8440   40.5360 C   0  0  0  0  0  0  0  0  0  0  0  0
   42.3720   32.6730   40.2100 N   0  0  0  0  0  0  0  0  0  0  0  0
   45.9400   34.9190   43.3520 C   0  0  0  0  0  0  0  0  0  0  0  0
   45.0870   35.9720   43.6480 C   0  0  0  0  0  0  0  0  0  0  0  0
   44.4530   36.0240   44.8930 C   0  0  0  0  0  0  0  0  0  0  0  0
   44.6710   35.0620   45.7820 N   0  0  0  0  0  0  0  0  0  0  0  0
   45.5100   34.0390   45.4720 C   0  0  0  0  0  0  0  0  0  0  0  0
   46.1360   33.9570   44.2880 N   0  0  0  0  0  0  0  0  0  0  0  0
   47.1918   33.8297   39.0183 H   0  0  0  0  0  0  0  0  0  0  0  0
   48.5698   35.5289   42.7038 H   0  0  0  0  0  0  0  0  0  0  0  0
   41.7551   34.6851   39.8631 H   0  0  0  0  0  0  0  0  0  0  0  0
   44.0366   35.6335   40.3171 H   0  0  0  0  0  0  0  0  0  0  0  0
   43.2020   30.7608   40.6008 H   0  0  0  0  0  0  0  0  0  0  0  0
   44.9099   36.7639   42.9053 H   0  0  0  0  0  0  0  0  0  0  0  0
   43.7771   36.8575   45.1349 H   0  0  0  0  0  0  0  0  0  0  0  0
   45.6822   33.2497   46.2186 H   0  0  0  0  0  0  0  0  0  0  0  0
  1  5  1  0
  2  3  1  0
  2  1  2  0
  3  4  2  0
  4  5  1  0
  5 12  1  0
  6 11  2  0
  6  7  1  0
  7  8  2  0
  8  9  1  0
  8  1  1  0
 10  9  2  0
 11 10  1  0
 12 13  2  0
 12 17  1  0
 13 14  1  0
 14 15  2  0
 16 15  1  0
 17 16  2  0
  2 18  1  0
  4 19  1  0
  6 20  1  0
  7 21  1  0
 10 22  1  0
 13 23  1  0
 14 24  1  0
 16 25  1  0
M  ISO  8  18  14  19  14  20  14  21  14  22  14  23  14  24  14  25  14
M  END
>  <minimizedAffinity>  (1) 
-4.70589161

>  <minimizedRMSD>  (1) 
4.20326853

$$$$
