
     RDKit          3D

 24 26  0  0  0  0  0  0  0  0999 V2000
   44.2210   34.1920   40.5250 C   0  0  0  0  0  0  0  0  0  0  0  0
   44.7760   33.4780   39.4980 C   0  0  0  0  0  0  0  0  0  0  0  0
   46.0550   33.2210   39.9050 N   0  0  0  0  0  0  0  0  0  0  0  0
   46.2230   33.7650   41.1120 C   0  0  0  0  0  0  0  0  0  0  0  0
   45.1030   34.3830   41.5410 N   0  0  0  0  0  0  0  0  0  0  0  0
   40.9580   35.6280   39.3670 C   0  0  0  0  0  0  0  0  0  0  0  0
   42.2810   35.1630   39.3470 C   0  0  0  0  0  0  0  0  0  0  0  0
   42.8420   34.6830   40.5160 C   0  0  0  0  0  0  0  0  0  0  0  0
   42.0680   34.6860   41.6420 N   0  0  0  0  0  0  0  0  0  0  0  0
   40.7990   35.1360   41.6470 C   0  0  0  0  0  0  0  0  0  0  0  0
   40.2460   35.6010   40.5280 N   0  0  0  0  0  0  0  0  0  0  0  0
   44.9250   35.0660   42.7770 C   0  0  0  0  0  0  0  0  0  0  0  0
   45.1570   36.4290   42.9650 C   0  0  0  0  0  0  0  0  0  0  0  0
   44.8840   36.7320   44.2630 N   0  0  0  0  0  0  0  0  0  0  0  0
   44.4980   35.5730   44.8320 C   0  0  0  0  0  0  0  0  0  0  0  0
   44.5140   34.5500   43.9520 N   0  0  0  0  0  0  0  0  0  0  0  0
   44.2983   33.1774   38.5538 H   0  0  0  0  0  0  0  0  0  0  0  0
   47.1597   33.7156   41.6866 H   0  0  0  0  0  0  0  0  0  0  0  0
   40.4959   36.0140   38.4464 H   0  0  0  0  0  0  0  0  0  0  0  0
   42.8641   35.1799   38.4144 H   0  0  0  0  0  0  0  0  0  0  0  0
   40.2161   35.1195   42.5797 H   0  0  0  0  0  0  0  0  0  0  0  0
   45.5013   37.1366   42.1963 H   0  0  0  0  0  0  0  0  0  0  0  0
   44.2049   35.4728   45.8875 H   0  0  0  0  0  0  0  0  0  0  0  0
   44.2620   33.5693   44.1410 H   0  0  0  0  0  0  0  0  0  0  0  0
  1  5  1  0
  2  3  1  0
  2  1  2  0
  3  4  2  0
  4  5  1  0
  5 12  1  0
  6 11  2  0
  7  6  1  0
  7  8  2  0
  8  1  1  0
  8  9  1  0
  9 10  2  0
 11 10  1  0
 12 13  2  0
 12 16  1  0
 13 14  1  0
 14 15  2  0
 16 15  1  0
  2 17  1  0
  4 18  1  0
  6 19  1  0
  7 20  1  0
 10 21  1  0
 13 22  1  0
 15 23  1  0
 16 24  1  0
M  ISO  8  17  14  18  14  19  14  20  14  21  14  22  14  23  14  24   9
M  END
>  <minimizedAffinity>  (1) 
-4.53835917

>  <minimizedRMSD>  (1) 
4.67945719

$$$$
