
     RDKit          3D

 23 24  0  0  0  0  0  0  0  0999 V2000
   46.6630   34.4520   41.4780 C   0  0  0  0  0  0  0  0  0  0  0  0
   46.0760   33.7240   40.4820 C   0  0  0  0  0  0  0  0  0  0  0  0
   46.9770   33.7260   39.4600 N   0  0  0  0  0  0  0  0  0  0  0  0
   48.0470   34.4330   39.8620 C   0  0  0  0  0  0  0  0  0  0  0  0
   47.8870   34.8990   41.1100 N   0  0  0  0  0  0  0  0  0  0  0  0
   44.6770   36.0470   44.2310 C   0  0  0  0  0  0  0  0  0  0  0  0
   45.2580   35.8470   42.9660 C   0  0  0  0  0  0  0  0  0  0  0  0
   46.0350   34.7080   42.7770 C   0  0  0  0  0  0  0  0  0  0  0  0
   46.1840   33.8530   43.8320 N   0  0  0  0  0  0  0  0  0  0  0  0
   45.6190   34.0660   45.0290 C   0  0  0  0  0  0  0  0  0  0  0  0
   44.8660   35.1620   45.2300 N   0  0  0  0  0  0  0  0  0  0  0  0
   48.8370   35.6850   41.8310 C   0  0  0  0  0  0  0  0  0  0  0  0
   49.8690   34.8440   42.5690 C   0  0  0  0  0  0  0  0  0  0  0  0
   45.0883   33.2402   40.5011 H   0  0  0  0  0  0  0  0  0  0  0  0
   48.9412   34.6076   39.2456 H   0  0  0  0  0  0  0  0  0  0  0  0
   44.0588   36.9395   44.4079 H   0  0  0  0  0  0  0  0  0  0  0  0
   45.1030   36.5689   42.1507 H   0  0  0  0  0  0  0  0  0  0  0  0
   45.7712   33.3451   45.8458 H   0  0  0  0  0  0  0  0  0  0  0  0
   49.3623   36.3392   41.1196 H   0  0  0  0  0  0  0  0  0  0  0  0
   48.2815   36.2605   42.5862 H   0  0  0  0  0  0  0  0  0  0  0  0
   49.7278   34.9591   43.6538 H   0  0  0  0  0  0  0  0  0  0  0  0
   49.7451   33.7864   42.2933 H   0  0  0  0  0  0  0  0  0  0  0  0
   50.8799   35.1788   42.2933 H   0  0  0  0  0  0  0  0  0  0  0  0
  1  8  1  0
  2  1  2  0
  3  4  2  0
  3  2  1  0
  4  5  1  0
  5  1  1  0
  5 12  1  0
  6 11  2  0
  7  6  1  0
  8  7  2  0
  8  9  1  0
  9 10  2  0
 10 11  1  0
 12 13  1  0
  2 14  1  0
  4 15  1  0
  6 16  1  0
  7 17  1  0
 10 18  1  0
 12 19  1  0
 12 20  1  0
 13 21  1  0
 13 22  1  0
 13 23  1  0
M  ISO  8  14  14  15  14  16  14  17  14  18  14  19   8  20   8  21   8
M  ISO  2  22   8  23   8
M  END
>  <minimizedAffinity>  (1) 
-4.48119879

>  <minimizedRMSD>  (1) 
0.671780229

$$$$
