
     RDKit          3D

 33 36  0  0  0  0  0  0  0  0999 V2000
   45.1970   31.6240   39.0230 C   0  0  0  0  0  0  0  0  0  0  0  0
   44.7960   30.4040   38.4980 C   0  0  0  0  0  0  0  0  0  0  0  0
   43.6430   30.1010   39.1830 N   0  0  0  0  0  0  0  0  0  0  0  0
   43.4050   31.0990   40.0490 C   0  0  0  0  0  0  0  0  0  0  0  0
   44.3460   32.0410   39.9650 N   0  0  0  0  0  0  0  0  0  0  0  0
   44.3890   33.2200   40.7370 C   0  0  0  0  0  0  0  0  0  0  0  0
   43.6410   34.3160   40.3380 C   0  0  0  0  0  0  0  0  0  0  0  0
   43.6180   35.5090   41.0260 C   0  0  0  0  0  0  0  0  0  0  0  0
   44.3680   35.6640   42.1820 C   0  0  0  0  0  0  0  0  0  0  0  0
   45.1290   34.5830   42.6090 C   0  0  0  0  0  0  0  0  0  0  0  0
   45.8970   34.6840   43.7580 C   0  0  0  0  0  0  0  0  0  0  0  0
   46.6660   33.6460   44.2210 C   0  0  0  0  0  0  0  0  0  0  0  0
   46.6330   32.4750   43.4690 C   0  0  0  0  0  0  0  0  0  0  0  0
   45.8850   32.3460   42.3310 C   0  0  0  0  0  0  0  0  0  0  0  0
   45.1230   33.4080   41.8910 C   0  0  0  0  0  0  0  0  0  0  0  0
   48.7670   32.7280   38.7030 C   0  0  0  0  0  0  0  0  0  0  0  0
   47.6330   32.0350   39.1750 C   0  0  0  0  0  0  0  0  0  0  0  0
   46.4020   32.3190   38.5660 C   0  0  0  0  0  0  0  0  0  0  0  0
   46.3640   33.2350   37.5660 N   0  0  0  0  0  0  0  0  0  0  0  0
   47.4750   33.8760   37.1440 C   0  0  0  0  0  0  0  0  0  0  0  0
   48.6580   33.6260   37.7040 N   0  0  0  0  0  0  0  0  0  0  0  0
   45.2888   29.8131   37.7119 H   0  0  0  0  0  0  0  0  0  0  0  0
   42.5474   31.1352   40.7369 H   0  0  0  0  0  0  0  0  0  0  0  0
   43.0342   34.2288   39.4246 H   0  0  0  0  0  0  0  0  0  0  0  0
   43.0021   36.3423   40.6569 H   0  0  0  0  0  0  0  0  0  0  0  0
   44.3606   36.6108   42.7419 H   0  0  0  0  0  0  0  0  0  0  0  0
   45.8900   35.6301   44.3191 H   0  0  0  0  0  0  0  0  0  0  0  0
   47.2735   33.7342   45.1338 H   0  0  0  0  0  0  0  0  0  0  0  0
   47.2340   31.6169   43.8042 H   0  0  0  0  0  0  0  0  0  0  0  0
   45.8912   31.4000   41.7697 H   0  0  0  0  0  0  0  0  0  0  0  0
   49.7508   32.5335   39.1550 H   0  0  0  0  0  0  0  0  0  0  0  0
   47.7110   31.2999   39.9896 H   0  0  0  0  0  0  0  0  0  0  0  0
   47.4028   34.6120   36.3297 H   0  0  0  0  0  0  0  0  0  0  0  0
  1  5  1  0
  2  1  2  0
  2  3  1  0
  3  4  2  0
  5  4  1  0
  5  6  1  0
  6 15  1  0
  7  6  2  0
  7  8  1  0
  8  9  2  0
  9 10  1  0
 10 11  2  0
 11 12  1  0
 13 12  2  0
 14 13  1  0
 15 14  2  0
 15 10  1  0
 16 17  2  0
 18  1  1  0
 18 17  1  0
 19 18  2  0
 20 19  1  0
 20 21  2  0
 21 16  1  0
  2 22  1  0
  4 23  1  0
  7 24  1  0
  8 25  1  0
  9 26  1  0
 11 27  1  0
 12 28  1  0
 13 29  1  0
 14 30  1  0
 16 31  1  0
 17 32  1  0
 20 33  1  0
M  ISO  8  22  14  23  14  24  14  25  14  26  14  27  14  28  14  29  14
M  ISO  4  30  14  31  14  32  14  33  14
M  END
>  <minimizedAffinity>  (1) 
-3.92644691

>  <minimizedRMSD>  (1) 
6.46821451

$$$$
