
     RDKit          3D

 30 32  0  0  1  0  0  0  0  0999 V2000
   46.5100   34.2410   40.9000 C   0  0  0  0  0  0  0  0  0  0  0  0
   47.2450   34.7650   41.9280 C   0  0  0  0  0  0  0  0  0  0  0  0
   46.3230   35.3060   42.7730 N   0  0  0  0  0  0  0  0  0  0  0  0
   45.1030   35.0980   42.2480 C   0  0  0  0  0  0  0  0  0  0  0  0
   45.1840   34.4420   41.0910 N   0  0  0  0  0  0  0  0  0  0  0  0
   48.4760   33.5770   37.7740 C   0  0  0  0  0  0  0  0  0  0  0  0
   47.9220   34.2500   38.8710 C   0  0  0  0  0  0  0  0  0  0  0  0
   47.0990   33.5510   39.7470 C   0  0  0  0  0  0  0  0  0  0  0  0
   46.8620   32.2250   39.5000 N   0  0  0  0  0  0  0  0  0  0  0  0
   47.4050   31.6000   38.4400 C   0  0  0  0  0  0  0  0  0  0  0  0
   48.2000   32.2590   37.5880 N   0  0  0  0  0  0  0  0  0  0  0  0
   41.3030   33.4440   40.6670 N   0  0  0  0  0  0  0  0  0  0  0  0
   42.2600   32.7320   41.4300 C   0  0  0  0  0  0  0  0  0  0  0  0
   43.5480   32.7250   40.6840 C   0  0  0  0  0  0  0  0  0  0  0  0
   44.0640   34.0440   40.2400 C   0  0  1  0  0  0  0  0  0  0  0  0
   43.0440   35.1210   40.0830 C   0  0  0  0  0  0  0  0  0  0  0  0
   41.6300   34.7960   40.3580 C   0  0  0  0  0  0  0  0  0  0  0  0
   48.3385   34.7524   42.0463 H   0  0  0  0  0  0  0  0  0  0  0  0
   44.1615   35.4263   42.7126 H   0  0  0  0  0  0  0  0  0  0  0  0
   49.1294   34.1112   37.0685 H   0  0  0  0  0  0  0  0  0  0  0  0
   48.1352   35.3163   39.0369 H   0  0  0  0  0  0  0  0  0  0  0  0
   47.1932   30.5339   38.2710 H   0  0  0  0  0  0  0  0  0  0  0  0
   40.4227   33.0104   40.3539 H   0  0  0  0  0  0  0  0  0  0  0  0
   42.3981   33.2237   42.4043 H   0  0  0  0  0  0  0  0  0  0  0  0
   41.9163   31.7007   41.5984 H   0  0  0  0  0  0  0  0  0  0  0  0
   44.3090   32.2707   41.3355 H   0  0  0  0  0  0  0  0  0  0  0  0
   43.3452   32.1656   39.7588 H   0  0  0  0  0  0  0  0  0  0  0  0
   44.4169   33.9035   39.2077 H   0  0  0  0  0  0  0  0  0  0  0  0
   43.3382   36.1336   39.7697 H   0  0  0  0  0  0  0  0  0  0  0  0
   40.8529   35.5739   40.3253 H   0  0  0  0  0  0  0  0  0  0  0  0
  1  5  1  0
  1  2  2  0
  2  3  1  0
  4  3  2  0
  5  4  1  0
  6  7  2  0
  7  8  1  0
  8  1  1  0
  9  8  2  0
 10  9  1  0
 11  6  1  0
 11 10  2  0
 12 13  1  0
 14 13  1  0
 15 16  1  0
 15 14  1  0
 15  5  1  0
 16 17  2  0
 17 12  1  0
  2 18  1  0
  4 19  1  0
  6 20  1  0
  7 21  1  0
 10 22  1  0
 12 23  1  0
 13 24  1  0
 13 25  1  0
 14 26  1  0
 14 27  1  0
 15 28  1  6
 16 29  1  0
 17 30  1  0
M  ISO  8  18  14  19  14  20  14  21  14  22  14  24  13  25  13  26  13
M  ISO  4  27  13  28  13  29  13  30  13
M  END
>  <minimizedAffinity>  (1) 
-3.82407713

>  <minimizedRMSD>  (1) 
6.71401596

$$$$
