
     RDKit          3D

 25 27  0  0  0  0  0  0  0  0999 V2000
   45.7590   34.0880   41.6150 C   0  0  0  0  0  0  0  0  0  0  0  0
   44.8820   33.3840   40.7900 C   0  0  0  0  0  0  0  0  0  0  0  0
   45.5780   33.2510   39.6040 N   0  0  0  0  0  0  0  0  0  0  0  0
   46.7610   33.8370   39.7500 C   0  0  0  0  0  0  0  0  0  0  0  0
   46.9020   34.3600   40.9750 N   0  0  0  0  0  0  0  0  0  0  0  0
   44.4740   36.0080   44.5610 C   0  0  0  0  0  0  0  0  0  0  0  0
   44.7900   35.6660   43.2380 C   0  0  0  0  0  0  0  0  0  0  0  0
   45.4280   34.4520   42.9840 C   0  0  0  0  0  0  0  0  0  0  0  0
   45.7100   33.6600   44.0470 N   0  0  0  0  0  0  0  0  0  0  0  0
   45.4000   34.0050   45.3050 C   0  0  0  0  0  0  0  0  0  0  0  0
   44.7840   35.1780   45.5610 N   0  0  0  0  0  0  0  0  0  0  0  0
   48.0320   35.0750   41.5280 C   0  0  0  0  0  0  0  0  0  0  0  0
   49.1850   34.1900   41.7610 C   0  0  0  0  0  0  0  0  0  0  0  0
   50.2610   34.5520   42.4710 N   0  0  0  0  0  0  0  0  0  0  0  0
   51.1290   33.5860   42.5200 O   0  0  0  0  0  0  0  0  0  0  0  0
   50.6560   32.5620   41.8500 C   0  0  0  0  0  0  0  0  0  0  0  0
   49.4630   32.9110   41.3740 N   0  0  0  0  0  0  0  0  0  0  0  0
   43.8718   33.0196   41.0281 H   0  0  0  0  0  0  0  0  0  0  0  0
   47.5286   33.8866   38.9636 H   0  0  0  0  0  0  0  0  0  0  0  0
   43.9698   36.9618   44.7758 H   0  0  0  0  0  0  0  0  0  0  0  0
   44.5379   36.3465   42.4113 H   0  0  0  0  0  0  0  0  0  0  0  0
   45.6496   33.3269   46.1344 H   0  0  0  0  0  0  0  0  0  0  0  0
   48.3290   35.8675   40.8253 H   0  0  0  0  0  0  0  0  0  0  0  0
   47.7260   35.4961   42.4970 H   0  0  0  0  0  0  0  0  0  0  0  0
   51.1545   31.5918   41.7076 H   0  0  0  0  0  0  0  0  0  0  0  0
  1  8  1  0
  2  1  2  0
  3  4  2  0
  3  2  1  0
  4  5  1  0
  5 12  1  0
  5  1  1  0
  6 11  2  0
  7  6  1  0
  8  7  2  0
  8  9  1  0
  9 10  2  0
 10 11  1  0
 12 13  1  0
 13 14  2  0
 14 15  1  0
 16 15  1  0
 17 13  1  0
 17 16  2  0
  2 18  1  0
  4 19  1  0
  6 20  1  0
  7 21  1  0
 10 22  1  0
 12 23  1  0
 12 24  1  0
 16 25  1  0
M  ISO  8  18  14  19  14  20  14  21  14  22  14  23   8  24   8  25  14
M  END
>  <minimizedAffinity>  (1) 
-4.66676426

>  <minimizedRMSD>  (1) 
1.15941918

$$$$
