
     RDKit          3D

 33 35  0  0  0  0  0  0  0  0999 V2000
   45.4460   34.0000   41.6350 C   0  0  0  0  0  0  0  0  0  0  0  0
   44.4570   33.3540   40.8880 C   0  0  0  0  0  0  0  0  0  0  0  0
   45.0430   33.1780   39.6580 N   0  0  0  0  0  0  0  0  0  0  0  0
   46.2670   33.6850   39.7110 C   0  0  0  0  0  0  0  0  0  0  0  0
   46.5560   34.2030   40.9150 N   0  0  0  0  0  0  0  0  0  0  0  0
   44.4480   35.9600   44.6720 C   0  0  0  0  0  0  0  0  0  0  0  0
   44.6410   35.6150   43.3250 C   0  0  0  0  0  0  0  0  0  0  0  0
   45.2340   34.3840   43.0400 C   0  0  0  0  0  0  0  0  0  0  0  0
   45.5960   33.5780   44.0660 N   0  0  0  0  0  0  0  0  0  0  0  0
   45.3930   33.9460   45.3480 C   0  0  0  0  0  0  0  0  0  0  0  0
   44.8200   35.1320   45.6490 N   0  0  0  0  0  0  0  0  0  0  0  0
   47.7590   34.8420   41.3850 C   0  0  0  0  0  0  0  0  0  0  0  0
   48.6620   33.8530   42.0560 C   0  0  0  0  0  0  0  0  0  0  0  0
   50.0230   34.4960   42.3370 C   0  0  0  0  0  0  0  0  0  0  0  0
   50.8350   33.2210   42.6040 C   0  0  0  0  0  0  0  0  0  0  0  0
   50.5280   32.4780   41.3090 C   0  0  0  0  0  0  0  0  0  0  0  0
   49.0300   32.6730   41.1990 C   0  0  0  0  0  0  0  0  0  0  0  0
   43.4478   33.0567   41.2091 H   0  0  0  0  0  0  0  0  0  0  0  0
   46.9675   33.6815   38.8629 H   0  0  0  0  0  0  0  0  0  0  0  0
   43.9843   36.9250   44.9247 H   0  0  0  0  0  0  0  0  0  0  0  0
   44.3337   36.2954   42.5172 H   0  0  0  0  0  0  0  0  0  0  0  0
   45.6986   33.2703   46.1604 H   0  0  0  0  0  0  0  0  0  0  0  0
   48.2869   35.2894   40.5299 H   0  0  0  0  0  0  0  0  0  0  0  0
   47.4831   35.6176   42.1146 H   0  0  0  0  0  0  0  0  0  0  0  0
   48.0964   33.5379   42.9452 H   0  0  0  0  0  0  0  0  0  0  0  0
   50.4035   35.0540   41.4688 H   0  0  0  0  0  0  0  0  0  0  0  0
   50.0370   35.2452   43.1423 H   0  0  0  0  0  0  0  0  0  0  0  0
   51.9090   33.4303   42.7165 H   0  0  0  0  0  0  0  0  0  0  0  0
   50.5873   32.6840   43.5315 H   0  0  0  0  0  0  0  0  0  0  0  0
   51.0556   32.9255   40.4538 H   0  0  0  0  0  0  0  0  0  0  0  0
   50.8450   31.4247   41.3095 H   0  0  0  0  0  0  0  0  0  0  0  0
   48.7528   32.8682   40.1526 H   0  0  0  0  0  0  0  0  0  0  0  0
   48.4969   31.7708   41.5335 H   0  0  0  0  0  0  0  0  0  0  0  0
  1  8  1  0
  2  1  2  0
  3  4  2  0
  3  2  1  0
  4  5  1  0
  5 12  1  0
  5  1  1  0
  6 11  2  0
  7  6  1  0
  8  7  2  0
  8  9  1  0
  9 10  2  0
 10 11  1  0
 12 13  1  0
 13 14  1  0
 14 15  1  0
 16 15  1  0
 17 16  1  0
 17 13  1  0
  2 18  1  0
  4 19  1  0
  6 20  1  0
  7 21  1  0
 10 22  1  0
 12 23  1  0
 12 24  1  0
 13 25  1  0
 14 26  1  0
 14 27  1  0
 15 28  1  0
 15 29  1  0
 16 30  1  0
 16 31  1  0
 17 32  1  0
 17 33  1  0
M  ISO  8  18  14  19  14  20  14  21  14  22  14  23   8  24   8  25  13
M  ISO  8  26  13  27  13  28  13  29  13  30  13  31  13  32  13  33  13
M  END
>  <minimizedAffinity>  (1) 
-4.61452532

>  <minimizedRMSD>  (1) 
1.42943048

$$$$
