
     RDKit          3D

 32 34  0  0  0  0  0  0  0  0999 V2000
   43.9590   34.1070   40.2690 C   0  0  0  0  0  0  0  0  0  0  0  0
   44.3990   33.1990   39.3270 C   0  0  0  0  0  0  0  0  0  0  0  0
   45.7470   33.1120   39.5560 N   0  0  0  0  0  0  0  0  0  0  0  0
   46.0500   33.9190   40.5630 C   0  0  0  0  0  0  0  0  0  0  0  0
   44.9700   34.5580   41.0370 N   0  0  0  0  0  0  0  0  0  0  0  0
   40.6550   35.7660   39.5960 C   0  0  0  0  0  0  0  0  0  0  0  0
   41.9900   35.3840   39.4830 C   0  0  0  0  0  0  0  0  0  0  0  0
   42.5540   34.5080   40.3910 C   0  0  0  0  0  0  0  0  0  0  0  0
   41.7550   34.0360   41.3960 N   0  0  0  0  0  0  0  0  0  0  0  0
   40.4610   34.4240   41.4840 C   0  0  0  0  0  0  0  0  0  0  0  0
   39.9220   35.2750   40.5970 N   0  0  0  0  0  0  0  0  0  0  0  0
   44.8650   35.5110   42.1120 C   0  0  0  0  0  0  0  0  0  0  0  0
   44.5150   34.9220   43.3880 N   0  0  0  0  0  0  0  0  0  0  0  0
   45.5020   33.9560   43.8040 C   0  0  0  0  0  0  0  0  0  0  0  0
   45.6620   34.0940   45.3140 C   0  0  0  0  0  0  0  0  0  0  0  0
   44.6010   35.1280   45.6760 C   0  0  0  0  0  0  0  0  0  0  0  0
   44.6380   35.9650   44.3900 C   0  0  0  0  0  0  0  0  0  0  0  0
   43.8050   32.6683   38.5683 H   0  0  0  0  0  0  0  0  0  0  0  0
   47.0665   34.0492   40.9626 H   0  0  0  0  0  0  0  0  0  0  0  0
   40.2112   36.4630   38.8698 H   0  0  0  0  0  0  0  0  0  0  0  0
   42.6023   35.7843   38.6615 H   0  0  0  0  0  0  0  0  0  0  0  0
   39.8370   34.0329   42.3011 H   0  0  0  0  0  0  0  0  0  0  0  0
   45.8345   36.0194   42.2198 H   0  0  0  0  0  0  0  0  0  0  0  0
   44.0519   36.2026   41.8465 H   0  0  0  0  0  0  0  0  0  0  0  0
   45.1639   32.9399   43.5524 H   0  0  0  0  0  0  0  0  0  0  0  0
   46.4599   34.1326   43.2928 H   0  0  0  0  0  0  0  0  0  0  0  0
   45.4711   33.1368   45.8213 H   0  0  0  0  0  0  0  0  0  0  0  0
   46.6772   34.3886   45.6181 H   0  0  0  0  0  0  0  0  0  0  0  0
   43.6155   34.6681   45.8413 H   0  0  0  0  0  0  0  0  0  0  0  0
   44.7786   35.6834   46.6088 H   0  0  0  0  0  0  0  0  0  0  0  0
   45.5863   36.5134   44.2902 H   0  0  0  0  0  0  0  0  0  0  0  0
   43.8675   36.7479   44.3318 H   0  0  0  0  0  0  0  0  0  0  0  0
  1  8  1  0
  1  5  1  0
  2  3  1  0
  2  1  2  0
  3  4  2  0
  4  5  1  0
  5 12  1  0
  6 11  2  0
  7  6  1  0
  7  8  2  0
  8  9  1  0
  9 10  2  0
 11 10  1  0
 12 13  1  0
 13 14  1  0
 13 17  1  0
 14 15  1  0
 15 16  1  0
 17 16  1  0
  2 18  1  0
  4 19  1  0
  6 20  1  0
  7 21  1  0
 10 22  1  0
 12 23  1  0
 12 24  1  0
 14 25  1  0
 14 26  1  0
 15 27  1  0
 15 28  1  0
 16 29  1  0
 16 30  1  0
 17 31  1  0
 17 32  1  0
M  ISO  8  18  14  19  14  20  14  21  14  22  14  23   8  24   8  25  13
M  ISO  7  26  13  27  13  28  13  29  13  30  13  31  13  32  13
M  END
>  <minimizedAffinity>  (1) 
-4.55263042

>  <minimizedRMSD>  (1) 
4.8750062

$$$$
