
     RDKit          3D

 27 29  0  0  0  0  0  0  0  0999 V2000
   45.6900   33.9880   41.5530 C   0  0  0  0  0  0  0  0  0  0  0  0
   44.7760   33.9390   40.5090 C   0  0  0  0  0  0  0  0  0  0  0  0
   45.4820   33.3720   39.4770 N   0  0  0  0  0  0  0  0  0  0  0  0
   46.7130   33.1140   39.9020 C   0  0  0  0  0  0  0  0  0  0  0  0
   46.8600   33.4830   41.1670 N   0  0  0  0  0  0  0  0  0  0  0  0
   44.6650   36.3580   44.2640 C   0  0  0  0  0  0  0  0  0  0  0  0
   44.9780   35.8390   43.0100 C   0  0  0  0  0  0  0  0  0  0  0  0
   45.3650   34.5210   42.8630 C   0  0  0  0  0  0  0  0  0  0  0  0
   45.4240   33.7520   43.9990 N   0  0  0  0  0  0  0  0  0  0  0  0
   45.1140   34.2830   45.2040 C   0  0  0  0  0  0  0  0  0  0  0  0
   44.7410   35.5640   45.3390 N   0  0  0  0  0  0  0  0  0  0  0  0
   48.0520   33.3720   42.0040 C   0  0  0  0  0  0  0  0  0  0  0  0
   49.1600   34.2650   41.5200 C   0  0  0  0  0  0  0  0  0  0  0  0
   48.9050   35.7540   41.5020 C   0  0  0  0  0  0  0  0  0  0  0  0
   49.8470   35.1150   42.4980 C   0  0  0  0  0  0  0  0  0  0  0  0
   43.7290   34.2763   40.5088 H   0  0  0  0  0  0  0  0  0  0  0  0
   47.5031   32.6566   39.2884 H   0  0  0  0  0  0  0  0  0  0  0  0
   44.3586   37.4092   44.3699 H   0  0  0  0  0  0  0  0  0  0  0  0
   44.9162   36.4879   42.1239 H   0  0  0  0  0  0  0  0  0  0  0  0
   45.1695   33.6457   46.0988 H   0  0  0  0  0  0  0  0  0  0  0  0
   47.7910   33.6552   43.0344 H   0  0  0  0  0  0  0  0  0  0  0  0
   48.4066   32.3318   41.9572 H   0  0  0  0  0  0  0  0  0  0  0  0
   49.4930   33.5259   40.7764 H   0  0  0  0  0  0  0  0  0  0  0  0
   49.2993   36.3751   40.6842 H   0  0  0  0  0  0  0  0  0  0  0  0
   48.0191   36.4037   41.5582 H   0  0  0  0  0  0  0  0  0  0  0  0
   49.5673   35.0631   43.5606 H   0  0  0  0  0  0  0  0  0  0  0  0
   50.8985   35.2747   42.7788 H   0  0  0  0  0  0  0  0  0  0  0  0
  1  8  1  0
  2  1  2  0
  3  4  2  0
  3  2  1  0
  4  5  1  0
  5  1  1  0
  5 12  1  0
  6 11  2  0
  7  6  1  0
  8  7  2  0
  8  9  1  0
  9 10  2  0
 10 11  1  0
 13 12  1  0
 13 15  1  0
 14 13  1  0
 14 15  1  0
  2 16  1  0
  4 17  1  0
  6 18  1  0
  7 19  1  0
 10 20  1  0
 12 21  1  0
 12 22  1  0
 13 23  1  0
 14 24  1  0
 14 25  1  0
 15 26  1  0
 15 27  1  0
M  ISO  8  16  14  17  14  18  14  19  14  20  14  21   8  22   8  23  13
M  ISO  4  24  13  25  13  26  13  27  13
M  END
>  <minimizedAffinity>  (1) 
-4.45956612

>  <minimizedRMSD>  (1) 
1.69913816

$$$$
