
     RDKit          3D

 33 36  0  0  0  0  0  0  0  0999 V2000
   46.7580   34.6630   42.0110 C   0  0  0  0  0  0  0  0  0  0  0  0
   48.0000   35.2690   41.7700 C   0  0  0  0  0  0  0  0  0  0  0  0
   48.3220   34.9130   40.4970 N   0  0  0  0  0  0  0  0  0  0  0  0
   47.3230   34.1440   40.0280 C   0  0  0  0  0  0  0  0  0  0  0  0
   46.3730   33.9860   40.9330 N   0  0  0  0  0  0  0  0  0  0  0  0
   45.5620   34.0020   45.4840 C   0  0  0  0  0  0  0  0  0  0  0  0
   46.2550   33.8570   44.2690 C   0  0  0  0  0  0  0  0  0  0  0  0
   46.0470   34.7960   43.2840 C   0  0  0  0  0  0  0  0  0  0  0  0
   45.1870   35.8110   43.5330 N   0  0  0  0  0  0  0  0  0  0  0  0
   44.5320   35.9400   44.6950 C   0  0  0  0  0  0  0  0  0  0  0  0
   44.7210   35.0330   45.6700 N   0  0  0  0  0  0  0  0  0  0  0  0
   45.1490   33.2380   40.8180 C   0  0  0  0  0  0  0  0  0  0  0  0
   44.0450   33.9040   40.1320 C   0  0  0  0  0  0  0  0  0  0  0  0
   43.1670   34.8380   40.7000 C   0  0  0  0  0  0  0  0  0  0  0  0
   42.2620   35.2590   39.7950 N   0  0  0  0  0  0  0  0  0  0  0  0
   42.5390   34.6150   38.6530 C   0  0  0  0  0  0  0  0  0  0  0  0
   43.5960   33.8190   38.8730 N   0  0  0  0  0  0  0  0  0  0  0  0
   44.1690   32.9800   37.8710 C   0  0  0  0  0  0  0  0  0  0  0  0
   43.5880   31.6880   37.6100 C   0  0  0  0  0  0  0  0  0  0  0  0
   44.6850   31.0380   36.2610 S   0  0  0  0  0  0  0  0  0  0  0  0
   45.7180   32.6330   36.3070 C   0  0  0  0  0  0  0  0  0  0  0  0
   45.2360   33.2710   37.1100 N   0  0  0  0  0  0  0  0  0  0  0  0
   48.5855   35.8950   42.4594 H   0  0  0  0  0  0  0  0  0  0  0  0
   47.2998   33.7032   39.0205 H   0  0  0  0  0  0  0  0  0  0  0  0
   45.7096   33.2659   46.2880 H   0  0  0  0  0  0  0  0  0  0  0  0
   46.9452   33.0154   44.1098 H   0  0  0  0  0  0  0  0  0  0  0  0
   43.8432   36.7834   44.8506 H   0  0  0  0  0  0  0  0  0  0  0  0
   45.3732   32.3108   40.2703 H   0  0  0  0  0  0  0  0  0  0  0  0
   44.8019   33.0835   41.8503 H   0  0  0  0  0  0  0  0  0  0  0  0
   43.2111   35.1810   41.7442 H   0  0  0  0  0  0  0  0  0  0  0  0
   41.9954   34.7205   37.7026 H   0  0  0  0  0  0  0  0  0  0  0  0
   42.7193   31.2103   38.0866 H   0  0  0  0  0  0  0  0  0  0  0  0
   46.5930   32.8824   35.6888 H   0  0  0  0  0  0  0  0  0  0  0  0
  1  8  1  0
  2  1  2  0
  3  2  1  0
  4  3  2  0
  4  5  1  0
  5  1  1  0
  6 11  2  0
  7  6  1  0
  8  9  1  0
  8  7  2  0
  9 10  2  0
 10 11  1  0
 12  5  1  0
 13 14  2  0
 13 12  1  0
 15 14  1  0
 16 17  1  0
 16 15  2  0
 17 13  1  0
 18 17  1  0
 19 18  2  0
 20 21  1  0
 20 19  1  0
 21 22  2  0
 22 18  1  0
  2 23  1  0
  4 24  1  0
  6 25  1  0
  7 26  1  0
 10 27  1  0
 12 28  1  0
 12 29  1  0
 14 30  1  0
 16 31  1  0
 19 32  1  0
 21 33  1  0
M  ISO  8  23  14  24  14  25  14  26  14  27  14  28   8  29   8  30  14
M  ISO  3  31  14  32  14  33  14
M  END
>  <minimizedAffinity>  (1) 
-5.3271594

>  <minimizedRMSD>  (1) 
1.78853512

$$$$
