
     RDKit          3D

 40 43  0  0  0  0  0  0  0  0999 V2000
   46.9150   34.7170   42.1490 C   0  0  0  0  0  0  0  0  0  0  0  0
   48.1000   35.4230   41.9460 C   0  0  0  0  0  0  0  0  0  0  0  0
   48.4990   35.0560   40.6980 N   0  0  0  0  0  0  0  0  0  0  0  0
   47.5990   34.1960   40.2220 C   0  0  0  0  0  0  0  0  0  0  0  0
   46.6220   33.9720   41.0910 N   0  0  0  0  0  0  0  0  0  0  0  0
   45.5880   33.9850   45.5750 C   0  0  0  0  0  0  0  0  0  0  0  0
   46.3360   33.8750   44.3870 C   0  0  0  0  0  0  0  0  0  0  0  0
   46.1360   34.8230   43.3930 C   0  0  0  0  0  0  0  0  0  0  0  0
   45.2340   35.8040   43.6090 N   0  0  0  0  0  0  0  0  0  0  0  0
   44.5290   35.8970   44.7410 C   0  0  0  0  0  0  0  0  0  0  0  0
   44.7070   34.9840   45.7290 N   0  0  0  0  0  0  0  0  0  0  0  0
   45.4830   33.1190   40.9480 C   0  0  0  0  0  0  0  0  0  0  0  0
   44.4120   33.5990   40.0740 C   0  0  0  0  0  0  0  0  0  0  0  0
   43.4880   34.6040   40.3890 C   0  0  0  0  0  0  0  0  0  0  0  0
   42.6400   34.8030   39.3710 N   0  0  0  0  0  0  0  0  0  0  0  0
   42.9930   33.9490   38.4000 C   0  0  0  0  0  0  0  0  0  0  0  0
   44.0450   33.2440   38.8380 N   0  0  0  0  0  0  0  0  0  0  0  0
   44.7020   32.2200   38.0520 C   0  0  0  0  0  0  0  0  0  0  0  0
   45.8110   32.8360   37.1890 C   0  0  0  0  0  0  0  0  0  0  0  0
   45.3830   32.5340   35.7440 C   0  0  0  0  0  0  0  0  0  0  0  0
   44.8000   31.1510   35.9830 C   0  0  0  0  0  0  0  0  0  0  0  0
   43.7680   31.5490   37.0510 C   0  0  0  0  0  0  0  0  0  0  0  0
   48.5987   36.1183   42.6373 H   0  0  0  0  0  0  0  0  0  0  0  0
   47.6591   33.7282   39.2282 H   0  0  0  0  0  0  0  0  0  0  0  0
   45.7270   33.2483   46.3800 H   0  0  0  0  0  0  0  0  0  0  0  0
   47.0604   33.0586   44.2502 H   0  0  0  0  0  0  0  0  0  0  0  0
   43.8042   36.7141   44.8716 H   0  0  0  0  0  0  0  0  0  0  0  0
   45.8346   32.1566   40.5477 H   0  0  0  0  0  0  0  0  0  0  0  0
   45.0355   33.0612   41.9512 H   0  0  0  0  0  0  0  0  0  0  0  0
   43.4623   35.1541   41.3412 H   0  0  0  0  0  0  0  0  0  0  0  0
   42.5062   33.8454   37.4190 H   0  0  0  0  0  0  0  0  0  0  0  0
   45.0756   31.4928   38.7879 H   0  0  0  0  0  0  0  0  0  0  0  0
   45.8773   33.9211   37.3566 H   0  0  0  0  0  0  0  0  0  0  0  0
   46.8037   32.4261   37.4266 H   0  0  0  0  0  0  0  0  0  0  0  0
   46.2377   32.5123   35.0518 H   0  0  0  0  0  0  0  0  0  0  0  0
   44.7107   33.2678   35.2755 H   0  0  0  0  0  0  0  0  0  0  0  0
   44.3290   30.7336   35.0808 H   0  0  0  0  0  0  0  0  0  0  0  0
   45.5141   30.3634   36.2652 H   0  0  0  0  0  0  0  0  0  0  0  0
   43.0159   32.2482   36.6567 H   0  0  0  0  0  0  0  0  0  0  0  0
   43.1615   30.7234   37.4518 H   0  0  0  0  0  0  0  0  0  0  0  0
  1  8  1  0
  2  1  2  0
  3  2  1  0
  4  3  2  0
  4  5  1  0
  5  1  1  0
  6 11  2  0
  7  6  1  0
  8  9  1  0
  8  7  2  0
  9 10  2  0
 10 11  1  0
 12  5  1  0
 13 14  2  0
 13 12  1  0
 15 14  1  0
 16 17  1  0
 16 15  2  0
 17 13  1  0
 18 17  1  0
 19 18  1  0
 20 21  1  0
 20 19  1  0
 21 22  1  0
 22 18  1  0
  2 23  1  0
  4 24  1  0
  6 25  1  0
  7 26  1  0
 10 27  1  0
 12 28  1  0
 12 29  1  0
 14 30  1  0
 16 31  1  0
 18 32  1  0
 19 33  1  0
 19 34  1  0
 20 35  1  0
 20 36  1  0
 21 37  1  0
 21 38  1  0
 22 39  1  0
 22 40  1  0
M  ISO  8  23  14  24  14  25  14  26  14  27  14  28   8  29   8  30  14
M  ISO  8  31  14  32  13  33  13  34  13  35  13  36  13  37  13  38  13
M  ISO  2  39  13  40  13
M  END
>  <minimizedAffinity>  (1) 
-5.05819607

>  <minimizedRMSD>  (1) 
1.82324302

$$$$
