
     RDKit          3D

 30 32  0  0  0  0  0  0  0  0999 V2000
   46.7420   34.6720   42.0910 C   0  0  0  0  0  0  0  0  0  0  0  0
   47.9750   35.2800   41.8570 C   0  0  0  0  0  0  0  0  0  0  0  0
   48.2930   34.9230   40.5800 N   0  0  0  0  0  0  0  0  0  0  0  0
   47.3060   34.1570   40.1080 C   0  0  0  0  0  0  0  0  0  0  0  0
   46.3490   33.9930   41.0180 N   0  0  0  0  0  0  0  0  0  0  0  0
   45.5310   34.0010   45.5630 C   0  0  0  0  0  0  0  0  0  0  0  0
   46.2240   33.8630   44.3530 C   0  0  0  0  0  0  0  0  0  0  0  0
   46.0270   34.8010   43.3650 C   0  0  0  0  0  0  0  0  0  0  0  0
   45.1670   35.8190   43.6130 N   0  0  0  0  0  0  0  0  0  0  0  0
   44.5110   35.9450   44.7680 C   0  0  0  0  0  0  0  0  0  0  0  0
   44.6950   35.0310   45.7460 N   0  0  0  0  0  0  0  0  0  0  0  0
   45.1280   33.2400   40.8970 C   0  0  0  0  0  0  0  0  0  0  0  0
   44.0440   33.9000   40.1700 C   0  0  0  0  0  0  0  0  0  0  0  0
   43.1840   34.8770   40.6890 C   0  0  0  0  0  0  0  0  0  0  0  0
   42.2950   35.2890   39.7780 N   0  0  0  0  0  0  0  0  0  0  0  0
   42.5560   34.5890   38.6480 C   0  0  0  0  0  0  0  0  0  0  0  0
   43.5970   33.7750   38.9130 N   0  0  0  0  0  0  0  0  0  0  0  0
   44.1920   32.8490   37.9500 C   0  0  0  0  0  0  0  0  0  0  0  0
   48.5593   35.9064   42.5471 H   0  0  0  0  0  0  0  0  0  0  0  0
   47.2867   33.7190   39.0991 H   0  0  0  0  0  0  0  0  0  0  0  0
   45.6740   33.2614   46.3646 H   0  0  0  0  0  0  0  0  0  0  0  0
   46.9131   33.0202   44.1955 H   0  0  0  0  0  0  0  0  0  0  0  0
   43.8233   36.7894   44.9234 H   0  0  0  0  0  0  0  0  0  0  0  0
   45.3612   32.3000   40.3754 H   0  0  0  0  0  0  0  0  0  0  0  0
   44.7588   33.1014   41.9239 H   0  0  0  0  0  0  0  0  0  0  0  0
   43.2337   35.2586   41.7195 H   0  0  0  0  0  0  0  0  0  0  0  0
   42.0183   34.6699   37.6918 H   0  0  0  0  0  0  0  0  0  0  0  0
   44.7103   32.0423   38.4891 H   0  0  0  0  0  0  0  0  0  0  0  0
   43.4010   32.4186   37.3183 H   0  0  0  0  0  0  0  0  0  0  0  0
   44.9122   33.3896   37.3183 H   0  0  0  0  0  0  0  0  0  0  0  0
  1  8  1  0
  2  1  2  0
  3  2  1  0
  4  3  2  0
  4  5  1  0
  5  1  1  0
  6 11  2  0
  7  6  1  0
  8  9  1  0
  8  7  2  0
  9 10  2  0
 10 11  1  0
 12  5  1  0
 13 14  2  0
 13 12  1  0
 15 14  1  0
 16 17  1  0
 16 15  2  0
 17 13  1  0
 18 17  1  0
  2 19  1  0
  4 20  1  0
  6 21  1  0
  7 22  1  0
 10 23  1  0
 12 24  1  0
 12 25  1  0
 14 26  1  0
 16 27  1  0
 18 28  1  0
 18 29  1  0
 18 30  1  0
M  ISO  8  19  14  20  14  21  14  22  14  23  14  24   8  25   8  26  14
M  ISO  4  27  14  28   8  29   8  30   8
M  END
>  <minimizedAffinity>  (1) 
-4.94985056

>  <minimizedRMSD>  (1) 
0.848737836

$$$$
