
     RDKit          3D

 34 37  0  0  0  0  0  0  0  0999 V2000
   46.8080   34.6810   42.0150 C   0  0  0  0  0  0  0  0  0  0  0  0
   48.0240   35.3160   41.7950 C   0  0  0  0  0  0  0  0  0  0  0  0
   48.3630   34.9650   40.5220 N   0  0  0  0  0  0  0  0  0  0  0  0
   47.3890   34.1730   40.0450 C   0  0  0  0  0  0  0  0  0  0  0  0
   46.4340   33.9920   40.9470 N   0  0  0  0  0  0  0  0  0  0  0  0
   45.5890   33.9800   45.4900 C   0  0  0  0  0  0  0  0  0  0  0  0
   46.2850   33.8590   44.2800 C   0  0  0  0  0  0  0  0  0  0  0  0
   46.0790   34.7990   43.2930 C   0  0  0  0  0  0  0  0  0  0  0  0
   45.2040   35.8070   43.5440 N   0  0  0  0  0  0  0  0  0  0  0  0
   44.5440   35.9190   44.6970 C   0  0  0  0  0  0  0  0  0  0  0  0
   44.7300   35.0150   45.6680 N   0  0  0  0  0  0  0  0  0  0  0  0
   45.2280   33.2170   40.8290 C   0  0  0  0  0  0  0  0  0  0  0  0
   44.1280   33.8390   40.1060 C   0  0  0  0  0  0  0  0  0  0  0  0
   43.3480   34.9080   40.5630 C   0  0  0  0  0  0  0  0  0  0  0  0
   42.4190   35.2440   39.6590 N   0  0  0  0  0  0  0  0  0  0  0  0
   42.5730   34.4150   38.6140 C   0  0  0  0  0  0  0  0  0  0  0  0
   43.5970   33.5870   38.9020 N   0  0  0  0  0  0  0  0  0  0  0  0
   44.1060   32.5250   38.0390 C   0  0  0  0  0  0  0  0  0  0  0  0
   43.0830   31.5830   37.3860 C   0  0  0  0  0  0  0  0  0  0  0  0
   43.9570   31.0860   38.4680 C   0  0  0  0  0  0  0  0  0  0  0  0
   48.5859   35.9568   42.4904 H   0  0  0  0  0  0  0  0  0  0  0  0
   47.3840   33.7319   39.0373 H   0  0  0  0  0  0  0  0  0  0  0  0
   45.7381   33.2405   46.2906 H   0  0  0  0  0  0  0  0  0  0  0  0
   46.9855   33.0261   44.1200 H   0  0  0  0  0  0  0  0  0  0  0  0
   43.8458   36.7549   44.8512 H   0  0  0  0  0  0  0  0  0  0  0  0
   45.4814   32.2800   40.3116 H   0  0  0  0  0  0  0  0  0  0  0  0
   44.8636   33.0842   41.8584 H   0  0  0  0  0  0  0  0  0  0  0  0
   43.4806   35.4056   41.5350 H   0  0  0  0  0  0  0  0  0  0  0  0
   41.9734   34.4121   37.6918 H   0  0  0  0  0  0  0  0  0  0  0  0
   44.9418   33.1552   37.7009 H   0  0  0  0  0  0  0  0  0  0  0  0
   42.0080   31.7264   37.5697 H   0  0  0  0  0  0  0  0  0  0  0  0
   42.8649   31.2663   36.3554 H   0  0  0  0  0  0  0  0  0  0  0  0
   44.7533   30.3634   38.2363 H   0  0  0  0  0  0  0  0  0  0  0  0
   43.7756   30.5886   39.4322 H   0  0  0  0  0  0  0  0  0  0  0  0
  1  8  1  0
  2  1  2  0
  3  2  1  0
  4  3  2  0
  4  5  1  0
  5  1  1  0
  6 11  2  0
  7  6  1  0
  8  9  1  0
  8  7  2  0
  9 10  2  0
 10 11  1  0
 12  5  1  0
 13 14  2  0
 13 12  1  0
 15 14  1  0
 16 17  1  0
 16 15  2  0
 17 13  1  0
 18 20  1  0
 18 17  1  0
 19 18  1  0
 19 20  1  0
  2 21  1  0
  4 22  1  0
  6 23  1  0
  7 24  1  0
 10 25  1  0
 12 26  1  0
 12 27  1  0
 14 28  1  0
 16 29  1  0
 18 30  1  0
 19 31  1  0
 19 32  1  0
 20 33  1  0
 20 34  1  0
M  ISO  8  21  14  22  14  23  14  24  14  25  14  26   8  27   8  28  14
M  ISO  6  29  14  30  13  31  13  32  13  33  13  34  13
M  END
>  <minimizedAffinity>  (1) 
-4.93340254

>  <minimizedRMSD>  (1) 
1.52777886

$$$$
