
     RDKit          3D

 46 50  0  0  0  0  0  0  0  0999 V2000
   46.6760   33.1040   44.6170 C   0  0  0  0  0  0  0  0  0  0  0  0
   45.4910   33.7610   44.9800 C   0  0  0  0  0  0  0  0  0  0  0  0
   45.2730   34.8070   44.1710 N   0  0  0  0  0  0  0  0  0  0  0  0
   46.2960   34.8450   43.2850 C   0  0  0  0  0  0  0  0  0  0  0  0
   47.1120   33.8170   43.5790 N   0  0  0  0  0  0  0  0  0  0  0  0
   48.3240   33.4730   42.8960 C   0  0  0  0  0  0  0  0  0  0  0  0
   49.3880   34.3920   42.9230 C   0  0  0  0  0  0  0  0  0  0  0  0
   50.4080   33.8170   42.2030 C   0  0  0  0  0  0  0  0  0  0  0  0
   49.9440   32.6190   41.7840 C   0  0  0  0  0  0  0  0  0  0  0  0
   48.7040   32.4200   42.2000 O   0  0  0  0  0  0  0  0  0  0  0  0
   50.6840   31.6900   40.9990 N   0  0  0  0  0  0  0  0  0  0  0  0
   50.3140   31.1990   39.6850 C   0  0  0  0  0  0  0  0  0  0  0  0
   51.5960   31.5350   38.9160 C   0  0  0  0  0  0  0  0  0  0  0  0
   52.6730   31.2700   39.9470 C   0  0  0  0  0  0  0  0  0  0  0  0
   51.9380   31.0080   41.2650 C   0  0  0  0  0  0  0  0  0  0  0  0
   47.2290   31.9130   45.2850 C   0  0  0  0  0  0  0  0  0  0  0  0
   46.0650   30.8320   47.1740 C   0  0  0  0  0  0  0  0  0  0  0  0
   45.9760   30.9770   48.5580 C   0  0  0  0  0  0  0  0  0  0  0  0
   46.7890   32.0270   48.8540 N   0  0  0  0  0  0  0  0  0  0  0  0
   47.3160   32.4640   47.7070 C   0  0  0  0  0  0  0  0  0  0  0  0
   46.8900   31.7510   46.6670 N   0  0  0  0  0  0  0  0  0  0  0  0
   44.1530   27.7240   46.3720 C   0  0  0  0  0  0  0  0  0  0  0  0
   44.8520   28.7070   47.0960 C   0  0  0  0  0  0  0  0  0  0  0  0
   45.3360   29.8010   46.4260 C   0  0  0  0  0  0  0  0  0  0  0  0
   45.1160   29.8730   45.0990 N   0  0  0  0  0  0  0  0  0  0  0  0
   44.4550   28.9440   44.4080 C   0  0  0  0  0  0  0  0  0  0  0  0
   43.9690   27.8580   45.0520 N   0  0  0  0  0  0  0  0  0  0  0  0
   44.8345   33.4606   45.8100 H   0  0  0  0  0  0  0  0  0  0  0  0
   46.4339   35.5785   42.4769 H   0  0  0  0  0  0  0  0  0  0  0  0
   49.4014   35.3732   43.4201 H   0  0  0  0  0  0  0  0  0  0  0  0
   51.4019   34.2458   42.0073 H   0  0  0  0  0  0  0  0  0  0  0  0
   50.1125   30.1176   39.6933 H   0  0  0  0  0  0  0  0  0  0  0  0
   49.3923   31.6305   39.2676 H   0  0  0  0  0  0  0  0  0  0  0  0
   51.7161   30.8827   38.0385 H   0  0  0  0  0  0  0  0  0  0  0  0
   51.6129   32.5597   38.5164 H   0  0  0  0  0  0  0  0  0  0  0  0
   53.2691   30.3911   39.6602 H   0  0  0  0  0  0  0  0  0  0  0  0
   53.3666   32.1194   40.0336 H   0  0  0  0  0  0  0  0  0  0  0  0
   52.4681   31.4492   42.1219 H   0  0  0  0  0  0  0  0  0  0  0  0
   51.8380   29.9463   41.5347 H   0  0  0  0  0  0  0  0  0  0  0  0
   46.8674   31.0261   44.7441 H   0  0  0  0  0  0  0  0  0  0  0  0
   48.3212   32.0419   45.2620 H   0  0  0  0  0  0  0  0  0  0  0  0
   45.3788   30.3740   49.2578 H   0  0  0  0  0  0  0  0  0  0  0  0
   48.0160   33.3092   47.6313 H   0  0  0  0  0  0  0  0  0  0  0  0
   43.7553   26.8404   46.8928 H   0  0  0  0  0  0  0  0  0  0  0  0
   45.0074   28.5999   48.1797 H   0  0  0  0  0  0  0  0  0  0  0  0
   44.3061   29.0594   43.3242 H   0  0  0  0  0  0  0  0  0  0  0  0
  1  2  2  0
  1 16  1  0
  3  2  1  0
  4  5  1  0
  4  3  2  0
  5  1  1  0
  6  7  2  0
  6  5  1  0
  8  7  1  0
  9 10  1  0
  9  8  2  0
 10  6  1  0
 11 15  1  0
 11  9  1  0
 12 11  1  0
 13 12  1  0
 13 14  1  0
 14 15  1  0
 16 21  1  0
 17 18  2  0
 18 19  1  0
 20 19  2  0
 21 17  1  0
 21 20  1  0
 22 23  2  0
 24 23  1  0
 24 17  1  0
 25 24  2  0
 26 27  2  0
 26 25  1  0
 27 22  1  0
  2 28  1  0
  4 29  1  0
  7 30  1  0
  8 31  1  0
 12 32  1  0
 12 33  1  0
 13 34  1  0
 13 35  1  0
 14 36  1  0
 14 37  1  0
 15 38  1  0
 15 39  1  0
 16 40  1  0
 16 41  1  0
 18 42  1  0
 20 43  1  0
 22 44  1  0
 23 45  1  0
 26 46  1  0
M  ISO  8  28  14  29  14  30  14  31  14  32  13  33  13  34  13  35  13
M  ISO  8  36  13  37  13  38  13  39  13  40   8  41   8  42  14  43  14
M  ISO  3  44  14  45  14  46  14
M  END
>  <minimizedAffinity>  (1) 
-5.29638958

>  <minimizedRMSD>  (1) 
7.78028393

$$$$
