
     RDKit          3D

 35 38  0  0  0  0  0  0  0  0999 V2000
   47.2320   33.3430   43.9480 C   0  0  0  0  0  0  0  0  0  0  0  0
   47.3810   34.6790   41.8890 C   0  0  0  0  0  0  0  0  0  0  0  0
   48.3460   35.3700   41.1590 C   0  0  0  0  0  0  0  0  0  0  0  0
   49.5030   35.1920   41.8710 N   0  0  0  0  0  0  0  0  0  0  0  0
   49.2040   34.4520   42.9300 C   0  0  0  0  0  0  0  0  0  0  0  0
   47.9150   34.1260   42.9630 N   0  0  0  0  0  0  0  0  0  0  0  0
   43.7140   35.3420   41.7000 C   0  0  0  0  0  0  0  0  0  0  0  0
   45.0480   35.4130   42.0990 C   0  0  0  0  0  0  0  0  0  0  0  0
   45.9800   34.6090   41.4750 C   0  0  0  0  0  0  0  0  0  0  0  0
   45.5370   33.7830   40.4940 N   0  0  0  0  0  0  0  0  0  0  0  0
   44.2550   33.7180   40.1120 C   0  0  0  0  0  0  0  0  0  0  0  0
   43.3350   34.5010   40.7170 N   0  0  0  0  0  0  0  0  0  0  0  0
   47.7110   31.9570   44.1160 C   0  0  0  0  0  0  0  0  0  0  0  0
   48.4640   31.2260   43.1910 C   0  0  0  0  0  0  0  0  0  0  0  0
   48.7290   30.0100   43.6550 N   0  0  0  0  0  0  0  0  0  0  0  0
   48.1600   29.9150   44.8830 C   0  0  0  0  0  0  0  0  0  0  0  0
   47.5530   31.1020   45.1390 N   0  0  0  0  0  0  0  0  0  0  0  0
   46.8360   31.4450   46.3090 C   0  0  0  0  0  0  0  0  0  0  0  0
   47.5460   31.7660   47.4660 C   0  0  0  0  0  0  0  0  0  0  0  0
   46.6120   32.0560   48.4400 C   0  0  0  0  0  0  0  0  0  0  0  0
   45.3900   31.9020   47.8520 C   0  0  0  0  0  0  0  0  0  0  0  0
   45.5450   31.5340   46.5710 O   0  0  0  0  0  0  0  0  0  0  0  0
   44.1770   32.1040   48.5110 O   0  0  0  0  0  0  0  0  0  0  0  0
   46.1693   33.3005   43.6671 H   0  0  0  0  0  0  0  0  0  0  0  0
   47.4227   33.8422   44.9095 H   0  0  0  0  0  0  0  0  0  0  0  0
   48.2097   35.9314   40.2229 H   0  0  0  0  0  0  0  0  0  0  0  0
   49.9358   34.1441   43.6914 H   0  0  0  0  0  0  0  0  0  0  0  0
   42.9636   35.9783   42.1920 H   0  0  0  0  0  0  0  0  0  0  0  0
   45.3537   36.1011   42.9009 H   0  0  0  0  0  0  0  0  0  0  0  0
   43.9523   33.0299   39.3089 H   0  0  0  0  0  0  0  0  0  0  0  0
   48.7920   31.6065   42.2124 H   0  0  0  0  0  0  0  0  0  0  0  0
   48.1857   29.0389   45.5477 H   0  0  0  0  0  0  0  0  0  0  0  0
   48.6399   31.7845   47.5802 H   0  0  0  0  0  0  0  0  0  0  0  0
   46.8122   32.3516   49.4804 H   0  0  0  0  0  0  0  0  0  0  0  0
   43.3232   31.9754   48.0267 H   0  0  0  0  0  0  0  0  0  0  0  0
  1 13  1  0
  2  6  1  0
  3  4  1  0
  3  2  2  0
  4  5  2  0
  5  6  1  0
  6  1  1  0
  7  8  2  0
  9  2  1  0
  9  8  1  0
 10  9  2  0
 11 10  1  0
 11 12  2  0
 12  7  1  0
 13 17  1  0
 14 15  1  0
 14 13  2  0
 15 16  2  0
 16 17  1  0
 17 18  1  0
 18 22  1  0
 18 19  2  0
 19 20  1  0
 21 20  2  0
 21 23  1  0
 22 21  1  0
  1 24  1  0
  1 25  1  0
  3 26  1  0
  5 27  1  0
  7 28  1  0
  8 29  1  0
 11 30  1  0
 14 31  1  0
 16 32  1  0
 19 33  1  0
 20 34  1  0
 23 35  1  0
M  ISO  8  24   8  25   8  26  14  27  14  28  14  29  14  30  14  31  14
M  ISO  4  32  14  33  14  34  14  35   3
M  END
>  <minimizedAffinity>  (1) 
-5.25874329

>  <minimizedRMSD>  (1) 
0.404746056

$$$$
