
     RDKit          3D

 37 40  0  0  0  0  0  0  0  0999 V2000
   47.3930   33.1650   44.1130 C   0  0  0  0  0  0  0  0  0  0  0  0
   47.4920   34.7200   42.2010 C   0  0  0  0  0  0  0  0  0  0  0  0
   48.4500   35.4070   41.4490 C   0  0  0  0  0  0  0  0  0  0  0  0
   49.6440   35.0440   42.0200 N   0  0  0  0  0  0  0  0  0  0  0  0
   49.3710   34.2110   43.0220 C   0  0  0  0  0  0  0  0  0  0  0  0
   48.0650   33.9970   43.1530 N   0  0  0  0  0  0  0  0  0  0  0  0
   43.8950   35.6730   42.4890 C   0  0  0  0  0  0  0  0  0  0  0  0
   45.2680   35.5790   42.7580 C   0  0  0  0  0  0  0  0  0  0  0  0
   46.0580   34.8240   41.9270 C   0  0  0  0  0  0  0  0  0  0  0  0
   45.4560   34.2030   40.8780 N   0  0  0  0  0  0  0  0  0  0  0  0
   44.1440   34.2970   40.6280 C   0  0  0  0  0  0  0  0  0  0  0  0
   43.3610   35.0330   41.4340 N   0  0  0  0  0  0  0  0  0  0  0  0
   47.3200   31.7390   43.7800 C   0  0  0  0  0  0  0  0  0  0  0  0
   47.4570   31.1740   42.5050 C   0  0  0  0  0  0  0  0  0  0  0  0
   47.3360   29.8520   42.5530 N   0  0  0  0  0  0  0  0  0  0  0  0
   47.1210   29.5220   43.8460 C   0  0  0  0  0  0  0  0  0  0  0  0
   47.1140   30.6670   44.5680 N   0  0  0  0  0  0  0  0  0  0  0  0
   46.9240   30.7940   45.9660 C   0  0  0  0  0  0  0  0  0  0  0  0
   47.9460   30.3590   46.8190 C   0  0  0  0  0  0  0  0  0  0  0  0
   47.4990   30.5990   48.1120 C   0  0  0  0  0  0  0  0  0  0  0  0
   46.2660   31.1490   47.9850 C   0  0  0  0  0  0  0  0  0  0  0  0
   45.9290   31.2630   46.7050 O   0  0  0  0  0  0  0  0  0  0  0  0
   45.3540   31.5920   49.0720 C   0  0  0  0  0  0  0  0  0  0  0  0
   47.9225   33.2610   45.0724 H   0  0  0  0  0  0  0  0  0  0  0  0
   46.3521   33.5197   44.1396 H   0  0  0  0  0  0  0  0  0  0  0  0
   48.2848   36.0824   40.5966 H   0  0  0  0  0  0  0  0  0  0  0  0
   50.1362   33.7533   43.6662 H   0  0  0  0  0  0  0  0  0  0  0  0
   43.2500   36.2749   43.1460 H   0  0  0  0  0  0  0  0  0  0  0  0
   45.7052   36.1020   43.6213 H   0  0  0  0  0  0  0  0  0  0  0  0
   43.7083   33.7728   39.7646 H   0  0  0  0  0  0  0  0  0  0  0  0
   47.6405   31.7493   41.5856 H   0  0  0  0  0  0  0  0  0  0  0  0
   46.9775   28.5054   44.2407 H   0  0  0  0  0  0  0  0  0  0  0  0
   48.9089   29.9164   46.5243 H   0  0  0  0  0  0  0  0  0  0  0  0
   48.0358   30.3863   49.0483 H   0  0  0  0  0  0  0  0  0  0  0  0
   45.8112   31.3699   50.0475 H   0  0  0  0  0  0  0  0  0  0  0  0
   45.1804   32.6748   48.9864 H   0  0  0  0  0  0  0  0  0  0  0  0
   44.3955   31.0591   48.9864 H   0  0  0  0  0  0  0  0  0  0  0  0
  2  6  1  0
  3  4  1  0
  3  2  2  0
  4  5  2  0
  5  6  1  0
  6  1  1  0
  7  8  2  0
  9  2  1  0
  9  8  1  0
 10  9  2  0
 11 10  1  0
 11 12  2  0
 12  7  1  0
 13  1  1  0
 13 17  1  0
 14 15  1  0
 14 13  2  0
 15 16  2  0
 16 17  1  0
 17 18  1  0
 18 22  1  0
 18 19  2  0
 19 20  1  0
 21 20  2  0
 21 23  1  0
 22 21  1  0
  1 24  1  0
  1 25  1  0
  3 26  1  0
  5 27  1  0
  7 28  1  0
  8 29  1  0
 11 30  1  0
 14 31  1  0
 16 32  1  0
 19 33  1  0
 20 34  1  0
 23 35  1  0
 23 36  1  0
 23 37  1  0
M  ISO  8  24   8  25   8  26  14  27  14  28  14  29  14  30  14  31  14
M  ISO  6  32  14  33  14  34  14  35   8  36   8  37   8
M  END
>  <minimizedAffinity>  (1) 
-4.87369537

>  <minimizedRMSD>  (1) 
1.01570916

$$$$
