
     RDKit          3D

 43 47  0  0  0  0  0  0  0  0999 V2000
   45.5640   34.1360   41.5190 C   0  0  0  0  0  0  0  0  0  0  0  0
   44.7770   33.9080   40.3790 C   0  0  0  0  0  0  0  0  0  0  0  0
   43.7040   33.1920   40.6800 N   0  0  0  0  0  0  0  0  0  0  0  0
   43.7490   32.9300   42.0060 C   0  0  0  0  0  0  0  0  0  0  0  0
   44.8810   33.5100   42.4900 N   0  0  0  0  0  0  0  0  0  0  0  0
   45.3280   33.4870   43.8340 C   0  0  0  0  0  0  0  0  0  0  0  0
   44.9020   34.4980   44.7000 C   0  0  0  0  0  0  0  0  0  0  0  0
   45.4770   34.2350   45.9280 C   0  0  0  0  0  0  0  0  0  0  0  0
   46.2120   33.0990   45.7550 C   0  0  0  0  0  0  0  0  0  0  0  0
   46.1080   32.6730   44.5110 O   0  0  0  0  0  0  0  0  0  0  0  0
   47.0330   32.3880   46.7770 C   0  0  0  0  0  0  0  0  0  0  0  0
   46.2100   31.7210   47.7680 N   0  0  0  0  0  0  0  0  0  0  0  0
   45.6590   30.4840   47.5990 C   0  0  0  0  0  0  0  0  0  0  0  0
   44.9660   30.2080   48.7370 N   0  0  0  0  0  0  0  0  0  0  0  0
   45.0890   31.2610   49.5920 C   0  0  0  0  0  0  0  0  0  0  0  0
   45.8570   32.1590   48.9560 N   0  0  0  0  0  0  0  0  0  0  0  0
   46.8200   34.8820   41.5810 C   0  0  0  0  0  0  0  0  0  0  0  0
   48.6210   33.4180   40.7370 C   0  0  0  0  0  0  0  0  0  0  0  0
   49.7570   32.7640   41.2300 C   0  0  0  0  0  0  0  0  0  0  0  0
   49.7840   33.0970   42.5690 N   0  0  0  0  0  0  0  0  0  0  0  0
   48.7370   33.8810   42.8040 C   0  0  0  0  0  0  0  0  0  0  0  0
   48.0120   34.0900   41.7010 N   0  0  0  0  0  0  0  0  0  0  0  0
   48.0570   34.3170   37.1650 C   0  0  0  0  0  0  0  0  0  0  0  0
   48.4500   34.4000   38.5040 C   0  0  0  0  0  0  0  0  0  0  0  0
   48.2110   33.3310   39.3380 C   0  0  0  0  0  0  0  0  0  0  0  0
   47.6020   32.2460   38.8130 N   0  0  0  0  0  0  0  0  0  0  0  0
   47.2270   32.1690   37.5290 C   0  0  0  0  0  0  0  0  0  0  0  0
   47.4570   33.2110   36.7030 N   0  0  0  0  0  0  0  0  0  0  0  0
   45.0191   34.2749   39.3706 H   0  0  0  0  0  0  0  0  0  0  0  0
   43.0099   32.3562   42.5844 H   0  0  0  0  0  0  0  0  0  0  0  0
   44.2381   35.3393   44.4519 H   0  0  0  0  0  0  0  0  0  0  0  0
   45.3654   34.8199   46.8529 H   0  0  0  0  0  0  0  0  0  0  0  0
   47.6577   31.6373   46.2709 H   0  0  0  0  0  0  0  0  0  0  0  0
   47.6507   33.1356   47.2962 H   0  0  0  0  0  0  0  0  0  0  0  0
   45.7561   29.8364   46.7152 H   0  0  0  0  0  0  0  0  0  0  0  0
   44.6497   31.3557   50.5960 H   0  0  0  0  0  0  0  0  0  0  0  0
   46.9032   35.4799   40.6614 H   0  0  0  0  0  0  0  0  0  0  0  0
   46.7660   35.4820   42.5014 H   0  0  0  0  0  0  0  0  0  0  0  0
   50.4655   32.1301   40.6767 H   0  0  0  0  0  0  0  0  0  0  0  0
   48.4959   34.3071   43.7890 H   0  0  0  0  0  0  0  0  0  0  0  0
   48.2411   35.1635   36.4871 H   0  0  0  0  0  0  0  0  0  0  0  0
   48.9430   35.3062   38.8857 H   0  0  0  0  0  0  0  0  0  0  0  0
   46.7343   31.2613   37.1503 H   0  0  0  0  0  0  0  0  0  0  0  0
  1 17  1  0
  1  5  1  0
  2  3  1  0
  2  1  2  0
  3  4  2  0
  4  5  1  0
  5  6  1  0
  6 10  1  0
  6  7  2  0
  7  8  1  0
  9  8  2  0
  9 11  1  0
 10  9  1  0
 11 12  1  0
 12 16  1  0
 13 12  1  0
 13 14  2  0
 14 15  1  0
 16 15  2  0
 17 22  1  0
 18 19  2  0
 18 22  1  0
 19 20  1  0
 20 21  2  0
 22 21  1  0
 23 24  2  0
 24 25  1  0
 25 18  1  0
 26 25  2  0
 27 26  1  0
 28 23  1  0
 28 27  2  0
  2 29  1  0
  4 30  1  0
  7 31  1  0
  8 32  1  0
 11 33  1  0
 11 34  1  0
 13 35  1  0
 15 36  1  0
 17 37  1  0
 17 38  1  0
 19 39  1  0
 21 40  1  0
 23 41  1  0
 24 42  1  0
 27 43  1  0
M  ISO  8  29  14  30  14  31  14  32  14  33   8  34   8  35  14  36  14
M  ISO  7  37   8  38   8  39  14  40  14  41  14  42  14  43  14
M  END
>  <minimizedAffinity>  (1) 
-5.51286411

>  <minimizedRMSD>  (1) 
4.05462408

$$$$
