
     RDKit          3D

 47 51  0  0  0  0  0  0  0  0999 V2000
   47.3940   31.6960   43.5370 C   0  0  0  0  0  0  0  0  0  0  0  0
   47.5080   31.2530   42.2100 C   0  0  0  0  0  0  0  0  0  0  0  0
   47.3850   29.9340   42.1370 N   0  0  0  0  0  0  0  0  0  0  0  0
   47.1910   29.4880   43.3970 C   0  0  0  0  0  0  0  0  0  0  0  0
   47.2000   30.5540   44.2170 N   0  0  0  0  0  0  0  0  0  0  0  0
   47.0330   30.5540   45.6260 C   0  0  0  0  0  0  0  0  0  0  0  0
   45.7890   30.2140   46.1480 C   0  0  0  0  0  0  0  0  0  0  0  0
   45.8940   30.2910   47.5220 C   0  0  0  0  0  0  0  0  0  0  0  0
   47.1780   30.6710   47.7770 C   0  0  0  0  0  0  0  0  0  0  0  0
   47.8470   30.8250   46.6430 O   0  0  0  0  0  0  0  0  0  0  0  0
   47.8230   30.9020   49.0990 C   0  0  0  0  0  0  0  0  0  0  0  0
   49.1710   30.4190   49.1410 N   0  0  0  0  0  0  0  0  0  0  0  0
   49.2800   29.0910   48.8950 C   0  0  0  0  0  0  0  0  0  0  0  0
   50.5160   28.4510   48.8940 C   0  0  0  0  0  0  0  0  0  0  0  0
   51.6140   29.2380   49.1580 C   0  0  0  0  0  0  0  0  0  0  0  0
   52.7450   28.6730   49.1630 O   0  0  0  0  0  0  0  0  0  0  0  0
   51.5060   30.5750   49.4070 N   0  0  0  0  0  0  0  0  0  0  0  0
   50.2840   31.1530   49.3960 C   0  0  0  0  0  0  0  0  0  0  0  0
   50.1000   32.3790   49.6150 O   0  0  0  0  0  0  0  0  0  0  0  0
   47.4790   33.0930   43.9950 C   0  0  0  0  0  0  0  0  0  0  0  0
   47.5410   34.7910   42.2040 C   0  0  0  0  0  0  0  0  0  0  0  0
   48.4800   35.5510   41.5050 C   0  0  0  0  0  0  0  0  0  0  0  0
   49.6820   35.1680   42.0470 N   0  0  0  0  0  0  0  0  0  0  0  0
   49.4270   34.2560   42.9830 C   0  0  0  0  0  0  0  0  0  0  0  0
   48.1320   34.0090   43.0990 N   0  0  0  0  0  0  0  0  0  0  0  0
   43.9300   35.6970   42.5160 C   0  0  0  0  0  0  0  0  0  0  0  0
   45.3060   35.6160   42.7740 C   0  0  0  0  0  0  0  0  0  0  0  0
   46.1010   34.8830   41.9440 C   0  0  0  0  0  0  0  0  0  0  0  0
   45.5010   34.2590   40.8880 N   0  0  0  0  0  0  0  0  0  0  0  0
   44.1790   34.3410   40.6460 C   0  0  0  0  0  0  0  0  0  0  0  0
   43.3940   35.0630   41.4640 N   0  0  0  0  0  0  0  0  0  0  0  0
   47.6769   31.9119   41.3455 H   0  0  0  0  0  0  0  0  0  0  0  0
   47.0506   28.4396   43.6988 H   0  0  0  0  0  0  0  0  0  0  0  0
   44.8922   29.9365   45.5746 H   0  0  0  0  0  0  0  0  0  0  0  0
   45.1039   30.0875   48.2597 H   0  0  0  0  0  0  0  0  0  0  0  0
   47.8283   31.9824   49.3054 H   0  0  0  0  0  0  0  0  0  0  0  0
   47.2453   30.3499   49.8550 H   0  0  0  0  0  0  0  0  0  0  0  0
   48.3712   28.5055   48.6915 H   0  0  0  0  0  0  0  0  0  0  0  0
   50.6103   27.3737   48.6929 H   0  0  0  0  0  0  0  0  0  0  0  0
   52.3464   31.1379   49.6013 H   0  0  0  0  0  0  0  0  0  0  0  0
   46.4540   33.4564   44.1605 H   0  0  0  0  0  0  0  0  0  0  0  0
   48.0995   33.0714   44.9030 H   0  0  0  0  0  0  0  0  0  0  0  0
   48.2993   36.2854   40.7063 H   0  0  0  0  0  0  0  0  0  0  0  0
   50.2025   33.7650   43.5893 H   0  0  0  0  0  0  0  0  0  0  0  0
   43.2844   36.2866   43.1835 H   0  0  0  0  0  0  0  0  0  0  0  0
   45.7401   36.1394   43.6386 H   0  0  0  0  0  0  0  0  0  0  0  0
   43.7428   33.8188   39.7817 H   0  0  0  0  0  0  0  0  0  0  0  0
  1 20  1  0
  1  5  1  0
  2  1  2  0
  3  2  1  0
  3  4  2  0
  4  5  1  0
  5  6  1  0
  6  7  2  0
  6 10  1  0
  7  8  1  0
  8  9  2  0
  9 11  1  0
 10  9  1  0
 11 12  1  0
 12 18  1  0
 13 12  1  0
 14 13  2  0
 14 15  1  0
 15 16  2  0
 15 17  1  0
 18 17  1  0
 18 19  2  0
 21 25  1  0
 22 23  1  0
 22 21  2  0
 23 24  2  0
 24 25  1  0
 25 20  1  0
 26 27  2  0
 28 21  1  0
 28 27  1  0
 29 28  2  0
 30 29  1  0
 30 31  2  0
 31 26  1  0
  2 32  1  0
  4 33  1  0
  7 34  1  0
  8 35  1  0
 11 36  1  0
 11 37  1  0
 13 38  1  0
 14 39  1  0
 17 40  1  0
 20 41  1  0
 20 42  1  0
 22 43  1  0
 24 44  1  0
 26 45  1  0
 27 46  1  0
 30 47  1  0
M  ISO  8  32  14  33  14  34  14  35  14  36   8  37   8  38  14  39  14
M  ISO  8  40   9  41   8  42   8  43  14  44  14  45  14  46  14  47  14
M  END
>  <minimizedAffinity>  (1) 
-5.31153154

>  <minimizedRMSD>  (1) 
3.92659926

$$$$
