
     RDKit          3D

 49 53  0  0  0  0  0  0  0  0999 V2000
   48.1380   31.3120   42.5350 C   0  0  0  0  0  0  0  0  0  0  0  0
   48.1060   31.1860   41.1460 C   0  0  0  0  0  0  0  0  0  0  0  0
   48.3810   29.9360   40.7780 N   0  0  0  0  0  0  0  0  0  0  0  0
   48.5950   29.2330   41.9020 C   0  0  0  0  0  0  0  0  0  0  0  0
   48.4450   30.0760   42.9590 N   0  0  0  0  0  0  0  0  0  0  0  0
   48.5790   29.7580   44.3240 C   0  0  0  0  0  0  0  0  0  0  0  0
   49.7910   29.2430   44.7750 C   0  0  0  0  0  0  0  0  0  0  0  0
   49.6310   29.0280   46.1440 C   0  0  0  0  0  0  0  0  0  0  0  0
   48.3610   29.4120   46.4450 C   0  0  0  0  0  0  0  0  0  0  0  0
   47.7470   29.8440   45.3600 O   0  0  0  0  0  0  0  0  0  0  0  0
   47.7230   29.3720   47.7740 C   0  0  0  0  0  0  0  0  0  0  0  0
   46.7490   30.4350   47.9050 N   0  0  0  0  0  0  0  0  0  0  0  0
   47.1980   31.4810   48.7990 C   0  0  0  0  0  0  0  0  0  0  0  0
   45.8960   32.2720   48.9740 C   0  0  0  0  0  0  0  0  0  0  0  0
   44.8020   31.2360   48.8380 C   0  0  0  0  0  0  0  0  0  0  0  0
   45.4840   29.9720   48.3800 C   0  0  0  0  0  0  0  0  0  0  0  0
   47.8860   32.5350   43.2980 C   0  0  0  0  0  0  0  0  0  0  0  0
   47.8010   34.7480   42.1950 C   0  0  0  0  0  0  0  0  0  0  0  0
   48.6820   35.7480   41.7900 C   0  0  0  0  0  0  0  0  0  0  0  0
   49.9240   35.2730   42.1520 N   0  0  0  0  0  0  0  0  0  0  0  0
   49.7450   34.0810   42.7220 C   0  0  0  0  0  0  0  0  0  0  0  0
   48.4620   33.7390   42.7610 N   0  0  0  0  0  0  0  0  0  0  0  0
   44.2110   35.5890   42.7440 C   0  0  0  0  0  0  0  0  0  0  0  0
   45.5910   35.4990   42.9320 C   0  0  0  0  0  0  0  0  0  0  0  0
   46.3540   34.8450   42.0010 C   0  0  0  0  0  0  0  0  0  0  0  0
   45.7090   34.3140   40.9310 N   0  0  0  0  0  0  0  0  0  0  0  0
   44.3880   34.4040   40.7560 C   0  0  0  0  0  0  0  0  0  0  0  0
   43.6300   35.0440   41.6640 N   0  0  0  0  0  0  0  0  0  0  0  0
   47.8838   32.0077   40.4493 H   0  0  0  0  0  0  0  0  0  0  0  0
   48.8472   28.1638   41.9581 H   0  0  0  0  0  0  0  0  0  0  0  0
   50.6912   29.0458   44.1744 H   0  0  0  0  0  0  0  0  0  0  0  0
   50.3819   28.6278   46.8411 H   0  0  0  0  0  0  0  0  0  0  0  0
   47.2196   28.4026   47.9041 H   0  0  0  0  0  0  0  0  0  0  0  0
   48.4981   29.5051   48.5431 H   0  0  0  0  0  0  0  0  0  0  0  0
   47.5573   31.0724   49.7550 H   0  0  0  0  0  0  0  0  0  0  0  0
   48.0479   32.0713   48.4258 H   0  0  0  0  0  0  0  0  0  0  0  0
   45.8602   32.7474   49.9653 H   0  0  0  0  0  0  0  0  0  0  0  0
   45.7974   33.0834   48.2379 H   0  0  0  0  0  0  0  0  0  0  0  0
   44.3062   31.0738   49.8064 H   0  0  0  0  0  0  0  0  0  0  0  0
   44.0277   31.5577   48.1260 H   0  0  0  0  0  0  0  0  0  0  0  0
   44.9141   29.4865   47.5741 H   0  0  0  0  0  0  0  0  0  0  0  0
   45.5727   29.2180   49.1760 H   0  0  0  0  0  0  0  0  0  0  0  0
   46.7969   32.6785   43.3552 H   0  0  0  0  0  0  0  0  0  0  0  0
   48.3696   32.3826   44.2741 H   0  0  0  0  0  0  0  0  0  0  0  0
   48.4412   36.7000   41.2942 H   0  0  0  0  0  0  0  0  0  0  0  0
   50.5615   33.4560   43.1129 H   0  0  0  0  0  0  0  0  0  0  0  0
   43.5932   36.1121   43.4888 H   0  0  0  0  0  0  0  0  0  0  0  0
   46.0613   35.9487   43.8189 H   0  0  0  0  0  0  0  0  0  0  0  0
   43.9195   33.9542   39.8682 H   0  0  0  0  0  0  0  0  0  0  0  0
  1  5  1  0
  1 17  1  0
  2  1  2  0
  3  2  1  0
  3  4  2  0
  4  5  1  0
  5  6  1  0
  6  7  2  0
  6 10  1  0
  7  8  1  0
  8  9  2  0
  9 11  1  0
 10  9  1  0
 11 12  1  0
 12 16  1  0
 12 13  1  0
 13 14  1  0
 15 14  1  0
 16 15  1  0
 18 22  1  0
 19 20  1  0
 19 18  2  0
 20 21  2  0
 21 22  1  0
 22 17  1  0
 23 24  2  0
 25 18  1  0
 25 24  1  0
 26 25  2  0
 27 26  1  0
 27 28  2  0
 28 23  1  0
  2 29  1  0
  4 30  1  0
  7 31  1  0
  8 32  1  0
 11 33  1  0
 11 34  1  0
 13 35  1  0
 13 36  1  0
 14 37  1  0
 14 38  1  0
 15 39  1  0
 15 40  1  0
 16 41  1  0
 16 42  1  0
 17 43  1  0
 17 44  1  0
 19 45  1  0
 21 46  1  0
 23 47  1  0
 24 48  1  0
 27 49  1  0
M  ISO  8  29  14  30  14  31  14  32  14  33   8  34   8  35  13  36  13
M  ISO  8  37  13  38  13  39  13  40  13  41  13  42  13  43   8  44   8
M  ISO  5  45  14  46  14  47  14  48  14  49  14
M  END
>  <minimizedAffinity>  (1) 
-5.24699306

>  <minimizedRMSD>  (1) 
2.23847389

$$$$
