
     RDKit          3D

 45 49  0  0  0  0  0  0  0  0999 V2000
   46.8690   31.0940   42.3340 C   0  0  0  0  0  0  0  0  0  0  0  0
   47.4570   31.0220   41.0600 C   0  0  0  0  0  0  0  0  0  0  0  0
   47.2500   29.8350   40.4970 N   0  0  0  0  0  0  0  0  0  0  0  0
   46.5250   29.1040   41.3830 C   0  0  0  0  0  0  0  0  0  0  0  0
   46.3100   29.8800   42.4750 N   0  0  0  0  0  0  0  0  0  0  0  0
   45.5970   29.5190   43.6480 C   0  0  0  0  0  0  0  0  0  0  0  0
   44.2560   29.1710   43.5270 C   0  0  0  0  0  0  0  0  0  0  0  0
   43.8230   28.8710   44.8100 C   0  0  0  0  0  0  0  0  0  0  0  0
   44.8920   29.0470   45.6210 C   0  0  0  0  0  0  0  0  0  0  0  0
   45.9440   29.4330   44.9160 O   0  0  0  0  0  0  0  0  0  0  0  0
   44.9720   28.8590   47.1010 C   0  0  0  0  0  0  0  0  0  0  0  0
   45.7620   29.9550   47.7300 C   0  0  0  0  0  0  0  0  0  0  0  0
   45.0330   31.0780   48.0090 C   0  0  0  0  0  0  0  0  0  0  0  0
   45.7080   32.1480   48.6010 C   0  0  0  0  0  0  0  0  0  0  0  0
   47.0130   32.0610   48.8760 N   0  0  0  0  0  0  0  0  0  0  0  0
   47.7180   30.9340   48.5890 C   0  0  0  0  0  0  0  0  0  0  0  0
   47.0740   29.8980   48.0190 N   0  0  0  0  0  0  0  0  0  0  0  0
   46.8960   32.2460   43.2400 C   0  0  0  0  0  0  0  0  0  0  0  0
   47.1160   34.4150   42.0760 C   0  0  0  0  0  0  0  0  0  0  0  0
   48.1130   35.3580   41.7840 C   0  0  0  0  0  0  0  0  0  0  0  0
   49.2420   34.8300   42.3500 N   0  0  0  0  0  0  0  0  0  0  0  0
   48.9140   33.6720   42.9220 C   0  0  0  0  0  0  0  0  0  0  0  0
   47.6130   33.4000   42.7630 N   0  0  0  0  0  0  0  0  0  0  0  0
   43.5550   35.5260   41.9820 C   0  0  0  0  0  0  0  0  0  0  0  0
   44.8910   35.3690   42.3930 C   0  0  0  0  0  0  0  0  0  0  0  0
   45.7330   34.5790   41.6530 C   0  0  0  0  0  0  0  0  0  0  0  0
   45.2180   33.9830   40.5440 N   0  0  0  0  0  0  0  0  0  0  0  0
   43.9400   34.1320   40.1480 C   0  0  0  0  0  0  0  0  0  0  0  0
   43.1090   34.9050   40.8700 N   0  0  0  0  0  0  0  0  0  0  0  0
   48.0172   31.8428   40.5883 H   0  0  0  0  0  0  0  0  0  0  0  0
   46.1757   28.0707   41.2410 H   0  0  0  0  0  0  0  0  0  0  0  0
   43.6605   29.1400   42.6027 H   0  0  0  0  0  0  0  0  0  0  0  0
   42.8130   28.5536   45.1086 H   0  0  0  0  0  0  0  0  0  0  0  0
   43.9551   28.8604   47.5205 H   0  0  0  0  0  0  0  0  0  0  0  0
   45.4698   27.9004   47.3090 H   0  0  0  0  0  0  0  0  0  0  0  0
   43.9594   31.1362   47.7768 H   0  0  0  0  0  0  0  0  0  0  0  0
   45.1604   33.0708   48.8431 H   0  0  0  0  0  0  0  0  0  0  0  0
   48.7920   30.8701   48.8178 H   0  0  0  0  0  0  0  0  0  0  0  0
   45.8562   32.5497   43.4313 H   0  0  0  0  0  0  0  0  0  0  0  0
   47.4351   31.9085   44.1375 H   0  0  0  0  0  0  0  0  0  0  0  0
   48.0111   36.3023   41.2291 H   0  0  0  0  0  0  0  0  0  0  0  0
   49.6223   33.0222   43.4568 H   0  0  0  0  0  0  0  0  0  0  0  0
   42.8715   36.1571   42.5690 H   0  0  0  0  0  0  0  0  0  0  0  0
   45.2567   35.8748   43.2988 H   0  0  0  0  0  0  0  0  0  0  0  0
   43.5781   33.6256   39.2411 H   0  0  0  0  0  0  0  0  0  0  0  0
  1  5  1  0
  1 18  1  0
  2  1  2  0
  3  2  1  0
  3  4  2  0
  4  5  1  0
  5  6  1  0
  6 10  1  0
  7  6  2  0
  7  8  1  0
  8  9  2  0
  9 11  1  0
 10  9  1  0
 11 12  1  0
 12 13  2  0
 12 17  1  0
 13 14  1  0
 14 15  2  0
 16 15  1  0
 17 16  2  0
 19 23  1  0
 20 19  2  0
 20 21  1  0
 21 22  2  0
 23 22  1  0
 23 18  1  0
 24 25  2  0
 26 19  1  0
 26 25  1  0
 27 26  2  0
 28 27  1  0
 28 29  2  0
 29 24  1  0
  2 30  1  0
  4 31  1  0
  7 32  1  0
  8 33  1  0
 11 34  1  0
 11 35  1  0
 13 36  1  0
 14 37  1  0
 16 38  1  0
 18 39  1  0
 18 40  1  0
 20 41  1  0
 22 42  1  0
 24 43  1  0
 25 44  1  0
 28 45  1  0
M  ISO  8  30  14  31  14  32  14  33  14  34   8  35   8  36  14  37  14
M  ISO  8  38  14  39   8  40   8  41  14  42  14  43  14  44  14  45  14
M  END
>  <minimizedAffinity>  (1) 
-4.71983385

>  <minimizedRMSD>  (1) 
2.66103005

$$$$
