
     RDKit          3D

 12 12  0  0  0  0  0  0  0  0999 V2000
   44.5540   35.5610   45.0990 C   0  0  0  0  0  0  0  0  0  0  0  0
   45.1020   35.7300   43.8090 C   0  0  0  0  0  0  0  0  0  0  0  0
   46.0630   34.8300   43.3510 C   0  0  0  0  0  0  0  0  0  0  0  0
   46.4260   33.8180   44.1890 N   0  0  0  0  0  0  0  0  0  0  0  0
   45.8900   33.6770   45.4140 C   0  0  0  0  0  0  0  0  0  0  0  0
   44.9660   34.5300   45.8730 N   0  0  0  0  0  0  0  0  0  0  0  0
   44.6510   36.8080   43.0380 N   0  0  0  0  0  0  0  0  0  0  0  0
   43.7955   36.2642   45.4734 H   0  0  0  0  0  0  0  0  0  0  0  0
   46.5112   34.9325   42.3517 H   0  0  0  0  0  0  0  0  0  0  0  0
   46.2176   32.8433   46.0524 H   0  0  0  0  0  0  0  0  0  0  0  0
   45.0306   36.9595   42.0926 H   0  0  0  0  0  0  0  0  0  0  0  0
   43.9396   37.4497   43.4162 H   0  0  0  0  0  0  0  0  0  0  0  0
  1  6  2  0
  2  1  1  0
  3  2  2  0
  3  4  1  0
  4  5  2  0
  5  6  1  0
  7  2  1  0
  1  8  1  0
  3  9  1  0
  5 10  1  0
  7 11  1  0
  7 12  1  0
M  ISO  3   8  14   9  14  10  14
M  END
>  <minimizedAffinity>  (1) 
-2.98969078

>  <minimizedRMSD>  (1) 
0.654098749

$$$$
