
     RDKit          3D

 25 27  0  0  0  0  0  0  0  0999 V2000
   44.5860   35.7810   44.8160 C   0  0  0  0  0  0  0  0  0  0  0  0
   45.1400   35.9660   43.5400 C   0  0  0  0  0  0  0  0  0  0  0  0
   46.0660   35.0670   43.0370 C   0  0  0  0  0  0  0  0  0  0  0  0
   46.3970   34.0100   43.8490 N   0  0  0  0  0  0  0  0  0  0  0  0
   45.8590   33.8480   45.0620 C   0  0  0  0  0  0  0  0  0  0  0  0
   44.9660   34.7050   45.5610 N   0  0  0  0  0  0  0  0  0  0  0  0
   46.3860   32.6730   45.6690 N   0  0  0  0  0  0  0  0  0  0  0  0
   47.1770   31.8090   44.9910 C   0  0  0  0  0  0  0  0  0  0  0  0
   47.5550   30.7650   45.7840 N   0  0  0  0  0  0  0  0  0  0  0  0
   46.9920   30.9740   46.9870 C   0  0  0  0  0  0  0  0  0  0  0  0
   46.9620   30.3240   48.2230 C   0  0  0  0  0  0  0  0  0  0  0  0
   46.2800   30.8030   49.2800 N   0  0  0  0  0  0  0  0  0  0  0  0
   45.6030   31.9550   49.1340 C   0  0  0  0  0  0  0  0  0  0  0  0
   45.5990   32.6310   47.9480 N   0  0  0  0  0  0  0  0  0  0  0  0
   46.2820   32.1530   46.8840 C   0  0  0  0  0  0  0  0  0  0  0  0
   44.7130   37.0950   42.8100 N   0  0  0  0  0  0  0  0  0  0  0  0
   47.7330   29.1070   48.2250 N   0  0  0  0  0  0  0  0  0  0  0  0
   43.8515   36.4981   45.2113 H   0  0  0  0  0  0  0  0  0  0  0  0
   46.5127   35.1930   42.0397 H   0  0  0  0  0  0  0  0  0  0  0  0
   47.4757   31.9322   43.9395 H   0  0  0  0  0  0  0  0  0  0  0  0
   45.0407   32.3614   49.9876 H   0  0  0  0  0  0  0  0  0  0  0  0
   45.0915   37.2730   41.8687 H   0  0  0  0  0  0  0  0  0  0  0  0
   44.0227   37.7414   43.2182 H   0  0  0  0  0  0  0  0  0  0  0  0
   47.7900   28.5349   49.0796 H   0  0  0  0  0  0  0  0  0  0  0  0
   48.2272   28.8090   47.3718 H   0  0  0  0  0  0  0  0  0  0  0  0
  1  6  2  0
  2  1  1  0
  3  2  2  0
  3  4  1  0
  4  5  2  0
  5  6  1  0
  5  7  1  0
  7 15  1  0
  8  7  1  0
  8  9  2  0
  9 10  1  0
 10 11  2  0
 11 17  1  0
 11 12  1  0
 13 12  2  0
 14 13  1  0
 15 10  1  0
 15 14  2  0
 16  2  1  0
  1 18  1  0
  3 19  1  0
  8 20  1  0
 13 21  1  0
 16 22  1  0
 16 23  1  0
 17 24  1  0
 17 25  1  0
M  ISO  4  18  14  19  14  20  14  21  14
M  END
>  <minimizedAffinity>  (1) 
-5.8614893

>  <minimizedRMSD>  (1) 
0.426545799

$$$$
