
     RDKit          3D

 28 30  0  0  0  0  0  0  0  0999 V2000
   44.5050   35.6010   45.1810 C   0  0  0  0  0  0  0  0  0  0  0  0
   45.0920   35.6320   43.9100 C   0  0  0  0  0  0  0  0  0  0  0  0
   45.9980   34.6570   43.5330 C   0  0  0  0  0  0  0  0  0  0  0  0
   46.2710   33.7030   44.4450 N   0  0  0  0  0  0  0  0  0  0  0  0
   45.7280   33.6580   45.6450 C   0  0  0  0  0  0  0  0  0  0  0  0
   44.8620   34.5950   45.9990 N   0  0  0  0  0  0  0  0  0  0  0  0
   45.9250   32.6900   46.7330 C   0  0  0  0  0  0  0  0  0  0  0  0
   45.3890   32.8360   48.0190 C   0  0  0  0  0  0  0  0  0  0  0  0
   45.5510   31.9640   49.0490 C   0  0  0  0  0  0  0  0  0  0  0  0
   46.2950   30.8310   48.8580 C   0  0  0  0  0  0  0  0  0  0  0  0
   46.8510   30.6150   47.6360 C   0  0  0  0  0  0  0  0  0  0  0  0
   47.5860   29.4640   47.5030 C   0  0  0  0  0  0  0  0  0  0  0  0
   48.1890   29.1610   46.2960 C   0  0  0  0  0  0  0  0  0  0  0  0
   48.0060   30.0710   45.2650 C   0  0  0  0  0  0  0  0  0  0  0  0
   47.2620   31.2030   45.4550 C   0  0  0  0  0  0  0  0  0  0  0  0
   46.6590   31.5270   46.6250 C   0  0  0  0  0  0  0  0  0  0  0  0
   44.7390   36.6630   43.0470 N   0  0  0  0  0  0  0  0  0  0  0  0
   43.7821   36.3675   45.4971 H   0  0  0  0  0  0  0  0  0  0  0  0
   46.4712   34.6602   42.5400 H   0  0  0  0  0  0  0  0  0  0  0  0
   44.7844   33.7345   48.2120 H   0  0  0  0  0  0  0  0  0  0  0  0
   45.0888   32.1668   50.0264 H   0  0  0  0  0  0  0  0  0  0  0  0
   46.4401   30.1102   49.6761 H   0  0  0  0  0  0  0  0  0  0  0  0
   47.6958   28.7809   48.3582 H   0  0  0  0  0  0  0  0  0  0  0  0
   48.7833   28.2454   46.1603 H   0  0  0  0  0  0  0  0  0  0  0  0
   48.4644   29.8800   44.2835 H   0  0  0  0  0  0  0  0  0  0  0  0
   47.1459   31.8929   44.6061 H   0  0  0  0  0  0  0  0  0  0  0  0
   45.1545   36.7118   42.1058 H   0  0  0  0  0  0  0  0  0  0  0  0
   44.0620   37.3782   43.3488 H   0  0  0  0  0  0  0  0  0  0  0  0
  1  6  2  0
  2  1  1  0
  3  2  2  0
  3  4  1  0
  4  5  2  0
  5  6  1  0
  5  7  1  0
  7  8  2  0
  8  9  1  0
 10  9  2  0
 11 10  1  0
 12 11  2  0
 13 12  1  0
 14 15  1  0
 14 13  2  0
 15 16  2  0
 16  7  1  0
 16 11  1  0
 17  2  1  0
  1 18  1  0
  3 19  1  0
  8 20  1  0
  9 21  1  0
 10 22  1  0
 12 23  1  0
 13 24  1  0
 14 25  1  0
 15 26  1  0
 17 27  1  0
 17 28  1  0
M  ISO  8  18  14  19  14  20  14  21  14  22  14  23  14  24  14  25  14
M  ISO  1  26  14
M  END
>  <minimizedAffinity>  (1) 
-5.67657995

>  <minimizedRMSD>  (1) 
0.809960783

$$$$
