
     RDKit          3D

 23 25  0  0  0  0  0  0  0  0999 V2000
   44.7870   35.2890   44.9030 C   0  0  0  0  0  0  0  0  0  0  0  0
   45.2520   35.7530   43.6490 C   0  0  0  0  0  0  0  0  0  0  0  0
   46.2310   35.0320   42.9750 C   0  0  0  0  0  0  0  0  0  0  0  0
   46.7020   33.8980   43.5590 N   0  0  0  0  0  0  0  0  0  0  0  0
   46.2500   33.4720   44.7480 C   0  0  0  0  0  0  0  0  0  0  0  0
   45.3140   34.1410   45.4150 N   0  0  0  0  0  0  0  0  0  0  0  0
   46.7050   32.2990   45.4010 N   0  0  0  0  0  0  0  0  0  0  0  0
   47.4230   31.2710   44.9100 C   0  0  0  0  0  0  0  0  0  0  0  0
   47.6140   30.3890   45.9100 N   0  0  0  0  0  0  0  0  0  0  0  0
   47.0220   30.8580   47.0180 C   0  0  0  0  0  0  0  0  0  0  0  0
   46.9480   30.3020   48.2960 C   0  0  0  0  0  0  0  0  0  0  0  0
   46.2690   31.0430   49.1900 N   0  0  0  0  0  0  0  0  0  0  0  0
   45.6960   32.2280   48.9090 C   0  0  0  0  0  0  0  0  0  0  0  0
   45.7660   32.7720   47.6610 N   0  0  0  0  0  0  0  0  0  0  0  0
   46.4330   32.0810   46.7200 C   0  0  0  0  0  0  0  0  0  0  0  0
   44.6920   36.9410   43.1390 N   0  0  0  0  0  0  0  0  0  0  0  0
   44.0143   35.8449   45.4543 H   0  0  0  0  0  0  0  0  0  0  0  0
   46.6127   35.3684   41.9997 H   0  0  0  0  0  0  0  0  0  0  0  0
   47.7881   31.1697   43.8773 H   0  0  0  0  0  0  0  0  0  0  0  0
   47.4078   29.3359   48.5515 H   0  0  0  0  0  0  0  0  0  0  0  0
   45.1600   32.7688   49.7029 H   0  0  0  0  0  0  0  0  0  0  0  0
   45.0055   37.3091   42.2296 H   0  0  0  0  0  0  0  0  0  0  0  0
   43.9691   37.4414   43.6756 H   0  0  0  0  0  0  0  0  0  0  0  0
  1  6  2  0
  2  1  1  0
  3  4  1  0
  3  2  2  0
  4  5  2  0
  5  7  1  0
  5  6  1  0
  7 15  1  0
  8  7  1  0
  8  9  2  0
  9 10  1  0
 10 11  2  0
 11 12  1  0
 13 12  2  0
 14 13  1  0
 15 10  1  0
 15 14  2  0
 16  2  1  0
  1 17  1  0
  3 18  1  0
  8 19  1  0
 11 20  1  0
 13 21  1  0
 16 22  1  0
 16 23  1  0
M  ISO  5  17  14  18  14  19  14  20  14  21  14
M  END
>  <minimizedAffinity>  (1) 
-5.26248884

>  <minimizedRMSD>  (1) 
1.15613365

$$$$
