
     RDKit          3D

 22 23  0  0  0  0  0  0  0  0999 V2000
   44.4720   35.5950   45.1290 C   0  0  0  0  0  0  0  0  0  0  0  0
   45.1000   35.4890   43.8590 C   0  0  0  0  0  0  0  0  0  0  0  0
   46.0290   34.4730   43.6360 C   0  0  0  0  0  0  0  0  0  0  0  0
   46.2820   33.6320   44.6670 N   0  0  0  0  0  0  0  0  0  0  0  0
   45.6900   33.7350   45.8600 C   0  0  0  0  0  0  0  0  0  0  0  0
   44.7870   34.7070   46.1020 N   0  0  0  0  0  0  0  0  0  0  0  0
   45.9790   32.8120   46.9590 C   0  0  0  0  0  0  0  0  0  0  0  0
   47.2040   32.1620   46.9810 C   0  0  0  0  0  0  0  0  0  0  0  0
   47.5040   31.2880   48.0040 C   0  0  0  0  0  0  0  0  0  0  0  0
   46.6150   31.0310   49.0260 C   0  0  0  0  0  0  0  0  0  0  0  0
   45.3810   31.6830   49.0080 C   0  0  0  0  0  0  0  0  0  0  0  0
   45.0850   32.5610   47.9760 C   0  0  0  0  0  0  0  0  0  0  0  0
   44.7450   36.4220   42.8890 N   0  0  0  0  0  0  0  0  0  0  0  0
   43.7369   36.3907   45.3202 H   0  0  0  0  0  0  0  0  0  0  0  0
   46.5341   34.3597   42.6654 H   0  0  0  0  0  0  0  0  0  0  0  0
   47.9370   32.3441   46.1813 H   0  0  0  0  0  0  0  0  0  0  0  0
   48.4803   30.7813   48.0049 H   0  0  0  0  0  0  0  0  0  0  0  0
   46.8715   30.3305   49.8344 H   0  0  0  0  0  0  0  0  0  0  0  0
   44.6476   31.5016   49.8075 H   0  0  0  0  0  0  0  0  0  0  0  0
   44.1101   33.0705   47.9697 H   0  0  0  0  0  0  0  0  0  0  0  0
   45.1757   36.3823   41.9542 H   0  0  0  0  0  0  0  0  0  0  0  0
   44.0516   37.1521   43.1060 H   0  0  0  0  0  0  0  0  0  0  0  0
  1  6  2  0
  2  1  1  0
  3  2  2  0
  3  4  1  0
  4  5  2  0
  5  6  1  0
  5  7  1  0
  7  8  2  0
  7 12  1  0
  8  9  1  0
  9 10  2  0
 11 10  1  0
 12 11  2  0
 13  2  1  0
  1 14  1  0
  3 15  1  0
  8 16  1  0
  9 17  1  0
 10 18  1  0
 11 19  1  0
 12 20  1  0
 13 21  1  0
 13 22  1  0
M  ISO  7  14  14  15  14  16  14  17  14  18  14  19  14  20  14
M  END
>  <minimizedAffinity>  (1) 
-5.02536726

>  <minimizedRMSD>  (1) 
0.890060961

$$$$
