
     RDKit          3D

 22 23  0  0  0  0  0  0  0  0999 V2000
   44.4570   35.6170   45.1120 C   0  0  0  0  0  0  0  0  0  0  0  0
   45.0790   35.4890   43.8620 C   0  0  0  0  0  0  0  0  0  0  0  0
   46.0020   34.4550   43.6800 C   0  0  0  0  0  0  0  0  0  0  0  0
   46.2500   33.6250   44.7230 N   0  0  0  0  0  0  0  0  0  0  0  0
   45.6300   33.7800   45.9120 C   0  0  0  0  0  0  0  0  0  0  0  0
   44.7390   34.7610   46.1220 N   0  0  0  0  0  0  0  0  0  0  0  0
   45.9640   32.8350   46.9730 C   0  0  0  0  0  0  0  0  0  0  0  0
   45.0660   32.5710   48.0000 C   0  0  0  0  0  0  0  0  0  0  0  0
   45.3800   31.6660   49.0190 C   0  0  0  0  0  0  0  0  0  0  0  0
   46.6220   31.0380   48.9750 C   0  0  0  0  0  0  0  0  0  0  0  0
   47.5260   31.2990   47.9500 C   0  0  0  0  0  0  0  0  0  0  0  0
   47.1880   32.1980   46.9540 C   0  0  0  0  0  0  0  0  0  0  0  0
   44.7460   36.4060   42.8530 N   0  0  0  0  0  0  0  0  0  0  0  0
   43.7288   36.4253   45.2744 H   0  0  0  0  0  0  0  0  0  0  0  0
   46.5137   34.3183   42.7159 H   0  0  0  0  0  0  0  0  0  0  0  0
   44.0921   33.0822   48.0117 H   0  0  0  0  0  0  0  0  0  0  0  0
   44.6675   31.4567   49.8305 H   0  0  0  0  0  0  0  0  0  0  0  0
   46.8935   30.3224   49.7651 H   0  0  0  0  0  0  0  0  0  0  0  0
   48.5030   30.7939   47.9316 H   0  0  0  0  0  0  0  0  0  0  0  0
   47.8997   32.4063   46.1416 H   0  0  0  0  0  0  0  0  0  0  0  0
   45.1884   36.3344   41.9256 H   0  0  0  0  0  0  0  0  0  0  0  0
   44.0593   37.1506   43.0399 H   0  0  0  0  0  0  0  0  0  0  0  0
  1  6  2  0
  2  1  1  0
  3  2  2  0
  3  4  1  0
  4  5  2  0
  5  6  1  0
  5  7  1  0
  7  8  2  0
  8  9  1  0
 10  9  2  0
 11 10  1  0
 12  7  1  0
 12 11  2  0
 13  2  1  0
  1 14  1  0
  3 15  1  0
  8 16  1  0
  9 17  1  0
 10 18  1  0
 11 19  1  0
 12 20  1  0
 13 21  1  0
 13 22  1  0
M  ISO  7  14  14  15  14  16  14  17  14  18  14  19  14  20  14
M  END
>  <minimizedAffinity>  (1) 
-4.99680471

>  <minimizedRMSD>  (1) 
0.891660154

$$$$
