
     RDKit          3D

 19 19  0  0  0  0  0  0  0  0999 V2000
   44.6090   35.6360   44.8010 C   0  0  0  0  0  0  0  0  0  0  0  0
   45.4510   35.0280   43.8550 C   0  0  0  0  0  0  0  0  0  0  0  0
   46.1400   33.8780   44.2060 C   0  0  0  0  0  0  0  0  0  0  0  0
   45.9740   33.3820   45.4570 N   0  0  0  0  0  0  0  0  0  0  0  0
   45.1550   33.9870   46.3510 C   0  0  0  0  0  0  0  0  0  0  0  0
   44.4870   35.0920   46.0290 N   0  0  0  0  0  0  0  0  0  0  0  0
   45.0100   33.4270   47.6630 N   0  0  0  0  0  0  0  0  0  0  0  0
   46.0890   32.7090   48.2550 C   0  0  0  0  0  0  0  0  0  0  0  0
   47.3050   32.9070   47.8520 N   0  0  0  0  0  0  0  0  0  0  0  0
   45.7400   31.7810   49.2940 N   0  0  0  0  0  0  0  0  0  0  0  0
   48.0740   32.3460   48.3270 H   0  0  0  0  0  0  0  0  0  0  0  0
   45.5590   35.6160   42.5890 N   0  0  0  0  0  0  0  0  0  0  0  0
   44.0532   36.5492   44.5420 H   0  0  0  0  0  0  0  0  0  0  0  0
   46.8060   33.3792   43.4865 H   0  0  0  0  0  0  0  0  0  0  0  0
   44.1255   33.5438   48.1777 H   0  0  0  0  0  0  0  0  0  0  0  0
   46.4748   31.2312   49.7616 H   0  0  0  0  0  0  0  0  0  0  0  0
   44.7549   31.6652   49.5715 H   0  0  0  0  0  0  0  0  0  0  0  0
   45.0281   36.4714   42.3715 H   0  0  0  0  0  0  0  0  0  0  0  0
   46.1694   35.1932   41.8752 H   0  0  0  0  0  0  0  0  0  0  0  0
  1  6  2  0
  2  3  2  0
  2  1  1  0
  3  4  1  0
  4  5  2  0
  5  7  1  0
  6  5  1  0
  7  8  1  0
  8 10  1  0
  9  8  2  0
  9 11  1  0
 12  2  1  0
  1 13  1  0
  3 14  1  0
  7 15  1  0
 10 16  1  0
 10 17  1  0
 12 18  1  0
 12 19  1  0
M  ISO  2  13  14  14  14
M  END
>  <minimizedAffinity>  (1) 
-4.92963648

>  <minimizedRMSD>  (1) 
1.90335393

$$$$
