
     RDKit          3D

 19 20  0  0  0  0  0  0  0  0999 V2000
   44.5030   35.5190   45.0960 C   0  0  0  0  0  0  0  0  0  0  0  0
   45.1140   35.4560   43.8150 C   0  0  0  0  0  0  0  0  0  0  0  0
   46.1010   34.5110   43.5710 C   0  0  0  0  0  0  0  0  0  0  0  0
   46.4400   33.6790   44.5850 N   0  0  0  0  0  0  0  0  0  0  0  0
   45.8610   33.7440   45.7870 C   0  0  0  0  0  0  0  0  0  0  0  0
   44.9050   34.6410   46.0610 N   0  0  0  0  0  0  0  0  0  0  0  0
   46.1610   32.9100   46.8970 N   0  0  0  0  0  0  0  0  0  0  0  0
   45.1620   32.7900   47.7450 N   0  0  0  0  0  0  0  0  0  0  0  0
   45.5340   31.9770   48.7740 C   0  0  0  0  0  0  0  0  0  0  0  0
   46.8380   31.5900   48.5190 C   0  0  0  0  0  0  0  0  0  0  0  0
   47.2250   32.1840   47.3320 C   0  0  0  0  0  0  0  0  0  0  0  0
   44.6680   36.3750   42.8590 N   0  0  0  0  0  0  0  0  0  0  0  0
   43.7198   36.2621   45.3066 H   0  0  0  0  0  0  0  0  0  0  0  0
   46.5908   34.4401   42.5886 H   0  0  0  0  0  0  0  0  0  0  0  0
   44.9184   31.6857   49.6378 H   0  0  0  0  0  0  0  0  0  0  0  0
   47.4546   30.9298   49.1467 H   0  0  0  0  0  0  0  0  0  0  0  0
   48.2024   32.0880   46.8366 H   0  0  0  0  0  0  0  0  0  0  0  0
   45.0766   36.3738   41.9135 H   0  0  0  0  0  0  0  0  0  0  0  0
   43.9310   37.0527   43.1007 H   0  0  0  0  0  0  0  0  0  0  0  0
  1  6  2  0
  2  1  1  0
  3  2  2  0
  3  4  1  0
  4  5  2  0
  5  6  1  0
  5  7  1  0
  7 11  1  0
  7  8  1  0
  8  9  2  0
 10  9  1  0
 11 10  2  0
 12  2  1  0
  1 13  1  0
  3 14  1  0
  9 15  1  0
 10 16  1  0
 11 17  1  0
 12 18  1  0
 12 19  1  0
M  ISO  5  13  14  14  14  15  14  16  14  17  14
M  END
>  <minimizedAffinity>  (1) 
-4.66738892

>  <minimizedRMSD>  (1) 
0.590929329

$$$$
