
     RDKit          3D

 18 19  0  0  0  0  0  0  0  0999 V2000
   44.4410   35.6730   45.0860 C   0  0  0  0  0  0  0  0  0  0  0  0
   45.0710   35.4990   43.8440 C   0  0  0  0  0  0  0  0  0  0  0  0
   45.9810   34.4540   43.6540 C   0  0  0  0  0  0  0  0  0  0  0  0
   46.2080   33.6430   44.7220 N   0  0  0  0  0  0  0  0  0  0  0  0
   45.6010   33.8190   45.9010 C   0  0  0  0  0  0  0  0  0  0  0  0
   44.7240   34.8240   46.0890 N   0  0  0  0  0  0  0  0  0  0  0  0
   45.8520   32.9520   47.0220 N   0  0  0  0  0  0  0  0  0  0  0  0
   47.0730   32.4410   47.2800 C   0  0  0  0  0  0  0  0  0  0  0  0
   46.9450   31.6840   48.3890 N   0  0  0  0  0  0  0  0  0  0  0  0
   45.6840   31.7370   48.7870 C   0  0  0  0  0  0  0  0  0  0  0  0
   45.0060   32.5200   47.9440 N   0  0  0  0  0  0  0  0  0  0  0  0
   44.7580   36.3960   42.8200 N   0  0  0  0  0  0  0  0  0  0  0  0
   43.7245   36.4939   45.2368 H   0  0  0  0  0  0  0  0  0  0  0  0
   46.4872   34.2961   42.6902 H   0  0  0  0  0  0  0  0  0  0  0  0
   47.9926   32.6086   46.7001 H   0  0  0  0  0  0  0  0  0  0  0  0
   45.2649   31.2227   49.6644 H   0  0  0  0  0  0  0  0  0  0  0  0
   45.2018   36.2977   41.8957 H   0  0  0  0  0  0  0  0  0  0  0  0
   44.0834   37.1557   42.9892 H   0  0  0  0  0  0  0  0  0  0  0  0
  1  6  2  0
  2  1  1  0
  3  2  2  0
  3  4  1  0
  4  5  2  0
  5  6  1  0
  5  7  1  0
  7  8  1  0
  7 11  1  0
  8  9  2  0
  9 10  1  0
 11 10  2  0
 12  2  1  0
  1 13  1  0
  3 14  1  0
  8 15  1  0
 10 16  1  0
 12 17  1  0
 12 18  1  0
M  ISO  4  13  14  14  14  15  14  16  14
M  END
>  <minimizedAffinity>  (1) 
-4.55328369

>  <minimizedRMSD>  (1) 
0.852392077

$$$$
