
     RDKit          3D

 19 20  0  0  0  0  0  0  0  0999 V2000
   44.4900   35.6160   45.0360 C   0  0  0  0  0  0  0  0  0  0  0  0
   45.0720   35.6110   43.7600 C   0  0  0  0  0  0  0  0  0  0  0  0
   46.0350   34.6530   43.4760 C   0  0  0  0  0  0  0  0  0  0  0  0
   46.3720   33.7640   44.4430 N   0  0  0  0  0  0  0  0  0  0  0  0
   45.8000   33.7900   45.6570 C   0  0  0  0  0  0  0  0  0  0  0  0
   44.8720   34.6970   45.9610 N   0  0  0  0  0  0  0  0  0  0  0  0
   46.1040   32.8730   46.7490 C   0  0  0  0  0  0  0  0  0  0  0  0
   47.1110   31.9860   47.1050 C   0  0  0  0  0  0  0  0  0  0  0  0
   46.7160   31.4450   48.3140 C   0  0  0  0  0  0  0  0  0  0  0  0
   45.5040   32.0140   48.6450 C   0  0  0  0  0  0  0  0  0  0  0  0
   45.1880   32.8600   47.6720 O   0  0  0  0  0  0  0  0  0  0  0  0
   44.6510   36.5700   42.8440 N   0  0  0  0  0  0  0  0  0  0  0  0
   43.7240   36.3642   45.2880 H   0  0  0  0  0  0  0  0  0  0  0  0
   46.5150   34.6155   42.4870 H   0  0  0  0  0  0  0  0  0  0  0  0
   48.0296   31.7612   46.5432 H   0  0  0  0  0  0  0  0  0  0  0  0
   47.2671   30.6978   48.9039 H   0  0  0  0  0  0  0  0  0  0  0  0
   44.9100   31.8056   49.5471 H   0  0  0  0  0  0  0  0  0  0  0  0
   45.0589   36.5931   41.8985 H   0  0  0  0  0  0  0  0  0  0  0  0
   43.9315   37.2568   43.1114 H   0  0  0  0  0  0  0  0  0  0  0  0
  1  6  2  0
  2  1  1  0
  3  2  2  0
  3  4  1  0
  4  5  2  0
  5  6  1  0
  5  7  1  0
  7  8  2  0
  7 11  1  0
  8  9  1  0
  9 10  2  0
 11 10  1  0
 12  2  1  0
  1 13  1  0
  3 14  1  0
  8 15  1  0
  9 16  1  0
 10 17  1  0
 12 18  1  0
 12 19  1  0
M  ISO  5  13  14  14  14  15  14  16  14  17  14
M  END
>  <minimizedAffinity>  (1) 
-4.506042

>  <minimizedRMSD>  (1) 
0.68583703

$$$$
