
     RDKit          3D

 19 20  0  0  0  0  0  0  0  0999 V2000
   44.4960   35.5790   45.0560 C   0  0  0  0  0  0  0  0  0  0  0  0
   45.0840   35.5640   43.7670 C   0  0  0  0  0  0  0  0  0  0  0  0
   46.0630   34.6170   43.4640 C   0  0  0  0  0  0  0  0  0  0  0  0
   46.4070   33.7390   44.4430 N   0  0  0  0  0  0  0  0  0  0  0  0
   45.8390   33.7710   45.6520 C   0  0  0  0  0  0  0  0  0  0  0  0
   44.8990   34.6690   45.9610 N   0  0  0  0  0  0  0  0  0  0  0  0
   46.1560   32.8630   46.7480 C   0  0  0  0  0  0  0  0  0  0  0  0
   45.2150   32.7640   47.7680 C   0  0  0  0  0  0  0  0  0  0  0  0
   45.7280   31.8490   48.6940 C   0  0  0  0  0  0  0  0  0  0  0  0
   46.9300   31.4400   48.2130 N   0  0  0  0  0  0  0  0  0  0  0  0
   47.1850   32.0490   47.0450 N   0  0  0  0  0  0  0  0  0  0  0  0
   44.6530   36.5140   42.8400 N   0  0  0  0  0  0  0  0  0  0  0  0
   43.7248   36.3205   45.3118 H   0  0  0  0  0  0  0  0  0  0  0  0
   46.5376   34.5824   42.4722 H   0  0  0  0  0  0  0  0  0  0  0  0
   44.2564   33.2996   47.8336 H   0  0  0  0  0  0  0  0  0  0  0  0
   45.2502   31.5241   49.6300 H   0  0  0  0  0  0  0  0  0  0  0  0
   47.5532   30.7631   48.6758 H   0  0  0  0  0  0  0  0  0  0  0  0
   45.0593   36.5315   41.8937 H   0  0  0  0  0  0  0  0  0  0  0  0
   43.9286   37.1977   43.1021 H   0  0  0  0  0  0  0  0  0  0  0  0
  1  6  2  0
  2  1  1  0
  3  2  2  0
  3  4  1  0
  4  5  2  0
  5  6  1  0
  5  7  1  0
  7 11  2  0
  7  8  1  0
  8  9  2  0
 10  9  1  0
 11 10  1  0
 12  2  1  0
  1 13  1  0
  3 14  1  0
  8 15  1  0
  9 16  1  0
 10 17  1  0
 12 18  1  0
 12 19  1  0
M  ISO  5  13  14  14  14  15  14  16  14  17   9
M  END
>  <minimizedAffinity>  (1) 
-4.37734032

>  <minimizedRMSD>  (1) 
0.474203229

$$$$
