
     RDKit          3D

 24 24  0  0  0  0  0  0  0  0999 V2000
   44.5660   35.4420   45.3700 C   0  0  0  0  0  0  0  0  0  0  0  0
   45.1620   35.4310   44.0860 C   0  0  0  0  0  0  0  0  0  0  0  0
   46.0360   34.4030   43.7520 C   0  0  0  0  0  0  0  0  0  0  0  0
   46.2660   33.4580   44.6980 N   0  0  0  0  0  0  0  0  0  0  0  0
   45.6950   33.4830   45.9080 C   0  0  0  0  0  0  0  0  0  0  0  0
   44.8450   34.4680   46.2550 N   0  0  0  0  0  0  0  0  0  0  0  0
   46.0130   32.4030   46.8690 C   0  0  0  0  0  0  0  0  0  0  0  0
   44.9950   32.3280   47.9910 C   0  0  0  0  0  0  0  0  0  0  0  0
   45.9550   31.0840   46.1210 C   0  0  0  0  0  0  0  0  0  0  0  0
   47.3660   32.5960   47.5300 C   0  0  0  0  0  0  0  0  0  0  0  0
   44.8460   36.4570   43.2010 N   0  0  0  0  0  0  0  0  0  0  0  0
   43.8721   36.2500   45.6451 H   0  0  0  0  0  0  0  0  0  0  0  0
   46.5195   34.3577   42.7650 H   0  0  0  0  0  0  0  0  0  0  0  0
   45.5140   32.3662   48.9601 H   0  0  0  0  0  0  0  0  0  0  0  0
   44.3004   33.1774   47.9133 H   0  0  0  0  0  0  0  0  0  0  0  0
   44.4324   31.3860   47.9133 H   0  0  0  0  0  0  0  0  0  0  0  0
   45.9185   30.2546   46.8426 H   0  0  0  0  0  0  0  0  0  0  0  0
   45.0549   31.0601   45.4891 H   0  0  0  0  0  0  0  0  0  0  0  0
   46.8495   30.9812   45.4891 H   0  0  0  0  0  0  0  0  0  0  0  0
   47.2458   32.5788   48.6233 H   0  0  0  0  0  0  0  0  0  0  0  0
   48.0431   31.7854   47.2228 H   0  0  0  0  0  0  0  0  0  0  0  0
   47.7895   33.5636   47.2228 H   0  0  0  0  0  0  0  0  0  0  0  0
   45.2655   36.4733   42.2604 H   0  0  0  0  0  0  0  0  0  0  0  0
   44.1926   37.2003   43.4864 H   0  0  0  0  0  0  0  0  0  0  0  0
  1  6  2  0
  2  1  1  0
  3  2  2  0
  3  4  1  0
  4  5  2  0
  5  6  1  0
  5  7  1  0
  7 10  1  0
  7  8  1  0
  9  7  1  0
 11  2  1  0
  1 12  1  0
  3 13  1  0
  8 14  1  0
  8 15  1  0
  8 16  1  0
  9 17  1  0
  9 18  1  0
  9 19  1  0
 10 20  1  0
 10 21  1  0
 10 22  1  0
 11 23  1  0
 11 24  1  0
M  ISO  8  12  14  13  14  14   8  15   8  16   8  17   8  18   8  19   8
M  ISO  3  20   8  21   8  22   8
M  END
>  <minimizedAffinity>  (1) 
-3.89457464

>  <minimizedRMSD>  (1) 
0.608260632

$$$$
