
     RDKit          3D

 13 13  0  0  0  0  0  0  0  0999 V2000
   44.5420   35.5730   45.0930 C   0  0  0  0  0  0  0  0  0  0  0  0
   45.0890   35.7290   43.8110 C   0  0  0  0  0  0  0  0  0  0  0  0
   46.0610   34.8360   43.3480 C   0  0  0  0  0  0  0  0  0  0  0  0
   46.4250   33.8400   44.2020 N   0  0  0  0  0  0  0  0  0  0  0  0
   45.8900   33.7120   45.4190 C   0  0  0  0  0  0  0  0  0  0  0  0
   44.9560   34.5610   45.8770 N   0  0  0  0  0  0  0  0  0  0  0  0
   44.6410   36.7870   43.0200 N   0  0  0  0  0  0  0  0  0  0  0  0
   46.3160   32.6620   46.2360 O   0  0  0  0  0  0  0  0  0  0  0  0
   43.7773   36.2754   45.4561 H   0  0  0  0  0  0  0  0  0  0  0  0
   46.5075   34.9332   42.3474 H   0  0  0  0  0  0  0  0  0  0  0  0
   45.0272   36.9229   42.0749 H   0  0  0  0  0  0  0  0  0  0  0  0
   43.9240   37.4323   43.3811 H   0  0  0  0  0  0  0  0  0  0  0  0
   45.9306   32.5514   47.1412 H   0  0  0  0  0  0  0  0  0  0  0  0
  1  6  2  0
  2  1  1  0
  3  2  2  0
  3  4  1  0
  4  5  2  0
  5  6  1  0
  5  8  1  0
  7  2  1  0
  1  9  1  0
  3 10  1  0
  7 11  1  0
  7 12  1  0
  8 13  1  0
M  ISO  3   9  14  10  14  13   3
M  END
>  <minimizedAffinity>  (1) 
-3.25796032

>  <minimizedRMSD>  (1) 
0.0273825116

$$$$
