
     RDKit          3D

 28 30  0  0  0  0  0  0  0  0999 V2000
   46.5060   32.4260   45.4190 C   0  0  0  0  0  0  0  0  0  0  0  0
   47.3330   31.4080   44.9130 C   0  0  0  0  0  0  0  0  0  0  0  0
   47.4540   30.4270   45.8280 N   0  0  0  0  0  0  0  0  0  0  0  0
   46.7480   30.7380   46.9270 C   0  0  0  0  0  0  0  0  0  0  0  0
   46.5210   30.1100   48.1400 C   0  0  0  0  0  0  0  0  0  0  0  0
   45.7300   30.6810   49.1040 C   0  0  0  0  0  0  0  0  0  0  0  0
   45.1380   31.9040   48.8870 C   0  0  0  0  0  0  0  0  0  0  0  0
   45.3860   32.5070   47.6590 C   0  0  0  0  0  0  0  0  0  0  0  0
   46.1700   31.9640   46.6720 C   0  0  0  0  0  0  0  0  0  0  0  0
   44.6410   35.5030   44.8110 C   0  0  0  0  0  0  0  0  0  0  0  0
   45.2250   35.9370   43.5800 C   0  0  0  0  0  0  0  0  0  0  0  0
   46.2500   35.1810   42.9750 C   0  0  0  0  0  0  0  0  0  0  0  0
   46.6440   34.0450   43.6080 N   0  0  0  0  0  0  0  0  0  0  0  0
   46.0770   33.6480   44.7790 C   0  0  0  0  0  0  0  0  0  0  0  0
   45.1150   34.3580   45.3480 N   0  0  0  0  0  0  0  0  0  0  0  0
   44.7670   37.1120   42.9920 N   0  0  0  0  0  0  0  0  0  0  0  0
   44.7120   33.7540   47.6710 N   0  0  0  0  0  0  0  0  0  0  0  0
   47.8087   31.4120   43.9212 H   0  0  0  0  0  0  0  0  0  0  0  0
   48.0059   29.5664   45.7032 H   0  0  0  0  0  0  0  0  0  0  0  0
   46.9852   29.1319   48.3347 H   0  0  0  0  0  0  0  0  0  0  0  0
   45.5677   30.1574   50.0577 H   0  0  0  0  0  0  0  0  0  0  0  0
   44.5008   32.3805   49.6466 H   0  0  0  0  0  0  0  0  0  0  0  0
   43.8400   36.0771   45.2997 H   0  0  0  0  0  0  0  0  0  0  0  0
   46.7122   35.4981   42.0285 H   0  0  0  0  0  0  0  0  0  0  0  0
   45.1774   37.4381   42.1053 H   0  0  0  0  0  0  0  0  0  0  0  0
   44.0176   37.6557   43.4434 H   0  0  0  0  0  0  0  0  0  0  0  0
   44.7615   34.3741   46.8501 H   0  0  0  0  0  0  0  0  0  0  0  0
   44.1728   34.0400   48.5007 H   0  0  0  0  0  0  0  0  0  0  0  0
  1  9  1  0
  2  1  2  0
  2  3  1  0
  3  4  1  0
  4  5  2  0
  5  6  1  0
  7  6  2  0
  8 17  1  0
  8  7  1  0
  9  4  1  0
  9  8  2  0
 10 15  2  0
 11 10  1  0
 12 11  2  0
 12 13  1  0
 13 14  2  0
 14 15  1  0
 14  1  1  0
 16 11  1  0
  2 18  1  0
  3 19  1  0
  5 20  1  0
  6 21  1  0
  7 22  1  0
 10 23  1  0
 12 24  1  0
 16 25  1  0
 16 26  1  0
 17 27  1  0
 17 28  1  0
M  ISO  7  18  14  19   9  20  14  21  14  22  14  23  14  24  14
M  END
>  <minimizedAffinity>  (1) 
-6.18432522

>  <minimizedRMSD>  (1) 
0.158045486

$$$$
