
     RDKit          3D

 32 35  0  0  0  0  0  0  0  0999 V2000
   45.9980   33.8290   44.6560 C   0  0  0  0  0  0  0  0  0  0  0  0
   45.2420   34.7270   45.4350 C   0  0  0  0  0  0  0  0  0  0  0  0
   44.9430   34.1620   46.6180 N   0  0  0  0  0  0  0  0  0  0  0  0
   45.4580   32.9310   46.6750 C   0  0  0  0  0  0  0  0  0  0  0  0
   45.4580   31.9360   47.6370 C   0  0  0  0  0  0  0  0  0  0  0  0
   46.1020   30.7250   47.3980 C   0  0  0  0  0  0  0  0  0  0  0  0
   46.7470   30.4870   46.2110 C   0  0  0  0  0  0  0  0  0  0  0  0
   46.7200   31.5180   45.2750 C   0  0  0  0  0  0  0  0  0  0  0  0
   46.1040   32.7220   45.4700 C   0  0  0  0  0  0  0  0  0  0  0  0
   48.5080   34.4760   42.0880 C   0  0  0  0  0  0  0  0  0  0  0  0
   47.6900   34.4740   40.9090 C   0  0  0  0  0  0  0  0  0  0  0  0
   46.2980   34.2410   41.0030 C   0  0  0  0  0  0  0  0  0  0  0  0
   45.7880   34.0250   42.2400 N   0  0  0  0  0  0  0  0  0  0  0  0
   46.5800   34.0310   43.3510 C   0  0  0  0  0  0  0  0  0  0  0  0
   47.8810   34.2490   43.2680 N   0  0  0  0  0  0  0  0  0  0  0  0
   48.2980   34.7030   39.6800 N   0  0  0  0  0  0  0  0  0  0  0  0
   47.3870   30.9550   44.1600 N   0  0  0  0  0  0  0  0  0  0  0  0
   46.9150   30.4940   42.9500 C   0  0  0  0  0  0  0  0  0  0  0  0
   47.9400   30.1090   42.1720 N   0  0  0  0  0  0  0  0  0  0  0  0
   49.0540   30.3250   42.8910 C   0  0  0  0  0  0  0  0  0  0  0  0
   48.7350   30.8390   44.0990 N   0  0  0  0  0  0  0  0  0  0  0  0
   44.9416   35.7380   45.1226 H   0  0  0  0  0  0  0  0  0  0  0  0
   44.3983   34.6113   47.3679 H   0  0  0  0  0  0  0  0  0  0  0  0
   44.9461   32.1030   48.5962 H   0  0  0  0  0  0  0  0  0  0  0  0
   46.0934   29.9457   48.1743 H   0  0  0  0  0  0  0  0  0  0  0  0
   47.2577   29.5338   46.0094 H   0  0  0  0  0  0  0  0  0  0  0  0
   49.5924   34.6533   42.0366 H   0  0  0  0  0  0  0  0  0  0  0  0
   45.6563   34.2353   40.1096 H   0  0  0  0  0  0  0  0  0  0  0  0
   49.3130   34.8708   39.6309 H   0  0  0  0  0  0  0  0  0  0  0  0
   47.7334   34.7048   38.8185 H   0  0  0  0  0  0  0  0  0  0  0  0
   45.8540   30.4481   42.6633 H   0  0  0  0  0  0  0  0  0  0  0  0
   50.0771   30.1141   42.5463 H   0  0  0  0  0  0  0  0  0  0  0  0
  1  2  2  0
  1  9  1  0
  2  3  1  0
  3  4  1  0
  4  5  2  0
  6  5  1  0
  7  6  2  0
  8  9  2  0
  8  7  1  0
  9  4  1  0
 10 15  2  0
 11 12  2  0
 11 10  1  0
 12 13  1  0
 13 14  2  0
 14  1  1  0
 15 14  1  0
 16 11  1  0
 17  8  1  0
 18 17  1  0
 19 20  1  0
 19 18  2  0
 20 21  2  0
 21 17  1  0
  2 22  1  0
  3 23  1  0
  5 24  1  0
  6 25  1  0
  7 26  1  0
 10 27  1  0
 12 28  1  0
 16 29  1  0
 16 30  1  0
 18 31  1  0
 20 32  1  0
M  ISO  8  22  14  23   9  24  14  25  14  26  14  27  14  28  14  31  14
M  ISO  1  32  14
M  END
>  <minimizedAffinity>  (1) 
-5.00073195

>  <minimizedRMSD>  (1) 
4.69267416

$$$$
