
     RDKit          3D

 33 36  0  0  0  0  0  0  0  0999 V2000
   45.9740   34.4440   43.7560 C   0  0  0  0  0  0  0  0  0  0  0  0
   45.2290   35.4410   44.4100 C   0  0  0  0  0  0  0  0  0  0  0  0
   44.9500   35.0470   45.6650 N   0  0  0  0  0  0  0  0  0  0  0  0
   45.4720   33.8280   45.8840 C   0  0  0  0  0  0  0  0  0  0  0  0
   45.5010   32.9740   46.9770 C   0  0  0  0  0  0  0  0  0  0  0  0
   46.1420   31.7630   46.8970 C   0  0  0  0  0  0  0  0  0  0  0  0
   46.7680   31.3580   45.7470 C   0  0  0  0  0  0  0  0  0  0  0  0
   46.7260   32.2230   44.6700 C   0  0  0  0  0  0  0  0  0  0  0  0
   46.1010   33.4470   44.7110 C   0  0  0  0  0  0  0  0  0  0  0  0
   46.3970   33.8110   40.1900 C   0  0  0  0  0  0  0  0  0  0  0  0
   47.6630   34.4530   39.9520 C   0  0  0  0  0  0  0  0  0  0  0  0
   48.3500   35.1030   41.0090 C   0  0  0  0  0  0  0  0  0  0  0  0
   47.7660   35.0960   42.2460 N   0  0  0  0  0  0  0  0  0  0  0  0
   46.5620   34.4770   42.4380 C   0  0  0  0  0  0  0  0  0  0  0  0
   45.9150   33.8680   41.4560 N   0  0  0  0  0  0  0  0  0  0  0  0
   48.1910   34.4280   38.6710 N   0  0  0  0  0  0  0  0  0  0  0  0
   47.3940   31.5630   43.5130 C   0  0  0  0  0  0  0  0  0  0  0  0
   48.5140   30.6110   43.6730 C   0  0  0  0  0  0  0  0  0  0  0  0
   48.9140   31.9550   43.3190 C   0  0  0  0  0  0  0  0  0  0  0  0
   44.9212   36.3978   43.9630 H   0  0  0  0  0  0  0  0  0  0  0  0
   44.4169   35.5963   46.3542 H   0  0  0  0  0  0  0  0  0  0  0  0
   45.0068   33.2695   47.9143 H   0  0  0  0  0  0  0  0  0  0  0  0
   46.1536   31.1022   47.7763 H   0  0  0  0  0  0  0  0  0  0  0  0
   47.2813   30.3871   45.6840 H   0  0  0  0  0  0  0  0  0  0  0  0
   45.8481   33.2999   39.3853 H   0  0  0  0  0  0  0  0  0  0  0  0
   49.3189   35.5957   40.8399 H   0  0  0  0  0  0  0  0  0  0  0  0
   49.0956   34.8810   38.4779 H   0  0  0  0  0  0  0  0  0  0  0  0
   47.6788   33.9564   37.9120 H   0  0  0  0  0  0  0  0  0  0  0  0
   46.4512   31.5282   42.9474 H   0  0  0  0  0  0  0  0  0  0  0  0
   48.7518   30.2298   44.6770 H   0  0  0  0  0  0  0  0  0  0  0  0
   48.7259   29.6290   43.2248 H   0  0  0  0  0  0  0  0  0  0  0  0
   49.3076   32.1703   42.3146 H   0  0  0  0  0  0  0  0  0  0  0  0
   49.5924   32.7118   43.7397 H   0  0  0  0  0  0  0  0  0  0  0  0
  1  2  2  0
  1  9  1  0
  2  3  1  0
  3  4  1  0
  4  5  2  0
  6  5  1  0
  7  6  2  0
  8  9  2  0
  8  7  1  0
  9  4  1  0
 10 15  2  0
 11 10  1  0
 11 12  2  0
 12 13  1  0
 13 14  2  0
 14  1  1  0
 15 14  1  0
 16 11  1  0
 17 18  1  0
 17  8  1  0
 19 17  1  0
 19 18  1  0
  2 20  1  0
  3 21  1  0
  5 22  1  0
  6 23  1  0
  7 24  1  0
 10 25  1  0
 12 26  1  0
 16 27  1  0
 16 28  1  0
 17 29  1  0
 18 30  1  0
 18 31  1  0
 19 32  1  0
 19 33  1  0
M  ISO  8  20  14  21   9  22  14  23  14  24  14  25  14  26  14  29  13
M  ISO  4  30  13  31  13  32  13  33  13
M  END
>  <minimizedAffinity>  (1) 
-4.96311092

>  <minimizedRMSD>  (1) 
4.50820589

$$$$
