
     RDKit          3D

 44 48  0  0  0  0  0  0  0  0999 V2000
   46.2270   33.6110   44.7390 C   0  0  0  0  0  0  0  0  0  0  0  0
   45.4890   34.4310   45.6250 C   0  0  0  0  0  0  0  0  0  0  0  0
   45.1560   33.7240   46.7110 N   0  0  0  0  0  0  0  0  0  0  0  0
   45.6310   32.4700   46.6000 C   0  0  0  0  0  0  0  0  0  0  0  0
   45.5730   31.3700   47.4330 C   0  0  0  0  0  0  0  0  0  0  0  0
   46.1840   30.1740   47.0470 C   0  0  0  0  0  0  0  0  0  0  0  0
   46.8530   30.0890   45.8200 C   0  0  0  0  0  0  0  0  0  0  0  0
   46.8760   31.2250   45.0270 C   0  0  0  0  0  0  0  0  0  0  0  0
   46.2890   32.3990   45.3880 C   0  0  0  0  0  0  0  0  0  0  0  0
   47.5790   30.8170   43.8710 N   0  0  0  0  0  0  0  0  0  0  0  0
   48.8990   30.5190   43.9860 C   0  0  0  0  0  0  0  0  0  0  0  0
   49.3210   30.1540   42.6920 C   0  0  0  0  0  0  0  0  0  0  0  0
   48.2750   30.2350   41.8470 N   0  0  0  0  0  0  0  0  0  0  0  0
   47.2200   30.6320   42.5380 C   0  0  0  0  0  0  0  0  0  0  0  0
   45.9100   30.8580   42.0820 N   0  0  0  0  0  0  0  0  0  0  0  0
   45.4680   31.2480   40.8840 C   0  0  0  0  0  0  0  0  0  0  0  0
   44.1240   31.4170   40.6270 C   0  0  0  0  0  0  0  0  0  0  0  0
   43.1630   31.2040   41.5620 C   0  0  0  0  0  0  0  0  0  0  0  0
   41.8070   31.4080   41.1930 N   0  0  0  0  0  0  0  0  0  0  0  0
   43.6120   30.8080   42.7790 N   0  0  0  0  0  0  0  0  0  0  0  0
   44.9230   30.6500   43.0040 C   0  0  0  0  0  0  0  0  0  0  0  0
   45.1760   30.2770   44.1900 O   0  0  0  0  0  0  0  0  0  0  0  0
   48.7760   34.4000   42.2630 C   0  0  0  0  0  0  0  0  0  0  0  0
   47.9840   34.7060   41.1210 C   0  0  0  0  0  0  0  0  0  0  0  0
   46.5770   34.6350   41.1990 C   0  0  0  0  0  0  0  0  0  0  0  0
   46.0180   34.2680   42.3940 N   0  0  0  0  0  0  0  0  0  0  0  0
   46.7940   33.9830   43.4670 C   0  0  0  0  0  0  0  0  0  0  0  0
   48.1220   34.0500   43.3910 N   0  0  0  0  0  0  0  0  0  0  0  0
   48.6020   35.0750   39.9290 N   0  0  0  0  0  0  0  0  0  0  0  0
   45.2295   35.4853   45.4485 H   0  0  0  0  0  0  0  0  0  0  0  0
   44.6174   34.0851   47.5112 H   0  0  0  0  0  0  0  0  0  0  0  0
   45.0476   31.4351   48.3972 H   0  0  0  0  0  0  0  0  0  0  0  0
   46.1392   29.2967   47.7091 H   0  0  0  0  0  0  0  0  0  0  0  0
   47.3411   29.1572   45.4983 H   0  0  0  0  0  0  0  0  0  0  0  0
   49.5113   30.5550   44.8991 H   0  0  0  0  0  0  0  0  0  0  0  0
   50.3418   29.8512   42.4159 H   0  0  0  0  0  0  0  0  0  0  0  0
   46.1951   31.4395   40.0811 H   0  0  0  0  0  0  0  0  0  0  0  0
   43.8171   31.7383   39.6208 H   0  0  0  0  0  0  0  0  0  0  0  0
   41.0570   31.2539   41.8820 H   0  0  0  0  0  0  0  0  0  0  0  0
   41.5734   31.7100   40.2364 H   0  0  0  0  0  0  0  0  0  0  0  0
   49.8745   34.4467   42.2281 H   0  0  0  0  0  0  0  0  0  0  0  0
   45.9484   34.8673   40.3267 H   0  0  0  0  0  0  0  0  0  0  0  0
   49.6294   35.1258   39.8758 H   0  0  0  0  0  0  0  0  0  0  0  0
   48.0318   35.2972   39.1005 H   0  0  0  0  0  0  0  0  0  0  0  0
  1  9  1  0
  1  2  2  0
  2  3  1  0
  4  3  1  0
  4  5  2  0
  6  5  1  0
  7  6  2  0
  8  9  2  0
  8  7  1  0
  9  4  1  0
 10 11  1  0
 10  8  1  0
 12 11  2  0
 13 14  2  0
 13 12  1  0
 14 10  1  0
 15 14  1  0
 15 21  1  0
 16 15  1  0
 17 16  2  0
 17 18  1  0
 18 20  2  0
 19 18  1  0
 20 21  1  0
 21 22  2  0
 23 28  2  0
 24 25  2  0
 24 23  1  0
 25 26  1  0
 26 27  2  0
 27  1  1  0
 28 27  1  0
 29 24  1  0
  2 30  1  0
  3 31  1  0
  5 32  1  0
  6 33  1  0
  7 34  1  0
 11 35  1  0
 12 36  1  0
 16 37  1  0
 17 38  1  0
 19 39  1  0
 19 40  1  0
 23 41  1  0
 25 42  1  0
 29 43  1  0
 29 44  1  0
M  ISO  8  30  14  31   9  32  14  33  14  34  14  35  14  36  14  37  14
M  ISO  3  38  14  41  14  42  14
M  END
>  <minimizedAffinity>  (1) 
-5.57935238

>  <minimizedRMSD>  (1) 
0.335033864

$$$$
