
     RDKit          3D

 43 47  0  0  0  0  0  0  0  0999 V2000
   46.1170   33.6650   44.6820 C   0  0  0  0  0  0  0  0  0  0  0  0
   45.4480   34.5600   45.5400 C   0  0  0  0  0  0  0  0  0  0  0  0
   45.1270   33.9090   46.6820 N   0  0  0  0  0  0  0  0  0  0  0  0
   45.5530   32.6290   46.6160 C   0  0  0  0  0  0  0  0  0  0  0  0
   45.4860   31.5840   47.5010 C   0  0  0  0  0  0  0  0  0  0  0  0
   46.0430   30.3470   47.1520 C   0  0  0  0  0  0  0  0  0  0  0  0
   46.6600   30.1870   45.9070 C   0  0  0  0  0  0  0  0  0  0  0  0
   46.6930   31.2710   45.0630 C   0  0  0  0  0  0  0  0  0  0  0  0
   46.1620   32.4850   45.3790 C   0  0  0  0  0  0  0  0  0  0  0  0
   48.6130   34.3740   42.1270 C   0  0  0  0  0  0  0  0  0  0  0  0
   47.8030   34.5390   40.9710 C   0  0  0  0  0  0  0  0  0  0  0  0
   46.4010   34.4030   41.0640 C   0  0  0  0  0  0  0  0  0  0  0  0
   45.8590   34.1110   42.2900 N   0  0  0  0  0  0  0  0  0  0  0  0
   46.6560   33.9590   43.3710 C   0  0  0  0  0  0  0  0  0  0  0  0
   47.9790   34.0880   43.2840 N   0  0  0  0  0  0  0  0  0  0  0  0
   48.3860   34.8390   39.7340 N   0  0  0  0  0  0  0  0  0  0  0  0
   47.3300   30.7860   43.8970 N   0  0  0  0  0  0  0  0  0  0  0  0
   48.6750   30.5860   43.9490 C   0  0  0  0  0  0  0  0  0  0  0  0
   49.0370   30.1130   42.6700 C   0  0  0  0  0  0  0  0  0  0  0  0
   47.9340   30.0410   41.9030 N   0  0  0  0  0  0  0  0  0  0  0  0
   46.8960   30.4430   42.6270 C   0  0  0  0  0  0  0  0  0  0  0  0
   45.5200   30.5390   42.2550 C   0  0  0  0  0  0  0  0  0  0  0  0
   45.2820   30.9160   40.9240 C   0  0  0  0  0  0  0  0  0  0  0  0
   43.9970   31.0490   40.4180 C   0  0  0  0  0  0  0  0  0  0  0  0
   42.8940   30.8130   41.2150 C   0  0  0  0  0  0  0  0  0  0  0  0
   43.1140   30.4420   42.5250 C   0  0  0  0  0  0  0  0  0  0  0  0
   44.3950   30.3120   43.0180 C   0  0  0  0  0  0  0  0  0  0  0  0
   45.2237   35.6138   45.3182 H   0  0  0  0  0  0  0  0  0  0  0  0
   44.6316   34.3273   47.4823 H   0  0  0  0  0  0  0  0  0  0  0  0
   44.9983   31.7160   48.4781 H   0  0  0  0  0  0  0  0  0  0  0  0
   45.9952   29.5030   47.8558 H   0  0  0  0  0  0  0  0  0  0  0  0
   47.1044   29.2247   45.6130 H   0  0  0  0  0  0  0  0  0  0  0  0
   49.7074   34.4748   42.0811 H   0  0  0  0  0  0  0  0  0  0  0  0
   45.7609   34.5277   40.1781 H   0  0  0  0  0  0  0  0  0  0  0  0
   49.4082   34.9399   39.6574 H   0  0  0  0  0  0  0  0  0  0  0  0
   47.7927   34.9588   38.9006 H   0  0  0  0  0  0  0  0  0  0  0  0
   49.3404   30.7572   44.8080 H   0  0  0  0  0  0  0  0  0  0  0  0
   50.0556   29.8464   42.3516 H   0  0  0  0  0  0  0  0  0  0  0  0
   46.1392   31.1117   40.2629 H   0  0  0  0  0  0  0  0  0  0  0  0
   43.8549   31.3462   39.3685 H   0  0  0  0  0  0  0  0  0  0  0  0
   41.8735   30.9175   40.8180 H   0  0  0  0  0  0  0  0  0  0  0  0
   42.2560   30.2472   43.1853 H   0  0  0  0  0  0  0  0  0  0  0  0
   44.5251   30.0134   44.0687 H   0  0  0  0  0  0  0  0  0  0  0  0
  1  9  1  0
  1  2  2  0
  2  3  1  0
  4  3  1  0
  4  5  2  0
  6  5  1  0
  7  6  2  0
  8  9  2  0
  8  7  1  0
  9  4  1  0
 10 15  2  0
 11 12  2  0
 11 10  1  0
 12 13  1  0
 13 14  2  0
 14  1  1  0
 15 14  1  0
 16 11  1  0
 17 18  1  0
 17  8  1  0
 19 18  2  0
 20 21  2  0
 20 19  1  0
 21 17  1  0
 22 21  1  0
 22 27  1  0
 23 22  2  0
 24 23  1  0
 24 25  2  0
 25 26  1  0
 26 27  2  0
  2 28  1  0
  3 29  1  0
  5 30  1  0
  6 31  1  0
  7 32  1  0
 10 33  1  0
 12 34  1  0
 16 35  1  0
 16 36  1  0
 18 37  1  0
 19 38  1  0
 23 39  1  0
 24 40  1  0
 25 41  1  0
 26 42  1  0
 27 43  1  0
M  ISO  8  28  14  29   9  30  14  31  14  32  14  33  14  34  14  37  14
M  ISO  6  38  14  39  14  40  14  41  14  42  14  43  14
M  END
>  <minimizedAffinity>  (1) 
-4.99367428

>  <minimizedRMSD>  (1) 
0.778522551

$$$$
