
     RDKit          3D

 42 46  0  0  0  0  0  0  0  0999 V2000
   46.1190   33.6680   44.6710 C   0  0  0  0  0  0  0  0  0  0  0  0
   45.4420   34.5550   45.5410 C   0  0  0  0  0  0  0  0  0  0  0  0
   45.1240   33.9070   46.6730 N   0  0  0  0  0  0  0  0  0  0  0  0
   45.5550   32.6290   46.6070 C   0  0  0  0  0  0  0  0  0  0  0  0
   45.4910   31.5770   47.4930 C   0  0  0  0  0  0  0  0  0  0  0  0
   46.0480   30.3520   47.1390 C   0  0  0  0  0  0  0  0  0  0  0  0
   46.6640   30.1850   45.9000 C   0  0  0  0  0  0  0  0  0  0  0  0
   46.6970   31.2740   45.0580 C   0  0  0  0  0  0  0  0  0  0  0  0
   46.1650   32.4830   45.3750 C   0  0  0  0  0  0  0  0  0  0  0  0
   48.6210   34.3910   42.1290 C   0  0  0  0  0  0  0  0  0  0  0  0
   47.8110   34.5480   40.9630 C   0  0  0  0  0  0  0  0  0  0  0  0
   46.4040   34.4000   41.0540 C   0  0  0  0  0  0  0  0  0  0  0  0
   45.8720   34.1050   42.2800 N   0  0  0  0  0  0  0  0  0  0  0  0
   46.6610   33.9620   43.3660 C   0  0  0  0  0  0  0  0  0  0  0  0
   47.9820   34.1010   43.2820 N   0  0  0  0  0  0  0  0  0  0  0  0
   48.4000   34.8470   39.7350 N   0  0  0  0  0  0  0  0  0  0  0  0
   47.3460   30.7920   43.8910 N   0  0  0  0  0  0  0  0  0  0  0  0
   48.6920   30.6010   43.9370 C   0  0  0  0  0  0  0  0  0  0  0  0
   49.0470   30.1220   42.6590 C   0  0  0  0  0  0  0  0  0  0  0  0
   47.9390   30.0370   41.8950 N   0  0  0  0  0  0  0  0  0  0  0  0
   46.9040   30.4360   42.6180 C   0  0  0  0  0  0  0  0  0  0  0  0
   45.5100   30.5290   42.2860 C   0  0  0  0  0  0  0  0  0  0  0  0
   45.1940   30.9170   40.9890 C   0  0  0  0  0  0  0  0  0  0  0  0
   43.9210   31.0630   40.4800 C   0  0  0  0  0  0  0  0  0  0  0  0
   42.8600   30.8050   41.3220 C   0  0  0  0  0  0  0  0  0  0  0  0
   43.1780   30.4230   42.6050 C   0  0  0  0  0  0  0  0  0  0  0  0
   44.4470   30.2980   43.0380 N   0  0  0  0  0  0  0  0  0  0  0  0
   45.2125   35.6087   45.3242 H   0  0  0  0  0  0  0  0  0  0  0  0
   44.6255   34.3228   47.4727 H   0  0  0  0  0  0  0  0  0  0  0  0
   45.0042   31.7037   48.4713 H   0  0  0  0  0  0  0  0  0  0  0  0
   46.0017   29.5081   47.8431 H   0  0  0  0  0  0  0  0  0  0  0  0
   47.1062   29.2215   45.6064 H   0  0  0  0  0  0  0  0  0  0  0  0
   49.7147   34.5013   42.0891 H   0  0  0  0  0  0  0  0  0  0  0  0
   45.7615   34.5183   40.1690 H   0  0  0  0  0  0  0  0  0  0  0  0
   49.4221   34.9549   39.6667 H   0  0  0  0  0  0  0  0  0  0  0  0
   47.8130   34.9599   38.8962 H   0  0  0  0  0  0  0  0  0  0  0  0
   49.3619   30.7819   44.7905 H   0  0  0  0  0  0  0  0  0  0  0  0
   50.0654   29.8595   42.3367 H   0  0  0  0  0  0  0  0  0  0  0  0
   46.0332   31.1258   40.3092 H   0  0  0  0  0  0  0  0  0  0  0  0
   43.7574   31.3746   39.4378 H   0  0  0  0  0  0  0  0  0  0  0  0
   41.8167   30.8994   40.9864 H   0  0  0  0  0  0  0  0  0  0  0  0
   42.3593   30.2103   43.3082 H   0  0  0  0  0  0  0  0  0  0  0  0
  1  9  1  0
  1  2  2  0
  2  3  1  0
  4  3  1  0
  4  5  2  0
  6  5  1  0
  7  6  2  0
  8  9  2  0
  8  7  1  0
  9  4  1  0
 10 15  2  0
 11 12  2  0
 11 10  1  0
 12 13  1  0
 13 14  2  0
 14  1  1  0
 15 14  1  0
 16 11  1  0
 17 18  1  0
 17  8  1  0
 19 18  2  0
 20 21  2  0
 20 19  1  0
 21 17  1  0
 22 21  1  0
 22 27  1  0
 23 22  2  0
 24 23  1  0
 24 25  2  0
 25 26  1  0
 26 27  2  0
  2 28  1  0
  3 29  1  0
  5 30  1  0
  6 31  1  0
  7 32  1  0
 10 33  1  0
 12 34  1  0
 16 35  1  0
 16 36  1  0
 18 37  1  0
 19 38  1  0
 23 39  1  0
 24 40  1  0
 25 41  1  0
 26 42  1  0
M  ISO  8  28  14  29   9  30  14  31  14  32  14  33  14  34  14  37  14
M  ISO  5  38  14  39  14  40  14  41  14  42  14
M  END
>  <minimizedAffinity>  (1) 
-4.98522377

>  <minimizedRMSD>  (1) 
0.961597621

$$$$
