
     RDKit          3D

 43 47  0  0  0  0  0  0  0  0999 V2000
   46.1080   33.6660   44.6760 C   0  0  0  0  0  0  0  0  0  0  0  0
   45.4420   34.5570   45.5540 C   0  0  0  0  0  0  0  0  0  0  0  0
   45.1280   33.9090   46.6880 N   0  0  0  0  0  0  0  0  0  0  0  0
   45.5500   32.6270   46.6170 C   0  0  0  0  0  0  0  0  0  0  0  0
   45.4860   31.5890   47.5050 C   0  0  0  0  0  0  0  0  0  0  0  0
   46.0410   30.3510   47.1500 C   0  0  0  0  0  0  0  0  0  0  0  0
   46.6450   30.1790   45.9120 C   0  0  0  0  0  0  0  0  0  0  0  0
   46.6760   31.2670   45.0600 C   0  0  0  0  0  0  0  0  0  0  0  0
   46.1490   32.4850   45.3780 C   0  0  0  0  0  0  0  0  0  0  0  0
   48.6060   34.3630   42.1220 C   0  0  0  0  0  0  0  0  0  0  0  0
   47.7950   34.5300   40.9610 C   0  0  0  0  0  0  0  0  0  0  0  0
   46.3820   34.3950   41.0640 C   0  0  0  0  0  0  0  0  0  0  0  0
   45.8500   34.1050   42.2930 N   0  0  0  0  0  0  0  0  0  0  0  0
   46.6500   33.9530   43.3700 C   0  0  0  0  0  0  0  0  0  0  0  0
   47.9730   34.0790   43.2800 N   0  0  0  0  0  0  0  0  0  0  0  0
   48.3740   34.8270   39.7300 N   0  0  0  0  0  0  0  0  0  0  0  0
   47.3200   30.7810   43.8980 N   0  0  0  0  0  0  0  0  0  0  0  0
   48.6700   30.5830   43.9560 C   0  0  0  0  0  0  0  0  0  0  0  0
   49.0370   30.1090   42.6800 C   0  0  0  0  0  0  0  0  0  0  0  0
   47.9350   30.0350   41.9120 N   0  0  0  0  0  0  0  0  0  0  0  0
   46.8880   30.4340   42.6270 C   0  0  0  0  0  0  0  0  0  0  0  0
   45.5130   30.5290   42.2570 C   0  0  0  0  0  0  0  0  0  0  0  0
   44.3970   30.3120   43.0060 C   0  0  0  0  0  0  0  0  0  0  0  0
   43.1120   30.4420   42.5140 C   0  0  0  0  0  0  0  0  0  0  0  0
   42.9160   30.8100   41.2000 C   0  0  0  0  0  0  0  0  0  0  0  0
   44.0050   31.0360   40.4170 C   0  0  0  0  0  0  0  0  0  0  0  0
   45.2880   30.9040   40.9210 C   0  0  0  0  0  0  0  0  0  0  0  0
   45.2176   35.6125   45.3406 H   0  0  0  0  0  0  0  0  0  0  0  0
   44.6384   34.3270   47.4921 H   0  0  0  0  0  0  0  0  0  0  0  0
   45.0053   31.7234   48.4852 H   0  0  0  0  0  0  0  0  0  0  0  0
   45.9974   29.5101   47.8577 H   0  0  0  0  0  0  0  0  0  0  0  0
   47.0826   29.2130   45.6199 H   0  0  0  0  0  0  0  0  0  0  0  0
   49.7006   34.4614   42.0759 H   0  0  0  0  0  0  0  0  0  0  0  0
   45.7357   34.5198   40.1827 H   0  0  0  0  0  0  0  0  0  0  0  0
   49.3963   34.9254   39.6521 H   0  0  0  0  0  0  0  0  0  0  0  0
   47.7800   34.9483   38.8973 H   0  0  0  0  0  0  0  0  0  0  0  0
   49.3319   30.7568   44.8172 H   0  0  0  0  0  0  0  0  0  0  0  0
   50.0567   29.8434   42.3643 H   0  0  0  0  0  0  0  0  0  0  0  0
   44.5248   30.0177   44.0582 H   0  0  0  0  0  0  0  0  0  0  0  0
   42.2486   30.2525   43.1687 H   0  0  0  0  0  0  0  0  0  0  0  0
   41.8998   30.9186   40.7931 H   0  0  0  0  0  0  0  0  0  0  0  0
   43.8642   31.3285   39.3660 H   0  0  0  0  0  0  0  0  0  0  0  0
   46.1482   31.0964   40.2629 H   0  0  0  0  0  0  0  0  0  0  0  0
  1  9  1  0
  1  2  2  0
  2  3  1  0
  4  3  1  0
  4  5  2  0
  6  5  1  0
  7  6  2  0
  8  9  2  0
  8  7  1  0
  9  4  1  0
 10 15  2  0
 11 12  2  0
 11 10  1  0
 12 13  1  0
 13 14  2  0
 14  1  1  0
 15 14  1  0
 16 11  1  0
 17 18  1  0
 17  8  1  0
 19 18  2  0
 20 21  2  0
 20 19  1  0
 21 17  1  0
 22 21  1  0
 22 23  2  0
 24 23  1  0
 25 24  2  0
 26 27  2  0
 26 25  1  0
 27 22  1  0
  2 28  1  0
  3 29  1  0
  5 30  1  0
  6 31  1  0
  7 32  1  0
 10 33  1  0
 12 34  1  0
 16 35  1  0
 16 36  1  0
 18 37  1  0
 19 38  1  0
 23 39  1  0
 24 40  1  0
 25 41  1  0
 26 42  1  0
 27 43  1  0
M  ISO  8  28  14  29   9  30  14  31  14  32  14  33  14  34  14  37  14
M  ISO  6  38  14  39  14  40  14  41  14  42  14  43  14
M  END
>  <minimizedAffinity>  (1) 
-4.97707605

>  <minimizedRMSD>  (1) 
0.98224926

$$$$
