
     RDKit          3D

 35 38  0  0  0  0  0  0  0  0999 V2000
   46.3940   33.5670   44.5020 C   0  0  0  0  0  0  0  0  0  0  0  0
   45.6440   34.3690   45.3970 C   0  0  0  0  0  0  0  0  0  0  0  0
   45.3350   33.6480   46.4870 N   0  0  0  0  0  0  0  0  0  0  0  0
   45.8390   32.3980   46.3720 C   0  0  0  0  0  0  0  0  0  0  0  0
   45.8090   31.3120   47.2010 C   0  0  0  0  0  0  0  0  0  0  0  0
   46.4450   30.1310   46.8030 C   0  0  0  0  0  0  0  0  0  0  0  0
   47.0990   30.0630   45.5790 C   0  0  0  0  0  0  0  0  0  0  0  0
   47.0940   31.1900   44.7900 C   0  0  0  0  0  0  0  0  0  0  0  0
   46.4880   32.3490   45.1510 C   0  0  0  0  0  0  0  0  0  0  0  0
   47.7970   30.8030   43.6180 N   0  0  0  0  0  0  0  0  0  0  0  0
   49.1340   30.5820   43.7190 C   0  0  0  0  0  0  0  0  0  0  0  0
   49.5560   30.2180   42.4260 C   0  0  0  0  0  0  0  0  0  0  0  0
   48.4970   30.2250   41.5940 N   0  0  0  0  0  0  0  0  0  0  0  0
   47.4270   30.5760   42.2940 C   0  0  0  0  0  0  0  0  0  0  0  0
   46.0600   30.7420   41.9270 N   0  0  0  0  0  0  0  0  0  0  0  0
   48.8860   34.7050   42.1100 C   0  0  0  0  0  0  0  0  0  0  0  0
   48.1240   34.7420   40.9080 C   0  0  0  0  0  0  0  0  0  0  0  0
   46.7600   34.3710   40.9120 C   0  0  0  0  0  0  0  0  0  0  0  0
   46.2070   33.9800   42.1050 N   0  0  0  0  0  0  0  0  0  0  0  0
   46.9510   33.9540   43.2310 C   0  0  0  0  0  0  0  0  0  0  0  0
   48.2380   34.3050   43.2250 N   0  0  0  0  0  0  0  0  0  0  0  0
   48.7270   35.1490   39.7100 N   0  0  0  0  0  0  0  0  0  0  0  0
   45.3594   35.4177   45.2260 H   0  0  0  0  0  0  0  0  0  0  0  0
   44.7941   33.9955   47.2917 H   0  0  0  0  0  0  0  0  0  0  0  0
   45.2909   31.3657   48.1699 H   0  0  0  0  0  0  0  0  0  0  0  0
   46.4271   29.2512   47.4630 H   0  0  0  0  0  0  0  0  0  0  0  0
   47.6027   29.1412   45.2526 H   0  0  0  0  0  0  0  0  0  0  0  0
   49.7563   30.6692   44.6219 H   0  0  0  0  0  0  0  0  0  0  0  0
   50.5883   29.9673   42.1403 H   0  0  0  0  0  0  0  0  0  0  0  0
   45.3676   31.0262   42.6347 H   0  0  0  0  0  0  0  0  0  0  0  0
   45.7644   30.5778   40.9541 H   0  0  0  0  0  0  0  0  0  0  0  0
   49.9488   34.9879   42.1294 H   0  0  0  0  0  0  0  0  0  0  0  0
   46.1618   34.3950   39.9892 H   0  0  0  0  0  0  0  0  0  0  0  0
   49.7205   35.4207   39.6998 H   0  0  0  0  0  0  0  0  0  0  0  0
   48.1767   35.1764   38.8398 H   0  0  0  0  0  0  0  0  0  0  0  0
  1  9  1  0
  1  2  2  0
  2  3  1  0
  4  3  1  0
  4  5  2  0
  6  5  1  0
  7  6  2  0
  8  9  2  0
  8  7  1  0
  9  4  1  0
 10 11  1  0
 10  8  1  0
 12 11  2  0
 13 14  2  0
 13 12  1  0
 14 10  1  0
 15 14  1  0
 16 21  2  0
 17 18  2  0
 17 16  1  0
 18 19  1  0
 19 20  2  0
 20  1  1  0
 21 20  1  0
 22 17  1  0
  2 23  1  0
  3 24  1  0
  5 25  1  0
  6 26  1  0
  7 27  1  0
 11 28  1  0
 12 29  1  0
 15 30  1  0
 15 31  1  0
 16 32  1  0
 18 33  1  0
 22 34  1  0
 22 35  1  0
M  ISO  8  23  14  24   9  25  14  26  14  27  14  28  14  29  14  32  14
M  ISO  1  33  14
M  END
>  <minimizedAffinity>  (1) 
-4.95422173

>  <minimizedRMSD>  (1) 
0.0277029797

$$$$
