
     RDKit          3D

 34 37  0  0  0  0  0  0  0  0999 V2000
   46.3820   33.5680   44.5120 C   0  0  0  0  0  0  0  0  0  0  0  0
   45.6510   34.3760   45.4130 C   0  0  0  0  0  0  0  0  0  0  0  0
   45.3370   33.6510   46.4980 N   0  0  0  0  0  0  0  0  0  0  0  0
   45.8200   32.3960   46.3710 C   0  0  0  0  0  0  0  0  0  0  0  0
   45.7790   31.2960   47.1910 C   0  0  0  0  0  0  0  0  0  0  0  0
   46.3920   30.1120   46.7800 C   0  0  0  0  0  0  0  0  0  0  0  0
   47.0380   30.0370   45.5520 C   0  0  0  0  0  0  0  0  0  0  0  0
   47.0450   31.1780   44.7730 C   0  0  0  0  0  0  0  0  0  0  0  0
   46.4600   32.3480   45.1460 C   0  0  0  0  0  0  0  0  0  0  0  0
   48.8760   34.6750   42.1030 C   0  0  0  0  0  0  0  0  0  0  0  0
   48.1120   34.7400   40.9050 C   0  0  0  0  0  0  0  0  0  0  0  0
   46.7520   34.3990   40.9240 C   0  0  0  0  0  0  0  0  0  0  0  0
   46.2120   34.0120   42.1160 N   0  0  0  0  0  0  0  0  0  0  0  0
   46.9430   33.9550   43.2450 C   0  0  0  0  0  0  0  0  0  0  0  0
   48.2340   34.2790   43.2230 N   0  0  0  0  0  0  0  0  0  0  0  0
   48.7220   35.1400   39.7220 N   0  0  0  0  0  0  0  0  0  0  0  0
   47.7420   30.7880   43.6010 N   0  0  0  0  0  0  0  0  0  0  0  0
   49.1090   30.7170   43.6630 C   0  0  0  0  0  0  0  0  0  0  0  0
   49.5150   30.3140   42.3740 C   0  0  0  0  0  0  0  0  0  0  0  0
   48.4290   30.1570   41.5900 N   0  0  0  0  0  0  0  0  0  0  0  0
   47.3530   30.4360   42.3110 C   0  0  0  0  0  0  0  0  0  0  0  0
   45.6300   30.3840   41.8620 S   0  0  0  0  0  0  0  0  0  0  0  0
   45.3825   35.4303   45.2507 H   0  0  0  0  0  0  0  0  0  0  0  0
   44.8058   34.0003   47.3084 H   0  0  0  0  0  0  0  0  0  0  0  0
   45.2674   31.3475   48.1634 H   0  0  0  0  0  0  0  0  0  0  0  0
   46.3636   29.2286   47.4349 H   0  0  0  0  0  0  0  0  0  0  0  0
   47.5229   29.1091   45.2146 H   0  0  0  0  0  0  0  0  0  0  0  0
   49.9444   34.9362   42.1165 H   0  0  0  0  0  0  0  0  0  0  0  0
   46.1416   34.4420   40.0099 H   0  0  0  0  0  0  0  0  0  0  0  0
   49.7215   35.3888   39.7165 H   0  0  0  0  0  0  0  0  0  0  0  0
   48.1746   35.1876   38.8508 H   0  0  0  0  0  0  0  0  0  0  0  0
   49.7510   30.9286   44.5308 H   0  0  0  0  0  0  0  0  0  0  0  0
   50.5560   30.1527   42.0572 H   0  0  0  0  0  0  0  0  0  0  0  0
   44.8629   30.3608   42.9968 H   0  0  0  0  0  0  0  0  0  0  0  0
  1  9  1  0
  1  2  2  0
  2  3  1  0
  4  3  1  0
  4  5  2  0
  6  5  1  0
  7  6  2  0
  8  9  2  0
  8  7  1  0
  9  4  1  0
 10 15  2  0
 11 12  2  0
 11 10  1  0
 12 13  1  0
 13 14  2  0
 14  1  1  0
 15 14  1  0
 16 11  1  0
 17 18  1  0
 17  8  1  0
 19 18  2  0
 20 21  2  0
 20 19  1  0
 21 17  1  0
 22 21  1  0
  2 23  1  0
  3 24  1  0
  5 25  1  0
  6 26  1  0
  7 27  1  0
 10 28  1  0
 12 29  1  0
 16 30  1  0
 16 31  1  0
 18 32  1  0
 19 33  1  0
 22 34  1  0
M  ISO  8  23  14  24   9  25  14  26  14  27  14  28  14  29  14  32  14
M  ISO  2  33  14  34  11
M  END
>  <minimizedAffinity>  (1) 
-4.88301039

>  <minimizedRMSD>  (1) 
0.112814158

$$$$
