
     RDKit          3D

 46 50  0  0  0  0  0  0  0  0999 V2000
   45.8670   33.8400   44.8340 C   0  0  0  0  0  0  0  0  0  0  0  0
   45.1460   34.7770   45.6040 C   0  0  0  0  0  0  0  0  0  0  0  0
   44.8160   34.2140   46.7820 N   0  0  0  0  0  0  0  0  0  0  0  0
   45.2830   32.9500   46.8330 C   0  0  0  0  0  0  0  0  0  0  0  0
   45.2310   31.9760   47.8050 C   0  0  0  0  0  0  0  0  0  0  0  0
   45.8410   30.7390   47.5750 C   0  0  0  0  0  0  0  0  0  0  0  0
   46.4940   30.4960   46.3640 C   0  0  0  0  0  0  0  0  0  0  0  0
   46.5090   31.5070   45.4310 C   0  0  0  0  0  0  0  0  0  0  0  0
   45.9270   32.7220   45.6320 C   0  0  0  0  0  0  0  0  0  0  0  0
   48.4160   34.3460   42.2730 C   0  0  0  0  0  0  0  0  0  0  0  0
   47.6140   34.4460   41.1040 C   0  0  0  0  0  0  0  0  0  0  0  0
   46.2180   34.3370   41.1830 C   0  0  0  0  0  0  0  0  0  0  0  0
   45.6710   34.1330   42.4150 N   0  0  0  0  0  0  0  0  0  0  0  0
   46.4380   34.0400   43.5190 C   0  0  0  0  0  0  0  0  0  0  0  0
   47.7610   34.1440   43.4370 N   0  0  0  0  0  0  0  0  0  0  0  0
   48.2190   34.6550   39.8630 N   0  0  0  0  0  0  0  0  0  0  0  0
   47.1880   30.9370   44.3250 N   0  0  0  0  0  0  0  0  0  0  0  0
   48.5240   30.7120   44.4540 C   0  0  0  0  0  0  0  0  0  0  0  0
   48.9330   30.1650   43.2190 C   0  0  0  0  0  0  0  0  0  0  0  0
   47.8670   30.0750   42.4010 N   0  0  0  0  0  0  0  0  0  0  0  0
   46.8070   30.5340   43.0500 C   0  0  0  0  0  0  0  0  0  0  0  0
   45.4150   30.6190   42.5870 C   0  0  0  0  0  0  0  0  0  0  0  0
   45.3710   30.2380   41.1330 C   0  0  0  0  0  0  0  0  0  0  0  0
   45.2890   28.7050   41.1890 C   0  0  0  0  0  0  0  0  0  0  0  0
   44.2480   28.5050   42.2480 C   0  0  0  0  0  0  0  0  0  0  0  0
   44.4860   29.6240   43.2080 C   0  0  0  0  0  0  0  0  0  0  0  0
   44.8942   35.8015   45.2925 H   0  0  0  0  0  0  0  0  0  0  0  0
   44.2858   34.6796   47.5324 H   0  0  0  0  0  0  0  0  0  0  0  0
   44.7131   32.1697   48.7559 H   0  0  0  0  0  0  0  0  0  0  0  0
   45.8067   29.9569   48.3478 H   0  0  0  0  0  0  0  0  0  0  0  0
   46.9795   29.5295   46.1634 H   0  0  0  0  0  0  0  0  0  0  0  0
   49.5121   34.4287   42.2321 H   0  0  0  0  0  0  0  0  0  0  0  0
   45.5880   34.4133   40.2845 H   0  0  0  0  0  0  0  0  0  0  0  0
   49.2437   34.7361   39.7967 H   0  0  0  0  0  0  0  0  0  0  0  0
   47.6406   34.7280   39.0139 H   0  0  0  0  0  0  0  0  0  0  0  0
   49.1520   30.9137   45.3343 H   0  0  0  0  0  0  0  0  0  0  0  0
   49.9591   29.8606   42.9650 H   0  0  0  0  0  0  0  0  0  0  0  0
   45.1030   31.6441   42.8357 H   0  0  0  0  0  0  0  0  0  0  0  0
   46.2800   30.5679   40.6087 H   0  0  0  0  0  0  0  0  0  0  0  0
   44.5367   30.7004   40.5852 H   0  0  0  0  0  0  0  0  0  0  0  0
   44.9687   28.2834   40.2248 H   0  0  0  0  0  0  0  0  0  0  0  0
   46.2482   28.2101   41.4011 H   0  0  0  0  0  0  0  0  0  0  0  0
   43.2371   28.5671   41.8187 H   0  0  0  0  0  0  0  0  0  0  0  0
   44.3162   27.5167   42.7260 H   0  0  0  0  0  0  0  0  0  0  0  0
   44.9354   29.2275   44.1304 H   0  0  0  0  0  0  0  0  0  0  0  0
   43.5303   30.1125   43.4489 H   0  0  0  0  0  0  0  0  0  0  0  0
  1  2  2  0
  1  9  1  0
  2  3  1  0
  3  4  1  0
  4  5  2  0
  6  5  1  0
  7  6  2  0
  8  9  2  0
  8  7  1  0
  9  4  1  0
 10 15  2  0
 11 12  2  0
 11 10  1  0
 12 13  1  0
 13 14  2  0
 14  1  1  0
 15 14  1  0
 16 11  1  0
 17 18  1  0
 17  8  1  0
 19 18  2  0
 20 21  2  0
 20 19  1  0
 21 17  1  0
 22 21  1  0
 22 26  1  0
 23 24  1  0
 23 22  1  0
 24 25  1  0
 25 26  1  0
  2 27  1  0
  3 28  1  0
  5 29  1  0
  6 30  1  0
  7 31  1  0
 10 32  1  0
 12 33  1  0
 16 34  1  0
 16 35  1  0
 18 36  1  0
 19 37  1  0
 22 38  1  0
 23 39  1  0
 23 40  1  0
 24 41  1  0
 24 42  1  0
 25 43  1  0
 25 44  1  0
 26 45  1  0
 26 46  1  0
M  ISO  8  27  14  28   9  29  14  30  14  31  14  32  14  33  14  36  14
M  ISO  8  37  14  38  13  39  13  40  13  41  13  42  13  43  13  44  13
M  ISO  2  45  13  46  13
M  END
>  <minimizedAffinity>  (1) 
-4.79342747

>  <minimizedRMSD>  (1) 
1.56107116

$$$$
