
     RDKit          3D

 42 45  0  0  1  0  0  0  0  0999 V2000
   49.0220   33.6730   42.6090 C   0  0  2  0  0  0  0  0  0  0  0  0
   47.6510   33.9510   42.3670 C   0  0  2  0  0  0  0  0  0  0  0  0
   47.6620   35.4360   41.8860 C   0  0  0  0  0  0  0  0  0  0  0  0
   49.0520   35.8310   41.5500 C   0  0  0  0  0  0  0  0  0  0  0  0
   49.8000   35.0430   42.5350 C   0  0  0  0  0  0  0  0  0  0  0  0
   49.7750   32.8290   41.6890 C   0  0  0  0  0  0  0  0  0  0  0  0
   49.0660   32.2260   40.6750 C   0  0  0  0  0  0  0  0  0  0  0  0
   49.6550   31.3830   39.7420 C   0  0  0  0  0  0  0  0  0  0  0  0
   51.0240   31.2110   39.9220 N   0  0  0  0  0  0  0  0  0  0  0  0
   51.7080   31.7950   40.8950 C   0  0  0  0  0  0  0  0  0  0  0  0
   51.0710   32.5840   41.7500 N   0  0  0  0  0  0  0  0  0  0  0  0
   46.7170   33.8230   43.5110 C   0  0  0  0  0  0  0  0  0  0  0  0
   46.0470   34.7540   43.8880 O   0  0  0  0  0  0  0  0  0  0  0  0
   46.4630   32.6570   44.3130 C   0  0  0  0  0  0  0  0  0  0  0  0
   47.0860   32.4620   45.5450 C   0  0  0  0  0  0  0  0  0  0  0  0
   46.9410   31.3430   46.3590 C   0  0  0  0  0  0  0  0  0  0  0  0
   46.1090   30.3210   45.9180 C   0  0  0  0  0  0  0  0  0  0  0  0
   45.4620   30.4710   44.6910 C   0  0  0  0  0  0  0  0  0  0  0  0
   45.6590   31.6300   43.9390 C   0  0  0  0  0  0  0  0  0  0  0  0
   44.6310   31.5490   42.9280 C   0  0  0  0  0  0  0  0  0  0  0  0
   44.9580   31.1310   41.6290 C   0  0  0  0  0  0  0  0  0  0  0  0
   43.8960   31.2670   40.7890 N   0  0  0  0  0  0  0  0  0  0  0  0
   42.8760   31.7680   41.5130 C   0  0  0  0  0  0  0  0  0  0  0  0
   43.3600   31.9150   42.7570 N   0  0  0  0  0  0  0  0  0  0  0  0
   48.9725   33.1272   43.5627 H   0  0  0  0  0  0  0  0  0  0  0  0
   47.2677   33.2026   41.6578 H   0  0  0  0  0  0  0  0  0  0  0  0
   47.0250   35.5386   40.9951 H   0  0  0  0  0  0  0  0  0  0  0  0
   47.2768   36.0858   42.6856 H   0  0  0  0  0  0  0  0  0  0  0  0
   49.3162   35.5498   40.5199 H   0  0  0  0  0  0  0  0  0  0  0  0
   49.2428   36.9136   41.5892 H   0  0  0  0  0  0  0  0  0  0  0  0
   50.8364   34.8852   42.2020 H   0  0  0  0  0  0  0  0  0  0  0  0
   49.8644   35.5434   43.5125 H   0  0  0  0  0  0  0  0  0  0  0  0
   47.9859   32.4204   40.6005 H   0  0  0  0  0  0  0  0  0  0  0  0
   49.0904   30.8953   38.9337 H   0  0  0  0  0  0  0  0  0  0  0  0
   52.7908   31.6276   40.9925 H   0  0  0  0  0  0  0  0  0  0  0  0
   47.7496   33.2622   45.9046 H   0  0  0  0  0  0  0  0  0  0  0  0
   47.4684   31.2696   47.3215 H   0  0  0  0  0  0  0  0  0  0  0  0
   45.9637   29.4138   46.5229 H   0  0  0  0  0  0  0  0  0  0  0  0
   44.7981   29.6775   44.3172 H   0  0  0  0  0  0  0  0  0  0  0  0
   45.9432   30.7443   41.3291 H   0  0  0  0  0  0  0  0  0  0  0  0
   41.8618   32.0061   41.1599 H   0  0  0  0  0  0  0  0  0  0  0  0
   42.7872   32.2861   43.5284 H   0  0  0  0  0  0  0  0  0  0  0  0
  2  1  1  0
  2 12  1  0
  3  2  1  0
  4  3  1  0
  4  5  1  0
  5  1  1  0
  6 11  1  0
  6  1  1  0
  7  6  2  0
  8  9  2  0
  8  7  1  0
  9 10  1  0
 10 11  2  0
 12 13  2  0
 12 14  1  0
 14 15  2  0
 15 16  1  0
 17 16  2  0
 18 17  1  0
 19 14  1  0
 19 18  2  0
 20 19  1  0
 21 20  2  0
 22 23  2  0
 22 21  1  0
 23 24  1  0
 24 20  1  0
  1 25  1  1
  2 26  1  6
  3 27  1  0
  3 28  1  0
  4 29  1  0
  4 30  1  0
  5 31  1  0
  5 32  1  0
  7 33  1  0
  8 34  1  0
 10 35  1  0
 15 36  1  0
 16 37  1  0
 17 38  1  0
 18 39  1  0
 21 40  1  0
 23 41  1  0
 24 42  1  0
M  ISO  8  25  13  26  13  27  13  28  13  29  13  30  13  31  13  32  13
M  ISO  8  33  14  34  14  35  14  36  14  37  14  38  14  39  14  40  14
M  ISO  2  41  14  42   9
M  END
>  <minimizedAffinity>  (1) 
-5.4683919

>  <minimizedRMSD>  (1) 
1.82524657

$$$$
