
     RDKit          3D

 19 20  0  0  0  0  0  0  0  0999 V2000
   44.9190   34.7580   45.2790 C   0  0  0  0  0  0  0  0  0  0  0  0
   45.5500   34.7440   44.0200 C   0  0  0  0  0  0  0  0  0  0  0  0
   46.6220   33.8580   43.8420 C   0  0  0  0  0  0  0  0  0  0  0  0
   46.9900   33.0700   44.8760 N   0  0  0  0  0  0  0  0  0  0  0  0
   46.3600   33.1110   46.0730 C   0  0  0  0  0  0  0  0  0  0  0  0
   45.3240   33.9540   46.2780 N   0  0  0  0  0  0  0  0  0  0  0  0
   45.0780   35.6230   42.9880 C   0  0  0  0  0  0  0  0  0  0  0  0
   45.2150   36.8460   43.1780 O   0  0  0  0  0  0  0  0  0  0  0  0
   44.4560   35.1980   41.7430 C   0  0  0  0  0  0  0  0  0  0  0  0
   43.1680   35.5390   41.3900 C   0  0  0  0  0  0  0  0  0  0  0  0
   42.8920   34.9700   40.1430 C   0  0  0  0  0  0  0  0  0  0  0  0
   44.0120   34.3130   39.7910 N   0  0  0  0  0  0  0  0  0  0  0  0
   44.9460   34.4420   40.7330 N   0  0  0  0  0  0  0  0  0  0  0  0
   44.0750   35.4427   45.4492 H   0  0  0  0  0  0  0  0  0  0  0  0
   47.1527   33.8055   42.8799 H   0  0  0  0  0  0  0  0  0  0  0  0
   46.6946   32.4515   46.8873 H   0  0  0  0  0  0  0  0  0  0  0  0
   42.4767   36.1527   41.9863 H   0  0  0  0  0  0  0  0  0  0  0  0
   41.9559   35.0440   39.5701 H   0  0  0  0  0  0  0  0  0  0  0  0
   44.1311   33.7839   38.9153 H   0  0  0  0  0  0  0  0  0  0  0  0
  1  6  2  0
  2  1  1  0
  3  2  2  0
  3  4  1  0
  4  5  2  0
  5  6  1  0
  7  8  2  0
  7  2  1  0
  9  7  1  0
 10  9  1  0
 11 10  2  0
 12 11  1  0
 12 13  1  0
 13  9  2  0
  1 14  1  0
  3 15  1  0
  5 16  1  0
 10 17  1  0
 11 18  1  0
 12 19  1  0
M  ISO  6  14  14  15  14  16  14  17  14  18  14  19   9
M  END
>  <minimizedAffinity>  (1) 
-4.19293642

>  <minimizedRMSD>  (1) 
0.694790184

$$$$
