
     RDKit          3D

 21 22  0  0  0  0  0  0  0  0999 V2000
   44.9010   34.7460   45.2730 C   0  0  0  0  0  0  0  0  0  0  0  0
   45.5390   34.7170   44.0160 C   0  0  0  0  0  0  0  0  0  0  0  0
   46.6230   33.8460   43.8580 C   0  0  0  0  0  0  0  0  0  0  0  0
   47.0130   33.0730   44.9060 N   0  0  0  0  0  0  0  0  0  0  0  0
   46.3780   33.1310   46.0890 C   0  0  0  0  0  0  0  0  0  0  0  0
   45.3380   33.9570   46.2630 N   0  0  0  0  0  0  0  0  0  0  0  0
   45.0720   35.5620   42.9520 C   0  0  0  0  0  0  0  0  0  0  0  0
   45.2610   36.7860   43.0860 O   0  0  0  0  0  0  0  0  0  0  0  0
   44.4080   35.0790   41.7580 C   0  0  0  0  0  0  0  0  0  0  0  0
   43.1570   35.5710   41.4460 C   0  0  0  0  0  0  0  0  0  0  0  0
   42.4540   35.1720   40.3370 C   0  0  0  0  0  0  0  0  0  0  0  0
   43.1050   34.2260   39.5420 C   0  0  0  0  0  0  0  0  0  0  0  0
   44.3620   33.7070   39.8210 C   0  0  0  0  0  0  0  0  0  0  0  0
   44.9520   34.1690   40.9280 N   0  0  0  0  0  0  0  0  0  0  0  0
   44.0449   35.4162   45.4404 H   0  0  0  0  0  0  0  0  0  0  0  0
   47.1537   33.7875   42.8962 H   0  0  0  0  0  0  0  0  0  0  0  0
   46.7150   32.4951   46.9209 H   0  0  0  0  0  0  0  0  0  0  0  0
   42.7032   36.3161   42.1160 H   0  0  0  0  0  0  0  0  0  0  0  0
   41.4564   35.5662   40.0934 H   0  0  0  0  0  0  0  0  0  0  0  0
   42.5893   33.8698   38.6380 H   0  0  0  0  0  0  0  0  0  0  0  0
   44.8430   32.9613   39.1710 H   0  0  0  0  0  0  0  0  0  0  0  0
  1  6  2  0
  2  1  1  0
  3  2  2  0
  3  4  1  0
  4  5  2  0
  5  6  1  0
  7  8  2  0
  7  2  1  0
  9  7  1  0
 10  9  2  0
 11 10  1  0
 12 13  1  0
 12 11  2  0
 13 14  2  0
 14  9  1  0
  1 15  1  0
  3 16  1  0
  5 17  1  0
 10 18  1  0
 11 19  1  0
 12 20  1  0
 13 21  1  0
M  ISO  7  15  14  16  14  17  14  18  14  19  14  20  14  21  14
M  END
>  <minimizedAffinity>  (1) 
-4.18957233

>  <minimizedRMSD>  (1) 
0.561387062

$$$$
