
     RDKit          3D

 20 21  0  0  0  0  0  0  0  0999 V2000
   44.8970   34.7930   45.2160 C   0  0  0  0  0  0  0  0  0  0  0  0
   45.5530   34.7820   43.9860 C   0  0  0  0  0  0  0  0  0  0  0  0
   46.6230   33.9340   43.8030 C   0  0  0  0  0  0  0  0  0  0  0  0
   47.0000   33.1280   44.8470 N   0  0  0  0  0  0  0  0  0  0  0  0
   46.3510   33.1500   46.0320 C   0  0  0  0  0  0  0  0  0  0  0  0
   45.2980   33.9870   46.2110 N   0  0  0  0  0  0  0  0  0  0  0  0
   45.0760   35.6680   42.9550 C   0  0  0  0  0  0  0  0  0  0  0  0
   45.2480   36.8950   43.0840 O   0  0  0  0  0  0  0  0  0  0  0  0
   44.4000   35.1470   41.7660 C   0  0  0  0  0  0  0  0  0  0  0  0
   43.1350   35.5720   41.4290 C   0  0  0  0  0  0  0  0  0  0  0  0
   42.5730   35.0180   40.2780 C   0  0  0  0  0  0  0  0  0  0  0  0
   43.2370   34.1100   39.5320 N   0  0  0  0  0  0  0  0  0  0  0  0
   44.4640   33.7170   39.8830 C   0  0  0  0  0  0  0  0  0  0  0  0
   45.0340   34.2320   40.9860 N   0  0  0  0  0  0  0  0  0  0  0  0
   44.0430   35.4685   45.3723 H   0  0  0  0  0  0  0  0  0  0  0  0
   47.1614   33.9039   42.8442 H   0  0  0  0  0  0  0  0  0  0  0  0
   46.6757   32.4905   46.8503 H   0  0  0  0  0  0  0  0  0  0  0  0
   42.5937   36.3119   42.0369 H   0  0  0  0  0  0  0  0  0  0  0  0
   41.5636   35.3291   39.9710 H   0  0  0  0  0  0  0  0  0  0  0  0
   45.0043   32.9773   39.2740 H   0  0  0  0  0  0  0  0  0  0  0  0
  1  6  2  0
  2  1  1  0
  3  2  2  0
  3  4  1  0
  4  5  2  0
  5  6  1  0
  7  8  2  0
  7  2  1  0
  9  7  1  0
 10  9  2  0
 11 10  1  0
 12 13  1  0
 12 11  2  0
 13 14  2  0
 14  9  1  0
  1 15  1  0
  3 16  1  0
  5 17  1  0
 10 18  1  0
 11 19  1  0
 13 20  1  0
M  ISO  6  15  14  16  14  17  14  18  14  19  14  20  14
M  END
>  <minimizedAffinity>  (1) 
-4.13841867

>  <minimizedRMSD>  (1) 
0.533522189

$$$$
