
     RDKit          3D

 20 21  0  0  0  0  0  0  0  0999 V2000
   44.8950   34.7520   45.2790 C   0  0  0  0  0  0  0  0  0  0  0  0
   45.5500   34.6860   44.0280 C   0  0  0  0  0  0  0  0  0  0  0  0
   46.6310   33.8060   43.8870 C   0  0  0  0  0  0  0  0  0  0  0  0
   47.0070   33.0470   44.9660 N   0  0  0  0  0  0  0  0  0  0  0  0
   46.3580   33.1400   46.1340 C   0  0  0  0  0  0  0  0  0  0  0  0
   45.3220   33.9770   46.2840 N   0  0  0  0  0  0  0  0  0  0  0  0
   45.0830   35.5240   42.9560 C   0  0  0  0  0  0  0  0  0  0  0  0
   45.2500   36.7520   43.0840 O   0  0  0  0  0  0  0  0  0  0  0  0
   44.4300   35.0460   41.7400 C   0  0  0  0  0  0  0  0  0  0  0  0
   43.1920   35.5660   41.4320 C   0  0  0  0  0  0  0  0  0  0  0  0
   42.5200   35.1510   40.2860 C   0  0  0  0  0  0  0  0  0  0  0  0
   43.1010   34.2240   39.4700 N   0  0  0  0  0  0  0  0  0  0  0  0
   44.3130   33.7310   39.7930 C   0  0  0  0  0  0  0  0  0  0  0  0
   44.9780   34.1330   40.9160 N   0  0  0  0  0  0  0  0  0  0  0  0
   44.0435   35.4328   45.4253 H   0  0  0  0  0  0  0  0  0  0  0  0
   47.1675   33.7253   42.9301 H   0  0  0  0  0  0  0  0  0  0  0  0
   46.6803   32.5198   46.9834 H   0  0  0  0  0  0  0  0  0  0  0  0
   42.7321   36.3133   42.0954 H   0  0  0  0  0  0  0  0  0  0  0  0
   41.5312   35.5657   40.0406 H   0  0  0  0  0  0  0  0  0  0  0  0
   44.7795   32.9841   39.1338 H   0  0  0  0  0  0  0  0  0  0  0  0
  1  6  2  0
  2  1  1  0
  3  2  2  0
  3  4  1  0
  4  5  2  0
  5  6  1  0
  7  8  2  0
  7  2  1  0
  9  7  1  0
 10  9  2  0
 11 10  1  0
 12 13  1  0
 12 11  2  0
 13 14  2  0
 14  9  1  0
  1 15  1  0
  3 16  1  0
  5 17  1  0
 10 18  1  0
 11 19  1  0
 13 20  1  0
M  ISO  6  15  14  16  14  17  14  18  14  19  14  20  14
M  END
>  <minimizedAffinity>  (1) 
-4.0867672

>  <minimizedRMSD>  (1) 
0.711912453

$$$$
