
     RDKit          3D

 25 26  0  0  0  0  0  0  0  0999 V2000
   44.8400   34.9820   45.1700 C   0  0  0  0  0  0  0  0  0  0  0  0
   45.4750   35.1210   43.9380 C   0  0  0  0  0  0  0  0  0  0  0  0
   46.5260   34.2660   43.6680 C   0  0  0  0  0  0  0  0  0  0  0  0
   46.9020   33.3330   44.5970 N   0  0  0  0  0  0  0  0  0  0  0  0
   46.2520   33.2350   45.7850 C   0  0  0  0  0  0  0  0  0  0  0  0
   45.2260   34.0580   46.0650 N   0  0  0  0  0  0  0  0  0  0  0  0
   45.0250   36.1260   43.0110 C   0  0  0  0  0  0  0  0  0  0  0  0
   45.2280   37.3160   43.3080 O   0  0  0  0  0  0  0  0  0  0  0  0
   44.3470   35.6980   41.7590 C   0  0  0  0  0  0  0  0  0  0  0  0
   42.9580   35.1640   41.9820 C   0  0  0  0  0  0  0  0  0  0  0  0
   42.6820   34.4760   40.6440 C   0  0  0  0  0  0  0  0  0  0  0  0
   43.9880   33.8830   40.2310 C   0  0  0  0  0  0  0  0  0  0  0  0
   45.0450   34.5140   41.1200 C   0  0  0  0  0  0  0  0  0  0  0  0
   43.9994   35.6472   45.4166 H   0  0  0  0  0  0  0  0  0  0  0  0
   47.0597   34.3346   42.7086 H   0  0  0  0  0  0  0  0  0  0  0  0
   46.5657   32.4799   46.5209 H   0  0  0  0  0  0  0  0  0  0  0  0
   44.3541   36.6116   41.1464 H   0  0  0  0  0  0  0  0  0  0  0  0
   42.9313   34.4474   42.8161 H   0  0  0  0  0  0  0  0  0  0  0  0
   42.2189   35.9318   42.2542 H   0  0  0  0  0  0  0  0  0  0  0  0
   41.9223   33.6896   40.7643 H   0  0  0  0  0  0  0  0  0  0  0  0
   42.2945   35.1797   39.8926 H   0  0  0  0  0  0  0  0  0  0  0  0
   43.9727   32.7924   40.3734 H   0  0  0  0  0  0  0  0  0  0  0  0
   44.1947   34.0746   39.1677 H   0  0  0  0  0  0  0  0  0  0  0  0
   45.3833   33.8019   41.8871 H   0  0  0  0  0  0  0  0  0  0  0  0
   45.9417   34.8116   40.5566 H   0  0  0  0  0  0  0  0  0  0  0  0
  1  6  2  0
  2  1  1  0
  3  2  2  0
  3  4  1  0
  4  5  2  0
  5  6  1  0
  7  8  2  0
  7  2  1  0
  9 10  1  0
  9  7  1  0
 11 10  1  0
 12 11  1  0
 12 13  1  0
 13  9  1  0
  1 14  1  0
  3 15  1  0
  5 16  1  0
  9 17  1  0
 10 18  1  0
 10 19  1  0
 11 20  1  0
 11 21  1  0
 12 22  1  0
 12 23  1  0
 13 24  1  0
 13 25  1  0
M  ISO  8  14  14  15  14  16  14  17  13  18  13  19  13  20  13  21  13
M  ISO  4  22  13  23  13  24  13  25  13
M  END
>  <minimizedAffinity>  (1) 
-4.00821114

>  <minimizedRMSD>  (1) 
0.298322082

$$$$
