
     RDKit          3D

 19 20  0  0  0  0  0  0  0  0999 V2000
   44.8750   34.8220   45.2490 C   0  0  0  0  0  0  0  0  0  0  0  0
   45.5000   34.8560   44.0060 C   0  0  0  0  0  0  0  0  0  0  0  0
   46.5700   34.0120   43.7860 C   0  0  0  0  0  0  0  0  0  0  0  0
   46.9830   33.1740   44.7890 N   0  0  0  0  0  0  0  0  0  0  0  0
   46.3570   33.1610   45.9940 C   0  0  0  0  0  0  0  0  0  0  0  0
   45.3010   33.9830   46.2310 N   0  0  0  0  0  0  0  0  0  0  0  0
   45.0050   35.7600   43.0150 C   0  0  0  0  0  0  0  0  0  0  0  0
   45.2510   36.9640   43.1280 O   0  0  0  0  0  0  0  0  0  0  0  0
   44.2190   35.2490   41.8920 C   0  0  0  0  0  0  0  0  0  0  0  0
   42.9060   35.5160   41.4900 C   0  0  0  0  0  0  0  0  0  0  0  0
   42.4470   34.8720   40.3770 C   0  0  0  0  0  0  0  0  0  0  0  0
   43.3160   33.9830   39.7040 C   0  0  0  0  0  0  0  0  0  0  0  0
   44.8460   34.0690   40.6970 S   0  0  0  0  0  0  0  0  0  0  0  0
   44.0198   35.4867   45.4410 H   0  0  0  0  0  0  0  0  0  0  0  0
   47.0864   34.0120   42.8148 H   0  0  0  0  0  0  0  0  0  0  0  0
   46.7072   32.4803   46.7839 H   0  0  0  0  0  0  0  0  0  0  0  0
   42.2685   36.2171   42.0485 H   0  0  0  0  0  0  0  0  0  0  0  0
   41.4232   35.0412   40.0119 H   0  0  0  0  0  0  0  0  0  0  0  0
   43.1186   33.3852   38.8020 H   0  0  0  0  0  0  0  0  0  0  0  0
  1  6  2  0
  2  1  1  0
  3  2  2  0
  3  4  1  0
  4  5  2  0
  5  6  1  0
  7  8  2  0
  7  2  1  0
  9  7  1  0
 10  9  2  0
 11 10  1  0
 12 11  2  0
 12 13  1  0
 13  9  1  0
  1 14  1  0
  3 15  1  0
  5 16  1  0
 10 17  1  0
 11 18  1  0
 12 19  1  0
M  ISO  6  14  14  15  14  16  14  17  14  18  14  19  14
M  END
>  <minimizedAffinity>  (1) 
-3.9833765

>  <minimizedRMSD>  (1) 
0.648991585

$$$$
