
     RDKit          3D

 17 18  0  0  0  0  0  0  0  0999 V2000
   44.8900   34.8300   45.2530 C   0  0  0  0  0  0  0  0  0  0  0  0
   45.5230   34.8470   43.9980 C   0  0  0  0  0  0  0  0  0  0  0  0
   46.5890   33.9640   43.7870 C   0  0  0  0  0  0  0  0  0  0  0  0
   46.9640   33.1360   44.7900 N   0  0  0  0  0  0  0  0  0  0  0  0
   46.3270   33.1500   45.9850 C   0  0  0  0  0  0  0  0  0  0  0  0
   45.2910   33.9920   46.2220 N   0  0  0  0  0  0  0  0  0  0  0  0
   45.0390   35.7710   43.0060 C   0  0  0  0  0  0  0  0  0  0  0  0
   45.2290   36.9840   43.2000 O   0  0  0  0  0  0  0  0  0  0  0  0
   44.3530   35.2840   41.8220 C   0  0  0  0  0  0  0  0  0  0  0  0
   44.8210   34.4310   40.8830 N   0  0  0  0  0  0  0  0  0  0  0  0
   43.8720   34.2790   40.0140 O   0  0  0  0  0  0  0  0  0  0  0  0
   42.8060   34.9550   40.2850 C   0  0  0  0  0  0  0  0  0  0  0  0
   43.1070   35.5910   41.4290 N   0  0  0  0  0  0  0  0  0  0  0  0
   44.0513   35.5155   45.4444 H   0  0  0  0  0  0  0  0  0  0  0  0
   47.1139   33.9435   42.8205 H   0  0  0  0  0  0  0  0  0  0  0  0
   46.6568   32.4644   46.7795 H   0  0  0  0  0  0  0  0  0  0  0  0
   41.8683   34.9997   39.7117 H   0  0  0  0  0  0  0  0  0  0  0  0
  1  6  2  0
  2  1  1  0
  3  2  2  0
  3  4  1  0
  4  5  2  0
  5  6  1  0
  7  8  2  0
  7  2  1  0
  9  7  1  0
 10  9  2  0
 11 12  1  0
 11 10  1  0
 12 13  2  0
 13  9  1  0
  1 14  1  0
  3 15  1  0
  5 16  1  0
 12 17  1  0
M  ISO  4  14  14  15  14  16  14  17  14
M  END
>  <minimizedAffinity>  (1) 
-3.95660639

>  <minimizedRMSD>  (1) 
0.365356803

$$$$
