
     RDKit          3D

 40 43  0  0  1  0  0  0  0  0999 V2000
   45.1660   35.1300   42.9300 C   0  0  0  0  0  0  0  0  0  0  0  0
   45.3800   36.3680   42.9850 O   0  0  0  0  0  0  0  0  0  0  0  0
   44.3860   34.7790   41.7810 N   0  0  0  0  0  0  0  0  0  0  0  0
   43.2740   35.6440   41.4850 C   0  0  0  0  0  0  0  0  0  0  0  0
   42.1180   34.6490   41.2360 C   0  0  0  0  0  0  0  0  0  0  0  0
   42.4720   34.0490   39.9590 N   0  0  0  0  0  0  0  0  0  0  0  0
   43.5380   33.1190   40.1790 C   0  0  0  0  0  0  0  0  0  0  0  0
   44.6820   33.6340   40.9640 C   0  0  1  0  0  0  0  0  0  0  0  0
   45.9050   33.7790   40.2010 N   0  0  0  0  0  0  0  0  0  0  0  0
   47.0590   34.2060   40.7580 C   0  0  0  0  0  0  0  0  0  0  0  0
   48.0160   34.2400   39.8100 N   0  0  0  0  0  0  0  0  0  0  0  0
   47.4770   33.8370   38.6490 C   0  0  0  0  0  0  0  0  0  0  0  0
   47.9100   33.6550   37.3500 C   0  0  0  0  0  0  0  0  0  0  0  0
   49.1160   33.9110   37.0990 O   0  0  0  0  0  0  0  0  0  0  0  0
   47.0830   33.2190   36.3810 N   0  0  0  0  0  0  0  0  0  0  0  0
   45.7960   32.9470   36.6530 C   0  0  0  0  0  0  0  0  0  0  0  0
   45.0160   32.4950   35.5590 N   0  0  0  0  0  0  0  0  0  0  0  0
   45.3490   33.1160   37.9170 N   0  0  0  0  0  0  0  0  0  0  0  0
   46.1470   33.5490   38.9090 C   0  0  0  0  0  0  0  0  0  0  0  0
   45.1390   34.3930   45.2620 C   0  0  0  0  0  0  0  0  0  0  0  0
   45.7060   34.3190   43.9720 C   0  0  0  0  0  0  0  0  0  0  0  0
   46.7620   33.4510   43.7790 C   0  0  0  0  0  0  0  0  0  0  0  0
   47.2180   32.7030   44.8260 N   0  0  0  0  0  0  0  0  0  0  0  0
   46.6550   32.7940   46.0550 C   0  0  0  0  0  0  0  0  0  0  0  0
   45.6130   33.6420   46.2750 N   0  0  0  0  0  0  0  0  0  0  0  0
   43.0503   36.3056   42.3349 H   0  0  0  0  0  0  0  0  0  0  0  0
   43.4605   36.3146   40.6332 H   0  0  0  0  0  0  0  0  0  0  0  0
   42.0720   33.8896   42.0304 H   0  0  0  0  0  0  0  0  0  0  0  0
   41.1277   35.1277   41.2303 H   0  0  0  0  0  0  0  0  0  0  0  0
   42.7788   34.7816   39.3032 H   0  0  0  0  0  0  0  0  0  0  0  0
   43.1249   32.2502   40.7124 H   0  0  0  0  0  0  0  0  0  0  0  0
   43.9391   32.8789   39.1833 H   0  0  0  0  0  0  0  0  0  0  0  0
   44.8805   32.8261   41.6836 H   0  0  0  0  0  0  0  0  0  0  0  0
   47.1955   34.4813   41.8142 H   0  0  0  0  0  0  0  0  0  0  0  0
   47.4402   33.0930   35.4232 H   0  0  0  0  0  0  0  0  0  0  0  0
   44.0207   32.2677   35.6952 H   0  0  0  0  0  0  0  0  0  0  0  0
   45.4446   32.3938   34.6279 H   0  0  0  0  0  0  0  0  0  0  0  0
   44.2956   35.0755   45.4436 H   0  0  0  0  0  0  0  0  0  0  0  0
   47.2326   33.3627   42.7887 H   0  0  0  0  0  0  0  0  0  0  0  0
   47.0424   32.1787   46.8804 H   0  0  0  0  0  0  0  0  0  0  0  0
  1  2  2  0
  1 21  1  0
  3  1  1  0
  4  3  1  0
  5  4  1  0
  6  7  1  0
  6  5  1  0
  7  8  1  0
  8  3  1  0
  9 10  1  0
  9  8  1  0
 11 10  2  0
 12 19  2  0
 12 11  1  0
 13 12  1  0
 14 13  2  0
 15 16  1  0
 15 13  1  0
 16 18  2  0
 17 16  1  0
 18 19  1  0
 19  9  1  0
 20 25  2  0
 21 20  1  0
 22 21  2  0
 22 23  1  0
 23 24  2  0
 24 25  1  0
  4 26  1  0
  4 27  1  0
  5 28  1  0
  5 29  1  0
  6 30  1  0
  7 31  1  0
  7 32  1  0
  8 33  1  1
 10 34  1  0
 15 35  1  0
 17 36  1  0
 17 37  1  0
 20 38  1  0
 22 39  1  0
 24 40  1  0
M  ISO  8  26  13  27  13  28  13  29  13  30   5  31  13  32  13  33  13
M  ISO  5  34  14  35   9  38  14  39  14  40  14
M  END
>  <minimizedAffinity>  (1) 
-6.43507719

>  <minimizedRMSD>  (1) 
1.31625009

$$$$
