
     RDKit          3D

 41 43  0  0  1  0  0  0  0  0999 V2000
   45.1630   35.2640   43.4180 C   0  0  0  0  0  0  0  0  0  0  0  0
   45.1300   36.5170   43.5710 O   0  0  0  0  0  0  0  0  0  0  0  0
   45.0160   34.9010   42.0390 N   0  0  0  0  0  0  0  0  0  0  0  0
   44.0090   35.6160   41.3030 C   0  0  0  0  0  0  0  0  0  0  0  0
   43.2520   34.4900   40.5620 C   0  0  0  0  0  0  0  0  0  0  0  0
   44.2120   34.0550   39.5590 N   0  0  0  0  0  0  0  0  0  0  0  0
   45.1920   33.2410   40.2290 C   0  0  0  0  0  0  0  0  0  0  0  0
   45.8160   33.8810   41.4160 C   0  0  1  0  0  0  0  0  0  0  0  0
   44.7180   34.8720   45.7910 C   0  0  0  0  0  0  0  0  0  0  0  0
   45.3310   34.4650   44.5860 C   0  0  0  0  0  0  0  0  0  0  0  0
   46.0660   33.2940   44.5870 C   0  0  0  0  0  0  0  0  0  0  0  0
   46.1760   32.5710   45.7490 N   0  0  0  0  0  0  0  0  0  0  0  0
   45.5760   32.9870   46.8890 C   0  0  0  0  0  0  0  0  0  0  0  0
   44.8460   34.1370   46.9150 N   0  0  0  0  0  0  0  0  0  0  0  0
   47.2080   34.2520   41.2520 N   0  0  0  0  0  0  0  0  0  0  0  0
   48.1250   33.2130   41.6020 C   0  0  0  0  0  0  0  0  0  0  0  0
   49.0800   33.5720   42.7120 C   0  0  0  0  0  0  0  0  0  0  0  0
   49.8880   34.8050   42.4010 C   0  0  0  0  0  0  0  0  0  0  0  0
   48.9970   35.7680   41.6630 C   0  0  0  0  0  0  0  0  0  0  0  0
   47.5320   35.4790   41.9140 C   0  0  0  0  0  0  0  0  0  0  0  0
   43.3378   36.1633   41.9813 H   0  0  0  0  0  0  0  0  0  0  0  0
   44.4258   36.3758   40.6255 H   0  0  0  0  0  0  0  0  0  0  0  0
   42.9963   33.6683   41.2471 H   0  0  0  0  0  0  0  0  0  0  0  0
   42.2955   34.8213   40.1315 H   0  0  0  0  0  0  0  0  0  0  0  0
   44.6674   34.8727   39.1290 H   0  0  0  0  0  0  0  0  0  0  0  0
   44.7015   32.3127   40.5571 H   0  0  0  0  0  0  0  0  0  0  0  0
   46.0018   33.0665   39.5053 H   0  0  0  0  0  0  0  0  0  0  0  0
   45.8407   33.0619   42.1498 H   0  0  0  0  0  0  0  0  0  0  0  0
   44.1284   35.8004   45.8136 H   0  0  0  0  0  0  0  0  0  0  0  0
   46.5574   32.9453   43.6667 H   0  0  0  0  0  0  0  0  0  0  0  0
   45.6792   32.3887   47.8063 H   0  0  0  0  0  0  0  0  0  0  0  0
   47.5443   32.3341   41.9188 H   0  0  0  0  0  0  0  0  0  0  0  0
   48.7390   33.0228   40.7093 H   0  0  0  0  0  0  0  0  0  0  0  0
   48.5020   33.7513   43.6306 H   0  0  0  0  0  0  0  0  0  0  0  0
   49.7820   32.7339   42.8333 H   0  0  0  0  0  0  0  0  0  0  0  0
   50.2427   35.2649   43.3352 H   0  0  0  0  0  0  0  0  0  0  0  0
   50.7629   34.5450   41.7871 H   0  0  0  0  0  0  0  0  0  0  0  0
   49.1973   35.6844   40.5846 H   0  0  0  0  0  0  0  0  0  0  0  0
   49.2137   36.7834   42.0262 H   0  0  0  0  0  0  0  0  0  0  0  0
   46.9152   36.2957   41.5110 H   0  0  0  0  0  0  0  0  0  0  0  0
   47.3363   35.3964   42.9933 H   0  0  0  0  0  0  0  0  0  0  0  0
  1  2  2  0
  1 10  1  0
  3  1  1  0
  4  3  1  0
  5  4  1  0
  6  7  1  0
  6  5  1  0
  7  8  1  0
  8  3  1  0
  9 14  2  0
 10 11  2  0
 10  9  1  0
 11 12  1  0
 12 13  2  0
 13 14  1  0
 15  8  1  0
 15 16  1  0
 15 20  1  0
 16 17  1  0
 18 17  1  0
 19 20  1  0
 19 18  1  0
  4 21  1  0
  4 22  1  0
  5 23  1  0
  5 24  1  0
  6 25  1  0
  7 26  1  0
  7 27  1  0
  8 28  1  1
  9 29  1  0
 11 30  1  0
 13 31  1  0
 16 32  1  0
 16 33  1  0
 17 34  1  0
 17 35  1  0
 18 36  1  0
 18 37  1  0
 19 38  1  0
 19 39  1  0
 20 40  1  0
 20 41  1  0
M  ISO  8  21  13  22  13  23  13  24  13  25   5  26  13  27  13  28  13
M  ISO  8  29  14  30  14  31  14  32  13  33  13  34  13  35  13  36  13
M  ISO  5  37  13  38  13  39  13  40  13  41  13
M  END
>  <minimizedAffinity>  (1) 
-5.81097078

>  <minimizedRMSD>  (1) 
1.19905806

$$$$
