
     RDKit          3D

 33 35  0  0  1  0  0  0  0  0999 V2000
   45.2720   35.0330   44.2980 C   0  0  0  0  0  0  0  0  0  0  0  0
   44.8690   36.1860   44.6580 O   0  0  0  0  0  0  0  0  0  0  0  0
   45.3650   34.9170   42.8850 N   0  0  0  0  0  0  0  0  0  0  0  0
   44.2260   35.4550   42.1530 C   0  0  0  0  0  0  0  0  0  0  0  0
   43.8670   34.3570   41.1580 C   0  0  0  0  0  0  0  0  0  0  0  0
   44.9980   34.3550   40.2220 N   0  0  0  0  0  0  0  0  0  0  0  0
   46.0720   33.6750   40.8850 C   0  0  0  0  0  0  0  0  0  0  0  0
   46.4620   34.3400   42.2010 C   0  0  1  0  0  0  0  0  0  0  0  0
   44.8280   34.1450   46.5450 C   0  0  0  0  0  0  0  0  0  0  0  0
   45.5440   34.1070   45.3400 C   0  0  0  0  0  0  0  0  0  0  0  0
   46.5070   33.1270   45.2360 C   0  0  0  0  0  0  0  0  0  0  0  0
   46.7380   32.2550   46.2520 N   0  0  0  0  0  0  0  0  0  0  0  0
   46.0170   32.3340   47.3980 C   0  0  0  0  0  0  0  0  0  0  0  0
   45.0700   33.2730   47.5400 N   0  0  0  0  0  0  0  0  0  0  0  0
   47.5100   35.3860   42.0080 C   0  0  0  0  0  0  0  0  0  0  0  0
   48.5920   35.3470   41.0230 C   0  0  0  0  0  0  0  0  0  0  0  0
   48.9270   34.9530   42.4020 C   0  0  0  0  0  0  0  0  0  0  0  0
   43.3848   35.6553   42.8330 H   0  0  0  0  0  0  0  0  0  0  0  0
   44.4561   36.4110   41.6599 H   0  0  0  0  0  0  0  0  0  0  0  0
   43.7739   33.3844   41.6633 H   0  0  0  0  0  0  0  0  0  0  0  0
   42.9013   34.5304   40.6606 H   0  0  0  0  0  0  0  0  0  0  0  0
   45.2743   35.3210   39.9953 H   0  0  0  0  0  0  0  0  0  0  0  0
   45.7601   32.6406   41.0916 H   0  0  0  0  0  0  0  0  0  0  0  0
   46.9486   33.7089   40.2214 H   0  0  0  0  0  0  0  0  0  0  0  0
   46.8616   33.5230   42.8197 H   0  0  0  0  0  0  0  0  0  0  0  0
   44.0476   34.9083   46.6801 H   0  0  0  0  0  0  0  0  0  0  0  0
   47.1001   33.0491   44.3128 H   0  0  0  0  0  0  0  0  0  0  0  0
   46.2100   31.6239   48.2156 H   0  0  0  0  0  0  0  0  0  0  0  0
   46.7669   36.1662   42.2296 H   0  0  0  0  0  0  0  0  0  0  0  0
   48.5758   34.5843   40.2305 H   0  0  0  0  0  0  0  0  0  0  0  0
   49.0078   36.0848   40.3210 H   0  0  0  0  0  0  0  0  0  0  0  0
   49.5523   35.6055   43.0291 H   0  0  0  0  0  0  0  0  0  0  0  0
   49.3767   34.0716   42.8826 H   0  0  0  0  0  0  0  0  0  0  0  0
  1  2  2  0
  1 10  1  0
  3  1  1  0
  4  3  1  0
  5  4  1  0
  6  7  1  0
  6  5  1  0
  7  8  1  0
  8  3  1  0
  9 14  2  0
 10  9  1  0
 11 10  2  0
 11 12  1  0
 12 13  2  0
 13 14  1  0
 15  8  1  0
 15 17  1  0
 16 15  1  0
 16 17  1  0
  4 18  1  0
  4 19  1  0
  5 20  1  0
  5 21  1  0
  6 22  1  0
  7 23  1  0
  7 24  1  0
  8 25  1  1
  9 26  1  0
 11 27  1  0
 13 28  1  0
 15 29  1  0
 16 30  1  0
 16 31  1  0
 17 32  1  0
 17 33  1  0
M  ISO  8  18  13  19  13  20  13  21  13  22   5  23  13  24  13  25  13
M  ISO  8  26  14  27  14  28  14  29  13  30  13  31  13  32  13  33  13
M  END
>  <minimizedAffinity>  (1) 
-5.23978567

>  <minimizedRMSD>  (1) 
1.89088714

$$$$
