
     RDKit          3D

 33 35  0  0  1  0  0  0  0  0999 V2000
   45.2930   34.5070   44.2010 C   0  0  0  0  0  0  0  0  0  0  0  0
   45.1350   35.6600   44.6980 O   0  0  0  0  0  0  0  0  0  0  0  0
   45.2360   34.5240   42.7880 N   0  0  0  0  0  0  0  0  0  0  0  0
   44.1890   35.3330   42.2060 C   0  0  0  0  0  0  0  0  0  0  0  0
   43.5620   34.3930   41.1550 C   0  0  0  0  0  0  0  0  0  0  0  0
   44.5790   34.3010   40.1240 N   0  0  0  0  0  0  0  0  0  0  0  0
   45.6380   33.4650   40.6020 C   0  0  0  0  0  0  0  0  0  0  0  0
   46.1470   33.7890   41.9550 C   0  0  1  0  0  0  0  0  0  0  0  0
   45.3500   33.6700   46.5040 C   0  0  0  0  0  0  0  0  0  0  0  0
   45.4920   33.4380   45.1210 C   0  0  0  0  0  0  0  0  0  0  0  0
   45.8150   32.1540   44.7380 C   0  0  0  0  0  0  0  0  0  0  0  0
   45.9830   31.1730   45.6570 N   0  0  0  0  0  0  0  0  0  0  0  0
   45.8360   31.4420   46.9790 C   0  0  0  0  0  0  0  0  0  0  0  0
   45.5180   32.6930   47.4130 N   0  0  0  0  0  0  0  0  0  0  0  0
   47.4910   34.3960   42.0010 C   0  0  0  0  0  0  0  0  0  0  0  0
   47.9920   35.5340   41.5320 C   0  0  0  0  0  0  0  0  0  0  0  0
   49.2860   35.8810   41.7010 C   0  0  0  0  0  0  0  0  0  0  0  0
   50.0630   34.9370   42.4160 C   0  0  0  0  0  0  0  0  0  0  0  0
   48.8120   33.5740   42.8000 S   0  0  0  0  0  0  0  0  0  0  0  0
   43.4487   35.6261   42.9650 H   0  0  0  0  0  0  0  0  0  0  0  0
   44.5597   36.2753   41.7762 H   0  0  0  0  0  0  0  0  0  0  0  0
   43.3528   33.4040   41.5887 H   0  0  0  0  0  0  0  0  0  0  0  0
   42.5998   34.7638   40.7721 H   0  0  0  0  0  0  0  0  0  0  0  0
   44.9460   35.2401   39.9136 H   0  0  0  0  0  0  0  0  0  0  0  0
   45.2702   32.4284   40.6178 H   0  0  0  0  0  0  0  0  0  0  0  0
   46.4824   33.6263   39.9158 H   0  0  0  0  0  0  0  0  0  0  0  0
   46.2425   32.7820   42.3872 H   0  0  0  0  0  0  0  0  0  0  0  0
   45.0937   34.6819   46.8508 H   0  0  0  0  0  0  0  0  0  0  0  0
   45.9383   31.9223   43.6698 H   0  0  0  0  0  0  0  0  0  0  0  0
   45.9762   30.6350   47.7132 H   0  0  0  0  0  0  0  0  0  0  0  0
   47.3274   36.2193   40.9854 H   0  0  0  0  0  0  0  0  0  0  0  0
   49.7036   36.8222   41.3140 H   0  0  0  0  0  0  0  0  0  0  0  0
   51.1294   34.9853   42.6816 H   0  0  0  0  0  0  0  0  0  0  0  0
  1  2  2  0
  1 10  1  0
  3  1  1  0
  4  3  1  0
  5  4  1  0
  6  7  1  0
  6  5  1  0
  7  8  1  0
  8 15  1  0
  8  3  1  0
  9 14  2  0
 10  9  1  0
 11 10  2  0
 11 12  1  0
 12 13  2  0
 13 14  1  0
 15 19  1  0
 16 17  1  0
 16 15  2  0
 17 18  2  0
 18 19  1  0
  4 20  1  0
  4 21  1  0
  5 22  1  0
  5 23  1  0
  6 24  1  0
  7 25  1  0
  7 26  1  0
  8 27  1  1
  9 28  1  0
 11 29  1  0
 13 30  1  0
 16 31  1  0
 17 32  1  0
 18 33  1  0
M  ISO  8  20  13  21  13  22  13  23  13  24   5  25  13  26  13  27  13
M  ISO  6  28  14  29  14  30  14  31  14  32  14  33  14
M  END
>  <minimizedAffinity>  (1) 
-5.23677158

>  <minimizedRMSD>  (1) 
1.92464268

$$$$
