
     RDKit          3D

 33 35  0  0  1  0  0  0  0  0999 V2000
   44.9220   35.3580   43.4140 C   0  0  0  0  0  0  0  0  0  0  0  0
   44.8870   36.5960   43.6180 O   0  0  0  0  0  0  0  0  0  0  0  0
   44.6800   35.0390   42.0390 N   0  0  0  0  0  0  0  0  0  0  0  0
   43.6120   35.7700   41.4070 C   0  0  0  0  0  0  0  0  0  0  0  0
   42.8160   34.6660   40.6800 C   0  0  0  0  0  0  0  0  0  0  0  0
   43.6970   34.2600   39.5980 N   0  0  0  0  0  0  0  0  0  0  0  0
   44.7540   33.4720   40.1450 C   0  0  0  0  0  0  0  0  0  0  0  0
   45.4390   34.0510   41.3220 C   0  0  1  0  0  0  0  0  0  0  0  0
   44.7150   34.8880   45.8060 C   0  0  0  0  0  0  0  0  0  0  0  0
   45.1860   34.5130   44.5310 C   0  0  0  0  0  0  0  0  0  0  0  0
   45.8780   33.3230   44.4320 C   0  0  0  0  0  0  0  0  0  0  0  0
   46.0820   32.5590   45.5400 N   0  0  0  0  0  0  0  0  0  0  0  0
   45.6170   32.9460   46.7540 C   0  0  0  0  0  0  0  0  0  0  0  0
   44.9300   34.1150   46.8880 N   0  0  0  0  0  0  0  0  0  0  0  0
   46.7930   34.5020   41.0920 N   0  0  0  0  0  0  0  0  0  0  0  0
   47.4060   35.1950   42.0960 C   0  0  0  0  0  0  0  0  0  0  0  0
   48.6690   35.5030   41.6290 C   0  0  0  0  0  0  0  0  0  0  0  0
   48.8250   35.0200   40.3890 N   0  0  0  0  0  0  0  0  0  0  0  0
   47.6680   34.4090   40.0750 C   0  0  0  0  0  0  0  0  0  0  0  0
   42.9869   36.2809   42.1541 H   0  0  0  0  0  0  0  0  0  0  0  0
   43.9696   36.5615   40.7320 H   0  0  0  0  0  0  0  0  0  0  0  0
   42.6096   33.8224   41.3550 H   0  0  0  0  0  0  0  0  0  0  0  0
   41.8352   35.0132   40.3229 H   0  0  0  0  0  0  0  0  0  0  0  0
   44.0882   35.0940   39.1372 H   0  0  0  0  0  0  0  0  0  0  0  0
   44.3329   32.5003   40.4424 H   0  0  0  0  0  0  0  0  0  0  0  0
   45.5174   33.4027   39.3561 H   0  0  0  0  0  0  0  0  0  0  0  0
   45.5173   33.1730   41.9800 H   0  0  0  0  0  0  0  0  0  0  0  0
   44.1605   35.8312   45.9194 H   0  0  0  0  0  0  0  0  0  0  0  0
   46.2650   32.9917   43.4571 H   0  0  0  0  0  0  0  0  0  0  0  0
   45.7955   32.3125   47.6354 H   0  0  0  0  0  0  0  0  0  0  0  0
   46.9809   35.4550   43.0767 H   0  0  0  0  0  0  0  0  0  0  0  0
   49.4323   36.0612   42.1909 H   0  0  0  0  0  0  0  0  0  0  0  0
   47.4659   33.9036   39.1191 H   0  0  0  0  0  0  0  0  0  0  0  0
  1  2  2  0
  1 10  1  0
  3  1  1  0
  4  3  1  0
  5  4  1  0
  6  7  1  0
  6  5  1  0
  7  8  1  0
  8  3  1  0
  9 14  2  0
 10  9  1  0
 11 10  2  0
 11 12  1  0
 12 13  2  0
 13 14  1  0
 15  8  1  0
 15 16  1  0
 17 16  2  0
 18 17  1  0
 19 18  2  0
 19 15  1  0
  4 20  1  0
  4 21  1  0
  5 22  1  0
  5 23  1  0
  6 24  1  0
  7 25  1  0
  7 26  1  0
  8 27  1  1
  9 28  1  0
 11 29  1  0
 13 30  1  0
 16 31  1  0
 17 32  1  0
 19 33  1  0
M  ISO  8  20  13  21  13  22  13  23  13  24   5  25  13  26  13  27  13
M  ISO  6  28  14  29  14  30  14  31  14  32  14  33  14
M  END
>  <minimizedAffinity>  (1) 
-5.1632247

>  <minimizedRMSD>  (1) 
0.762189567

$$$$
