
     RDKit          3D

 34 36  0  0  1  0  0  0  0  0999 V2000
   45.1780   35.1950   43.1180 C   0  0  0  0  0  0  0  0  0  0  0  0
   45.4450   36.4400   43.1310 O   0  0  0  0  0  0  0  0  0  0  0  0
   44.5460   34.7990   41.9100 N   0  0  0  0  0  0  0  0  0  0  0  0
   43.4820   35.6790   41.4520 C   0  0  0  0  0  0  0  0  0  0  0  0
   42.3590   34.7160   41.0910 C   0  0  0  0  0  0  0  0  0  0  0  0
   42.8630   34.0150   39.8980 N   0  0  0  0  0  0  0  0  0  0  0  0
   43.8090   33.0410   40.3520 C   0  0  0  0  0  0  0  0  0  0  0  0
   44.9250   33.6180   41.1850 C   0  0  1  0  0  0  0  0  0  0  0  0
   44.8720   34.6600   45.4920 C   0  0  0  0  0  0  0  0  0  0  0  0
   45.5480   34.4570   44.2730 C   0  0  0  0  0  0  0  0  0  0  0  0
   46.5600   33.5180   44.2740 C   0  0  0  0  0  0  0  0  0  0  0  0
   46.8790   32.8290   45.4010 N   0  0  0  0  0  0  0  0  0  0  0  0
   46.2060   33.0540   46.5540 C   0  0  0  0  0  0  0  0  0  0  0  0
   45.2080   33.9640   46.5980 N   0  0  0  0  0  0  0  0  0  0  0  0
   46.1780   33.8570   40.4140 C   0  0  0  0  0  0  0  0  0  0  0  0
   47.3760   34.4750   40.6980 C   0  0  0  0  0  0  0  0  0  0  0  0
   48.3660   34.5200   39.7420 C   0  0  0  0  0  0  0  0  0  0  0  0
   48.2050   33.9740   38.5290 N   0  0  0  0  0  0  0  0  0  0  0  0
   47.0430   33.3730   38.2470 C   0  0  0  0  0  0  0  0  0  0  0  0
   46.0880   33.3250   39.1570 N   0  0  0  0  0  0  0  0  0  0  0  0
   43.1689   36.3671   42.2511 H   0  0  0  0  0  0  0  0  0  0  0  0
   43.7861   36.3190   40.6107 H   0  0  0  0  0  0  0  0  0  0  0  0
   42.1722   34.0075   41.9114 H   0  0  0  0  0  0  0  0  0  0  0  0
   41.4028   35.2285   40.9094 H   0  0  0  0  0  0  0  0  0  0  0  0
   43.3213   34.6835   39.2624 H   0  0  0  0  0  0  0  0  0  0  0  0
   43.2744   32.2946   40.9579 H   0  0  0  0  0  0  0  0  0  0  0  0
   44.2723   32.6027   39.4557 H   0  0  0  0  0  0  0  0  0  0  0  0
   45.1391   32.8329   41.9251 H   0  0  0  0  0  0  0  0  0  0  0  0
   44.0574   35.3975   45.5431 H   0  0  0  0  0  0  0  0  0  0  0  0
   47.1180   33.3241   43.3461 H   0  0  0  0  0  0  0  0  0  0  0  0
   46.4734   32.4922   47.4611 H   0  0  0  0  0  0  0  0  0  0  0  0
   47.5412   34.9310   41.6853 H   0  0  0  0  0  0  0  0  0  0  0  0
   49.3168   35.0188   39.9811 H   0  0  0  0  0  0  0  0  0  0  0  0
   46.8838   32.9193   37.2576 H   0  0  0  0  0  0  0  0  0  0  0  0
  1  2  2  0
  1 10  1  0
  3  1  1  0
  4  3  1  0
  5  4  1  0
  6  7  1  0
  6  5  1  0
  7  8  1  0
  8  3  1  0
  9 14  2  0
 10 11  2  0
 10  9  1  0
 11 12  1  0
 12 13  2  0
 13 14  1  0
 15 16  2  0
 15  8  1  0
 17 16  1  0
 18 17  2  0
 19 18  1  0
 19 20  2  0
 20 15  1  0
  4 21  1  0
  4 22  1  0
  5 23  1  0
  5 24  1  0
  6 25  1  0
  7 26  1  0
  7 27  1  0
  8 28  1  1
  9 29  1  0
 11 30  1  0
 13 31  1  0
 16 32  1  0
 17 33  1  0
 19 34  1  0
M  ISO  8  21  13  22  13  23  13  24  13  25   5  26  13  27  13  28  13
M  ISO  6  29  14  30  14  31  14  32  14  33  14  34  14
M  END
>  <minimizedAffinity>  (1) 
-5.11574173

>  <minimizedRMSD>  (1) 
0.973407567

$$$$
