
     RDKit          3D

 39 41  0  0  1  0  0  0  0  0999 V2000
   45.3100   35.0540   42.9550 C   0  0  0  0  0  0  0  0  0  0  0  0
   45.8270   36.2050   42.8070 O   0  0  0  0  0  0  0  0  0  0  0  0
   44.3900   34.7470   41.9080 N   0  0  0  0  0  0  0  0  0  0  0  0
   43.4850   35.8070   41.5580 C   0  0  0  0  0  0  0  0  0  0  0  0
   42.1190   35.1050   41.4850 C   0  0  0  0  0  0  0  0  0  0  0  0
   42.2420   34.2700   40.2850 N   0  0  0  0  0  0  0  0  0  0  0  0
   43.0230   33.1280   40.6700 C   0  0  0  0  0  0  0  0  0  0  0  0
   44.3510   33.4780   41.2500 C   0  0  1  0  0  0  0  0  0  0  0  0
   45.0610   34.4960   45.3250 C   0  0  0  0  0  0  0  0  0  0  0  0
   45.7210   34.3030   44.0920 C   0  0  0  0  0  0  0  0  0  0  0  0
   46.7420   33.3780   44.0510 C   0  0  0  0  0  0  0  0  0  0  0  0
   47.0800   32.6880   45.1840 N   0  0  0  0  0  0  0  0  0  0  0  0
   46.4270   32.8960   46.3510 C   0  0  0  0  0  0  0  0  0  0  0  0
   45.4140   33.8040   46.4210 N   0  0  0  0  0  0  0  0  0  0  0  0
   47.4950   32.8350   38.4830 C   0  0  0  0  0  0  0  0  0  0  0  0
   46.3760   32.0470   38.3950 C   0  0  0  0  0  0  0  0  0  0  0  0
   45.3510   32.2710   39.3130 C   0  0  0  0  0  0  0  0  0  0  0  0
   45.4410   33.2420   40.2770 C   0  0  0  0  0  0  0  0  0  0  0  0
   46.6180   34.0000   40.2940 C   0  0  0  0  0  0  0  0  0  0  0  0
   47.6660   33.8170   39.4070 C   0  0  0  0  0  0  0  0  0  0  0  0
   48.7580   32.5160   37.3100 S   0  0  0  0  0  0  0  0  0  0  0  0
   50.0720   32.2290   37.9380 O   0  0  0  0  0  0  0  0  0  0  0  0
   48.8090   33.7540   36.4290 O   0  0  0  0  0  0  0  0  0  0  0  0
   43.4827   36.5921   42.3284 H   0  0  0  0  0  0  0  0  0  0  0  0
   43.7582   36.3103   40.6188 H   0  0  0  0  0  0  0  0  0  0  0  0
   41.9426   34.4890   42.3791 H   0  0  0  0  0  0  0  0  0  0  0  0
   41.2726   35.8062   41.4408 H   0  0  0  0  0  0  0  0  0  0  0  0
   42.7175   34.7912   39.5345 H   0  0  0  0  0  0  0  0  0  0  0  0
   42.4563   32.5565   41.4199 H   0  0  0  0  0  0  0  0  0  0  0  0
   43.2146   32.5467   39.7560 H   0  0  0  0  0  0  0  0  0  0  0  0
   44.5310   32.7795   42.0804 H   0  0  0  0  0  0  0  0  0  0  0  0
   44.2418   35.2272   45.3895 H   0  0  0  0  0  0  0  0  0  0  0  0
   47.2834   33.1948   43.1111 H   0  0  0  0  0  0  0  0  0  0  0  0
   46.7159   32.3286   47.2480 H   0  0  0  0  0  0  0  0  0  0  0  0
   46.2902   31.2649   37.6263 H   0  0  0  0  0  0  0  0  0  0  0  0
   44.4438   31.6509   39.2626 H   0  0  0  0  0  0  0  0  0  0  0  0
   46.7162   34.7869   41.0563 H   0  0  0  0  0  0  0  0  0  0  0  0
   48.5796   34.4283   39.4478 H   0  0  0  0  0  0  0  0  0  0  0  0
   48.4789   31.3856   36.5881 H   0  0  0  0  0  0  0  0  0  0  0  0
  1 10  1  0
  2  1  2  0
  3  1  1  0
  4  3  1  0
  5  4  1  0
  6  7  1  0
  6  5  1  0
  7  8  1  0
  8  3  1  0
  9 14  2  0
 10  9  1  0
 11 10  2  0
 11 12  1  0
 12 13  2  0
 13 14  1  0
 15 20  2  0
 16 15  1  0
 16 17  2  0
 17 18  1  0
 18 19  2  0
 18  8  1  0
 20 19  1  0
 21 22  2  0
 21 15  1  0
 23 21  2  0
  4 24  1  0
  4 25  1  0
  5 26  1  0
  5 27  1  0
  6 28  1  0
  7 29  1  0
  7 30  1  0
  8 31  1  1
  9 32  1  0
 11 33  1  0
 13 34  1  0
 16 35  1  0
 17 36  1  0
 19 37  1  0
 20 38  1  0
 21 39  1  0
M  ISO  8  24  13  25  13  26  13  27  13  28   5  29  13  30  13  31  13
M  ISO  8  32  14  33  14  34  14  35  14  36  14  37  14  38  14  39  11
M  END
>  <minimizedAffinity>  (1) 
-5.05443239

>  <minimizedRMSD>  (1) 
2.18917775

$$$$
