
     RDKit          3D

 32 34  0  0  1  0  0  0  0  0999 V2000
   45.2540   35.1990   43.0660 C   0  0  0  0  0  0  0  0  0  0  0  0
   45.5290   36.4360   43.1040 O   0  0  0  0  0  0  0  0  0  0  0  0
   44.5520   34.8540   41.8800 N   0  0  0  0  0  0  0  0  0  0  0  0
   43.5010   35.7630   41.4770 C   0  0  0  0  0  0  0  0  0  0  0  0
   42.3110   34.8240   41.1940 C   0  0  0  0  0  0  0  0  0  0  0  0
   42.7030   34.1230   39.9810 N   0  0  0  0  0  0  0  0  0  0  0  0
   43.7130   33.1710   40.3030 C   0  0  0  0  0  0  0  0  0  0  0  0
   44.8430   33.6890   41.1160 C   0  0  1  0  0  0  0  0  0  0  0  0
   45.0150   34.5250   45.4150 C   0  0  0  0  0  0  0  0  0  0  0  0
   45.6790   34.4120   44.1750 C   0  0  0  0  0  0  0  0  0  0  0  0
   46.7270   33.5160   44.1040 C   0  0  0  0  0  0  0  0  0  0  0  0
   47.0790   32.7880   45.2010 N   0  0  0  0  0  0  0  0  0  0  0  0
   46.4160   32.9260   46.3730 C   0  0  0  0  0  0  0  0  0  0  0  0
   45.3780   33.8000   46.4820 N   0  0  0  0  0  0  0  0  0  0  0  0
   46.1100   33.7760   40.3190 C   0  0  0  0  0  0  0  0  0  0  0  0
   46.3100   33.1130   39.0620 C   0  0  0  0  0  0  0  0  0  0  0  0
   48.0390   33.6790   38.6950 S   0  0  0  0  0  0  0  0  0  0  0  0
   48.1770   34.6530   40.2100 C   0  0  0  0  0  0  0  0  0  0  0  0
   46.9640   34.5490   40.9570 N   0  0  0  0  0  0  0  0  0  0  0  0
   43.2613   36.4711   42.2839 H   0  0  0  0  0  0  0  0  0  0  0  0
   43.7761   36.3832   40.6111 H   0  0  0  0  0  0  0  0  0  0  0  0
   42.1630   34.1178   42.0243 H   0  0  0  0  0  0  0  0  0  0  0  0
   41.3593   35.3646   41.0843 H   0  0  0  0  0  0  0  0  0  0  0  0
   43.0703   34.7980   39.2952 H   0  0  0  0  0  0  0  0  0  0  0  0
   43.2399   32.3512   40.8635 H   0  0  0  0  0  0  0  0  0  0  0  0
   44.1498   32.8573   39.3434 H   0  0  0  0  0  0  0  0  0  0  0  0
   45.0156   32.9311   41.8944 H   0  0  0  0  0  0  0  0  0  0  0  0
   44.1748   35.2288   45.5085 H   0  0  0  0  0  0  0  0  0  0  0  0
   47.2786   33.3896   43.1607 H   0  0  0  0  0  0  0  0  0  0  0  0
   46.7185   32.3270   47.2446 H   0  0  0  0  0  0  0  0  0  0  0  0
   45.6368   32.4613   38.4858 H   0  0  0  0  0  0  0  0  0  0  0  0
   49.0595   35.2365   40.5110 H   0  0  0  0  0  0  0  0  0  0  0  0
  1  2  2  0
  1 10  1  0
  3  1  1  0
  4  3  1  0
  5  4  1  0
  6  7  1  0
  6  5  1  0
  7  8  1  0
  8  3  1  0
  9 14  2  0
 10  9  1  0
 11 10  2  0
 11 12  1  0
 12 13  2  0
 13 14  1  0
 15 19  1  0
 15  8  1  0
 16 15  2  0
 17 16  1  0
 17 18  1  0
 18 19  2  0
  4 20  1  0
  4 21  1  0
  5 22  1  0
  5 23  1  0
  6 24  1  0
  7 25  1  0
  7 26  1  0
  8 27  1  1
  9 28  1  0
 11 29  1  0
 13 30  1  0
 16 31  1  0
 18 32  1  0
M  ISO  8  20  13  21  13  22  13  23  13  24   5  25  13  26  13  27  13
M  ISO  5  28  14  29  14  30  14  31  14  32  14
M  END
>  <minimizedAffinity>  (1) 
-4.94817448

>  <minimizedRMSD>  (1) 
0.839520216

$$$$
