
     RDKit          3D

 38 40  0  0  1  0  0  0  0  0999 V2000
   45.2120   35.1830   43.2030 C   0  0  0  0  0  0  0  0  0  0  0  0
   45.4220   36.4390   43.2560 O   0  0  0  0  0  0  0  0  0  0  0  0
   44.6250   34.8020   41.9540 N   0  0  0  0  0  0  0  0  0  0  0  0
   43.5470   35.6690   41.4950 C   0  0  0  0  0  0  0  0  0  0  0  0
   42.4150   34.6830   41.1330 C   0  0  0  0  0  0  0  0  0  0  0  0
   42.9330   34.0060   39.9450 N   0  0  0  0  0  0  0  0  0  0  0  0
   43.9050   33.0550   40.3880 C   0  0  0  0  0  0  0  0  0  0  0  0
   45.0240   33.6840   41.1920 C   0  0  1  0  0  0  0  0  0  0  0  0
   44.9000   34.6000   45.5650 C   0  0  0  0  0  0  0  0  0  0  0  0
   45.5820   34.4200   44.3430 C   0  0  0  0  0  0  0  0  0  0  0  0
   46.5980   33.4900   44.3100 C   0  0  0  0  0  0  0  0  0  0  0  0
   46.9140   32.7770   45.4400 N   0  0  0  0  0  0  0  0  0  0  0  0
   46.2320   32.9800   46.5930 C   0  0  0  0  0  0  0  0  0  0  0  0
   45.2230   33.8930   46.6610 N   0  0  0  0  0  0  0  0  0  0  0  0
   45.9800   34.1230   40.1660 N   0  0  0  0  0  0  0  0  0  0  0  0
   47.2730   34.4300   40.6650 C   0  0  0  0  0  0  0  0  0  0  0  0
   48.1720   34.2750   39.4290 C   0  0  0  0  0  0  0  0  0  0  0  0
   47.6200   32.9990   38.8430 C   0  0  0  0  0  0  0  0  0  0  0  0
   46.1320   33.1320   39.1220 C   0  0  0  0  0  0  0  0  0  0  0  0
   43.2289   36.3558   42.2932 H   0  0  0  0  0  0  0  0  0  0  0  0
   43.8434   36.3075   40.6497 H   0  0  0  0  0  0  0  0  0  0  0  0
   42.2381   33.9676   41.9497 H   0  0  0  0  0  0  0  0  0  0  0  0
   41.4481   35.1786   40.9615 H   0  0  0  0  0  0  0  0  0  0  0  0
   43.3720   34.6902   39.3125 H   0  0  0  0  0  0  0  0  0  0  0  0
   43.4012   32.3050   41.0154 H   0  0  0  0  0  0  0  0  0  0  0  0
   44.3565   32.6040   39.4921 H   0  0  0  0  0  0  0  0  0  0  0  0
   45.4187   32.9648   41.9248 H   0  0  0  0  0  0  0  0  0  0  0  0
   44.0848   35.3364   45.6218 H   0  0  0  0  0  0  0  0  0  0  0  0
   47.1563   33.3186   43.3778 H   0  0  0  0  0  0  0  0  0  0  0  0
   46.4971   32.3985   47.4883 H   0  0  0  0  0  0  0  0  0  0  0  0
   47.3117   35.4580   41.0545 H   0  0  0  0  0  0  0  0  0  0  0  0
   47.5765   33.7850   41.5028 H   0  0  0  0  0  0  0  0  0  0  0  0
   48.0588   35.1219   38.7362 H   0  0  0  0  0  0  0  0  0  0  0  0
   49.2498   34.2494   39.6475 H   0  0  0  0  0  0  0  0  0  0  0  0
   48.0419   32.1153   39.3441 H   0  0  0  0  0  0  0  0  0  0  0  0
   47.8582   32.8643   37.7776 H   0  0  0  0  0  0  0  0  0  0  0  0
   45.6056   33.4583   38.2129 H   0  0  0  0  0  0  0  0  0  0  0  0
   45.7050   32.1673   39.4337 H   0  0  0  0  0  0  0  0  0  0  0  0
  1  2  2  0
  1 10  1  0
  3  1  1  0
  4  3  1  0
  5  4  1  0
  6  7  1  0
  6  5  1  0
  7  8  1  0
  8  3  1  0
  9 14  2  0
 10  9  1  0
 11 10  2  0
 11 12  1  0
 12 13  2  0
 13 14  1  0
 15 16  1  0
 15  8  1  0
 17 16  1  0
 18 19  1  0
 18 17  1  0
 19 15  1  0
  4 20  1  0
  4 21  1  0
  5 22  1  0
  5 23  1  0
  6 24  1  0
  7 25  1  0
  7 26  1  0
  8 27  1  1
  9 28  1  0
 11 29  1  0
 13 30  1  0
 16 31  1  0
 16 32  1  0
 17 33  1  0
 17 34  1  0
 18 35  1  0
 18 36  1  0
 19 37  1  0
 19 38  1  0
M  ISO  8  20  13  21  13  22  13  23  13  24   5  25  13  26  13  27  13
M  ISO  8  28  14  29  14  30  14  31  13  32  13  33  13  34  13  35  13
M  ISO  3  36  13  37  13  38  13
M  END
>  <minimizedAffinity>  (1) 
-4.79891491

>  <minimizedRMSD>  (1) 
0.78658241

$$$$
