
     RDKit          3D

 29 30  0  0  1  0  0  0  0  0999 V2000
   45.3570   35.2190   43.1900 C   0  0  0  0  0  0  0  0  0  0  0  0
   45.2620   36.4680   43.4030 O   0  0  0  0  0  0  0  0  0  0  0  0
   45.0750   34.9020   41.8300 N   0  0  0  0  0  0  0  0  0  0  0  0
   43.9490   35.5780   41.2420 C   0  0  0  0  0  0  0  0  0  0  0  0
   43.1720   34.4360   40.5530 C   0  0  0  0  0  0  0  0  0  0  0  0
   44.0220   34.0620   39.4400 N   0  0  0  0  0  0  0  0  0  0  0  0
   45.1410   33.3240   39.9430 C   0  0  0  0  0  0  0  0  0  0  0  0
   45.8580   33.9610   41.0760 C   0  0  1  0  0  0  0  0  0  0  0  0
   45.0020   34.5370   45.5140 C   0  0  0  0  0  0  0  0  0  0  0  0
   45.7110   34.3960   44.2990 C   0  0  0  0  0  0  0  0  0  0  0  0
   46.7170   33.4560   44.2400 C   0  0  0  0  0  0  0  0  0  0  0  0
   46.9960   32.6960   45.3450 N   0  0  0  0  0  0  0  0  0  0  0  0
   46.2970   32.8530   46.4960 C   0  0  0  0  0  0  0  0  0  0  0  0
   45.2980   33.7760   46.5850 N   0  0  0  0  0  0  0  0  0  0  0  0
   47.2080   34.5370   40.7330 C   0  0  0  0  0  0  0  0  0  0  0  0
   43.3339   36.0641   42.0136 H   0  0  0  0  0  0  0  0  0  0  0  0
   44.2416   36.3802   40.5485 H   0  0  0  0  0  0  0  0  0  0  0  0
   43.0301   33.5885   41.2398 H   0  0  0  0  0  0  0  0  0  0  0  0
   42.1635   34.7390   40.2351 H   0  0  0  0  0  0  0  0  0  0  0  0
   44.3544   34.9094   38.9580 H   0  0  0  0  0  0  0  0  0  0  0  0
   44.7779   32.3414   40.2788 H   0  0  0  0  0  0  0  0  0  0  0  0
   45.8650   33.2649   39.1170 H   0  0  0  0  0  0  0  0  0  0  0  0
   46.0448   33.1011   41.7361 H   0  0  0  0  0  0  0  0  0  0  0  0
   44.1949   35.2809   45.5858 H   0  0  0  0  0  0  0  0  0  0  0  0
   47.2917   33.3170   43.3124 H   0  0  0  0  0  0  0  0  0  0  0  0
   46.5389   32.2281   47.3684 H   0  0  0  0  0  0  0  0  0  0  0  0
   47.7535   34.7697   41.6594 H   0  0  0  0  0  0  0  0  0  0  0  0
   47.7803   33.8047   40.1446 H   0  0  0  0  0  0  0  0  0  0  0  0
   47.0754   35.4569   40.1446 H   0  0  0  0  0  0  0  0  0  0  0  0
  1  2  2  0
  1 10  1  0
  3  1  1  0
  4  3  1  0
  5  4  1  0
  6  7  1  0
  6  5  1  0
  7  8  1  0
  8  3  1  0
  9 14  2  0
 10  9  1  0
 11 10  2  0
 11 12  1  0
 12 13  2  0
 13 14  1  0
 15  8  1  0
  4 16  1  0
  4 17  1  0
  5 18  1  0
  5 19  1  0
  6 20  1  0
  7 21  1  0
  7 22  1  0
  8 23  1  1
  9 24  1  0
 11 25  1  0
 13 26  1  0
 15 27  1  0
 15 28  1  0
 15 29  1  0
M  ISO  8  16  13  17  13  18  13  19  13  20   5  21  13  22  13  23  13
M  ISO  6  24  14  25  14  26  14  27   8  28   8  29   8
M  END
>  <minimizedAffinity>  (1) 
-4.49416876

>  <minimizedRMSD>  (1) 
0.452118784

$$$$
