
     RDKit          3D

 44 47  0  0  1  0  0  0  0  0999 V2000
   49.1110   33.7170   42.6190 C   0  0  2  0  0  0  0  0  0  0  0  0
   47.7190   33.9330   42.4360 C   0  0  2  0  0  0  0  0  0  0  0  0
   47.6500   35.4110   41.9430 C   0  0  0  0  0  0  0  0  0  0  0  0
   49.0080   35.8620   41.5430 C   0  0  0  0  0  0  0  0  0  0  0  0
   49.8310   35.1130   42.4980 C   0  0  0  0  0  0  0  0  0  0  0  0
   49.8560   32.8910   41.6740 C   0  0  0  0  0  0  0  0  0  0  0  0
   49.1760   32.4380   40.5680 C   0  0  0  0  0  0  0  0  0  0  0  0
   49.7530   31.6320   39.6010 C   0  0  0  0  0  0  0  0  0  0  0  0
   51.0900   31.3260   39.8480 N   0  0  0  0  0  0  0  0  0  0  0  0
   51.7490   31.7630   40.9110 C   0  0  0  0  0  0  0  0  0  0  0  0
   51.1190   32.5310   41.7940 N   0  0  0  0  0  0  0  0  0  0  0  0
   46.8410   33.7770   43.6200 C   0  0  0  0  0  0  0  0  0  0  0  0
   45.9070   34.5180   43.8110 O   0  0  0  0  0  0  0  0  0  0  0  0
   46.9390   32.8010   44.6630 C   0  0  0  0  0  0  0  0  0  0  0  0
   46.7730   33.1560   46.0030 C   0  0  0  0  0  0  0  0  0  0  0  0
   46.9050   32.2740   47.0920 C   0  0  0  0  0  0  0  0  0  0  0  0
   47.2280   30.9490   46.8180 C   0  0  0  0  0  0  0  0  0  0  0  0
   47.4010   30.5580   45.4850 C   0  0  0  0  0  0  0  0  0  0  0  0
   47.2440   31.4950   44.4670 C   0  0  0  0  0  0  0  0  0  0  0  0
   47.3490   30.6790   43.2800 C   0  0  0  0  0  0  0  0  0  0  0  0
   46.2070   30.5430   42.4740 C   0  0  0  0  0  0  0  0  0  0  0  0
   46.0160   29.7010   41.3730 C   0  0  0  0  0  0  0  0  0  0  0  0
   47.0890   28.9190   41.0560 C   0  0  0  0  0  0  0  0  0  0  0  0
   48.2240   29.0320   41.8280 C   0  0  0  0  0  0  0  0  0  0  0  0
   48.3430   29.8770   42.8920 N   0  0  0  0  0  0  0  0  0  0  0  0
   49.1251   33.1843   43.5813 H   0  0  0  0  0  0  0  0  0  0  0  0
   47.3352   33.1613   41.7525 H   0  0  0  0  0  0  0  0  0  0  0  0
   46.9718   35.4785   41.0796 H   0  0  0  0  0  0  0  0  0  0  0  0
   47.2743   36.0517   42.7544 H   0  0  0  0  0  0  0  0  0  0  0  0
   49.2382   35.5847   40.5037 H   0  0  0  0  0  0  0  0  0  0  0  0
   49.1547   36.9519   41.5679 H   0  0  0  0  0  0  0  0  0  0  0  0
   50.8561   34.9914   42.1179 H   0  0  0  0  0  0  0  0  0  0  0  0
   49.9220   35.6250   43.4673 H   0  0  0  0  0  0  0  0  0  0  0  0
   48.1226   32.7300   40.4454 H   0  0  0  0  0  0  0  0  0  0  0  0
   49.2063   31.2669   38.7191 H   0  0  0  0  0  0  0  0  0  0  0  0
   52.8049   31.4934   41.0610 H   0  0  0  0  0  0  0  0  0  0  0  0
   46.5201   34.2034   46.2243 H   0  0  0  0  0  0  0  0  0  0  0  0
   46.7576   32.6210   48.1254 H   0  0  0  0  0  0  0  0  0  0  0  0
   47.3454   30.2212   47.6344 H   0  0  0  0  0  0  0  0  0  0  0  0
   47.6595   29.5165   45.2431 H   0  0  0  0  0  0  0  0  0  0  0  0
   45.3522   31.1809   42.7431 H   0  0  0  0  0  0  0  0  0  0  0  0
   45.0736   29.6715   40.8064 H   0  0  0  0  0  0  0  0  0  0  0  0
   47.0484   28.2189   40.2085 H   0  0  0  0  0  0  0  0  0  0  0  0
   49.0880   28.4017   41.5705 H   0  0  0  0  0  0  0  0  0  0  0  0
  2  1  1  0
  2 12  1  0
  3  2  1  0
  4  3  1  0
  4  5  1  0
  5  1  1  0
  6 11  1  0
  6  1  1  0
  7  6  2  0
  8  9  2  0
  8  7  1  0
  9 10  1  0
 10 11  2  0
 12 13  2  0
 12 14  1  0
 14 15  2  0
 15 16  1  0
 17 16  2  0
 18 17  1  0
 19 14  1  0
 19 18  2  0
 20 19  1  0
 21 20  2  0
 22 21  1  0
 23 22  2  0
 23 24  1  0
 24 25  2  0
 25 20  1  0
  1 26  1  1
  2 27  1  6
  3 28  1  0
  3 29  1  0
  4 30  1  0
  4 31  1  0
  5 32  1  0
  5 33  1  0
  7 34  1  0
  8 35  1  0
 10 36  1  0
 15 37  1  0
 16 38  1  0
 17 39  1  0
 18 40  1  0
 21 41  1  0
 22 42  1  0
 23 43  1  0
 24 44  1  0
M  ISO  8  26  13  27  13  28  13  29  13  30  13  31  13  32  13  33  13
M  ISO  8  34  14  35  14  36  14  37  14  38  14  39  14  40  14  41  14
M  ISO  3  42  14  43  14  44  14
M  END
>  <minimizedAffinity>  (1) 
-5.35309315

>  <minimizedRMSD>  (1) 
0.325430512

$$$$
