
     RDKit          3D

 20 21  0  0  0  0  0  0  0  0999 V2000
   45.6340   34.1830   41.6960 N   0  0  0  0  0  0  0  0  0  0  0  0
   44.9500   33.6600   40.6640 C   0  0  0  0  0  0  0  0  0  0  0  0
   45.7500   33.4900   39.6030 N   0  0  0  0  0  0  0  0  0  0  0  0
   46.9640   33.9190   39.9870 C   0  0  0  0  0  0  0  0  0  0  0  0
   46.9020   34.3520   41.2880 N   0  0  0  0  0  0  0  0  0  0  0  0
   44.4580   35.9960   44.7410 C   0  0  0  0  0  0  0  0  0  0  0  0
   44.7070   35.7490   43.3870 C   0  0  0  0  0  0  0  0  0  0  0  0
   45.3240   34.5640   43.0220 C   0  0  0  0  0  0  0  0  0  0  0  0
   45.6510   33.7030   44.0320 N   0  0  0  0  0  0  0  0  0  0  0  0
   45.4030   33.9590   45.3390 C   0  0  0  0  0  0  0  0  0  0  0  0
   44.8070   35.1080   45.6740 N   0  0  0  0  0  0  0  0  0  0  0  0
   48.2260   33.9540   39.1940 C   0  0  0  0  0  0  0  0  0  0  0  0
   48.9510   32.2700   39.1800 S   0  0  0  0  0  0  0  0  0  0  0  0
   43.8799   33.4063   40.6874 H   0  0  0  0  0  0  0  0  0  0  0  0
   43.9682   36.9343   45.0406 H   0  0  0  0  0  0  0  0  0  0  0  0
   44.4169   36.4853   42.6230 H   0  0  0  0  0  0  0  0  0  0  0  0
   45.6879   33.2319   46.1137 H   0  0  0  0  0  0  0  0  0  0  0  0
   48.0083   34.2729   38.1640 H   0  0  0  0  0  0  0  0  0  0  0  0
   48.9342   34.6655   39.6437 H   0  0  0  0  0  0  0  0  0  0  0  0
   49.1355   31.8415   40.4681 H   0  0  0  0  0  0  0  0  0  0  0  0
  1  8  1  0
  2  1  1  0
  3  4  1  0
  3  2  2  0
  4  5  2  0
  5  1  1  0
  6 11  2  0
  7  6  1  0
  8  7  2  0
  8  9  1  0
  9 10  2  0
 10 11  1  0
 12  4  1  0
 13 12  1  0
  2 14  1  0
  6 15  1  0
  7 16  1  0
 10 17  1  0
 12 18  1  0
 12 19  1  0
 13 20  1  0
M  ISO  7  14  14  15  14  16  14  17  14  18   8  19   8  20  11
M  END
>  <minimizedAffinity>  (1) 
-3.61075091

>  <minimizedRMSD>  (1) 
0.353441149

$$$$
