
     RDKit          3D

 34 36  0  0  0  0  0  0  0  0999 V2000
   46.2530   34.7420   42.2240 N   0  0  0  0  0  0  0  0  0  0  0  0
   45.5040   35.4220   43.0860 C   0  0  0  0  0  0  0  0  0  0  0  0
   44.3060   35.7150   42.5800 N   0  0  0  0  0  0  0  0  0  0  0  0
   44.3150   35.1830   41.3320 C   0  0  0  0  0  0  0  0  0  0  0  0
   45.5220   34.5760   41.1000 N   0  0  0  0  0  0  0  0  0  0  0  0
   49.9590   34.2730   42.2790 C   0  0  0  0  0  0  0  0  0  0  0  0
   48.7410   34.9370   42.2990 C   0  0  0  0  0  0  0  0  0  0  0  0
   47.5540   34.1920   42.2160 C   0  0  0  0  0  0  0  0  0  0  0  0
   47.7060   32.8570   42.1190 N   0  0  0  0  0  0  0  0  0  0  0  0
   48.8830   32.2060   42.0990 C   0  0  0  0  0  0  0  0  0  0  0  0
   50.0150   32.9390   42.1810 N   0  0  0  0  0  0  0  0  0  0  0  0
   43.2360   35.2190   40.2990 C   0  0  0  0  0  0  0  0  0  0  0  0
   42.5120   33.9950   40.2090 N   0  0  0  0  0  0  0  0  0  0  0  0
   41.5120   33.9480   41.2480 C   0  0  0  0  0  0  0  0  0  0  0  0
   40.4620   34.9820   41.0040 C   0  0  0  0  0  0  0  0  0  0  0  0
   39.8790   34.8950   39.6330 C   0  0  0  0  0  0  0  0  0  0  0  0
   40.8560   34.6750   38.5290 C   0  0  0  0  0  0  0  0  0  0  0  0
   41.9870   33.7530   38.9050 C   0  0  0  0  0  0  0  0  0  0  0  0
   45.8331   35.7086   44.0957 H   0  0  0  0  0  0  0  0  0  0  0  0
   50.8925   34.8512   42.3446 H   0  0  0  0  0  0  0  0  0  0  0  0
   48.7058   36.0335   42.3789 H   0  0  0  0  0  0  0  0  0  0  0  0
   48.9227   31.1097   42.0183 H   0  0  0  0  0  0  0  0  0  0  0  0
   42.5323   36.0248   40.5548 H   0  0  0  0  0  0  0  0  0  0  0  0
   43.7178   35.3893   39.3249 H   0  0  0  0  0  0  0  0  0  0  0  0
   41.0452   32.9520   41.2576 H   0  0  0  0  0  0  0  0  0  0  0  0
   41.9929   34.1481   42.2169 H   0  0  0  0  0  0  0  0  0  0  0  0
   39.6553   34.8454   41.7393 H   0  0  0  0  0  0  0  0  0  0  0  0
   40.9372   35.9692   41.1021 H   0  0  0  0  0  0  0  0  0  0  0  0
   39.1630   34.0600   39.6224 H   0  0  0  0  0  0  0  0  0  0  0  0
   39.4218   35.8764   39.4383 H   0  0  0  0  0  0  0  0  0  0  0  0
   41.2806   35.6478   38.2403 H   0  0  0  0  0  0  0  0  0  0  0  0
   40.3094   34.1977   37.7023 H   0  0  0  0  0  0  0  0  0  0  0  0
   41.6191   32.7171   38.8650 H   0  0  0  0  0  0  0  0  0  0  0  0
   42.8028   33.9353   38.1900 H   0  0  0  0  0  0  0  0  0  0  0  0
  1  2  1  0
  3  2  2  0
  4  3  1  0
  5  4  2  0
  5  1  1  0
  6  7  2  0
  8  1  1  0
  8  7  1  0
  9  8  2  0
 10  9  1  0
 10 11  2  0
 11  6  1  0
 12  4  1  0
 13 12  1  0
 13 14  1  0
 15 14  1  0
 16 15  1  0
 17 18  1  0
 17 16  1  0
 18 13  1  0
  2 19  1  0
  6 20  1  0
  7 21  1  0
 10 22  1  0
 12 23  1  0
 12 24  1  0
 14 25  1  0
 14 26  1  0
 15 27  1  0
 15 28  1  0
 16 29  1  0
 16 30  1  0
 17 31  1  0
 17 32  1  0
 18 33  1  0
 18 34  1  0
M  ISO  8  19  14  20  14  21  14  22  14  23   8  24   8  25  13  26  13
M  ISO  8  27  13  28  13  29  13  30  13  31  13  32  13  33  13  34  13
M  END
>  <minimizedAffinity>  (1) 
-4.79816198

>  <minimizedRMSD>  (1) 
6.04682016

$$$$
