
     RDKit          3D

 48 51  0  0  1  0  0  0  0  0999 V2000
   42.2060   34.5590   41.0230 N   0  0  0  0  0  0  0  0  0  0  0  0
   41.1470   35.2440   41.7290 C   0  0  0  0  0  0  0  0  0  0  0  0
   40.5990   36.3430   40.8710 C   0  0  0  0  0  0  0  0  0  0  0  0
   40.1960   35.8620   39.5090 C   0  0  0  0  0  0  0  0  0  0  0  0
   41.1440   34.9000   38.8580 C   0  0  0  0  0  0  0  0  0  0  0  0
   41.7820   33.9570   39.8150 C   0  0  2  0  0  0  0  0  0  0  0  0
   41.0020   32.7410   40.0700 N   0  0  0  0  0  0  0  0  0  0  0  0
   39.8230   32.8950   39.2490 C   0  0  0  0  0  0  0  0  0  0  0  0
   38.6390   32.1390   39.7330 C   0  0  0  0  0  0  0  0  0  0  0  0
   38.3700   32.5130   41.1210 N   0  0  0  0  0  0  0  0  0  0  0  0
   39.4900   31.9640   41.8630 C   0  0  0  0  0  0  0  0  0  0  0  0
   40.7130   32.7560   41.4830 C   0  0  0  0  0  0  0  0  0  0  0  0
   43.3190   35.4310   40.8700 C   0  0  0  0  0  0  0  0  0  0  0  0
   46.3910   34.5350   42.5410 N   0  0  0  0  0  0  0  0  0  0  0  0
   45.6460   34.9140   43.5700 C   0  0  0  0  0  0  0  0  0  0  0  0
   44.4290   35.2990   43.1850 N   0  0  0  0  0  0  0  0  0  0  0  0
   44.4330   35.1470   41.8360 C   0  0  0  0  0  0  0  0  0  0  0  0
   45.6460   34.6740   41.4340 N   0  0  0  0  0  0  0  0  0  0  0  0
   50.1130   34.1880   42.4280 C   0  0  0  0  0  0  0  0  0  0  0  0
   48.8750   34.7840   42.6420 C   0  0  0  0  0  0  0  0  0  0  0  0
   47.7130   34.0490   42.3670 C   0  0  0  0  0  0  0  0  0  0  0  0
   47.8970   32.7910   41.9060 N   0  0  0  0  0  0  0  0  0  0  0  0
   49.0850   32.2180   41.7000 C   0  0  0  0  0  0  0  0  0  0  0  0
   50.2040   32.9250   41.9640 N   0  0  0  0  0  0  0  0  0  0  0  0
   40.3443   34.5304   41.9666 H   0  0  0  0  0  0  0  0  0  0  0  0
   41.5466   35.6725   42.6599 H   0  0  0  0  0  0  0  0  0  0  0  0
   39.7170   36.7725   41.3686 H   0  0  0  0  0  0  0  0  0  0  0  0
   41.3939   37.0918   40.7392 H   0  0  0  0  0  0  0  0  0  0  0  0
   39.2187   35.3654   39.6003 H   0  0  0  0  0  0  0  0  0  0  0  0
   40.1815   36.7541   38.8656 H   0  0  0  0  0  0  0  0  0  0  0  0
   40.5878   34.3148   38.1109 H   0  0  0  0  0  0  0  0  0  0  0  0
   41.9499   35.4962   38.4051 H   0  0  0  0  0  0  0  0  0  0  0  0
   42.6924   33.6393   39.2857 H   0  0  0  0  0  0  0  0  0  0  0  0
   40.0624   32.5472   38.2333 H   0  0  0  0  0  0  0  0  0  0  0  0
   39.5522   33.9606   39.2827 H   0  0  0  0  0  0  0  0  0  0  0  0
   37.7660   32.3824   39.1096 H   0  0  0  0  0  0  0  0  0  0  0  0
   38.8370   31.0588   39.6709 H   0  0  0  0  0  0  0  0  0  0  0  0
   38.3321   33.5373   41.2222 H   0  0  0  0  0  0  0  0  0  0  0  0
   39.3050   32.0532   42.9437 H   0  0  0  0  0  0  0  0  0  0  0  0
   39.6280   30.8986   41.6264 H   0  0  0  0  0  0  0  0  0  0  0  0
   41.5777   32.3364   42.0180 H   0  0  0  0  0  0  0  0  0  0  0  0
   40.5144   33.8025   41.7577 H   0  0  0  0  0  0  0  0  0  0  0  0
   43.7083   35.3240   39.8468 H   0  0  0  0  0  0  0  0  0  0  0  0
   42.9635   36.4519   41.0735 H   0  0  0  0  0  0  0  0  0  0  0  0
   45.9902   34.9112   44.6148 H   0  0  0  0  0  0  0  0  0  0  0  0
   51.0314   34.7549   42.6403 H   0  0  0  0  0  0  0  0  0  0  0  0
   48.8084   35.8146   43.0206 H   0  0  0  0  0  0  0  0  0  0  0  0
   49.1508   31.1872   41.3216 H   0  0  0  0  0  0  0  0  0  0  0  0
  1  2  1  0
  3  2  1  0
  4  3  1  0
  5  4  1  0
  5  6  1  0
  6  7  1  0
  6  1  1  0
  7 12  1  0
  8  9  1  0
  8  7  1  0
  9 10  1  0
 10 11  1  0
 12 11  1  0
 13  1  1  0
 13 17  1  0
 14 15  1  0
 16 15  2  0
 17 16  1  0
 18 17  2  0
 18 14  1  0
 19 20  2  0
 21 14  1  0
 21 20  1  0
 22 21  2  0
 23 22  1  0
 23 24  2  0
 24 19  1  0
  2 25  1  0
  2 26  1  0
  3 27  1  0
  3 28  1  0
  4 29  1  0
  4 30  1  0
  5 31  1  0
  5 32  1  0
  6 33  1  6
  8 34  1  0
  8 35  1  0
  9 36  1  0
  9 37  1  0
 10 38  1  0
 11 39  1  0
 11 40  1  0
 12 41  1  0
 12 42  1  0
 13 43  1  0
 13 44  1  0
 15 45  1  0
 19 46  1  0
 20 47  1  0
 23 48  1  0
M  ISO  8  25  13  26  13  27  13  28  13  29  13  30  13  31  13  32  13
M  ISO  8  33  13  34  13  35  13  36  13  37  13  38   5  39  13  40  13
M  ISO  8  41  13  42  13  43   8  44   8  45  14  46  14  47  14  48  14
M  END
>  <minimizedAffinity>  (1) 
-6.4912076

>  <minimizedRMSD>  (1) 
1.4343977

$$$$
