
     RDKit          3D

 50 53  0  0  1  0  0  0  0  0999 V2000
   41.8740   34.4310   41.2280 N   0  0  0  0  0  0  0  0  0  0  0  0
   40.9780   35.4510   41.6810 C   0  0  0  0  0  0  0  0  0  0  0  0
   40.3780   36.1630   40.5020 C   0  0  0  0  0  0  0  0  0  0  0  0
   39.7290   35.2210   39.5600 C   0  0  0  0  0  0  0  0  0  0  0  0
   40.5170   33.9830   39.2510 C   0  0  0  0  0  0  0  0  0  0  0  0
   41.2390   33.4110   40.4250 C   0  0  2  0  0  0  0  0  0  0  0  0
   40.3820   32.5740   41.3550 C   0  0  0  0  0  0  0  0  0  0  0  0
   41.3890   31.5800   41.9730 C   0  0  0  0  0  0  0  0  0  0  0  0
   40.6740   30.6450   42.8950 C   0  0  0  0  0  0  0  0  0  0  0  0
   39.5950   29.8750   42.1580 C   0  0  0  0  0  0  0  0  0  0  0  0
   38.6590   30.7750   41.4180 C   0  0  0  0  0  0  0  0  0  0  0  0
   39.4650   31.7080   40.5200 C   0  0  0  0  0  0  0  0  0  0  0  0
   43.0090   34.9880   40.5950 C   0  0  0  0  0  0  0  0  0  0  0  0
   46.1600   34.9640   42.3710 N   0  0  0  0  0  0  0  0  0  0  0  0
   45.4510   35.7940   43.1230 C   0  0  0  0  0  0  0  0  0  0  0  0
   44.2150   35.9630   42.6480 N   0  0  0  0  0  0  0  0  0  0  0  0
   44.1580   35.1890   41.5350 C   0  0  0  0  0  0  0  0  0  0  0  0
   45.3660   34.5610   41.3530 N   0  0  0  0  0  0  0  0  0  0  0  0
   49.8760   34.5830   42.2760 C   0  0  0  0  0  0  0  0  0  0  0  0
   48.6350   35.1980   42.2420 C   0  0  0  0  0  0  0  0  0  0  0  0
   47.4760   34.4350   42.3900 C   0  0  0  0  0  0  0  0  0  0  0  0
   47.6570   33.1200   42.5600 N   0  0  0  0  0  0  0  0  0  0  0  0
   48.8470   32.4960   42.5970 C   0  0  0  0  0  0  0  0  0  0  0  0
   49.9620   33.2640   42.4510 N   0  0  0  0  0  0  0  0  0  0  0  0
   40.1755   34.9931   42.2780 H   0  0  0  0  0  0  0  0  0  0  0  0
   41.5328   36.1737   42.2973 H   0  0  0  0  0  0  0  0  0  0  0  0
   39.6255   36.8790   40.8641 H   0  0  0  0  0  0  0  0  0  0  0  0
   41.1887   36.6776   39.9655 H   0  0  0  0  0  0  0  0  0  0  0  0
   38.7673   34.9124   39.9958 H   0  0  0  0  0  0  0  0  0  0  0  0
   39.6263   35.7631   38.6084 H   0  0  0  0  0  0  0  0  0  0  0  0
   39.8245   33.2199   38.8661 H   0  0  0  0  0  0  0  0  0  0  0  0
   41.2838   34.2704   38.5165 H   0  0  0  0  0  0  0  0  0  0  0  0
   41.9858   32.7528   39.9568 H   0  0  0  0  0  0  0  0  0  0  0  0
   39.8139   33.1916   42.0662 H   0  0  0  0  0  0  0  0  0  0  0  0
   41.8727   31.0035   41.1707 H   0  0  0  0  0  0  0  0  0  0  0  0
   42.1503   32.1374   42.5384 H   0  0  0  0  0  0  0  0  0  0  0  0
   41.3982   29.9335   43.3186 H   0  0  0  0  0  0  0  0  0  0  0  0
   40.2005   31.2343   43.6941 H   0  0  0  0  0  0  0  0  0  0  0  0
   40.0747   29.1953   41.4384 H   0  0  0  0  0  0  0  0  0  0  0  0
   39.0079   29.3209   42.9052 H   0  0  0  0  0  0  0  0  0  0  0  0
   37.9769   30.1703   40.8023 H   0  0  0  0  0  0  0  0  0  0  0  0
   38.0723   31.3679   42.1350 H   0  0  0  0  0  0  0  0  0  0  0  0
   38.7760   32.3505   39.9521 H   0  0  0  0  0  0  0  0  0  0  0  0
   40.0721   31.1049   39.8288 H   0  0  0  0  0  0  0  0  0  0  0  0
   43.3289   34.3118   39.7885 H   0  0  0  0  0  0  0  0  0  0  0  0
   42.7207   35.9766   40.2084 H   0  0  0  0  0  0  0  0  0  0  0  0
   45.8350   36.2846   44.0296 H   0  0  0  0  0  0  0  0  0  0  0  0
   50.7905   35.1830   42.1586 H   0  0  0  0  0  0  0  0  0  0  0  0
   48.5634   36.2863   42.0985 H   0  0  0  0  0  0  0  0  0  0  0  0
   48.9174   31.4076   42.7396 H   0  0  0  0  0  0  0  0  0  0  0  0
  1  2  1  0
  3  2  1  0
  4  3  1  0
  5  4  1  0
  5  6  1  0
  6  1  1  0
  6  7  1  0
  7  8  1  0
  8  9  1  0
 10  9  1  0
 11 10  1  0
 12  7  1  0
 12 11  1  0
 13  1  1  0
 13 17  1  0
 14 21  1  0
 14 15  1  0
 16 15  2  0
 17 16  1  0
 18 17  2  0
 18 14  1  0
 19 24  2  0
 20 19  1  0
 20 21  2  0
 21 22  1  0
 22 23  2  0
 24 23  1  0
  2 25  1  0
  2 26  1  0
  3 27  1  0
  3 28  1  0
  4 29  1  0
  4 30  1  0
  5 31  1  0
  5 32  1  0
  6 33  1  6
  7 34  1  0
  8 35  1  0
  8 36  1  0
  9 37  1  0
  9 38  1  0
 10 39  1  0
 10 40  1  0
 11 41  1  0
 11 42  1  0
 12 43  1  0
 12 44  1  0
 13 45  1  0
 13 46  1  0
 15 47  1  0
 19 48  1  0
 20 49  1  0
 23 50  1  0
M  ISO  8  25  13  26  13  27  13  28  13  29  13  30  13  31  13  32  13
M  ISO  8  33  13  34  13  35  13  36  13  37  13  38  13  39  13  40  13
M  ISO  8  41  13  42  13  43  13  44  13  45   8  46   8  47  14  48  14
M  ISO  2  49  14  50  14
M  END
>  <minimizedAffinity>  (1) 
-6.41765022

>  <minimizedRMSD>  (1) 
2.0980444

$$$$
