
     RDKit          3D

 44 47  0  0  1  0  0  0  0  0999 V2000
   42.2410   34.0690   40.5090 N   0  0  0  0  0  0  0  0  0  0  0  0
   41.2890   34.5280   41.5050 C   0  0  0  0  0  0  0  0  0  0  0  0
   40.4420   35.6270   40.9520 C   0  0  0  0  0  0  0  0  0  0  0  0
   39.8280   35.2840   39.6300 C   0  0  0  0  0  0  0  0  0  0  0  0
   40.7130   34.5800   38.6610 C   0  0  0  0  0  0  0  0  0  0  0  0
   41.6060   33.5730   39.3450 C   0  0  1  0  0  0  0  0  0  0  0  0
   42.5360   32.9720   38.4470 N   0  0  0  0  0  0  0  0  0  0  0  0
   43.7840   33.4870   38.2940 C   0  0  0  0  0  0  0  0  0  0  0  0
   44.6670   32.8820   37.4150 C   0  0  0  0  0  0  0  0  0  0  0  0
   44.2850   31.7650   36.6990 C   0  0  0  0  0  0  0  0  0  0  0  0
   45.0630   31.1750   35.8790 O   0  0  0  0  0  0  0  0  0  0  0  0
   43.0230   31.2890   36.8890 N   0  0  0  0  0  0  0  0  0  0  0  0
   42.1570   31.8840   37.7530 C   0  0  0  0  0  0  0  0  0  0  0  0
   41.0260   31.3410   37.8300 O   0  0  0  0  0  0  0  0  0  0  0  0
   43.1860   35.1030   40.2680 C   0  0  0  0  0  0  0  0  0  0  0  0
   46.1930   34.8590   42.2500 N   0  0  0  0  0  0  0  0  0  0  0  0
   45.4170   35.5630   43.0630 C   0  0  0  0  0  0  0  0  0  0  0  0
   44.2220   35.7860   42.5350 N   0  0  0  0  0  0  0  0  0  0  0  0
   44.2530   35.1830   41.3150 C   0  0  0  0  0  0  0  0  0  0  0  0
   45.4780   34.6010   41.1280 N   0  0  0  0  0  0  0  0  0  0  0  0
   49.9030   34.4830   42.3630 C   0  0  0  0  0  0  0  0  0  0  0  0
   48.6760   35.1310   42.3300 C   0  0  0  0  0  0  0  0  0  0  0  0
   47.5150   34.3450   42.2870 C   0  0  0  0  0  0  0  0  0  0  0  0
   47.7100   33.0220   42.2790 N   0  0  0  0  0  0  0  0  0  0  0  0
   48.8860   32.3900   42.3100 C   0  0  0  0  0  0  0  0  0  0  0  0
   49.9950   33.1450   42.3520 N   0  0  0  0  0  0  0  0  0  0  0  0
   40.6436   33.6885   41.8028 H   0  0  0  0  0  0  0  0  0  0  0  0
   41.8418   34.9091   42.3763 H   0  0  0  0  0  0  0  0  0  0  0  0
   39.6351   35.8418   41.6681 H   0  0  0  0  0  0  0  0  0  0  0  0
   41.0948   36.4984   40.7953 H   0  0  0  0  0  0  0  0  0  0  0  0
   38.9576   34.6389   39.8206 H   0  0  0  0  0  0  0  0  0  0  0  0
   39.5808   36.2471   39.1596 H   0  0  0  0  0  0  0  0  0  0  0  0
   41.3417   35.3230   38.1485 H   0  0  0  0  0  0  0  0  0  0  0  0
   40.0750   34.0403   37.9456 H   0  0  0  0  0  0  0  0  0  0  0  0
   40.9277   32.7797   39.6922 H   0  0  0  0  0  0  0  0  0  0  0  0
   44.0905   34.3769   38.8634 H   0  0  0  0  0  0  0  0  0  0  0  0
   45.6788   33.2940   37.2866 H   0  0  0  0  0  0  0  0  0  0  0  0
   42.7165   30.4570   36.3649 H   0  0  0  0  0  0  0  0  0  0  0  0
   43.6644   34.9194   39.2947 H   0  0  0  0  0  0  0  0  0  0  0  0
   42.6384   36.0568   40.2860 H   0  0  0  0  0  0  0  0  0  0  0  0
   45.7278   35.9191   44.0563 H   0  0  0  0  0  0  0  0  0  0  0  0
   50.8244   35.0827   42.3991 H   0  0  0  0  0  0  0  0  0  0  0  0
   48.6158   36.2293   42.3374 H   0  0  0  0  0  0  0  0  0  0  0  0
   48.9437   31.2915   42.3014 H   0  0  0  0  0  0  0  0  0  0  0  0
  1  2  1  0
  3  2  1  0
  4  3  1  0
  5  6  1  0
  5  4  1  0
  6  1  1  0
  7  6  1  0
  8  7  1  0
  9  8  2  0
 10 12  1  0
 10  9  1  0
 11 10  2  0
 12 13  1  0
 13 14  2  0
 13  7  1  0
 15  1  1  0
 15 19  1  0
 16 23  1  0
 16 17  1  0
 18 17  2  0
 19 18  1  0
 20 19  2  0
 20 16  1  0
 22 21  2  0
 23 22  1  0
 24 23  2  0
 24 25  1  0
 25 26  2  0
 26 21  1  0
  2 27  1  0
  2 28  1  0
  3 29  1  0
  3 30  1  0
  4 31  1  0
  4 32  1  0
  5 33  1  0
  5 34  1  0
  6 35  1  1
  8 36  1  0
  9 37  1  0
 12 38  1  0
 15 39  1  0
 15 40  1  0
 17 41  1  0
 21 42  1  0
 22 43  1  0
 25 44  1  0
M  ISO  8  27  13  28  13  29  13  30  13  31  13  32  13  33  13  34  13
M  ISO  8  35  13  36  14  37  14  38   9  39   8  40   8  41  14  42  14
M  ISO  2  43  14  44  14
M  END
>  <minimizedAffinity>  (1) 
-6.10922861

>  <minimizedRMSD>  (1) 
0.931805253

$$$$
