
     RDKit          3D

 41 44  0  0  1  0  0  0  0  0999 V2000
   41.9560   34.4050   41.2110 N   0  0  0  0  0  0  0  0  0  0  0  0
   41.0280   35.3600   41.7300 C   0  0  0  0  0  0  0  0  0  0  0  0
   40.4000   36.1500   40.6270 C   0  0  0  0  0  0  0  0  0  0  0  0
   39.8010   35.2850   39.5810 C   0  0  0  0  0  0  0  0  0  0  0  0
   40.6000   34.0900   39.1850 C   0  0  0  0  0  0  0  0  0  0  0  0
   41.3940   33.4660   40.2870 C   0  0  2  0  0  0  0  0  0  0  0  0
   40.7120   32.3810   40.9670 N   0  0  0  0  0  0  0  0  0  0  0  0
   41.1280   31.7140   42.0070 N   0  0  0  0  0  0  0  0  0  0  0  0
   40.2200   30.7680   42.3660 C   0  0  0  0  0  0  0  0  0  0  0  0
   39.1690   30.8590   41.4830 C   0  0  0  0  0  0  0  0  0  0  0  0
   39.4930   31.8820   40.6060 C   0  0  0  0  0  0  0  0  0  0  0  0
   43.0690   35.0920   40.6200 C   0  0  0  0  0  0  0  0  0  0  0  0
   46.2150   34.9870   42.3830 N   0  0  0  0  0  0  0  0  0  0  0  0
   45.5140   35.8140   43.1550 C   0  0  0  0  0  0  0  0  0  0  0  0
   44.2850   36.0050   42.6830 N   0  0  0  0  0  0  0  0  0  0  0  0
   44.2170   35.2580   41.5610 C   0  0  0  0  0  0  0  0  0  0  0  0
   45.4150   34.6190   41.3640 N   0  0  0  0  0  0  0  0  0  0  0  0
   49.9190   34.5360   42.2790 C   0  0  0  0  0  0  0  0  0  0  0  0
   48.7020   35.2000   42.2510 C   0  0  0  0  0  0  0  0  0  0  0  0
   47.5260   34.4420   42.3930 C   0  0  0  0  0  0  0  0  0  0  0  0
   47.6830   33.1170   42.5450 N   0  0  0  0  0  0  0  0  0  0  0  0
   48.8620   32.4770   42.5720 C   0  0  0  0  0  0  0  0  0  0  0  0
   49.9870   33.1990   42.4370 N   0  0  0  0  0  0  0  0  0  0  0  0
   40.2407   34.8308   42.2870 H   0  0  0  0  0  0  0  0  0  0  0  0
   41.5697   36.0514   42.3922 H   0  0  0  0  0  0  0  0  0  0  0  0
   39.6107   36.7864   41.0536 H   0  0  0  0  0  0  0  0  0  0  0  0
   41.1903   36.7506   40.1530 H   0  0  0  0  0  0  0  0  0  0  0  0
   38.8282   34.9312   39.9532 H   0  0  0  0  0  0  0  0  0  0  0  0
   39.7369   35.9113   38.6790 H   0  0  0  0  0  0  0  0  0  0  0  0
   39.9070   33.3314   38.7922 H   0  0  0  0  0  0  0  0  0  0  0  0
   41.3305   34.4419   38.4417 H   0  0  0  0  0  0  0  0  0  0  0  0
   42.2458   33.0111   39.7602 H   0  0  0  0  0  0  0  0  0  0  0  0
   40.3090   30.0623   43.2051 H   0  0  0  0  0  0  0  0  0  0  0  0
   38.2567   30.2445   41.4747 H   0  0  0  0  0  0  0  0  0  0  0  0
   38.8757   32.2314   39.7653 H   0  0  0  0  0  0  0  0  0  0  0  0
   43.4117   34.5181   39.7464 H   0  0  0  0  0  0  0  0  0  0  0  0
   42.7242   36.0983   40.3398 H   0  0  0  0  0  0  0  0  0  0  0  0
   45.9032   36.2822   44.0711 H   0  0  0  0  0  0  0  0  0  0  0  0
   50.8492   35.1129   42.1699 H   0  0  0  0  0  0  0  0  0  0  0  0
   48.6576   36.2914   42.1211 H   0  0  0  0  0  0  0  0  0  0  0  0
   48.9065   31.3856   42.7018 H   0  0  0  0  0  0  0  0  0  0  0  0
  1  2  1  0
  3  2  1  0
  4  3  1  0
  5  4  1  0
  5  6  1  0
  6  7  1  0
  6  1  1  0
  7  8  1  0
  8  9  2  0
 10  9  1  0
 11  7  1  0
 11 10  2  0
 12  1  1  0
 12 16  1  0
 13 20  1  0
 13 14  1  0
 15 14  2  0
 16 15  1  0
 17 16  2  0
 17 13  1  0
 18 23  2  0
 19 18  1  0
 19 20  2  0
 20 21  1  0
 21 22  2  0
 23 22  1  0
  2 24  1  0
  2 25  1  0
  3 26  1  0
  3 27  1  0
  4 28  1  0
  4 29  1  0
  5 30  1  0
  5 31  1  0
  6 32  1  6
  9 33  1  0
 10 34  1  0
 11 35  1  0
 12 36  1  0
 12 37  1  0
 14 38  1  0
 18 39  1  0
 19 40  1  0
 22 41  1  0
M  ISO  8  24  13  25  13  26  13  27  13  28  13  29  13  30  13  31  13
M  ISO  8  32  13  33  14  34  14  35  14  36   8  37   8  38  14  39  14
M  ISO  2  40  14  41  14
M  END
>  <minimizedAffinity>  (1) 
-6.08210993

>  <minimizedRMSD>  (1) 
1.79842746

$$$$
