
     RDKit          3D

 46 48  0  0  1  0  0  0  0  0999 V2000
   41.9270   34.3540   41.1530 N   0  0  0  0  0  0  0  0  0  0  0  0
   41.0490   35.3310   41.7260 C   0  0  0  0  0  0  0  0  0  0  0  0
   40.3920   36.1520   40.6790 C   0  0  0  0  0  0  0  0  0  0  0  0
   39.7690   35.3430   39.5960 C   0  0  0  0  0  0  0  0  0  0  0  0
   40.5550   34.1850   39.1190 C   0  0  0  0  0  0  0  0  0  0  0  0
   41.3390   33.4780   40.1910 C   0  0  2  0  0  0  0  0  0  0  0  0
   40.7060   32.2390   40.7310 C   0  0  0  0  0  0  0  0  0  0  0  0
   39.2530   32.5780   41.1000 C   0  0  0  0  0  0  0  0  0  0  0  0
   41.2990   31.6580   41.9620 C   0  0  0  0  0  0  0  0  0  0  0  0
   40.6030   31.2400   39.5970 C   0  0  0  0  0  0  0  0  0  0  0  0
   43.0480   35.0470   40.5820 C   0  0  0  0  0  0  0  0  0  0  0  0
   46.1720   34.9760   42.3770 N   0  0  0  0  0  0  0  0  0  0  0  0
   45.4680   35.8050   43.1290 C   0  0  0  0  0  0  0  0  0  0  0  0
   44.2400   35.9890   42.6450 N   0  0  0  0  0  0  0  0  0  0  0  0
   44.1810   35.2250   41.5230 C   0  0  0  0  0  0  0  0  0  0  0  0
   45.3790   34.5920   41.3470 N   0  0  0  0  0  0  0  0  0  0  0  0
   49.8820   34.5320   42.2730 C   0  0  0  0  0  0  0  0  0  0  0  0
   48.6560   35.1940   42.2420 C   0  0  0  0  0  0  0  0  0  0  0  0
   47.4810   34.4270   42.3890 C   0  0  0  0  0  0  0  0  0  0  0  0
   47.6510   33.1060   42.5490 N   0  0  0  0  0  0  0  0  0  0  0  0
   48.8340   32.4750   42.5780 C   0  0  0  0  0  0  0  0  0  0  0  0
   49.9580   33.2150   42.4360 N   0  0  0  0  0  0  0  0  0  0  0  0
   40.2753   34.8153   42.3138 H   0  0  0  0  0  0  0  0  0  0  0  0
   41.6456   35.9990   42.3647 H   0  0  0  0  0  0  0  0  0  0  0  0
   39.6084   36.7605   41.1541 H   0  0  0  0  0  0  0  0  0  0  0  0
   41.1740   36.7697   40.2132 H   0  0  0  0  0  0  0  0  0  0  0  0
   38.8058   34.9653   39.9695 H   0  0  0  0  0  0  0  0  0  0  0  0
   39.6826   36.0191   38.7326 H   0  0  0  0  0  0  0  0  0  0  0  0
   39.8606   33.4612   38.6675 H   0  0  0  0  0  0  0  0  0  0  0  0
   41.2906   34.5802   38.4030 H   0  0  0  0  0  0  0  0  0  0  0  0
   42.2107   33.0641   39.6630 H   0  0  0  0  0  0  0  0  0  0  0  0
   39.1488   32.6023   42.1948 H   0  0  0  0  0  0  0  0  0  0  0  0
   38.9892   33.5618   40.6847 H   0  0  0  0  0  0  0  0  0  0  0  0
   38.5811   31.8125   40.6847 H   0  0  0  0  0  0  0  0  0  0  0  0
   40.8313   32.1163   42.8459 H   0  0  0  0  0  0  0  0  0  0  0  0
   41.1240   30.5721   41.9761 H   0  0  0  0  0  0  0  0  0  0  0  0
   42.3811   31.8552   41.9761 H   0  0  0  0  0  0  0  0  0  0  0  0
   40.4984   30.2259   40.0101 H   0  0  0  0  0  0  0  0  0  0  0  0
   39.7245   31.4764   38.9787 H   0  0  0  0  0  0  0  0  0  0  0  0
   41.5113   31.2922   38.9787 H   0  0  0  0  0  0  0  0  0  0  0  0
   43.4047   34.4741   39.7133 H   0  0  0  0  0  0  0  0  0  0  0  0
   42.6979   36.0527   40.3063 H   0  0  0  0  0  0  0  0  0  0  0  0
   45.8494   36.2843   44.0427 H   0  0  0  0  0  0  0  0  0  0  0  0
   50.8090   35.1133   42.1599 H   0  0  0  0  0  0  0  0  0  0  0  0
   48.6058   36.2845   42.1066 H   0  0  0  0  0  0  0  0  0  0  0  0
   48.8892   31.3848   42.7136 H   0  0  0  0  0  0  0  0  0  0  0  0
  1  2  1  0
  3  2  1  0
  4  3  1  0
  5  4  1  0
  5  6  1  0
  6  7  1  0
  6  1  1  0
  7  8  1  0
  7  9  1  0
 10  7  1  0
 11  1  1  0
 11 15  1  0
 12 19  1  0
 12 13  1  0
 14 13  2  0
 15 14  1  0
 16 15  2  0
 16 12  1  0
 17 22  2  0
 18 17  1  0
 18 19  2  0
 19 20  1  0
 20 21  2  0
 22 21  1  0
  2 23  1  0
  2 24  1  0
  3 25  1  0
  3 26  1  0
  4 27  1  0
  4 28  1  0
  5 29  1  0
  5 30  1  0
  6 31  1  6
  8 32  1  0
  8 33  1  0
  8 34  1  0
  9 35  1  0
  9 36  1  0
  9 37  1  0
 10 38  1  0
 10 39  1  0
 10 40  1  0
 11 41  1  0
 11 42  1  0
 13 43  1  0
 17 44  1  0
 18 45  1  0
 21 46  1  0
M  ISO  8  23  13  24  13  25  13  26  13  27  13  28  13  29  13  30  13
M  ISO  8  31  13  32   8  33   8  34   8  35   8  36   8  37   8  38   8
M  ISO  8  39   8  40   8  41   8  42   8  43  14  44  14  45  14  46  14
M  END
>  <minimizedAffinity>  (1) 
-5.93626499

>  <minimizedRMSD>  (1) 
1.45794606

$$$$
