
     RDKit          3D

 37 39  0  0  1  0  0  0  0  0999 V2000
   42.2460   34.0610   40.0980 N   0  0  0  0  0  0  0  0  0  0  0  0
   41.3080   33.8740   41.1650 C   0  0  0  0  0  0  0  0  0  0  0  0
   40.2160   34.8910   41.0840 C   0  0  0  0  0  0  0  0  0  0  0  0
   39.5920   34.9720   39.7410 C   0  0  0  0  0  0  0  0  0  0  0  0
   40.5160   34.8930   38.5810 C   0  0  0  0  0  0  0  0  0  0  0  0
   41.6850   33.9880   38.7950 C   0  0  2  0  0  0  0  0  0  0  0  0
   41.3590   32.5870   38.3590 C   0  0  0  0  0  0  0  0  0  0  0  0
   42.3130   32.1110   37.4500 F   0  0  0  0  0  0  0  0  0  0  0  0
   41.2560   31.7070   39.3950 F   0  0  0  0  0  0  0  0  0  0  0  0
   40.1570   32.5950   37.6710 F   0  0  0  0  0  0  0  0  0  0  0  0
   42.9710   35.2750   40.3140 C   0  0  0  0  0  0  0  0  0  0  0  0
   46.0050   34.6710   42.1580 N   0  0  0  0  0  0  0  0  0  0  0  0
   45.2290   35.1910   43.1090 C   0  0  0  0  0  0  0  0  0  0  0  0
   44.0160   35.5000   42.6370 N   0  0  0  0  0  0  0  0  0  0  0  0
   44.0490   35.1520   41.3280 C   0  0  0  0  0  0  0  0  0  0  0  0
   45.2730   34.6400   41.0260 N   0  0  0  0  0  0  0  0  0  0  0  0
   49.7200   34.3570   42.1700 C   0  0  0  0  0  0  0  0  0  0  0  0
   48.4780   34.9680   42.2840 C   0  0  0  0  0  0  0  0  0  0  0  0
   47.3280   34.1790   42.0740 C   0  0  0  0  0  0  0  0  0  0  0  0
   47.5420   32.8860   41.7790 N   0  0  0  0  0  0  0  0  0  0  0  0
   48.7470   32.3030   41.6710 C   0  0  0  0  0  0  0  0  0  0  0  0
   49.8350   33.0650   41.8720 N   0  0  0  0  0  0  0  0  0  0  0  0
   40.8715   32.8670   41.0913 H   0  0  0  0  0  0  0  0  0  0  0  0
   41.8324   33.9898   42.1250 H   0  0  0  0  0  0  0  0  0  0  0  0
   39.4380   34.6278   41.8157 H   0  0  0  0  0  0  0  0  0  0  0  0
   40.6665   35.8721   41.2950 H   0  0  0  0  0  0  0  0  0  0  0  0
   38.8737   34.1434   39.6545 H   0  0  0  0  0  0  0  0  0  0  0  0
   39.1388   35.9729   39.6877 H   0  0  0  0  0  0  0  0  0  0  0  0
   40.8953   35.9041   38.3716 H   0  0  0  0  0  0  0  0  0  0  0  0
   39.9392   34.4745   37.7430 H   0  0  0  0  0  0  0  0  0  0  0  0
   42.4943   34.3560   38.1472 H   0  0  0  0  0  0  0  0  0  0  0  0
   43.4243   35.5836   39.3604 H   0  0  0  0  0  0  0  0  0  0  0  0
   42.2528   36.0158   40.6953 H   0  0  0  0  0  0  0  0  0  0  0  0
   45.5461   35.3465   44.1508 H   0  0  0  0  0  0  0  0  0  0  0  0
   50.6296   34.9547   42.3297 H   0  0  0  0  0  0  0  0  0  0  0  0
   48.3937   36.0366   42.5310 H   0  0  0  0  0  0  0  0  0  0  0  0
   48.8402   31.2348   41.4256 H   0  0  0  0  0  0  0  0  0  0  0  0
  1 11  1  0
  1  2  1  0
  3  2  1  0
  4  3  1  0
  5  6  1  0
  5  4  1  0
  6  1  1  0
  7  6  1  0
  7  9  1  0
  8  7  1  0
 10  7  1  0
 11 15  1  0
 12 13  1  0
 14 13  2  0
 15 14  1  0
 16 15  2  0
 16 12  1  0
 17 18  2  0
 19 12  1  0
 19 18  1  0
 20 19  2  0
 21 20  1  0
 21 22  2  0
 22 17  1  0
  2 23  1  0
  2 24  1  0
  3 25  1  0
  3 26  1  0
  4 27  1  0
  4 28  1  0
  5 29  1  0
  5 30  1  0
  6 31  1  6
 11 32  1  0
 11 33  1  0
 13 34  1  0
 17 35  1  0
 18 36  1  0
 21 37  1  0
M  ISO  8  23  13  24  13  25  13  26  13  27  13  28  13  29  13  30  13
M  ISO  7  31  13  32   8  33   8  34  14  35  14  36  14  37  14
M  END
>  <minimizedAffinity>  (1) 
-5.55877352

>  <minimizedRMSD>  (1) 
0.402311146

$$$$
