
     RDKit          3D

 36 38  0  0  1  0  0  0  0  0999 V2000
   43.0220   35.2210   40.3500 C   0  0  0  0  0  0  0  0  0  0  0  0
   46.0640   34.7640   42.2400 N   0  0  0  0  0  0  0  0  0  0  0  0
   45.2980   35.3880   43.1420 C   0  0  0  0  0  0  0  0  0  0  0  0
   44.0900   35.6650   42.6480 N   0  0  0  0  0  0  0  0  0  0  0  0
   44.1030   35.1910   41.3800 C   0  0  0  0  0  0  0  0  0  0  0  0
   45.3300   34.6250   41.1090 N   0  0  0  0  0  0  0  0  0  0  0  0
   49.7770   34.3950   42.2650 C   0  0  0  0  0  0  0  0  0  0  0  0
   48.5350   35.0250   42.3090 C   0  0  0  0  0  0  0  0  0  0  0  0
   47.3720   34.2550   42.2090 C   0  0  0  0  0  0  0  0  0  0  0  0
   47.5680   32.9320   42.0730 N   0  0  0  0  0  0  0  0  0  0  0  0
   48.7490   32.3030   42.0270 C   0  0  0  0  0  0  0  0  0  0  0  0
   49.8630   33.0750   42.1260 N   0  0  0  0  0  0  0  0  0  0  0  0
   42.3150   34.0030   40.2450 N   0  0  0  0  0  0  0  0  0  0  0  0
   41.2440   33.9630   41.2230 C   0  0  0  0  0  0  0  0  0  0  0  0
   40.2060   34.9690   40.8850 C   0  0  0  0  0  0  0  0  0  0  0  0
   39.7250   34.8650   39.4670 C   0  0  0  0  0  0  0  0  0  0  0  0
   40.7710   34.6070   38.4390 C   0  0  0  0  0  0  0  0  0  0  0  0
   41.8680   33.6920   38.9350 C   0  0  1  0  0  0  0  0  0  0  0  0
   42.9870   33.6960   38.0250 N   0  0  0  0  0  0  0  0  0  0  0  0
   42.3096   36.0162   40.6149 H   0  0  0  0  0  0  0  0  0  0  0  0
   43.5039   35.4022   39.3779 H   0  0  0  0  0  0  0  0  0  0  0  0
   45.6231   35.6408   44.1620 H   0  0  0  0  0  0  0  0  0  0  0  0
   50.6953   34.9951   42.3460 H   0  0  0  0  0  0  0  0  0  0  0  0
   48.4700   36.1173   42.4213 H   0  0  0  0  0  0  0  0  0  0  0  0
   48.8146   31.2108   41.9142 H   0  0  0  0  0  0  0  0  0  0  0  0
   40.7915   32.9604   41.2261 H   0  0  0  0  0  0  0  0  0  0  0  0
   41.6559   34.1911   42.2172 H   0  0  0  0  0  0  0  0  0  0  0  0
   39.3473   34.8255   41.5574 H   0  0  0  0  0  0  0  0  0  0  0  0
   40.6613   35.9631   41.0049 H   0  0  0  0  0  0  0  0  0  0  0  0
   38.9959   34.0428   39.4186 H   0  0  0  0  0  0  0  0  0  0  0  0
   39.3073   35.8529   39.2229 H   0  0  0  0  0  0  0  0  0  0  0  0
   41.2202   35.5674   38.1461 H   0  0  0  0  0  0  0  0  0  0  0  0
   40.2832   34.1081   37.5886 H   0  0  0  0  0  0  0  0  0  0  0  0
   41.4237   32.6866   38.9782 H   0  0  0  0  0  0  0  0  0  0  0  0
   43.8661   33.6991   38.5618 H   0  0  0  0  0  0  0  0  0  0  0  0
   42.9500   32.8549   37.4317 H   0  0  0  0  0  0  0  0  0  0  0  0
  1  5  1  0
  2  3  1  0
  4  3  2  0
  5  4  1  0
  6  5  2  0
  6  2  1  0
  7  8  2  0
  9  2  1  0
  9  8  1  0
 10  9  2  0
 11 10  1  0
 11 12  2  0
 12  7  1  0
 13  1  1  0
 13 14  1  0
 15 14  1  0
 16 15  1  0
 17 18  1  0
 17 16  1  0
 18 13  1  0
 19 18  1  0
  1 20  1  0
  1 21  1  0
  3 22  1  0
  7 23  1  0
  8 24  1  0
 11 25  1  0
 14 26  1  0
 14 27  1  0
 15 28  1  0
 15 29  1  0
 16 30  1  0
 16 31  1  0
 17 32  1  0
 17 33  1  0
 18 34  1  1
 19 35  1  0
 19 36  1  0
M  ISO  8  20   8  21   8  22  14  23  14  24  14  25  14  26  13  27  13
M  ISO  8  28  13  29  13  30  13  31  13  32  13  33  13  34  13  35   5
M  ISO  1  36   5
M  END
>  <minimizedAffinity>  (1) 
-5.46770525

>  <minimizedRMSD>  (1) 
0.205302

$$$$
