
     RDKit          3D

 37 39  0  0  1  0  0  0  0  0999 V2000
   42.9160   35.2570   40.3300 C   0  0  0  0  0  0  0  0  0  0  0  0
   45.9640   34.6720   42.1740 N   0  0  0  0  0  0  0  0  0  0  0  0
   45.1940   35.1880   43.1190 C   0  0  0  0  0  0  0  0  0  0  0  0
   43.9840   35.4920   42.6570 N   0  0  0  0  0  0  0  0  0  0  0  0
   44.0010   35.1440   41.3490 C   0  0  0  0  0  0  0  0  0  0  0  0
   45.2370   34.6310   41.0430 N   0  0  0  0  0  0  0  0  0  0  0  0
   49.6960   34.3790   42.1540 C   0  0  0  0  0  0  0  0  0  0  0  0
   48.4370   34.9680   42.2690 C   0  0  0  0  0  0  0  0  0  0  0  0
   47.2940   34.1830   42.0830 C   0  0  0  0  0  0  0  0  0  0  0  0
   47.5140   32.8930   41.8020 N   0  0  0  0  0  0  0  0  0  0  0  0
   48.7120   32.3050   41.6870 C   0  0  0  0  0  0  0  0  0  0  0  0
   49.8010   33.0660   41.8680 N   0  0  0  0  0  0  0  0  0  0  0  0
   42.2730   34.0260   40.0460 N   0  0  0  0  0  0  0  0  0  0  0  0
   41.2680   33.7650   41.0410 C   0  0  0  0  0  0  0  0  0  0  0  0
   40.1610   34.7480   40.9520 C   0  0  0  0  0  0  0  0  0  0  0  0
   39.6030   34.8640   39.5640 C   0  0  0  0  0  0  0  0  0  0  0  0
   40.5940   34.8490   38.4600 C   0  0  0  0  0  0  0  0  0  0  0  0
   41.7800   33.9630   38.7020 C   0  0  2  0  0  0  0  0  0  0  0  0
   41.4770   32.5720   38.2120 C   0  0  0  0  0  0  0  0  0  0  0  0
   42.1615   35.9655   40.7026 H   0  0  0  0  0  0  0  0  0  0  0  0
   43.3856   35.5984   39.3957 H   0  0  0  0  0  0  0  0  0  0  0  0
   45.5153   35.3461   44.1591 H   0  0  0  0  0  0  0  0  0  0  0  0
   50.6025   34.9855   42.2966 H   0  0  0  0  0  0  0  0  0  0  0  0
   48.3437   36.0387   42.5035 H   0  0  0  0  0  0  0  0  0  0  0  0
   48.7995   31.2340   41.4520 H   0  0  0  0  0  0  0  0  0  0  0  0
   40.8638   32.7537   40.8867 H   0  0  0  0  0  0  0  0  0  0  0  0
   41.7307   33.8487   42.0354 H   0  0  0  0  0  0  0  0  0  0  0  0
   39.3547   34.4331   41.6307 H   0  0  0  0  0  0  0  0  0  0  0  0
   40.5656   35.7319   41.2319 H   0  0  0  0  0  0  0  0  0  0  0  0
   38.9126   34.0220   39.4076 H   0  0  0  0  0  0  0  0  0  0  0  0
   39.1247   35.8536   39.5190 H   0  0  0  0  0  0  0  0  0  0  0  0
   40.9573   35.8764   38.3102 H   0  0  0  0  0  0  0  0  0  0  0  0
   40.0751   34.4440   37.5787 H   0  0  0  0  0  0  0  0  0  0  0  0
   42.6276   34.3415   38.1118 H   0  0  0  0  0  0  0  0  0  0  0  0
   41.3314   31.9035   39.0733 H   0  0  0  0  0  0  0  0  0  0  0  0
   40.5616   32.5893   37.6024 H   0  0  0  0  0  0  0  0  0  0  0  0
   42.3167   32.2070   37.6024 H   0  0  0  0  0  0  0  0  0  0  0  0
  1  5  1  0
  2  3  1  0
  4  3  2  0
  5  4  1  0
  6  5  2  0
  6  2  1  0
  7  8  2  0
  9  2  1  0
  9  8  1  0
 10  9  2  0
 11 10  1  0
 11 12  2  0
 12  7  1  0
 13  1  1  0
 13 14  1  0
 15 14  1  0
 16 15  1  0
 17 18  1  0
 17 16  1  0
 18 13  1  0
 19 18  1  0
  1 20  1  0
  1 21  1  0
  3 22  1  0
  7 23  1  0
  8 24  1  0
 11 25  1  0
 14 26  1  0
 14 27  1  0
 15 28  1  0
 15 29  1  0
 16 30  1  0
 16 31  1  0
 17 32  1  0
 17 33  1  0
 18 34  1  6
 19 35  1  0
 19 36  1  0
 19 37  1  0
M  ISO  8  20   8  21   8  22  14  23  14  24  14  25  14  26  13  27  13
M  ISO  8  28  13  29  13  30  13  31  13  32  13  33  13  34  13  35   8
M  ISO  2  36   8  37   8
M  END
>  <minimizedAffinity>  (1) 
-5.35013056

>  <minimizedRMSD>  (1) 
0.355224073

$$$$
