
     RDKit          3D

 46 50  0  0  1  0  0  0  0  0999 V2000
   41.9230   34.3370   41.0980 N   0  0  0  0  0  0  0  0  0  0  0  0
   40.8080   35.0620   41.6040 C   0  0  0  0  0  0  0  0  0  0  0  0
   40.1840   35.9130   40.5420 C   0  0  0  0  0  0  0  0  0  0  0  0
   39.8370   35.0860   39.3360 C   0  0  0  0  0  0  0  0  0  0  0  0
   40.9090   34.1520   38.8670 C   0  0  0  0  0  0  0  0  0  0  0  0
   41.5820   33.4590   40.0160 C   0  0  1  0  0  0  0  0  0  0  0  0
   42.9730   35.2420   40.7470 C   0  0  0  0  0  0  0  0  0  0  0  0
   46.0660   34.9930   42.6070 N   0  0  0  0  0  0  0  0  0  0  0  0
   45.2540   35.5230   43.4990 C   0  0  0  0  0  0  0  0  0  0  0  0
   44.0340   35.7140   43.0430 N   0  0  0  0  0  0  0  0  0  0  0  0
   44.0780   35.2700   41.7600 C   0  0  0  0  0  0  0  0  0  0  0  0
   45.3370   34.8280   41.5010 N   0  0  0  0  0  0  0  0  0  0  0  0
   49.7770   34.9130   42.1860 C   0  0  0  0  0  0  0  0  0  0  0  0
   48.4830   35.4350   42.2100 C   0  0  0  0  0  0  0  0  0  0  0  0
   47.4310   34.5870   42.5470 C   0  0  0  0  0  0  0  0  0  0  0  0
   47.7540   33.3170   42.8240 N   0  0  0  0  0  0  0  0  0  0  0  0
   48.9900   32.8120   42.8020 C   0  0  0  0  0  0  0  0  0  0  0  0
   50.0080   33.6360   42.4760 N   0  0  0  0  0  0  0  0  0  0  0  0
   43.0620   32.5920   39.5170 S   0  0  0  0  0  0  0  0  0  0  0  0
   44.9090   31.3110   35.1680 N   0  0  0  0  0  0  0  0  0  0  0  0
   45.6890   32.1500   35.8610 C   0  0  0  0  0  0  0  0  0  0  0  0
   45.0770   32.4240   37.0270 N   0  0  0  0  0  0  0  0  0  0  0  0
   43.9000   31.7510   37.0690 C   0  0  0  0  0  0  0  0  0  0  0  0
   42.8820   31.6620   38.0070 C   0  0  0  0  0  0  0  0  0  0  0  0
   41.8140   30.8700   37.7160 N   0  0  0  0  0  0  0  0  0  0  0  0
   41.7430   30.1920   36.5470 C   0  0  0  0  0  0  0  0  0  0  0  0
   42.7250   30.2610   35.6080 N   0  0  0  0  0  0  0  0  0  0  0  0
   43.7950   31.0360   35.8700 C   0  0  0  0  0  0  0  0  0  0  0  0
   40.0581   34.3499   41.9789 H   0  0  0  0  0  0  0  0  0  0  0  0
   41.1598   35.7193   42.4128 H   0  0  0  0  0  0  0  0  0  0  0  0
   39.2678   36.3736   40.9400 H   0  0  0  0  0  0  0  0  0  0  0  0
   40.9026   36.6905   40.2435 H   0  0  0  0  0  0  0  0  0  0  0  0
   38.9477   34.4864   39.5803 H   0  0  0  0  0  0  0  0  0  0  0  0
   39.6772   35.8003   38.5148 H   0  0  0  0  0  0  0  0  0  0  0  0
   40.4591   33.3949   38.2079 H   0  0  0  0  0  0  0  0  0  0  0  0
   41.6669   34.7412   38.3299 H   0  0  0  0  0  0  0  0  0  0  0  0
   40.8279   32.7409   40.3706 H   0  0  0  0  0  0  0  0  0  0  0  0
   43.3925   34.9348   39.7776 H   0  0  0  0  0  0  0  0  0  0  0  0
   42.5390   36.2518   40.7020 H   0  0  0  0  0  0  0  0  0  0  0  0
   45.5645   35.7802   44.5225 H   0  0  0  0  0  0  0  0  0  0  0  0
   50.6199   35.5689   41.9228 H   0  0  0  0  0  0  0  0  0  0  0  0
   48.2982   36.4921   41.9683 H   0  0  0  0  0  0  0  0  0  0  0  0
   49.1733   31.7544   43.0427 H   0  0  0  0  0  0  0  0  0  0  0  0
   45.1292   30.9324   34.2358 H   0  0  0  0  0  0  0  0  0  0  0  0
   46.6615   32.5464   35.5336 H   0  0  0  0  0  0  0  0  0  0  0  0
   40.8617   29.5640   36.3494 H   0  0  0  0  0  0  0  0  0  0  0  0
  1  2  1  0
  3  2  1  0
  4  3  1  0
  5  4  1  0
  5  6  1  0
  6  1  1  0
  7  1  1  0
  7 11  1  0
  8  9  1  0
 10  9  2  0
 11 10  1  0
 12 11  2  0
 12  8  1  0
 13 14  2  0
 13 18  1  0
 14 15  1  0
 15  8  1  0
 15 16  2  0
 17 16  1  0
 18 17  2  0
 19  6  1  0
 20 21  1  0
 20 28  1  0
 21 22  2  0
 22 23  1  0
 23 24  2  0
 24 19  1  0
 25 24  1  0
 26 25  2  0
 27 28  2  0
 27 26  1  0
 28 23  1  0
  2 29  1  0
  2 30  1  0
  3 31  1  0
  3 32  1  0
  4 33  1  0
  4 34  1  0
  5 35  1  0
  5 36  1  0
  6 37  1  1
  7 38  1  0
  7 39  1  0
  9 40  1  0
 13 41  1  0
 14 42  1  0
 17 43  1  0
 20 44  1  0
 21 45  1  0
 26 46  1  0
M  ISO  8  29  13  30  13  31  13  32  13  33  13  34  13  35  13  36  13
M  ISO  8  37  13  38   8  39   8  40  14  41  14  42  14  43  14  44   9
M  ISO  2  45  14  46  14
M  END
>  <minimizedAffinity>  (1) 
-5.83343601

>  <minimizedRMSD>  (1) 
0.79238826

$$$$
