
     RDKit          3D

 41 44  0  0  1  0  0  0  0  0999 V2000
   41.8490   34.4860   41.2380 N   0  0  0  0  0  0  0  0  0  0  0  0
   40.8350   35.3900   41.6880 C   0  0  0  0  0  0  0  0  0  0  0  0
   40.2630   36.1620   40.5580 C   0  0  0  0  0  0  0  0  0  0  0  0
   39.8150   35.2750   39.4310 C   0  0  0  0  0  0  0  0  0  0  0  0
   40.7370   34.1520   39.0680 C   0  0  0  0  0  0  0  0  0  0  0  0
   41.3700   33.5310   40.2750 C   0  0  1  0  0  0  0  0  0  0  0  0
   42.9810   35.2150   40.7680 C   0  0  0  0  0  0  0  0  0  0  0  0
   46.0850   34.9330   42.5870 N   0  0  0  0  0  0  0  0  0  0  0  0
   45.3170   35.5440   43.4740 C   0  0  0  0  0  0  0  0  0  0  0  0
   44.0890   35.7610   43.0130 N   0  0  0  0  0  0  0  0  0  0  0  0
   44.0940   35.2530   41.7610 C   0  0  0  0  0  0  0  0  0  0  0  0
   45.3380   34.7310   41.4830 N   0  0  0  0  0  0  0  0  0  0  0  0
   49.7980   34.7140   42.2280 C   0  0  0  0  0  0  0  0  0  0  0  0
   48.5350   35.2640   42.2580 C   0  0  0  0  0  0  0  0  0  0  0  0
   47.4290   34.4690   42.5310 C   0  0  0  0  0  0  0  0  0  0  0  0
   47.6930   33.1620   42.7530 N   0  0  0  0  0  0  0  0  0  0  0  0
   48.9070   32.6190   42.7260 C   0  0  0  0  0  0  0  0  0  0  0  0
   49.9670   33.4120   42.4600 N   0  0  0  0  0  0  0  0  0  0  0  0
   42.7290   32.4820   39.7950 S   0  0  0  0  0  0  0  0  0  0  0  0
   43.3060   31.4650   41.1710 C   0  0  0  0  0  0  0  0  0  0  0  0
   44.6530   31.2030   41.6050 C   0  0  0  0  0  0  0  0  0  0  0  0
   44.3580   30.0660   43.0830 S   0  0  0  0  0  0  0  0  0  0  0  0
   42.4950   30.1980   42.7920 C   0  0  0  0  0  0  0  0  0  0  0  0
   42.3400   30.8810   41.8810 N   0  0  0  0  0  0  0  0  0  0  0  0
   40.0319   34.8155   42.1727 H   0  0  0  0  0  0  0  0  0  0  0  0
   41.2895   36.0971   42.3975 H   0  0  0  0  0  0  0  0  0  0  0  0
   39.3977   36.7348   40.9229 H   0  0  0  0  0  0  0  0  0  0  0  0
   41.0500   36.8262   40.1714 H   0  0  0  0  0  0  0  0  0  0  0  0
   38.8466   34.8364   39.7135 H   0  0  0  0  0  0  0  0  0  0  0  0
   39.7762   35.9233   38.5432 H   0  0  0  0  0  0  0  0  0  0  0  0
   40.1636   33.3814   38.5319 H   0  0  0  0  0  0  0  0  0  0  0  0
   41.5396   34.5626   38.4377 H   0  0  0  0  0  0  0  0  0  0  0  0
   40.5708   32.9487   40.7569 H   0  0  0  0  0  0  0  0  0  0  0  0
   43.3478   34.7397   39.8463 H   0  0  0  0  0  0  0  0  0  0  0  0
   42.6584   36.2516   40.5905 H   0  0  0  0  0  0  0  0  0  0  0  0
   45.6557   35.8388   44.4782 H   0  0  0  0  0  0  0  0  0  0  0  0
   50.6688   35.3505   42.0122 H   0  0  0  0  0  0  0  0  0  0  0  0
   48.4017   36.3386   42.0647 H   0  0  0  0  0  0  0  0  0  0  0  0
   49.0448   31.5445   42.9167 H   0  0  0  0  0  0  0  0  0  0  0  0
   45.6025   31.5683   41.1866 H   0  0  0  0  0  0  0  0  0  0  0  0
   41.7061   29.7116   43.3844 H   0  0  0  0  0  0  0  0  0  0  0  0
  1  2  1  0
  3  2  1  0
  4  3  1  0
  5  4  1  0
  5  6  1  0
  6  1  1  0
  7  1  1  0
  7 11  1  0
  8  9  1  0
 10  9  2  0
 11 10  1  0
 12 11  2  0
 12  8  1  0
 13 14  2  0
 13 18  1  0
 14 15  1  0
 15  8  1  0
 15 16  2  0
 17 16  1  0
 18 17  2  0
 19  6  1  0
 19 20  1  0
 20 21  2  0
 20 24  1  0
 21 22  1  0
 23 22  1  0
 24 23  2  0
  2 25  1  0
  2 26  1  0
  3 27  1  0
  3 28  1  0
  4 29  1  0
  4 30  1  0
  5 31  1  0
  5 32  1  0
  6 33  1  1
  7 34  1  0
  7 35  1  0
  9 36  1  0
 13 37  1  0
 14 38  1  0
 17 39  1  0
 21 40  1  0
 23 41  1  0
M  ISO  8  25  13  26  13  27  13  28  13  29  13  30  13  31  13  32  13
M  ISO  8  33  13  34   8  35   8  36  14  37  14  38  14  39  14  40  14
M  ISO  1  41  14
M  END
>  <minimizedAffinity>  (1) 
-5.15698576

>  <minimizedRMSD>  (1) 
1.21089482

$$$$
