
     RDKit          3D

 43 46  0  0  1  0  0  0  0  0999 V2000
   42.1790   34.0490   40.5290 N   0  0  0  0  0  0  0  0  0  0  0  0
   40.9780   34.2020   41.2880 C   0  0  0  0  0  0  0  0  0  0  0  0
   40.0480   35.1680   40.6450 C   0  0  0  0  0  0  0  0  0  0  0  0
   39.8000   34.8370   39.1940 C   0  0  0  0  0  0  0  0  0  0  0  0
   41.0130   34.4560   38.4000 C   0  0  0  0  0  0  0  0  0  0  0  0
   41.9560   33.5970   39.1880 C   0  0  1  0  0  0  0  0  0  0  0  0
   42.9310   35.2670   40.5650 C   0  0  0  0  0  0  0  0  0  0  0  0
   45.9490   35.0220   42.5330 N   0  0  0  0  0  0  0  0  0  0  0  0
   45.0870   35.4410   43.4390 C   0  0  0  0  0  0  0  0  0  0  0  0
   43.8750   35.6060   42.9290 N   0  0  0  0  0  0  0  0  0  0  0  0
   43.9920   35.2680   41.6220 C   0  0  0  0  0  0  0  0  0  0  0  0
   45.2810   34.9030   41.3670 N   0  0  0  0  0  0  0  0  0  0  0  0
   49.6640   35.1280   42.1270 C   0  0  0  0  0  0  0  0  0  0  0  0
   48.3530   35.5610   42.1330 C   0  0  0  0  0  0  0  0  0  0  0  0
   47.3340   34.6850   42.4920 C   0  0  0  0  0  0  0  0  0  0  0  0
   47.7190   33.4330   42.8200 N   0  0  0  0  0  0  0  0  0  0  0  0
   48.9830   33.0060   42.8170 C   0  0  0  0  0  0  0  0  0  0  0  0
   49.9630   33.8840   42.4610 N   0  0  0  0  0  0  0  0  0  0  0  0
   43.5410   33.4540   38.3720 S   0  0  0  0  0  0  0  0  0  0  0  0
   44.6030   32.2400   39.1140 C   0  0  0  0  0  0  0  0  0  0  0  0
   44.1300   31.0550   39.6380 C   0  0  0  0  0  0  0  0  0  0  0  0
   45.0270   30.1620   40.2000 C   0  0  0  0  0  0  0  0  0  0  0  0
   46.3570   30.4710   40.2250 N   0  0  0  0  0  0  0  0  0  0  0  0
   46.7630   31.6590   39.6910 C   0  0  0  0  0  0  0  0  0  0  0  0
   45.8940   32.5240   39.1460 N   0  0  0  0  0  0  0  0  0  0  0  0
   40.4791   33.2250   41.3690 H   0  0  0  0  0  0  0  0  0  0  0  0
   41.2445   34.5884   42.2828 H   0  0  0  0  0  0  0  0  0  0  0  0
   39.0884   35.1480   41.1824 H   0  0  0  0  0  0  0  0  0  0  0  0
   40.5103   36.1651   40.6908 H   0  0  0  0  0  0  0  0  0  0  0  0
   39.0921   33.9960   39.1550 H   0  0  0  0  0  0  0  0  0  0  0  0
   39.4184   35.7612   38.7355 H   0  0  0  0  0  0  0  0  0  0  0  0
   41.5392   35.3724   38.0945 H   0  0  0  0  0  0  0  0  0  0  0  0
   40.6780   33.8779   37.5262 H   0  0  0  0  0  0  0  0  0  0  0  0
   41.4562   32.6186   39.2434 H   0  0  0  0  0  0  0  0  0  0  0  0
   43.4112   35.4116   39.5860 H   0  0  0  0  0  0  0  0  0  0  0  0
   42.2293   36.0803   40.8020 H   0  0  0  0  0  0  0  0  0  0  0  0
   45.3433   35.6308   44.4918 H   0  0  0  0  0  0  0  0  0  0  0  0
   50.4667   35.8239   41.8419 H   0  0  0  0  0  0  0  0  0  0  0  0
   48.1146   36.5980   41.8541 H   0  0  0  0  0  0  0  0  0  0  0  0
   49.2284   31.9704   43.0951 H   0  0  0  0  0  0  0  0  0  0  0  0
   43.0552   30.8225   39.6099 H   0  0  0  0  0  0  0  0  0  0  0  0
   44.6709   29.2111   40.6230 H   0  0  0  0  0  0  0  0  0  0  0  0
   47.8327   31.9149   39.7077 H   0  0  0  0  0  0  0  0  0  0  0  0
  1  7  1  0
  1  2  1  0
  3  2  1  0
  4  3  1  0
  5  6  1  0
  5  4  1  0
  6  1  1  0
  7 11  1  0
  8  9  1  0
 10  9  2  0
 11 10  1  0
 12 11  2  0
 12  8  1  0
 13 14  2  0
 13 18  1  0
 14 15  1  0
 15  8  1  0
 15 16  2  0
 17 16  1  0
 18 17  2  0
 19 20  1  0
 19  6  1  0
 20 25  1  0
 20 21  2  0
 21 22  1  0
 22 23  2  0
 24 23  1  0
 25 24  2  0
  2 26  1  0
  2 27  1  0
  3 28  1  0
  3 29  1  0
  4 30  1  0
  4 31  1  0
  5 32  1  0
  5 33  1  0
  6 34  1  1
  7 35  1  0
  7 36  1  0
  9 37  1  0
 13 38  1  0
 14 39  1  0
 17 40  1  0
 21 41  1  0
 22 42  1  0
 24 43  1  0
M  ISO  8  26  13  27  13  28  13  29  13  30  13  31  13  32  13  33  13
M  ISO  8  34  13  35   8  36   8  37  14  38  14  39  14  40  14  41  14
M  ISO  2  42  14  43  14
M  END
>  <minimizedAffinity>  (1) 
-5.06616402

>  <minimizedRMSD>  (1) 
0.731080949

$$$$
