
     RDKit          3D

 40 43  0  0  1  0  0  0  0  0999 V2000
   42.1510   34.0400   40.5670 N   0  0  0  0  0  0  0  0  0  0  0  0
   40.9530   34.2360   41.3130 C   0  0  0  0  0  0  0  0  0  0  0  0
   40.0420   35.2140   40.6340 C   0  0  0  0  0  0  0  0  0  0  0  0
   39.7990   34.8480   39.1990 C   0  0  0  0  0  0  0  0  0  0  0  0
   40.9970   34.3880   38.4190 C   0  0  0  0  0  0  0  0  0  0  0  0
   41.9300   33.5530   39.2340 C   0  0  1  0  0  0  0  0  0  0  0  0
   42.9190   35.2490   40.5680 C   0  0  0  0  0  0  0  0  0  0  0  0
   45.9430   35.0150   42.5240 N   0  0  0  0  0  0  0  0  0  0  0  0
   45.0890   35.4530   43.4260 C   0  0  0  0  0  0  0  0  0  0  0  0
   43.8760   35.6160   42.9080 N   0  0  0  0  0  0  0  0  0  0  0  0
   43.9800   35.2590   41.6150 C   0  0  0  0  0  0  0  0  0  0  0  0
   45.2800   34.8780   41.3610 N   0  0  0  0  0  0  0  0  0  0  0  0
   49.6610   35.1270   42.1310 C   0  0  0  0  0  0  0  0  0  0  0  0
   48.3500   35.5600   42.1390 C   0  0  0  0  0  0  0  0  0  0  0  0
   47.3260   34.6700   42.4850 C   0  0  0  0  0  0  0  0  0  0  0  0
   47.7160   33.4120   42.7960 N   0  0  0  0  0  0  0  0  0  0  0  0
   48.9790   32.9920   42.7890 C   0  0  0  0  0  0  0  0  0  0  0  0
   49.9560   33.8630   42.4530 N   0  0  0  0  0  0  0  0  0  0  0  0
   43.5090   33.3330   38.4220 S   0  0  0  0  0  0  0  0  0  0  0  0
   44.6090   32.3050   39.3640 C   0  0  0  0  0  0  0  0  0  0  0  0
   45.9070   32.4120   39.0100 N   0  0  0  0  0  0  0  0  0  0  0  0
   46.6130   31.6140   39.7700 O   0  0  0  0  0  0  0  0  0  0  0  0
   45.8150   30.9860   40.6140 C   0  0  0  0  0  0  0  0  0  0  0  0
   44.5440   31.4100   40.3720 N   0  0  0  0  0  0  0  0  0  0  0  0
   40.4324   33.2723   41.4144 H   0  0  0  0  0  0  0  0  0  0  0  0
   41.2212   34.6395   42.3006 H   0  0  0  0  0  0  0  0  0  0  0  0
   39.0788   35.2307   41.1649 H   0  0  0  0  0  0  0  0  0  0  0  0
   40.5243   36.2024   40.6571 H   0  0  0  0  0  0  0  0  0  0  0  0
   39.0555   34.0375   39.1809 H   0  0  0  0  0  0  0  0  0  0  0  0
   39.4692   35.7768   38.7106 H   0  0  0  0  0  0  0  0  0  0  0  0
   40.6509   33.7932   37.5608 H   0  0  0  0  0  0  0  0  0  0  0  0
   41.5480   35.2841   38.0974 H   0  0  0  0  0  0  0  0  0  0  0  0
   41.4154   32.5849   39.3231 H   0  0  0  0  0  0  0  0  0  0  0  0
   43.3959   35.3631   39.5834 H   0  0  0  0  0  0  0  0  0  0  0  0
   42.2303   36.0784   40.7867 H   0  0  0  0  0  0  0  0  0  0  0  0
   45.3471   35.6580   44.4755 H   0  0  0  0  0  0  0  0  0  0  0  0
   50.4665   35.8249   41.8585 H   0  0  0  0  0  0  0  0  0  0  0  0
   48.1108   36.6006   41.8745 H   0  0  0  0  0  0  0  0  0  0  0  0
   49.2236   31.9524   43.0525 H   0  0  0  0  0  0  0  0  0  0  0  0
   46.1215   30.2531   41.3748 H   0  0  0  0  0  0  0  0  0  0  0  0
  1  7  1  0
  1  2  1  0
  3  2  1  0
  4  3  1  0
  5  4  1  0
  5  6  1  0
  6  1  1  0
  7 11  1  0
  8  9  1  0
 10  9  2  0
 11 10  1  0
 12 11  2  0
 12  8  1  0
 13 14  2  0
 13 18  1  0
 14 15  1  0
 15  8  1  0
 15 16  2  0
 17 16  1  0
 18 17  2  0
 19  6  1  0
 19 20  1  0
 20 24  1  0
 21 20  2  0
 21 22  1  0
 22 23  1  0
 24 23  2  0
  2 25  1  0
  2 26  1  0
  3 27  1  0
  3 28  1  0
  4 29  1  0
  4 30  1  0
  5 31  1  0
  5 32  1  0
  6 33  1  1
  7 34  1  0
  7 35  1  0
  9 36  1  0
 13 37  1  0
 14 38  1  0
 17 39  1  0
 23 40  1  0
M  ISO  8  25  13  26  13  27  13  28  13  29  13  30  13  31  13  32  13
M  ISO  8  33  13  34   8  35   8  36  14  37  14  38  14  39  14  40  14
M  END
>  <minimizedAffinity>  (1) 
-5.05199146

>  <minimizedRMSD>  (1) 
0.707835734

$$$$
