
     RDKit          3D

 23 24  0  0  0  0  0  0  0  0999 V2000
   44.0290   35.0360   41.2470 C   0  0  0  0  0  0  0  0  0  0  0  0
   44.2330   35.8430   43.5830 C   0  0  0  0  0  0  0  0  0  0  0  0
   44.4240   34.8330   42.6420 C   0  0  0  0  0  0  0  0  0  0  0  0
   45.0090   33.6080   43.0610 C   0  0  0  0  0  0  0  0  0  0  0  0
   45.3470   33.5110   44.3850 N   0  0  0  0  0  0  0  0  0  0  0  0
   45.1400   34.5140   45.2450 C   0  0  0  0  0  0  0  0  0  0  0  0
   44.5820   35.7020   44.8760 N   0  0  0  0  0  0  0  0  0  0  0  0
   42.5900   34.7770   41.1310 C   0  0  0  0  0  0  0  0  0  0  0  0
   42.0860   33.4920   41.1590 C   0  0  0  0  0  0  0  0  0  0  0  0
   40.7370   33.1920   41.0540 C   0  0  0  0  0  0  0  0  0  0  0  0
   39.8430   34.2580   40.9130 C   0  0  0  0  0  0  0  0  0  0  0  0
   40.2750   35.5800   40.8780 C   0  0  0  0  0  0  0  0  0  0  0  0
   41.6360   35.7620   40.9900 C   0  0  0  0  0  0  0  0  0  0  0  0
   44.2455   36.0718   40.9465 H   0  0  0  0  0  0  0  0  0  0  0  0
   44.5900   34.3530   40.5921 H   0  0  0  0  0  0  0  0  0  0  0  0
   43.7801   36.7911   43.2574 H   0  0  0  0  0  0  0  0  0  0  0  0
   45.1817   32.7797   42.3581 H   0  0  0  0  0  0  0  0  0  0  0  0
   45.4327   34.3744   46.2961 H   0  0  0  0  0  0  0  0  0  0  0  0
   42.7955   32.6589   41.2710 H   0  0  0  0  0  0  0  0  0  0  0  0
   40.3818   32.1513   41.0807 H   0  0  0  0  0  0  0  0  0  0  0  0
   38.7672   34.0451   40.8273 H   0  0  0  0  0  0  0  0  0  0  0  0
   39.5770   36.4231   40.7683 H   0  0  0  0  0  0  0  0  0  0  0  0
   41.9987   36.8002   40.9643 H   0  0  0  0  0  0  0  0  0  0  0  0
  1  3  1  0
  2  7  2  0
  3  4  2  0
  3  2  1  0
  4  5  1  0
  5  6  2  0
  7  6  1  0
  8  9  2  0
  8  1  1  0
 10  9  1  0
 11 10  2  0
 12 11  1  0
 12 13  2  0
 13  8  1  0
  1 14  1  0
  1 15  1  0
  2 16  1  0
  4 17  1  0
  6 18  1  0
  9 19  1  0
 10 20  1  0
 11 21  1  0
 12 22  1  0
 13 23  1  0
M  ISO  8  14   8  15   8  16  14  17  14  18  14  19  14  20  14  21  14
M  ISO  2  22  14  23  14
M  END
>  <minimizedAffinity>  (1) 
-4.21526051

>  <minimizedRMSD>  (1) 
0.771557331

$$$$
