
     RDKit          3D

 26 27  0  0  0  0  0  0  0  0999 V2000
   44.3020   35.9290   43.8530 C   0  0  0  0  0  0  0  0  0  0  0  0
   44.2020   35.1360   42.6970 C   0  0  0  0  0  0  0  0  0  0  0  0
   44.6770   33.8130   42.7380 C   0  0  0  0  0  0  0  0  0  0  0  0
   45.2140   33.3690   43.9110 N   0  0  0  0  0  0  0  0  0  0  0  0
   45.2840   34.1730   44.9900 C   0  0  0  0  0  0  0  0  0  0  0  0
   44.8360   35.4600   44.9940 N   0  0  0  0  0  0  0  0  0  0  0  0
   43.6140   35.6990   41.4890 C   0  0  0  0  0  0  0  0  0  0  0  0
   42.4820   34.9240   41.0620 N   0  0  0  0  0  0  0  0  0  0  0  0
   42.3720   34.8130   39.6350 C   0  0  0  0  0  0  0  0  0  0  0  0
   40.9310   34.4180   39.2890 C   0  0  0  0  0  0  0  0  0  0  0  0
   40.0750   35.4600   39.6150 O   0  0  0  0  0  0  0  0  0  0  0  0
   40.4730   36.1850   40.7230 C   0  0  0  0  0  0  0  0  0  0  0  0
   41.2670   35.3470   41.7100 C   0  0  0  0  0  0  0  0  0  0  0  0
   43.9322   36.9645   43.8232 H   0  0  0  0  0  0  0  0  0  0  0  0
   44.6177   33.1591   41.8554 H   0  0  0  0  0  0  0  0  0  0  0  0
   45.7248   33.7704   45.9139 H   0  0  0  0  0  0  0  0  0  0  0  0
   43.2887   36.7298   41.6932 H   0  0  0  0  0  0  0  0  0  0  0  0
   44.3705   35.6866   40.6905 H   0  0  0  0  0  0  0  0  0  0  0  0
   42.6148   35.7787   39.1676 H   0  0  0  0  0  0  0  0  0  0  0  0
   43.0724   34.0521   39.2603 H   0  0  0  0  0  0  0  0  0  0  0  0
   40.6498   33.5204   39.8593 H   0  0  0  0  0  0  0  0  0  0  0  0
   40.8573   34.2061   38.2121 H   0  0  0  0  0  0  0  0  0  0  0  0
   41.0996   37.0250   40.3888 H   0  0  0  0  0  0  0  0  0  0  0  0
   39.5661   36.5372   41.2362 H   0  0  0  0  0  0  0  0  0  0  0  0
   40.6787   34.4673   42.0101 H   0  0  0  0  0  0  0  0  0  0  0  0
   41.4999   35.9361   42.6093 H   0  0  0  0  0  0  0  0  0  0  0  0
  1  6  2  0
  2  3  2  0
  2  1  1  0
  3  4  1  0
  4  5  2  0
  5  6  1  0
  7  2  1  0
  8  7  1  0
  8 13  1  0
  9  8  1  0
 10 11  1  0
 10  9  1  0
 11 12  1  0
 12 13  1  0
  1 14  1  0
  3 15  1  0
  5 16  1  0
  7 17  1  0
  7 18  1  0
  9 19  1  0
  9 20  1  0
 10 21  1  0
 10 22  1  0
 12 23  1  0
 12 24  1  0
 13 25  1  0
 13 26  1  0
M  ISO  8  14  14  15  14  16  14  17   8  18   8  19  13  20  13  21  13
M  ISO  5  22  13  23  13  24  13  25  13  26  13
M  END
>  <minimizedAffinity>  (1) 
-4.0632658

>  <minimizedRMSD>  (1) 
1.15591514

$$$$
