
     RDKit          3D

 20 21  0  0  0  0  0  0  0  0999 V2000
   44.2550   35.7770   44.1740 C   0  0  0  0  0  0  0  0  0  0  0  0
   44.4440   34.9450   43.0500 C   0  0  0  0  0  0  0  0  0  0  0  0
   45.0970   33.7190   43.2400 C   0  0  0  0  0  0  0  0  0  0  0  0
   45.5150   33.3950   44.5020 N   0  0  0  0  0  0  0  0  0  0  0  0
   45.3070   34.2340   45.5460 C   0  0  0  0  0  0  0  0  0  0  0  0
   44.6850   35.4210   45.4110 N   0  0  0  0  0  0  0  0  0  0  0  0
   43.9590   35.3810   41.7360 C   0  0  0  0  0  0  0  0  0  0  0  0
   42.5840   34.9840   41.5050 N   0  0  0  0  0  0  0  0  0  0  0  0
   41.4020   35.5900   41.6990 C   0  0  0  0  0  0  0  0  0  0  0  0
   40.3620   34.7720   41.3090 C   0  0  0  0  0  0  0  0  0  0  0  0
   40.9230   33.6360   40.8650 N   0  0  0  0  0  0  0  0  0  0  0  0
   42.2590   33.7650   40.9840 C   0  0  0  0  0  0  0  0  0  0  0  0
   43.7442   36.7424   44.0437 H   0  0  0  0  0  0  0  0  0  0  0  0
   45.2690   33.0349   42.3960 H   0  0  0  0  0  0  0  0  0  0  0  0
   45.6603   33.9335   46.5434 H   0  0  0  0  0  0  0  0  0  0  0  0
   44.0264   36.4774   41.6786 H   0  0  0  0  0  0  0  0  0  0  0  0
   44.5842   34.9029   40.9675 H   0  0  0  0  0  0  0  0  0  0  0  0
   41.2794   36.6018   42.1129 H   0  0  0  0  0  0  0  0  0  0  0  0
   39.2877   35.0041   41.3530 H   0  0  0  0  0  0  0  0  0  0  0  0
   42.9888   32.9926   40.6998 H   0  0  0  0  0  0  0  0  0  0  0  0
  1  6  2  0
  2  3  2  0
  2  1  1  0
  3  4  1  0
  4  5  2  0
  6  5  1  0
  7  2  1  0
  8  9  1  0
  8  7  1  0
 10  9  2  0
 11 12  2  0
 11 10  1  0
 12  8  1  0
  1 13  1  0
  3 14  1  0
  5 15  1  0
  7 16  1  0
  7 17  1  0
  9 18  1  0
 10 19  1  0
 12 20  1  0
M  ISO  8  13  14  14  14  15  14  16   8  17   8  18  14  19  14  20  14
M  END
>  <minimizedAffinity>  (1) 
-3.66279531

>  <minimizedRMSD>  (1) 
0.605435252

$$$$
