
     RDKit          3D

 15 15  0  0  0  0  0  0  0  0999 V2000
   44.3340   35.8000   44.2670 C   0  0  0  0  0  0  0  0  0  0  0  0
   44.5410   35.0430   43.0980 C   0  0  0  0  0  0  0  0  0  0  0  0
   45.1630   33.7830   43.2210 C   0  0  0  0  0  0  0  0  0  0  0  0
   45.5250   33.3850   44.4860 N   0  0  0  0  0  0  0  0  0  0  0  0
   45.3050   34.1460   45.5620 C   0  0  0  0  0  0  0  0  0  0  0  0
   44.7070   35.3690   45.4880 N   0  0  0  0  0  0  0  0  0  0  0  0
   44.1170   35.5610   41.8060 C   0  0  0  0  0  0  0  0  0  0  0  0
   44.5350   34.7490   40.6940 N   0  0  0  0  0  0  0  0  0  0  0  0
   43.8481   36.7830   44.1800 H   0  0  0  0  0  0  0  0  0  0  0  0
   45.3501   33.1469   42.3433 H   0  0  0  0  0  0  0  0  0  0  0  0
   45.6190   33.7707   46.5472 H   0  0  0  0  0  0  0  0  0  0  0  0
   43.0187   35.6213   41.7990 H   0  0  0  0  0  0  0  0  0  0  0  0
   44.5911   36.5459   41.6822 H   0  0  0  0  0  0  0  0  0  0  0  0
   44.9782   33.8880   41.0450 H   0  0  0  0  0  0  0  0  0  0  0  0
   43.7153   34.5040   40.1205 H   0  0  0  0  0  0  0  0  0  0  0  0
  1  6  2  0
  2  3  2  0
  2  1  1  0
  3  4  1  0
  4  5  2  0
  6  5  1  0
  7  2  1  0
  8  7  1  0
  1  9  1  0
  3 10  1  0
  5 11  1  0
  7 12  1  0
  7 13  1  0
  8 14  1  0
  8 15  1  0
M  ISO  7   9  14  10  14  11  14  12   8  13   8  14   5  15   5
M  END
>  <minimizedAffinity>  (1) 
-2.91754866

>  <minimizedRMSD>  (1) 
0.756128728

$$$$
