
     RDKit          3D

 24 25  0  0  0  0  0  0  0  0999 V2000
   43.8260   35.0610   41.4680 C   0  0  0  0  0  0  0  0  0  0  0  0
   42.5230   34.3980   41.3480 C   0  0  0  0  0  0  0  0  0  0  0  0
   42.4270   33.0450   41.1270 C   0  0  0  0  0  0  0  0  0  0  0  0
   41.2210   32.3680   41.0050 C   0  0  0  0  0  0  0  0  0  0  0  0
   40.0440   33.1240   41.1170 C   0  0  0  0  0  0  0  0  0  0  0  0
   40.0710   34.4910   41.3400 C   0  0  0  0  0  0  0  0  0  0  0  0
   41.3280   35.0630   41.4450 C   0  0  0  0  0  0  0  0  0  0  0  0
   41.3420   36.4340   41.6680 O   0  0  0  0  0  0  0  0  0  0  0  0
   44.1530   35.8080   43.8180 C   0  0  0  0  0  0  0  0  0  0  0  0
   44.3380   34.8370   42.8330 C   0  0  0  0  0  0  0  0  0  0  0  0
   45.0250   33.6360   43.1580 C   0  0  0  0  0  0  0  0  0  0  0  0
   45.4560   33.5330   44.4480 N   0  0  0  0  0  0  0  0  0  0  0  0
   45.2530   34.4930   45.3570 C   0  0  0  0  0  0  0  0  0  0  0  0
   44.6040   35.6470   45.0730 N   0  0  0  0  0  0  0  0  0  0  0  0
   43.7121   36.1399   41.2863 H   0  0  0  0  0  0  0  0  0  0  0  0
   44.5289   34.6500   40.7284 H   0  0  0  0  0  0  0  0  0  0  0  0
   43.3582   32.4657   41.0420 H   0  0  0  0  0  0  0  0  0  0  0  0
   41.1894   31.2828   40.8277 H   0  0  0  0  0  0  0  0  0  0  0  0
   39.0723   32.6167   41.0251 H   0  0  0  0  0  0  0  0  0  0  0  0
   39.1500   35.0860   41.4283 H   0  0  0  0  0  0  0  0  0  0  0  0
   40.4897   36.9323   41.7411 H   0  0  0  0  0  0  0  0  0  0  0  0
   43.6208   36.7350   43.5584 H   0  0  0  0  0  0  0  0  0  0  0  0
   45.1979   32.8413   42.4174 H   0  0  0  0  0  0  0  0  0  0  0  0
   45.6294   34.3384   46.3790 H   0  0  0  0  0  0  0  0  0  0  0  0
  1 10  1  0
  2  7  1  0
  2  1  1  0
  3  2  2  0
  4  5  2  0
  4  3  1  0
  5  6  1  0
  6  7  2  0
  7  8  1  0
  9 14  2  0
 10 11  2  0
 10  9  1  0
 11 12  1  0
 12 13  2  0
 14 13  1  0
  1 15  1  0
  1 16  1  0
  3 17  1  0
  4 18  1  0
  5 19  1  0
  6 20  1  0
  8 21  1  0
  9 22  1  0
 11 23  1  0
 13 24  1  0
M  ISO  8  15   8  16   8  17  14  18  14  19  14  20  14  21   3  22  14
M  ISO  2  23  14  24  14
M  END
>  <minimizedAffinity>  (1) 
-4.33488798

>  <minimizedRMSD>  (1) 
0.696616709

$$$$
