
     RDKit          3D

 37 39  0  0  1  0  0  0  0  0999 V2000
   49.0470   33.6800   42.6680 C   0  0  2  0  0  0  0  0  0  0  0  0
   47.6660   33.9390   42.4500 C   0  0  2  0  0  0  0  0  0  0  0  0
   47.6270   35.3930   41.9180 C   0  0  0  0  0  0  0  0  0  0  0  0
   49.0150   35.8190   41.5740 C   0  0  0  0  0  0  0  0  0  0  0  0
   49.7950   35.0600   42.5550 C   0  0  0  0  0  0  0  0  0  0  0  0
   49.7870   32.8280   41.7390 C   0  0  0  0  0  0  0  0  0  0  0  0
   49.0580   32.2150   40.7360 C   0  0  0  0  0  0  0  0  0  0  0  0
   49.6440   31.3680   39.8060 C   0  0  0  0  0  0  0  0  0  0  0  0
   51.0190   31.2020   39.9740 N   0  0  0  0  0  0  0  0  0  0  0  0
   51.7150   31.7980   40.9400 C   0  0  0  0  0  0  0  0  0  0  0  0
   51.0950   32.6010   41.8090 N   0  0  0  0  0  0  0  0  0  0  0  0
   46.7590   33.8330   43.6230 C   0  0  0  0  0  0  0  0  0  0  0  0
   45.8960   34.6410   43.8310 O   0  0  0  0  0  0  0  0  0  0  0  0
   46.7680   32.8020   44.6380 C   0  0  0  0  0  0  0  0  0  0  0  0
   46.8470   33.1280   45.9830 C   0  0  0  0  0  0  0  0  0  0  0  0
   46.8560   32.1570   46.9930 C   0  0  0  0  0  0  0  0  0  0  0  0
   46.7850   30.8160   46.6800 C   0  0  0  0  0  0  0  0  0  0  0  0
   46.7070   30.4690   45.3380 C   0  0  0  0  0  0  0  0  0  0  0  0
   46.7010   31.4660   44.3770 C   0  0  0  0  0  0  0  0  0  0  0  0
   46.5880   30.9100   43.0950 N   0  0  0  0  0  0  0  0  0  0  0  0
   49.0355   33.1475   43.6305 H   0  0  0  0  0  0  0  0  0  0  0  0
   47.2851   33.1619   41.7710 H   0  0  0  0  0  0  0  0  0  0  0  0
   46.9929   35.4409   41.0205 H   0  0  0  0  0  0  0  0  0  0  0  0
   47.2122   36.0605   42.6876 H   0  0  0  0  0  0  0  0  0  0  0  0
   49.2796   35.5382   40.5439 H   0  0  0  0  0  0  0  0  0  0  0  0
   49.1766   36.9064   41.6114 H   0  0  0  0  0  0  0  0  0  0  0  0
   50.8273   34.9154   42.2035 H   0  0  0  0  0  0  0  0  0  0  0  0
   49.8681   35.5774   43.5230 H   0  0  0  0  0  0  0  0  0  0  0  0
   47.9764   32.4055   40.6734 H   0  0  0  0  0  0  0  0  0  0  0  0
   49.0745   30.8712   39.0067 H   0  0  0  0  0  0  0  0  0  0  0  0
   52.7989   31.6294   41.0223 H   0  0  0  0  0  0  0  0  0  0  0  0
   46.9048   34.1889   46.2680 H   0  0  0  0  0  0  0  0  0  0  0  0
   46.9204   32.4676   48.0463 H   0  0  0  0  0  0  0  0  0  0  0  0
   46.7900   30.0473   47.4668 H   0  0  0  0  0  0  0  0  0  0  0  0
   46.6505   29.4114   45.0407 H   0  0  0  0  0  0  0  0  0  0  0  0
   46.5428   29.8875   42.9792 H   0  0  0  0  0  0  0  0  0  0  0  0
   46.5502   31.5240   42.2689 H   0  0  0  0  0  0  0  0  0  0  0  0
  2  1  1  0
  2 12  1  0
  3  2  1  0
  4  3  1  0
  4  5  1  0
  5  1  1  0
  6 11  1  0
  6  1  1  0
  7  6  2  0
  8  9  2  0
  8  7  1  0
  9 10  1  0
 10 11  2  0
 12 13  2  0
 12 14  1  0
 14 15  2  0
 15 16  1  0
 17 16  2  0
 18 17  1  0
 19 14  1  0
 19 18  2  0
 20 19  1  0
  1 21  1  1
  2 22  1  6
  3 23  1  0
  3 24  1  0
  4 25  1  0
  4 26  1  0
  5 27  1  0
  5 28  1  0
  7 29  1  0
  8 30  1  0
 10 31  1  0
 15 32  1  0
 16 33  1  0
 17 34  1  0
 18 35  1  0
 20 36  1  0
 20 37  1  0
M  ISO  8  21  13  22  13  23  13  24  13  25  13  26  13  27  13  28  13
M  ISO  7  29  14  30  14  31  14  32  14  33  14  34  14  35  14
M  END
>  <minimizedAffinity>  (1) 
-5.20293999

>  <minimizedRMSD>  (1) 
0.315917134

$$$$
