
     RDKit          3D

 36 38  0  0  1  0  0  0  0  0999 V2000
   49.0190   33.7130   42.6960 C   0  0  2  0  0  0  0  0  0  0  0  0
   47.6380   33.9770   42.4690 C   0  0  2  0  0  0  0  0  0  0  0  0
   47.6170   35.4270   41.9190 C   0  0  0  0  0  0  0  0  0  0  0  0
   49.0160   35.8360   41.5660 C   0  0  0  0  0  0  0  0  0  0  0  0
   49.7840   35.0790   42.5610 C   0  0  0  0  0  0  0  0  0  0  0  0
   49.7490   32.8400   41.7820 C   0  0  0  0  0  0  0  0  0  0  0  0
   49.0240   32.1900   40.8100 C   0  0  0  0  0  0  0  0  0  0  0  0
   49.5920   31.3200   39.8950 C   0  0  0  0  0  0  0  0  0  0  0  0
   50.9700   31.1640   40.0470 N   0  0  0  0  0  0  0  0  0  0  0  0
   51.6710   31.7930   40.9830 C   0  0  0  0  0  0  0  0  0  0  0  0
   51.0500   32.6120   41.8250 N   0  0  0  0  0  0  0  0  0  0  0  0
   46.7340   33.8950   43.6440 C   0  0  0  0  0  0  0  0  0  0  0  0
   45.8990   34.7360   43.8530 O   0  0  0  0  0  0  0  0  0  0  0  0
   46.7010   32.8720   44.6560 C   0  0  0  0  0  0  0  0  0  0  0  0
   46.8410   33.1780   46.0130 C   0  0  0  0  0  0  0  0  0  0  0  0
   46.8260   32.2130   47.0260 C   0  0  0  0  0  0  0  0  0  0  0  0
   46.6660   30.8790   46.6710 C   0  0  0  0  0  0  0  0  0  0  0  0
   46.5220   30.5370   45.3280 C   0  0  0  0  0  0  0  0  0  0  0  0
   46.5430   31.5460   44.3760 C   0  0  0  0  0  0  0  0  0  0  0  0
   46.1820   30.7300   42.8430 S   0  0  0  0  0  0  0  0  0  0  0  0
   48.9997   33.2026   43.6703 H   0  0  0  0  0  0  0  0  0  0  0  0
   47.2477   33.1967   41.7991 H   0  0  0  0  0  0  0  0  0  0  0  0
   46.9822   35.4719   41.0218 H   0  0  0  0  0  0  0  0  0  0  0  0
   47.2123   36.1080   42.6822 H   0  0  0  0  0  0  0  0  0  0  0  0
   49.2781   35.5379   40.5401 H   0  0  0  0  0  0  0  0  0  0  0  0
   49.1914   36.9218   41.5856 H   0  0  0  0  0  0  0  0  0  0  0  0
   50.8145   34.9143   42.2131 H   0  0  0  0  0  0  0  0  0  0  0  0
   49.8616   35.6105   43.5209 H   0  0  0  0  0  0  0  0  0  0  0  0
   47.9402   32.3704   40.7573 H   0  0  0  0  0  0  0  0  0  0  0  0
   49.0104   30.7998   39.1197 H   0  0  0  0  0  0  0  0  0  0  0  0
   52.7571   31.6373   41.0607 H   0  0  0  0  0  0  0  0  0  0  0  0
   46.9696   34.2323   46.2991 H   0  0  0  0  0  0  0  0  0  0  0  0
   46.9384   32.5040   48.0808 H   0  0  0  0  0  0  0  0  0  0  0  0
   46.6531   30.0979   47.4454 H   0  0  0  0  0  0  0  0  0  0  0  0
   46.3940   29.4864   45.0281 H   0  0  0  0  0  0  0  0  0  0  0  0
   45.6374   29.4990   43.0981 H   0  0  0  0  0  0  0  0  0  0  0  0
  2  1  1  0
  2 12  1  0
  3  2  1  0
  4  3  1  0
  4  5  1  0
  5  1  1  0
  6 11  1  0
  6  1  1  0
  7  6  2  0
  8  9  2  0
  8  7  1  0
  9 10  1  0
 10 11  2  0
 12 13  2  0
 12 14  1  0
 14 15  2  0
 15 16  1  0
 17 16  2  0
 18 17  1  0
 19 14  1  0
 19 18  2  0
 20 19  1  0
  1 21  1  1
  2 22  1  6
  3 23  1  0
  3 24  1  0
  4 25  1  0
  4 26  1  0
  5 27  1  0
  5 28  1  0
  7 29  1  0
  8 30  1  0
 10 31  1  0
 15 32  1  0
 16 33  1  0
 17 34  1  0
 18 35  1  0
 20 36  1  0
M  ISO  8  21  13  22  13  23  13  24  13  25  13  26  13  27  13  28  13
M  ISO  8  29  14  30  14  31  14  32  14  33  14  34  14  35  14  36  11
M  END
>  <minimizedAffinity>  (1) 
-5.17350435

>  <minimizedRMSD>  (1) 
0.366662532

$$$$
