
     RDKit          3D

 36 38  0  0  0  0  0  0  0  0999 V2000
   42.0140   33.4650   40.8780 C   0  0  0  0  0  0  0  0  0  0  0  0
   42.4340   32.2540   41.3860 C   0  0  0  0  0  0  0  0  0  0  0  0
   41.6520   31.3530   42.0630 C   0  0  0  0  0  0  0  0  0  0  0  0
   40.3140   31.7070   42.2420 C   0  0  0  0  0  0  0  0  0  0  0  0
   39.8140   32.8870   41.7710 C   0  0  0  0  0  0  0  0  0  0  0  0
   40.6850   33.7540   41.0890 C   0  0  0  0  0  0  0  0  0  0  0  0
   42.9430   34.3410   40.1740 C   0  0  0  0  0  0  0  0  0  0  0  0
   43.7790   35.4960   42.1710 C   0  0  0  0  0  0  0  0  0  0  0  0
   44.0420   34.7000   41.0770 C   0  0  0  0  0  0  0  0  0  0  0  0
   45.3730   34.2540   40.8660 C   0  0  0  0  0  0  0  0  0  0  0  0
   46.3120   34.6540   41.7770 N   0  0  0  0  0  0  0  0  0  0  0  0
   45.9800   35.4330   42.8210 C   0  0  0  0  0  0  0  0  0  0  0  0
   44.7290   35.8700   43.0460 N   0  0  0  0  0  0  0  0  0  0  0  0
   40.0780   35.0080   40.6090 C   0  0  0  0  0  0  0  0  0  0  0  0
   38.8880   34.7440   39.6800 C   0  0  0  0  0  0  0  0  0  0  0  0
   39.3620   34.3290   38.3190 C   0  0  0  0  0  0  0  0  0  0  0  0
   38.2960   33.5970   37.4950 C   0  0  0  0  0  0  0  0  0  0  0  0
   39.5420   32.9100   37.9550 C   0  0  0  0  0  0  0  0  0  0  0  0
   43.4902   31.9865   41.2349 H   0  0  0  0  0  0  0  0  0  0  0  0
   42.0572   30.4039   42.4438 H   0  0  0  0  0  0  0  0  0  0  0  0
   39.6445   31.0171   42.7767 H   0  0  0  0  0  0  0  0  0  0  0  0
   38.7571   33.1522   41.9214 H   0  0  0  0  0  0  0  0  0  0  0  0
   43.3455   33.8194   39.2931 H   0  0  0  0  0  0  0  0  0  0  0  0
   42.4190   35.2514   39.8477 H   0  0  0  0  0  0  0  0  0  0  0  0
   42.7473   35.8402   42.3354 H   0  0  0  0  0  0  0  0  0  0  0  0
   45.6372   33.6162   40.0096 H   0  0  0  0  0  0  0  0  0  0  0  0
   46.7713   35.7274   43.5261 H   0  0  0  0  0  0  0  0  0  0  0  0
   39.7313   35.5904   41.4754 H   0  0  0  0  0  0  0  0  0  0  0  0
   40.8399   35.5615   40.0405 H   0  0  0  0  0  0  0  0  0  0  0  0
   38.2674   33.9422   40.1066 H   0  0  0  0  0  0  0  0  0  0  0  0
   38.3013   35.6695   39.5840 H   0  0  0  0  0  0  0  0  0  0  0  0
   40.0281   35.1995   38.2265 H   0  0  0  0  0  0  0  0  0  0  0  0
   38.1558   33.8374   36.4308 H   0  0  0  0  0  0  0  0  0  0  0  0
   37.2153   33.4146   37.5895 H   0  0  0  0  0  0  0  0  0  0  0  0
   39.4805   32.1364   38.7346 H   0  0  0  0  0  0  0  0  0  0  0  0
   40.3371   32.3457   37.4457 H   0  0  0  0  0  0  0  0  0  0  0  0
  1  6  1  0
  1  2  2  0
  2  3  1  0
  3  4  2  0
  5  4  1  0
  6  5  2  0
  7  1  1  0
  7  9  1  0
  8 13  2  0
  9  8  1  0
 10  9  2  0
 10 11  1  0
 11 12  2  0
 12 13  1  0
 14  6  1  0
 15 14  1  0
 16 15  1  0
 17 18  1  0
 17 16  1  0
 18 16  1  0
  2 19  1  0
  3 20  1  0
  4 21  1  0
  5 22  1  0
  7 23  1  0
  7 24  1  0
  8 25  1  0
 10 26  1  0
 12 27  1  0
 14 28  1  0
 14 29  1  0
 15 30  1  0
 15 31  1  0
 16 32  1  0
 17 33  1  0
 17 34  1  0
 18 35  1  0
 18 36  1  0
M  ISO  8  19  14  20  14  21  14  22  14  23   8  24   8  25  14  26  14
M  ISO  8  27  14  28   8  29   8  30   8  31   8  32  13  33  13  34  13
M  ISO  2  35  13  36  13
M  END
>  <minimizedAffinity>  (1) 
-5.10741425

>  <minimizedRMSD>  (1) 
1.34909248

$$$$
