
     RDKit          3D

 43 46  0  0  0  0  0  0  0  0999 V2000
   42.2400   32.7040   41.2700 C   0  0  0  0  0  0  0  0  0  0  0  0
   42.9610   31.6130   41.7310 C   0  0  0  0  0  0  0  0  0  0  0  0
   42.4450   30.6010   42.4950 C   0  0  0  0  0  0  0  0  0  0  0  0
   41.1000   30.6830   42.8270 C   0  0  0  0  0  0  0  0  0  0  0  0
   40.3150   31.7330   42.4090 C   0  0  0  0  0  0  0  0  0  0  0  0
   40.9120   32.7340   41.6280 C   0  0  0  0  0  0  0  0  0  0  0  0
   42.8880   33.7310   40.4510 C   0  0  0  0  0  0  0  0  0  0  0  0
   43.6660   35.1770   42.2710 C   0  0  0  0  0  0  0  0  0  0  0  0
   43.9660   34.3400   41.2180 C   0  0  0  0  0  0  0  0  0  0  0  0
   45.3350   34.1000   40.9210 C   0  0  0  0  0  0  0  0  0  0  0  0
   46.2520   34.7280   41.7150 N   0  0  0  0  0  0  0  0  0  0  0  0
   45.8880   35.5330   42.7280 C   0  0  0  0  0  0  0  0  0  0  0  0
   44.5950   35.7780   43.0310 N   0  0  0  0  0  0  0  0  0  0  0  0
   40.0120   33.8300   41.2210 C   0  0  0  0  0  0  0  0  0  0  0  0
   38.6720   33.2840   40.6930 C   0  0  0  0  0  0  0  0  0  0  0  0
   38.8660   32.3700   39.5410 C   0  0  0  0  0  0  0  0  0  0  0  0
   39.6040   32.7290   38.4560 N   0  0  0  0  0  0  0  0  0  0  0  0
   39.7870   31.9400   37.3910 C   0  0  0  0  0  0  0  0  0  0  0  0
   39.2320   30.6970   37.3230 N   0  0  0  0  0  0  0  0  0  0  0  0
   38.4770   30.2570   38.3650 C   0  0  0  0  0  0  0  0  0  0  0  0
   37.8980   29.0080   38.3520 C   0  0  0  0  0  0  0  0  0  0  0  0
   37.1320   28.5560   39.4150 C   0  0  0  0  0  0  0  0  0  0  0  0
   36.9640   29.3810   40.4890 C   0  0  0  0  0  0  0  0  0  0  0  0
   37.5590   30.6360   40.4800 C   0  0  0  0  0  0  0  0  0  0  0  0
   38.3220   31.1100   39.4370 C   0  0  0  0  0  0  0  0  0  0  0  0
   44.0264   31.5565   41.4630 H   0  0  0  0  0  0  0  0  0  0  0  0
   43.0691   29.7598   42.8310 H   0  0  0  0  0  0  0  0  0  0  0  0
   40.6499   29.8882   43.4400 H   0  0  0  0  0  0  0  0  0  0  0  0
   39.2501   31.7860   42.6794 H   0  0  0  0  0  0  0  0  0  0  0  0
   42.1522   34.5004   40.1743 H   0  0  0  0  0  0  0  0  0  0  0  0
   43.2949   33.2746   39.5366 H   0  0  0  0  0  0  0  0  0  0  0  0
   42.6066   35.3628   42.5014 H   0  0  0  0  0  0  0  0  0  0  0  0
   45.6405   33.4421   40.0940 H   0  0  0  0  0  0  0  0  0  0  0  0
   46.6730   36.0102   43.3330 H   0  0  0  0  0  0  0  0  0  0  0  0
   39.8186   34.4766   42.0896 H   0  0  0  0  0  0  0  0  0  0  0  0
   40.4983   34.3985   40.4146 H   0  0  0  0  0  0  0  0  0  0  0  0
   38.1674   32.7354   41.5019 H   0  0  0  0  0  0  0  0  0  0  0  0
   38.0645   34.1364   40.3550 H   0  0  0  0  0  0  0  0  0  0  0  0
   40.3989   32.3025   36.5518 H   0  0  0  0  0  0  0  0  0  0  0  0
   38.0465   28.3549   37.4794 H   0  0  0  0  0  0  0  0  0  0  0  0
   36.6711   27.5574   39.3935 H   0  0  0  0  0  0  0  0  0  0  0  0
   36.3643   29.0558   41.3519 H   0  0  0  0  0  0  0  0  0  0  0  0
   37.4124   31.2870   41.3545 H   0  0  0  0  0  0  0  0  0  0  0  0
  1  6  1  0
  1  2  2  0
  2  3  1  0
  3  4  2  0
  5  4  1  0
  6  5  2  0
  7  9  1  0
  7  1  1  0
  8 13  2  0
  9  8  1  0
 10  9  2  0
 10 11  1  0
 11 12  2  0
 12 13  1  0
 14  6  1  0
 15 14  1  0
 16 15  1  0
 17 16  2  0
 18 17  1  0
 19 18  2  0
 19 20  1  0
 20 25  2  0
 21 20  1  0
 21 22  2  0
 22 23  1  0
 24 23  2  0
 25 16  1  0
 25 24  1  0
  2 26  1  0
  3 27  1  0
  4 28  1  0
  5 29  1  0
  7 30  1  0
  7 31  1  0
  8 32  1  0
 10 33  1  0
 12 34  1  0
 14 35  1  0
 14 36  1  0
 15 37  1  0
 15 38  1  0
 18 39  1  0
 21 40  1  0
 22 41  1  0
 23 42  1  0
 24 43  1  0
M  ISO  8  26  14  27  14  28  14  29  14  30   8  31   8  32  14  33  14
M  ISO  8  34  14  35   8  36   8  37   8  38   8  39  14  40  14  41  14
M  ISO  2  42  14  43  14
M  END
>  <minimizedAffinity>  (1) 
-5.02010298

>  <minimizedRMSD>  (1) 
2.11140418

$$$$
