
     RDKit          3D

 43 46  0  0  0  0  0  0  0  0999 V2000
   42.1840   32.8710   41.1450 C   0  0  0  0  0  0  0  0  0  0  0  0
   42.8320   31.7880   41.7050 C   0  0  0  0  0  0  0  0  0  0  0  0
   42.2430   30.8050   42.4620 C   0  0  0  0  0  0  0  0  0  0  0  0
   40.8720   30.9240   42.6770 C   0  0  0  0  0  0  0  0  0  0  0  0
   40.1500   31.9640   42.1610 C   0  0  0  0  0  0  0  0  0  0  0  0
   40.8330   32.9250   41.3970 C   0  0  0  0  0  0  0  0  0  0  0  0
   42.9170   33.8460   40.3590 C   0  0  0  0  0  0  0  0  0  0  0  0
   43.6670   35.2470   42.2360 C   0  0  0  0  0  0  0  0  0  0  0  0
   43.9930   34.4200   41.1750 C   0  0  0  0  0  0  0  0  0  0  0  0
   45.3610   34.1540   40.9170 C   0  0  0  0  0  0  0  0  0  0  0  0
   46.2720   34.7400   41.7410 N   0  0  0  0  0  0  0  0  0  0  0  0
   45.8850   35.5390   42.7610 C   0  0  0  0  0  0  0  0  0  0  0  0
   44.5900   35.8080   43.0290 N   0  0  0  0  0  0  0  0  0  0  0  0
   39.9960   34.0200   40.8720 C   0  0  0  0  0  0  0  0  0  0  0  0
   38.5930   33.5500   40.4870 C   0  0  0  0  0  0  0  0  0  0  0  0
   38.5440   32.9980   39.1640 N   0  0  0  0  0  0  0  0  0  0  0  0
   38.5110   33.8000   38.0590 C   0  0  0  0  0  0  0  0  0  0  0  0
   38.4690   33.0130   36.9670 N   0  0  0  0  0  0  0  0  0  0  0  0
   38.4740   31.7250   37.3360 C   0  0  0  0  0  0  0  0  0  0  0  0
   38.4450   30.4940   36.7130 C   0  0  0  0  0  0  0  0  0  0  0  0
   38.4010   30.5130   35.4400 O   0  0  0  0  0  0  0  0  0  0  0  0
   38.4620   29.3610   37.4080 N   0  0  0  0  0  0  0  0  0  0  0  0
   38.5090   29.3790   38.7590 C   0  0  0  0  0  0  0  0  0  0  0  0
   38.5240   28.1020   39.3850 N   0  0  0  0  0  0  0  0  0  0  0  0
   38.5380   30.5800   39.4060 N   0  0  0  0  0  0  0  0  0  0  0  0
   38.5210   31.7290   38.7150 C   0  0  0  0  0  0  0  0  0  0  0  0
   43.9148   31.7053   41.5295 H   0  0  0  0  0  0  0  0  0  0  0  0
   42.8235   29.9677   42.8767 H   0  0  0  0  0  0  0  0  0  0  0  0
   40.3563   30.1607   43.2781 H   0  0  0  0  0  0  0  0  0  0  0  0
   39.0675   32.0458   42.3386 H   0  0  0  0  0  0  0  0  0  0  0  0
   43.3492   33.3546   39.4748 H   0  0  0  0  0  0  0  0  0  0  0  0
   42.2343   34.6457   40.0358 H   0  0  0  0  0  0  0  0  0  0  0  0
   42.6051   35.4524   42.4367 H   0  0  0  0  0  0  0  0  0  0  0  0
   45.6727   33.5026   40.0873 H   0  0  0  0  0  0  0  0  0  0  0  0
   46.6591   35.9891   43.3998 H   0  0  0  0  0  0  0  0  0  0  0  0
   39.9080   34.7984   41.6442 H   0  0  0  0  0  0  0  0  0  0  0  0
   40.4809   34.4058   39.9632 H   0  0  0  0  0  0  0  0  0  0  0  0
   38.2697   32.7800   41.2030 H   0  0  0  0  0  0  0  0  0  0  0  0
   37.9284   34.4263   40.5091 H   0  0  0  0  0  0  0  0  0  0  0  0
   38.5176   34.9000   38.0607 H   0  0  0  0  0  0  0  0  0  0  0  0
   38.4391   28.4589   36.9115 H   0  0  0  0  0  0  0  0  0  0  0  0
   38.5593   28.0323   40.4120 H   0  0  0  0  0  0  0  0  0  0  0  0
   38.4996   27.2469   38.8113 H   0  0  0  0  0  0  0  0  0  0  0  0
  1  6  1  0
  1  2  2  0
  2  3  1  0
  3  4  2  0
  5  4  1  0
  6  5  2  0
  7  1  1  0
  7  9  1  0
  8 13  2  0
  9  8  1  0
 10  9  2  0
 10 11  1  0
 11 12  2  0
 12 13  1  0
 14  6  1  0
 15 14  1  0
 16 15  1  0
 17 16  1  0
 18 19  1  0
 18 17  2  0
 19 26  2  0
 20 19  1  0
 20 22  1  0
 21 20  2  0
 22 23  1  0
 23 24  1  0
 23 25  2  0
 26 16  1  0
 26 25  1  0
  2 27  1  0
  3 28  1  0
  4 29  1  0
  5 30  1  0
  7 31  1  0
  7 32  1  0
  8 33  1  0
 10 34  1  0
 12 35  1  0
 14 36  1  0
 14 37  1  0
 15 38  1  0
 15 39  1  0
 17 40  1  0
 22 41  1  0
 24 42  1  0
 24 43  1  0
M  ISO  8  27  14  28  14  29  14  30  14  31   8  32   8  33  14  34  14
M  ISO  7  35  14  36   8  37   8  38   8  39   8  40  14  41   9
M  END
>  <minimizedAffinity>  (1) 
-4.94189167

>  <minimizedRMSD>  (1) 
2.66875505

$$$$
