
     RDKit          3D

 36 38  0  0  0  0  0  0  0  0999 V2000
   42.2440   32.9180   41.1200 C   0  0  0  0  0  0  0  0  0  0  0  0
   42.8920   31.8250   41.6720 C   0  0  0  0  0  0  0  0  0  0  0  0
   42.2900   30.8420   42.4200 C   0  0  0  0  0  0  0  0  0  0  0  0
   40.9210   30.9700   42.6310 C   0  0  0  0  0  0  0  0  0  0  0  0
   40.2050   32.0170   42.1220 C   0  0  0  0  0  0  0  0  0  0  0  0
   40.8920   32.9840   41.3670 C   0  0  0  0  0  0  0  0  0  0  0  0
   42.9830   33.9050   40.3360 C   0  0  0  0  0  0  0  0  0  0  0  0
   43.7190   35.2820   42.2350 C   0  0  0  0  0  0  0  0  0  0  0  0
   44.0540   34.4660   41.1720 C   0  0  0  0  0  0  0  0  0  0  0  0
   45.4320   34.1910   40.9220 C   0  0  0  0  0  0  0  0  0  0  0  0
   46.3310   34.7730   41.7780 N   0  0  0  0  0  0  0  0  0  0  0  0
   45.9320   35.5550   42.7890 C   0  0  0  0  0  0  0  0  0  0  0  0
   44.6430   35.8300   43.0480 N   0  0  0  0  0  0  0  0  0  0  0  0
   40.0650   34.0760   40.8540 C   0  0  0  0  0  0  0  0  0  0  0  0
   38.6190   33.6070   40.5540 C   0  0  0  0  0  0  0  0  0  0  0  0
   38.5000   33.1060   39.2330 C   0  0  0  0  0  0  0  0  0  0  0  0
   38.2780   33.7490   37.9990 C   0  0  0  0  0  0  0  0  0  0  0  0
   38.2080   32.9730   36.8690 C   0  0  0  0  0  0  0  0  0  0  0  0
   38.3540   31.6060   36.9600 C   0  0  0  0  0  0  0  0  0  0  0  0
   38.6180   31.3340   38.8020 S   0  0  0  0  0  0  0  0  0  0  0  0
   43.9745   31.7371   41.4976 H   0  0  0  0  0  0  0  0  0  0  0  0
   42.8616   29.9968   42.8310 H   0  0  0  0  0  0  0  0  0  0  0  0
   40.3990   30.2056   43.2254 H   0  0  0  0  0  0  0  0  0  0  0  0
   39.1224   32.1008   42.2979 H   0  0  0  0  0  0  0  0  0  0  0  0
   43.4201   33.4216   39.4499 H   0  0  0  0  0  0  0  0  0  0  0  0
   42.3049   34.7068   40.0083 H   0  0  0  0  0  0  0  0  0  0  0  0
   42.6562   35.4926   42.4251 H   0  0  0  0  0  0  0  0  0  0  0  0
   45.7545   33.5484   40.0895 H   0  0  0  0  0  0  0  0  0  0  0  0
   46.7001   35.9953   43.4417 H   0  0  0  0  0  0  0  0  0  0  0  0
   40.0307   34.8800   41.6040 H   0  0  0  0  0  0  0  0  0  0  0  0
   40.5120   34.4326   39.9143 H   0  0  0  0  0  0  0  0  0  0  0  0
   38.3462   32.8122   41.2639 H   0  0  0  0  0  0  0  0  0  0  0  0
   37.9467   34.4714   40.6577 H   0  0  0  0  0  0  0  0  0  0  0  0
   38.1640   34.8416   37.9429 H   0  0  0  0  0  0  0  0  0  0  0  0
   38.0351   33.4430   35.8896 H   0  0  0  0  0  0  0  0  0  0  0  0
   38.3236   30.8581   36.1540 H   0  0  0  0  0  0  0  0  0  0  0  0
  1  6  1  0
  1  2  2  0
  2  3  1  0
  3  4  2  0
  5  4  1  0
  6  5  2  0
  7  1  1  0
  7  9  1  0
  8 13  2  0
  9  8  1  0
 10  9  2  0
 10 11  1  0
 11 12  2  0
 12 13  1  0
 14  6  1  0
 15 14  1  0
 16 15  1  0
 17 16  2  0
 18 19  2  0
 18 17  1  0
 19 20  1  0
 20 16  1  0
  2 21  1  0
  3 22  1  0
  4 23  1  0
  5 24  1  0
  7 25  1  0
  7 26  1  0
  8 27  1  0
 10 28  1  0
 12 29  1  0
 14 30  1  0
 14 31  1  0
 15 32  1  0
 15 33  1  0
 17 34  1  0
 18 35  1  0
 19 36  1  0
M  ISO  8  21  14  22  14  23  14  24  14  25   8  26   8  27  14  28  14
M  ISO  8  29  14  30   8  31   8  32   8  33   8  34  14  35  14  36  14
M  END
>  <minimizedAffinity>  (1) 
-4.64632463

>  <minimizedRMSD>  (1) 
1.31417334

$$$$
