
     RDKit          3D

 34 36  0  0  0  0  0  0  0  0999 V2000
   42.1120   33.1680   41.0320 C   0  0  0  0  0  0  0  0  0  0  0  0
   42.6470   31.9970   41.5560 C   0  0  0  0  0  0  0  0  0  0  0  0
   41.9460   31.0590   42.2730 C   0  0  0  0  0  0  0  0  0  0  0  0
   40.5910   31.3130   42.4870 C   0  0  0  0  0  0  0  0  0  0  0  0
   39.9860   32.4430   42.0060 C   0  0  0  0  0  0  0  0  0  0  0  0
   40.7730   33.3540   41.2810 C   0  0  0  0  0  0  0  0  0  0  0  0
   42.9450   34.0910   40.2820 C   0  0  0  0  0  0  0  0  0  0  0  0
   43.7440   35.3570   42.2220 C   0  0  0  0  0  0  0  0  0  0  0  0
   44.0390   34.5590   41.1440 C   0  0  0  0  0  0  0  0  0  0  0  0
   45.4000   34.2110   40.9000 C   0  0  0  0  0  0  0  0  0  0  0  0
   46.3170   34.7070   41.7730 N   0  0  0  0  0  0  0  0  0  0  0  0
   45.9590   35.4850   42.8100 C   0  0  0  0  0  0  0  0  0  0  0  0
   44.6870   35.8270   43.0620 N   0  0  0  0  0  0  0  0  0  0  0  0
   40.0610   34.5390   40.8000 C   0  0  0  0  0  0  0  0  0  0  0  0
   38.6270   34.2050   40.3340 C   0  0  0  0  0  0  0  0  0  0  0  0
   38.5960   33.6230   38.9940 C   0  0  0  0  0  0  0  0  0  0  0  0
   38.7680   34.2730   37.8140 N   0  0  0  0  0  0  0  0  0  0  0  0
   38.6560   33.3510   36.8920 O   0  0  0  0  0  0  0  0  0  0  0  0
   38.4270   32.1840   37.4110 C   0  0  0  0  0  0  0  0  0  0  0  0
   38.3840   32.3340   38.7590 N   0  0  0  0  0  0  0  0  0  0  0  0
   43.7164   31.8067   41.3826 H   0  0  0  0  0  0  0  0  0  0  0  0
   42.4299   30.1503   42.6603 H   0  0  0  0  0  0  0  0  0  0  0  0
   39.9932   30.5865   43.0570 H   0  0  0  0  0  0  0  0  0  0  0  0
   38.9167   32.6321   42.1816 H   0  0  0  0  0  0  0  0  0  0  0  0
   43.3622   33.5793   39.4022 H   0  0  0  0  0  0  0  0  0  0  0  0
   42.3419   34.9487   39.9494 H   0  0  0  0  0  0  0  0  0  0  0  0
   42.6931   35.6239   42.4077 H   0  0  0  0  0  0  0  0  0  0  0  0
   45.6925   33.5754   40.0512 H   0  0  0  0  0  0  0  0  0  0  0  0
   46.7457   35.8579   43.4823 H   0  0  0  0  0  0  0  0  0  0  0  0
   40.0067   35.2755   41.6152 H   0  0  0  0  0  0  0  0  0  0  0  0
   40.6133   34.9393   39.9370 H   0  0  0  0  0  0  0  0  0  0  0  0
   38.1844   33.4875   41.0407 H   0  0  0  0  0  0  0  0  0  0  0  0
   38.0576   35.1457   40.3034 H   0  0  0  0  0  0  0  0  0  0  0  0
   38.2920   31.2428   36.8580 H   0  0  0  0  0  0  0  0  0  0  0  0
  1  6  1  0
  1  2  2  0
  2  3  1  0
  3  4  2  0
  5  4  1  0
  6  5  2  0
  7  1  1  0
  7  9  1  0
  8 13  2  0
  9  8  1  0
 10  9  2  0
 10 11  1  0
 11 12  2  0
 12 13  1  0
 14  6  1  0
 15 14  1  0
 16 15  1  0
 17 16  2  0
 18 19  1  0
 18 17  1  0
 19 20  2  0
 20 16  1  0
  2 21  1  0
  3 22  1  0
  4 23  1  0
  5 24  1  0
  7 25  1  0
  7 26  1  0
  8 27  1  0
 10 28  1  0
 12 29  1  0
 14 30  1  0
 14 31  1  0
 15 32  1  0
 15 33  1  0
 19 34  1  0
M  ISO  8  21  14  22  14  23  14  24  14  25   8  26   8  27  14  28  14
M  ISO  6  29  14  30   8  31   8  32   8  33   8  34  14
M  END
>  <minimizedAffinity>  (1) 
-4.57253456

>  <minimizedRMSD>  (1) 
0.970441282

$$$$
