
     RDKit          3D

 31 34  0  0  0  0  0  0  0  0999 V2000
   46.5960   34.5120   42.0100 N   0  0  0  0  0  0  0  0  0  0  0  0
   47.8060   35.1610   41.9900 C   0  0  0  0  0  0  0  0  0  0  0  0
   48.5510   35.2510   40.8300 C   0  0  0  0  0  0  0  0  0  0  0  0
   48.0280   34.6590   39.6790 C   0  0  0  0  0  0  0  0  0  0  0  0
   48.6800   34.7240   38.6090 O   0  0  0  0  0  0  0  0  0  0  0  0
   46.8390   34.0410   39.7630 N   0  0  0  0  0  0  0  0  0  0  0  0
   46.1300   33.9650   40.9020 C   0  0  0  0  0  0  0  0  0  0  0  0
   45.0340   33.4100   41.0420 O   0  0  0  0  0  0  0  0  0  0  0  0
   47.3650   32.4060   35.4660 N   0  0  0  0  0  0  0  0  0  0  0  0
   48.5360   32.8740   35.9210 C   0  0  0  0  0  0  0  0  0  0  0  0
   48.2880   33.3240   37.1650 N   0  0  0  0  0  0  0  0  0  0  0  0
   46.9880   33.1270   37.4460 C   0  0  0  0  0  0  0  0  0  0  0  0
   46.2910   33.4320   38.5970 C   0  0  0  0  0  0  0  0  0  0  0  0
   44.9680   33.1080   38.5790 N   0  0  0  0  0  0  0  0  0  0  0  0
   44.3720   32.5340   37.5280 C   0  0  0  0  0  0  0  0  0  0  0  0
   45.0640   32.2480   36.4230 N   0  0  0  0  0  0  0  0  0  0  0  0
   46.3600   32.5340   36.3670 C   0  0  0  0  0  0  0  0  0  0  0  0
   44.5980   35.6470   44.9020 C   0  0  0  0  0  0  0  0  0  0  0  0
   45.1510   35.6170   43.5920 C   0  0  0  0  0  0  0  0  0  0  0  0
   46.0300   34.5590   43.3230 C   0  0  0  0  0  0  0  0  0  0  0  0
   46.3090   33.6440   44.2770 N   0  0  0  0  0  0  0  0  0  0  0  0
   45.7600   33.7110   45.5130 C   0  0  0  0  0  0  0  0  0  0  0  0
   44.9060   34.7100   45.8250 N   0  0  0  0  0  0  0  0  0  0  0  0
   48.1891   35.6176   42.9145 H   0  0  0  0  0  0  0  0  0  0  0  0
   49.5207   35.7701   40.8140 H   0  0  0  0  0  0  0  0  0  0  0  0
   47.2418   31.9928   34.5306 H   0  0  0  0  0  0  0  0  0  0  0  0
   49.4986   32.8874   35.3887 H   0  0  0  0  0  0  0  0  0  0  0  0
   43.2993   32.2949   37.5749 H   0  0  0  0  0  0  0  0  0  0  0  0
   43.9011   36.4545   45.1707 H   0  0  0  0  0  0  0  0  0  0  0  0
   44.9040   36.3774   42.8364 H   0  0  0  0  0  0  0  0  0  0  0  0
   46.0104   32.9490   46.2658 H   0  0  0  0  0  0  0  0  0  0  0  0
  1 20  1  0
  2  1  1  0
  3  2  2  0
  4  6  1  0
  4  3  1  0
  5  4  2  0
  6  7  1  0
  7  8  2  0
  7  1  1  0
  9 10  1  0
  9 17  1  0
 10 11  2  0
 11 12  1  0
 12 13  2  0
 13  6  1  0
 14 13  1  0
 15 14  2  0
 16 15  1  0
 17 16  2  0
 17 12  1  0
 18 23  2  0
 19 18  1  0
 20 19  2  0
 20 21  1  0
 21 22  2  0
 22 23  1  0
  2 24  1  0
  3 25  1  0
  9 26  1  0
 10 27  1  0
 15 28  1  0
 18 29  1  0
 19 30  1  0
 22 31  1  0
M  ISO  8  24  14  25  14  26   9  27  14  28  14  29  14  30  14  31  14
M  END
>  <minimizedAffinity>  (1) 
-5.93735218

>  <minimizedRMSD>  (1) 
0.373956829

$$$$
