
     RDKit          3D

 27 29  0  0  0  0  0  0  0  0999 V2000
   46.4990   34.4670   41.9860 N   0  0  0  0  0  0  0  0  0  0  0  0
   47.6810   35.1500   41.9160 C   0  0  0  0  0  0  0  0  0  0  0  0
   48.4450   35.1420   40.7620 C   0  0  0  0  0  0  0  0  0  0  0  0
   47.9630   34.4090   39.6700 C   0  0  0  0  0  0  0  0  0  0  0  0
   48.6310   34.3800   38.6060 O   0  0  0  0  0  0  0  0  0  0  0  0
   46.8050   33.7680   39.8100 N   0  0  0  0  0  0  0  0  0  0  0  0
   46.0710   33.7850   40.9410 C   0  0  0  0  0  0  0  0  0  0  0  0
   44.9930   33.2100   41.1240 O   0  0  0  0  0  0  0  0  0  0  0  0
   44.5100   35.9260   44.7380 C   0  0  0  0  0  0  0  0  0  0  0  0
   45.0920   35.7610   43.4560 C   0  0  0  0  0  0  0  0  0  0  0  0
   45.9090   34.6360   43.2780 C   0  0  0  0  0  0  0  0  0  0  0  0
   46.1090   33.7740   44.2990 N   0  0  0  0  0  0  0  0  0  0  0  0
   45.5320   33.9690   45.5120 C   0  0  0  0  0  0  0  0  0  0  0  0
   44.7370   35.0350   45.7360 N   0  0  0  0  0  0  0  0  0  0  0  0
   46.2660   33.0040   38.7230 C   0  0  0  0  0  0  0  0  0  0  0  0
   46.0530   31.6650   38.4170 C   0  0  0  0  0  0  0  0  0  0  0  0
   45.4960   31.5950   37.2030 N   0  0  0  0  0  0  0  0  0  0  0  0
   45.3600   32.8350   36.7550 C   0  0  0  0  0  0  0  0  0  0  0  0
   45.8280   33.7310   37.6730 N   0  0  0  0  0  0  0  0  0  0  0  0
   48.0310   35.7158   42.7920 H   0  0  0  0  0  0  0  0  0  0  0  0
   49.3963   35.6914   40.7044 H   0  0  0  0  0  0  0  0  0  0  0  0
   43.8613   36.7938   44.9276 H   0  0  0  0  0  0  0  0  0  0  0  0
   44.9117   36.4791   42.6425 H   0  0  0  0  0  0  0  0  0  0  0  0
   45.7152   33.2483   46.3226 H   0  0  0  0  0  0  0  0  0  0  0  0
   46.3002   30.8094   39.0627 H   0  0  0  0  0  0  0  0  0  0  0  0
   44.9299   33.1048   35.7792 H   0  0  0  0  0  0  0  0  0  0  0  0
   45.8437   34.7569   37.5825 H   0  0  0  0  0  0  0  0  0  0  0  0
  1 11  1  0
  2  1  1  0
  3  2  2  0
  4  6  1  0
  4  3  1  0
  5  4  2  0
  6  7  1  0
  7  8  2  0
  7  1  1  0
  9 14  2  0
 10  9  1  0
 11 10  2  0
 11 12  1  0
 12 13  2  0
 13 14  1  0
 15  6  1  0
 16 15  2  0
 17 16  1  0
 18 17  2  0
 18 19  1  0
 19 15  1  0
  2 20  1  0
  3 21  1  0
  9 22  1  0
 10 23  1  0
 13 24  1  0
 16 25  1  0
 18 26  1  0
 19 27  1  0
M  ISO  8  20  14  21  14  22  14  23  14  24  14  25  14  26  14  27   9
M  END
>  <minimizedAffinity>  (1) 
-5.43033218

>  <minimizedRMSD>  (1) 
0.541333318

$$$$
