
     RDKit          3D

 34 37  0  0  0  0  0  0  0  0999 V2000
   46.3990   34.4030   41.7850 N   0  0  0  0  0  0  0  0  0  0  0  0
   47.6230   35.0060   41.6870 C   0  0  0  0  0  0  0  0  0  0  0  0
   48.3610   34.9250   40.5100 C   0  0  0  0  0  0  0  0  0  0  0  0
   47.8090   34.2120   39.4460 C   0  0  0  0  0  0  0  0  0  0  0  0
   48.4560   34.1250   38.3700 O   0  0  0  0  0  0  0  0  0  0  0  0
   46.6100   33.6520   39.6150 N   0  0  0  0  0  0  0  0  0  0  0  0
   45.9060   33.7360   40.7580 C   0  0  0  0  0  0  0  0  0  0  0  0
   44.7950   33.2400   40.9740 O   0  0  0  0  0  0  0  0  0  0  0  0
   45.9980   32.9130   38.5640 C   0  0  0  0  0  0  0  0  0  0  0  0
   45.0950   33.5080   37.6900 C   0  0  0  0  0  0  0  0  0  0  0  0
   44.7110   32.5440   36.8300 N   0  0  0  0  0  0  0  0  0  0  0  0
   45.3350   31.3820   37.1310 C   0  0  0  0  0  0  0  0  0  0  0  0
   45.3200   30.1020   36.5980 C   0  0  0  0  0  0  0  0  0  0  0  0
   46.0780   29.0690   37.1170 C   0  0  0  0  0  0  0  0  0  0  0  0
   46.8780   29.3490   38.2160 C   0  0  0  0  0  0  0  0  0  0  0  0
   46.9390   30.6030   38.7950 C   0  0  0  0  0  0  0  0  0  0  0  0
   46.1560   31.5820   38.2230 C   0  0  0  0  0  0  0  0  0  0  0  0
   44.5730   36.0480   44.5510 C   0  0  0  0  0  0  0  0  0  0  0  0
   45.1220   35.8200   43.2630 C   0  0  0  0  0  0  0  0  0  0  0  0
   45.8470   34.6300   43.0860 C   0  0  0  0  0  0  0  0  0  0  0  0
   45.9960   33.7620   44.1140 N   0  0  0  0  0  0  0  0  0  0  0  0
   45.4490   34.0250   45.3370 C   0  0  0  0  0  0  0  0  0  0  0  0
   44.7470   35.1530   45.5540 N   0  0  0  0  0  0  0  0  0  0  0  0
   48.0277   35.5602   42.5467 H   0  0  0  0  0  0  0  0  0  0  0  0
   49.3459   35.4068   40.4218 H   0  0  0  0  0  0  0  0  0  0  0  0
   44.7609   34.5560   37.6987 H   0  0  0  0  0  0  0  0  0  0  0  0
   44.0416   32.6729   36.0579 H   0  0  0  0  0  0  0  0  0  0  0  0
   44.6791   29.9004   35.7270 H   0  0  0  0  0  0  0  0  0  0  0  0
   46.0482   28.0621   36.6752 H   0  0  0  0  0  0  0  0  0  0  0  0
   47.4885   28.5401   38.6439 H   0  0  0  0  0  0  0  0  0  0  0  0
   47.5786   30.8083   39.6660 H   0  0  0  0  0  0  0  0  0  0  0  0
   43.9968   36.9660   44.7388 H   0  0  0  0  0  0  0  0  0  0  0  0
   44.9865   36.5402   42.4426 H   0  0  0  0  0  0  0  0  0  0  0  0
   45.5839   33.3045   46.1572 H   0  0  0  0  0  0  0  0  0  0  0  0
  1 20  1  0
  2  1  1  0
  3  2  2  0
  4  6  1  0
  4  3  1  0
  5  4  2  0
  6  7  1  0
  7  8  2  0
  7  1  1  0
  9  6  1  0
 10  9  2  0
 11 12  1  0
 11 10  1  0
 12 17  2  0
 13 14  2  0
 13 12  1  0
 14 15  1  0
 15 16  2  0
 17  9  1  0
 17 16  1  0
 18 23  2  0
 19 18  1  0
 20 19  2  0
 20 21  1  0
 21 22  2  0
 22 23  1  0
  2 24  1  0
  3 25  1  0
 10 26  1  0
 11 27  1  0
 13 28  1  0
 14 29  1  0
 15 30  1  0
 16 31  1  0
 18 32  1  0
 19 33  1  0
 22 34  1  0
M  ISO  8  24  14  25  14  26  14  27   9  28  14  29  14  30  14  31  14
M  ISO  3  32  14  33  14  34  14
M  END
>  <minimizedAffinity>  (1) 
-5.2390976

>  <minimizedRMSD>  (1) 
0.507416785

$$$$
