
     RDKit          3D

 27 29  0  0  0  0  0  0  0  0999 V2000
   46.4810   34.4580   41.9840 N   0  0  0  0  0  0  0  0  0  0  0  0
   47.6560   35.1530   41.8950 C   0  0  0  0  0  0  0  0  0  0  0  0
   48.4120   35.1350   40.7380 C   0  0  0  0  0  0  0  0  0  0  0  0
   47.9320   34.3790   39.6630 C   0  0  0  0  0  0  0  0  0  0  0  0
   48.5980   34.3410   38.5940 O   0  0  0  0  0  0  0  0  0  0  0  0
   46.7820   33.7280   39.8180 N   0  0  0  0  0  0  0  0  0  0  0  0
   46.0530   33.7540   40.9510 C   0  0  0  0  0  0  0  0  0  0  0  0
   44.9830   33.1700   41.1480 O   0  0  0  0  0  0  0  0  0  0  0  0
   44.5150   35.9130   44.7520 C   0  0  0  0  0  0  0  0  0  0  0  0
   45.0860   35.7480   43.4670 C   0  0  0  0  0  0  0  0  0  0  0  0
   45.8930   34.6400   43.2770 C   0  0  0  0  0  0  0  0  0  0  0  0
   46.1120   33.7560   44.3030 N   0  0  0  0  0  0  0  0  0  0  0  0
   45.5410   33.9580   45.5200 C   0  0  0  0  0  0  0  0  0  0  0  0
   44.7460   35.0300   45.7440 N   0  0  0  0  0  0  0  0  0  0  0  0
   46.2500   32.9430   38.7470 C   0  0  0  0  0  0  0  0  0  0  0  0
   46.5140   31.6130   38.4630 C   0  0  0  0  0  0  0  0  0  0  0  0
   45.8000   31.2160   37.3360 C   0  0  0  0  0  0  0  0  0  0  0  0
   45.1110   32.3780   36.9830 C   0  0  0  0  0  0  0  0  0  0  0  0
   45.4020   33.3410   37.8210 O   0  0  0  0  0  0  0  0  0  0  0  0
   48.0053   35.7365   42.7596 H   0  0  0  0  0  0  0  0  0  0  0  0
   49.3563   35.6945   40.6651 H   0  0  0  0  0  0  0  0  0  0  0  0
   43.8682   36.7815   44.9453 H   0  0  0  0  0  0  0  0  0  0  0  0
   44.8968   36.4676   42.6568 H   0  0  0  0  0  0  0  0  0  0  0  0
   45.7275   33.2410   46.3331 H   0  0  0  0  0  0  0  0  0  0  0  0
   47.1886   30.9659   39.0428 H   0  0  0  0  0  0  0  0  0  0  0  0
   45.7828   30.2316   36.8454 H   0  0  0  0  0  0  0  0  0  0  0  0
   44.4254   32.4706   36.1278 H   0  0  0  0  0  0  0  0  0  0  0  0
  1 11  1  0
  2  1  1  0
  3  2  2  0
  4  6  1  0
  4  3  1  0
  5  4  2  0
  6  7  1  0
  7  8  2  0
  7  1  1  0
  9 14  2  0
 10  9  1  0
 11 10  2  0
 11 12  1  0
 12 13  2  0
 13 14  1  0
 15  6  1  0
 16 15  2  0
 17 16  1  0
 18 17  2  0
 18 19  1  0
 19 15  1  0
  2 20  1  0
  3 21  1  0
  9 22  1  0
 10 23  1  0
 13 24  1  0
 16 25  1  0
 17 26  1  0
 18 27  1  0
M  ISO  8  20  14  21  14  22  14  23  14  24  14  25  14  26  14  27  14
M  END
>  <minimizedAffinity>  (1) 
-5.1123414

>  <minimizedRMSD>  (1) 
0.633193552

$$$$
