
     RDKit          3D

 28 30  0  0  0  0  0  0  0  0999 V2000
   46.5190   34.4310   41.9880 N   0  0  0  0  0  0  0  0  0  0  0  0
   47.6640   35.1700   41.8770 C   0  0  0  0  0  0  0  0  0  0  0  0
   48.4110   35.1640   40.7200 C   0  0  0  0  0  0  0  0  0  0  0  0
   47.9540   34.3690   39.6590 C   0  0  0  0  0  0  0  0  0  0  0  0
   48.6120   34.3410   38.5920 O   0  0  0  0  0  0  0  0  0  0  0  0
   46.8160   33.6620   39.8340 N   0  0  0  0  0  0  0  0  0  0  0  0
   46.1140   33.6920   40.9720 C   0  0  0  0  0  0  0  0  0  0  0  0
   45.0680   33.0670   41.1880 O   0  0  0  0  0  0  0  0  0  0  0  0
   44.5160   35.9000   44.7260 C   0  0  0  0  0  0  0  0  0  0  0  0
   45.0990   35.7290   43.4470 C   0  0  0  0  0  0  0  0  0  0  0  0
   45.9270   34.6070   43.2800 C   0  0  0  0  0  0  0  0  0  0  0  0
   46.1300   33.7610   44.3130 N   0  0  0  0  0  0  0  0  0  0  0  0
   45.5490   33.9670   45.5200 C   0  0  0  0  0  0  0  0  0  0  0  0
   44.7470   35.0240   45.7340 N   0  0  0  0  0  0  0  0  0  0  0  0
   46.3190   32.8440   38.7820 C   0  0  0  0  0  0  0  0  0  0  0  0
   45.4350   33.2380   37.7960 C   0  0  0  0  0  0  0  0  0  0  0  0
   45.0680   32.2880   36.8550 C   0  0  0  0  0  0  0  0  0  0  0  0
   45.5690   31.0520   36.9310 N   0  0  0  0  0  0  0  0  0  0  0  0
   46.4350   30.6550   37.8930 C   0  0  0  0  0  0  0  0  0  0  0  0
   46.8100   31.5710   38.8280 N   0  0  0  0  0  0  0  0  0  0  0  0
   47.9952   35.7817   42.7291 H   0  0  0  0  0  0  0  0  0  0  0  0
   49.3312   35.7602   40.6315 H   0  0  0  0  0  0  0  0  0  0  0  0
   43.8600   36.7645   44.9058 H   0  0  0  0  0  0  0  0  0  0  0  0
   44.9130   36.4381   42.6269 H   0  0  0  0  0  0  0  0  0  0  0  0
   45.7371   33.2568   46.3387 H   0  0  0  0  0  0  0  0  0  0  0  0
   45.0385   34.2634   37.7590 H   0  0  0  0  0  0  0  0  0  0  0  0
   44.3671   32.5511   36.0491 H   0  0  0  0  0  0  0  0  0  0  0  0
   46.8230   29.6260   37.9184 H   0  0  0  0  0  0  0  0  0  0  0  0
  1 11  1  0
  2  1  1  0
  3  2  2  0
  4  6  1  0
  4  3  1  0
  5  4  2  0
  6  7  1  0
  7  8  2  0
  7  1  1  0
  9 14  2  0
 10  9  1  0
 11 10  2  0
 11 12  1  0
 12 13  2  0
 13 14  1  0
 15 20  1  0
 15  6  1  0
 16 15  2  0
 17 18  2  0
 17 16  1  0
 18 19  1  0
 19 20  2  0
  2 21  1  0
  3 22  1  0
  9 23  1  0
 10 24  1  0
 13 25  1  0
 16 26  1  0
 17 27  1  0
 19 28  1  0
M  ISO  8  21  14  22  14  23  14  24  14  25  14  26  14  27  14  28  14
M  END
>  <minimizedAffinity>  (1) 
-5.1105566

>  <minimizedRMSD>  (1) 
0.869085312

$$$$
