
     RDKit          3D

 34 36  0  0  0  0  0  0  0  0999 V2000
   46.6010   34.1200   42.1940 N   0  0  0  0  0  0  0  0  0  0  0  0
   47.5440   35.0780   41.9060 C   0  0  0  0  0  0  0  0  0  0  0  0
   48.3260   34.9780   40.7650 C   0  0  0  0  0  0  0  0  0  0  0  0
   48.1040   33.8620   39.9320 C   0  0  0  0  0  0  0  0  0  0  0  0
   48.8140   33.7750   38.9030 O   0  0  0  0  0  0  0  0  0  0  0  0
   47.1580   32.9660   40.2840 N   0  0  0  0  0  0  0  0  0  0  0  0
   46.4280   33.0990   41.3930 C   0  0  0  0  0  0  0  0  0  0  0  0
   45.5580   32.3280   41.7760 O   0  0  0  0  0  0  0  0  0  0  0  0
   44.4780   35.9140   44.6380 C   0  0  0  0  0  0  0  0  0  0  0  0
   45.1260   35.5790   43.4290 C   0  0  0  0  0  0  0  0  0  0  0  0
   45.9390   34.4580   43.4250 C   0  0  0  0  0  0  0  0  0  0  0  0
   46.0980   33.7090   44.5680 N   0  0  0  0  0  0  0  0  0  0  0  0
   45.4500   34.0760   45.7090 C   0  0  0  0  0  0  0  0  0  0  0  0
   44.6470   35.1630   45.7540 N   0  0  0  0  0  0  0  0  0  0  0  0
   46.9510   31.8180   39.4390 C   0  0  0  0  0  0  0  0  0  0  0  0
   46.4550   32.0860   38.1160 N   0  0  0  0  0  0  0  0  0  0  0  0
   47.1290   31.6790   37.0220 C   0  0  0  0  0  0  0  0  0  0  0  0
   46.7390   31.8890   35.7170 C   0  0  0  0  0  0  0  0  0  0  0  0
   45.5670   32.5650   35.4480 C   0  0  0  0  0  0  0  0  0  0  0  0
   45.1020   32.8180   34.1310 N   0  0  0  0  0  0  0  0  0  0  0  0
   44.8750   32.9830   36.5490 N   0  0  0  0  0  0  0  0  0  0  0  0
   45.3310   32.7350   37.7880 C   0  0  0  0  0  0  0  0  0  0  0  0
   44.5500   33.1970   38.6450 O   0  0  0  0  0  0  0  0  0  0  0  0
   47.6795   35.9315   42.5866 H   0  0  0  0  0  0  0  0  0  0  0  0
   49.0854   35.7353   40.5207 H   0  0  0  0  0  0  0  0  0  0  0  0
   43.8254   36.7987   44.6750 H   0  0  0  0  0  0  0  0  0  0  0  0
   44.9898   36.1870   42.5224 H   0  0  0  0  0  0  0  0  0  0  0  0
   45.5837   33.4716   46.6183 H   0  0  0  0  0  0  0  0  0  0  0  0
   47.9148   31.2977   39.3373 H   0  0  0  0  0  0  0  0  0  0  0  0
   46.1672   31.2254   39.9334 H   0  0  0  0  0  0  0  0  0  0  0  0
   48.0700   31.1330   37.1846 H   0  0  0  0  0  0  0  0  0  0  0  0
   47.3621   31.5177   34.8901 H   0  0  0  0  0  0  0  0  0  0  0  0
   44.2190   33.3280   33.9857 H   0  0  0  0  0  0  0  0  0  0  0  0
   45.6476   32.4916   33.3206 H   0  0  0  0  0  0  0  0  0  0  0  0
  1 11  1  0
  2  1  1  0
  3  2  2  0
  4  6  1  0
  4  3  1  0
  5  4  2  0
  6  7  1  0
  7  8  2  0
  7  1  1  0
  9 14  2  0
 10  9  1  0
 11 10  2  0
 11 12  1  0
 12 13  2  0
 13 14  1  0
 15  6  1  0
 16 15  1  0
 17 16  1  0
 18 17  2  0
 19 18  1  0
 19 21  2  0
 20 19  1  0
 21 22  1  0
 22 16  1  0
 22 23  2  0
  2 24  1  0
  3 25  1  0
  9 26  1  0
 10 27  1  0
 13 28  1  0
 15 29  1  0
 15 30  1  0
 17 31  1  0
 18 32  1  0
 20 33  1  0
 20 34  1  0
M  ISO  8  24  14  25  14  26  14  27  14  28  14  29   8  30   8  31  14
M  ISO  1  32  14
M  END
>  <minimizedAffinity>  (1) 
-6.02621698

>  <minimizedRMSD>  (1) 
1.73129833

$$$$
