
     RDKit          3D

 36 38  0  0  0  0  0  0  0  0999 V2000
   46.6030   33.6710   39.7760 N   0  0  0  0  0  0  0  0  0  0  0  0
   45.3790   33.2290   39.3340 C   0  0  0  0  0  0  0  0  0  0  0  0
   44.2280   33.4880   40.0370 C   0  0  0  0  0  0  0  0  0  0  0  0
   44.3470   34.2220   41.2270 C   0  0  0  0  0  0  0  0  0  0  0  0
   43.3100   34.4710   41.8860 O   0  0  0  0  0  0  0  0  0  0  0  0
   45.5750   34.6210   41.6010 N   0  0  0  0  0  0  0  0  0  0  0  0
   46.6760   34.3550   40.8950 C   0  0  0  0  0  0  0  0  0  0  0  0
   47.8170   34.6940   41.1880 O   0  0  0  0  0  0  0  0  0  0  0  0
   48.7860   33.6180   36.7960 C   0  0  0  0  0  0  0  0  0  0  0  0
   47.7770   34.0000   37.6930 C   0  0  0  0  0  0  0  0  0  0  0  0
   47.6440   33.2700   38.8640 C   0  0  0  0  0  0  0  0  0  0  0  0
   48.4720   32.2230   39.1180 N   0  0  0  0  0  0  0  0  0  0  0  0
   49.4390   31.8880   38.2140 C   0  0  0  0  0  0  0  0  0  0  0  0
   49.5940   32.5810   37.0630 N   0  0  0  0  0  0  0  0  0  0  0  0
   45.7150   35.3810   42.8270 C   0  0  0  0  0  0  0  0  0  0  0  0
   46.1220   32.9980   46.3780 C   0  0  0  0  0  0  0  0  0  0  0  0
   45.1860   34.0100   46.3130 C   0  0  0  0  0  0  0  0  0  0  0  0
   45.0800   34.7630   45.1490 C   0  0  0  0  0  0  0  0  0  0  0  0
   45.8640   34.5600   44.0320 C   0  0  0  0  0  0  0  0  0  0  0  0
   46.7780   33.5340   44.1630 C   0  0  0  0  0  0  0  0  0  0  0  0
   46.9390   32.7450   45.2870 C   0  0  0  0  0  0  0  0  0  0  0  0
   46.3410   31.9900   47.7900 S   0  0  0  0  0  0  0  0  0  0  0  0
   45.7010   32.6000   49.0200 O   0  0  0  0  0  0  0  0  0  0  0  0
   47.8000   31.7360   48.0570 O   0  0  0  0  0  0  0  0  0  0  0  0
   45.3200   32.6555   38.3972 H   0  0  0  0  0  0  0  0  0  0  0  0
   43.2496   33.1334   39.6806 H   0  0  0  0  0  0  0  0  0  0  0  0
   48.9166   34.1781   35.8583 H   0  0  0  0  0  0  0  0  0  0  0  0
   47.1139   34.8500   37.4745 H   0  0  0  0  0  0  0  0  0  0  0  0
   50.1046   31.0383   38.4260 H   0  0  0  0  0  0  0  0  0  0  0  0
   46.6039   36.0224   42.7351 H   0  0  0  0  0  0  0  0  0  0  0  0
   44.7846   35.9548   42.9499 H   0  0  0  0  0  0  0  0  0  0  0  0
   44.5314   34.2185   47.1721 H   0  0  0  0  0  0  0  0  0  0  0  0
   44.3287   35.5658   45.1168 H   0  0  0  0  0  0  0  0  0  0  0  0
   47.4318   33.3271   43.3029 H   0  0  0  0  0  0  0  0  0  0  0  0
   47.6909   31.9426   45.3146 H   0  0  0  0  0  0  0  0  0  0  0  0
   45.7206   30.7982   47.5224 H   0  0  0  0  0  0  0  0  0  0  0  0
  1  7  1  0
  2  1  1  0
  2  3  2  0
  3  4  1  0
  4  6  1  0
  4  5  2  0
  6 15  1  0
  7  8  2  0
  7  6  1  0
  9 14  2  0
  9 10  1  0
 10 11  2  0
 11 12  1  0
 11  1  1  0
 13 12  2  0
 14 13  1  0
 15 19  1  0
 16 22  1  0
 17 16  2  0
 18 17  1  0
 19 20  1  0
 19 18  2  0
 20 21  2  0
 21 16  1  0
 22 24  2  0
 22 23  2  0
  2 25  1  0
  3 26  1  0
  9 27  1  0
 10 28  1  0
 13 29  1  0
 15 30  1  0
 15 31  1  0
 17 32  1  0
 18 33  1  0
 20 34  1  0
 21 35  1  0
 22 36  1  0
M  ISO  8  25  14  26  14  27  14  28  14  29  14  30   8  31   8  32  14
M  ISO  4  33  14  34  14  35  14  36  11
M  END
>  <minimizedAffinity>  (1) 
-5.61254454

>  <minimizedRMSD>  (1) 
8.23240852

$$$$
