
     RDKit          3D

 36 38  0  0  0  0  0  0  0  0999 V2000
   46.5180   34.5030   42.0120 N   0  0  0  0  0  0  0  0  0  0  0  0
   47.7020   35.2020   41.9500 C   0  0  0  0  0  0  0  0  0  0  0  0
   48.4590   35.2230   40.7940 C   0  0  0  0  0  0  0  0  0  0  0  0
   47.9930   34.5160   39.6920 C   0  0  0  0  0  0  0  0  0  0  0  0
   48.6550   34.5170   38.6380 O   0  0  0  0  0  0  0  0  0  0  0  0
   46.8480   33.8640   39.8180 N   0  0  0  0  0  0  0  0  0  0  0  0
   46.1090   33.8460   40.9500 C   0  0  0  0  0  0  0  0  0  0  0  0
   45.0390   33.2600   41.1280 O   0  0  0  0  0  0  0  0  0  0  0  0
   44.5170   35.8850   44.7880 C   0  0  0  0  0  0  0  0  0  0  0  0
   45.1000   35.7470   43.5070 C   0  0  0  0  0  0  0  0  0  0  0  0
   45.9320   34.6400   43.3050 C   0  0  0  0  0  0  0  0  0  0  0  0
   46.1440   33.7630   44.3140 N   0  0  0  0  0  0  0  0  0  0  0  0
   45.5630   33.9390   45.5260 C   0  0  0  0  0  0  0  0  0  0  0  0
   44.7520   34.9950   45.7640 N   0  0  0  0  0  0  0  0  0  0  0  0
   46.2970   33.1000   38.6890 C   0  0  0  0  0  0  0  0  0  0  0  0
   46.9270   31.8790   38.4260 N   0  0  0  0  0  0  0  0  0  0  0  0
   47.4310   31.0940   39.4740 C   0  0  0  0  0  0  0  0  0  0  0  0
   48.1430   29.8370   39.0380 C   0  0  0  0  0  0  0  0  0  0  0  0
   49.0290   30.0230   38.0170 O   0  0  0  0  0  0  0  0  0  0  0  0
   48.9030   31.2180   37.3200 C   0  0  0  0  0  0  0  0  0  0  0  0
   47.4340   31.6200   37.1360 C   0  0  0  0  0  0  0  0  0  0  0  0
   48.0516   35.7532   42.8354 H   0  0  0  0  0  0  0  0  0  0  0  0
   49.4042   35.7838   40.7474 H   0  0  0  0  0  0  0  0  0  0  0  0
   43.8561   36.7411   44.9886 H   0  0  0  0  0  0  0  0  0  0  0  0
   44.9083   36.4763   42.7061 H   0  0  0  0  0  0  0  0  0  0  0  0
   45.7541   33.2115   46.3287 H   0  0  0  0  0  0  0  0  0  0  0  0
   45.2373   32.8960   38.9023 H   0  0  0  0  0  0  0  0  0  0  0  0
   46.4566   33.7218   37.7958 H   0  0  0  0  0  0  0  0  0  0  0  0
   48.1403   31.7067   40.0498 H   0  0  0  0  0  0  0  0  0  0  0  0
   46.5608   30.7683   40.0627 H   0  0  0  0  0  0  0  0  0  0  0  0
   48.6915   29.4336   39.9019 H   0  0  0  0  0  0  0  0  0  0  0  0
   47.3704   29.1484   38.6654 H   0  0  0  0  0  0  0  0  0  0  0  0
   49.4218   32.0116   37.8778 H   0  0  0  0  0  0  0  0  0  0  0  0
   49.3464   31.0798   36.3228 H   0  0  0  0  0  0  0  0  0  0  0  0
   47.3620   32.5222   36.5108 H   0  0  0  0  0  0  0  0  0  0  0  0
   46.8627   30.8242   36.6356 H   0  0  0  0  0  0  0  0  0  0  0  0
  1 11  1  0
  2  1  1  0
  3  2  2  0
  4  6  1  0
  4  3  1  0
  5  4  2  0
  6  7  1  0
  7  8  2  0
  7  1  1  0
  9 14  2  0
 10  9  1  0
 11 10  2  0
 11 12  1  0
 12 13  2  0
 13 14  1  0
 15  6  1  0
 16 15  1  0
 16 17  1  0
 18 17  1  0
 19 18  1  0
 20 19  1  0
 21 20  1  0
 21 16  1  0
  2 22  1  0
  3 23  1  0
  9 24  1  0
 10 25  1  0
 13 26  1  0
 15 27  1  0
 15 28  1  0
 17 29  1  0
 17 30  1  0
 18 31  1  0
 18 32  1  0
 20 33  1  0
 20 34  1  0
 21 35  1  0
 21 36  1  0
M  ISO  8  22  14  23  14  24  14  25  14  26  14  27   8  28   8  29  13
M  ISO  7  30  13  31  13  32  13  33  13  34  13  35  13  36  13
M  END
>  <minimizedAffinity>  (1) 
-4.86420393

>  <minimizedRMSD>  (1) 
0.648917496

$$$$
