
     RDKit          3D

 36 38  0  0  0  0  0  0  0  0999 V2000
   46.4960   34.4920   41.9980 N   0  0  0  0  0  0  0  0  0  0  0  0
   47.6910   35.1720   41.9380 C   0  0  0  0  0  0  0  0  0  0  0  0
   48.4570   35.1800   40.7970 C   0  0  0  0  0  0  0  0  0  0  0  0
   47.9630   34.4590   39.6880 C   0  0  0  0  0  0  0  0  0  0  0  0
   48.6390   34.4450   38.6280 O   0  0  0  0  0  0  0  0  0  0  0  0
   46.7880   33.8190   39.8190 N   0  0  0  0  0  0  0  0  0  0  0  0
   46.0710   33.8350   40.9470 C   0  0  0  0  0  0  0  0  0  0  0  0
   44.9970   33.2730   41.1210 O   0  0  0  0  0  0  0  0  0  0  0  0
   44.5150   35.8990   44.7840 C   0  0  0  0  0  0  0  0  0  0  0  0
   45.0900   35.7470   43.5050 C   0  0  0  0  0  0  0  0  0  0  0  0
   45.9040   34.6470   43.2980 C   0  0  0  0  0  0  0  0  0  0  0  0
   46.1340   33.7460   44.3090 N   0  0  0  0  0  0  0  0  0  0  0  0
   45.5520   33.9410   45.5270 C   0  0  0  0  0  0  0  0  0  0  0  0
   44.7520   35.0050   45.7660 N   0  0  0  0  0  0  0  0  0  0  0  0
   46.2670   33.1000   38.6820 C   0  0  0  0  0  0  0  0  0  0  0  0
   46.7470   31.7110   38.5120 C   0  0  0  0  0  0  0  0  0  0  0  0
   47.5670   31.4020   37.3160 C   0  0  0  0  0  0  0  0  0  0  0  0
   48.2430   30.0930   37.7780 C   0  0  0  0  0  0  0  0  0  0  0  0
   48.7030   30.4330   39.1870 C   0  0  0  0  0  0  0  0  0  0  0  0
   47.5750   31.2840   39.7240 C   0  0  0  0  0  0  0  0  0  0  0  0
   48.0412   35.7219   42.8240 H   0  0  0  0  0  0  0  0  0  0  0  0
   49.4121   35.7237   40.7498 H   0  0  0  0  0  0  0  0  0  0  0  0
   43.8621   36.7614   44.9841 H   0  0  0  0  0  0  0  0  0  0  0  0
   44.8988   36.4749   42.7028 H   0  0  0  0  0  0  0  0  0  0  0  0
   45.7375   33.2163   46.3334 H   0  0  0  0  0  0  0  0  0  0  0  0
   45.1718   33.0672   38.7787 H   0  0  0  0  0  0  0  0  0  0  0  0
   46.6272   33.6463   37.7978 H   0  0  0  0  0  0  0  0  0  0  0  0
   45.8039   31.1586   38.3882 H   0  0  0  0  0  0  0  0  0  0  0  0
   48.3051   32.1919   37.1131 H   0  0  0  0  0  0  0  0  0  0  0  0
   47.0004   31.3217   36.3766 H   0  0  0  0  0  0  0  0  0  0  0  0
   47.5270   29.2580   37.7852 H   0  0  0  0  0  0  0  0  0  0  0  0
   49.0611   29.7681   37.1184 H   0  0  0  0  0  0  0  0  0  0  0  0
   48.8314   29.5222   39.7903 H   0  0  0  0  0  0  0  0  0  0  0  0
   49.6770   30.9436   39.2108 H   0  0  0  0  0  0  0  0  0  0  0  0
   47.9771   32.1676   40.2413 H   0  0  0  0  0  0  0  0  0  0  0  0
   46.9643   30.7274   40.4501 H   0  0  0  0  0  0  0  0  0  0  0  0
  1 11  1  0
  2  1  1  0
  3  2  2  0
  4  6  1  0
  4  3  1  0
  5  4  2  0
  6  7  1  0
  7  8  2  0
  7  1  1  0
  9 14  2  0
 10  9  1  0
 11 10  2  0
 11 12  1  0
 12 13  2  0
 13 14  1  0
 15  6  1  0
 16 15  1  0
 16 20  1  0
 17 18  1  0
 17 16  1  0
 18 19  1  0
 19 20  1  0
  2 21  1  0
  3 22  1  0
  9 23  1  0
 10 24  1  0
 13 25  1  0
 15 26  1  0
 15 27  1  0
 16 28  1  0
 17 29  1  0
 17 30  1  0
 18 31  1  0
 18 32  1  0
 19 33  1  0
 19 34  1  0
 20 35  1  0
 20 36  1  0
M  ISO  8  21  14  22  14  23  14  24  14  25  14  26   8  27   8  28  13
M  ISO  8  29  13  30  13  31  13  32  13  33  13  34  13  35  13  36  13
M  END
>  <minimizedAffinity>  (1) 
-4.803936

>  <minimizedRMSD>  (1) 
0.258735657

$$$$
