
     RDKit          3D

 30 32  0  0  0  0  0  0  0  0999 V2000
   46.5170   34.4980   42.0070 N   0  0  0  0  0  0  0  0  0  0  0  0
   47.7030   35.1890   41.9520 C   0  0  0  0  0  0  0  0  0  0  0  0
   48.4670   35.2080   40.7980 C   0  0  0  0  0  0  0  0  0  0  0  0
   47.9840   34.4920   39.6840 C   0  0  0  0  0  0  0  0  0  0  0  0
   48.6570   34.4950   38.6320 O   0  0  0  0  0  0  0  0  0  0  0  0
   46.8150   33.8410   39.8170 N   0  0  0  0  0  0  0  0  0  0  0  0
   46.0990   33.8440   40.9510 C   0  0  0  0  0  0  0  0  0  0  0  0
   45.0310   33.2670   41.1210 O   0  0  0  0  0  0  0  0  0  0  0  0
   44.5140   35.8930   44.7790 C   0  0  0  0  0  0  0  0  0  0  0  0
   45.0960   35.7460   43.5090 C   0  0  0  0  0  0  0  0  0  0  0  0
   45.9250   34.6390   43.3040 C   0  0  0  0  0  0  0  0  0  0  0  0
   46.1470   33.7560   44.3060 N   0  0  0  0  0  0  0  0  0  0  0  0
   45.5600   33.9380   45.5220 C   0  0  0  0  0  0  0  0  0  0  0  0
   44.7530   34.9900   45.7670 N   0  0  0  0  0  0  0  0  0  0  0  0
   46.2910   33.1030   38.6810 C   0  0  0  0  0  0  0  0  0  0  0  0
   47.0030   31.8040   38.5050 C   0  0  0  0  0  0  0  0  0  0  0  0
   47.5500   31.3820   37.3090 C   0  0  0  0  0  0  0  0  0  0  0  0
   48.0990   30.1680   37.5620 N   0  0  0  0  0  0  0  0  0  0  0  0
   47.9020   29.8460   38.8690 C   0  0  0  0  0  0  0  0  0  0  0  0
   47.2190   30.8690   39.4470 N   0  0  0  0  0  0  0  0  0  0  0  0
   48.0514   35.7365   42.8402 H   0  0  0  0  0  0  0  0  0  0  0  0
   49.4164   35.7616   40.7519 H   0  0  0  0  0  0  0  0  0  0  0  0
   43.8552   36.7513   44.9771 H   0  0  0  0  0  0  0  0  0  0  0  0
   44.9067   36.4741   42.7064 H   0  0  0  0  0  0  0  0  0  0  0  0
   45.7491   33.2088   46.3235 H   0  0  0  0  0  0  0  0  0  0  0  0
   45.2211   32.9062   38.8439 H   0  0  0  0  0  0  0  0  0  0  0  0
   46.4413   33.7075   37.7744 H   0  0  0  0  0  0  0  0  0  0  0  0
   47.5420   31.9196   36.3494 H   0  0  0  0  0  0  0  0  0  0  0  0
   48.2353   28.9241   39.3679 H   0  0  0  0  0  0  0  0  0  0  0  0
   46.9200   30.9192   40.4314 H   0  0  0  0  0  0  0  0  0  0  0  0
  1 11  1  0
  2  1  1  0
  3  2  2  0
  4  6  1  0
  4  3  1  0
  5  4  2  0
  6  7  1  0
  7  8  2  0
  7  1  1  0
  9 14  2  0
 10  9  1  0
 11 10  2  0
 11 12  1  0
 12 13  2  0
 13 14  1  0
 15  6  1  0
 16 15  1  0
 16 20  1  0
 17 18  1  0
 17 16  2  0
 18 19  2  0
 19 20  1  0
  2 21  1  0
  3 22  1  0
  9 23  1  0
 10 24  1  0
 13 25  1  0
 15 26  1  0
 15 27  1  0
 17 28  1  0
 19 29  1  0
 20 30  1  0
M  ISO  8  21  14  22  14  23  14  24  14  25  14  26   8  27   8  28  14
M  ISO  2  29  14  30   9
M  END
>  <minimizedAffinity>  (1) 
-4.74543905

>  <minimizedRMSD>  (1) 
0.563875079

$$$$
