
     RDKit          3D

 35 37  0  0  0  0  0  0  0  0999 V2000
   46.5730   34.1810   42.1980 N   0  0  0  0  0  0  0  0  0  0  0  0
   47.5700   35.0970   41.9480 C   0  0  0  0  0  0  0  0  0  0  0  0
   48.3500   34.9960   40.8110 C   0  0  0  0  0  0  0  0  0  0  0  0
   48.0940   33.9450   39.9380 C   0  0  0  0  0  0  0  0  0  0  0  0
   48.7850   33.8330   38.9080 O   0  0  0  0  0  0  0  0  0  0  0  0
   47.1180   33.1040   40.2470 N   0  0  0  0  0  0  0  0  0  0  0  0
   46.3570   33.2000   41.3540 C   0  0  0  0  0  0  0  0  0  0  0  0
   45.4450   32.4590   41.6950 O   0  0  0  0  0  0  0  0  0  0  0  0
   44.4700   35.9350   44.6710 C   0  0  0  0  0  0  0  0  0  0  0  0
   45.1100   35.6230   43.4550 C   0  0  0  0  0  0  0  0  0  0  0  0
   45.9140   34.5050   43.4380 C   0  0  0  0  0  0  0  0  0  0  0  0
   46.0640   33.7510   44.5680 N   0  0  0  0  0  0  0  0  0  0  0  0
   45.4210   34.1000   45.7140 C   0  0  0  0  0  0  0  0  0  0  0  0
   44.6340   35.1730   45.7800 N   0  0  0  0  0  0  0  0  0  0  0  0
   46.8020   31.9840   39.3480 C   0  0  0  0  0  0  0  0  0  0  0  0
   46.6360   32.2900   38.0000 N   0  0  0  0  0  0  0  0  0  0  0  0
   47.0170   31.4400   36.9630 C   0  0  0  0  0  0  0  0  0  0  0  0
   45.9750   31.5700   35.8490 C   0  0  0  0  0  0  0  0  0  0  0  0
   45.2940   32.8660   36.2070 C   0  0  0  0  0  0  0  0  0  0  0  0
   45.2930   32.7670   37.7410 C   0  0  0  0  0  0  0  0  0  0  0  0
   47.7476   35.9169   42.6595 H   0  0  0  0  0  0  0  0  0  0  0  0
   49.1479   35.7243   40.6037 H   0  0  0  0  0  0  0  0  0  0  0  0
   43.8198   36.8208   44.7217 H   0  0  0  0  0  0  0  0  0  0  0  0
   44.9734   36.2454   42.5583 H   0  0  0  0  0  0  0  0  0  0  0  0
   45.5543   33.4789   46.6120 H   0  0  0  0  0  0  0  0  0  0  0  0
   47.6209   31.2537   39.4253 H   0  0  0  0  0  0  0  0  0  0  0  0
   45.8217   31.6135   39.6824 H   0  0  0  0  0  0  0  0  0  0  0  0
   48.0081   31.7310   36.5849 H   0  0  0  0  0  0  0  0  0  0  0  0
   47.0744   30.4004   37.3179 H   0  0  0  0  0  0  0  0  0  0  0  0
   45.2665   30.7287   35.8642 H   0  0  0  0  0  0  0  0  0  0  0  0
   46.4045   31.5595   34.8364 H   0  0  0  0  0  0  0  0  0  0  0  0
   45.8677   33.7366   35.8565 H   0  0  0  0  0  0  0  0  0  0  0  0
   44.3001   33.0017   35.7556 H   0  0  0  0  0  0  0  0  0  0  0  0
   45.1181   33.7480   38.2069 H   0  0  0  0  0  0  0  0  0  0  0  0
   44.5011   32.1213   38.1484 H   0  0  0  0  0  0  0  0  0  0  0  0
  1 11  1  0
  2  1  1  0
  3  2  2  0
  4  6  1  0
  4  3  1  0
  5  4  2  0
  6  7  1  0
  7  8  2  0
  7  1  1  0
  9 14  2  0
 10  9  1  0
 11 10  2  0
 11 12  1  0
 12 13  2  0
 13 14  1  0
 15  6  1  0
 16 15  1  0
 17 16  1  0
 18 19  1  0
 18 17  1  0
 19 20  1  0
 20 16  1  0
  2 21  1  0
  3 22  1  0
  9 23  1  0
 10 24  1  0
 13 25  1  0
 15 26  1  0
 15 27  1  0
 17 28  1  0
 17 29  1  0
 18 30  1  0
 18 31  1  0
 19 32  1  0
 19 33  1  0
 20 34  1  0
 20 35  1  0
M  ISO  8  21  14  22  14  23  14  24  14  25  14  26   8  27   8  28  13
M  ISO  7  29  13  30  13  31  13  32  13  33  13  34  13  35  13
M  END
>  <minimizedAffinity>  (1) 
-4.64757395

>  <minimizedRMSD>  (1) 
1.61639786

$$$$
