
     RDKit          3D

 34 37  0  0  0  0  0  0  0  0999 V2000
   46.6210   34.6540   42.1630 C   0  0  0  0  0  0  0  0  0  0  0  0
   47.8100   35.3340   41.9800 C   0  0  0  0  0  0  0  0  0  0  0  0
   48.5090   35.2430   40.7760 C   0  0  0  0  0  0  0  0  0  0  0  0
   48.0280   34.4660   39.7300 C   0  0  0  0  0  0  0  0  0  0  0  0
   46.8480   33.7990   39.9310 C   0  0  0  0  0  0  0  0  0  0  0  0
   46.1380   33.8780   41.1260 C   0  0  0  0  0  0  0  0  0  0  0  0
   44.9120   33.1750   41.3130 N   0  0  0  0  0  0  0  0  0  0  0  0
   44.9520   31.8310   41.4660 C   0  0  0  0  0  0  0  0  0  0  0  0
   43.6920   31.3570   41.6300 N   0  0  0  0  0  0  0  0  0  0  0  0
   42.8930   32.4470   41.5690 C   0  0  0  0  0  0  0  0  0  0  0  0
   41.5230   32.6120   41.6670 C   0  0  0  0  0  0  0  0  0  0  0  0
   40.7600   31.6440   41.8460 O   0  0  0  0  0  0  0  0  0  0  0  0
   41.0230   33.8600   41.5620 N   0  0  0  0  0  0  0  0  0  0  0  0
   41.7900   34.9620   41.3680 C   0  0  0  0  0  0  0  0  0  0  0  0
   41.1120   36.2120   41.2790 N   0  0  0  0  0  0  0  0  0  0  0  0
   43.1370   34.8060   41.2720 N   0  0  0  0  0  0  0  0  0  0  0  0
   43.6550   33.5910   41.3710 C   0  0  0  0  0  0  0  0  0  0  0  0
   44.5100   35.8940   45.0210 C   0  0  0  0  0  0  0  0  0  0  0  0
   45.1020   35.8780   43.7460 C   0  0  0  0  0  0  0  0  0  0  0  0
   45.9430   34.7970   43.4470 C   0  0  0  0  0  0  0  0  0  0  0  0
   46.1490   33.8370   44.3660 N   0  0  0  0  0  0  0  0  0  0  0  0
   45.5540   33.8930   45.5910 C   0  0  0  0  0  0  0  0  0  0  0  0
   44.7420   34.9180   45.9060 N   0  0  0  0  0  0  0  0  0  0  0  0
   48.2107   35.9553   42.7945 H   0  0  0  0  0  0  0  0  0  0  0  0
   49.4533   35.7937   40.6535 H   0  0  0  0  0  0  0  0  0  0  0  0
   48.5730   34.3891   38.7776 H   0  0  0  0  0  0  0  0  0  0  0  0
   46.4464   33.1774   39.1171 H   0  0  0  0  0  0  0  0  0  0  0  0
   45.8652   31.2179   41.4585 H   0  0  0  0  0  0  0  0  0  0  0  0
   40.0029   33.9833   41.6330 H   0  0  0  0  0  0  0  0  0  0  0  0
   41.6479   37.0792   41.1321 H   0  0  0  0  0  0  0  0  0  0  0  0
   40.0860   36.2484   41.3616 H   0  0  0  0  0  0  0  0  0  0  0  0
   43.8435   36.7247   45.2961 H   0  0  0  0  0  0  0  0  0  0  0  0
   44.9136   36.6783   43.0153 H   0  0  0  0  0  0  0  0  0  0  0  0
   45.7389   33.0957   46.3259 H   0  0  0  0  0  0  0  0  0  0  0  0
  1 20  1  0
  2  1  2  0
  3  2  1  0
  4  5  1  0
  4  3  2  0
  5  6  2  0
  6  7  1  0
  6  1  1  0
  7 17  1  0
  7  8  1  0
  8  9  2  0
 10  9  1  0
 10 11  1  0
 11 12  2  0
 13 11  1  0
 14 13  1  0
 15 14  1  0
 16 14  2  0
 16 17  1  0
 17 10  2  0
 18 23  2  0
 19 18  1  0
 20 19  2  0
 20 21  1  0
 21 22  2  0
 22 23  1  0
  2 24  1  0
  3 25  1  0
  4 26  1  0
  5 27  1  0
  8 28  1  0
 13 29  1  0
 15 30  1  0
 15 31  1  0
 18 32  1  0
 19 33  1  0
 22 34  1  0
M  ISO  8  24  14  25  14  26  14  27  14  28  14  29   9  32  14  33  14
M  ISO  1  34  14
M  END
>  <minimizedAffinity>  (1) 
-6.91338921

>  <minimizedRMSD>  (1) 
2.11937451

$$$$
