
     RDKit          3D

 38 41  0  0  0  0  0  0  0  0999 V2000
   47.6130   33.7020   42.5130 N   0  0  0  0  0  0  0  0  0  0  0  0
   48.8580   34.1170   42.9380 C   0  0  0  0  0  0  0  0  0  0  0  0
   50.0120   33.6280   42.3660 C   0  0  0  0  0  0  0  0  0  0  0  0
   49.8770   32.6870   41.3290 C   0  0  0  0  0  0  0  0  0  0  0  0
   50.9070   32.2220   40.7860 O   0  0  0  0  0  0  0  0  0  0  0  0
   48.6350   32.3350   40.9730 N   0  0  0  0  0  0  0  0  0  0  0  0
   47.5420   32.8310   41.5510 C   0  0  0  0  0  0  0  0  0  0  0  0
   46.3880   32.5340   41.2560 O   0  0  0  0  0  0  0  0  0  0  0  0
   45.0150   36.1580   43.4470 C   0  0  0  0  0  0  0  0  0  0  0  0
   46.0270   35.5080   42.7180 C   0  0  0  0  0  0  0  0  0  0  0  0
   46.5900   34.3480   43.2570 C   0  0  0  0  0  0  0  0  0  0  0  0
   46.1410   33.8950   44.4610 N   0  0  0  0  0  0  0  0  0  0  0  0
   45.1550   34.5620   45.1320 C   0  0  0  0  0  0  0  0  0  0  0  0
   44.6060   35.6770   44.6230 N   0  0  0  0  0  0  0  0  0  0  0  0
   48.4650   31.3610   39.9000 C   0  0  0  0  0  0  0  0  0  0  0  0
   48.4750   31.9120   38.5700 C   0  0  0  0  0  0  0  0  0  0  0  0
   48.4940   33.1530   38.0660 C   0  0  0  0  0  0  0  0  0  0  0  0
   48.4960   33.3880   36.7280 C   0  0  0  0  0  0  0  0  0  0  0  0
   48.4770   32.2570   35.8840 C   0  0  0  0  0  0  0  0  0  0  0  0
   48.4550   30.8580   37.1160 S   0  0  0  0  0  0  0  0  0  0  0  0
   48.4720   32.1300   34.4720 C   0  0  0  0  0  0  0  0  0  0  0  0
   48.0320   31.0100   33.7970 C   0  0  0  0  0  0  0  0  0  0  0  0
   48.0870   31.0310   32.4190 C   0  0  0  0  0  0  0  0  0  0  0  0
   48.5580   32.1120   31.7690 N   0  0  0  0  0  0  0  0  0  0  0  0
   48.9830   33.1960   32.4330 C   0  0  0  0  0  0  0  0  0  0  0  0
   48.9320   33.1830   33.7700 N   0  0  0  0  0  0  0  0  0  0  0  0
   48.9310   34.8542   43.7511 H   0  0  0  0  0  0  0  0  0  0  0  0
   51.0030   33.9613   42.7078 H   0  0  0  0  0  0  0  0  0  0  0  0
   44.5557   37.0725   43.0437 H   0  0  0  0  0  0  0  0  0  0  0  0
   46.3665   35.9024   41.7489 H   0  0  0  0  0  0  0  0  0  0  0  0
   44.8060   34.1803   46.1028 H   0  0  0  0  0  0  0  0  0  0  0  0
   49.2823   30.6283   39.9718 H   0  0  0  0  0  0  0  0  0  0  0  0
   47.4678   30.9189   40.0417 H   0  0  0  0  0  0  0  0  0  0  0  0
   48.5084   34.0086   38.7572 H   0  0  0  0  0  0  0  0  0  0  0  0
   48.5117   34.4102   36.3221 H   0  0  0  0  0  0  0  0  0  0  0  0
   47.6509   30.1316   34.3385 H   0  0  0  0  0  0  0  0  0  0  0  0
   47.7431   30.1572   31.8461 H   0  0  0  0  0  0  0  0  0  0  0  0
   49.3643   34.0747   31.8921 H   0  0  0  0  0  0  0  0  0  0  0  0
  1  2  1  0
  1 11  1  0
  3  2  2  0
  4  3  1  0
  5  4  2  0
  6  4  1  0
  6  7  1  0
  7  1  1  0
  8  7  2  0
  9 14  2  0
 10 11  2  0
 10  9  1  0
 11 12  1  0
 12 13  2  0
 14 13  1  0
 15  6  1  0
 16 15  1  0
 17 16  2  0
 18 17  1  0
 19 18  2  0
 19 20  1  0
 20 16  1  0
 21 19  1  0
 22 21  2  0
 23 22  1  0
 24 23  2  0
 24 25  1  0
 25 26  2  0
 26 21  1  0
  2 27  1  0
  3 28  1  0
  9 29  1  0
 10 30  1  0
 13 31  1  0
 15 32  1  0
 15 33  1  0
 17 34  1  0
 18 35  1  0
 22 36  1  0
 23 37  1  0
 25 38  1  0
M  ISO  8  27  14  28  14  29  14  30  14  31  14  32   8  33   8  34  14
M  ISO  4  35  14  36  14  37  14  38  14
M  END
>  <minimizedAffinity>  (1) 
-5.80216885

>  <minimizedRMSD>  (1) 
2.95902777

$$$$
