
     RDKit          3D

 41 45  0  0  0  0  0  0  0  0999 V2000
   46.9500   33.8800   41.0470 C   0  0  0  0  0  0  0  0  0  0  0  0
   43.5660   33.9600   39.7840 N   0  0  0  0  0  0  0  0  0  0  0  0
   43.7170   33.3920   38.5340 C   0  0  0  0  0  0  0  0  0  0  0  0
   44.9480   32.9680   38.0790 C   0  0  0  0  0  0  0  0  0  0  0  0
   46.0490   33.1360   38.9390 C   0  0  0  0  0  0  0  0  0  0  0  0
   47.1890   32.7640   38.5620 O   0  0  0  0  0  0  0  0  0  0  0  0
   45.8210   33.7000   40.1470 N   0  0  0  0  0  0  0  0  0  0  0  0
   44.6100   34.0960   40.5460 C   0  0  0  0  0  0  0  0  0  0  0  0
   44.3660   34.6070   41.6240 O   0  0  0  0  0  0  0  0  0  0  0  0
   40.0450   33.7170   40.8630 C   0  0  0  0  0  0  0  0  0  0  0  0
   41.3900   33.3780   40.6340 C   0  0  0  0  0  0  0  0  0  0  0  0
   42.2040   34.3120   40.0140 C   0  0  0  0  0  0  0  0  0  0  0  0
   41.6760   35.5110   39.6530 N   0  0  0  0  0  0  0  0  0  0  0  0
   40.3710   35.8040   39.8920 C   0  0  0  0  0  0  0  0  0  0  0  0
   39.5610   34.9080   40.4940 N   0  0  0  0  0  0  0  0  0  0  0  0
   47.0830   32.8620   42.0530 C   0  0  0  0  0  0  0  0  0  0  0  0
   47.1810   31.5230   42.0380 C   0  0  0  0  0  0  0  0  0  0  0  0
   47.2990   30.7940   43.1760 C   0  0  0  0  0  0  0  0  0  0  0  0
   47.3160   31.5000   44.4020 C   0  0  0  0  0  0  0  0  0  0  0  0
   47.1520   33.2650   43.7890 S   0  0  0  0  0  0  0  0  0  0  0  0
   47.4250   31.0240   45.7060 N   0  0  0  0  0  0  0  0  0  0  0  0
   48.2510   30.0290   46.1420 C   0  0  0  0  0  0  0  0  0  0  0  0
   48.0500   29.8730   47.4720 N   0  0  0  0  0  0  0  0  0  0  0  0
   47.1170   30.7590   47.8430 C   0  0  0  0  0  0  0  0  0  0  0  0
   46.5530   31.0100   49.0940 C   0  0  0  0  0  0  0  0  0  0  0  0
   45.6240   31.9820   49.1420 N   0  0  0  0  0  0  0  0  0  0  0  0
   45.2430   32.6890   48.0420 C   0  0  0  0  0  0  0  0  0  0  0  0
   45.7770   32.4600   46.8280 N   0  0  0  0  0  0  0  0  0  0  0  0
   46.7180   31.4900   46.7280 C   0  0  0  0  0  0  0  0  0  0  0  0
   46.8335   34.8495   41.5535 H   0  0  0  0  0  0  0  0  0  0  0  0
   47.8557   33.8233   40.4253 H   0  0  0  0  0  0  0  0  0  0  0  0
   42.8353   33.2752   37.8867 H   0  0  0  0  0  0  0  0  0  0  0  0
   45.0646   32.5162   37.0829 H   0  0  0  0  0  0  0  0  0  0  0  0
   39.3799   32.9910   41.3536 H   0  0  0  0  0  0  0  0  0  0  0  0
   41.7853   32.3978   40.9388 H   0  0  0  0  0  0  0  0  0  0  0  0
   39.9699   36.7831   39.5913 H   0  0  0  0  0  0  0  0  0  0  0  0
   47.1651   30.9996   41.0706 H   0  0  0  0  0  0  0  0  0  0  0  0
   47.3783   29.6973   43.1467 H   0  0  0  0  0  0  0  0  0  0  0  0
   48.9557   29.4550   45.5224 H   0  0  0  0  0  0  0  0  0  0  0  0
   46.8508   30.4455   49.9899 H   0  0  0  0  0  0  0  0  0  0  0  0
   44.4761   33.4703   48.1490 H   0  0  0  0  0  0  0  0  0  0  0  0
  1 16  1  0
  2 12  1  0
  2  8  1  0
  3  2  1  0
  4  3  2  0
  4  5  1  0
  5  7  1  0
  6  5  2  0
  7  8  1  0
  7  1  1  0
  8  9  2  0
 11 10  2  0
 12 11  1  0
 13 14  1  0
 13 12  2  0
 14 15  2  0
 15 10  1  0
 16 20  1  0
 17 16  2  0
 17 18  1  0
 18 19  2  0
 19 21  1  0
 20 19  1  0
 21 22  1  0
 21 29  1  0
 22 23  2  0
 23 24  1  0
 24 25  2  0
 25 26  1  0
 27 26  2  0
 28 27  1  0
 29 28  2  0
 29 24  1  0
  1 30  1  0
  1 31  1  0
  3 32  1  0
  4 33  1  0
 10 34  1  0
 11 35  1  0
 14 36  1  0
 17 37  1  0
 18 38  1  0
 22 39  1  0
 25 40  1  0
 27 41  1  0
M  ISO  8  30   8  31   8  32  14  33  14  34  14  35  14  36  14  37  14
M  ISO  4  38  14  39  14  40  14  41  14
M  END
>  <minimizedAffinity>  (1) 
-5.68690825

>  <minimizedRMSD>  (1) 
9.15306568

$$$$
