
     RDKit          3D

 46 49  0  0  0  0  0  0  0  0999 V2000
   46.6390   34.1320   42.2890 N   0  0  0  0  0  0  0  0  0  0  0  0
   47.5680   35.0940   41.9670 C   0  0  0  0  0  0  0  0  0  0  0  0
   48.3560   34.9890   40.8400 C   0  0  0  0  0  0  0  0  0  0  0  0
   48.1790   33.8560   40.0230 C   0  0  0  0  0  0  0  0  0  0  0  0
   48.8750   33.7250   38.9910 O   0  0  0  0  0  0  0  0  0  0  0  0
   47.2490   32.9600   40.4070 N   0  0  0  0  0  0  0  0  0  0  0  0
   46.5140   33.1060   41.5030 C   0  0  0  0  0  0  0  0  0  0  0  0
   45.6540   32.3050   41.8860 O   0  0  0  0  0  0  0  0  0  0  0  0
   44.4640   35.9470   44.6570 C   0  0  0  0  0  0  0  0  0  0  0  0
   45.1430   35.5970   43.4790 C   0  0  0  0  0  0  0  0  0  0  0  0
   45.9590   34.4700   43.4960 C   0  0  0  0  0  0  0  0  0  0  0  0
   46.0720   33.7520   44.6370 N   0  0  0  0  0  0  0  0  0  0  0  0
   45.4000   34.1200   45.7630 C   0  0  0  0  0  0  0  0  0  0  0  0
   44.6010   35.2110   45.7750 N   0  0  0  0  0  0  0  0  0  0  0  0
   47.0500   31.7790   39.5700 C   0  0  0  0  0  0  0  0  0  0  0  0
   46.5990   32.0520   38.2360 C   0  0  0  0  0  0  0  0  0  0  0  0
   45.6130   32.7900   37.7070 C   0  0  0  0  0  0  0  0  0  0  0  0
   45.4030   32.8660   36.3670 C   0  0  0  0  0  0  0  0  0  0  0  0
   46.2860   32.1180   35.5370 C   0  0  0  0  0  0  0  0  0  0  0  0
   47.3990   31.3330   36.8180 S   0  0  0  0  0  0  0  0  0  0  0  0
   46.3900   31.9420   34.1210 C   0  0  0  0  0  0  0  0  0  0  0  0
   47.7920   32.0900   33.6330 C   0  0  0  0  0  0  0  0  0  0  0  0
   48.1450   31.3260   32.4040 C   0  0  0  0  0  0  0  0  0  0  0  0
   47.4200   30.0190   32.2420 C   0  0  0  0  0  0  0  0  0  0  0  0
   46.6870   29.6140   33.5030 C   0  0  0  0  0  0  0  0  0  0  0  0
   45.6800   30.6950   33.7440 C   0  0  0  0  0  0  0  0  0  0  0  0
   47.6852   35.9682   42.6243 H   0  0  0  0  0  0  0  0  0  0  0  0
   49.0963   35.7627   40.5884 H   0  0  0  0  0  0  0  0  0  0  0  0
   43.8124   36.8332   44.6660 H   0  0  0  0  0  0  0  0  0  0  0  0
   45.0326   36.1990   42.5650 H   0  0  0  0  0  0  0  0  0  0  0  0
   45.5090   33.5196   46.6782 H   0  0  0  0  0  0  0  0  0  0  0  0
   48.0078   31.2422   39.5035 H   0  0  0  0  0  0  0  0  0  0  0  0
   46.2535   31.1917   40.0503 H   0  0  0  0  0  0  0  0  0  0  0  0
   44.9511   33.3535   38.3811 H   0  0  0  0  0  0  0  0  0  0  0  0
   44.5908   33.4754   35.9439 H   0  0  0  0  0  0  0  0  0  0  0  0
   45.8792   32.7548   33.5839 H   0  0  0  0  0  0  0  0  0  0  0  0
   47.9645   33.1565   33.4262 H   0  0  0  0  0  0  0  0  0  0  0  0
   48.4263   31.6747   34.4300 H   0  0  0  0  0  0  0  0  0  0  0  0
   47.9139   31.9555   31.5320 H   0  0  0  0  0  0  0  0  0  0  0  0
   49.2132   31.0780   32.4907 H   0  0  0  0  0  0  0  0  0  0  0  0
   46.6911   30.1168   31.4240 H   0  0  0  0  0  0  0  0  0  0  0  0
   48.1670   29.2426   32.0204 H   0  0  0  0  0  0  0  0  0  0  0  0
   46.1851   28.6454   33.3618 H   0  0  0  0  0  0  0  0  0  0  0  0
   47.3732   29.4978   34.3548 H   0  0  0  0  0  0  0  0  0  0  0  0
   45.0961   30.8659   32.8276 H   0  0  0  0  0  0  0  0  0  0  0  0
   45.0001   30.3951   34.5550 H   0  0  0  0  0  0  0  0  0  0  0  0
  1 11  1  0
  2  1  1  0
  3  2  2  0
  4  6  1  0
  4  3  1  0
  5  4  2  0
  6  7  1  0
  7  8  2  0
  7  1  1  0
  9 14  2  0
 10 11  2  0
 10  9  1  0
 11 12  1  0
 12 13  2  0
 13 14  1  0
 15  6  1  0
 16 15  1  0
 17 16  2  0
 18 17  1  0
 19 18  2  0
 19 20  1  0
 20 16  1  0
 21 19  1  0
 22 21  1  0
 23 22  1  0
 24 23  1  0
 24 25  1  0
 25 26  1  0
 26 21  1  0
  2 27  1  0
  3 28  1  0
  9 29  1  0
 10 30  1  0
 13 31  1  0
 15 32  1  0
 15 33  1  0
 17 34  1  0
 18 35  1  0
 21 36  1  0
 22 37  1  0
 22 38  1  0
 23 39  1  0
 23 40  1  0
 24 41  1  0
 24 42  1  0
 25 43  1  0
 25 44  1  0
 26 45  1  0
 26 46  1  0
M  ISO  8  27  14  28  14  29  14  30  14  31  14  32   8  33   8  34  14
M  ISO  8  35  14  36  13  37  13  38  13  39  13  40  13  41  13  42  13
M  ISO  4  43  13  44  13  45  13  46  13
M  END
>  <minimizedAffinity>  (1) 
-5.60338402

>  <minimizedRMSD>  (1) 
1.22076869

$$$$
