
     RDKit          3D

 37 40  0  0  0  0  0  0  0  0999 V2000
   47.5660   33.7200   42.4880 N   0  0  0  0  0  0  0  0  0  0  0  0
   48.8200   34.0970   42.9250 C   0  0  0  0  0  0  0  0  0  0  0  0
   49.9680   33.6000   42.3380 C   0  0  0  0  0  0  0  0  0  0  0  0
   49.8090   32.6880   41.2710 C   0  0  0  0  0  0  0  0  0  0  0  0
   50.8290   32.2150   40.7150 O   0  0  0  0  0  0  0  0  0  0  0  0
   48.5590   32.3730   40.9090 N   0  0  0  0  0  0  0  0  0  0  0  0
   47.4820   32.8770   41.5030 C   0  0  0  0  0  0  0  0  0  0  0  0
   46.3210   32.6120   41.1970 O   0  0  0  0  0  0  0  0  0  0  0  0
   45.0070   36.1840   43.4750 C   0  0  0  0  0  0  0  0  0  0  0  0
   46.0000   35.5320   42.7360 C   0  0  0  0  0  0  0  0  0  0  0  0
   46.5580   34.3670   43.2520 C   0  0  0  0  0  0  0  0  0  0  0  0
   46.1160   33.9150   44.4460 N   0  0  0  0  0  0  0  0  0  0  0  0
   45.1510   34.5650   45.1430 C   0  0  0  0  0  0  0  0  0  0  0  0
   44.5940   35.6940   44.6680 N   0  0  0  0  0  0  0  0  0  0  0  0
   48.3730   31.4340   39.8090 C   0  0  0  0  0  0  0  0  0  0  0  0
   48.4040   32.0220   38.4960 C   0  0  0  0  0  0  0  0  0  0  0  0
   48.4370   33.2780   38.0270 C   0  0  0  0  0  0  0  0  0  0  0  0
   48.4560   33.5610   36.7020 C   0  0  0  0  0  0  0  0  0  0  0  0
   48.4410   32.4650   35.8200 C   0  0  0  0  0  0  0  0  0  0  0  0
   48.3990   31.0350   37.0130 S   0  0  0  0  0  0  0  0  0  0  0  0
   48.4510   32.2820   34.3830 C   0  0  0  0  0  0  0  0  0  0  0  0
   48.9780   33.1410   33.4800 C   0  0  0  0  0  0  0  0  0  0  0  0
   48.7340   32.5140   32.2910 N   0  0  0  0  0  0  0  0  0  0  0  0
   48.0960   31.3490   32.5110 C   0  0  0  0  0  0  0  0  0  0  0  0
   47.9050   31.1830   33.8480 N   0  0  0  0  0  0  0  0  0  0  0  0
   48.9073   34.8089   43.7590 H   0  0  0  0  0  0  0  0  0  0  0  0
   50.9661   33.9025   42.6877 H   0  0  0  0  0  0  0  0  0  0  0  0
   44.5557   37.1069   43.0818 H   0  0  0  0  0  0  0  0  0  0  0  0
   46.3326   35.9324   41.7669 H   0  0  0  0  0  0  0  0  0  0  0  0
   44.8186   34.1630   46.1115 H   0  0  0  0  0  0  0  0  0  0  0  0
   49.1726   30.6806   39.8645 H   0  0  0  0  0  0  0  0  0  0  0  0
   47.3652   31.0110   39.9328 H   0  0  0  0  0  0  0  0  0  0  0  0
   48.4491   34.1106   38.7457 H   0  0  0  0  0  0  0  0  0  0  0  0
   48.4819   34.5973   36.3339 H   0  0  0  0  0  0  0  0  0  0  0  0
   49.4783   34.1042   33.6588 H   0  0  0  0  0  0  0  0  0  0  0  0
   47.7785   30.6413   31.7311 H   0  0  0  0  0  0  0  0  0  0  0  0
   47.4484   30.3977   34.3335 H   0  0  0  0  0  0  0  0  0  0  0  0
  1  2  1  0
  1 11  1  0
  3  2  2  0
  4  3  1  0
  5  4  2  0
  6  4  1  0
  6  7  1  0
  7  1  1  0
  8  7  2  0
  9 14  2  0
 10 11  2  0
 10  9  1  0
 11 12  1  0
 12 13  2  0
 14 13  1  0
 15  6  1  0
 16 15  1  0
 17 16  2  0
 18 17  1  0
 19 18  2  0
 19 20  1  0
 20 16  1  0
 21 19  1  0
 22 21  2  0
 23 24  2  0
 23 22  1  0
 24 25  1  0
 25 21  1  0
  2 26  1  0
  3 27  1  0
  9 28  1  0
 10 29  1  0
 13 30  1  0
 15 31  1  0
 15 32  1  0
 17 33  1  0
 18 34  1  0
 22 35  1  0
 24 36  1  0
 25 37  1  0
M  ISO  8  26  14  27  14  28  14  29  14  30  14  31   8  32   8  33  14
M  ISO  4  34  14  35  14  36  14  37   9
M  END
>  <minimizedAffinity>  (1) 
-5.52870512

>  <minimizedRMSD>  (1) 
2.76902771

$$$$
