
     RDKit          3D

 35 38  0  0  0  0  0  0  0  0999 V2000
   47.6130   33.7220   42.5510 N   0  0  0  0  0  0  0  0  0  0  0  0
   48.8550   34.1530   42.9790 C   0  0  0  0  0  0  0  0  0  0  0  0
   50.0190   33.6630   42.4020 C   0  0  0  0  0  0  0  0  0  0  0  0
   49.8860   32.7200   41.3740 C   0  0  0  0  0  0  0  0  0  0  0  0
   50.9240   32.2620   40.8360 O   0  0  0  0  0  0  0  0  0  0  0  0
   48.6520   32.3540   41.0180 N   0  0  0  0  0  0  0  0  0  0  0  0
   47.5540   32.8450   41.5940 C   0  0  0  0  0  0  0  0  0  0  0  0
   46.4000   32.5400   41.3000 O   0  0  0  0  0  0  0  0  0  0  0  0
   45.0040   36.1630   43.4660 C   0  0  0  0  0  0  0  0  0  0  0  0
   46.0190   35.5160   42.7490 C   0  0  0  0  0  0  0  0  0  0  0  0
   46.5820   34.3640   43.2930 C   0  0  0  0  0  0  0  0  0  0  0  0
   46.1290   33.9180   44.4860 N   0  0  0  0  0  0  0  0  0  0  0  0
   45.1400   34.5700   45.1560 C   0  0  0  0  0  0  0  0  0  0  0  0
   44.5780   35.6960   44.6430 N   0  0  0  0  0  0  0  0  0  0  0  0
   48.4890   31.3740   39.9490 C   0  0  0  0  0  0  0  0  0  0  0  0
   48.4900   31.9250   38.6210 C   0  0  0  0  0  0  0  0  0  0  0  0
   48.4770   33.1620   38.1090 C   0  0  0  0  0  0  0  0  0  0  0  0
   48.4770   33.3930   36.7710 C   0  0  0  0  0  0  0  0  0  0  0  0
   48.4890   32.2540   35.9260 C   0  0  0  0  0  0  0  0  0  0  0  0
   48.5020   30.8730   37.1770 S   0  0  0  0  0  0  0  0  0  0  0  0
   48.4920   32.1670   34.5070 C   0  0  0  0  0  0  0  0  0  0  0  0
   48.9200   33.1220   33.6640 N   0  0  0  0  0  0  0  0  0  0  0  0
   48.7480   32.6360   32.4720 O   0  0  0  0  0  0  0  0  0  0  0  0
   48.2350   31.4310   32.5080 C   0  0  0  0  0  0  0  0  0  0  0  0
   48.0680   31.1220   33.8150 N   0  0  0  0  0  0  0  0  0  0  0  0
   48.9220   34.8949   43.7884 H   0  0  0  0  0  0  0  0  0  0  0  0
   51.0093   34.0026   42.7395 H   0  0  0  0  0  0  0  0  0  0  0  0
   44.5484   37.0743   43.0513 H   0  0  0  0  0  0  0  0  0  0  0  0
   46.3628   35.9081   41.7804 H   0  0  0  0  0  0  0  0  0  0  0  0
   44.7914   34.1810   46.1241 H   0  0  0  0  0  0  0  0  0  0  0  0
   49.3141   30.6499   40.0197 H   0  0  0  0  0  0  0  0  0  0  0  0
   47.4984   30.9185   40.0947 H   0  0  0  0  0  0  0  0  0  0  0  0
   48.4659   34.0209   38.7961 H   0  0  0  0  0  0  0  0  0  0  0  0
   48.4681   34.4142   36.3622 H   0  0  0  0  0  0  0  0  0  0  0  0
   47.9884   30.7951   31.6450 H   0  0  0  0  0  0  0  0  0  0  0  0
  1  2  1  0
  1 11  1  0
  3  2  2  0
  4  3  1  0
  5  4  2  0
  6  4  1  0
  6  7  1  0
  7  1  1  0
  8  7  2  0
  9 14  2  0
 10 11  2  0
 10  9  1  0
 11 12  1  0
 12 13  2  0
 14 13  1  0
 15  6  1  0
 16 15  1  0
 17 16  2  0
 18 17  1  0
 19 18  2  0
 19 20  1  0
 20 16  1  0
 21 19  1  0
 22 21  2  0
 23 24  1  0
 23 22  1  0
 24 25  2  0
 25 21  1  0
  2 26  1  0
  3 27  1  0
  9 28  1  0
 10 29  1  0
 13 30  1  0
 15 31  1  0
 15 32  1  0
 17 33  1  0
 18 34  1  0
 24 35  1  0
M  ISO  8  26  14  27  14  28  14  29  14  30  14  31   8  32   8  33  14
M  ISO  2  34  14  35  14
M  END
>  <minimizedAffinity>  (1) 
-5.47001886

>  <minimizedRMSD>  (1) 
2.88946748

$$$$
