
     RDKit          3D

 43 46  0  0  0  0  0  0  0  0999 V2000
   47.6250   33.6730   42.6920 N   0  0  0  0  0  0  0  0  0  0  0  0
   48.8410   34.2740   42.9600 C   0  0  0  0  0  0  0  0  0  0  0  0
   50.0110   33.8030   42.3730 C   0  0  0  0  0  0  0  0  0  0  0  0
   49.9160   32.7030   41.5040 C   0  0  0  0  0  0  0  0  0  0  0  0
   50.9540   32.2680   40.9700 O   0  0  0  0  0  0  0  0  0  0  0  0
   48.6890   32.1830   41.3040 N   0  0  0  0  0  0  0  0  0  0  0  0
   47.5880   32.6550   41.8790 C   0  0  0  0  0  0  0  0  0  0  0  0
   46.4630   32.2080   41.7200 O   0  0  0  0  0  0  0  0  0  0  0  0
   44.9780   36.1130   43.4920 C   0  0  0  0  0  0  0  0  0  0  0  0
   46.0090   35.4530   42.7960 C   0  0  0  0  0  0  0  0  0  0  0  0
   46.5880   34.3250   43.4020 C   0  0  0  0  0  0  0  0  0  0  0  0
   46.1380   33.9190   44.6200 N   0  0  0  0  0  0  0  0  0  0  0  0
   45.1430   34.5830   45.2570 C   0  0  0  0  0  0  0  0  0  0  0  0
   44.5620   35.6740   44.7020 N   0  0  0  0  0  0  0  0  0  0  0  0
   48.5740   31.0380   40.4020 C   0  0  0  0  0  0  0  0  0  0  0  0
   48.3710   31.3700   39.0230 C   0  0  0  0  0  0  0  0  0  0  0  0
   47.3790   31.9330   38.3190 C   0  0  0  0  0  0  0  0  0  0  0  0
   47.4590   32.1260   36.9750 C   0  0  0  0  0  0  0  0  0  0  0  0
   48.6510   31.6980   36.3490 C   0  0  0  0  0  0  0  0  0  0  0  0
   49.6190   31.0190   37.7990 S   0  0  0  0  0  0  0  0  0  0  0  0
   49.0370   31.7540   35.0110 N   0  0  0  0  0  0  0  0  0  0  0  0
   48.5390   32.7790   34.0840 C   0  0  0  0  0  0  0  0  0  0  0  0
   48.9900   32.3360   32.6890 C   0  0  0  0  0  0  0  0  0  0  0  0
   50.3810   32.3670   32.7300 O   0  0  0  0  0  0  0  0  0  0  0  0
   50.8090   31.2290   33.3660 C   0  0  0  0  0  0  0  0  0  0  0  0
   49.9630   30.7620   34.5020 C   0  0  0  0  0  0  0  0  0  0  0  0
   48.8838   35.1338   43.6447 H   0  0  0  0  0  0  0  0  0  0  0  0
   50.9810   34.2773   42.5828 H   0  0  0  0  0  0  0  0  0  0  0  0
   44.5037   36.9991   43.0449 H   0  0  0  0  0  0  0  0  0  0  0  0
   46.3493   35.8081   41.8121 H   0  0  0  0  0  0  0  0  0  0  0  0
   44.8013   34.2302   46.2413 H   0  0  0  0  0  0  0  0  0  0  0  0
   49.5002   30.4494   40.4783 H   0  0  0  0  0  0  0  0  0  0  0  0
   47.6774   30.4858   40.7199 H   0  0  0  0  0  0  0  0  0  0  0  0
   46.4677   32.2503   38.8471 H   0  0  0  0  0  0  0  0  0  0  0  0
   46.6399   32.5902   36.4062 H   0  0  0  0  0  0  0  0  0  0  0  0
   47.4415   32.8371   34.1311 H   0  0  0  0  0  0  0  0  0  0  0  0
   48.9278   33.7764   34.3370 H   0  0  0  0  0  0  0  0  0  0  0  0
   48.6108   33.0282   31.9228 H   0  0  0  0  0  0  0  0  0  0  0  0
   48.6077   31.3375   32.4303 H   0  0  0  0  0  0  0  0  0  0  0  0
   50.8491   30.4209   32.6208 H   0  0  0  0  0  0  0  0  0  0  0  0
   51.7852   31.4820   33.8053 H   0  0  0  0  0  0  0  0  0  0  0  0
   49.3817   29.8922   34.1622 H   0  0  0  0  0  0  0  0  0  0  0  0
   50.6511   30.5249   35.3268 H   0  0  0  0  0  0  0  0  0  0  0  0
  1  2  1  0
  1 11  1  0
  3  2  2  0
  4  3  1  0
  5  4  2  0
  6  4  1  0
  6  7  1  0
  7  1  1  0
  8  7  2  0
  9 14  2  0
 10 11  2  0
 10  9  1  0
 11 12  1  0
 12 13  2  0
 14 13  1  0
 15  6  1  0
 16 15  1  0
 17 16  2  0
 18 17  1  0
 19 18  2  0
 19 20  1  0
 20 16  1  0
 21 19  1  0
 22 21  1  0
 23 24  1  0
 23 22  1  0
 24 25  1  0
 25 26  1  0
 26 21  1  0
  2 27  1  0
  3 28  1  0
  9 29  1  0
 10 30  1  0
 13 31  1  0
 15 32  1  0
 15 33  1  0
 17 34  1  0
 18 35  1  0
 22 36  1  0
 22 37  1  0
 23 38  1  0
 23 39  1  0
 25 40  1  0
 25 41  1  0
 26 42  1  0
 26 43  1  0
M  ISO  8  27  14  28  14  29  14  30  14  31  14  32   8  33   8  34  14
M  ISO  8  35  14  36  13  37  13  38  13  39  13  40  13  41  13  42  13
M  ISO  1  43  13
M  END
>  <minimizedAffinity>  (1) 
-5.40762854

>  <minimizedRMSD>  (1) 
3.27068043

$$$$
