
     RDKit          3D

 31 34  0  0  0  0  0  0  0  0999 V2000
   46.5910   34.6750   42.0810 C   0  0  0  0  0  0  0  0  0  0  0  0
   47.8250   35.2760   41.9340 C   0  0  0  0  0  0  0  0  0  0  0  0
   48.5360   35.1190   40.7310 C   0  0  0  0  0  0  0  0  0  0  0  0
   48.0150   34.3660   39.6850 C   0  0  0  0  0  0  0  0  0  0  0  0
   46.7890   33.7850   39.8640 C   0  0  0  0  0  0  0  0  0  0  0  0
   46.0730   33.9270   41.0400 C   0  0  0  0  0  0  0  0  0  0  0  0
   44.7990   33.3110   41.2040 N   0  0  0  0  0  0  0  0  0  0  0  0
   44.5180   32.0920   41.7000 C   0  0  0  0  0  0  0  0  0  0  0  0
   43.2200   31.8360   41.7080 N   0  0  0  0  0  0  0  0  0  0  0  0
   42.6040   32.9170   41.2010 C   0  0  0  0  0  0  0  0  0  0  0  0
   41.2780   33.2520   40.9560 C   0  0  0  0  0  0  0  0  0  0  0  0
   40.9380   34.4510   40.4190 N   0  0  0  0  0  0  0  0  0  0  0  0
   41.9590   35.3080   40.1340 C   0  0  0  0  0  0  0  0  0  0  0  0
   43.2720   35.0220   40.3580 N   0  0  0  0  0  0  0  0  0  0  0  0
   43.5890   33.8350   40.8870 C   0  0  0  0  0  0  0  0  0  0  0  0
   44.4480   36.0120   44.8830 C   0  0  0  0  0  0  0  0  0  0  0  0
   45.0530   35.9340   43.6180 C   0  0  0  0  0  0  0  0  0  0  0  0
   45.9000   34.8730   43.3500 C   0  0  0  0  0  0  0  0  0  0  0  0
   46.1020   33.9600   44.3240 N   0  0  0  0  0  0  0  0  0  0  0  0
   45.5100   34.0500   45.5390 C   0  0  0  0  0  0  0  0  0  0  0  0
   44.6930   35.0660   45.8120 N   0  0  0  0  0  0  0  0  0  0  0  0
   48.2498   35.8744   42.7534 H   0  0  0  0  0  0  0  0  0  0  0  0
   49.5190   35.5991   40.6159 H   0  0  0  0  0  0  0  0  0  0  0  0
   48.5704   34.2412   38.7437 H   0  0  0  0  0  0  0  0  0  0  0  0
   46.3590   33.1863   39.0476 H   0  0  0  0  0  0  0  0  0  0  0  0
   45.2823   31.3870   42.0588 H   0  0  0  0  0  0  0  0  0  0  0  0
   40.4863   32.5293   41.2028 H   0  0  0  0  0  0  0  0  0  0  0  0
   41.7084   36.2864   39.6982 H   0  0  0  0  0  0  0  0  0  0  0  0
   43.7720   36.8477   45.1167 H   0  0  0  0  0  0  0  0  0  0  0  0
   44.8573   36.7016   42.8548 H   0  0  0  0  0  0  0  0  0  0  0  0
   45.7044   33.2821   46.3022 H   0  0  0  0  0  0  0  0  0  0  0  0
  1 18  1  0
  2  1  2  0
  3  2  1  0
  4  5  1  0
  4  3  2  0
  5  6  2  0
  6  7  1  0
  6  1  1  0
  7  8  1  0
  8  9  2  0
 10  9  1  0
 11 10  2  0
 12 11  1  0
 13 14  1  0
 13 12  2  0
 14 15  2  0
 15 10  1  0
 15  7  1  0
 16 21  2  0
 17 16  1  0
 18 17  2  0
 18 19  1  0
 19 20  2  0
 20 21  1  0
  2 22  1  0
  3 23  1  0
  4 24  1  0
  5 25  1  0
  8 26  1  0
 11 27  1  0
 13 28  1  0
 16 29  1  0
 17 30  1  0
 20 31  1  0
M  ISO  8  22  14  23  14  24  14  25  14  26  14  27  14  28  14  29  14
M  ISO  2  30  14  31  14
M  END
>  <minimizedAffinity>  (1) 
-6.3398118

>  <minimizedRMSD>  (1) 
0.750756264

$$$$
