
     RDKit          3D

 51 55  0  0  0  0  0  0  0  0999 V2000
   48.3800   31.3290   39.8010 C   0  0  0  0  0  0  0  0  0  0  0  0
   47.5840   33.6820   42.4280 N   0  0  0  0  0  0  0  0  0  0  0  0
   48.8460   34.0700   42.8450 C   0  0  0  0  0  0  0  0  0  0  0  0
   49.9810   33.5590   42.2620 C   0  0  0  0  0  0  0  0  0  0  0  0
   49.8270   32.6250   41.2260 C   0  0  0  0  0  0  0  0  0  0  0  0
   50.8400   32.1440   40.6790 O   0  0  0  0  0  0  0  0  0  0  0  0
   48.5600   32.3000   40.8790 N   0  0  0  0  0  0  0  0  0  0  0  0
   47.4870   32.8090   41.4590 C   0  0  0  0  0  0  0  0  0  0  0  0
   46.3370   32.5490   41.1830 O   0  0  0  0  0  0  0  0  0  0  0  0
   45.0460   36.1840   43.3660 C   0  0  0  0  0  0  0  0  0  0  0  0
   46.0370   35.5120   42.6400 C   0  0  0  0  0  0  0  0  0  0  0  0
   46.5810   34.3470   43.1790 C   0  0  0  0  0  0  0  0  0  0  0  0
   46.1370   33.8880   44.4010 N   0  0  0  0  0  0  0  0  0  0  0  0
   45.1670   34.5750   45.0770 C   0  0  0  0  0  0  0  0  0  0  0  0
   44.6300   35.7190   44.5500 N   0  0  0  0  0  0  0  0  0  0  0  0
   48.4170   31.9070   38.4780 C   0  0  0  0  0  0  0  0  0  0  0  0
   48.4370   33.1450   37.9800 C   0  0  0  0  0  0  0  0  0  0  0  0
   48.4720   33.3820   36.6360 C   0  0  0  0  0  0  0  0  0  0  0  0
   48.4840   32.2580   35.7970 C   0  0  0  0  0  0  0  0  0  0  0  0
   48.4460   30.8560   37.0210 S   0  0  0  0  0  0  0  0  0  0  0  0
   48.5180   32.0530   34.3990 C   0  0  0  0  0  0  0  0  0  0  0  0
   48.6540   33.1140   33.5390 C   0  0  0  0  0  0  0  0  0  0  0  0
   48.6540   32.5730   32.2460 C   0  0  0  0  0  0  0  0  0  0  0  0
   48.5150   31.1990   32.4320 C   0  0  0  0  0  0  0  0  0  0  0  0
   48.4370   30.9250   33.7410 O   0  0  0  0  0  0  0  0  0  0  0  0
   48.4650   30.2440   31.3840 N   0  0  0  0  0  0  0  0  0  0  0  0
   47.3620   29.3310   31.3180 C   0  0  0  0  0  0  0  0  0  0  0  0
   46.9930   29.0670   29.8530 C   0  0  0  0  0  0  0  0  0  0  0  0
   47.5400   30.1530   29.0760 N   0  0  0  0  0  0  0  0  0  0  0  0
   48.9760   29.9500   28.9970 C   0  0  0  0  0  0  0  0  0  0  0  0
   49.5260   30.2030   30.3960 C   0  0  0  0  0  0  0  0  0  0  0  0
   49.1815   30.5791   39.8735 H   0  0  0  0  0  0  0  0  0  0  0  0
   47.3787   30.8923   39.9298 H   0  0  0  0  0  0  0  0  0  0  0  0
   48.9423   34.8025   43.6599 H   0  0  0  0  0  0  0  0  0  0  0  0
   50.9804   33.8729   42.5976 H   0  0  0  0  0  0  0  0  0  0  0  0
   44.6041   37.1051   42.9583 H   0  0  0  0  0  0  0  0  0  0  0  0
   46.3784   35.8945   41.6668 H   0  0  0  0  0  0  0  0  0  0  0  0
   44.8154   34.2057   46.0517 H   0  0  0  0  0  0  0  0  0  0  0  0
   48.4249   33.9994   38.6727 H   0  0  0  0  0  0  0  0  0  0  0  0
   48.4899   34.4045   36.2308 H   0  0  0  0  0  0  0  0  0  0  0  0
   48.7448   34.1762   33.8102 H   0  0  0  0  0  0  0  0  0  0  0  0
   48.7440   33.1146   31.2928 H   0  0  0  0  0  0  0  0  0  0  0  0
   47.6432   28.3832   31.8003 H   0  0  0  0  0  0  0  0  0  0  0  0
   46.4967   29.7687   31.8373 H   0  0  0  0  0  0  0  0  0  0  0  0
   47.4244   28.1110   29.5215 H   0  0  0  0  0  0  0  0  0  0  0  0
   45.9017   29.0070   29.7285 H   0  0  0  0  0  0  0  0  0  0  0  0
   47.1315   30.1501   28.1305 H   0  0  0  0  0  0  0  0  0  0  0  0
   49.1975   28.9196   28.6821 H   0  0  0  0  0  0  0  0  0  0  0  0
   49.4338   30.6272   28.2609 H   0  0  0  0  0  0  0  0  0  0  0  0
   50.2261   29.3955   30.6564 H   0  0  0  0  0  0  0  0  0  0  0  0
   50.0357   31.1778   30.3958 H   0  0  0  0  0  0  0  0  0  0  0  0
  1  7  1  0
  2  3  1  0
  2 12  1  0
  4  3  2  0
  5  4  1  0
  6  5  2  0
  7  5  1  0
  7  8  1  0
  8  2  1  0
  9  8  2  0
 10 15  2  0
 11 12  2  0
 11 10  1  0
 12 13  1  0
 13 14  2  0
 15 14  1  0
 16  1  1  0
 17 16  2  0
 18 17  1  0
 19 18  2  0
 19 20  1  0
 20 16  1  0
 21 19  1  0
 22 21  2  0
 23 24  2  0
 23 22  1  0
 24 25  1  0
 25 21  1  0
 26 24  1  0
 27 26  1  0
 28 27  1  0
 29 28  1  0
 30 29  1  0
 30 31  1  0
 31 26  1  0
  1 32  1  0
  1 33  1  0
  3 34  1  0
  4 35  1  0
 10 36  1  0
 11 37  1  0
 14 38  1  0
 17 39  1  0
 18 40  1  0
 22 41  1  0
 23 42  1  0
 27 43  1  0
 27 44  1  0
 28 45  1  0
 28 46  1  0
 29 47  1  0
 30 48  1  0
 30 49  1  0
 31 50  1  0
 31 51  1  0
M  ISO  8  32   8  33   8  34  14  35  14  36  14  37  14  38  14  39  14
M  ISO  8  40  14  41  14  42  14  43  13  44  13  45  13  46  13  47   5
M  ISO  4  48  13  49  13  50  13  51  13
M  END
>  <minimizedAffinity>  (1) 
-6.57634068

>  <minimizedRMSD>  (1) 
0.487107128

$$$$
