
     RDKit          3D

 46 50  0  0  0  0  0  0  0  0999 V2000
   48.6300   31.3980   40.1030 C   0  0  0  0  0  0  0  0  0  0  0  0
   47.6580   33.7790   42.6450 N   0  0  0  0  0  0  0  0  0  0  0  0
   48.8800   34.2500   43.0790 C   0  0  0  0  0  0  0  0  0  0  0  0
   50.0600   33.7820   42.5300 C   0  0  0  0  0  0  0  0  0  0  0  0
   49.9760   32.8140   41.5210 C   0  0  0  0  0  0  0  0  0  0  0  0
   51.0280   32.3730   41.0070 O   0  0  0  0  0  0  0  0  0  0  0  0
   48.7380   32.4070   41.1550 N   0  0  0  0  0  0  0  0  0  0  0  0
   47.6340   32.8780   41.7040 C   0  0  0  0  0  0  0  0  0  0  0  0
   46.5000   32.5450   41.4090 O   0  0  0  0  0  0  0  0  0  0  0  0
   44.9720   36.1770   43.4660 C   0  0  0  0  0  0  0  0  0  0  0  0
   46.0160   35.5480   42.7790 C   0  0  0  0  0  0  0  0  0  0  0  0
   46.5970   34.4070   43.3540 C   0  0  0  0  0  0  0  0  0  0  0  0
   46.1300   33.9470   44.5550 N   0  0  0  0  0  0  0  0  0  0  0  0
   45.1040   34.5960   45.1920 C   0  0  0  0  0  0  0  0  0  0  0  0
   44.5350   35.7030   44.6440 N   0  0  0  0  0  0  0  0  0  0  0  0
   48.5640   31.9450   38.7660 C   0  0  0  0  0  0  0  0  0  0  0  0
   48.5340   33.1700   38.2420 C   0  0  0  0  0  0  0  0  0  0  0  0
   48.4690   33.3620   36.8970 C   0  0  0  0  0  0  0  0  0  0  0  0
   48.4350   32.2200   36.0870 C   0  0  0  0  0  0  0  0  0  0  0  0
   48.5000   30.8520   37.3400 S   0  0  0  0  0  0  0  0  0  0  0  0
   48.3700   31.9830   34.6850 C   0  0  0  0  0  0  0  0  0  0  0  0
   48.8950   32.8940   33.8030 C   0  0  0  0  0  0  0  0  0  0  0  0
   48.6630   32.3550   32.5200 C   0  0  0  0  0  0  0  0  0  0  0  0
   48.0090   31.1490   32.7490 C   0  0  0  0  0  0  0  0  0  0  0  0
   47.8550   30.9680   34.0530 O   0  0  0  0  0  0  0  0  0  0  0  0
   47.5440   30.1980   31.7460 C   0  0  0  0  0  0  0  0  0  0  0  0
   46.5960   29.2690   32.1210 C   0  0  0  0  0  0  0  0  0  0  0  0
   46.1370   28.3550   31.1910 C   0  0  0  0  0  0  0  0  0  0  0  0
   46.6430   28.3890   29.8860 C   0  0  0  0  0  0  0  0  0  0  0  0
   47.5900   29.3370   29.5590 C   0  0  0  0  0  0  0  0  0  0  0  0
   48.0290   30.2310   30.4930 N   0  0  0  0  0  0  0  0  0  0  0  0
   49.5091   30.7396   40.1640 H   0  0  0  0  0  0  0  0  0  0  0  0
   47.6851   30.8612   40.2735 H   0  0  0  0  0  0  0  0  0  0  0  0
   48.9163   35.0095   43.8739 H   0  0  0  0  0  0  0  0  0  0  0  0
   51.0343   34.1583   42.8750 H   0  0  0  0  0  0  0  0  0  0  0  0
   44.5021   37.0732   43.0347 H   0  0  0  0  0  0  0  0  0  0  0  0
   46.3720   35.9374   41.8138 H   0  0  0  0  0  0  0  0  0  0  0  0
   44.7369   34.2171   46.1572 H   0  0  0  0  0  0  0  0  0  0  0  0
   48.5624   34.0431   38.9105 H   0  0  0  0  0  0  0  0  0  0  0  0
   48.4442   34.3726   36.4633 H   0  0  0  0  0  0  0  0  0  0  0  0
   49.3923   33.8448   34.0455 H   0  0  0  0  0  0  0  0  0  0  0  0
   48.9393   32.7932   31.5496 H   0  0  0  0  0  0  0  0  0  0  0  0
   46.2088   29.2555   33.1505 H   0  0  0  0  0  0  0  0  0  0  0  0
   45.3810   27.6077   31.4737 H   0  0  0  0  0  0  0  0  0  0  0  0
   46.2903   27.6698   29.1321 H   0  0  0  0  0  0  0  0  0  0  0  0
   47.9951   29.3731   28.5369 H   0  0  0  0  0  0  0  0  0  0  0  0
  1  7  1  0
  2  3  1  0
  2 12  1  0
  4  3  2  0
  5  4  1  0
  6  5  2  0
  7  5  1  0
  7  8  1  0
  8  2  1  0
  9  8  2  0
 10 15  2  0
 11 12  2  0
 11 10  1  0
 12 13  1  0
 13 14  2  0
 15 14  1  0
 16  1  1  0
 17 16  2  0
 18 17  1  0
 19 18  2  0
 19 20  1  0
 20 16  1  0
 21 19  1  0
 22 21  2  0
 23 24  2  0
 23 22  1  0
 24 25  1  0
 25 21  1  0
 26 27  2  0
 26 24  1  0
 28 27  1  0
 29 28  2  0
 30 29  1  0
 30 31  2  0
 31 26  1  0
  1 32  1  0
  1 33  1  0
  3 34  1  0
  4 35  1  0
 10 36  1  0
 11 37  1  0
 14 38  1  0
 17 39  1  0
 18 40  1  0
 22 41  1  0
 23 42  1  0
 27 43  1  0
 28 44  1  0
 29 45  1  0
 30 46  1  0
M  ISO  8  32   8  33   8  34  14  35  14  36  14  37  14  38  14  39  14
M  ISO  7  40  14  41  14  42  14  43  14  44  14  45  14  46  14
M  END
>  <minimizedAffinity>  (1) 
-6.54061127

>  <minimizedRMSD>  (1) 
0.503625751

$$$$
