
     RDKit          3D

 44 48  0  0  0  0  0  0  0  0999 V2000
   48.3370   31.4310   39.7090 C   0  0  0  0  0  0  0  0  0  0  0  0
   47.5640   33.6680   42.4370 N   0  0  0  0  0  0  0  0  0  0  0  0
   48.8240   34.0070   42.8870 C   0  0  0  0  0  0  0  0  0  0  0  0
   49.9560   33.4990   42.2930 C   0  0  0  0  0  0  0  0  0  0  0  0
   49.7890   32.6210   41.2090 C   0  0  0  0  0  0  0  0  0  0  0  0
   50.8010   32.1460   40.6520 O   0  0  0  0  0  0  0  0  0  0  0  0
   48.5220   32.3430   40.8340 N   0  0  0  0  0  0  0  0  0  0  0  0
   47.4540   32.8500   41.4280 C   0  0  0  0  0  0  0  0  0  0  0  0
   46.3040   32.6270   41.1230 O   0  0  0  0  0  0  0  0  0  0  0  0
   45.0290   36.1590   43.4390 C   0  0  0  0  0  0  0  0  0  0  0  0
   46.0140   35.5020   42.6870 C   0  0  0  0  0  0  0  0  0  0  0  0
   46.5650   34.3200   43.2110 C   0  0  0  0  0  0  0  0  0  0  0  0
   46.1270   33.8560   44.4210 N   0  0  0  0  0  0  0  0  0  0  0  0
   45.1650   34.5250   45.1210 C   0  0  0  0  0  0  0  0  0  0  0  0
   44.6240   35.6750   44.6210 N   0  0  0  0  0  0  0  0  0  0  0  0
   48.3940   32.0630   38.4110 C   0  0  0  0  0  0  0  0  0  0  0  0
   48.3930   33.3260   37.9800 C   0  0  0  0  0  0  0  0  0  0  0  0
   48.4520   33.6340   36.6490 C   0  0  0  0  0  0  0  0  0  0  0  0
   48.5160   32.5490   35.7570 C   0  0  0  0  0  0  0  0  0  0  0  0
   48.4840   31.0920   36.9050 S   0  0  0  0  0  0  0  0  0  0  0  0
   48.5870   32.4140   34.3440 C   0  0  0  0  0  0  0  0  0  0  0  0
   49.1340   33.4130   33.5780 C   0  0  0  0  0  0  0  0  0  0  0  0
   49.0610   32.9890   32.2530 C   0  0  0  0  0  0  0  0  0  0  0  0
   48.4600   31.7370   32.3240 C   0  0  0  0  0  0  0  0  0  0  0  0
   48.1880   31.4220   33.6030 O   0  0  0  0  0  0  0  0  0  0  0  0
   48.1270   30.8240   31.2850 N   0  0  0  0  0  0  0  0  0  0  0  0
   47.5320   29.6380   31.2390 N   0  0  0  0  0  0  0  0  0  0  0  0
   47.4720   29.2050   29.9640 C   0  0  0  0  0  0  0  0  0  0  0  0
   48.0680   30.1910   29.1750 C   0  0  0  0  0  0  0  0  0  0  0  0
   48.4740   31.2020   30.0340 C   0  0  0  0  0  0  0  0  0  0  0  0
   49.1258   30.6656   39.7536 H   0  0  0  0  0  0  0  0  0  0  0  0
   47.3251   31.0114   39.8090 H   0  0  0  0  0  0  0  0  0  0  0  0
   48.9250   34.6972   43.7376 H   0  0  0  0  0  0  0  0  0  0  0  0
   50.9586   33.7712   42.6547 H   0  0  0  0  0  0  0  0  0  0  0  0
   44.5818   37.0866   43.0522 H   0  0  0  0  0  0  0  0  0  0  0  0
   46.3452   35.8999   41.7164 H   0  0  0  0  0  0  0  0  0  0  0  0
   44.8240   34.1363   46.0919 H   0  0  0  0  0  0  0  0  0  0  0  0
   48.3433   34.1420   38.7159 H   0  0  0  0  0  0  0  0  0  0  0  0
   48.4495   34.6754   36.2949 H   0  0  0  0  0  0  0  0  0  0  0  0
   49.5498   34.3647   33.9404 H   0  0  0  0  0  0  0  0  0  0  0  0
   49.4017   33.5236   31.3540 H   0  0  0  0  0  0  0  0  0  0  0  0
   47.0373   28.2576   29.6127 H   0  0  0  0  0  0  0  0  0  0  0  0
   48.1918   30.1701   28.0822 H   0  0  0  0  0  0  0  0  0  0  0  0
   48.9825   32.1354   29.7507 H   0  0  0  0  0  0  0  0  0  0  0  0
  1  7  1  0
  2  3  1  0
  2 12  1  0
  4  3  2  0
  5  4  1  0
  6  5  2  0
  7  5  1  0
  7  8  1  0
  8  2  1  0
  9  8  2  0
 10 15  2  0
 11 12  2  0
 11 10  1  0
 12 13  1  0
 13 14  2  0
 15 14  1  0
 16  1  1  0
 17 16  2  0
 18 17  1  0
 19 18  2  0
 19 20  1  0
 20 16  1  0
 21 19  1  0
 22 21  2  0
 23 24  2  0
 23 22  1  0
 24 25  1  0
 25 21  1  0
 26 24  1  0
 27 26  1  0
 28 27  2  0
 29 28  1  0
 29 30  2  0
 30 26  1  0
  1 31  1  0
  1 32  1  0
  3 33  1  0
  4 34  1  0
 10 35  1  0
 11 36  1  0
 14 37  1  0
 17 38  1  0
 18 39  1  0
 22 40  1  0
 23 41  1  0
 28 42  1  0
 29 43  1  0
 30 44  1  0
M  ISO  8  31   8  32   8  33  14  34  14  35  14  36  14  37  14  38  14
M  ISO  6  39  14  40  14  41  14  42  14  43  14  44  14
M  END
>  <minimizedAffinity>  (1) 
-6.49549913

>  <minimizedRMSD>  (1) 
0.438203692

$$$$
