
     RDKit          3D

 44 48  0  0  0  0  0  0  0  0999 V2000
   48.4280   31.4580   39.8800 C   0  0  0  0  0  0  0  0  0  0  0  0
   47.5870   33.7490   42.5480 N   0  0  0  0  0  0  0  0  0  0  0  0
   48.8380   34.1410   42.9910 C   0  0  0  0  0  0  0  0  0  0  0  0
   49.9930   33.6490   42.4090 C   0  0  0  0  0  0  0  0  0  0  0  0
   49.8590   32.7380   41.3520 C   0  0  0  0  0  0  0  0  0  0  0  0
   50.8880   32.2800   40.8100 O   0  0  0  0  0  0  0  0  0  0  0  0
   48.6100   32.4040   40.9780 N   0  0  0  0  0  0  0  0  0  0  0  0
   47.5190   32.8990   41.5630 C   0  0  0  0  0  0  0  0  0  0  0  0
   46.3760   32.6270   41.2590 O   0  0  0  0  0  0  0  0  0  0  0  0
   44.9880   36.2000   43.4800 C   0  0  0  0  0  0  0  0  0  0  0  0
   45.9970   35.5560   42.7560 C   0  0  0  0  0  0  0  0  0  0  0  0
   46.5680   34.3850   43.2950 C   0  0  0  0  0  0  0  0  0  0  0  0
   46.1170   33.9240   44.5010 N   0  0  0  0  0  0  0  0  0  0  0  0
   45.1310   34.5790   45.1800 C   0  0  0  0  0  0  0  0  0  0  0  0
   44.5750   35.7110   44.6630 N   0  0  0  0  0  0  0  0  0  0  0  0
   48.4510   32.0720   38.5730 C   0  0  0  0  0  0  0  0  0  0  0  0
   48.4310   33.3230   38.1080 C   0  0  0  0  0  0  0  0  0  0  0  0
   48.4660   33.5880   36.7680 C   0  0  0  0  0  0  0  0  0  0  0  0
   48.5220   32.4840   35.9040 C   0  0  0  0  0  0  0  0  0  0  0  0
   48.5250   31.0500   37.0880 S   0  0  0  0  0  0  0  0  0  0  0  0
   48.5680   32.3250   34.4970 C   0  0  0  0  0  0  0  0  0  0  0  0
   49.1100   33.2670   33.6930 C   0  0  0  0  0  0  0  0  0  0  0  0
   49.0050   32.8180   32.3700 C   0  0  0  0  0  0  0  0  0  0  0  0
   48.3790   31.5840   32.4970 C   0  0  0  0  0  0  0  0  0  0  0  0
   48.1380   31.3300   33.7750 O   0  0  0  0  0  0  0  0  0  0  0  0
   48.0390   30.7080   31.4230 C   0  0  0  0  0  0  0  0  0  0  0  0
   48.2760   30.6830   30.1020 C   0  0  0  0  0  0  0  0  0  0  0  0
   47.7960   29.6710   29.3210 C   0  0  0  0  0  0  0  0  0  0  0  0
   47.0510   28.6760   29.9870 C   0  0  0  0  0  0  0  0  0  0  0  0
   47.0650   29.2320   31.7220 S   0  0  0  0  0  0  0  0  0  0  0  0
   49.2351   30.7121   39.9272 H   0  0  0  0  0  0  0  0  0  0  0  0
   47.4320   31.0083   40.0057 H   0  0  0  0  0  0  0  0  0  0  0  0
   48.9158   34.8576   43.8219 H   0  0  0  0  0  0  0  0  0  0  0  0
   50.9854   33.9630   42.7647 H   0  0  0  0  0  0  0  0  0  0  0  0
   44.5281   37.1148   43.0781 H   0  0  0  0  0  0  0  0  0  0  0  0
   46.3370   35.9540   41.7886 H   0  0  0  0  0  0  0  0  0  0  0  0
   44.7833   34.1916   46.1490 H   0  0  0  0  0  0  0  0  0  0  0  0
   48.3853   34.1601   38.8201 H   0  0  0  0  0  0  0  0  0  0  0  0
   48.4510   34.6189   36.3845 H   0  0  0  0  0  0  0  0  0  0  0  0
   49.5550   34.2184   34.0199 H   0  0  0  0  0  0  0  0  0  0  0  0
   49.3384   33.3218   31.4507 H   0  0  0  0  0  0  0  0  0  0  0  0
   48.8656   31.4896   29.6419 H   0  0  0  0  0  0  0  0  0  0  0  0
   47.9795   29.6341   28.2370 H   0  0  0  0  0  0  0  0  0  0  0  0
   46.5758   27.7799   29.5614 H   0  0  0  0  0  0  0  0  0  0  0  0
  1  7  1  0
  2  3  1  0
  2 12  1  0
  4  3  2  0
  5  4  1  0
  6  5  2  0
  7  5  1  0
  7  8  1  0
  8  2  1  0
  9  8  2  0
 10 15  2  0
 11 12  2  0
 11 10  1  0
 12 13  1  0
 13 14  2  0
 15 14  1  0
 16  1  1  0
 17 16  2  0
 18 17  1  0
 19 18  2  0
 19 20  1  0
 20 16  1  0
 21 19  1  0
 22 21  2  0
 23 24  2  0
 23 22  1  0
 24 25  1  0
 25 21  1  0
 26 30  1  0
 26 24  1  0
 27 26  2  0
 28 29  2  0
 28 27  1  0
 29 30  1  0
  1 31  1  0
  1 32  1  0
  3 33  1  0
  4 34  1  0
 10 35  1  0
 11 36  1  0
 14 37  1  0
 17 38  1  0
 18 39  1  0
 22 40  1  0
 23 41  1  0
 27 42  1  0
 28 43  1  0
 29 44  1  0
M  ISO  8  31   8  32   8  33  14  34  14  35  14  36  14  37  14  38  14
M  ISO  6  39  14  40  14  41  14  42  14  43  14  44  14
M  END
>  <minimizedAffinity>  (1) 
-6.3599968

>  <minimizedRMSD>  (1) 
0.280534655

$$$$
