
     RDKit          3D

 33 35  0  0  0  0  0  0  0  0999 V2000
   46.5670   34.7430   42.1440 C   0  0  0  0  0  0  0  0  0  0  0  0
   47.8740   35.1170   42.0600 C   0  0  0  0  0  0  0  0  0  0  0  0
   48.6190   34.9690   40.8880 C   0  0  0  0  0  0  0  0  0  0  0  0
   48.0190   34.4200   39.7580 C   0  0  0  0  0  0  0  0  0  0  0  0
   46.7020   34.0440   39.8460 C   0  0  0  0  0  0  0  0  0  0  0  0
   45.9910   34.2060   41.0270 C   0  0  0  0  0  0  0  0  0  0  0  0
   44.4510   36.1100   44.9480 C   0  0  0  0  0  0  0  0  0  0  0  0
   45.0680   36.0340   43.6940 C   0  0  0  0  0  0  0  0  0  0  0  0
   45.8770   34.9390   43.3990 C   0  0  0  0  0  0  0  0  0  0  0  0
   46.0200   34.0020   44.3540 N   0  0  0  0  0  0  0  0  0  0  0  0
   45.4140   34.0930   45.5660 C   0  0  0  0  0  0  0  0  0  0  0  0
   44.6380   35.1400   45.8510 N   0  0  0  0  0  0  0  0  0  0  0  0
   41.8460   33.4300   40.7960 C   0  0  0  0  0  0  0  0  0  0  0  0
   42.4180   34.6150   40.3880 C   0  0  0  0  0  0  0  0  0  0  0  0
   43.8030   34.8020   40.4970 C   0  0  0  0  0  0  0  0  0  0  0  0
   44.5990   33.7770   41.0220 C   0  0  0  0  0  0  0  0  0  0  0  0
   44.0080   32.5980   41.4250 C   0  0  0  0  0  0  0  0  0  0  0  0
   42.6450   32.4110   41.3190 C   0  0  0  0  0  0  0  0  0  0  0  0
   40.1110   33.1630   40.6710 S   0  0  0  0  0  0  0  0  0  0  0  0
   39.6360   32.6140   41.9660 O   0  0  0  0  0  0  0  0  0  0  0  0
   39.4150   34.4380   40.3460 O   0  0  0  0  0  0  0  0  0  0  0  0
   48.3598   35.5509   42.9464 H   0  0  0  0  0  0  0  0  0  0  0  0
   49.6725   35.2840   40.8579 H   0  0  0  0  0  0  0  0  0  0  0  0
   48.5836   34.2915   38.8227 H   0  0  0  0  0  0  0  0  0  0  0  0
   46.2028   33.6080   38.9681 H   0  0  0  0  0  0  0  0  0  0  0  0
   43.8101   36.9700   45.1922 H   0  0  0  0  0  0  0  0  0  0  0  0
   44.9158   36.8298   42.9500 H   0  0  0  0  0  0  0  0  0  0  0  0
   45.5635   33.3012   46.3148 H   0  0  0  0  0  0  0  0  0  0  0  0
   41.7867   35.4160   39.9759 H   0  0  0  0  0  0  0  0  0  0  0  0
   44.2613   35.7478   40.1722 H   0  0  0  0  0  0  0  0  0  0  0  0
   44.6337   31.7930   41.8379 H   0  0  0  0  0  0  0  0  0  0  0  0
   42.1900   31.4640   41.6448 H   0  0  0  0  0  0  0  0  0  0  0  0
   39.8355   32.2760   39.6639 H   0  0  0  0  0  0  0  0  0  0  0  0
  1  9  1  0
  2  1  2  0
  3  2  1  0
  4  5  1  0
  4  3  2  0
  5  6  2  0
  6  1  1  0
  7 12  2  0
  8  7  1  0
  9  8  2  0
  9 10  1  0
 10 11  2  0
 11 12  1  0
 13 18  2  0
 14 15  2  0
 14 13  1  0
 15 16  1  0
 16  6  1  0
 16 17  2  0
 18 17  1  0
 19 13  1  0
 19 20  2  0
 21 19  2  0
  2 22  1  0
  3 23  1  0
  4 24  1  0
  5 25  1  0
  7 26  1  0
  8 27  1  0
 11 28  1  0
 14 29  1  0
 15 30  1  0
 17 31  1  0
 18 32  1  0
 19 33  1  0
M  ISO  8  22  14  23  14  24  14  25  14  26  14  27  14  28  14  29  14
M  ISO  4  30  14  31  14  32  14  33  11
M  END
>  <minimizedAffinity>  (1) 
-6.25437403

>  <minimizedRMSD>  (1) 
1.41616023

$$$$
