
     RDKit          3D

 25 27  0  0  0  0  0  0  0  0999 V2000
   46.1200   34.7300   43.3550 C   0  0  0  0  0  0  0  0  0  0  0  0
   45.1500   35.7240   43.5520 C   0  0  0  0  0  0  0  0  0  0  0  0
   44.4500   35.8720   44.7290 C   0  0  0  0  0  0  0  0  0  0  0  0
   44.6920   35.0390   45.7390 N   0  0  0  0  0  0  0  0  0  0  0  0
   45.6300   34.0800   45.5440 C   0  0  0  0  0  0  0  0  0  0  0  0
   46.3360   33.9090   44.3990 N   0  0  0  0  0  0  0  0  0  0  0  0
   48.6170   35.2420   40.7530 C   0  0  0  0  0  0  0  0  0  0  0  0
   48.1160   34.4740   39.6840 C   0  0  0  0  0  0  0  0  0  0  0  0
   46.9090   33.7840   39.8820 C   0  0  0  0  0  0  0  0  0  0  0  0
   46.2870   33.8850   41.0790 N   0  0  0  0  0  0  0  0  0  0  0  0
   46.8150   34.6430   42.0820 C   0  0  0  0  0  0  0  0  0  0  0  0
   47.9680   35.3190   41.9290 N   0  0  0  0  0  0  0  0  0  0  0  0
   45.9920   33.0970   46.5790 C   0  0  0  0  0  0  0  0  0  0  0  0
   45.2390   32.7310   47.6860 C   0  0  0  0  0  0  0  0  0  0  0  0
   45.9870   31.7740   48.3720 C   0  0  0  0  0  0  0  0  0  0  0  0
   47.1610   31.6200   47.6270 C   0  0  0  0  0  0  0  0  0  0  0  0
   47.1220   32.4180   46.5810 O   0  0  0  0  0  0  0  0  0  0  0  0
   44.9380   36.4192   42.7263 H   0  0  0  0  0  0  0  0  0  0  0  0
   43.6995   36.6694   44.8333 H   0  0  0  0  0  0  0  0  0  0  0  0
   49.5609   35.7917   40.6234 H   0  0  0  0  0  0  0  0  0  0  0  0
   48.6525   34.4165   38.7254 H   0  0  0  0  0  0  0  0  0  0  0  0
   46.4765   33.1716   39.0771 H   0  0  0  0  0  0  0  0  0  0  0  0
   44.2486   33.1187   47.9668 H   0  0  0  0  0  0  0  0  0  0  0  0
   45.7124   31.2519   49.3005 H   0  0  0  0  0  0  0  0  0  0  0  0
   47.9876   30.9385   47.8764 H   0  0  0  0  0  0  0  0  0  0  0  0
  1  2  2  0
  1  6  1  0
  2  3  1  0
  3  4  2  0
  5  4  1  0
  5 13  1  0
  6  5  2  0
  7 12  2  0
  8  9  2  0
  8  7  1  0
  9 10  1  0
 10 11  2  0
 11  1  1  0
 12 11  1  0
 13 17  1  0
 13 14  2  0
 14 15  1  0
 16 15  2  0
 17 16  1  0
  2 18  1  0
  3 19  1  0
  7 20  1  0
  8 21  1  0
  9 22  1  0
 14 23  1  0
 15 24  1  0
 16 25  1  0
M  ISO  8  18  14  19  14  20  14  21  14  22  14  23  14  24  14  25  14
M  END
>  <minimizedAffinity>  (1) 
-5.65475607

>  <minimizedRMSD>  (1) 
4.58156347

$$$$
