
     RDKit          3D

 35 37  0  0  1  0  0  0  0  0999 V2000
   44.6870   35.0390   45.8100 C   0  0  0  0  0  0  0  0  0  0  0  0
   44.5150   35.6410   44.5680 C   0  0  0  0  0  0  0  0  0  0  0  0
   45.0970   35.0580   43.4340 C   0  0  0  0  0  0  0  0  0  0  0  0
   45.8030   33.9220   43.6170 N   0  0  0  0  0  0  0  0  0  0  0  0
   45.9670   33.3340   44.8370 C   0  0  0  0  0  0  0  0  0  0  0  0
   45.4100   33.9020   45.9020 N   0  0  0  0  0  0  0  0  0  0  0  0
   46.7120   32.1430   45.0300 N   0  0  0  0  0  0  0  0  0  0  0  0
   47.5790   31.8160   44.0260 C   0  0  0  0  0  0  0  0  0  0  0  0
   48.1840   30.6390   44.4380 C   0  0  0  0  0  0  0  0  0  0  0  0
   47.6900   30.2830   45.6490 N   0  0  0  0  0  0  0  0  0  0  0  0
   46.7910   31.2120   45.9990 C   0  0  0  0  0  0  0  0  0  0  0  0
   45.9970   31.2340   47.2170 C   0  0  2  0  0  0  0  0  0  0  0  0
   46.7210   32.1700   48.2050 C   0  0  0  0  0  0  0  0  0  0  0  0
   45.9640   29.8730   47.8620 C   0  0  0  0  0  0  0  0  0  0  0  0
   45.0000   28.9620   47.2220 C   0  0  0  0  0  0  0  0  0  0  0  0
   44.9650   27.6890   47.7800 C   0  0  0  0  0  0  0  0  0  0  0  0
   44.1140   26.6960   47.3020 C   0  0  0  0  0  0  0  0  0  0  0  0
   43.2870   27.0210   46.2320 C   0  0  0  0  0  0  0  0  0  0  0  0
   43.3460   28.2960   45.6990 C   0  0  0  0  0  0  0  0  0  0  0  0
   44.1840   29.2390   46.1870 N   0  0  0  0  0  0  0  0  0  0  0  0
   44.2380   35.4852   46.7096 H   0  0  0  0  0  0  0  0  0  0  0  0
   43.9274   36.5664   44.4765 H   0  0  0  0  0  0  0  0  0  0  0  0
   44.9832   35.5074   42.4365 H   0  0  0  0  0  0  0  0  0  0  0  0
   47.7583   32.3681   43.0916 H   0  0  0  0  0  0  0  0  0  0  0  0
   48.9448   30.0818   43.8717 H   0  0  0  0  0  0  0  0  0  0  0  0
   44.9723   31.5551   46.9784 H   0  0  0  0  0  0  0  0  0  0  0  0
   46.4865   31.8669   49.2361 H   0  0  0  0  0  0  0  0  0  0  0  0
   47.8070   32.1060   48.0420 H   0  0  0  0  0  0  0  0  0  0  0  0
   46.3861   33.2050   48.0420 H   0  0  0  0  0  0  0  0  0  0  0  0
   46.9674   29.4273   47.7940 H   0  0  0  0  0  0  0  0  0  0  0  0
   45.6481   30.0090   48.9069 H   0  0  0  0  0  0  0  0  0  0  0  0
   45.6303   27.4592   48.6253 H   0  0  0  0  0  0  0  0  0  0  0  0
   44.0964   25.6930   47.7533 H   0  0  0  0  0  0  0  0  0  0  0  0
   42.5953   26.2741   45.8152 H   0  0  0  0  0  0  0  0  0  0  0  0
   42.6915   28.5509   44.8525 H   0  0  0  0  0  0  0  0  0  0  0  0
  1  6  2  0
  2  1  1  0
  3  4  1  0
  3  2  2  0
  4  5  2  0
  5  7  1  0
  5  6  1  0
  7 11  1  0
  8  9  2  0
  8  7  1  0
  9 10  1  0
 10 11  2  0
 11 12  1  0
 12 14  1  0
 12 13  1  0
 15 16  2  0
 15 14  1  0
 17 16  1  0
 18 17  2  0
 19 20  2  0
 19 18  1  0
 20 15  1  0
  1 21  1  0
  2 22  1  0
  3 23  1  0
  8 24  1  0
  9 25  1  0
 12 26  1  6
 13 27  1  0
 13 28  1  0
 13 29  1  0
 14 30  1  0
 14 31  1  0
 16 32  1  0
 17 33  1  0
 18 34  1  0
 19 35  1  0
M  ISO  8  21  14  22  14  23  14  24  14  25  14  26   8  27   8  28   8
M  ISO  7  29   8  30   8  31   8  32  14  33  14  34  14  35  14
M  END
>  <minimizedAffinity>  (1) 
-4.71765757

>  <minimizedRMSD>  (1) 
0.962811053

$$$$
