
     RDKit          3D

 21 22  0  0  0  0  0  0  0  0999 V2000
   45.8090   33.9340   45.3820 C   0  0  0  0  0  0  0  0  0  0  0  0
   44.8300   34.9280   45.5280 C   0  0  0  0  0  0  0  0  0  0  0  0
   44.5460   35.8460   44.5440 C   0  0  0  0  0  0  0  0  0  0  0  0
   45.2140   35.8080   43.3940 N   0  0  0  0  0  0  0  0  0  0  0  0
   46.1640   34.8450   43.2490 C   0  0  0  0  0  0  0  0  0  0  0  0
   46.4690   33.9160   44.2120 N   0  0  0  0  0  0  0  0  0  0  0  0
   47.3500   31.2960   47.4020 C   0  0  0  0  0  0  0  0  0  0  0  0
   46.4950   31.2400   48.5200 C   0  0  0  0  0  0  0  0  0  0  0  0
   45.3970   32.1120   48.5630 C   0  0  0  0  0  0  0  0  0  0  0  0
   45.2040   32.9710   47.5300 N   0  0  0  0  0  0  0  0  0  0  0  0
   46.0620   32.9890   46.4680 C   0  0  0  0  0  0  0  0  0  0  0  0
   47.1150   32.1740   46.3940 N   0  0  0  0  0  0  0  0  0  0  0  0
   46.9830   34.6890   42.0180 C   0  0  0  0  0  0  0  0  0  0  0  0
   47.7020   33.5140   42.0090 F   0  0  0  0  0  0  0  0  0  0  0  0
   46.1910   34.6650   40.8820 F   0  0  0  0  0  0  0  0  0  0  0  0
   47.8630   35.7370   41.8580 F   0  0  0  0  0  0  0  0  0  0  0  0
   44.2648   34.9753   46.4705 H   0  0  0  0  0  0  0  0  0  0  0  0
   43.7699   36.6083   44.7071 H   0  0  0  0  0  0  0  0  0  0  0  0
   48.2169   30.6213   47.3453 H   0  0  0  0  0  0  0  0  0  0  0  0
   46.6836   30.5302   49.3389 H   0  0  0  0  0  0  0  0  0  0  0  0
   44.7052   32.0998   49.4181 H   0  0  0  0  0  0  0  0  0  0  0  0
  1  2  2  0
  1 11  1  0
  3  2  1  0
  4  3  2  0
  5  4  1  0
  5  6  2  0
  6  1  1  0
  7  8  2  0
  8  9  1  0
 10  9  2  0
 11 10  1  0
 12 11  2  0
 12  7  1  0
 13  5  1  0
 14 13  1  0
 15 13  1  0
 16 13  1  0
  2 17  1  0
  3 18  1  0
  7 19  1  0
  8 20  1  0
  9 21  1  0
M  ISO  5  17  14  18  14  19  14  20  14  21  14
M  END
>  <minimizedAffinity>  (1) 
-5.24465227

>  <minimizedRMSD>  (1) 
6.43886566

$$$$
