
     RDKit          3D

 25 27  0  0  0  0  0  0  0  0999 V2000
   46.3650   33.6610   44.8260 C   0  0  0  0  0  0  0  0  0  0  0  0
   45.3150   34.5260   44.5430 C   0  0  0  0  0  0  0  0  0  0  0  0
   45.2970   35.3470   43.4330 C   0  0  0  0  0  0  0  0  0  0  0  0
   46.3250   35.3230   42.5820 N   0  0  0  0  0  0  0  0  0  0  0  0
   47.3480   34.4730   42.8660 C   0  0  0  0  0  0  0  0  0  0  0  0
   47.3860   33.6550   43.9550 N   0  0  0  0  0  0  0  0  0  0  0  0
   47.1110   30.9910   47.2270 C   0  0  0  0  0  0  0  0  0  0  0  0
   46.2030   31.2620   48.2690 C   0  0  0  0  0  0  0  0  0  0  0  0
   45.3420   32.3640   48.1330 C   0  0  0  0  0  0  0  0  0  0  0  0
   45.4180   33.1240   47.0030 N   0  0  0  0  0  0  0  0  0  0  0  0
   46.3150   32.8180   46.0240 C   0  0  0  0  0  0  0  0  0  0  0  0
   47.1470   31.7750   46.1290 N   0  0  0  0  0  0  0  0  0  0  0  0
   48.5070   34.4340   41.9220 C   0  0  0  0  0  0  0  0  0  0  0  0
   48.2850   34.9070   40.5490 C   0  0  0  0  0  0  0  0  0  0  0  0
   48.9950   35.8290   41.5470 C   0  0  0  0  0  0  0  0  0  0  0  0
   44.4599   34.5581   45.2342 H   0  0  0  0  0  0  0  0  0  0  0  0
   44.4424   36.0154   43.2515 H   0  0  0  0  0  0  0  0  0  0  0  0
   47.7958   30.1341   47.3087 H   0  0  0  0  0  0  0  0  0  0  0  0
   46.1688   30.6270   49.1666 H   0  0  0  0  0  0  0  0  0  0  0  0
   44.6188   32.6097   48.9246 H   0  0  0  0  0  0  0  0  0  0  0  0
   48.9501   33.5107   42.3235 H   0  0  0  0  0  0  0  0  0  0  0  0
   47.2662   35.1475   40.2111 H   0  0  0  0  0  0  0  0  0  0  0  0
   48.5289   34.5176   39.5495 H   0  0  0  0  0  0  0  0  0  0  0  0
   50.0710   36.0346   41.4472 H   0  0  0  0  0  0  0  0  0  0  0  0
   48.8452   36.8501   41.9278 H   0  0  0  0  0  0  0  0  0  0  0  0
  1 11  1  0
  2  1  2  0
  3  2  1  0
  4  5  1  0
  4  3  2  0
  5  6  2  0
  6  1  1  0
  7  8  2  0
  9  8  1  0
 10  9  2  0
 11 12  2  0
 11 10  1  0
 12  7  1  0
 13  5  1  0
 14 15  1  0
 14 13  1  0
 15 13  1  0
  2 16  1  0
  3 17  1  0
  7 18  1  0
  8 19  1  0
  9 20  1  0
 13 21  1  0
 14 22  1  0
 14 23  1  0
 15 24  1  0
 15 25  1  0
M  ISO  8  16  14  17  14  18  14  19  14  20  14  21  13  22  13  23  13
M  ISO  2  24  13  25  13
M  END
>  <minimizedAffinity>  (1) 
-5.07288456

>  <minimizedRMSD>  (1) 
6.54873276

$$$$
