
     RDKit          3D

 30 32  0  0  0  0  0  0  0  0999 V2000
   46.6430   34.7850   42.1060 C   0  0  0  0  0  0  0  0  0  0  0  0
   47.9300   35.2360   42.0320 C   0  0  0  0  0  0  0  0  0  0  0  0
   48.7130   35.1170   40.8840 C   0  0  0  0  0  0  0  0  0  0  0  0
   48.1510   34.5050   39.7490 C   0  0  0  0  0  0  0  0  0  0  0  0
   46.8550   34.0510   39.8260 C   0  0  0  0  0  0  0  0  0  0  0  0
   46.1210   34.1940   40.9880 C   0  0  0  0  0  0  0  0  0  0  0  0
   44.4430   36.0660   44.8800 C   0  0  0  0  0  0  0  0  0  0  0  0
   45.0790   36.0090   43.6380 C   0  0  0  0  0  0  0  0  0  0  0  0
   45.9260   34.9570   43.3480 C   0  0  0  0  0  0  0  0  0  0  0  0
   46.1110   33.9990   44.3040 N   0  0  0  0  0  0  0  0  0  0  0  0
   45.4760   34.0780   45.5110 C   0  0  0  0  0  0  0  0  0  0  0  0
   44.6540   35.1010   45.7880 N   0  0  0  0  0  0  0  0  0  0  0  0
   44.7520   33.6920   41.0030 C   0  0  0  0  0  0  0  0  0  0  0  0
   44.3750   32.4520   41.4710 C   0  0  0  0  0  0  0  0  0  0  0  0
   43.0870   31.9740   41.4860 C   0  0  0  0  0  0  0  0  0  0  0  0
   42.0910   32.7920   40.9960 C   0  0  0  0  0  0  0  0  0  0  0  0
   42.3790   34.0380   40.5120 C   0  0  0  0  0  0  0  0  0  0  0  0
   43.6980   34.4750   40.5200 C   0  0  0  0  0  0  0  0  0  0  0  0
   48.3695   35.7154   42.9191 H   0  0  0  0  0  0  0  0  0  0  0  0
   49.7465   35.4932   40.8665 H   0  0  0  0  0  0  0  0  0  0  0  0
   48.7336   34.3923   38.8228 H   0  0  0  0  0  0  0  0  0  0  0  0
   46.3966   33.5675   38.9507 H   0  0  0  0  0  0  0  0  0  0  0  0
   43.7685   36.9028   45.1141 H   0  0  0  0  0  0  0  0  0  0  0  0
   44.9060   36.7995   42.8929 H   0  0  0  0  0  0  0  0  0  0  0  0
   45.6407   33.2936   46.2644 H   0  0  0  0  0  0  0  0  0  0  0  0
   45.1655   31.7948   41.8624 H   0  0  0  0  0  0  0  0  0  0  0  0
   42.8578   30.9714   41.8762 H   0  0  0  0  0  0  0  0  0  0  0  0
   41.0498   32.4371   40.9944 H   0  0  0  0  0  0  0  0  0  0  0  0
   41.5788   34.6845   40.1223 H   0  0  0  0  0  0  0  0  0  0  0  0
   43.9229   35.4787   40.1302 H   0  0  0  0  0  0  0  0  0  0  0  0
  1  9  1  0
  2  1  2  0
  3  2  1  0
  4  5  1  0
  4  3  2  0
  5  6  2  0
  6 13  1  0
  6  1  1  0
  7 12  2  0
  8  7  1  0
  9  8  2  0
  9 10  1  0
 10 11  2  0
 11 12  1  0
 13 14  2  0
 14 15  1  0
 16 15  2  0
 17 18  2  0
 17 16  1  0
 18 13  1  0
  2 19  1  0
  3 20  1  0
  4 21  1  0
  5 22  1  0
  7 23  1  0
  8 24  1  0
 11 25  1  0
 14 26  1  0
 15 27  1  0
 16 28  1  0
 17 29  1  0
 18 30  1  0
M  ISO  8  19  14  20  14  21  14  22  14  23  14  24  14  25  14  26  14
M  ISO  4  27  14  28  14  29  14  30  14
M  END
>  <minimizedAffinity>  (1) 
-5.76656246

>  <minimizedRMSD>  (1) 
0.480046272

$$$$
