
     RDKit          3D

 33 35  0  0  0  0  0  0  0  0999 V2000
   44.6310   35.8620   44.5060 C   0  0  0  0  0  0  0  0  0  0  0  0
   45.1570   35.8280   43.2260 C   0  0  0  0  0  0  0  0  0  0  0  0
   46.0220   34.7900   42.9060 C   0  0  0  0  0  0  0  0  0  0  0  0
   46.3310   33.8410   43.8340 N   0  0  0  0  0  0  0  0  0  0  0  0
   45.7840   33.9240   45.0800 C   0  0  0  0  0  0  0  0  0  0  0  0
   44.9440   34.9190   45.4170 N   0  0  0  0  0  0  0  0  0  0  0  0
   46.1090   32.9150   46.0800 C   0  0  0  0  0  0  0  0  0  0  0  0
   46.9190   31.8370   45.7130 C   0  0  0  0  0  0  0  0  0  0  0  0
   47.2840   30.8330   46.5760 C   0  0  0  0  0  0  0  0  0  0  0  0
   46.8510   30.8790   47.8290 N   0  0  0  0  0  0  0  0  0  0  0  0
   46.0600   31.9280   48.1970 C   0  0  0  0  0  0  0  0  0  0  0  0
   45.6920   32.9250   47.3520 N   0  0  0  0  0  0  0  0  0  0  0  0
   45.5080   32.1360   49.5020 N   0  0  0  0  0  0  0  0  0  0  0  0
   46.6700   34.5680   41.6550 N   0  0  0  0  0  0  0  0  0  0  0  0
   46.0530   33.8730   40.7110 C   0  0  0  0  0  0  0  0  0  0  0  0
   46.6690   33.6430   39.4780 C   0  0  0  0  0  0  0  0  0  0  0  0
   45.9900   32.8670   38.4100 C   0  0  0  0  0  0  0  0  0  0  0  0
   47.9380   34.1800   39.3190 C   0  0  0  0  0  0  0  0  0  0  0  0
   48.5470   34.0030   38.2210 O   0  0  0  0  0  0  0  0  0  0  0  0
   48.5420   34.8890   40.3140 N   0  0  0  0  0  0  0  0  0  0  0  0
   47.9030   35.0880   41.4980 C   0  0  0  0  0  0  0  0  0  0  0  0
   48.5370   35.7530   42.3570 O   0  0  0  0  0  0  0  0  0  0  0  0
   43.9441   36.6745   44.7852 H   0  0  0  0  0  0  0  0  0  0  0  0
   44.8979   36.5991   42.4856 H   0  0  0  0  0  0  0  0  0  0  0  0
   47.2841   31.7901   44.6764 H   0  0  0  0  0  0  0  0  0  0  0  0
   47.9237   30.0059   46.2345 H   0  0  0  0  0  0  0  0  0  0  0  0
   44.9195   32.9609   49.6868 H   0  0  0  0  0  0  0  0  0  0  0  0
   45.6995   31.4607   50.2558 H   0  0  0  0  0  0  0  0  0  0  0  0
   45.0458   33.4730   40.8996 H   0  0  0  0  0  0  0  0  0  0  0  0
   45.3310   32.1138   38.8666 H   0  0  0  0  0  0  0  0  0  0  0  0
   45.3920   33.5475   37.7860 H   0  0  0  0  0  0  0  0  0  0  0  0
   46.7439   32.3647   37.7860 H   0  0  0  0  0  0  0  0  0  0  0  0
   49.4856   35.2754   40.1688 H   0  0  0  0  0  0  0  0  0  0  0  0
  1  6  2  0
  2  1  1  0
  3  2  2  0
  3  4  1  0
  4  5  2  0
  5  6  1  0
  5  7  1  0
  7 12  1  0
  8  7  2  0
  8  9  1  0
  9 10  2  0
 10 11  1  0
 11 13  1  0
 12 11  2  0
 14  3  1  0
 15 14  1  0
 16 15  2  0
 17 16  1  0
 18 16  1  0
 18 20  1  0
 19 18  2  0
 20 21  1  0
 21 14  1  0
 21 22  2  0
  1 23  1  0
  2 24  1  0
  8 25  1  0
  9 26  1  0
 13 27  1  0
 13 28  1  0
 15 29  1  0
 17 30  1  0
 17 31  1  0
 17 32  1  0
 20 33  1  0
M  ISO  8  23  14  24  14  25  14  26  14  29  14  30   8  31   8  32   8
M  ISO  1  33   9
M  END
>  <minimizedAffinity>  (1) 
-6.71149254

>  <minimizedRMSD>  (1) 
1.11846125

$$$$
