
     RDKit          3D

 36 38  0  0  0  0  0  0  0  0999 V2000
   44.4970   35.7040   44.9660 C   0  0  0  0  0  0  0  0  0  0  0  0
   45.0620   35.7140   43.7020 C   0  0  0  0  0  0  0  0  0  0  0  0
   45.9870   34.7250   43.3950 C   0  0  0  0  0  0  0  0  0  0  0  0
   46.3120   33.7830   44.3270 N   0  0  0  0  0  0  0  0  0  0  0  0
   45.7240   33.8230   45.5510 C   0  0  0  0  0  0  0  0  0  0  0  0
   44.8250   34.7680   45.8800 N   0  0  0  0  0  0  0  0  0  0  0  0
   46.0750   32.8140   46.5450 C   0  0  0  0  0  0  0  0  0  0  0  0
   47.0360   31.8680   46.2510 C   0  0  0  0  0  0  0  0  0  0  0  0
   47.4240   30.8830   47.1310 C   0  0  0  0  0  0  0  0  0  0  0  0
   46.8610   30.8160   48.3320 N   0  0  0  0  0  0  0  0  0  0  0  0
   45.9120   31.7450   48.6320 C   0  0  0  0  0  0  0  0  0  0  0  0
   45.5310   32.7140   47.7640 N   0  0  0  0  0  0  0  0  0  0  0  0
   45.1960   31.8360   49.8720 N   0  0  0  0  0  0  0  0  0  0  0  0
   46.6220   34.6830   42.0680 C   0  0  0  0  0  0  0  0  0  0  0  0
   47.8870   35.5180   42.0880 C   0  0  0  0  0  0  0  0  0  0  0  0
   48.8020   35.2130   40.9270 C   0  0  0  0  0  0  0  0  0  0  0  0
   48.0800   34.6050   39.7470 C   0  0  0  0  0  0  0  0  0  0  0  0
   47.3070   33.3660   40.1300 C   0  0  0  0  0  0  0  0  0  0  0  0
   47.0270   33.3070   41.6160 C   0  0  0  0  0  0  0  0  0  0  0  0
   43.7624   36.4786   45.2313 H   0  0  0  0  0  0  0  0  0  0  0  0
   44.7866   36.4817   42.9639 H   0  0  0  0  0  0  0  0  0  0  0  0
   47.5168   31.9029   45.2623 H   0  0  0  0  0  0  0  0  0  0  0  0
   48.1962   30.1553   46.8410 H   0  0  0  0  0  0  0  0  0  0  0  0
   44.4929   32.5764   50.0076 H   0  0  0  0  0  0  0  0  0  0  0  0
   45.3851   31.1609   50.6266 H   0  0  0  0  0  0  0  0  0  0  0  0
   45.8600   35.0633   41.3718 H   0  0  0  0  0  0  0  0  0  0  0  0
   47.6080   36.5812   42.0469 H   0  0  0  0  0  0  0  0  0  0  0  0
   48.4309   35.2768   43.0132 H   0  0  0  0  0  0  0  0  0  0  0  0
   49.2784   36.1495   40.6013 H   0  0  0  0  0  0  0  0  0  0  0  0
   49.5396   34.4753   41.2758 H   0  0  0  0  0  0  0  0  0  0  0  0
   48.8198   34.3378   38.9780 H   0  0  0  0  0  0  0  0  0  0  0  0
   47.3623   35.3484   39.3698 H   0  0  0  0  0  0  0  0  0  0  0  0
   46.3497   33.3635   39.5882 H   0  0  0  0  0  0  0  0  0  0  0  0
   47.9175   32.4902   39.8651 H   0  0  0  0  0  0  0  0  0  0  0  0
   46.2129   32.5943   41.8144 H   0  0  0  0  0  0  0  0  0  0  0  0
   47.9230   32.9744   42.1606 H   0  0  0  0  0  0  0  0  0  0  0  0
  1  6  2  0
  2  1  1  0
  3  2  2  0
  3  4  1  0
  4  5  2  0
  5  6  1  0
  5  7  1  0
  7 12  1  0
  8  7  2  0
  8  9  1  0
  9 10  2  0
 10 11  1  0
 11 13  1  0
 12 11  2  0
 14 15  1  0
 14  3  1  0
 16 15  1  0
 17 18  1  0
 17 16  1  0
 18 19  1  0
 19 14  1  0
  1 20  1  0
  2 21  1  0
  8 22  1  0
  9 23  1  0
 13 24  1  0
 13 25  1  0
 14 26  1  0
 15 27  1  0
 15 28  1  0
 16 29  1  0
 16 30  1  0
 17 31  1  0
 17 32  1  0
 18 33  1  0
 18 34  1  0
 19 35  1  0
 19 36  1  0
M  ISO  8  20  14  21  14  22  14  23  14  26  13  27  13  28  13  29  13
M  ISO  7  30  13  31  13  32  13  33  13  34  13  35  13  36  13
M  END
>  <minimizedAffinity>  (1) 
-6.67644119

>  <minimizedRMSD>  (1) 
0.624759436

$$$$
