
     RDKit          3D

 28 30  0  0  0  0  0  0  0  0999 V2000
   44.4830   35.7160   44.9860 C   0  0  0  0  0  0  0  0  0  0  0  0
   45.0920   35.7320   43.7270 C   0  0  0  0  0  0  0  0  0  0  0  0
   46.0350   34.7630   43.4120 C   0  0  0  0  0  0  0  0  0  0  0  0
   46.3260   33.8330   44.3540 N   0  0  0  0  0  0  0  0  0  0  0  0
   45.7260   33.8350   45.5670 C   0  0  0  0  0  0  0  0  0  0  0  0
   44.8080   34.7680   45.8900 N   0  0  0  0  0  0  0  0  0  0  0  0
   46.0830   32.8030   46.5410 C   0  0  0  0  0  0  0  0  0  0  0  0
   47.0320   31.8400   46.2210 C   0  0  0  0  0  0  0  0  0  0  0  0
   47.4100   30.8450   47.0940 C   0  0  0  0  0  0  0  0  0  0  0  0
   46.8450   30.7940   48.3100 N   0  0  0  0  0  0  0  0  0  0  0  0
   45.9180   31.7340   48.6200 C   0  0  0  0  0  0  0  0  0  0  0  0
   45.5350   32.7210   47.7730 N   0  0  0  0  0  0  0  0  0  0  0  0
   45.2080   31.8430   49.8620 N   0  0  0  0  0  0  0  0  0  0  0  0
   46.7350   34.6720   42.1460 C   0  0  0  0  0  0  0  0  0  0  0  0
   47.9390   35.3000   41.9060 C   0  0  0  0  0  0  0  0  0  0  0  0
   48.6140   35.2200   40.7070 C   0  0  0  0  0  0  0  0  0  0  0  0
   48.0960   34.4960   39.6860 N   0  0  0  0  0  0  0  0  0  0  0  0
   46.9180   33.8860   39.9320 C   0  0  0  0  0  0  0  0  0  0  0  0
   46.2560   33.9600   41.1000 N   0  0  0  0  0  0  0  0  0  0  0  0
   43.7346   36.4808   45.2409 H   0  0  0  0  0  0  0  0  0  0  0  0
   44.8259   36.5062   42.9923 H   0  0  0  0  0  0  0  0  0  0  0  0
   47.5017   31.8741   45.2269 H   0  0  0  0  0  0  0  0  0  0  0  0
   48.1651   30.1017   46.7987 H   0  0  0  0  0  0  0  0  0  0  0  0
   44.5203   32.5977   49.9976 H   0  0  0  0  0  0  0  0  0  0  0  0
   45.3860   31.1665   50.6180 H   0  0  0  0  0  0  0  0  0  0  0  0
   48.3848   35.8971   42.7152 H   0  0  0  0  0  0  0  0  0  0  0  0
   49.5728   35.7438   40.5792 H   0  0  0  0  0  0  0  0  0  0  0  0
   46.4698   33.2890   39.1241 H   0  0  0  0  0  0  0  0  0  0  0  0
  1  6  2  0
  2  1  1  0
  3  2  2  0
  3  4  1  0
  4  5  2  0
  5  6  1  0
  5  7  1  0
  7 12  1  0
  8  7  2  0
  8  9  1  0
  9 10  2  0
 10 11  1  0
 11 13  1  0
 12 11  2  0
 14  3  1  0
 15 14  2  0
 16 15  1  0
 17 18  1  0
 17 16  2  0
 18 19  2  0
 19 14  1  0
  1 20  1  0
  2 21  1  0
  8 22  1  0
  9 23  1  0
 13 24  1  0
 13 25  1  0
 15 26  1  0
 16 27  1  0
 18 28  1  0
M  ISO  7  20  14  21  14  22  14  23  14  26  14  27  14  28  14
M  END
>  <minimizedAffinity>  (1) 
-6.46848154

>  <minimizedRMSD>  (1) 
0.337210059

$$$$
