
     RDKit          3D

 28 30  0  0  0  0  0  0  0  0999 V2000
   44.4910   35.6980   44.9760 C   0  0  0  0  0  0  0  0  0  0  0  0
   45.1020   35.7080   43.7330 C   0  0  0  0  0  0  0  0  0  0  0  0
   46.0480   34.7390   43.4340 C   0  0  0  0  0  0  0  0  0  0  0  0
   46.3530   33.8030   44.3660 N   0  0  0  0  0  0  0  0  0  0  0  0
   45.7240   33.8310   45.5800 C   0  0  0  0  0  0  0  0  0  0  0  0
   44.8110   34.7530   45.8930 N   0  0  0  0  0  0  0  0  0  0  0  0
   46.0930   32.7910   46.5550 C   0  0  0  0  0  0  0  0  0  0  0  0
   47.0440   31.8330   46.2430 C   0  0  0  0  0  0  0  0  0  0  0  0
   47.4130   30.8520   47.1200 C   0  0  0  0  0  0  0  0  0  0  0  0
   46.8500   30.7910   48.3360 N   0  0  0  0  0  0  0  0  0  0  0  0
   45.9200   31.7290   48.6400 C   0  0  0  0  0  0  0  0  0  0  0  0
   45.5350   32.7140   47.7870 N   0  0  0  0  0  0  0  0  0  0  0  0
   45.1990   31.8510   49.8660 N   0  0  0  0  0  0  0  0  0  0  0  0
   46.7430   34.6630   42.1650 C   0  0  0  0  0  0  0  0  0  0  0  0
   47.9280   35.2920   41.9220 C   0  0  0  0  0  0  0  0  0  0  0  0
   48.6330   35.2480   40.7180 C   0  0  0  0  0  0  0  0  0  0  0  0
   48.0750   34.5090   39.7150 N   0  0  0  0  0  0  0  0  0  0  0  0
   46.9040   33.8800   39.9340 C   0  0  0  0  0  0  0  0  0  0  0  0
   46.2690   33.9580   41.1140 N   0  0  0  0  0  0  0  0  0  0  0  0
   43.7399   36.4634   45.2208 H   0  0  0  0  0  0  0  0  0  0  0  0
   44.8397   36.4764   42.9909 H   0  0  0  0  0  0  0  0  0  0  0  0
   47.5201   31.8631   45.2518 H   0  0  0  0  0  0  0  0  0  0  0  0
   48.1725   30.1116   46.8284 H   0  0  0  0  0  0  0  0  0  0  0  0
   44.5115   32.6085   49.9859 H   0  0  0  0  0  0  0  0  0  0  0  0
   45.3663   31.1815   50.6307 H   0  0  0  0  0  0  0  0  0  0  0  0
   48.3640   35.8822   42.7415 H   0  0  0  0  0  0  0  0  0  0  0  0
   49.5865   35.7800   40.5847 H   0  0  0  0  0  0  0  0  0  0  0  0
   46.4560   33.2862   39.1236 H   0  0  0  0  0  0  0  0  0  0  0  0
  1  6  2  0
  2  1  1  0
  3  2  2  0
  3  4  1  0
  4  5  2  0
  5  6  1  0
  5  7  1  0
  7 12  1  0
  8  7  2  0
  8  9  1  0
  9 10  2  0
 10 11  1  0
 11 13  1  0
 12 11  2  0
 14  3  1  0
 15 14  2  0
 16 15  1  0
 17 18  1  0
 17 16  2  0
 18 19  2  0
 19 14  1  0
  1 20  1  0
  2 21  1  0
  8 22  1  0
  9 23  1  0
 13 24  1  0
 13 25  1  0
 15 26  1  0
 16 27  1  0
 18 28  1  0
M  ISO  7  20  14  21  14  22  14  23  14  26  14  27  14  28  14
M  END
>  <minimizedAffinity>  (1) 
-6.45473528

>  <minimizedRMSD>  (1) 
0.503246427

$$$$
