
     RDKit          3D

 27 29  0  0  0  0  0  0  0  0999 V2000
   44.5720   35.6560   44.8150 C   0  0  0  0  0  0  0  0  0  0  0  0
   45.2530   35.6800   43.5910 C   0  0  0  0  0  0  0  0  0  0  0  0
   46.2330   34.7300   43.3370 C   0  0  0  0  0  0  0  0  0  0  0  0
   46.4920   33.8080   44.2970 N   0  0  0  0  0  0  0  0  0  0  0  0
   45.8150   33.8090   45.4760 C   0  0  0  0  0  0  0  0  0  0  0  0
   44.8670   34.7140   45.7430 N   0  0  0  0  0  0  0  0  0  0  0  0
   46.1380   32.7860   46.4780 C   0  0  0  0  0  0  0  0  0  0  0  0
   47.0530   31.7830   46.1760 C   0  0  0  0  0  0  0  0  0  0  0  0
   47.4010   30.7950   47.0690 C   0  0  0  0  0  0  0  0  0  0  0  0
   46.8370   30.7890   48.2900 N   0  0  0  0  0  0  0  0  0  0  0  0
   45.9460   31.7700   48.5750 C   0  0  0  0  0  0  0  0  0  0  0  0
   45.6000   32.7460   47.7010 N   0  0  0  0  0  0  0  0  0  0  0  0
   45.2670   31.8990   49.8220 N   0  0  0  0  0  0  0  0  0  0  0  0
   46.9710   34.7130   42.0770 C   0  0  0  0  0  0  0  0  0  0  0  0
   48.1740   35.3490   41.8760 C   0  0  0  0  0  0  0  0  0  0  0  0
   48.4750   35.0520   40.5530 C   0  0  0  0  0  0  0  0  0  0  0  0
   47.4700   34.2670   40.0170 C   0  0  0  0  0  0  0  0  0  0  0  0
   46.5990   34.1060   40.9930 O   0  0  0  0  0  0  0  0  0  0  0  0
   43.7942   36.4054   45.0236 H   0  0  0  0  0  0  0  0  0  0  0  0
   45.0133   36.4449   42.8377 H   0  0  0  0  0  0  0  0  0  0  0  0
   47.5191   31.7791   45.1796 H   0  0  0  0  0  0  0  0  0  0  0  0
   48.1303   30.0210   46.7879 H   0  0  0  0  0  0  0  0  0  0  0  0
   44.6016   32.6714   49.9686 H   0  0  0  0  0  0  0  0  0  0  0  0
   45.4419   31.2198   50.5763 H   0  0  0  0  0  0  0  0  0  0  0  0
   48.7571   35.9483   42.5907 H   0  0  0  0  0  0  0  0  0  0  0  0
   49.3733   35.3888   40.0149 H   0  0  0  0  0  0  0  0  0  0  0  0
   47.4105   33.8637   38.9953 H   0  0  0  0  0  0  0  0  0  0  0  0
  1  6  2  0
  2  1  1  0
  3  2  2  0
  3  4  1  0
  4  5  2  0
  5  6  1  0
  5  7  1  0
  7 12  1  0
  8  7  2  0
  8  9  1  0
  9 10  2  0
 10 11  1  0
 11 13  1  0
 12 11  2  0
 14  3  1  0
 15 14  2  0
 16 15  1  0
 17 16  2  0
 17 18  1  0
 18 14  1  0
  1 19  1  0
  2 20  1  0
  8 21  1  0
  9 22  1  0
 13 23  1  0
 13 24  1  0
 15 25  1  0
 16 26  1  0
 17 27  1  0
M  ISO  7  19  14  20  14  21  14  22  14  25  14  26  14  27  14
M  END
>  <minimizedAffinity>  (1) 
-6.41917706

>  <minimizedRMSD>  (1) 
0.6109429

$$$$
