
     RDKit          3D

 26 28  0  0  0  0  0  0  0  0999 V2000
   44.5840   35.5940   44.8180 C   0  0  0  0  0  0  0  0  0  0  0  0
   45.2830   35.6280   43.6230 C   0  0  0  0  0  0  0  0  0  0  0  0
   46.2810   34.6860   43.3860 C   0  0  0  0  0  0  0  0  0  0  0  0
   46.5260   33.7670   44.3490 N   0  0  0  0  0  0  0  0  0  0  0  0
   45.8320   33.7500   45.5110 C   0  0  0  0  0  0  0  0  0  0  0  0
   44.8750   34.6530   45.7390 N   0  0  0  0  0  0  0  0  0  0  0  0
   46.1470   32.7300   46.5070 C   0  0  0  0  0  0  0  0  0  0  0  0
   47.0430   31.7180   46.2220 C   0  0  0  0  0  0  0  0  0  0  0  0
   47.3710   30.7400   47.1200 C   0  0  0  0  0  0  0  0  0  0  0  0
   46.8210   30.7350   48.3300 N   0  0  0  0  0  0  0  0  0  0  0  0
   45.9350   31.7310   48.6200 C   0  0  0  0  0  0  0  0  0  0  0  0
   45.5890   32.7200   47.7420 N   0  0  0  0  0  0  0  0  0  0  0  0
   45.2330   31.9050   49.8670 N   0  0  0  0  0  0  0  0  0  0  0  0
   47.0480   34.6950   42.1150 C   0  0  0  0  0  0  0  0  0  0  0  0
   46.6400   33.8980   41.0360 C   0  0  0  0  0  0  0  0  0  0  0  0
   47.9290   34.2980   39.7560 S   0  0  0  0  0  0  0  0  0  0  0  0
   48.7880   35.4930   40.9570 C   0  0  0  0  0  0  0  0  0  0  0  0
   48.1470   35.4460   41.9300 N   0  0  0  0  0  0  0  0  0  0  0  0
   43.7933   36.3328   45.0154 H   0  0  0  0  0  0  0  0  0  0  0  0
   45.0518   36.3929   42.8670 H   0  0  0  0  0  0  0  0  0  0  0  0
   47.5139   31.6978   45.2281 H   0  0  0  0  0  0  0  0  0  0  0  0
   48.0908   29.9566   46.8405 H   0  0  0  0  0  0  0  0  0  0  0  0
   44.5818   32.6942   49.9857 H   0  0  0  0  0  0  0  0  0  0  0  0
   45.3826   31.2402   50.6393 H   0  0  0  0  0  0  0  0  0  0  0  0
   45.7813   33.2142   40.9649 H   0  0  0  0  0  0  0  0  0  0  0  0
   49.6900   36.0957   40.7750 H   0  0  0  0  0  0  0  0  0  0  0  0
  1  6  2  0
  2  1  1  0
  3  2  2  0
  3  4  1  0
  4  5  2  0
  5  6  1  0
  5  7  1  0
  7 12  1  0
  8  7  2  0
  8  9  1  0
  9 10  2  0
 10 11  1  0
 11 13  1  0
 12 11  2  0
 14  3  1  0
 15 14  2  0
 16 17  1  0
 16 15  1  0
 17 18  2  0
 18 14  1  0
  1 19  1  0
  2 20  1  0
  8 21  1  0
  9 22  1  0
 13 23  1  0
 13 24  1  0
 15 25  1  0
 17 26  1  0
M  ISO  6  19  14  20  14  21  14  22  14  25  14  26  14
M  END
>  <minimizedAffinity>  (1) 
-6.08649969

>  <minimizedRMSD>  (1) 
0.610518634

$$$$
