
     RDKit          3D

 23 24  0  0  0  0  0  0  0  0999 V2000
   44.5220   35.7230   44.8850 C   0  0  0  0  0  0  0  0  0  0  0  0
   45.1370   35.7720   43.6460 C   0  0  0  0  0  0  0  0  0  0  0  0
   46.0940   34.8120   43.3460 C   0  0  0  0  0  0  0  0  0  0  0  0
   46.4030   33.8510   44.2670 N   0  0  0  0  0  0  0  0  0  0  0  0
   45.7700   33.8500   45.4670 C   0  0  0  0  0  0  0  0  0  0  0  0
   44.8320   34.7730   45.7910 N   0  0  0  0  0  0  0  0  0  0  0  0
   46.0950   32.8240   46.4590 C   0  0  0  0  0  0  0  0  0  0  0  0
   47.0180   31.8360   46.1200 C   0  0  0  0  0  0  0  0  0  0  0  0
   47.3970   30.8260   46.9720 C   0  0  0  0  0  0  0  0  0  0  0  0
   46.8610   30.7820   48.1900 N   0  0  0  0  0  0  0  0  0  0  0  0
   45.9610   31.7450   48.5230 C   0  0  0  0  0  0  0  0  0  0  0  0
   45.5780   32.7450   47.6920 N   0  0  0  0  0  0  0  0  0  0  0  0
   45.2790   31.8620   49.7860 N   0  0  0  0  0  0  0  0  0  0  0  0
   46.8440   34.7300   42.0540 C   0  0  0  0  0  0  0  0  0  0  0  0
   47.7520   35.7490   41.9300 F   0  0  0  0  0  0  0  0  0  0  0  0
   45.9280   34.7330   41.0190 F   0  0  0  0  0  0  0  0  0  0  0  0
   47.5370   33.5470   42.0690 F   0  0  0  0  0  0  0  0  0  0  0  0
   43.7619   36.4772   45.1370 H   0  0  0  0  0  0  0  0  0  0  0  0
   44.8739   36.5525   42.9169 H   0  0  0  0  0  0  0  0  0  0  0  0
   47.4674   31.8662   45.1164 H   0  0  0  0  0  0  0  0  0  0  0  0
   48.1288   30.0689   46.6537 H   0  0  0  0  0  0  0  0  0  0  0  0
   44.6118   32.6311   49.9417 H   0  0  0  0  0  0  0  0  0  0  0  0
   45.4584   31.1766   50.5336 H   0  0  0  0  0  0  0  0  0  0  0  0
  1  6  2  0
  2  1  1  0
  3  2  2  0
  3  4  1  0
  4  5  2  0
  5  6  1  0
  5  7  1  0
  7 12  1  0
  8  7  2  0
  8  9  1  0
  9 10  2  0
 10 11  1  0
 11 13  1  0
 12 11  2  0
 14 17  1  0
 14  3  1  0
 15 14  1  0
 16 14  1  0
  1 18  1  0
  2 19  1  0
  8 20  1  0
  9 21  1  0
 13 22  1  0
 13 23  1  0
M  ISO  4  18  14  19  14  20  14  21  14
M  END
>  <minimizedAffinity>  (1) 
-5.88435745

>  <minimizedRMSD>  (1) 
0.55084163

$$$$
