
     RDKit          3D

 23 24  0  0  0  0  0  0  0  0999 V2000
   46.0050   32.8470   46.4200 C   0  0  0  0  0  0  0  0  0  0  0  0
   47.0380   31.9630   46.1800 C   0  0  0  0  0  0  0  0  0  0  0  0
   47.3850   30.9620   47.0380 C   0  0  0  0  0  0  0  0  0  0  0  0
   46.7060   30.8140   48.1690 N   0  0  0  0  0  0  0  0  0  0  0  0
   45.6890   31.6750   48.4200 C   0  0  0  0  0  0  0  0  0  0  0  0
   45.3360   32.6730   47.5730 N   0  0  0  0  0  0  0  0  0  0  0  0
   44.8670   31.6480   49.5850 N   0  0  0  0  0  0  0  0  0  0  0  0
   44.5080   35.8100   44.8810 C   0  0  0  0  0  0  0  0  0  0  0  0
   45.1390   35.8340   43.6280 C   0  0  0  0  0  0  0  0  0  0  0  0
   46.0760   34.8290   43.3200 C   0  0  0  0  0  0  0  0  0  0  0  0
   46.3490   33.8670   44.2340 N   0  0  0  0  0  0  0  0  0  0  0  0
   45.7010   33.8920   45.4450 C   0  0  0  0  0  0  0  0  0  0  0  0
   44.7980   34.8380   45.7740 N   0  0  0  0  0  0  0  0  0  0  0  0
   46.7390   34.8650   41.9890 C   0  0  0  0  0  0  0  0  0  0  0  0
   47.6112   32.0721   45.2475 H   0  0  0  0  0  0  0  0  0  0  0  0
   48.2176   30.2851   46.7960 H   0  0  0  0  0  0  0  0  0  0  0  0
   44.1129   32.3403   49.6994 H   0  0  0  0  0  0  0  0  0  0  0  0
   45.0273   30.9362   50.3120 H   0  0  0  0  0  0  0  0  0  0  0  0
   43.7729   36.5869   45.1380 H   0  0  0  0  0  0  0  0  0  0  0  0
   44.9058   36.6241   42.8990 H   0  0  0  0  0  0  0  0  0  0  0  0
   47.8291   34.9242   42.1238 H   0  0  0  0  0  0  0  0  0  0  0  0
   46.4878   33.9519   41.4294 H   0  0  0  0  0  0  0  0  0  0  0  0
   46.3904   35.7455   41.4294 H   0  0  0  0  0  0  0  0  0  0  0  0
  1  6  1  0
  2  1  2  0
  2  3  1  0
  3  4  2  0
  4  5  1  0
  5  7  1  0
  6  5  2  0
  8 13  2  0
  9  8  1  0
 10  9  2  0
 10 11  1  0
 11 12  2  0
 12 13  1  0
 12  1  1  0
 14 10  1  0
  2 15  1  0
  3 16  1  0
  7 17  1  0
  7 18  1  0
  8 19  1  0
  9 20  1  0
 14 21  1  0
 14 22  1  0
 14 23  1  0
M  ISO  7  15  14  16  14  19  14  20  14  21   8  22   8  23   8
M  END
>  <minimizedAffinity>  (1) 
-5.18695164

>  <minimizedRMSD>  (1) 
0.0523938723

$$$$
