
     RDKit          3D

 21 22  0  0  0  0  0  0  0  0999 V2000
   45.9580   32.9330   46.3220 C   0  0  0  0  0  0  0  0  0  0  0  0
   46.9790   32.0360   46.0080 C   0  0  0  0  0  0  0  0  0  0  0  0
   47.3370   31.0050   46.8480 C   0  0  0  0  0  0  0  0  0  0  0  0
   46.6940   30.8420   48.0100 N   0  0  0  0  0  0  0  0  0  0  0  0
   45.6990   31.7230   48.3080 C   0  0  0  0  0  0  0  0  0  0  0  0
   45.3290   32.7490   47.4920 N   0  0  0  0  0  0  0  0  0  0  0  0
   44.9040   31.7080   49.4960 N   0  0  0  0  0  0  0  0  0  0  0  0
   44.4540   35.9370   44.8670 C   0  0  0  0  0  0  0  0  0  0  0  0
   45.0430   35.9870   43.6150 C   0  0  0  0  0  0  0  0  0  0  0  0
   45.9540   34.9930   43.2680 C   0  0  0  0  0  0  0  0  0  0  0  0
   46.2410   34.0090   44.1580 N   0  0  0  0  0  0  0  0  0  0  0  0
   45.6340   34.0010   45.3840 C   0  0  0  0  0  0  0  0  0  0  0  0
   44.7550   34.9500   45.7340 N   0  0  0  0  0  0  0  0  0  0  0  0
   46.6520   34.8570   42.0730 O   0  0  0  0  0  0  0  0  0  0  0  0
   47.5171   32.1563   45.0561 H   0  0  0  0  0  0  0  0  0  0  0  0
   48.1483   30.3183   46.5648 H   0  0  0  0  0  0  0  0  0  0  0  0
   44.1711   32.4184   49.6342 H   0  0  0  0  0  0  0  0  0  0  0  0
   45.0641   30.9868   50.2137 H   0  0  0  0  0  0  0  0  0  0  0  0
   43.7308   36.7131   45.1579 H   0  0  0  0  0  0  0  0  0  0  0  0
   44.7966   36.7945   42.9098 H   0  0  0  0  0  0  0  0  0  0  0  0
   47.2767   34.0992   41.9481 H   0  0  0  0  0  0  0  0  0  0  0  0
  1  6  1  0
  2  1  2  0
  2  3  1  0
  3  4  2  0
  4  5  1  0
  5  7  1  0
  6  5  2  0
  8 13  2  0
  9  8  1  0
 10  9  2  0
 10 11  1  0
 11 12  2  0
 12 13  1  0
 12  1  1  0
 14 10  1  0
  2 15  1  0
  3 16  1  0
  7 17  1  0
  7 18  1  0
  8 19  1  0
  9 20  1  0
 14 21  1  0
M  ISO  5  15  14  16  14  19  14  20  14  21   3
M  END
>  <minimizedAffinity>  (1) 
-5.06281662

>  <minimizedRMSD>  (1) 
0.119545512

$$$$
