
     RDKit          3D

 28 30  0  0  0  0  0  0  0  0999 V2000
   44.5080   35.5340   45.2040 C   0  0  0  0  0  0  0  0  0  0  0  0
   45.0310   35.4420   43.9270 C   0  0  0  0  0  0  0  0  0  0  0  0
   45.9170   34.4130   43.6300 C   0  0  0  0  0  0  0  0  0  0  0  0
   46.2340   33.5320   44.6160 N   0  0  0  0  0  0  0  0  0  0  0  0
   45.7040   33.6500   45.8610 C   0  0  0  0  0  0  0  0  0  0  0  0
   44.8580   34.6320   46.1420 N   0  0  0  0  0  0  0  0  0  0  0  0
   46.1010   32.6580   46.8660 C   0  0  0  0  0  0  0  0  0  0  0  0
   47.1250   31.7750   46.6350 C   0  0  0  0  0  0  0  0  0  0  0  0
   47.5130   30.8440   47.5540 C   0  0  0  0  0  0  0  0  0  0  0  0
   46.9010   30.7560   48.7310 N   0  0  0  0  0  0  0  0  0  0  0  0
   45.8740   31.6380   48.9690 C   0  0  0  0  0  0  0  0  0  0  0  0
   45.4700   32.5720   48.0700 N   0  0  0  0  0  0  0  0  0  0  0  0
   45.0830   31.7200   50.1610 N   0  0  0  0  0  0  0  0  0  0  0  0
   46.5000   34.2810   42.2690 C   0  0  0  0  0  0  0  0  0  0  0  0
   46.0050   33.3320   41.3790 C   0  0  0  0  0  0  0  0  0  0  0  0
   47.0780   33.6120   39.8780 S   0  0  0  0  0  0  0  0  0  0  0  0
   48.0150   35.0010   40.7720 C   0  0  0  0  0  0  0  0  0  0  0  0
   47.4970   35.0280   41.8100 N   0  0  0  0  0  0  0  0  0  0  0  0
   49.0970   35.8060   40.2660 N   0  0  0  0  0  0  0  0  0  0  0  0
   43.8063   36.3434   45.4540 H   0  0  0  0  0  0  0  0  0  0  0  0
   44.7493   36.1741   43.1559 H   0  0  0  0  0  0  0  0  0  0  0  0
   47.6539   31.8192   45.6715 H   0  0  0  0  0  0  0  0  0  0  0  0
   48.3409   30.1590   47.3186 H   0  0  0  0  0  0  0  0  0  0  0  0
   44.3337   32.4229   50.2345 H   0  0  0  0  0  0  0  0  0  0  0  0
   45.2638   31.0761   50.9443 H   0  0  0  0  0  0  0  0  0  0  0  0
   45.1919   32.6053   41.5231 H   0  0  0  0  0  0  0  0  0  0  0  0
   49.5202   36.5326   40.8609 H   0  0  0  0  0  0  0  0  0  0  0  0
   49.4475   35.6550   39.3093 H   0  0  0  0  0  0  0  0  0  0  0  0
  1  6  2  0
  2  1  1  0
  3  2  2  0
  3  4  1  0
  4  5  2  0
  5  6  1  0
  5  7  1  0
  7 12  1  0
  8  7  2  0
  8  9  1  0
  9 10  2  0
 10 11  1  0
 11 13  1  0
 12 11  2  0
 14  3  1  0
 15 14  2  0
 16 17  1  0
 16 15  1  0
 17 18  2  0
 18 14  1  0
 19 17  1  0
  1 20  1  0
  2 21  1  0
  8 22  1  0
  9 23  1  0
 13 24  1  0
 13 25  1  0
 15 26  1  0
 19 27  1  0
 19 28  1  0
M  ISO  5  20  14  21  14  22  14  23  14  26  14
M  END
>  <minimizedAffinity>  (1) 
-6.20573187

>  <minimizedRMSD>  (1) 
0.634067059

$$$$
