
     RDKit          3D

 32 34  0  0  0  0  0  0  0  0999 V2000
   44.5040   35.6690   44.9370 C   0  0  0  0  0  0  0  0  0  0  0  0
   44.7880   35.4180   43.6020 C   0  0  0  0  0  0  0  0  0  0  0  0
   45.4880   34.2730   43.2650 C   0  0  0  0  0  0  0  0  0  0  0  0
   45.8690   33.4400   44.2620 N   0  0  0  0  0  0  0  0  0  0  0  0
   45.5850   33.7010   45.5550 C   0  0  0  0  0  0  0  0  0  0  0  0
   44.9140   34.7970   45.8800 N   0  0  0  0  0  0  0  0  0  0  0  0
   46.0300   32.7570   46.5780 C   0  0  0  0  0  0  0  0  0  0  0  0
   47.0640   31.8760   46.3340 C   0  0  0  0  0  0  0  0  0  0  0  0
   47.5190   30.9740   47.2540 C   0  0  0  0  0  0  0  0  0  0  0  0
   46.9560   30.9160   48.4580 N   0  0  0  0  0  0  0  0  0  0  0  0
   45.9330   31.7780   48.7150 C   0  0  0  0  0  0  0  0  0  0  0  0
   45.4640   32.6920   47.8020 N   0  0  0  0  0  0  0  0  0  0  0  0
   45.1850   31.8920   49.9360 N   0  0  0  0  0  0  0  0  0  0  0  0
   45.8130   33.9640   41.8410 C   0  0  0  0  0  0  0  0  0  0  0  0
   44.9580   33.1870   41.0640 C   0  0  0  0  0  0  0  0  0  0  0  0
   45.8570   33.1440   39.4350 S   0  0  0  0  0  0  0  0  0  0  0  0
   47.2510   34.2150   40.1340 C   0  0  0  0  0  0  0  0  0  0  0  0
   46.9100   34.3980   41.2300 N   0  0  0  0  0  0  0  0  0  0  0  0
   48.4350   34.6390   39.3510 C   0  0  0  0  0  0  0  0  0  0  0  0
   48.1790   34.2630   37.9010 C   0  0  0  0  0  0  0  0  0  0  0  0
   43.9479   36.5737   45.2240 H   0  0  0  0  0  0  0  0  0  0  0  0
   44.4607   36.1206   42.8214 H   0  0  0  0  0  0  0  0  0  0  0  0
   47.5476   31.9013   45.3463 H   0  0  0  0  0  0  0  0  0  0  0  0
   48.3485   30.2977   46.9999 H   0  0  0  0  0  0  0  0  0  0  0  0
   44.4280   32.5862   50.0133 H   0  0  0  0  0  0  0  0  0  0  0  0
   45.4056   31.2795   50.7342 H   0  0  0  0  0  0  0  0  0  0  0  0
   44.0011   32.7204   41.3407 H   0  0  0  0  0  0  0  0  0  0  0  0
   48.5739   35.7267   39.4385 H   0  0  0  0  0  0  0  0  0  0  0  0
   49.3448   34.1468   39.7252 H   0  0  0  0  0  0  0  0  0  0  0  0
   47.5603   33.3543   37.8616 H   0  0  0  0  0  0  0  0  0  0  0  0
   47.6533   35.0867   37.3959 H   0  0  0  0  0  0  0  0  0  0  0  0
   49.1381   34.0758   37.3959 H   0  0  0  0  0  0  0  0  0  0  0  0
  1  6  2  0
  2  1  1  0
  3  2  2  0
  3  4  1  0
  4  5  2  0
  5  6  1  0
  5  7  1  0
  7 12  1  0
  8  7  2  0
  8  9  1  0
  9 10  2  0
 10 11  1  0
 11 13  1  0
 12 11  2  0
 14  3  1  0
 15 14  2  0
 16 17  1  0
 16 15  1  0
 17 18  2  0
 18 14  1  0
 19 17  1  0
 20 19  1  0
  1 21  1  0
  2 22  1  0
  8 23  1  0
  9 24  1  0
 13 25  1  0
 13 26  1  0
 15 27  1  0
 19 28  1  0
 19 29  1  0
 20 30  1  0
 20 31  1  0
 20 32  1  0
M  ISO  8  21  14  22  14  23  14  24  14  27  14  28   8  29   8  30   8
M  ISO  2  31   8  32   8
M  END
>  <minimizedAffinity>  (1) 
-5.87740374

>  <minimizedRMSD>  (1) 
1.43156779

$$$$
