
     RDKit          3D

 48 51  0  0  0  0  0  0  0  0999 V2000
   44.5030   35.6930   44.8820 C   0  0  0  0  0  0  0  0  0  0  0  0
   44.7410   35.4150   43.5430 C   0  0  0  0  0  0  0  0  0  0  0  0
   45.4110   34.2460   43.2010 C   0  0  0  0  0  0  0  0  0  0  0  0
   45.8090   33.4190   44.1960 N   0  0  0  0  0  0  0  0  0  0  0  0
   45.5640   33.7160   45.4930 C   0  0  0  0  0  0  0  0  0  0  0  0
   44.9270   34.8240   45.8240 N   0  0  0  0  0  0  0  0  0  0  0  0
   46.0220   32.7770   46.5150 C   0  0  0  0  0  0  0  0  0  0  0  0
   47.0550   31.8870   46.2570 C   0  0  0  0  0  0  0  0  0  0  0  0
   47.5180   30.9940   47.1730 C   0  0  0  0  0  0  0  0  0  0  0  0
   46.9850   30.9360   48.3840 N   0  0  0  0  0  0  0  0  0  0  0  0
   45.9640   31.8070   48.6590 C   0  0  0  0  0  0  0  0  0  0  0  0
   45.4800   32.7160   47.7470 N   0  0  0  0  0  0  0  0  0  0  0  0
   45.2320   31.9350   49.8850 N   0  0  0  0  0  0  0  0  0  0  0  0
   45.6820   33.9170   41.7740 C   0  0  0  0  0  0  0  0  0  0  0  0
   44.7690   33.1990   41.0110 C   0  0  0  0  0  0  0  0  0  0  0  0
   45.6120   33.0910   39.3650 S   0  0  0  0  0  0  0  0  0  0  0  0
   47.0930   34.0670   40.0300 C   0  0  0  0  0  0  0  0  0  0  0  0
   46.7860   34.2730   41.1340 N   0  0  0  0  0  0  0  0  0  0  0  0
   48.2970   34.4170   39.2160 C   0  0  0  0  0  0  0  0  0  0  0  0
   47.9420   34.1570   37.7820 C   0  0  0  0  0  0  0  0  0  0  0  0
   48.9280   33.3830   36.9890 C   0  0  0  0  0  0  0  0  0  0  0  0
   49.5250   32.2650   37.8170 C   0  0  0  0  0  0  0  0  0  0  0  0
   50.2740   31.3280   36.8520 C   0  0  0  0  0  0  0  0  0  0  0  0
   49.2030   30.5530   36.1240 C   0  0  0  0  0  0  0  0  0  0  0  0
   48.2820   31.4890   35.4420 C   0  0  0  0  0  0  0  0  0  0  0  0
   48.4870   32.9370   35.6380 C   0  0  0  0  0  0  0  0  0  0  0  0
   43.9740   36.6126   45.1727 H   0  0  0  0  0  0  0  0  0  0  0  0
   44.4033   36.1117   42.7616 H   0  0  0  0  0  0  0  0  0  0  0  0
   47.5231   31.9044   45.2617 H   0  0  0  0  0  0  0  0  0  0  0  0
   48.3412   30.3151   46.9058 H   0  0  0  0  0  0  0  0  0  0  0  0
   44.4806   32.6348   49.9655 H   0  0  0  0  0  0  0  0  0  0  0  0
   45.4575   31.3271   50.6853 H   0  0  0  0  0  0  0  0  0  0  0  0
   43.7902   32.7956   41.3098 H   0  0  0  0  0  0  0  0  0  0  0  0
   48.5536   35.4774   39.3562 H   0  0  0  0  0  0  0  0  0  0  0  0
   49.1675   33.8180   39.5217 H   0  0  0  0  0  0  0  0  0  0  0  0
   46.9918   33.6030   37.7675 H   0  0  0  0  0  0  0  0  0  0  0  0
   47.8983   35.1483   37.3072 H   0  0  0  0  0  0  0  0  0  0  0  0
   49.7208   34.1053   36.7447 H   0  0  0  0  0  0  0  0  0  0  0  0
   50.2244   32.6784   38.5586 H   0  0  0  0  0  0  0  0  0  0  0  0
   48.7380   31.7183   38.3571 H   0  0  0  0  0  0  0  0  0  0  0  0
   50.8762   31.9118   36.1402 H   0  0  0  0  0  0  0  0  0  0  0  0
   50.9655   30.6610   37.3877 H   0  0  0  0  0  0  0  0  0  0  0  0
   49.6721   29.8942   35.3784 H   0  0  0  0  0  0  0  0  0  0  0  0
   48.6363   29.9493   36.8481 H   0  0  0  0  0  0  0  0  0  0  0  0
   47.2642   31.2542   35.7870 H   0  0  0  0  0  0  0  0  0  0  0  0
   48.4754   31.3292   34.3710 H   0  0  0  0  0  0  0  0  0  0  0  0
   49.2492   33.2645   34.9157 H   0  0  0  0  0  0  0  0  0  0  0  0
   47.4925   33.3864   35.5005 H   0  0  0  0  0  0  0  0  0  0  0  0
  1  6  2  0
  2  1  1  0
  3  2  2  0
  3  4  1  0
  4  5  2  0
  5  6  1  0
  5  7  1  0
  7 12  1  0
  8  7  2  0
  8  9  1  0
  9 10  2  0
 10 11  1  0
 11 13  1  0
 12 11  2  0
 14  3  1  0
 15 14  2  0
 16 17  1  0
 16 15  1  0
 17 18  2  0
 18 14  1  0
 19 17  1  0
 20 19  1  0
 21 20  1  0
 21 22  1  0
 23 22  1  0
 24 23  1  0
 25 26  1  0
 25 24  1  0
 26 21  1  0
  1 27  1  0
  2 28  1  0
  8 29  1  0
  9 30  1  0
 13 31  1  0
 13 32  1  0
 15 33  1  0
 19 34  1  0
 19 35  1  0
 20 36  1  0
 20 37  1  0
 21 38  1  0
 22 39  1  0
 22 40  1  0
 23 41  1  0
 23 42  1  0
 24 43  1  0
 24 44  1  0
 25 45  1  0
 25 46  1  0
 26 47  1  0
 26 48  1  0
M  ISO  8  27  14  28  14  29  14  30  14  33  14  34   8  35   8  36   8
M  ISO  8  37   8  38  13  39  13  40  13  41  13  42  13  43  13  44  13
M  ISO  4  45  13  46  13  47  13  48  13
M  END
>  <minimizedAffinity>  (1) 
-6.2786603

>  <minimizedRMSD>  (1) 
1.54403877

$$$$
