
     RDKit          3D

 33 35  0  0  0  0  0  0  0  0999 V2000
   44.5020   35.6990   44.9200 C   0  0  0  0  0  0  0  0  0  0  0  0
   44.7150   35.4190   43.5740 C   0  0  0  0  0  0  0  0  0  0  0  0
   45.3670   34.2400   43.2200 C   0  0  0  0  0  0  0  0  0  0  0  0
   45.7700   33.4110   44.2180 N   0  0  0  0  0  0  0  0  0  0  0  0
   45.5530   33.7010   45.5130 C   0  0  0  0  0  0  0  0  0  0  0  0
   44.9310   34.8260   45.8490 N   0  0  0  0  0  0  0  0  0  0  0  0
   46.0120   32.7660   46.5370 C   0  0  0  0  0  0  0  0  0  0  0  0
   47.0490   31.8940   46.2700 C   0  0  0  0  0  0  0  0  0  0  0  0
   47.5190   30.9990   47.1910 C   0  0  0  0  0  0  0  0  0  0  0  0
   46.9700   30.9420   48.4090 N   0  0  0  0  0  0  0  0  0  0  0  0
   45.9510   31.7940   48.6830 C   0  0  0  0  0  0  0  0  0  0  0  0
   45.4650   32.7010   47.7680 N   0  0  0  0  0  0  0  0  0  0  0  0
   45.2170   31.9140   49.9010 N   0  0  0  0  0  0  0  0  0  0  0  0
   45.6170   33.8990   41.7940 C   0  0  0  0  0  0  0  0  0  0  0  0
   44.7000   33.1770   41.0570 C   0  0  0  0  0  0  0  0  0  0  0  0
   45.5460   33.0720   39.3990 S   0  0  0  0  0  0  0  0  0  0  0  0
   47.0270   34.0580   40.0440 C   0  0  0  0  0  0  0  0  0  0  0  0
   46.7130   34.2550   41.1380 N   0  0  0  0  0  0  0  0  0  0  0  0
   48.1920   34.3940   39.2140 C   0  0  0  0  0  0  0  0  0  0  0  0
   48.0000   33.7390   37.8450 C   0  0  0  0  0  0  0  0  0  0  0  0
   47.7080   34.7460   36.9330 O   0  0  0  0  0  0  0  0  0  0  0  0
   43.9885   36.6240   45.2211 H   0  0  0  0  0  0  0  0  0  0  0  0
   44.3727   36.1202   42.7986 H   0  0  0  0  0  0  0  0  0  0  0  0
   47.5166   31.9204   45.2747 H   0  0  0  0  0  0  0  0  0  0  0  0
   48.3488   30.3258   46.9298 H   0  0  0  0  0  0  0  0  0  0  0  0
   44.4597   32.6077   49.9797 H   0  0  0  0  0  0  0  0  0  0  0  0
   45.4446   31.3070   50.7014 H   0  0  0  0  0  0  0  0  0  0  0  0
   43.7259   32.7704   41.3666 H   0  0  0  0  0  0  0  0  0  0  0  0
   48.2663   35.4854   39.0988 H   0  0  0  0  0  0  0  0  0  0  0  0
   49.1162   34.0297   39.6863 H   0  0  0  0  0  0  0  0  0  0  0  0
   48.9217   33.2183   37.5461 H   0  0  0  0  0  0  0  0  0  0  0  0
   47.1836   33.0026   37.8809 H   0  0  0  0  0  0  0  0  0  0  0  0
   47.4681   35.5735   37.4207 H   0  0  0  0  0  0  0  0  0  0  0  0
  1  6  2  0
  2  1  1  0
  3  2  2  0
  3  4  1  0
  4  5  2  0
  5  6  1  0
  5  7  1  0
  7 12  1  0
  8  7  2  0
  8  9  1  0
  9 10  2  0
 10 11  1  0
 11 13  1  0
 12 11  2  0
 14  3  1  0
 15 14  2  0
 16 17  1  0
 16 15  1  0
 17 18  2  0
 18 14  1  0
 19 17  1  0
 20 19  1  0
 21 20  1  0
  1 22  1  0
  2 23  1  0
  8 24  1  0
  9 25  1  0
 13 26  1  0
 13 27  1  0
 15 28  1  0
 19 29  1  0
 19 30  1  0
 20 31  1  0
 20 32  1  0
 21 33  1  0
M  ISO  8  22  14  23  14  24  14  25  14  28  14  29   8  30   8  31   8
M  ISO  2  32   8  33   3
M  END
>  <minimizedAffinity>  (1) 
-6.14264393

>  <minimizedRMSD>  (1) 
0.285082966

$$$$
