
     RDKit          3D

 39 42  0  0  0  0  0  0  0  0999 V2000
   44.4620   35.7410   45.0090 C   0  0  0  0  0  0  0  0  0  0  0  0
   44.6350   35.4700   43.6560 C   0  0  0  0  0  0  0  0  0  0  0  0
   45.2540   34.3010   43.2880 C   0  0  0  0  0  0  0  0  0  0  0  0
   45.6790   33.4450   44.2580 N   0  0  0  0  0  0  0  0  0  0  0  0
   45.5040   33.7230   45.5650 C   0  0  0  0  0  0  0  0  0  0  0  0
   44.9020   34.8590   45.9280 N   0  0  0  0  0  0  0  0  0  0  0  0
   45.9730   32.7870   46.5700 C   0  0  0  0  0  0  0  0  0  0  0  0
   47.0210   31.9190   46.2880 C   0  0  0  0  0  0  0  0  0  0  0  0
   47.5160   31.0100   47.1850 C   0  0  0  0  0  0  0  0  0  0  0  0
   46.9870   30.9280   48.4010 N   0  0  0  0  0  0  0  0  0  0  0  0
   45.9550   31.7730   48.6950 C   0  0  0  0  0  0  0  0  0  0  0  0
   45.4450   32.6920   47.8070 N   0  0  0  0  0  0  0  0  0  0  0  0
   45.2250   31.8710   49.9320 N   0  0  0  0  0  0  0  0  0  0  0  0
   45.4640   33.9610   41.8530 C   0  0  0  0  0  0  0  0  0  0  0  0
   44.4510   33.3600   41.1030 C   0  0  0  0  0  0  0  0  0  0  0  0
   45.2700   33.1710   39.4350 S   0  0  0  0  0  0  0  0  0  0  0  0
   46.8670   33.9620   40.0900 C   0  0  0  0  0  0  0  0  0  0  0  0
   46.5790   34.1800   41.1850 N   0  0  0  0  0  0  0  0  0  0  0  0
   48.0570   34.1420   39.2490 C   0  0  0  0  0  0  0  0  0  0  0  0
   48.6840   32.8080   38.9820 C   0  0  0  0  0  0  0  0  0  0  0  0
   48.4040   32.4140   37.6210 N   0  0  0  0  0  0  0  0  0  0  0  0
   47.8560   31.4210   36.9520 N   0  0  0  0  0  0  0  0  0  0  0  0
   47.8710   31.6120   35.6300 C   0  0  0  0  0  0  0  0  0  0  0  0
   48.4740   32.8230   35.3880 C   0  0  0  0  0  0  0  0  0  0  0  0
   48.7900   33.2890   36.6450 C   0  0  0  0  0  0  0  0  0  0  0  0
   43.9683   36.6709   45.3276 H   0  0  0  0  0  0  0  0  0  0  0  0
   44.2820   36.1801   42.8937 H   0  0  0  0  0  0  0  0  0  0  0  0
   47.4785   31.9645   45.2887 H   0  0  0  0  0  0  0  0  0  0  0  0
   48.3486   30.3502   46.8997 H   0  0  0  0  0  0  0  0  0  0  0  0
   44.4615   32.5559   50.0266 H   0  0  0  0  0  0  0  0  0  0  0  0
   45.4662   31.2563   50.7224 H   0  0  0  0  0  0  0  0  0  0  0  0
   43.4356   33.0728   41.4135 H   0  0  0  0  0  0  0  0  0  0  0  0
   47.7659   34.6080   38.2961 H   0  0  0  0  0  0  0  0  0  0  0  0
   48.7788   34.7901   39.7676 H   0  0  0  0  0  0  0  0  0  0  0  0
   49.7720   32.8773   39.1283 H   0  0  0  0  0  0  0  0  0  0  0  0
   48.2704   32.0606   39.6750 H   0  0  0  0  0  0  0  0  0  0  0  0
   47.4720   30.9232   34.8708 H   0  0  0  0  0  0  0  0  0  0  0  0
   48.6605   33.3067   34.4178 H   0  0  0  0  0  0  0  0  0  0  0  0
   49.2918   34.2484   36.8395 H   0  0  0  0  0  0  0  0  0  0  0  0
  1  6  2  0
  2  1  1  0
  3  2  2  0
  3  4  1  0
  4  5  2  0
  5  6  1  0
  5  7  1  0
  7 12  1  0
  8  7  2  0
  8  9  1  0
  9 10  2  0
 10 11  1  0
 11 13  1  0
 12 11  2  0
 14  3  1  0
 15 14  2  0
 16 17  1  0
 16 15  1  0
 17 18  2  0
 18 14  1  0
 19 17  1  0
 20 19  1  0
 21 20  1  0
 22 21  1  0
 23 22  2  0
 24 23  1  0
 24 25  2  0
 25 21  1  0
  1 26  1  0
  2 27  1  0
  8 28  1  0
  9 29  1  0
 13 30  1  0
 13 31  1  0
 15 32  1  0
 19 33  1  0
 19 34  1  0
 20 35  1  0
 20 36  1  0
 23 37  1  0
 24 38  1  0
 25 39  1  0
M  ISO  8  26  14  27  14  28  14  29  14  32  14  33   8  34   8  35   8
M  ISO  4  36   8  37  14  38  14  39  14
M  END
>  <minimizedAffinity>  (1) 
-5.94689035

>  <minimizedRMSD>  (1) 
1.99466765

$$$$
