
     RDKit          3D

 33 35  0  0  0  0  0  0  0  0999 V2000
   44.4870   35.6870   44.9460 C   0  0  0  0  0  0  0  0  0  0  0  0
   44.7450   35.4330   43.6080 C   0  0  0  0  0  0  0  0  0  0  0  0
   45.4330   34.2780   43.2650 C   0  0  0  0  0  0  0  0  0  0  0  0
   45.8250   33.4470   44.2500 N   0  0  0  0  0  0  0  0  0  0  0  0
   45.5650   33.7080   45.5520 C   0  0  0  0  0  0  0  0  0  0  0  0
   44.9060   34.8140   45.8830 N   0  0  0  0  0  0  0  0  0  0  0  0
   46.0170   32.7640   46.5720 C   0  0  0  0  0  0  0  0  0  0  0  0
   47.0510   31.8910   46.3240 C   0  0  0  0  0  0  0  0  0  0  0  0
   47.5090   30.9940   47.2380 C   0  0  0  0  0  0  0  0  0  0  0  0
   46.9600   30.9250   48.4430 N   0  0  0  0  0  0  0  0  0  0  0  0
   45.9270   31.7910   48.7050 C   0  0  0  0  0  0  0  0  0  0  0  0
   45.4590   32.6950   47.7960 N   0  0  0  0  0  0  0  0  0  0  0  0
   45.1930   31.8920   49.9280 N   0  0  0  0  0  0  0  0  0  0  0  0
   45.7330   33.9670   41.8390 C   0  0  0  0  0  0  0  0  0  0  0  0
   44.8370   33.2390   41.0550 C   0  0  0  0  0  0  0  0  0  0  0  0
   45.7120   33.1630   39.4300 S   0  0  0  0  0  0  0  0  0  0  0  0
   47.1710   34.1540   40.1150 C   0  0  0  0  0  0  0  0  0  0  0  0
   46.8330   34.3380   41.2130 N   0  0  0  0  0  0  0  0  0  0  0  0
   48.3790   34.5310   39.3320 C   0  0  0  0  0  0  0  0  0  0  0  0
   48.0720   34.1580   37.8790 C   0  0  0  0  0  0  0  0  0  0  0  0
   49.1260   32.7950   37.3310 S   0  0  0  0  0  0  0  0  0  0  0  0
   43.9431   36.5964   45.2413 H   0  0  0  0  0  0  0  0  0  0  0  0
   44.4098   36.1356   42.8309 H   0  0  0  0  0  0  0  0  0  0  0  0
   47.5322   31.9200   45.3353 H   0  0  0  0  0  0  0  0  0  0  0  0
   48.3395   30.3220   46.9761 H   0  0  0  0  0  0  0  0  0  0  0  0
   44.4326   32.5811   50.0169 H   0  0  0  0  0  0  0  0  0  0  0  0
   45.4247   31.2757   50.7201 H   0  0  0  0  0  0  0  0  0  0  0  0
   43.8596   32.8181   41.3335 H   0  0  0  0  0  0  0  0  0  0  0  0
   48.5685   35.6112   39.4177 H   0  0  0  0  0  0  0  0  0  0  0  0
   49.2765   34.0127   39.7005 H   0  0  0  0  0  0  0  0  0  0  0  0
   47.0180   33.8535   37.7996 H   0  0  0  0  0  0  0  0  0  0  0  0
   48.2663   35.0330   37.2413 H   0  0  0  0  0  0  0  0  0  0  0  0
   49.6317   32.1410   38.4235 H   0  0  0  0  0  0  0  0  0  0  0  0
  1  6  2  0
  2  1  1  0
  3  2  2  0
  3  4  1  0
  4  5  2  0
  5  6  1  0
  5  7  1  0
  7 12  1  0
  8  7  2  0
  8  9  1  0
  9 10  2  0
 10 11  1  0
 11 13  1  0
 12 11  2  0
 14  3  1  0
 15 14  2  0
 16 17  1  0
 16 15  1  0
 17 18  2  0
 18 14  1  0
 19 17  1  0
 20 19  1  0
 21 20  1  0
  1 22  1  0
  2 23  1  0
  8 24  1  0
  9 25  1  0
 13 26  1  0
 13 27  1  0
 15 28  1  0
 19 29  1  0
 19 30  1  0
 20 31  1  0
 20 32  1  0
 21 33  1  0
M  ISO  8  22  14  23  14  24  14  25  14  28  14  29   8  30   8  31   8
M  ISO  2  32   8  33  11
M  END
>  <minimizedAffinity>  (1) 
-5.73077154

>  <minimizedRMSD>  (1) 
0.294558942

$$$$
