
     RDKit          3D

 50 54  0  0  0  0  0  0  0  0999 V2000
   45.2420   33.8610   41.7870 C   0  0  0  0  0  0  0  0  0  0  0  0
   44.1860   33.3420   41.0950 C   0  0  0  0  0  0  0  0  0  0  0  0
   44.9530   33.1170   39.4060 S   0  0  0  0  0  0  0  0  0  0  0  0
   46.5950   33.7850   39.9800 C   0  0  0  0  0  0  0  0  0  0  0  0
   46.3500   34.0100   41.0780 N   0  0  0  0  0  0  0  0  0  0  0  0
   44.4830   35.7760   44.9510 C   0  0  0  0  0  0  0  0  0  0  0  0
   44.5740   35.4540   43.5990 C   0  0  0  0  0  0  0  0  0  0  0  0
   45.1370   34.2240   43.2270 C   0  0  0  0  0  0  0  0  0  0  0  0
   45.5680   33.4020   44.2000 N   0  0  0  0  0  0  0  0  0  0  0  0
   45.4680   33.7390   45.5050 C   0  0  0  0  0  0  0  0  0  0  0  0
   44.9380   34.8990   45.8680 N   0  0  0  0  0  0  0  0  0  0  0  0
   45.9540   32.8030   46.5050 C   0  0  0  0  0  0  0  0  0  0  0  0
   47.0010   31.9190   46.2160 C   0  0  0  0  0  0  0  0  0  0  0  0
   47.5120   31.0110   47.1030 C   0  0  0  0  0  0  0  0  0  0  0  0
   46.9990   30.9470   48.3170 N   0  0  0  0  0  0  0  0  0  0  0  0
   45.9790   31.8010   48.6170 C   0  0  0  0  0  0  0  0  0  0  0  0
   45.4510   32.7180   47.7480 N   0  0  0  0  0  0  0  0  0  0  0  0
   45.2830   31.8920   49.8870 N   0  0  0  0  0  0  0  0  0  0  0  0
   47.7260   33.8840   39.0610 C   0  0  0  0  0  0  0  0  0  0  0  0
   48.2080   32.5020   38.6920 C   0  0  0  0  0  0  0  0  0  0  0  0
   47.9180   32.3360   37.2210 C   0  0  0  0  0  0  0  0  0  0  0  0
   48.8820   32.8930   36.3960 C   0  0  0  0  0  0  0  0  0  0  0  0
   48.6710   32.7730   35.0390 C   0  0  0  0  0  0  0  0  0  0  0  0
   47.6120   32.1630   34.5430 N   0  0  0  0  0  0  0  0  0  0  0  0
   46.6890   31.6290   35.3670 C   0  0  0  0  0  0  0  0  0  0  0  0
   46.8720   31.7330   36.6860 N   0  0  0  0  0  0  0  0  0  0  0  0
   45.5240   30.9590   34.8270 C   0  0  0  0  0  0  0  0  0  0  0  0
   44.3000   31.1040   35.4490 C   0  0  0  0  0  0  0  0  0  0  0  0
   43.1520   30.4860   34.9760 C   0  0  0  0  0  0  0  0  0  0  0  0
   43.2840   29.7160   33.8530 C   0  0  0  0  0  0  0  0  0  0  0  0
   44.4930   29.5640   33.2300 C   0  0  0  0  0  0  0  0  0  0  0  0
   45.6510   30.1760   33.6900 C   0  0  0  0  0  0  0  0  0  0  0  0
   43.1649   33.1180   41.4373 H   0  0  0  0  0  0  0  0  0  0  0  0
   44.0451   36.7344   45.2667 H   0  0  0  0  0  0  0  0  0  0  0  0
   44.2094   36.1546   42.8333 H   0  0  0  0  0  0  0  0  0  0  0  0
   47.4419   31.9571   45.2090 H   0  0  0  0  0  0  0  0  0  0  0  0
   48.3369   30.3454   46.8088 H   0  0  0  0  0  0  0  0  0  0  0  0
   44.5223   32.5756   50.0096 H   0  0  0  0  0  0  0  0  0  0  0  0
   45.5496   31.2730   50.6659 H   0  0  0  0  0  0  0  0  0  0  0  0
   47.4116   34.4161   38.1510 H   0  0  0  0  0  0  0  0  0  0  0  0
   48.5432   34.4352   39.5492 H   0  0  0  0  0  0  0  0  0  0  0  0
   49.2879   32.4114   38.8807 H   0  0  0  0  0  0  0  0  0  0  0  0
   47.7049   31.7281   39.2903 H   0  0  0  0  0  0  0  0  0  0  0  0
   49.7678   33.4034   36.8020 H   0  0  0  0  0  0  0  0  0  0  0  0
   49.4109   33.2005   34.3464 H   0  0  0  0  0  0  0  0  0  0  0  0
   44.2330   31.7310   36.3503 H   0  0  0  0  0  0  0  0  0  0  0  0
   42.1819   30.6091   35.4797 H   0  0  0  0  0  0  0  0  0  0  0  0
   42.3992   29.2080   33.4418 H   0  0  0  0  0  0  0  0  0  0  0  0
   44.5493   28.9330   32.3307 H   0  0  0  0  0  0  0  0  0  0  0  0
   46.6170   30.0467   33.1800 H   0  0  0  0  0  0  0  0  0  0  0  0
  1  8  1  0
  2  1  2  0
  3  4  1  0
  3  2  1  0
  4  5  2  0
  5  1  1  0
  6 11  2  0
  7  6  1  0
  8  7  2  0
  8  9  1  0
  9 10  2  0
 10 11  1  0
 10 12  1  0
 12 17  1  0
 13 12  2  0
 13 14  1  0
 14 15  2  0
 15 16  1  0
 16 18  1  0
 17 16  2  0
 19  4  1  0
 20 19  1  0
 21 20  1  0
 22 21  2  0
 23 22  1  0
 24 23  2  0
 24 25  1  0
 25 26  2  0
 26 21  1  0
 27 25  1  0
 27 28  2  0
 29 28  1  0
 30 29  2  0
 31 32  2  0
 31 30  1  0
 32 27  1  0
  2 33  1  0
  6 34  1  0
  7 35  1  0
 13 36  1  0
 14 37  1  0
 18 38  1  0
 18 39  1  0
 19 40  1  0
 19 41  1  0
 20 42  1  0
 20 43  1  0
 22 44  1  0
 23 45  1  0
 28 46  1  0
 29 47  1  0
 30 48  1  0
 31 49  1  0
 32 50  1  0
M  ISO  8  33  14  34  14  35  14  36  14  37  14  40   8  41   8  42   8
M  ISO  8  43   8  44  14  45  14  46  14  47  14  48  14  49  14  50  14
M  END
>  <minimizedAffinity>  (1) 
-6.6555829

>  <minimizedRMSD>  (1) 
1.23831904

$$$$
