
     RDKit          3D

 49 53  0  0  0  0  0  0  0  0999 V2000
   45.2420   33.8670   41.7930 C   0  0  0  0  0  0  0  0  0  0  0  0
   44.1850   33.3530   41.0960 C   0  0  0  0  0  0  0  0  0  0  0  0
   44.9560   33.1280   39.4060 S   0  0  0  0  0  0  0  0  0  0  0  0
   46.5980   33.7910   39.9880 C   0  0  0  0  0  0  0  0  0  0  0  0
   46.3500   34.0140   41.0870 N   0  0  0  0  0  0  0  0  0  0  0  0
   44.4830   35.7750   44.9590 C   0  0  0  0  0  0  0  0  0  0  0  0
   44.5730   35.4560   43.6080 C   0  0  0  0  0  0  0  0  0  0  0  0
   45.1350   34.2280   43.2310 C   0  0  0  0  0  0  0  0  0  0  0  0
   45.5660   33.4040   44.1990 N   0  0  0  0  0  0  0  0  0  0  0  0
   45.4680   33.7330   45.5030 C   0  0  0  0  0  0  0  0  0  0  0  0
   44.9360   34.9000   45.8800 N   0  0  0  0  0  0  0  0  0  0  0  0
   45.9490   32.8040   46.5090 C   0  0  0  0  0  0  0  0  0  0  0  0
   46.9990   31.9240   46.2160 C   0  0  0  0  0  0  0  0  0  0  0  0
   47.5120   31.0170   47.1090 C   0  0  0  0  0  0  0  0  0  0  0  0
   46.9970   30.9560   48.3220 N   0  0  0  0  0  0  0  0  0  0  0  0
   45.9840   31.7990   48.6200 C   0  0  0  0  0  0  0  0  0  0  0  0
   45.4470   32.7150   47.7560 N   0  0  0  0  0  0  0  0  0  0  0  0
   45.2830   31.8900   49.8920 N   0  0  0  0  0  0  0  0  0  0  0  0
   47.7350   33.8910   39.0710 C   0  0  0  0  0  0  0  0  0  0  0  0
   48.2130   32.5160   38.6980 C   0  0  0  0  0  0  0  0  0  0  0  0
   47.9120   32.3430   37.2300 C   0  0  0  0  0  0  0  0  0  0  0  0
   48.8790   32.8890   36.3990 C   0  0  0  0  0  0  0  0  0  0  0  0
   48.6620   32.7650   35.0440 C   0  0  0  0  0  0  0  0  0  0  0  0
   47.5930   32.1590   34.5580 N   0  0  0  0  0  0  0  0  0  0  0  0
   46.6730   31.6410   35.3850 C   0  0  0  0  0  0  0  0  0  0  0  0
   46.8610   31.7490   36.7020 N   0  0  0  0  0  0  0  0  0  0  0  0
   45.4880   30.9700   34.8590 C   0  0  0  0  0  0  0  0  0  0  0  0
   44.2780   31.1120   35.4920 C   0  0  0  0  0  0  0  0  0  0  0  0
   43.1540   30.4720   34.9890 C   0  0  0  0  0  0  0  0  0  0  0  0
   43.3060   29.7020   33.8440 C   0  0  0  0  0  0  0  0  0  0  0  0
   44.5480   29.5780   33.2230 C   0  0  0  0  0  0  0  0  0  0  0  0
   45.6220   30.2170   33.7430 N   0  0  0  0  0  0  0  0  0  0  0  0
   43.1621   33.1322   41.4352 H   0  0  0  0  0  0  0  0  0  0  0  0
   44.0456   36.7339   45.2739 H   0  0  0  0  0  0  0  0  0  0  0  0
   44.2077   36.1587   42.8446 H   0  0  0  0  0  0  0  0  0  0  0  0
   47.4391   31.9624   45.2086 H   0  0  0  0  0  0  0  0  0  0  0  0
   48.3387   30.3521   46.8183 H   0  0  0  0  0  0  0  0  0  0  0  0
   44.5208   32.5723   50.0123 H   0  0  0  0  0  0  0  0  0  0  0  0
   45.5490   31.2721   50.6720 H   0  0  0  0  0  0  0  0  0  0  0  0
   47.4249   34.4284   38.1626 H   0  0  0  0  0  0  0  0  0  0  0  0
   48.5521   34.4371   39.5651 H   0  0  0  0  0  0  0  0  0  0  0  0
   49.2947   32.4278   38.8773 H   0  0  0  0  0  0  0  0  0  0  0  0
   47.7133   31.7434   39.3008 H   0  0  0  0  0  0  0  0  0  0  0  0
   49.7705   33.3935   36.7998 H   0  0  0  0  0  0  0  0  0  0  0  0
   49.4014   33.1834   34.3453 H   0  0  0  0  0  0  0  0  0  0  0  0
   44.1995   31.7324   36.3969 H   0  0  0  0  0  0  0  0  0  0  0  0
   42.1753   30.5716   35.4812 H   0  0  0  0  0  0  0  0  0  0  0  0
   42.4339   29.1822   33.4206 H   0  0  0  0  0  0  0  0  0  0  0  0
   44.6545   28.9647   32.3161 H   0  0  0  0  0  0  0  0  0  0  0  0
  1  8  1  0
  2  1  2  0
  3  4  1  0
  3  2  1  0
  4  5  2  0
  5  1  1  0
  6 11  2  0
  7  6  1  0
  8  7  2  0
  8  9  1  0
  9 10  2  0
 10 11  1  0
 10 12  1  0
 12 17  1  0
 13 12  2  0
 13 14  1  0
 14 15  2  0
 15 16  1  0
 16 18  1  0
 17 16  2  0
 19  4  1  0
 20 19  1  0
 21 20  1  0
 22 21  2  0
 23 22  1  0
 24 23  2  0
 24 25  1  0
 25 26  2  0
 26 21  1  0
 27 25  1  0
 27 28  2  0
 29 28  1  0
 30 29  2  0
 31 32  2  0
 31 30  1  0
 32 27  1  0
  2 33  1  0
  6 34  1  0
  7 35  1  0
 13 36  1  0
 14 37  1  0
 18 38  1  0
 18 39  1  0
 19 40  1  0
 19 41  1  0
 20 42  1  0
 20 43  1  0
 22 44  1  0
 23 45  1  0
 28 46  1  0
 29 47  1  0
 30 48  1  0
 31 49  1  0
M  ISO  8  33  14  34  14  35  14  36  14  37  14  40   8  41   8  42   8
M  ISO  7  43   8  44  14  45  14  46  14  47  14  48  14  49  14
M  END
>  <minimizedAffinity>  (1) 
-6.6401372

>  <minimizedRMSD>  (1) 
1.2285434

$$$$
