
 OpenBabel03232521003D

 41 44  0  0  1  0  0  0  0  0999 V2000
   45.3320   32.8940   47.5180 C   0  0  0  0  0  0  0  0  0  0  0  0
   45.8860   32.6340   46.3120 C   0  0  0  0  0  0  0  0  0  0  0  0
   46.1670   31.2910   46.0680 C   0  0  0  0  0  0  0  0  0  0  0  0
   45.9080   30.3070   46.9680 N   0  0  0  0  0  0  0  0  0  0  0  0
   45.3430   30.6360   48.1840 C   0  0  0  0  0  0  0  0  0  0  0  0
   45.0700   31.9030   48.4300 N   0  0  0  0  0  0  0  0  0  0  0  0
   45.1370   29.6150   49.1580 N   0  0  0  0  0  0  0  0  0  0  0  0
   45.0770   33.9000   47.8130 H   0  0  0  0  0  0  0  0  0  0  0  0
   44.3040   28.9850   49.1130 H   0  0  0  0  0  0  0  0  0  0  0  0
   45.7910   29.4310   49.9660 H   0  0  0  0  0  0  0  0  0  0  0  0
   46.1490   33.5850   45.2830 C   0  0  2  0  0  0  0  0  0  0  0  0
   44.9530   34.6890   45.5070 C   0  0  0  0  0  0  0  0  0  0  0  0
   44.7300   35.6180   44.4360 C   0  0  0  0  0  0  0  0  0  0  0  0
   45.5340   35.5380   43.2110 C   0  0  1  0  0  0  0  0  0  0  0  0
   46.5870   34.5330   43.1700 C   0  0  0  0  0  0  0  0  0  0  0  0
   46.1280   33.3020   43.9190 C   0  0  0  0  0  0  0  0  0  0  0  0
   46.9740   34.2850   45.6180 H   0  0  0  0  0  0  0  0  0  0  0  0
   44.2740   34.8570   46.3320 H   0  0  0  0  0  0  0  0  0  0  0  0
   43.9690   36.3490   44.5410 H   0  0  0  0  0  0  0  0  0  0  0  0
   45.9730   36.5340   42.9950 H   0  0  0  0  0  0  0  0  0  0  0  0
   46.8360   34.3120   42.0910 H   0  0  0  0  0  0  0  0  0  0  0  0
   47.5390   34.8590   43.6490 H   0  0  0  0  0  0  0  0  0  0  0  0
   46.9850   32.6510   43.5960 H   0  0  0  0  0  0  0  0  0  0  0  0
   45.1930   32.8830   43.4900 H   0  0  0  0  0  0  0  0  0  0  0  0
   44.5210   35.2780   42.0590 C   0  0  0  0  0  0  0  0  0  0  0  0
   43.4590   34.4780   42.4520 F   0  0  0  0  0  0  0  0  0  0  0  0
   43.9800   36.5160   41.7230 F   0  0  0  0  0  0  0  0  0  0  0  0
   45.1970   34.8180   40.9460 F   0  0  0  0  0  0  0  0  0  0  0  0
   46.7950   30.5900   44.9630 C   0  0  0  0  0  0  0  0  0  0  0  0
   46.4400   29.8160   43.9040 C   0  0  0  0  0  0  0  0  0  0  0  0
   47.6170   29.4330   43.2400 C   0  0  0  0  0  0  0  0  0  0  0  0
   48.6160   29.9900   43.9240 N   0  0  0  0  0  0  0  0  0  0  0  0
   48.1570   30.6770   44.9470 N   0  0  0  0  0  0  0  0  0  0  0  0
   45.3910   29.6350   43.7540 H   0  0  0  0  0  0  0  0  0  0  0  0
   47.5640   28.8090   42.3640 H   0  0  0  0  0  0  0  0  0  0  0  0
   50.0020   29.8200   43.5400 C   0  0  0  0  0  0  0  0  0  0  0  0
   50.5460   30.1220   42.2860 C   0  0  0  0  0  3  0  0  0  0  0  0
   52.3370   29.6450   42.5640 S   0  0  0  0  0  0  0  0  0  0  0  0
   51.9660   29.1270   44.3510 C   0  0  0  0  0  0  0  0  0  0  0  0
   52.7920   28.7550   44.9330 H   0  0  0  0  0  0  0  0  0  0  0  0
   50.7570   29.3350   44.5050 N   0  0  0  0  0  0  0  0  0  0  0  0
  1  8  1  0  0  0  0
  1  6  1  0  0  0  0
  2  1  2  0  0  0  0
  3  2  1  0  0  0  0
  3  4  2  0  0  0  0
  4  5  1  0  0  0  0
  5  6  2  0  0  0  0
  5  7  1  0  0  0  0
  7 10  1  0  0  0  0
  9  7  1  0  0  0  0
 11 12  1  0  0  0  0
 11 17  1  1  0  0  0
 11  2  1  0  0  0  0
 12 18  1  0  0  0  0
 13 19  1  0  0  0  0
 13 12  2  0  0  0  0
 14 20  1  6  0  0  0
 14 13  1  0  0  0  0
 15 14  1  0  0  0  0
 15 22  1  0  0  0  0
 15 16  1  0  0  0  0
 16 11  1  0  0  0  0
 21 15  1  0  0  0  0
 23 16  1  0  0  0  0
 24 16  1  0  0  0  0
 25 26  1  0  0  0  0
 25 14  1  0  0  0  0
 27 25  1  0  0  0  0
 28 25  1  0  0  0  0
 29  3  1  0  0  0  0
 30 29  1  0  0  0  0
 31 30  2  0  0  0  0
 31 32  1  0  0  0  0
 32 33  1  0  0  0  0
 33 29  2  0  0  0  0
 34 30  1  0  0  0  0
 35 31  1  0  0  0  0
 36 32  1  0  0  0  0
 36 41  1  0  0  0  0
 37 38  1  0  0  0  0
 37 36  2  0  0  0  0
 38 39  1  0  0  0  0
 39 41  2  0  0  0  0
 39 40  1  0  0  0  0
M  END
>  <minimizedAffinity>
-5.70771074

>  <minimizedRMSD>
0.148381636

$$$$
