
 OpenBabel03232520593D

 41 44  0  0  1  0  0  0  0  0999 V2000
   45.4120   32.9090   47.5840 C   0  0  0  0  0  0  0  0  0  0  0  0
   45.9180   32.6380   46.3590 C   0  0  0  0  0  0  0  0  0  0  0  0
   46.1500   31.2890   46.1010 C   0  0  0  0  0  0  0  0  0  0  0  0
   45.8910   30.3090   47.0050 N   0  0  0  0  0  0  0  0  0  0  0  0
   45.3760   30.6490   48.2410 C   0  0  0  0  0  0  0  0  0  0  0  0
   45.1490   31.9220   48.5000 N   0  0  0  0  0  0  0  0  0  0  0  0
   45.1700   29.6300   49.2160 N   0  0  0  0  0  0  0  0  0  0  0  0
   45.1970   33.9210   47.8910 H   0  0  0  0  0  0  0  0  0  0  0  0
   44.3180   29.0250   49.1960 H   0  0  0  0  0  0  0  0  0  0  0  0
   45.8440   29.4220   50.0020 H   0  0  0  0  0  0  0  0  0  0  0  0
   46.1760   33.5870   45.3270 C   0  0  2  0  0  0  0  0  0  0  0  0
   44.9500   34.6630   45.5180 C   0  0  0  0  0  0  0  0  0  0  0  0
   44.7240   35.5760   44.4350 C   0  0  0  0  0  0  0  0  0  0  0  0
   45.5510   35.5050   43.2250 C   0  0  1  0  0  0  0  0  0  0  0  0
   46.6290   34.5260   43.2130 C   0  0  0  0  0  0  0  0  0  0  0  0
   46.1870   33.2910   43.9650 C   0  0  0  0  0  0  0  0  0  0  0  0
   46.9780   34.3100   45.6700 H   0  0  0  0  0  0  0  0  0  0  0  0
   44.2520   34.8220   46.3300 H   0  0  0  0  0  0  0  0  0  0  0  0
   43.9430   36.2890   44.5190 H   0  0  0  0  0  0  0  0  0  0  0  0
   45.9690   36.5100   43.0080 H   0  0  0  0  0  0  0  0  0  0  0  0
   46.9030   34.3010   42.1400 H   0  0  0  0  0  0  0  0  0  0  0  0
   47.5640   34.8790   43.7050 H   0  0  0  0  0  0  0  0  0  0  0  0
   47.0650   32.6580   43.6640 H   0  0  0  0  0  0  0  0  0  0  0  0
   45.2700   32.8450   43.5230 H   0  0  0  0  0  0  0  0  0  0  0  0
   44.5650   35.2100   42.0590 C   0  0  0  0  0  0  0  0  0  0  0  0
   43.5530   34.3360   42.4220 F   0  0  0  0  0  0  0  0  0  0  0  0
   43.9510   36.4200   41.7460 F   0  0  0  0  0  0  0  0  0  0  0  0
   45.2780   34.8200   40.9410 F   0  0  0  0  0  0  0  0  0  0  0  0
   46.7200   30.5750   44.9730 C   0  0  0  0  0  0  0  0  0  0  0  0
   46.3060   29.8400   43.9090 C   0  0  0  0  0  0  0  0  0  0  0  0
   47.4490   29.4060   43.2160 C   0  0  0  0  0  0  0  0  0  0  0  0
   48.4880   29.8970   43.8920 N   0  0  0  0  0  0  0  0  0  0  0  0
   48.0840   30.5900   44.9330 N   0  0  0  0  0  0  0  0  0  0  0  0
   45.2470   29.7170   43.7750 H   0  0  0  0  0  0  0  0  0  0  0  0
   47.3480   28.8020   42.3320 H   0  0  0  0  0  0  0  0  0  0  0  0
   49.8560   29.6610   43.4800 C   0  0  0  0  0  0  0  0  0  0  0  0
   50.9230   29.3420   44.3270 C   0  0  0  0  0  3  0  0  0  0  0  0
   52.3180   29.1950   43.0850 S   0  0  0  0  0  0  0  0  0  0  0  0
   51.1430   29.6060   41.6530 C   0  0  0  0  0  0  0  0  0  0  0  0
   51.5690   29.6310   40.6650 H   0  0  0  0  0  0  0  0  0  0  0  0
   50.0380   29.7750   42.1790 N   0  0  0  0  0  0  0  0  0  0  0  0
  1  8  1  0  0  0  0
  1  6  1  0  0  0  0
  2  1  2  0  0  0  0
  3  2  1  0  0  0  0
  3  4  2  0  0  0  0
  4  5  1  0  0  0  0
  5  6  2  0  0  0  0
  5  7  1  0  0  0  0
  7 10  1  0  0  0  0
  9  7  1  0  0  0  0
 11 12  1  0  0  0  0
 11 17  1  1  0  0  0
 11  2  1  0  0  0  0
 12 18  1  0  0  0  0
 13 19  1  0  0  0  0
 13 12  2  0  0  0  0
 14 20  1  6  0  0  0
 14 13  1  0  0  0  0
 15 14  1  0  0  0  0
 15 22  1  0  0  0  0
 15 16  1  0  0  0  0
 16 11  1  0  0  0  0
 21 15  1  0  0  0  0
 23 16  1  0  0  0  0
 24 16  1  0  0  0  0
 25 26  1  0  0  0  0
 25 14  1  0  0  0  0
 27 25  1  0  0  0  0
 28 25  1  0  0  0  0
 29  3  1  0  0  0  0
 30 29  1  0  0  0  0
 31 32  1  0  0  0  0
 31 30  2  0  0  0  0
 32 33  1  0  0  0  0
 33 29  2  0  0  0  0
 34 30  1  0  0  0  0
 35 31  1  0  0  0  0
 36 32  1  0  0  0  0
 36 37  2  0  0  0  0
 38 37  1  0  0  0  0
 39 41  2  0  0  0  0
 39 38  1  0  0  0  0
 40 39  1  0  0  0  0
 41 36  1  0  0  0  0
M  END
>  <minimizedAffinity>
-5.73077059

>  <minimizedRMSD>
0.229592249

$$$$
