
 OpenBabel03232519143D

 30 31  0  0  1  0  0  0  0  0999 V2000
   45.4500   34.6980   44.0100 C   0  0  0  0  0  0  0  0  0  0  0  0
   46.4490   34.3900   43.0470 C   0  0  0  0  0  0  0  0  0  0  0  0
   47.4150   33.4140   43.3450 C   0  0  0  0  0  0  0  0  0  0  0  0
   47.3280   32.8180   44.5630 N   0  0  0  0  0  0  0  0  0  0  0  0
   46.3910   33.1230   45.4390 C   0  0  0  0  0  0  0  0  0  0  0  0
   45.4530   34.0560   45.1740 N   0  0  0  0  0  0  0  0  0  0  0  0
   46.4880   34.8840   42.0870 H   0  0  0  0  0  0  0  0  0  0  0  0
   48.1810   33.1480   42.6620 H   0  0  0  0  0  0  0  0  0  0  0  0
   46.3110   32.4620   46.7600 C   0  0  0  0  0  0  0  0  0  0  0  0
   47.3580   31.5820   47.1160 C   0  0  0  0  0  0  0  0  0  0  0  0
   46.7730   31.0450   48.8100 S   0  0  0  0  0  0  0  0  0  0  0  0
   45.2240   32.1320   48.6850 C   0  0  0  0  0  0  0  0  0  0  0  0
   45.3820   32.5750   47.6770 N   0  0  0  0  0  0  0  0  0  0  0  0
   48.2250   31.2840   46.6150 H   0  0  0  0  0  0  0  0  0  0  0  0
   44.3300   32.3430   49.3770 H   0  0  0  0  0  0  0  0  0  0  0  0
   44.4430   35.7280   43.6730 C   0  0  1  0  0  0  0  0  0  0  0  0
   43.8320   35.9290   44.5860 H   0  0  0  0  0  0  0  0  0  0  0  0
   45.1450   37.0530   43.3900 C   0  0  0  0  0  0  0  0  0  0  0  0
   44.5050   37.9250   43.6490 H   0  0  0  0  0  0  0  0  0  0  0  0
   45.4510   37.0690   42.3230 H   0  0  0  0  0  0  0  0  0  0  0  0
   46.0700   37.1690   43.9880 H   0  0  0  0  0  0  0  0  0  0  0  0
   43.5990   35.3530   42.5100 C   0  0  0  0  0  0  0  0  0  0  0  0
   43.9500   35.9770   41.6370 H   0  0  0  0  0  0  0  0  0  0  0  0
   43.7900   34.3170   42.2170 H   0  0  0  0  0  0  0  0  0  0  0  0
   42.2150   35.5920   42.6940 N   0  0  0  0  0  0  0  0  0  0  0  0
   41.9320   36.3250   43.3460 H   0  0  0  0  0  0  0  0  0  0  0  0
   41.2240   35.3310   41.3510 S   0  0  0  0  0  0  0  0  0  0  0  0
   40.1230   33.9450   41.5970 C   0  0  0  0  0  0  0  0  0  0  0  0
   42.1060   34.9510   40.1790 O   0  0  0  0  0  0  0  0  0  0  0  0
   40.4420   36.5250   40.9280 O   0  0  0  0  0  0  0  0  0  0  0  0
  1  6  1  0  0  0  0
  2  3  1  0  0  0  0
  2  1  2  0  0  0  0
  3  4  2  0  0  0  0
  4  5  1  0  0  0  0
  5  9  1  0  0  0  0
  6  5  2  0  0  0  0
  7  2  1  0  0  0  0
  8  3  1  0  0  0  0
  9 10  2  0  0  0  0
  9 13  1  0  0  0  0
 10 11  1  0  0  0  0
 12 11  1  0  0  0  0
 12 15  1  0  0  0  0
 13 12  2  0  0  0  0
 14 10  1  0  0  0  0
 16  1  1  0  0  0  0
 16 17  1  1  0  0  0
 18 19  1  0  0  0  0
 18 16  1  0  0  0  0
 18 21  1  0  0  0  0
 20 18  1  0  0  0  0
 22 25  1  0  0  0  0
 22 16  1  0  0  0  0
 23 22  1  0  0  0  0
 24 22  1  0  0  0  0
 25 26  1  0  0  0  0
 27 28  1  0  0  0  0
 27 25  1  0  0  0  0
 29 27  2  0  0  0  0
 30 27  2  0  0  0  0
M  END
>  <minimizedAffinity>
-5.25741148

>  <minimizedRMSD>
1.08970475

$$$$
