
 OpenBabel03232521003D

 41 44  0  0  1  0  0  0  0  0999 V2000
   45.3590   32.8920   47.5120 C   0  0  0  0  0  0  0  0  0  0  0  0
   45.8920   32.6340   46.2950 C   0  0  0  0  0  0  0  0  0  0  0  0
   46.1530   31.2890   46.0390 C   0  0  0  0  0  0  0  0  0  0  0  0
   45.8960   30.3020   46.9350 N   0  0  0  0  0  0  0  0  0  0  0  0
   45.3530   30.6290   48.1620 C   0  0  0  0  0  0  0  0  0  0  0  0
   45.0980   31.8980   48.4200 N   0  0  0  0  0  0  0  0  0  0  0  0
   45.1480   29.6040   49.1310 N   0  0  0  0  0  0  0  0  0  0  0  0
   45.1200   33.8990   47.8170 H   0  0  0  0  0  0  0  0  0  0  0  0
   44.3080   28.9840   49.0940 H   0  0  0  0  0  0  0  0  0  0  0  0
   45.8120   29.4070   49.9280 H   0  0  0  0  0  0  0  0  0  0  0  0
   46.1510   33.5890   45.2700 C   0  0  2  0  0  0  0  0  0  0  0  0
   44.9550   34.6910   45.5000 C   0  0  0  0  0  0  0  0  0  0  0  0
   44.7280   35.6230   44.4340 C   0  0  0  0  0  0  0  0  0  0  0  0
   45.5290   35.5490   43.2060 C   0  0  1  0  0  0  0  0  0  0  0  0
   46.5830   34.5450   43.1600 C   0  0  0  0  0  0  0  0  0  0  0  0
   46.1280   33.3120   43.9040 C   0  0  0  0  0  0  0  0  0  0  0  0
   46.9760   34.2890   45.6060 H   0  0  0  0  0  0  0  0  0  0  0  0
   44.2770   34.8550   46.3270 H   0  0  0  0  0  0  0  0  0  0  0  0
   43.9660   36.3530   44.5420 H   0  0  0  0  0  0  0  0  0  0  0  0
   45.9660   36.5470   42.9930 H   0  0  0  0  0  0  0  0  0  0  0  0
   46.8300   34.3290   42.0790 H   0  0  0  0  0  0  0  0  0  0  0  0
   47.5360   34.8710   43.6370 H   0  0  0  0  0  0  0  0  0  0  0  0
   46.9850   32.6620   43.5770 H   0  0  0  0  0  0  0  0  0  0  0  0
   45.1920   32.8920   43.4760 H   0  0  0  0  0  0  0  0  0  0  0  0
   44.5130   35.2920   42.0560 C   0  0  0  0  0  0  0  0  0  0  0  0
   43.4480   34.4990   42.4510 F   0  0  0  0  0  0  0  0  0  0  0  0
   43.9790   36.5320   41.7170 F   0  0  0  0  0  0  0  0  0  0  0  0
   45.1870   34.8260   40.9430 F   0  0  0  0  0  0  0  0  0  0  0  0
   46.7570   30.5890   44.9190 C   0  0  0  0  0  0  0  0  0  0  0  0
   46.3770   29.8380   43.8540 C   0  0  0  0  0  0  0  0  0  0  0  0
   47.5390   29.4360   43.1750 C   0  0  0  0  0  0  0  0  0  0  0  0
   48.5560   29.9610   43.8590 N   0  0  0  0  0  0  0  0  0  0  0  0
   48.1210   30.6460   44.8940 N   0  0  0  0  0  0  0  0  0  0  0  0
   45.3230   29.6820   43.7090 H   0  0  0  0  0  0  0  0  0  0  0  0
   47.4660   28.8260   42.2920 H   0  0  0  0  0  0  0  0  0  0  0  0
   49.9350   29.7650   43.4620 C   0  0  0  0  0  0  0  0  0  0  0  0
   50.7230   30.6850   42.7610 C   0  0  0  0  0  3  0  0  0  0  0  0
   52.3310   29.7310   42.6300 S   0  0  0  0  0  0  0  0  0  0  0  0
   51.5840   28.2610   43.5690 C   0  0  0  0  0  0  0  0  0  0  0  0
   52.2250   27.4110   43.7320 H   0  0  0  0  0  0  0  0  0  0  0  0
   50.4230   28.5960   43.8260 N   0  0  0  0  0  0  0  0  0  0  0  0
  1  8  1  0  0  0  0
  1  6  1  0  0  0  0
  2  1  2  0  0  0  0
  3  2  1  0  0  0  0
  3  4  2  0  0  0  0
  4  5  1  0  0  0  0
  5  6  2  0  0  0  0
  5  7  1  0  0  0  0
  7 10  1  0  0  0  0
  9  7  1  0  0  0  0
 11 12  1  0  0  0  0
 11 17  1  1  0  0  0
 11  2  1  0  0  0  0
 12 18  1  0  0  0  0
 13 19  1  0  0  0  0
 13 12  2  0  0  0  0
 14 20  1  6  0  0  0
 14 13  1  0  0  0  0
 15 14  1  0  0  0  0
 15 22  1  0  0  0  0
 15 16  1  0  0  0  0
 16 11  1  0  0  0  0
 21 15  1  0  0  0  0
 23 16  1  0  0  0  0
 24 16  1  0  0  0  0
 25 26  1  0  0  0  0
 25 14  1  0  0  0  0
 27 25  1  0  0  0  0
 28 25  1  0  0  0  0
 29  3  1  0  0  0  0
 30 29  1  0  0  0  0
 31 30  2  0  0  0  0
 31 32  1  0  0  0  0
 32 33  1  0  0  0  0
 33 29  2  0  0  0  0
 34 30  1  0  0  0  0
 35 31  1  0  0  0  0
 36 41  1  0  0  0  0
 36 32  1  0  0  0  0
 37 36  2  0  0  0  0
 38 37  1  0  0  0  0
 38 39  1  0  0  0  0
 39 40  1  0  0  0  0
 39 41  2  0  0  0  0
M  END
>  <minimizedAffinity>
-5.70345354

>  <minimizedRMSD>
0.458764106

$$$$
