
     RDKit          3D

 42 45  0  0  0  0  0  0  0  0999 V2000
   46.1455   33.5909   45.2810 C   0  0  2  0  0  0  0  0  0  0  0  0
   44.9213   34.6648   45.4968 C   0  0  0  0  0  0  0  0  0  0  0  0
   44.6906   35.5974   44.4309 C   0  0  0  0  0  0  0  0  0  0  0  0
   45.5134   35.5460   43.2164 C   0  0  1  0  0  0  0  0  0  0  0  0
   46.5890   34.5659   43.1819 C   0  0  0  0  0  0  0  0  0  0  0  0
   46.1490   33.3191   43.9139 C   0  0  0  0  0  0  0  0  0  0  0  0
   45.3646   32.8713   47.5200 C   0  0  0  0  0  0  0  0  0  0  0  0
   45.8912   32.6253   46.2976 C   0  0  0  0  0  0  0  0  0  0  0  0
   46.1491   31.2830   46.0257 C   0  0  0  0  0  0  0  0  0  0  0  0
   45.8961   30.2874   46.9138 N   0  0  0  0  0  0  0  0  0  0  0  0
   45.3604   30.6021   48.1470 C   0  0  0  0  0  0  0  0  0  0  0  0
   45.1077   31.8684   48.4205 N   0  0  0  0  0  0  0  0  0  0  0  0
   45.1605   29.5666   49.1067 N   0  0  0  0  0  0  0  0  0  0  0  0
   46.7463   30.5939   44.8956 C   0  0  0  0  0  0  0  0  0  0  0  0
   46.3564   29.9173   43.7845 C   0  0  0  0  0  0  0  0  0  0  0  0
   47.5134   29.4686   43.1269 C   0  0  0  0  0  0  0  0  0  0  0  0
   48.5369   29.8942   43.8680 N   0  0  0  0  0  0  0  0  0  0  0  0
   48.1103   30.5602   44.9178 N   0  0  0  0  0  0  0  0  0  0  0  0
   44.5208   35.2716   42.0486 C   0  0  0  0  0  0  0  0  0  0  0  0
   43.4644   34.4585   42.4245 F   0  0  0  0  0  0  0  0  0  0  0  0
   43.9699   36.5028   41.7028 F   0  0  0  0  0  0  0  0  0  0  0  0
   45.2212   34.8198   40.9470 F   0  0  0  0  0  0  0  0  0  0  0  0
   46.9491   34.3069   45.6333 H   0  0  0  0  0  0  0  0  0  0  0  0
   44.2266   34.8096   46.3138 H   0  0  0  0  0  0  0  0  0  0  0  0
   43.9113   36.3086   44.5305 H   0  0  0  0  0  0  0  0  0  0  0  0
   45.9313   36.5542   43.0145 H   0  0  0  0  0  0  0  0  0  0  0  0
   46.8575   34.3603   42.1042 H   0  0  0  0  0  0  0  0  0  0  0  0
   47.5274   34.9095   43.6758 H   0  0  0  0  0  0  0  0  0  0  0  0
   47.0245   32.6901   43.5981 H   0  0  0  0  0  0  0  0  0  0  0  0
   45.2302   32.8814   43.4686 H   0  0  0  0  0  0  0  0  0  0  0  0
   45.1294   33.8748   47.8369 H   0  0  0  0  0  0  0  0  0  0  0  0
   44.3191   28.9475   49.0682 H   0  0  0  0  0  0  0  0  0  0  0  0
   45.8280   29.3606   49.8976 H   0  0  0  0  0  0  0  0  0  0  0  0
   45.3002   29.8390   43.5993 H   0  0  0  0  0  0  0  0  0  0  0  0
   47.4324   28.9044   42.2151 H   0  0  0  0  0  0  0  0  0  0  0  0
   49.9127   29.6242   43.5077 C   0  0  0  0  0  0  0  0  0  0  0  0
   50.9493   30.5648   43.4715 C   0  0  0  0  0  0  0  0  0  0  0  0
   52.3796   29.4806   42.9316 S   0  0  0  0  0  0  0  0  0  0  0  0
   51.2539   27.9549   42.8673 C   0  0  0  0  0  0  0  0  0  0  0  0
   51.7102   27.0241   42.5747 H   0  0  0  0  0  0  0  0  0  0  0  0
   50.1353   28.3622   43.1989 N   0  0  0  0  0  0  0  0  0  0  0  0
   50.7359   31.6060   43.7329 H   0  0  0  0  0  0  0  0  0  0  0  0
  1  2  1  0
  1  8  1  0
  3  2  2  0
  4  3  1  0
  5  4  1  0
  5  6  1  0
  6  1  1  0
  7 12  2  0
  8  7  1  0
  9  8  2  0
  9 10  1  0
 10 11  2  0
 11 12  1  0
 11 13  1  0
 14 18  2  0
 14  9  1  0
 15 14  1  0
 16 15  2  0
 16 17  1  0
 17 18  1  0
 19 20  1  0
 19  4  1  0
 21 19  1  0
 22 19  1  0
  1 23  1  1
  2 24  1  0
  3 25  1  0
  4 26  1  6
  5 27  1  0
  5 28  1  0
  6 29  1  0
  6 30  1  0
  7 31  1  0
 13 32  1  0
 13 33  1  0
 15 34  1  0
 16 35  1  0
 36 37  2  0
 37 38  1  0
 38 39  1  0
 39 40  1  0
 39 41  2  0
 41 36  1  0
 37 42  1  0
 17 36  1  0
M  ISO  8  23  13  24  13  25  13  26  13  27  13  28  13  29  13  30  13
M  ISO  4  31  14  34  14  35  14  40  14
M  END
>  <DihAtoms>  (1) 
15,16,35,36

>  <DihDeg>  (1) 
-93.25684972084105

$$$$
