REMARK  Name = 
REMARK  4 active torsions:
REMARK  status: ('A' for Active; 'I' for Inactive)
REMARK    1  A    between atoms: C_1  and  C_8
REMARK    2  A    between atoms: C_4  and  C_19
REMARK    3  A    between atoms: C_9  and  C_14
REMARK    4  A    between atoms: N_17  and  C_36
REMARK                            x       y       z     vdW  Elec       q    Type
REMARK                         _______ _______ _______ _____ _____    ______ ____
ROOT
ATOM      1  C   UNL     1      45.365  32.871  47.520  0.00  0.00    +0.000 A 
ATOM      2  C   UNL     1      45.891  32.625  46.298  0.00  0.00    +0.000 A 
ATOM      3  C   UNL     1      46.149  31.283  46.026  0.00  0.00    +0.000 A 
ATOM      4  N   UNL     1      45.896  30.287  46.914  0.00  0.00    +0.000 NA
ATOM      5  C   UNL     1      45.360  30.602  48.147  0.00  0.00    +0.000 A 
ATOM      6  N   UNL     1      45.108  31.868  48.420  0.00  0.00    +0.000 NA
ATOM      7  N   UNL     1      45.160  29.567  49.107  0.00  0.00    +0.000 N 
ATOM      8  H   UNL     1      45.129  33.875  47.837  0.00  0.00    +0.000 HD
ATOM      9  H   UNL     1      44.319  28.948  49.068  0.00  0.00    +0.000 HD
ATOM     10  H   UNL     1      45.828  29.361  49.898  0.00  0.00    +0.000 HD
ENDROOT
BRANCH   2  11
ATOM     11  C   UNL     1      46.145  33.591  45.281  0.00  0.00    +0.000 C 
ATOM     12  C   UNL     1      44.921  34.665  45.497  0.00  0.00    +0.000 C 
ATOM     13  C   UNL     1      44.691  35.597  44.431  0.00  0.00    +0.000 C 
ATOM     14  C   UNL     1      45.513  35.546  43.216  0.00  0.00    +0.000 C 
ATOM     15  C   UNL     1      46.589  34.566  43.182  0.00  0.00    +0.000 C 
ATOM     16  C   UNL     1      46.149  33.319  43.914  0.00  0.00    +0.000 C 
ATOM     17  H   UNL     1      46.949  34.307  45.633  0.00  0.00    +0.000 HD
ATOM     18  H   UNL     1      44.227  34.810  46.314  0.00  0.00    +0.000 HD
ATOM     19  H   UNL     1      43.911  36.309  44.531  0.00  0.00    +0.000 HD
ATOM     20  H   UNL     1      45.931  36.554  43.014  0.00  0.00    +0.000 HD
ATOM     21  H   UNL     1      46.858  34.360  42.104  0.00  0.00    +0.000 HD
ATOM     22  H   UNL     1      47.527  34.910  43.676  0.00  0.00    +0.000 HD
ATOM     23  H   UNL     1      47.025  32.690  43.598  0.00  0.00    +0.000 HD
ATOM     24  H   UNL     1      45.230  32.881  43.469  0.00  0.00    +0.000 HD
BRANCH  14  25
ATOM     25  C   UNL     1      44.521  35.272  42.049  0.00  0.00    +0.000 C 
ATOM     26  F   UNL     1      43.464  34.459  42.425  0.00  0.00    +0.000 F 
ATOM     27  F   UNL     1      43.970  36.503  41.703  0.00  0.00    +0.000 F 
ATOM     28  F   UNL     1      45.221  34.820  40.947  0.00  0.00    +0.000 F 
ENDBRANCH  14  25
ENDBRANCH   2  11
BRANCH   3  29
ATOM     29  C   UNL     1      46.746  30.594  44.896  0.00  0.00    +0.000 A 
ATOM     30  C   UNL     1      46.356  29.917  43.785  0.00  0.00    +0.000 A 
ATOM     31  C   UNL     1      47.513  29.469  43.127  0.00  0.00    +0.000 A 
ATOM     32  N   UNL     1      48.537  29.894  43.868  0.00  0.00    +0.000 N 
ATOM     33  N   UNL     1      48.110  30.560  44.918  0.00  0.00    +0.000 NA
ATOM     34  H   UNL     1      45.300  29.839  43.599  0.00  0.00    +0.000 HD
ATOM     35  H   UNL     1      47.432  28.904  42.215  0.00  0.00    +0.000 HD
BRANCH  32  36
ATOM     36  C   UNL     1      49.913  29.624  43.508  0.00  0.00    +0.000 A 
ATOM     37  C   UNL     1      50.770  28.731  44.162  0.00  0.00    +0.000 A 
ATOM     38  S   UNL     1      52.326  28.935  43.137  0.00  0.00    +0.000 S 
ATOM     39  C   UNL     1      51.474  30.209  42.019  0.00  0.00    +0.000 A 
ATOM     40  H   UNL     1      52.062  30.626  41.219  0.00  0.00    +0.000 HD
ATOM     41  N   UNL     1      50.326  30.315  42.464  0.00  0.00    +0.000 NA
ENDBRANCH  32  36
ENDBRANCH   3  29
TORSDOF 4
