
 OpenBabel03232518083D

 22 23  0  0  0  0  0  0  0  0999 V2000
   48.2540   34.0640   41.1700 C   0  0  0  0  0  0  0  0  0  0  0  0
   48.9150   32.9070   40.6910 C   0  0  0  0  0  0  0  0  0  0  0  0
   48.2400   32.0800   39.7930 C   0  0  0  0  0  0  0  0  0  0  0  0
   46.9740   32.4300   39.4210 N   0  0  0  0  0  0  0  0  0  0  0  0
   46.3910   33.5390   39.9050 C   0  0  0  0  0  0  0  0  0  0  0  0
   47.0030   34.3460   40.7590 N   0  0  0  0  0  0  0  0  0  0  0  0
   49.9100   32.6060   40.9650 H   0  0  0  0  0  0  0  0  0  0  0  0
   45.3840   33.7470   39.5610 H   0  0  0  0  0  0  0  0  0  0  0  0
   49.0920   34.8450   42.1160 C   0  0  0  0  0  0  0  0  0  0  0  0
   50.0640   34.3270   42.2190 H   0  0  0  0  0  0  0  0  0  0  0  0
   48.6020   34.9060   43.0890 H   0  0  0  0  0  0  0  0  0  0  0  0
   49.2730   36.2660   41.6020 C   0  0  0  0  0  0  0  0  0  0  0  0
   49.6640   36.2770   40.5730 H   0  0  0  0  0  0  0  0  0  0  0  0
   48.2610   36.7260   41.6190 H   0  0  0  0  0  0  0  0  0  0  0  0
   49.9610   36.8050   42.2730 H   0  0  0  0  0  0  0  0  0  0  0  0
   48.9870   30.6190   39.1450 S   0  0  0  0  0  0  0  0  0  0  0  0
   50.7420   30.9270   39.0040 C   0  0  0  0  0  0  0  0  0  0  0  0
   51.6340   30.4690   40.0630 C   0  0  0  0  0  0  0  0  0  0  0  0
   53.3110   31.0320   39.4310 S   0  0  0  0  0  0  0  0  0  0  0  0
   52.4830   31.7640   37.8840 C   0  0  0  0  0  0  0  0  0  0  0  0
   52.9400   32.3170   36.9760 H   0  0  0  0  0  0  0  0  0  0  0  0
   51.3400   31.5510   37.9990 N   0  0  0  0  0  0  0  0  0  0  0  0
  1  9  1  0  0  0  0
  2  7  1  0  0  0  0
  2  1  2  0  0  0  0
  3  2  1  0  0  0  0
  4  3  2  0  0  0  0
  4  5  1  0  0  0  0
  5  6  2  0  0  0  0
  6  1  1  0  0  0  0
  8  5  1  0  0  0  0
  9 10  1  0  0  0  0
  9 11  1  0  0  0  0
 12 14  1  0  0  0  0
 12  9  1  0  0  0  0
 12 15  1  0  0  0  0
 13 12  1  0  0  0  0
 16  3  1  0  0  0  0
 17 16  1  0  0  0  0
 17 18  2  0  0  0  0
 19 18  1  0  0  0  0
 20 22  2  0  0  0  0
 20 19  1  0  0  0  0
 21 20  1  0  0  0  0
 22 17  1  0  0  0  0
M  END
>  <minimizedAffinity>
-3.1080749

>  <minimizedRMSD>
8.00889492

$$$$
