
 OpenBabel03232517363D

 19 20  0  0  0  0  0  0  0  0999 V2000
   44.1720   35.7560   42.0780 C   0  0  0  0  0  0  0  0  0  0  0  0
   43.3120   34.7680   41.6010 C   0  0  0  0  0  0  0  0  0  0  0  0
   43.6280   33.4280   41.8210 C   0  0  0  0  0  0  0  0  0  0  0  0
   44.7870   33.1530   42.5050 N   0  0  0  0  0  0  0  0  0  0  0  0
   45.5870   34.1240   42.9470 C   0  0  0  0  0  0  0  0  0  0  0  0
   45.2940   35.4090   42.7430 N   0  0  0  0  0  0  0  0  0  0  0  0
   43.9350   36.8000   41.9110 H   0  0  0  0  0  0  0  0  0  0  0  0
   46.5040   33.8870   43.4900 H   0  0  0  0  0  0  0  0  0  0  0  0
   42.1570   35.1920   40.9170 N   0  0  0  0  0  0  0  0  0  0  0  0
   42.0930   35.2490   39.6270 N   0  0  0  0  0  0  0  0  0  0  0  0
   40.8770   35.6870   39.2130 C   0  0  0  0  0  0  0  0  0  0  0  0
   40.1910   35.8960   40.4040 C   0  0  0  0  0  0  0  0  0  0  0  0
   41.0040   35.5820   41.4860 C   0  0  0  0  0  0  0  0  0  0  0  0
   40.5470   35.8310   38.1920 H   0  0  0  0  0  0  0  0  0  0  0  0
   39.1540   36.2580   40.4750 H   0  0  0  0  0  0  0  0  0  0  0  0
   40.7690   35.6350   42.5480 H   0  0  0  0  0  0  0  0  0  0  0  0
   42.7380   32.3680   41.3250 C   0  0  0  0  0  0  0  0  0  0  0  0
   42.6550   31.1950   42.2820 C   0  0  0  0  0  0  0  0  0  0  0  0
   42.2090   30.3480   41.7080 H   0  0  0  0  0  0  0  0  0  0  0  0
  1  6  1  0  0  0  0
  2  3  1  0  0  0  0
  2  1  2  0  0  0  0
  3  4  2  0  0  0  0
  4  5  1  0  0  0  0
  5  8  1  0  0  0  0
  6  5  2  0  0  0  0
  7  1  1  0  0  0  0
  9 13  1  0  0  0  0
  9  2  1  0  0  0  0
 10  9  1  0  0  0  0
 11 10  2  0  0  0  0
 11 12  1  0  0  0  0
 12 15  1  0  0  0  0
 12 13  2  0  0  0  0
 13 16  1  0  0  0  0
 14 11  1  0  0  0  0
 17  3  1  0  0  0  0
 17 18  1  0  0  0  0
 19 18  1  0  0  0  0
M  END
>  <minimizedAffinity>
-3.48978376

>  <minimizedRMSD>
2.4175334

$$$$
