
 OpenBabel03232520593D

 41 44  0  0  1  0  0  0  0  0999 V2000
   45.3130   32.8950   47.5050 C   0  0  0  0  0  0  0  0  0  0  0  0
   45.9070   32.6440   46.3100 C   0  0  0  0  0  0  0  0  0  0  0  0
   46.2150   31.3000   46.0830 C   0  0  0  0  0  0  0  0  0  0  0  0
   45.9510   30.3070   46.9700 N   0  0  0  0  0  0  0  0  0  0  0  0
   45.3430   30.6130   48.1770 C   0  0  0  0  0  0  0  0  0  0  0  0
   45.0420   31.8860   48.4130 N   0  0  0  0  0  0  0  0  0  0  0  0
   45.0650   29.6030   49.1290 N   0  0  0  0  0  0  0  0  0  0  0  0
   45.0370   33.9000   47.7840 H   0  0  0  0  0  0  0  0  0  0  0  0
   44.5420   28.8280   48.6260 H   0  0  0  0  0  0  0  0  0  0  0  0
   45.4430   29.8800   50.0710 H   0  0  0  0  0  0  0  0  0  0  0  0
   46.1590   33.5950   45.2800 C   0  0  2  0  0  0  0  0  0  0  0  0
   44.9480   34.6880   45.5080 C   0  0  0  0  0  0  0  0  0  0  0  0
   44.7200   35.6160   44.4360 C   0  0  0  0  0  0  0  0  0  0  0  0
   45.5230   35.5450   43.2140 C   0  0  1  0  0  0  0  0  0  0  0  0
   46.5810   34.5390   43.1650 C   0  0  0  0  0  0  0  0  0  0  0  0
   46.1310   33.3080   43.9180 C   0  0  0  0  0  0  0  0  0  0  0  0
   46.9740   34.3070   45.6140 H   0  0  0  0  0  0  0  0  0  0  0  0
   44.2680   34.8410   46.3360 H   0  0  0  0  0  0  0  0  0  0  0  0
   43.9540   36.3370   44.5420 H   0  0  0  0  0  0  0  0  0  0  0  0
   45.9390   36.5570   43.0300 H   0  0  0  0  0  0  0  0  0  0  0  0
   47.5840   34.8700   43.5240 H   0  0  0  0  0  0  0  0  0  0  0  0
   46.7600   34.2960   42.0750 H   0  0  0  0  0  0  0  0  0  0  0  0
   46.9840   32.6550   43.5910 H   0  0  0  0  0  0  0  0  0  0  0  0
   45.1740   32.9740   43.4640 H   0  0  0  0  0  0  0  0  0  0  0  0
   44.5130   35.2780   42.0600 C   0  0  0  0  0  0  0  0  0  0  0  0
   43.4550   34.4720   42.4520 F   0  0  0  0  0  0  0  0  0  0  0  0
   43.9600   36.5120   41.7300 F   0  0  0  0  0  0  0  0  0  0  0  0
   45.1880   34.8220   40.9430 F   0  0  0  0  0  0  0  0  0  0  0  0
   46.9000   30.6160   45.0020 C   0  0  0  0  0  0  0  0  0  0  0  0
   46.6060   29.8180   43.9440 C   0  0  0  0  0  0  0  0  0  0  0  0
   47.8030   29.4680   43.3100 C   0  0  0  0  0  0  0  0  0  0  0  0
   48.7650   30.0710   44.0120 N   0  0  0  0  0  0  0  0  0  0  0  0
   48.2570   30.7520   45.0130 N   0  0  0  0  0  0  0  0  0  0  0  0
   45.5680   29.5910   43.7680 H   0  0  0  0  0  0  0  0  0  0  0  0
   47.7930   28.8410   42.4510 H   0  0  0  0  0  0  0  0  0  0  0  0
   50.1120   29.8710   43.5630 C   0  0  0  0  0  0  0  0  0  0  0  0
   51.1590   29.3510   44.2730 C   0  0  0  0  0  3  0  0  0  0  0  0
   52.2510   29.3640   43.4030 C   0  0  0  0  0  3  0  0  0  0  0  0
   51.7850   29.8990   42.2080 C   0  0  0  0  0  0  0  0  0  0  0  0
   52.5320   29.9710   41.4280 H   0  0  0  0  0  0  0  0  0  0  0  0
   50.5080   30.1900   42.3340 O   0  0  0  0  0  0  0  0  0  0  0  0
  1  8  1  0  0  0  0
  1  6  1  0  0  0  0
  2  1  2  0  0  0  0
  3  2  1  0  0  0  0
  3  4  2  0  0  0  0
  4  5  1  0  0  0  0
  5  6  2  0  0  0  0
  5  7  1  0  0  0  0
  7 10  1  0  0  0  0
  9  7  1  0  0  0  0
 11 12  1  0  0  0  0
 11 17  1  1  0  0  0
 11  2  1  0  0  0  0
 12 18  1  0  0  0  0
 13 19  1  0  0  0  0
 13 12  2  0  0  0  0
 14 20  1  6  0  0  0
 14 13  1  0  0  0  0
 15 14  1  0  0  0  0
 15 21  1  0  0  0  0
 15 16  1  0  0  0  0
 16 11  1  0  0  0  0
 22 15  1  0  0  0  0
 23 16  1  0  0  0  0
 24 16  1  0  0  0  0
 25 26  1  0  0  0  0
 25 14  1  0  0  0  0
 27 25  1  0  0  0  0
 28 25  1  0  0  0  0
 29 33  2  0  0  0  0
 29  3  1  0  0  0  0
 30 29  1  0  0  0  0
 31 30  2  0  0  0  0
 31 32  1  0  0  0  0
 32 33  1  0  0  0  0
 34 30  1  0  0  0  0
 35 31  1  0  0  0  0
 36 32  1  0  0  0  0
 36 37  2  0  0  0  0
 38 37  1  0  0  0  0
 39 41  1  0  0  0  0
 39 38  2  0  0  0  0
 40 39  1  0  0  0  0
 41 36  1  0  0  0  0
M  END
>  <minimizedAffinity>
-5.69473696

>  <minimizedRMSD>
0.306048989

$$$$
