
 OpenBabel03232519063D

 37 39  0  0  0  0  0  0  0  0999 V2000
   45.6540   33.9630   41.9370 C   0  0  0  0  0  0  0  0  0  0  0  0
   45.4630   33.8840   45.6020 C   0  0  0  0  0  0  0  0  0  0  0  0
   44.7520   35.0280   45.8200 C   0  0  0  0  0  0  0  0  0  0  0  0
   44.4750   35.6620   44.1390 S   0  0  0  0  0  0  0  0  0  0  0  0
   45.4230   34.1850   43.4020 C   0  0  0  0  0  0  0  0  0  0  0  0
   45.7130   33.6070   44.3640 N   0  0  0  0  0  0  0  0  0  0  0  0
   44.4170   35.4770   46.7590 H   0  0  0  0  0  0  0  0  0  0  0  0
   45.5220   31.9960   48.9220 C   0  0  0  0  0  0  0  0  0  0  0  0
   45.0800   32.7740   47.8580 C   0  0  0  0  0  0  0  0  0  0  0  0
   45.8890   33.0570   46.7680 C   0  0  0  0  0  0  0  0  0  0  0  0
   47.1330   32.5210   46.8190 N   0  0  0  0  0  0  0  0  0  0  0  0
   47.5810   31.7650   47.8400 C   0  0  0  0  0  0  0  0  0  0  0  0
   46.7630   31.5200   48.8710 N   0  0  0  0  0  0  0  0  0  0  0  0
   44.8310   31.8270   49.7230 H   0  0  0  0  0  0  0  0  0  0  0  0
   44.0800   33.1880   47.8470 H   0  0  0  0  0  0  0  0  0  0  0  0
   48.5850   31.3650   47.8250 H   0  0  0  0  0  0  0  0  0  0  0  0
   44.4200   34.4260   41.2260 C   0  0  0  0  0  0  0  0  0  0  0  0
   43.5040   34.3930   41.8690 H   0  0  0  0  0  0  0  0  0  0  0  0
   44.2290   33.7120   40.4030 H   0  0  0  0  0  0  0  0  0  0  0  0
   44.4940   35.4660   40.8490 H   0  0  0  0  0  0  0  0  0  0  0  0
   45.8820   32.4860   41.7530 C   0  0  0  0  0  0  0  0  0  0  0  0
   46.6810   32.1180   42.4200 H   0  0  0  0  0  0  0  0  0  0  0  0
   46.0060   32.2050   40.6880 H   0  0  0  0  0  0  0  0  0  0  0  0
   44.9510   31.9300   42.0690 H   0  0  0  0  0  0  0  0  0  0  0  0
   46.8440   34.7490   41.4670 C   0  0  0  0  0  0  0  0  0  0  0  0
   46.6290   35.0860   40.4200 H   0  0  0  0  0  0  0  0  0  0  0  0
   46.9250   35.7010   42.0410 H   0  0  0  0  0  0  0  0  0  0  0  0
   48.0830   34.0250   41.4770 N   0  0  0  0  0  0  0  0  0  0  0  0
   48.8710   33.9970   42.5890 C   0  0  0  0  0  0  0  0  0  0  0  0
   50.0690   33.3180   42.6550 C   0  0  0  0  0  0  0  0  0  0  0  0
   50.5270   32.6220   41.5630 C   0  0  0  0  0  0  0  0  0  0  0  0
   51.7560   31.9240   41.6250 N   0  0  0  0  0  0  0  0  0  0  0  0
   49.7480   32.6520   40.4700 N   0  0  0  0  0  0  0  0  0  0  0  0
   48.5960   33.3220   40.4500 C   0  0  0  0  0  0  0  0  0  0  0  0
   47.9340   33.2930   39.3810 O   0  0  0  0  0  0  0  0  0  0  0  0
   51.9840   30.9400   41.3370 H   0  0  0  0  0  0  0  0  0  0  0  0
   52.5450   32.4950   42.0210 H   0  0  0  0  0  0  0  0  0  0  0  0
  1  5  1  0  0  0  0
  2  3  2  0  0  0  0
  2 10  1  0  0  0  0
  3  7  1  0  0  0  0
  4  3  1  0  0  0  0
  5  4  1  0  0  0  0
  5  6  2  0  0  0  0
  6  2  1  0  0  0  0
  8 14  1  0  0  0  0
  9  8  2  0  0  0  0
 10 11  2  0  0  0  0
 10  9  1  0  0  0  0
 11 12  1  0  0  0  0
 12 13  2  0  0  0  0
 13  8  1  0  0  0  0
 15  9  1  0  0  0  0
 16 12  1  0  0  0  0
 17 18  1  0  0  0  0
 17  1  1  0  0  0  0
 19 17  1  0  0  0  0
 20 17  1  0  0  0  0
 21  1  1  0  0  0  0
 21 24  1  0  0  0  0
 21 22  1  0  0  0  0
 23 21  1  0  0  0  0
 25 28  1  0  0  0  0
 25  1  1  0  0  0  0
 25 27  1  0  0  0  0
 26 25  1  0  0  0  0
 28 29  1  0  0  0  0
 29 30  2  0  0  0  0
 31 32  1  0  0  0  0
 31 30  1  0  0  0  0
 32 37  1  0  0  0  0
 33 31  2  0  0  0  0
 34 33  1  0  0  0  0
 34 28  1  0  0  0  0
 35 34  2  0  0  0  0
 36 32  1  0  0  0  0
M  END
>  <minimizedAffinity>
-5.56143379

>  <minimizedRMSD>
3.62460136

$$$$
