
 OpenBabel03232520053D

 27 29  0  0  0  0  0  0  0  0999 V2000
   46.1900   30.3730   49.1080 N   0  0  0  0  0  0  0  0  0  0  0  0
   45.3330   31.4000   49.4240 C   0  0  0  0  0  0  0  0  0  0  0  0
   45.2740   32.2190   48.3480 N   0  0  0  0  0  0  0  0  0  0  0  0
   46.0730   31.6950   47.4110 C   0  0  0  0  0  0  0  0  0  0  0  0
   46.3110   32.2030   46.1500 C   0  0  0  0  0  0  0  0  0  0  0  0
   47.1660   31.5010   45.3550 N   0  0  0  0  0  0  0  0  0  0  0  0
   47.7530   30.3660   45.7710 C   0  0  0  0  0  0  0  0  0  0  0  0
   47.4930   29.9100   47.0030 N   0  0  0  0  0  0  0  0  0  0  0  0
   46.6800   30.5260   47.8360 C   0  0  0  0  0  0  0  0  0  0  0  0
   46.4980   29.5370   49.6810 H   0  0  0  0  0  0  0  0  0  0  0  0
   44.8360   31.4710   50.3820 H   0  0  0  0  0  0  0  0  0  0  0  0
   45.6430   33.6650   45.4260 S   0  0  0  0  0  0  0  0  0  0  0  0
   47.7960   34.7340   42.3350 C   0  0  0  0  0  0  0  0  0  0  0  0
   47.0740   34.3650   41.2060 C   0  0  0  0  0  0  0  0  0  0  0  0
   45.8520   33.7500   41.4170 C   0  0  0  0  0  0  0  0  0  0  0  0
   45.4190   33.5390   42.6960 N   0  0  0  0  0  0  0  0  0  0  0  0
   46.1660   33.9200   43.7570 C   0  0  0  0  0  0  0  0  0  0  0  0
   47.3340   34.5070   43.5620 N   0  0  0  0  0  0  0  0  0  0  0  0
   47.4980   34.5740   40.2340 H   0  0  0  0  0  0  0  0  0  0  0  0
   45.2710   33.4540   40.5560 H   0  0  0  0  0  0  0  0  0  0  0  0
   49.0980   35.3890   42.1370 C   0  0  0  0  0  0  0  0  0  0  0  0
   49.2580   36.1630   41.1620 O   0  0  0  0  0  0  0  0  0  0  0  0
   50.1210   35.1430   43.0210 O   0  0  0  0  0  0  0  0  0  0  0  0
   51.0190   35.5680   42.8010 H   0  0  0  0  0  0  0  0  0  0  0  0
   48.6920   29.5670   44.9400 C   0  0  0  0  0  0  0  0  0  0  0  0
   48.8540   30.3020   43.6110 C   0  0  0  0  0  0  0  0  0  0  0  0
   47.9830   30.0420   42.9690 H   0  0  0  0  0  0  0  0  0  0  0  0
  1  2  1  0  0  0  0
  1 10  1  0  0  0  0
  2 11  1  0  0  0  0
  3  2  2  0  0  0  0
  4  9  1  0  0  0  0
  4  3  1  0  0  0  0
  5  4  2  0  0  0  0
  6  7  2  0  0  0  0
  6  5  1  0  0  0  0
  7  8  1  0  0  0  0
  8  9  2  0  0  0  0
  9  1  1  0  0  0  0
 12  5  1  0  0  0  0
 13 18  1  0  0  0  0
 14 15  1  0  0  0  0
 14 13  2  0  0  0  0
 15 16  2  0  0  0  0
 16 17  1  0  0  0  0
 17 12  1  0  0  0  0
 18 17  2  0  0  0  0
 19 14  1  0  0  0  0
 20 15  1  0  0  0  0
 21 13  1  0  0  0  0
 21 23  1  0  0  0  0
 22 21  2  0  0  0  0
 24 23  1  0  0  0  0
 25  7  1  0  0  0  0
 26 25  1  0  0  0  0
 27 26  1  0  0  0  0
M  END
>  <minimizedAffinity>
-5.62887049

>  <minimizedRMSD>
0.126856759

$$$$
