
 OpenBabel03232520313D

 44 48  0  0  1  0  0  0  0  0999 V2000
   46.8240   34.5380   41.3600 C   0  0  0  0  0  0  0  0  0  0  0  0
   48.1060   34.9300   40.9820 C   0  0  0  0  0  0  0  0  0  0  0  0
   48.3470   34.5730   39.7270 N   0  0  0  0  0  0  0  0  0  0  0  0
   47.2400   33.9550   39.2770 C   0  0  0  0  0  0  0  0  0  0  0  0
   46.9660   33.3890   38.0290 C   0  0  0  0  0  0  0  0  0  0  0  0
   45.7490   32.8120   37.8230 C   0  0  0  0  0  0  0  0  0  0  0  0
   44.7430   32.7430   38.7730 C   0  0  0  0  0  0  0  0  0  0  0  0
   45.0620   33.3110   39.9790 C   0  0  0  0  0  0  0  0  0  0  0  0
   46.2590   33.9100   40.2680 C   0  0  0  0  0  0  0  0  0  0  0  0
   49.2120   34.7140   39.1310 H   0  0  0  0  0  0  0  0  0  0  0  0
   47.7010   33.4070   37.2450 H   0  0  0  0  0  0  0  0  0  0  0  0
   45.5680   32.3820   36.8410 H   0  0  0  0  0  0  0  0  0  0  0  0
   43.7810   32.2770   38.5820 H   0  0  0  0  0  0  0  0  0  0  0  0
   44.3420   33.3150   40.8050 H   0  0  0  0  0  0  0  0  0  0  0  0
   44.7360   36.0440   44.0610 C   0  0  0  0  0  0  0  0  0  0  0  0
   45.3610   35.8650   42.8110 C   0  0  0  0  0  0  0  0  0  0  0  0
   46.1680   34.7370   42.6530 C   0  0  0  0  0  0  0  0  0  0  0  0
   46.3250   33.8590   43.6920 N   0  0  0  0  0  0  0  0  0  0  0  0
   45.6960   34.0850   44.8770 C   0  0  0  0  0  0  0  0  0  0  0  0
   44.9060   35.1690   45.0640 N   0  0  0  0  0  0  0  0  0  0  0  0
   44.1380   36.9450   44.0760 H   0  0  0  0  0  0  0  0  0  0  0  0
   45.2560   36.5370   41.9790 H   0  0  0  0  0  0  0  0  0  0  0  0
   45.8280   33.3800   45.6960 H   0  0  0  0  0  0  0  0  0  0  0  0
   49.0420   35.6420   41.8830 C   0  0  0  0  0  0  0  0  0  0  0  0
   49.6030   36.3720   41.2660 H   0  0  0  0  0  0  0  0  0  0  0  0
   48.4540   36.1900   42.6580 H   0  0  0  0  0  0  0  0  0  0  0  0
   49.9980   34.7050   42.5550 C   0  0  0  0  0  0  0  0  0  0  0  0
   49.7410   34.6350   43.6420 H   0  0  0  0  0  0  0  0  0  0  0  0
   51.0110   35.1610   42.5070 H   0  0  0  0  0  0  0  0  0  0  0  0
   50.0790   33.3480   41.9130 C   0  0  1  0  0  0  0  0  0  0  0  0
   50.9610   32.2770   42.3870 C   0  0  0  0  0  0  0  0  0  0  0  0
   49.5350   32.2040   42.8020 C   0  0  2  0  0  0  0  0  0  0  0  0
   49.7660   33.3000   40.8620 H   0  0  0  0  0  0  0  0  0  0  0  0
   51.7080   32.5930   43.1490 H   0  0  0  0  0  0  0  0  0  0  0  0
   51.3780   31.5620   41.6700 H   0  0  0  0  0  0  0  0  0  0  0  0
   49.3150   32.4390   43.8580 H   0  0  0  0  0  0  0  0  0  0  0  0
   48.7770   31.2410   42.2080 O   0  0  0  0  0  0  0  0  0  0  0  0
   47.5240   30.7770   42.4670 C   0  0  0  0  0  0  0  0  0  0  0  0
   47.2840   30.5480   43.8270 C   0  0  0  0  0  0  0  0  0  0  0  0
   46.0510   30.0720   44.2590 C   0  0  0  0  0  0  0  0  0  0  0  0
   45.0770   29.8330   43.3350 N   0  0  0  0  0  0  0  0  0  0  0  0
   45.3190   30.0600   42.0150 C   0  0  0  0  0  0  0  0  0  0  0  0
   44.5750   29.8840   41.2370 H   0  0  0  0  0  0  0  0  0  0  0  0
   46.5080   30.5150   41.6170 N   0  0  0  0  0  0  0  0  0  0  0  0
  1 17  1  0  0  0  0
  2  1  2  0  0  0  0
  2 24  1  0  0  0  0
  3  2  1  0  0  0  0
  4  3  1  0  0  0  0
  4  9  1  0  0  0  0
  5  4  2  0  0  0  0
  6  5  1  0  0  0  0
  6  7  2  0  0  0  0
  7  8  1  0  0  0  0
  8  9  2  0  0  0  0
  8 14  1  0  0  0  0
  9  1  1  0  0  0  0
 10  3  1  0  0  0  0
 11  5  1  0  0  0  0
 12  6  1  0  0  0  0
 13  7  1  0  0  0  0
 15 21  1  0  0  0  0
 15 20  1  0  0  0  0
 16 15  2  0  0  0  0
 17 16  1  0  0  0  0
 17 18  2  0  0  0  0
 18 19  1  0  0  0  0
 19 20  2  0  0  0  0
 19 23  1  0  0  0  0
 22 16  1  0  0  0  0
 24 27  1  0  0  0  0
 24 26  1  0  0  0  0
 25 24  1  0  0  0  0
 27 28  1  0  0  0  0
 29 27  1  0  0  0  0
 30 33  1  6  0  0  0
 30 31  1  0  0  0  0
 30 27  1  0  0  0  0
 30 32  1  0  0  0  0
 31 32  1  0  0  0  0
 31 34  1  0  0  0  0
 32 36  1  1  0  0  0
 35 31  1  0  0  0  0
 37 38  1  0  0  0  0
 37 32  1  0  0  0  0
 38 39  1  0  0  0  0
 39 40  2  0  0  0  0
 41 40  1  0  0  0  0
 42 41  2  0  0  0  0
 43 42  1  0  0  0  0
 44 42  1  0  0  0  0
 44 38  2  0  0  0  0
M  END
>  <minimizedAffinity>
-5.53768444

>  <minimizedRMSD>
0.847245634

$$$$
