
 OpenBabel03232519233D

 39 42  0  0  1  0  0  0  0  0999 V2000
   47.0290   30.7680   47.5710 N   0  0  0  0  0  0  0  0  0  0  0  0
   47.0340   31.1010   49.0000 C   0  0  0  0  0  0  0  0  0  0  0  0
   45.8960   32.0620   49.0880 C   0  0  0  0  0  0  0  0  0  0  0  0
   44.8400   31.4300   48.2360 C   0  0  0  0  0  0  0  0  0  0  0  0
   45.7090   30.7170   47.1760 C   0  0  2  0  0  0  0  0  0  0  0  0
   47.6890   31.4340   47.1610 H   0  0  0  0  0  0  0  0  0  0  0  0
   47.9930   31.5730   49.3160 H   0  0  0  0  0  0  0  0  0  0  0  0
   46.8390   30.1740   49.5850 H   0  0  0  0  0  0  0  0  0  0  0  0
   45.5570   32.0880   50.1550 H   0  0  0  0  0  0  0  0  0  0  0  0
   46.2100   33.0610   48.7340 H   0  0  0  0  0  0  0  0  0  0  0  0
   44.2490   32.2340   47.7520 H   0  0  0  0  0  0  0  0  0  0  0  0
   44.2680   30.7520   48.8570 H   0  0  0  0  0  0  0  0  0  0  0  0
   45.1310   29.3300   47.1180 C   0  0  0  0  0  0  0  0  0  0  0  0
   45.1580   28.1610   47.8560 C   0  0  0  0  0  0  0  0  0  0  0  0
   44.3800   27.2430   47.2160 C   0  0  0  0  0  0  0  0  0  0  0  0
   43.8800   27.8270   46.1060 N   0  0  0  0  0  0  0  0  0  0  0  0
   44.3330   29.0870   46.0470 N   0  0  0  0  0  0  0  0  0  0  0  0
   45.7690   28.2120   48.7570 H   0  0  0  0  0  0  0  0  0  0  0  0
   44.2950   26.2620   47.6680 H   0  0  0  0  0  0  0  0  0  0  0  0
   43.2530   27.2910   45.4680 H   0  0  0  0  0  0  0  0  0  0  0  0
   45.5290   31.1890   45.8970 O   0  0  0  0  0  0  0  0  0  0  0  0
   46.3620   32.1490   45.2460 C   0  0  0  0  0  0  0  0  0  0  0  0
   47.5180   31.8480   44.9640 O   0  0  0  0  0  0  0  0  0  0  0  0
   44.6170   35.3330   45.6740 C   0  0  0  0  0  0  0  0  0  0  0  0
   44.5260   35.8270   44.3620 C   0  0  0  0  0  0  0  0  0  0  0  0
   45.0630   35.0670   43.3380 C   0  0  0  0  0  0  0  0  0  0  0  0
   45.6520   33.8750   43.6680 N   0  0  0  0  0  0  0  0  0  0  0  0
   45.7080   33.4490   44.9740 C   0  0  0  0  0  0  0  0  0  0  0  0
   45.1950   34.1720   45.9560 N   0  0  0  0  0  0  0  0  0  0  0  0
   44.1980   35.9220   46.4830 H   0  0  0  0  0  0  0  0  0  0  0  0
   44.0520   36.7760   44.1350 H   0  0  0  0  0  0  0  0  0  0  0  0
   45.0260   35.4590   42.0230 O   0  0  0  0  0  0  0  0  0  0  0  0
   44.0300   35.0080   41.1970 C   0  0  0  0  0  0  0  0  0  0  0  0
   42.7430   35.5260   41.2350 C   0  0  0  0  0  0  0  0  0  0  0  0
   41.7250   35.0710   40.3960 C   0  0  0  0  0  0  0  0  0  0  0  0
   42.1650   34.0690   39.5560 C   0  0  0  0  0  0  0  0  0  0  0  0
   41.4430   33.6350   38.8490 H   0  0  0  0  0  0  0  0  0  0  0  0
   43.4230   33.5300   39.4870 C   0  0  0  0  0  0  0  0  0  0  0  0
   44.3400   34.0300   40.3320 N   0  0  0  0  0  0  0  0  0  0  0  0
  1  2  1  0  0  0  0
  2  3  1  0  0  0  0
  2  7  1  0  0  0  0
  2  8  1  0  0  0  0
  3  9  1  0  0  0  0
  4 12  1  0  0  0  0
  4  3  1  0  0  0  0
  5 21  1  6  0  0  0
  5  1  1  0  0  0  0
  5  4  1  0  0  0  0
  6  1  1  0  0  0  0
 10  3  1  0  0  0  0
 11  4  1  0  0  0  0
 13  5  1  0  0  0  0
 13 14  1  0  0  0  0
 14 18  1  0  0  0  0
 15 19  1  0  0  0  0
 15 14  2  0  0  0  0
 16 15  1  0  0  0  0
 17 16  1  0  0  0  0
 17 13  2  0  0  0  0
 20 16  1  0  0  0  0
 22 21  1  0  0  0  0
 23 22  2  0  0  0  0
 24 29  1  0  0  0  0
 24 30  1  0  0  0  0
 25 24  2  0  0  0  0
 26 27  2  0  0  0  0
 26 25  1  0  0  0  0
 27 28  1  0  0  0  0
 28 22  1  0  0  0  0
 28 29  2  0  0  0  0
 31 25  1  0  0  0  0
 32 26  1  0  0  0  0
 33 34  1  0  0  0  0
 33 32  1  0  0  0  0
 35 34  2  0  0  0  0
 36 35  1  0  0  0  0
 37 36  1  0  0  0  0
 38 36  2  0  0  0  0
 38 39  1  0  0  0  0
 39 33  2  0  0  0  0
M  END
>  <minimizedAffinity>
-5.78125858

>  <minimizedRMSD>
1.6138221

$$$$
