
 OpenBabel03232520593D

 47 51  0  0  1  0  0  0  0  0999 V2000
   45.4490   32.9300   47.5830 C   0  0  0  0  0  0  0  0  0  0  0  0
   45.9390   32.6300   46.3510 C   0  0  0  0  0  0  0  0  0  0  0  0
   46.1200   31.2600   46.1160 C   0  0  0  0  0  0  0  0  0  0  0  0
   45.8340   30.2930   47.0240 N   0  0  0  0  0  0  0  0  0  0  0  0
   45.3350   30.6510   48.2660 C   0  0  0  0  0  0  0  0  0  0  0  0
   45.1550   31.9480   48.5160 N   0  0  0  0  0  0  0  0  0  0  0  0
   45.0350   29.6680   49.2340 N   0  0  0  0  0  0  0  0  0  0  0  0
   45.2750   33.9540   47.8690 H   0  0  0  0  0  0  0  0  0  0  0  0
   44.2890   28.9780   48.9660 H   0  0  0  0  0  0  0  0  0  0  0  0
   45.5170   29.6230   50.1600 H   0  0  0  0  0  0  0  0  0  0  0  0
   46.6740   30.5230   44.9950 C   0  0  0  0  0  0  0  0  0  0  0  0
   46.2360   29.7710   43.9510 C   0  0  0  0  0  0  0  0  0  0  0  0
   47.3630   29.3040   43.2500 C   0  0  0  0  0  0  0  0  0  0  0  0
   48.4140   29.7980   43.9040 N   0  0  0  0  0  0  0  0  0  0  0  0
   48.0390   30.5180   44.9330 N   0  0  0  0  0  0  0  0  0  0  0  0
   45.1660   29.6630   43.8390 H   0  0  0  0  0  0  0  0  0  0  0  0
   47.2020   28.6850   42.3830 H   0  0  0  0  0  0  0  0  0  0  0  0
   49.7000   29.4570   43.3720 C   0  0  0  0  0  0  0  0  0  0  0  0
   50.2040   28.2720   43.7950 N   0  0  0  0  0  0  0  0  0  0  0  0
   51.4120   27.8680   43.3440 C   0  0  0  0  0  3  0  0  0  0  0  0
   52.1720   28.5930   42.4730 N   0  0  0  0  0  0  0  0  0  0  0  0
   51.6610   29.7670   42.0610 C   0  0  0  0  0  0  0  0  0  0  0  0
   52.3770   30.5630   41.1710 C   0  0  0  0  0  3  0  0  0  0  0  0
   51.8500   31.7700   40.7480 C   0  0  0  0  0  0  0  0  0  0  0  0
   52.4460   32.3520   40.0560 H   0  0  0  0  0  0  0  0  0  0  0  0
   50.6130   32.1870   41.2070 C   0  0  0  0  0  0  0  0  0  0  0  0
   50.2100   33.1470   40.8600 H   0  0  0  0  0  0  0  0  0  0  0  0
   49.8590   31.4230   42.0980 C   0  0  0  0  0  3  0  0  0  0  0  0
   50.4290   30.2280   42.4900 C   0  0  0  0  0  0  0  0  0  0  0  0
   46.1960   33.5540   45.3000 C   0  0  2  0  0  0  0  0  0  0  0  0
   44.9870   34.6570   45.5010 C   0  0  0  0  0  0  0  0  0  0  0  0
   44.7630   35.5630   44.4080 C   0  0  0  0  0  0  0  0  0  0  0  0
   45.5730   35.4580   43.1880 C   0  0  1  0  0  0  0  0  0  0  0  0
   46.6200   34.4440   43.1640 C   0  0  0  0  0  0  0  0  0  0  0  0
   46.1580   33.2340   43.9430 C   0  0  0  0  0  0  0  0  0  0  0  0
   47.0140   34.2690   45.6110 H   0  0  0  0  0  0  0  0  0  0  0  0
   44.3070   34.8320   46.3250 H   0  0  0  0  0  0  0  0  0  0  0  0
   43.9980   36.2890   44.4970 H   0  0  0  0  0  0  0  0  0  0  0  0
   46.0030   36.4540   42.9520 H   0  0  0  0  0  0  0  0  0  0  0  0
   47.6210   34.7880   43.5420 H   0  0  0  0  0  0  0  0  0  0  0  0
   46.8290   34.1930   42.0830 H   0  0  0  0  0  0  0  0  0  0  0  0
   45.2000   32.8960   43.4940 H   0  0  0  0  0  0  0  0  0  0  0  0
   47.0070   32.5700   43.6280 H   0  0  0  0  0  0  0  0  0  0  0  0
   44.5590   35.1730   42.0400 C   0  0  0  0  0  0  0  0  0  0  0  0
   43.5400   34.3210   42.4240 F   0  0  0  0  0  0  0  0  0  0  0  0
   43.9520   36.3870   41.7340 F   0  0  0  0  0  0  0  0  0  0  0  0
   45.2390   34.7630   40.9090 F   0  0  0  0  0  0  0  0  0  0  0  0
  1  8  1  0  0  0  0
  1  6  1  0  0  0  0
  2  1  2  0  0  0  0
  3  2  1  0  0  0  0
  3  4  2  0  0  0  0
  4  5  1  0  0  0  0
  5  6  2  0  0  0  0
  5  7  1  0  0  0  0
  7 10  1  0  0  0  0
  9  7  1  0  0  0  0
 11  3  1  0  0  0  0
 12 11  1  0  0  0  0
 13 14  1  0  0  0  0
 13 12  2  0  0  0  0
 14 15  1  0  0  0  0
 15 11  2  0  0  0  0
 16 12  1  0  0  0  0
 17 13  1  0  0  0  0
 18 19  1  0  0  0  0
 18 14  1  0  0  0  0
 20 19  2  0  0  0  0
 21 20  1  0  0  0  0
 22 21  2  0  0  0  0
 22 29  1  0  0  0  0
 23 22  1  0  0  0  0
 24 23  2  0  0  0  0
 24 26  1  0  0  0  0
 25 24  1  0  0  0  0
 26 28  2  0  0  0  0
 27 26  1  0  0  0  0
 28 29  1  0  0  0  0
 29 18  2  0  0  0  0
 30 31  1  0  0  0  0
 30 36  1  1  0  0  0
 30  2  1  0  0  0  0
 31 37  1  0  0  0  0
 32 38  1  0  0  0  0
 32 31  2  0  0  0  0
 33 39  1  6  0  0  0
 33 32  1  0  0  0  0
 34 33  1  0  0  0  0
 34 40  1  0  0  0  0
 34 35  1  0  0  0  0
 35 30  1  0  0  0  0
 41 34  1  0  0  0  0
 42 35  1  0  0  0  0
 43 35  1  0  0  0  0
 44 45  1  0  0  0  0
 44 33  1  0  0  0  0
 46 44  1  0  0  0  0
 47 44  1  0  0  0  0
M  END
>  <minimizedAffinity>
-6.75505257

>  <minimizedRMSD>
0.203181818

$$$$
