REMARK  Name = 
REMARK  3 active torsions:
REMARK  status: ('A' for Active; 'I' for Inactive)
REMARK    1  A    between atoms: C_1  and  C_8
REMARK    2  A    between atoms: C_4  and  C_19
REMARK    3  A    between atoms: C_9  and  C_14
REMARK                            x       y       z     vdW  Elec       q    Type
REMARK                         _______ _______ _______ _____ _____    ______ ____
ROOT
ATOM      1  C   UNL     1      45.401  32.886  47.531  0.00  0.00    +0.000 A 
ATOM      2  C   UNL     1      45.923  32.639  46.301  0.00  0.00    +0.000 A 
ATOM      3  C   UNL     1      46.157  31.284  46.031  0.00  0.00    +0.000 A 
ATOM      4  N   UNL     1      45.891  30.282  46.906  0.00  0.00    +0.000 NA
ATOM      5  C   UNL     1      45.358  30.586  48.149  0.00  0.00    +0.000 A 
ATOM      6  N   UNL     1      45.127  31.869  48.431  0.00  0.00    +0.000 NA
ATOM      7  N   UNL     1      45.077  29.566  49.084  0.00  0.00    +0.000 N 
ATOM      8  H   UNL     1      45.186  33.895  47.843  0.00  0.00    +0.000 HD
ATOM      9  H   UNL     1      44.361  28.858  48.783  0.00  0.00    +0.000 HD
ATOM     10  H   UNL     1      45.545  29.512  50.016  0.00  0.00    +0.000 HD
ENDROOT
BRANCH   3  11
ATOM     11  C   UNL     1      46.756  30.599  44.900  0.00  0.00    +0.000 A 
ATOM     12  C   UNL     1      46.360  29.919  43.792  0.00  0.00    +0.000 A 
ATOM     13  C   UNL     1      47.514  29.466  43.126  0.00  0.00    +0.000 A 
ATOM     14  N   UNL     1      48.537  29.896  43.863  0.00  0.00    +0.000 N 
ATOM     15  N   UNL     1      48.122  30.565  44.911  0.00  0.00    +0.000 NA
ATOM     16  H   UNL     1      45.296  29.843  43.617  0.00  0.00    +0.000 HD
ATOM     17  H   UNL     1      47.387  28.901  42.217  0.00  0.00    +0.000 HD
ATOM     18  C   UNL     1      49.843  29.555  43.381  0.00  0.00    +0.000 A 
ATOM     19  N   UNL     1      49.867  28.656  42.367  0.00  0.00    +0.000 NA
ATOM     20  C   UNL     1      51.056  28.276  41.849  0.00  0.00    +0.000 A 
ATOM     21  N   UNL     1      52.256  28.749  42.291  0.00  0.00    +0.000 NA
ATOM     22  C   UNL     1      52.219  29.640  43.297  0.00  0.00    +0.000 A 
ATOM     23  C   UNL     1      53.404  30.169  43.803  0.00  0.00    +0.000 A 
ATOM     24  C   UNL     1      53.364  31.086  44.838  0.00  0.00    +0.000 A 
ATOM     25  H   UNL     1      54.312  31.468  45.196  0.00  0.00    +0.000 HD
ATOM     26  C   UNL     1      52.148  31.479  45.371  0.00  0.00    +0.000 A 
ATOM     27  H   UNL     1      52.135  32.207  46.192  0.00  0.00    +0.000 HD
ATOM     28  C   UNL     1      50.935  30.976  44.897  0.00  0.00    +0.000 A 
ATOM     29  C   UNL     1      51.030  30.064  43.864  0.00  0.00    +0.000 A 
ENDBRANCH   3  11
BRANCH   2  30
ATOM     30  C   UNL     1      46.164  33.601  45.280  0.00  0.00    +0.000 C 
ATOM     31  C   UNL     1      44.921  34.662  45.499  0.00  0.00    +0.000 C 
ATOM     32  C   UNL     1      44.682  35.593  44.431  0.00  0.00    +0.000 C 
ATOM     33  C   UNL     1      45.508  35.548  43.218  0.00  0.00    +0.000 C 
ATOM     34  C   UNL     1      46.585  34.566  43.177  0.00  0.00    +0.000 C 
ATOM     35  C   UNL     1      46.151  33.321  43.914  0.00  0.00    +0.000 C 
ATOM     36  H   UNL     1      46.957  34.330  45.622  0.00  0.00    +0.000 HD
ATOM     37  H   UNL     1      44.227  34.792  46.320  0.00  0.00    +0.000 HD
ATOM     38  H   UNL     1      43.895  36.293  44.532  0.00  0.00    +0.000 HD
ATOM     39  H   UNL     1      45.911  36.563  43.017  0.00  0.00    +0.000 HD
ATOM     40  H   UNL     1      47.571  34.928  43.577  0.00  0.00    +0.000 HD
ATOM     41  H   UNL     1      46.814  34.354  42.091  0.00  0.00    +0.000 HD
ATOM     42  H   UNL     1      45.208  32.968  43.444  0.00  0.00    +0.000 HD
ATOM     43  H   UNL     1      47.022  32.692  43.590  0.00  0.00    +0.000 HD
BRANCH  33  44
ATOM     44  C   UNL     1      44.516  35.268  42.050  0.00  0.00    +0.000 C 
ATOM     45  F   UNL     1      43.463  34.454  42.425  0.00  0.00    +0.000 F 
ATOM     46  F   UNL     1      43.953  36.492  41.703  0.00  0.00    +0.000 F 
ATOM     47  F   UNL     1      45.213  34.814  40.946  0.00  0.00    +0.000 F 
ENDBRANCH  33  44
ENDBRANCH   2  30
TORSDOF 3
