
 OpenBabel03232521003D

 47 51  0  0  1  0  0  0  0  0999 V2000
   45.1650   31.1640   47.1390 C   0  0  0  0  0  0  0  0  0  0  0  0
   46.2660   31.1750   46.3440 C   0  0  0  0  0  0  0  0  0  0  0  0
   46.9970   29.9800   46.3460 C   0  0  0  0  0  0  0  0  0  0  0  0
   46.6530   28.8850   47.0710 N   0  0  0  0  0  0  0  0  0  0  0  0
   45.5190   28.9230   47.8660 C   0  0  0  0  0  0  0  0  0  0  0  0
   44.8070   30.0510   47.8820 N   0  0  0  0  0  0  0  0  0  0  0  0
   45.1390   27.8030   48.6370 N   0  0  0  0  0  0  0  0  0  0  0  0
   44.5330   32.0340   47.2140 H   0  0  0  0  0  0  0  0  0  0  0  0
   44.9120   26.9330   48.0940 H   0  0  0  0  0  0  0  0  0  0  0  0
   45.0840   27.8300   49.6800 H   0  0  0  0  0  0  0  0  0  0  0  0
   48.2450   29.5920   45.7150 C   0  0  0  0  0  0  0  0  0  0  0  0
   48.6990   29.2350   44.4840 C   0  0  0  0  0  0  0  0  0  0  0  0
   50.0690   28.9340   44.5980 C   0  0  0  0  0  0  0  0  0  0  0  0
   50.3660   29.1260   45.8830 N   0  0  0  0  0  0  0  0  0  0  0  0
   49.3140   29.5140   46.5620 N   0  0  0  0  0  0  0  0  0  0  0  0
   47.9810   29.2400   43.6760 H   0  0  0  0  0  0  0  0  0  0  0  0
   50.5970   28.6270   43.7100 H   0  0  0  0  0  0  0  0  0  0  0  0
   51.7280   28.8810   46.2540 C   0  0  0  0  0  0  0  0  0  0  0  0
   52.4840   28.2750   45.3070 N   0  0  0  0  0  0  0  0  0  0  0  0
   53.7820   28.0050   45.5700 C   0  0  0  0  0  3  0  0  0  0  0  0
   54.3900   28.3090   46.7520 N   0  0  0  0  0  0  0  0  0  0  0  0
   53.6300   28.9100   47.6830 C   0  0  0  0  0  0  0  0  0  0  0  0
   54.1800   29.2530   48.9160 C   0  0  0  0  0  3  0  0  0  0  0  0
   53.3960   29.8720   49.8740 C   0  0  0  0  0  0  0  0  0  0  0  0
   53.8700   30.1180   50.8160 H   0  0  0  0  0  0  0  0  0  0  0  0
   52.0660   30.1510   49.6080 C   0  0  0  0  0  0  0  0  0  0  0  0
   51.4590   30.6420   50.3790 H   0  0  0  0  0  0  0  0  0  0  0  0
   51.4710   29.8260   48.3870 C   0  0  0  0  0  3  0  0  0  0  0  0
   52.2960   29.2100   47.4670 C   0  0  0  0  0  0  0  0  0  0  0  0
   46.6730   32.2340   45.4840 C   0  0  2  0  0  0  0  0  0  0  0  0
   45.6270   33.4400   45.8960 C   0  0  0  0  0  0  0  0  0  0  0  0
   45.5550   34.5580   44.9960 C   0  0  0  0  0  0  0  0  0  0  0  0
   46.3680   34.5700   43.7730 C   0  0  1  0  0  0  0  0  0  0  0  0
   47.2630   33.4400   43.5520 C   0  0  0  0  0  0  0  0  0  0  0  0
   46.6200   32.1840   44.0910 C   0  0  0  0  0  0  0  0  0  0  0  0
   47.5760   32.7550   45.9200 H   0  0  0  0  0  0  0  0  0  0  0  0
   44.9610   33.5520   46.7420 H   0  0  0  0  0  0  0  0  0  0  0  0
   44.8980   35.3550   45.2240 H   0  0  0  0  0  0  0  0  0  0  0  0
   46.9390   35.5210   43.7270 H   0  0  0  0  0  0  0  0  0  0  0  0
   48.2940   33.5610   43.9830 H   0  0  0  0  0  0  0  0  0  0  0  0
   47.4590   33.3690   42.4420 H   0  0  0  0  0  0  0  0  0  0  0  0
   45.6330   32.0750   43.5920 H   0  0  0  0  0  0  0  0  0  0  0  0
   47.3730   31.4770   43.6520 H   0  0  0  0  0  0  0  0  0  0  0  0
   45.3490   34.6520   42.5970 C   0  0  0  0  0  0  0  0  0  0  0  0
   44.2170   33.8890   42.8150 F   0  0  0  0  0  0  0  0  0  0  0  0
   44.9180   35.9730   42.5350 F   0  0  0  0  0  0  0  0  0  0  0  0
   45.9920   34.3780   41.4050 F   0  0  0  0  0  0  0  0  0  0  0  0
  1  8  1  0  0  0  0
  1  6  1  0  0  0  0
  2  3  1  0  0  0  0
  2  1  2  0  0  0  0
  3  4  2  0  0  0  0
  4  5  1  0  0  0  0
  5  6  2  0  0  0  0
  5  7  1  0  0  0  0
  7 10  1  0  0  0  0
  9  7  1  0  0  0  0
 11  3  1  0  0  0  0
 11 15  2  0  0  0  0
 12 13  2  0  0  0  0
 12 11  1  0  0  0  0
 13 14  1  0  0  0  0
 14 18  1  0  0  0  0
 14 15  1  0  0  0  0
 16 12  1  0  0  0  0
 17 13  1  0  0  0  0
 18 29  1  0  0  0  0
 19 20  1  0  0  0  0
 19 18  2  0  0  0  0
 20 21  2  0  0  0  0
 21 22  1  0  0  0  0
 22 23  1  0  0  0  0
 23 24  2  0  0  0  0
 24 25  1  0  0  0  0
 26 24  1  0  0  0  0
 26 27  1  0  0  0  0
 28 26  2  0  0  0  0
 29 22  2  0  0  0  0
 29 28  1  0  0  0  0
 30 31  1  0  0  0  0
 30 36  1  1  0  0  0
 30  2  1  0  0  0  0
 31 37  1  0  0  0  0
 32 38  1  0  0  0  0
 32 31  2  0  0  0  0
 33 39  1  6  0  0  0
 33 32  1  0  0  0  0
 34 33  1  0  0  0  0
 34 40  1  0  0  0  0
 34 35  1  0  0  0  0
 35 30  1  0  0  0  0
 41 34  1  0  0  0  0
 42 35  1  0  0  0  0
 43 35  1  0  0  0  0
 44 45  1  0  0  0  0
 44 33  1  0  0  0  0
 46 44  1  0  0  0  0
 47 44  1  0  0  0  0
M  END
>  <minimizedAffinity>
-5.28107309

>  <minimizedRMSD>
2.89976144

$$$$
