
 OpenBabel03232521003D

 47 51  0  0  1  0  0  0  0  0999 V2000
   45.4940   32.9590   47.5480 C   0  0  0  0  0  0  0  0  0  0  0  0
   45.9410   32.6080   46.3140 C   0  0  0  0  0  0  0  0  0  0  0  0
   46.0660   31.2260   46.1140 C   0  0  0  0  0  0  0  0  0  0  0  0
   45.7690   30.2960   47.0560 N   0  0  0  0  0  0  0  0  0  0  0  0
   45.3150   30.7060   48.3000 C   0  0  0  0  0  0  0  0  0  0  0  0
   45.1890   32.0160   48.5160 N   0  0  0  0  0  0  0  0  0  0  0  0
   45.0040   29.7620   49.3030 N   0  0  0  0  0  0  0  0  0  0  0  0
   45.3650   33.9970   47.8100 H   0  0  0  0  0  0  0  0  0  0  0  0
   44.2270   29.0930   49.0730 H   0  0  0  0  0  0  0  0  0  0  0  0
   45.5090   29.7250   50.2160 H   0  0  0  0  0  0  0  0  0  0  0  0
   46.5630   30.4380   45.0010 C   0  0  0  0  0  0  0  0  0  0  0  0
   46.0780   29.6050   44.0430 C   0  0  0  0  0  0  0  0  0  0  0  0
   47.1680   29.1340   43.2860 C   0  0  0  0  0  0  0  0  0  0  0  0
   48.2430   29.7070   43.8250 N   0  0  0  0  0  0  0  0  0  0  0  0
   47.9190   30.4790   44.8330 N   0  0  0  0  0  0  0  0  0  0  0  0
   45.0090   29.4510   44.0220 H   0  0  0  0  0  0  0  0  0  0  0  0
   46.9660   28.4540   42.4750 H   0  0  0  0  0  0  0  0  0  0  0  0
   49.4990   29.3790   43.2160 C   0  0  0  0  0  0  0  0  0  0  0  0
   49.9270   28.1100   43.4250 N   0  0  0  0  0  0  0  0  0  0  0  0
   51.1010   27.7110   42.8870 C   0  0  0  0  0  3  0  0  0  0  0  0
   51.8980   28.5220   42.1340 N   0  0  0  0  0  0  0  0  0  0  0  0
   51.4620   29.7780   41.9340 C   0  0  0  0  0  0  0  0  0  0  0  0
   52.2220   30.6660   41.1750 C   0  0  0  0  0  3  0  0  0  0  0  0
   51.7720   31.9580   40.9700 C   0  0  0  0  0  0  0  0  0  0  0  0
   52.3980   32.6090   40.3730 H   0  0  0  0  0  0  0  0  0  0  0  0
   50.5690   32.3710   41.5190 C   0  0  0  0  0  0  0  0  0  0  0  0
   50.2280   33.4000   41.3460 H   0  0  0  0  0  0  0  0  0  0  0  0
   49.7750   31.5170   42.2860 C   0  0  0  0  0  3  0  0  0  0  0  0
   50.2690   30.2380   42.4600 C   0  0  0  0  0  0  0  0  0  0  0  0
   46.2040   33.4920   45.2300 C   0  0  2  0  0  0  0  0  0  0  0  0
   45.0460   34.6480   45.4340 C   0  0  0  0  0  0  0  0  0  0  0  0
   44.8260   35.5330   44.3230 C   0  0  0  0  0  0  0  0  0  0  0  0
   45.5950   35.3630   43.0850 C   0  0  1  0  0  0  0  0  0  0  0  0
   46.6000   34.3060   43.0600 C   0  0  0  0  0  0  0  0  0  0  0  0
   46.1140   33.1380   43.8850 C   0  0  0  0  0  0  0  0  0  0  0  0
   47.0580   34.1810   45.4990 H   0  0  0  0  0  0  0  0  0  0  0  0
   44.3980   34.8730   46.2720 H   0  0  0  0  0  0  0  0  0  0  0  0
   44.0940   36.2910   44.4130 H   0  0  0  0  0  0  0  0  0  0  0  0
   46.0580   36.3340   42.8090 H   0  0  0  0  0  0  0  0  0  0  0  0
   47.6250   34.6200   43.4000 H   0  0  0  0  0  0  0  0  0  0  0  0
   46.7680   34.0190   41.9800 H   0  0  0  0  0  0  0  0  0  0  0  0
   45.1300   32.8270   43.4720 H   0  0  0  0  0  0  0  0  0  0  0  0
   46.9260   32.4320   43.5650 H   0  0  0  0  0  0  0  0  0  0  0  0
   44.5380   35.0880   41.9740 C   0  0  0  0  0  0  0  0  0  0  0  0
   43.5340   34.2340   42.3890 F   0  0  0  0  0  0  0  0  0  0  0  0
   43.9220   36.3060   41.7010 F   0  0  0  0  0  0  0  0  0  0  0  0
   45.1750   34.6870   40.8140 F   0  0  0  0  0  0  0  0  0  0  0  0
  1  8  1  0  0  0  0
  1  6  1  0  0  0  0
  2  1  2  0  0  0  0
  3  2  1  0  0  0  0
  3  4  2  0  0  0  0
  4  5  1  0  0  0  0
  5  6  2  0  0  0  0
  5  7  1  0  0  0  0
  7 10  1  0  0  0  0
  9  7  1  0  0  0  0
 11  3  1  0  0  0  0
 12 11  1  0  0  0  0
 13 14  1  0  0  0  0
 13 12  2  0  0  0  0
 14 15  1  0  0  0  0
 15 11  2  0  0  0  0
 16 12  1  0  0  0  0
 17 13  1  0  0  0  0
 18 19  1  0  0  0  0
 18 14  1  0  0  0  0
 20 19  2  0  0  0  0
 21 20  1  0  0  0  0
 22 21  2  0  0  0  0
 22 29  1  0  0  0  0
 23 22  1  0  0  0  0
 24 23  2  0  0  0  0
 24 26  1  0  0  0  0
 25 24  1  0  0  0  0
 26 28  2  0  0  0  0
 27 26  1  0  0  0  0
 28 29  1  0  0  0  0
 29 18  2  0  0  0  0
 30 31  1  0  0  0  0
 30 36  1  1  0  0  0
 30  2  1  0  0  0  0
 31 37  1  0  0  0  0
 32 38  1  0  0  0  0
 32 31  2  0  0  0  0
 33 39  1  6  0  0  0
 33 32  1  0  0  0  0
 34 33  1  0  0  0  0
 34 40  1  0  0  0  0
 34 35  1  0  0  0  0
 35 30  1  0  0  0  0
 41 34  1  0  0  0  0
 42 35  1  0  0  0  0
 43 35  1  0  0  0  0
 44 45  1  0  0  0  0
 44 33  1  0  0  0  0
 46 44  1  0  0  0  0
 47 44  1  0  0  0  0
M  END
>  <minimizedAffinity>
-6.624228

>  <minimizedRMSD>
0.469495863

$$$$
