
     RDKit          3D

 50 54  0  0  0  0  0  0  0  0999 V2000
   46.1640   33.6014   45.2798 C   0  0  2  0  0  0  0  0  0  0  0  0
   44.9208   34.6624   45.4989 C   0  0  0  0  0  0  0  0  0  0  0  0
   44.6825   35.5926   44.4315 C   0  0  0  0  0  0  0  0  0  0  0  0
   45.5075   35.5476   43.2175 C   0  0  1  0  0  0  0  0  0  0  0  0
   46.5848   34.5664   43.1768 C   0  0  0  0  0  0  0  0  0  0  0  0
   46.1513   33.3210   43.9145 C   0  0  0  0  0  0  0  0  0  0  0  0
   45.4006   32.8855   47.5307 C   0  0  0  0  0  0  0  0  0  0  0  0
   45.9227   32.6389   46.3010 C   0  0  0  0  0  0  0  0  0  0  0  0
   46.1569   31.2842   46.0305 C   0  0  0  0  0  0  0  0  0  0  0  0
   45.8913   30.2819   46.9059 N   0  0  0  0  0  0  0  0  0  0  0  0
   45.3580   30.5864   48.1494 C   0  0  0  0  0  0  0  0  0  0  0  0
   45.1273   31.8687   48.4305 N   0  0  0  0  0  0  0  0  0  0  0  0
   45.0765   29.5656   49.0839 N   0  0  0  0  0  0  0  0  0  0  0  0
   46.7556   30.5994   44.8999 C   0  0  0  0  0  0  0  0  0  0  0  0
   46.3599   29.9190   43.7924 C   0  0  0  0  0  0  0  0  0  0  0  0
   47.5137   29.4663   43.1264 C   0  0  0  0  0  0  0  0  0  0  0  0
   48.5374   29.8962   43.8627 N   0  0  0  0  0  0  0  0  0  0  0  0
   48.1222   30.5647   44.9112 N   0  0  0  0  0  0  0  0  0  0  0  0
   44.5162   35.2677   42.0501 C   0  0  0  0  0  0  0  0  0  0  0  0
   43.4631   34.4540   42.4255 F   0  0  0  0  0  0  0  0  0  0  0  0
   43.9531   36.4915   41.7032 F   0  0  0  0  0  0  0  0  0  0  0  0
   45.2126   34.8136   40.9457 F   0  0  0  0  0  0  0  0  0  0  0  0
   46.9570   34.3296   45.6223 H   0  0  0  0  0  0  0  0  0  0  0  0
   44.2265   34.7919   46.3202 H   0  0  0  0  0  0  0  0  0  0  0  0
   43.8946   36.2931   44.5321 H   0  0  0  0  0  0  0  0  0  0  0  0
   45.9114   36.5627   43.0175 H   0  0  0  0  0  0  0  0  0  0  0  0
   47.5708   34.9282   43.5773 H   0  0  0  0  0  0  0  0  0  0  0  0
   46.8136   34.3537   42.0906 H   0  0  0  0  0  0  0  0  0  0  0  0
   45.2079   32.9678   43.4437 H   0  0  0  0  0  0  0  0  0  0  0  0
   47.0222   32.6918   43.5901 H   0  0  0  0  0  0  0  0  0  0  0  0
   45.1862   33.8953   47.8433 H   0  0  0  0  0  0  0  0  0  0  0  0
   44.3614   28.8576   48.7835 H   0  0  0  0  0  0  0  0  0  0  0  0
   45.5453   29.5116   50.0162 H   0  0  0  0  0  0  0  0  0  0  0  0
   45.2964   29.8425   43.6170 H   0  0  0  0  0  0  0  0  0  0  0  0
   47.3869   28.9007   42.2173 H   0  0  0  0  0  0  0  0  0  0  0  0
   49.8430   29.5555   43.3808 C   0  0  0  0  0  0  0  0  0  0  0  0
   50.5661   30.5929   42.8920 N   0  0  0  0  0  0  0  0  0  0  0  0
   51.8106   30.3645   42.4153 C   0  0  0  0  0  0  0  0  0  0  0  0
   52.3949   29.1328   42.3950 N   0  0  0  0  0  0  0  0  0  0  0  0
   51.6673   28.1120   42.8826 C   0  0  0  0  0  0  0  0  0  0  0  0
   52.1958   26.8240   42.8957 C   0  0  0  0  0  0  0  0  0  0  0  0
   51.4462   25.7752   43.3977 C   0  0  0  0  0  0  0  0  0  0  0  0
   51.9021   24.7931   43.3856 H   0  0  0  0  0  0  0  0  0  0  0  0
   50.1720   26.0043   43.8867 C   0  0  0  0  0  0  0  0  0  0  0  0
   49.5908   25.1608   44.2812 H   0  0  0  0  0  0  0  0  0  0  0  0
   49.5997   27.2779   43.8944 C   0  0  0  0  0  0  0  0  0  0  0  0
   50.3892   28.2892   43.3826 C   0  0  0  0  0  0  0  0  0  0  0  0
   52.4386   31.1500   42.0117 H   0  0  0  0  0  0  0  0  0  0  0  0
   53.1966   26.7120   42.4994 H   0  0  0  0  0  0  0  0  0  0  0  0
   48.6039   27.4561   44.2767 H   0  0  0  0  0  0  0  0  0  0  0  0
  1  2  1  0
  1  8  1  0
  3  2  2  0
  4  3  1  0
  5  4  1  0
  5  6  1  0
  6  1  1  0
  7 12  2  0
  8  7  1  0
  9  8  2  0
  9 10  1  0
 10 11  2  0
 11 12  1  0
 11 13  1  0
 14 18  2  0
 14  9  1  0
 15 14  1  0
 16 15  2  0
 16 17  1  0
 17 18  1  0
 19 20  1  0
 19  4  1  0
 21 19  1  0
 22 19  1  0
  1 23  1  1
  2 24  1  0
  3 25  1  0
  4 26  1  6
  5 27  1  0
  5 28  1  0
  6 29  1  0
  6 30  1  0
  7 31  1  0
 13 32  1  0
 13 33  1  0
 15 34  1  0
 16 35  1  0
 36 37  2  0
 37 38  1  0
 38 39  2  0
 39 40  1  0
 40 41  2  0
 41 42  1  0
 42 43  1  0
 42 44  2  0
 44 45  1  0
 44 46  1  0
 46 47  2  0
 47 36  1  0
 47 40  1  0
 38 48  1  0
 41 49  1  0
 46 50  1  0
 17 36  1  0
M  ISO  8  23  13  24  13  25  13  26  13  27  13  28  13  29  13  30  13
M  ISO  5  31  14  34  14  35  14  43  16  45  16
M  END
>  <DihAtoms>  (1) 
15,16,35,36

>  <DihDeg>  (1) 
79.48143963671332

$$$$
