
 OpenBabel03232520593D

 47 51  0  0  1  0  0  0  0  0999 V2000
   45.3010   32.8090   47.5380 C   0  0  0  0  0  0  0  0  0  0  0  0
   45.9560   32.5600   46.3740 C   0  0  0  0  0  0  0  0  0  0  0  0
   46.3140   31.2180   46.1850 C   0  0  0  0  0  0  0  0  0  0  0  0
   46.0410   30.2300   47.0740 N   0  0  0  0  0  0  0  0  0  0  0  0
   45.3700   30.5360   48.2470 C   0  0  0  0  0  0  0  0  0  0  0  0
   45.0180   31.8060   48.4510 N   0  0  0  0  0  0  0  0  0  0  0  0
   45.0770   29.5310   49.1950 N   0  0  0  0  0  0  0  0  0  0  0  0
   44.9830   33.8090   47.7850 H   0  0  0  0  0  0  0  0  0  0  0  0
   44.4470   28.7590   48.8590 H   0  0  0  0  0  0  0  0  0  0  0  0
   45.4560   29.5470   50.1680 H   0  0  0  0  0  0  0  0  0  0  0  0
   47.0690   30.5420   45.1450 C   0  0  0  0  0  0  0  0  0  0  0  0
   46.8650   30.0400   43.8990 C   0  0  0  0  0  0  0  0  0  0  0  0
   48.0690   29.4550   43.4650 C   0  0  0  0  0  0  0  0  0  0  0  0
   48.9290   29.6370   44.4660 N   0  0  0  0  0  0  0  0  0  0  0  0
   48.3690   30.2730   45.4660 N   0  0  0  0  0  0  0  0  0  0  0  0
   45.8780   30.1630   43.4760 H   0  0  0  0  0  0  0  0  0  0  0  0
   48.0900   29.0020   42.4870 H   0  0  0  0  0  0  0  0  0  0  0  0
   50.2500   29.1210   44.2580 C   0  0  0  0  0  0  0  0  0  0  0  0
   50.5820   28.8920   42.9640 N   0  0  0  0  0  0  0  0  0  0  0  0
   51.8100   28.4050   42.6730 C   0  0  0  0  0  3  0  0  0  0  0  0
   52.7510   28.1240   43.6190 N   0  0  0  0  0  0  0  0  0  0  0  0
   52.4090   28.3540   44.8980 C   0  0  0  0  0  0  0  0  0  0  0  0
   53.3170   28.0920   45.9210 C   0  0  0  0  0  3  0  0  0  0  0  0
   52.9630   28.3300   47.2370 C   0  0  0  0  0  0  0  0  0  0  0  0
   53.7050   28.1090   47.9940 H   0  0  0  0  0  0  0  0  0  0  0  0
   51.7080   28.8290   47.5390 C   0  0  0  0  0  0  0  0  0  0  0  0
   51.4440   29.0120   48.5880 H   0  0  0  0  0  0  0  0  0  0  0  0
   50.7640   29.1080   46.5490 C   0  0  0  0  0  3  0  0  0  0  0  0
   51.1680   28.8530   45.2520 C   0  0  0  0  0  0  0  0  0  0  0  0
   46.2220   33.5000   45.3390 C   0  0  2  0  0  0  0  0  0  0  0  0
   45.0120   34.6020   45.5490 C   0  0  0  0  0  0  0  0  0  0  0  0
   44.7970   35.5250   44.4700 C   0  0  0  0  0  0  0  0  0  0  0  0
   45.6170   35.4400   43.2540 C   0  0  1  0  0  0  0  0  0  0  0  0
   46.6630   34.4250   43.2220 C   0  0  0  0  0  0  0  0  0  0  0  0
   46.1940   33.2030   43.9770 C   0  0  0  0  0  0  0  0  0  0  0  0
   47.0380   34.2090   45.6690 H   0  0  0  0  0  0  0  0  0  0  0  0
   44.3260   34.7630   46.3710 H   0  0  0  0  0  0  0  0  0  0  0  0
   44.0320   36.2500   44.5640 H   0  0  0  0  0  0  0  0  0  0  0  0
   46.0490   36.4390   43.0380 H   0  0  0  0  0  0  0  0  0  0  0  0
   47.6610   34.7620   43.6140 H   0  0  0  0  0  0  0  0  0  0  0  0
   46.8810   34.1920   42.1380 H   0  0  0  0  0  0  0  0  0  0  0  0
   45.2390   32.8730   43.5150 H   0  0  0  0  0  0  0  0  0  0  0  0
   47.0450   32.5440   43.6580 H   0  0  0  0  0  0  0  0  0  0  0  0
   44.6120   35.1750   42.0940 C   0  0  0  0  0  0  0  0  0  0  0  0
   43.5810   34.3300   42.4600 F   0  0  0  0  0  0  0  0  0  0  0  0
   44.0200   36.3970   41.7920 F   0  0  0  0  0  0  0  0  0  0  0  0
   45.3000   34.7670   40.9660 F   0  0  0  0  0  0  0  0  0  0  0  0
  1  8  1  0  0  0  0
  1  6  1  0  0  0  0
  2  1  2  0  0  0  0
  3  2  1  0  0  0  0
  3  4  2  0  0  0  0
  4  5  1  0  0  0  0
  5  6  2  0  0  0  0
  5  7  1  0  0  0  0
  7 10  1  0  0  0  0
  9  7  1  0  0  0  0
 11 15  2  0  0  0  0
 11  3  1  0  0  0  0
 12 11  1  0  0  0  0
 13 12  2  0  0  0  0
 13 14  1  0  0  0  0
 14 15  1  0  0  0  0
 16 12  1  0  0  0  0
 17 13  1  0  0  0  0
 18 14  1  0  0  0  0
 18 29  1  0  0  0  0
 19 18  2  0  0  0  0
 20 19  1  0  0  0  0
 20 21  2  0  0  0  0
 21 22  1  0  0  0  0
 22 29  2  0  0  0  0
 22 23  1  0  0  0  0
 23 24  2  0  0  0  0
 24 26  1  0  0  0  0
 24 25  1  0  0  0  0
 26 27  1  0  0  0  0
 28 26  2  0  0  0  0
 29 28  1  0  0  0  0
 30 31  1  0  0  0  0
 30 36  1  1  0  0  0
 30  2  1  0  0  0  0
 31 37  1  0  0  0  0
 32 38  1  0  0  0  0
 32 31  2  0  0  0  0
 33 39  1  6  0  0  0
 33 32  1  0  0  0  0
 34 33  1  0  0  0  0
 34 40  1  0  0  0  0
 34 35  1  0  0  0  0
 35 30  1  0  0  0  0
 41 34  1  0  0  0  0
 42 35  1  0  0  0  0
 43 35  1  0  0  0  0
 44 45  1  0  0  0  0
 44 33  1  0  0  0  0
 46 44  1  0  0  0  0
 47 44  1  0  0  0  0
M  END
>  <minimizedAffinity>
-6.33824825

>  <minimizedRMSD>
0.912591755

$$$$
