
 OpenBabel03232521003D

 47 51  0  0  1  0  0  0  0  0999 V2000
   45.3550   32.9520   47.5010 C   0  0  0  0  0  0  0  0  0  0  0  0
   45.8920   32.6690   46.2850 C   0  0  0  0  0  0  0  0  0  0  0  0
   46.1410   31.3080   46.0630 C   0  0  0  0  0  0  0  0  0  0  0  0
   45.8750   30.3330   46.9680 N   0  0  0  0  0  0  0  0  0  0  0  0
   45.3260   30.6730   48.1950 C   0  0  0  0  0  0  0  0  0  0  0  0
   45.0800   31.9630   48.4310 N   0  0  0  0  0  0  0  0  0  0  0  0
   45.0440   29.6820   49.1600 N   0  0  0  0  0  0  0  0  0  0  0  0
   45.1280   33.9680   47.7770 H   0  0  0  0  0  0  0  0  0  0  0  0
   44.3370   28.9580   48.8750 H   0  0  0  0  0  0  0  0  0  0  0  0
   45.5020   29.6640   50.0980 H   0  0  0  0  0  0  0  0  0  0  0  0
   46.7590   30.5910   44.9620 C   0  0  0  0  0  0  0  0  0  0  0  0
   46.4050   29.7010   43.9980 C   0  0  0  0  0  0  0  0  0  0  0  0
   47.5610   29.3770   43.2630 C   0  0  0  0  0  0  0  0  0  0  0  0
   48.5420   30.0860   43.8190 N   0  0  0  0  0  0  0  0  0  0  0  0
   48.1000   30.8090   44.8190 N   0  0  0  0  0  0  0  0  0  0  0  0
   45.3660   29.4070   43.9580 H   0  0  0  0  0  0  0  0  0  0  0  0
   47.4660   28.6750   42.4500 H   0  0  0  0  0  0  0  0  0  0  0  0
   49.8400   29.9250   43.2340 C   0  0  0  0  0  0  0  0  0  0  0  0
   50.2980   30.9980   42.5420 N   0  0  0  0  0  0  0  0  0  0  0  0
   51.5150   30.9360   41.9560 C   0  0  0  0  0  3  0  0  0  0  0  0
   52.3260   29.8420   42.0180 N   0  0  0  0  0  0  0  0  0  0  0  0
   51.8600   28.7840   42.7070 C   0  0  0  0  0  0  0  0  0  0  0  0
   52.6310   27.6300   42.8150 C   0  0  0  0  0  3  0  0  0  0  0  0
   52.1500   26.5430   43.5240 C   0  0  0  0  0  0  0  0  0  0  0  0
   52.7870   25.6690   43.5780 H   0  0  0  0  0  0  0  0  0  0  0  0
   50.9050   26.6020   44.1250 C   0  0  0  0  0  0  0  0  0  0  0  0
   50.5390   25.7310   44.6830 H   0  0  0  0  0  0  0  0  0  0  0  0
   50.0970   27.7380   44.0440 C   0  0  0  0  0  3  0  0  0  0  0  0
   50.6220   28.7930   43.3260 C   0  0  0  0  0  0  0  0  0  0  0  0
   46.1360   33.5980   45.2350 C   0  0  2  0  0  0  0  0  0  0  0  0
   44.9510   34.7190   45.4790 C   0  0  0  0  0  0  0  0  0  0  0  0
   44.7120   35.6380   44.4010 C   0  0  0  0  0  0  0  0  0  0  0  0
   45.4870   35.5320   43.1580 C   0  0  1  0  0  0  0  0  0  0  0  0
   46.5170   34.5010   43.0970 C   0  0  0  0  0  0  0  0  0  0  0  0
   46.0570   33.2920   43.8770 C   0  0  0  0  0  0  0  0  0  0  0  0
   46.9730   34.2970   45.5310 H   0  0  0  0  0  0  0  0  0  0  0  0
   44.2960   34.8960   46.3220 H   0  0  0  0  0  0  0  0  0  0  0  0
   43.9610   36.3750   44.5160 H   0  0  0  0  0  0  0  0  0  0  0  0
   45.9260   36.5230   42.9200 H   0  0  0  0  0  0  0  0  0  0  0  0
   47.5330   34.8260   43.4520 H   0  0  0  0  0  0  0  0  0  0  0  0
   46.6940   34.2580   42.0080 H   0  0  0  0  0  0  0  0  0  0  0  0
   45.0820   32.9730   43.4510 H   0  0  0  0  0  0  0  0  0  0  0  0
   46.8860   32.6180   43.5340 H   0  0  0  0  0  0  0  0  0  0  0  0
   44.4390   35.2740   42.0350 C   0  0  0  0  0  0  0  0  0  0  0  0
   43.3910   34.4740   42.4540 F   0  0  0  0  0  0  0  0  0  0  0  0
   43.8800   36.5080   41.7200 F   0  0  0  0  0  0  0  0  0  0  0  0
   45.0780   34.8150   40.8980 F   0  0  0  0  0  0  0  0  0  0  0  0
  1  8  1  0  0  0  0
  1  6  1  0  0  0  0
  2  1  2  0  0  0  0
  3  2  1  0  0  0  0
  3  4  2  0  0  0  0
  4  5  1  0  0  0  0
  5  6  2  0  0  0  0
  5  7  1  0  0  0  0
  7 10  1  0  0  0  0
  9  7  1  0  0  0  0
 11  3  1  0  0  0  0
 12 11  1  0  0  0  0
 13 14  1  0  0  0  0
 13 12  2  0  0  0  0
 14 15  1  0  0  0  0
 15 11  2  0  0  0  0
 16 12  1  0  0  0  0
 17 13  1  0  0  0  0
 18 29  1  0  0  0  0
 18 14  1  0  0  0  0
 19 18  2  0  0  0  0
 20 21  2  0  0  0  0
 20 19  1  0  0  0  0
 21 22  1  0  0  0  0
 22 23  2  0  0  0  0
 22 29  1  0  0  0  0
 23 24  1  0  0  0  0
 24 25  1  0  0  0  0
 24 26  2  0  0  0  0
 26 27  1  0  0  0  0
 28 26  1  0  0  0  0
 29 28  2  0  0  0  0
 30 31  1  0  0  0  0
 30 36  1  1  0  0  0
 30  2  1  0  0  0  0
 31 37  1  0  0  0  0
 32 38  1  0  0  0  0
 32 31  2  0  0  0  0
 33 39  1  6  0  0  0
 33 32  1  0  0  0  0
 34 33  1  0  0  0  0
 34 40  1  0  0  0  0
 34 35  1  0  0  0  0
 35 30  1  0  0  0  0
 41 34  1  0  0  0  0
 42 35  1  0  0  0  0
 43 35  1  0  0  0  0
 44 45  1  0  0  0  0
 44 33  1  0  0  0  0
 46 44  1  0  0  0  0
 47 44  1  0  0  0  0
M  END
>  <minimizedAffinity>
-6.16669703

>  <minimizedRMSD>
0.446337879

$$$$
