
 OpenBabel03232520233D

 26 28  0  0  0  0  0  0  0  0999 V2000
   46.4180   34.3670   41.6940 C   0  0  0  0  0  0  0  0  0  0  0  0
   47.7510   34.5360   41.3210 C   0  0  0  0  0  0  0  0  0  0  0  0
   47.9100   34.1210   40.0520 N   0  0  0  0  0  0  0  0  0  0  0  0
   46.7220   33.6950   39.6130 C   0  0  0  0  0  0  0  0  0  0  0  0
   46.3640   33.1750   38.3790 C   0  0  0  0  0  0  0  0  0  0  0  0
   45.0590   32.8110   38.1890 C   0  0  0  0  0  0  0  0  0  0  0  0
   44.0440   32.9210   39.1430 C   0  0  0  0  0  0  0  0  0  0  0  0
   44.4750   33.4480   40.3470 C   0  0  0  0  0  0  0  0  0  0  0  0
   45.7540   33.8340   40.6180 C   0  0  0  0  0  0  0  0  0  0  0  0
   48.8240   34.1380   39.5180 H   0  0  0  0  0  0  0  0  0  0  0  0
   47.0990   33.0620   37.5940 H   0  0  0  0  0  0  0  0  0  0  0  0
   44.7910   32.4030   37.2140 H   0  0  0  0  0  0  0  0  0  0  0  0
   43.0310   32.6370   38.9900 H   0  0  0  0  0  0  0  0  0  0  0  0
   43.7810   33.5820   41.1670 H   0  0  0  0  0  0  0  0  0  0  0  0
   44.6060   36.1840   44.3980 C   0  0  0  0  0  0  0  0  0  0  0  0
   45.1680   35.9050   43.1300 C   0  0  0  0  0  0  0  0  0  0  0  0
   45.8250   34.6900   42.9870 C   0  0  0  0  0  0  0  0  0  0  0  0
   45.9010   33.8270   44.0590 N   0  0  0  0  0  0  0  0  0  0  0  0
   45.3410   34.1520   45.2520 C   0  0  0  0  0  0  0  0  0  0  0  0
   44.6960   35.3210   45.4320 N   0  0  0  0  0  0  0  0  0  0  0  0
   44.1090   37.1420   44.4470 H   0  0  0  0  0  0  0  0  0  0  0  0
   45.0870   36.6050   42.3180 H   0  0  0  0  0  0  0  0  0  0  0  0
   45.4160   33.4560   46.0750 H   0  0  0  0  0  0  0  0  0  0  0  0
   48.8090   35.0800   42.1770 C   0  0  0  0  0  0  0  0  0  0  0  0
   49.9450   34.0870   42.3070 C   0  0  0  0  0  0  0  0  0  0  0  0
   49.3970   36.3680   41.6470 C   0  0  0  0  0  0  0  0  0  0  0  0
  1 17  1  0  0  0  0
  2  1  2  0  0  0  0
  2 24  1  0  0  0  0
  3  2  1  0  0  0  0
  4  3  1  0  0  0  0
  4  9  1  0  0  0  0
  5  4  2  0  0  0  0
  6  5  1  0  0  0  0
  6  7  2  0  0  0  0
  7  8  1  0  0  0  0
  8  9  2  0  0  0  0
  8 14  1  0  0  0  0
  9  1  1  0  0  0  0
 10  3  1  0  0  0  0
 11  5  1  0  0  0  0
 12  6  1  0  0  0  0
 13  7  1  0  0  0  0
 15 21  1  0  0  0  0
 15 20  1  0  0  0  0
 16 15  2  0  0  0  0
 17 16  1  0  0  0  0
 17 18  2  0  0  0  0
 18 19  1  0  0  0  0
 19 20  2  0  0  0  0
 19 23  1  0  0  0  0
 22 16  1  0  0  0  0
 24 25  1  0  0  0  0
 26 24  1  0  0  0  0
M  END
>  <minimizedAffinity>
-5.59259987

>  <minimizedRMSD>
1.33938146

$$$$
