REMARK  Name = 
REMARK  4 active torsions:
REMARK  status: ('A' for Active; 'I' for Inactive)
REMARK    1  A    between atoms: C_1  and  C_8
REMARK    2  A    between atoms: C_4  and  C_19
REMARK    3  A    between atoms: C_9  and  C_14
REMARK    4  A    between atoms: N_17  and  C_36
REMARK                            x       y       z     vdW  Elec       q    Type
REMARK                         _______ _______ _______ _____ _____    ______ ____
ROOT
ATOM      1  C   UNL     1      45.401  32.882  47.531  0.00  0.00    +0.000 A 
ATOM      2  C   UNL     1      45.920  32.636  46.299  0.00  0.00    +0.000 A 
ATOM      3  C   UNL     1      46.151  31.284  46.027  0.00  0.00    +0.000 A 
ATOM      4  N   UNL     1      45.886  30.280  46.902  0.00  0.00    +0.000 NA
ATOM      5  C   UNL     1      45.357  30.592  48.145  0.00  0.00    +0.000 A 
ATOM      6  N   UNL     1      45.130  31.869  48.428  0.00  0.00    +0.000 NA
ATOM      7  N   UNL     1      45.090  29.566  49.092  0.00  0.00    +0.000 N 
ATOM      8  H   UNL     1      45.189  33.890  47.848  0.00  0.00    +0.000 HD
ATOM      9  H   UNL     1      45.231  29.740  50.116  0.00  0.00    +0.000 HD
ATOM     10  H   UNL     1      44.746  28.601  48.821  0.00  0.00    +0.000 HD
ENDROOT
BRANCH   2  11
ATOM     11  C   UNL     1      46.159  33.600  45.281  0.00  0.00    +0.000 C 
ATOM     12  C   UNL     1      44.921  34.664  45.499  0.00  0.00    +0.000 C 
ATOM     13  C   UNL     1      44.683  35.594  44.430  0.00  0.00    +0.000 C 
ATOM     14  C   UNL     1      45.504  35.547  43.218  0.00  0.00    +0.000 C 
ATOM     15  C   UNL     1      46.588  34.572  43.182  0.00  0.00    +0.000 C 
ATOM     16  C   UNL     1      46.156  33.323  43.915  0.00  0.00    +0.000 C 
ATOM     17  H   UNL     1      46.947  34.333  45.629  0.00  0.00    +0.000 HD
ATOM     18  H   UNL     1      44.232  34.791  46.325  0.00  0.00    +0.000 HD
ATOM     19  H   UNL     1      43.897  36.294  44.536  0.00  0.00    +0.000 HD
ATOM     20  H   UNL     1      45.911  36.568  43.032  0.00  0.00    +0.000 HD
ATOM     21  H   UNL     1      46.866  34.385  42.116  0.00  0.00    +0.000 HD
ATOM     22  H   UNL     1      47.464  34.967  43.734  0.00  0.00    +0.000 HD
ATOM     23  H   UNL     1      45.234  32.919  43.448  0.00  0.00    +0.000 HD
ATOM     24  H   UNL     1      47.021  32.692  43.584  0.00  0.00    +0.000 HD
BRANCH  14  25
ATOM     25  C   UNL     1      44.515  35.264  42.048  0.00  0.00    +0.000 C 
ATOM     26  F   UNL     1      43.462  34.450  42.427  0.00  0.00    +0.000 F 
ATOM     27  F   UNL     1      43.957  36.493  41.702  0.00  0.00    +0.000 F 
ATOM     28  F   UNL     1      45.216  34.816  40.947  0.00  0.00    +0.000 F 
ENDBRANCH  14  25
ENDBRANCH   2  11
BRANCH   3  29
ATOM     29  C   UNL     1      46.752  30.598  44.897  0.00  0.00    +0.000 A 
ATOM     30  C   UNL     1      46.362  29.920  43.789  0.00  0.00    +0.000 A 
ATOM     31  C   UNL     1      47.513  29.468  43.128  0.00  0.00    +0.000 A 
ATOM     32  N   UNL     1      48.539  29.894  43.867  0.00  0.00    +0.000 N 
ATOM     33  N   UNL     1      48.117  30.562  44.914  0.00  0.00    +0.000 NA
ATOM     34  H   UNL     1      45.306  29.839  43.600  0.00  0.00    +0.000 HD
ATOM     35  H   UNL     1      47.439  28.901  42.217  0.00  0.00    +0.000 HD
BRANCH  32  36
ATOM     36  C   UNL     1      49.913  29.628  43.517  0.00  0.00    +0.000 A 
ATOM     37  C   UNL     1      51.037  29.927  44.261  0.00  0.00    +0.000 A 
ATOM     38  N   UNL     1      52.069  29.497  43.538  0.00  0.00    +0.000 NA
ATOM     39  C   UNL     1      51.639  28.944  42.377  0.00  0.00    +0.000 A 
ATOM     40  N   UNL     1      50.305  29.021  42.358  0.00  0.00    +0.000 N 
ATOM     41  H   UNL     1      49.612  28.697  41.619  0.00  0.00    +0.000 HD
ENDBRANCH  32  36
ENDBRANCH   3  29
TORSDOF 4
