
 OpenBabel03232520353D

 46 50  0  0  1  0  0  0  0  0999 V2000
   46.8250   34.5510   41.3720 C   0  0  0  0  0  0  0  0  0  0  0  0
   48.0920   34.9560   40.9520 C   0  0  0  0  0  0  0  0  0  0  0  0
   48.3240   34.5810   39.7160 N   0  0  0  0  0  0  0  0  0  0  0  0
   47.2250   33.9250   39.2950 C   0  0  0  0  0  0  0  0  0  0  0  0
   46.9590   33.3330   38.0590 C   0  0  0  0  0  0  0  0  0  0  0  0
   45.7420   32.7280   37.8880 C   0  0  0  0  0  0  0  0  0  0  0  0
   44.7490   32.6600   38.8590 C   0  0  0  0  0  0  0  0  0  0  0  0
   45.0670   33.2570   40.0450 C   0  0  0  0  0  0  0  0  0  0  0  0
   46.2550   33.8810   40.3000 C   0  0  0  0  0  0  0  0  0  0  0  0
   49.1790   34.7270   39.1010 H   0  0  0  0  0  0  0  0  0  0  0  0
   47.6730   33.3430   37.2580 H   0  0  0  0  0  0  0  0  0  0  0  0
   45.5400   32.2690   36.9230 H   0  0  0  0  0  0  0  0  0  0  0  0
   43.8020   32.1670   38.6700 H   0  0  0  0  0  0  0  0  0  0  0  0
   44.3430   33.2430   40.8500 H   0  0  0  0  0  0  0  0  0  0  0  0
   44.7050   36.0430   44.0520 C   0  0  0  0  0  0  0  0  0  0  0  0
   45.3110   35.8550   42.7860 C   0  0  0  0  0  0  0  0  0  0  0  0
   46.1860   34.7670   42.6680 C   0  0  0  0  0  0  0  0  0  0  0  0
   46.4190   33.9490   43.7430 N   0  0  0  0  0  0  0  0  0  0  0  0
   45.8050   34.1850   44.9290 C   0  0  0  0  0  0  0  0  0  0  0  0
   44.9520   35.2240   45.0870 N   0  0  0  0  0  0  0  0  0  0  0  0
   44.0420   36.9110   44.0520 H   0  0  0  0  0  0  0  0  0  0  0  0
   45.1220   36.5050   41.9450 H   0  0  0  0  0  0  0  0  0  0  0  0
   45.9810   33.5460   45.7820 H   0  0  0  0  0  0  0  0  0  0  0  0
   49.0350   35.7220   41.8180 C   0  0  0  0  0  0  0  0  0  0  0  0
   48.5110   36.3740   42.5310 H   0  0  0  0  0  0  0  0  0  0  0  0
   49.6430   36.3930   41.1690 H   0  0  0  0  0  0  0  0  0  0  0  0
   49.9770   34.8130   42.5320 C   0  0  0  0  0  0  0  0  0  0  0  0
   49.6670   34.7860   43.5970 H   0  0  0  0  0  0  0  0  0  0  0  0
   51.0230   35.2280   42.5490 H   0  0  0  0  0  0  0  0  0  0  0  0
   50.0960   33.4310   41.9430 C   0  0  1  0  0  0  0  0  0  0  0  0
   51.0220   32.4080   42.4410 C   0  0  0  0  0  0  0  0  0  0  0  0
   49.6080   32.3330   42.8900 C   0  0  2  0  0  0  0  0  0  0  0  0
   49.8200   33.3750   40.8730 H   0  0  0  0  0  0  0  0  0  0  0  0
   51.4110   31.6650   41.7160 H   0  0  0  0  0  0  0  0  0  0  0  0
   51.8310   32.7900   43.1300 H   0  0  0  0  0  0  0  0  0  0  0  0
   49.4900   32.6690   43.9650 H   0  0  0  0  0  0  0  0  0  0  0  0
   48.8670   31.2800   42.3810 O   0  0  0  0  0  0  0  0  0  0  0  0
   47.6440   30.8520   42.8060 C   0  0  0  0  0  0  0  0  0  0  0  0
   46.6700   30.6670   42.0360 O   0  0  0  0  0  0  0  0  0  0  0  0
   47.2240   30.5240   44.2100 C   0  0  0  0  0  0  0  0  0  0  0  0
   45.9590   30.4460   44.7510 C   0  0  0  0  0  0  0  0  0  0  0  0
   45.9800   30.1140   46.0800 C   0  0  0  0  0  0  0  0  0  0  0  0
   45.1350   29.9900   46.7300 H   0  0  0  0  0  0  0  0  0  0  0  0
   47.2880   29.9900   46.3390 N   0  0  0  0  0  0  0  0  0  0  0  0
   47.9970   30.2250   45.2640 N   0  0  0  0  0  0  0  0  0  0  0  0
   47.7350   29.7440   47.2480 H   0  0  0  0  0  0  0  0  0  0  0  0
  1 17  1  0  0  0  0
  2  1  2  0  0  0  0
  2 24  1  0  0  0  0
  3  2  1  0  0  0  0
  4  3  1  0  0  0  0
  4  9  1  0  0  0  0
  5  4  2  0  0  0  0
  6  5  1  0  0  0  0
  6  7  2  0  0  0  0
  7  8  1  0  0  0  0
  8  9  2  0  0  0  0
  8 14  1  0  0  0  0
  9  1  1  0  0  0  0
 10  3  1  0  0  0  0
 11  5  1  0  0  0  0
 12  6  1  0  0  0  0
 13  7  1  0  0  0  0
 15 20  1  0  0  0  0
 16 15  2  0  0  0  0
 17 16  1  0  0  0  0
 17 18  2  0  0  0  0
 18 19  1  0  0  0  0
 19 20  2  0  0  0  0
 19 23  1  0  0  0  0
 21 15  1  0  0  0  0
 22 16  1  0  0  0  0
 24 25  1  0  0  0  0
 24 27  1  0  0  0  0
 26 24  1  0  0  0  0
 27 29  1  0  0  0  0
 27 28  1  0  0  0  0
 30 33  1  6  0  0  0
 30 31  1  0  0  0  0
 30 27  1  0  0  0  0
 30 32  1  0  0  0  0
 31 32  1  0  0  0  0
 31 35  1  0  0  0  0
 32 36  1  1  0  0  0
 34 31  1  0  0  0  0
 37 38  1  0  0  0  0
 37 32  1  0  0  0  0
 38 40  1  0  0  0  0
 39 38  2  0  0  0  0
 40 41  1  0  0  0  0
 40 45  2  0  0  0  0
 41 42  2  0  0  0  0
 42 44  1  0  0  0  0
 42 43  1  0  0  0  0
 44 46  1  0  0  0  0
 45 44  1  0  0  0  0
M  END
>  <minimizedAffinity>
-5.60640764

>  <minimizedRMSD>
1.76848435

$$$$
