
 OpenBabel03232520553D

 31 32  0  0  1  0  0  0  0  0999 V2000
   46.1290   33.6040   45.3790 C   0  0  2  0  0  0  0  0  0  0  0  0
   44.9960   34.6670   45.5540 C   0  0  0  0  0  0  0  0  0  0  0  0
   44.7560   35.5660   44.4520 C   0  0  0  0  0  0  0  0  0  0  0  0
   45.5440   35.4760   43.2340 C   0  0  1  0  0  0  0  0  0  0  0  0
   46.6400   34.4920   43.2380 C   0  0  0  0  0  0  0  0  0  0  0  0
   46.1260   33.2610   43.9790 C   0  0  0  0  0  0  0  0  0  0  0  0
   47.0070   34.2410   45.6560 H   0  0  0  0  0  0  0  0  0  0  0  0
   44.2840   34.9420   46.3180 H   0  0  0  0  0  0  0  0  0  0  0  0
   44.0100   36.3220   44.4740 H   0  0  0  0  0  0  0  0  0  0  0  0
   45.9350   36.4920   43.0050 H   0  0  0  0  0  0  0  0  0  0  0  0
   47.0000   34.2670   42.2320 H   0  0  0  0  0  0  0  0  0  0  0  0
   47.4780   34.9030   43.8460 H   0  0  0  0  0  0  0  0  0  0  0  0
   45.0090   33.2220   43.6960 H   0  0  0  0  0  0  0  0  0  0  0  0
   46.5050   32.4380   43.4620 H   0  0  0  0  0  0  0  0  0  0  0  0
   45.2130   32.8200   47.5790 C   0  0  0  0  0  0  0  0  0  0  0  0
   45.9080   32.6100   46.3920 C   0  0  0  0  0  0  0  0  0  0  0  0
   46.3620   31.3070   46.1440 C   0  0  0  0  0  0  0  0  0  0  0  0
   46.1030   30.3430   47.0450 N   0  0  0  0  0  0  0  0  0  0  0  0
   45.4190   30.5840   48.1910 C   0  0  0  0  0  0  0  0  0  0  0  0
   44.9770   31.8060   48.4620 N   0  0  0  0  0  0  0  0  0  0  0  0
   45.1830   29.5130   49.1250 N   0  0  0  0  0  0  0  0  0  0  0  0
   44.8440   33.7910   47.8450 H   0  0  0  0  0  0  0  0  0  0  0  0
   44.7650   28.6140   48.7930 H   0  0  0  0  0  0  0  0  0  0  0  0
   45.4390   29.6610   50.1460 H   0  0  0  0  0  0  0  0  0  0  0  0
   47.1450   30.7190   45.0360 C   0  0  0  0  0  0  0  0  0  0  0  0
   46.3420   29.6300   44.3480 C   0  0  0  0  0  0  0  0  0  0  0  0
   48.3290   29.8640   45.6200 C   0  0  0  0  0  0  0  0  0  0  0  0
   44.5670   35.1610   42.0720 C   0  0  0  0  0  0  0  0  0  0  0  0
   43.5550   34.3100   42.4320 F   0  0  0  0  0  0  0  0  0  0  0  0
   43.9660   36.3700   41.7290 F   0  0  0  0  0  0  0  0  0  0  0  0
   45.2800   34.7320   40.9630 F   0  0  0  0  0  0  0  0  0  0  0  0
  1  2  1  0  0  0  0
  1  7  1  1  0  0  0
  1 16  1  0  0  0  0
  2  8  1  0  0  0  0
  3  9  1  0  0  0  0
  3  2  2  0  0  0  0
  4 10  1  6  0  0  0
  4  5  1  0  0  0  0
  4  3  1  0  0  0  0
  5 12  1  0  0  0  0
  5  6  1  0  0  0  0
  6  1  1  0  0  0  0
 11  5  1  0  0  0  0
 13  6  1  0  0  0  0
 14  6  1  0  0  0  0
 15 22  1  0  0  0  0
 15 20  1  0  0  0  0
 16 15  2  0  0  0  0
 17 16  1  0  0  0  0
 17 18  2  0  0  0  0
 18 19  1  0  0  0  0
 19 20  2  0  0  0  0
 19 21  1  0  0  0  0
 21 24  1  0  0  0  0
 23 21  1  0  0  0  0
 25 27  1  0  0  0  0
 25 17  1  0  0  0  0
 26 25  1  0  0  0  0
 28 29  1  0  0  0  0
 28  4  1  0  0  0  0
 30 28  1  0  0  0  0
 31 28  1  0  0  0  0
M  END
>  <minimizedAffinity>
-5.61446953

>  <minimizedRMSD>
0.50883466

$$$$
