
 OpenBabel03232520593D

 41 44  0  0  1  0  0  0  0  0999 V2000
   45.3410   32.8960   47.5010 C   0  0  0  0  0  0  0  0  0  0  0  0
   45.9090   32.6440   46.2920 C   0  0  0  0  0  0  0  0  0  0  0  0
   46.1900   31.2950   46.0540 C   0  0  0  0  0  0  0  0  0  0  0  0
   45.9250   30.2990   46.9380 N   0  0  0  0  0  0  0  0  0  0  0  0
   45.3440   30.6170   48.1560 C   0  0  0  0  0  0  0  0  0  0  0  0
   45.0700   31.8920   48.4070 N   0  0  0  0  0  0  0  0  0  0  0  0
   45.0760   29.6010   49.1130 N   0  0  0  0  0  0  0  0  0  0  0  0
   45.0880   33.9030   47.7920 H   0  0  0  0  0  0  0  0  0  0  0  0
   45.1760   29.7970   50.1380 H   0  0  0  0  0  0  0  0  0  0  0  0
   44.7700   28.6210   48.8490 H   0  0  0  0  0  0  0  0  0  0  0  0
   46.1540   33.5970   45.2650 C   0  0  2  0  0  0  0  0  0  0  0  0
   44.9480   34.6930   45.5000 C   0  0  0  0  0  0  0  0  0  0  0  0
   44.7150   35.6240   44.4300 C   0  0  0  0  0  0  0  0  0  0  0  0
   45.5120   35.5500   43.2040 C   0  0  1  0  0  0  0  0  0  0  0  0
   46.5700   34.5470   43.1540 C   0  0  0  0  0  0  0  0  0  0  0  0
   46.1200   33.3130   43.9010 C   0  0  0  0  0  0  0  0  0  0  0  0
   46.9670   34.3110   45.5950 H   0  0  0  0  0  0  0  0  0  0  0  0
   44.2780   34.8420   46.3370 H   0  0  0  0  0  0  0  0  0  0  0  0
   43.9490   36.3440   44.5470 H   0  0  0  0  0  0  0  0  0  0  0  0
   45.9420   36.5590   43.0050 H   0  0  0  0  0  0  0  0  0  0  0  0
   46.8240   34.3480   42.0840 H   0  0  0  0  0  0  0  0  0  0  0  0
   47.4660   34.9220   43.6880 H   0  0  0  0  0  0  0  0  0  0  0  0
   45.1790   32.9310   43.4530 H   0  0  0  0  0  0  0  0  0  0  0  0
   46.9620   32.6590   43.5580 H   0  0  0  0  0  0  0  0  0  0  0  0
   44.4950   35.2870   42.0530 C   0  0  0  0  0  0  0  0  0  0  0  0
   43.4350   34.4910   42.4520 F   0  0  0  0  0  0  0  0  0  0  0  0
   43.9530   36.5260   41.7200 F   0  0  0  0  0  0  0  0  0  0  0  0
   45.1660   34.8280   40.9380 F   0  0  0  0  0  0  0  0  0  0  0  0
   46.8490   30.6080   44.9580 C   0  0  0  0  0  0  0  0  0  0  0  0
   46.5240   29.8200   43.9030 C   0  0  0  0  0  0  0  0  0  0  0  0
   47.7100   29.4560   43.2490 C   0  0  0  0  0  0  0  0  0  0  0  0
   48.6910   30.0410   43.9390 N   0  0  0  0  0  0  0  0  0  0  0  0
   48.2100   30.7250   44.9500 N   0  0  0  0  0  0  0  0  0  0  0  0
   45.4810   29.6100   43.7410 H   0  0  0  0  0  0  0  0  0  0  0  0
   47.6880   28.8260   42.3780 H   0  0  0  0  0  0  0  0  0  0  0  0
   50.0810   29.9070   43.5790 C   0  0  0  0  0  0  0  0  0  0  0  0
   51.0790   29.2960   44.3120 C   0  0  0  0  0  3  0  0  0  0  0  0
   52.1850   29.4200   43.5830 N   0  0  0  0  0  0  0  0  0  0  0  0
   51.9230   30.0820   42.4290 C   0  0  0  0  0  3  0  0  0  0  0  0
   50.6230   30.3860   42.4200 N   0  0  0  0  0  0  0  0  0  0  0  0
   50.0450   30.9000   41.6890 H   0  0  0  0  0  0  0  0  0  0  0  0
  1  8  1  0  0  0  0
  1  6  1  0  0  0  0
  2  1  2  0  0  0  0
  3  2  1  0  0  0  0
  3  4  2  0  0  0  0
  4  5  1  0  0  0  0
  5  6  2  0  0  0  0
  5  7  1  0  0  0  0
  7  9  1  0  0  0  0
 10  7  1  0  0  0  0
 11 12  1  0  0  0  0
 11 17  1  1  0  0  0
 11  2  1  0  0  0  0
 12 18  1  0  0  0  0
 13 19  1  0  0  0  0
 13 12  2  0  0  0  0
 14 20  1  6  0  0  0
 14 13  1  0  0  0  0
 15 14  1  0  0  0  0
 15 22  1  0  0  0  0
 15 16  1  0  0  0  0
 16 11  1  0  0  0  0
 21 15  1  0  0  0  0
 23 16  1  0  0  0  0
 24 16  1  0  0  0  0
 25 26  1  0  0  0  0
 25 14  1  0  0  0  0
 27 25  1  0  0  0  0
 28 25  1  0  0  0  0
 29  3  1  0  0  0  0
 30 29  1  0  0  0  0
 31 30  2  0  0  0  0
 31 32  1  0  0  0  0
 32 33  1  0  0  0  0
 33 29  2  0  0  0  0
 34 30  1  0  0  0  0
 35 31  1  0  0  0  0
 36 32  1  0  0  0  0
 36 37  2  0  0  0  0
 38 37  1  0  0  0  0
 39 38  2  0  0  0  0
 40 39  1  0  0  0  0
 40 36  1  0  0  0  0
 41 40  1  0  0  0  0
M  END
>  <minimizedAffinity>
-5.69424009

>  <minimizedRMSD>
0.218698114

$$$$
