
 OpenBabel03232520053D

 27 29  0  0  0  0  0  0  0  0999 V2000
   46.1730   30.3740   49.1180 N   0  0  0  0  0  0  0  0  0  0  0  0
   45.3510   31.4180   49.4470 C   0  0  0  0  0  0  0  0  0  0  0  0
   45.2850   32.2420   48.3700 N   0  0  0  0  0  0  0  0  0  0  0  0
   46.0660   31.6790   47.4200 C   0  0  0  0  0  0  0  0  0  0  0  0
   46.2920   32.1810   46.1560 C   0  0  0  0  0  0  0  0  0  0  0  0
   47.1120   31.4630   45.3470 N   0  0  0  0  0  0  0  0  0  0  0  0
   47.6840   30.3090   45.7550 C   0  0  0  0  0  0  0  0  0  0  0  0
   47.4310   29.8650   46.9950 N   0  0  0  0  0  0  0  0  0  0  0  0
   46.6470   30.5050   47.8380 C   0  0  0  0  0  0  0  0  0  0  0  0
   46.4420   29.5500   49.7270 H   0  0  0  0  0  0  0  0  0  0  0  0
   44.8730   31.5010   50.4150 H   0  0  0  0  0  0  0  0  0  0  0  0
   48.5820   29.5310   44.8560 C   0  0  0  0  0  0  0  0  0  0  0  0
   48.9800   30.2510   43.6150 C   0  0  0  0  0  0  0  0  0  0  0  0
   49.7880   29.0560   45.6650 C   0  0  0  0  0  0  0  0  0  0  0  0
   45.6440   33.6600   45.4400 S   0  0  0  0  0  0  0  0  0  0  0  0
   47.7980   34.7270   42.3440 C   0  0  0  0  0  0  0  0  0  0  0  0
   47.0730   34.3480   41.2200 C   0  0  0  0  0  0  0  0  0  0  0  0
   45.8450   33.7250   41.4230 C   0  0  0  0  0  0  0  0  0  0  0  0
   45.4290   33.5260   42.7070 N   0  0  0  0  0  0  0  0  0  0  0  0
   46.1750   33.9150   43.7710 C   0  0  0  0  0  0  0  0  0  0  0  0
   47.3480   34.5090   43.5730 N   0  0  0  0  0  0  0  0  0  0  0  0
   47.4160   34.5120   40.1970 H   0  0  0  0  0  0  0  0  0  0  0  0
   45.2000   33.3890   40.6190 H   0  0  0  0  0  0  0  0  0  0  0  0
   49.0930   35.3820   42.1300 C   0  0  0  0  0  0  0  0  0  0  0  0
   49.2520   36.1480   41.1550 O   0  0  0  0  0  0  0  0  0  0  0  0
   50.1230   35.1410   43.0150 O   0  0  0  0  0  0  0  0  0  0  0  0
   50.8280   35.8820   43.0990 H   0  0  0  0  0  0  0  0  0  0  0  0
  1  2  1  0  0  0  0
  1 10  1  0  0  0  0
  2 11  1  0  0  0  0
  3  2  2  0  0  0  0
  4  9  1  0  0  0  0
  4  3  1  0  0  0  0
  5  4  2  0  0  0  0
  6  7  2  0  0  0  0
  6  5  1  0  0  0  0
  7  8  1  0  0  0  0
  8  9  2  0  0  0  0
  9  1  1  0  0  0  0
 12 14  1  0  0  0  0
 12  7  1  0  0  0  0
 13 12  1  0  0  0  0
 15  5  1  0  0  0  0
 16 21  1  0  0  0  0
 17 18  1  0  0  0  0
 17 16  2  0  0  0  0
 18 19  2  0  0  0  0
 19 20  1  0  0  0  0
 20 15  1  0  0  0  0
 21 20  2  0  0  0  0
 22 17  1  0  0  0  0
 23 18  1  0  0  0  0
 24 16  1  0  0  0  0
 24 26  1  0  0  0  0
 25 24  2  0  0  0  0
 26 27  1  0  0  0  0
M  END
>  <minimizedAffinity>
-5.73001957

>  <minimizedRMSD>
0.184894189

$$$$
