
 OpenBabel03232521003D

 41 44  0  0  1  0  0  0  0  0999 V2000
   45.4000   32.8810   47.5100 C   0  0  0  0  0  0  0  0  0  0  0  0
   45.9240   32.6290   46.2810 C   0  0  0  0  0  0  0  0  0  0  0  0
   46.1560   31.2760   46.0160 C   0  0  0  0  0  0  0  0  0  0  0  0
   45.8870   30.2760   46.8940 N   0  0  0  0  0  0  0  0  0  0  0  0
   45.3530   30.5930   48.1340 C   0  0  0  0  0  0  0  0  0  0  0  0
   45.1250   31.8720   48.4100 N   0  0  0  0  0  0  0  0  0  0  0  0
   45.0820   29.5720   49.0840 N   0  0  0  0  0  0  0  0  0  0  0  0
   45.1870   33.8900   47.8210 H   0  0  0  0  0  0  0  0  0  0  0  0
   45.2180   29.7500   50.1080 H   0  0  0  0  0  0  0  0  0  0  0  0
   44.7390   28.6060   48.8160 H   0  0  0  0  0  0  0  0  0  0  0  0
   46.1680   33.5880   45.2600 C   0  0  2  0  0  0  0  0  0  0  0  0
   44.9560   34.6790   45.4980 C   0  0  0  0  0  0  0  0  0  0  0  0
   44.7210   35.6140   44.4330 C   0  0  0  0  0  0  0  0  0  0  0  0
   45.5220   35.5500   43.2080 C   0  0  1  0  0  0  0  0  0  0  0  0
   46.5840   34.5520   43.1540 C   0  0  0  0  0  0  0  0  0  0  0  0
   46.1370   33.3120   43.8940 C   0  0  0  0  0  0  0  0  0  0  0  0
   46.9770   34.3040   45.5950 H   0  0  0  0  0  0  0  0  0  0  0  0
   44.2830   34.8200   46.3340 H   0  0  0  0  0  0  0  0  0  0  0  0
   43.9520   36.3310   44.5520 H   0  0  0  0  0  0  0  0  0  0  0  0
   45.9480   36.5630   43.0160 H   0  0  0  0  0  0  0  0  0  0  0  0
   46.8410   34.3600   42.0840 H   0  0  0  0  0  0  0  0  0  0  0  0
   47.4770   34.9280   43.6930 H   0  0  0  0  0  0  0  0  0  0  0  0
   45.1990   32.9290   43.4410 H   0  0  0  0  0  0  0  0  0  0  0  0
   46.9830   32.6630   43.5490 H   0  0  0  0  0  0  0  0  0  0  0  0
   44.5090   35.2900   42.0540 C   0  0  0  0  0  0  0  0  0  0  0  0
   43.4460   34.4960   42.4480 F   0  0  0  0  0  0  0  0  0  0  0  0
   43.9700   36.5300   41.7180 F   0  0  0  0  0  0  0  0  0  0  0  0
   45.1830   34.8290   40.9410 F   0  0  0  0  0  0  0  0  0  0  0  0
   46.7620   30.5850   44.8920 C   0  0  0  0  0  0  0  0  0  0  0  0
   46.3780   29.8520   43.8170 C   0  0  0  0  0  0  0  0  0  0  0  0
   47.5330   29.4370   43.1380 C   0  0  0  0  0  0  0  0  0  0  0  0
   48.5550   29.9390   43.8350 N   0  0  0  0  0  0  0  0  0  0  0  0
   48.1270   30.6180   44.8720 N   0  0  0  0  0  0  0  0  0  0  0  0
   45.3230   29.7110   43.6600 H   0  0  0  0  0  0  0  0  0  0  0  0
   47.4650   28.8380   42.2480 H   0  0  0  0  0  0  0  0  0  0  0  0
   49.9310   29.7320   43.4550 C   0  0  0  0  0  0  0  0  0  0  0  0
   50.6690   28.5730   43.5890 C   0  0  0  0  0  3  0  0  0  0  0  0
   51.8770   28.8590   43.1050 N   0  0  0  0  0  0  0  0  0  0  0  0
   51.9230   30.1450   42.6750 C   0  0  0  0  0  3  0  0  0  0  0  0
   50.7220   30.6900   42.8880 N   0  0  0  0  0  0  0  0  0  0  0  0
   50.3710   31.6740   42.6850 H   0  0  0  0  0  0  0  0  0  0  0  0
  1  8  1  0  0  0  0
  1  6  1  0  0  0  0
  2  1  2  0  0  0  0
  3  2  1  0  0  0  0
  3  4  2  0  0  0  0
  4  5  1  0  0  0  0
  5  6  2  0  0  0  0
  5  7  1  0  0  0  0
  7  9  1  0  0  0  0
 10  7  1  0  0  0  0
 11 12  1  0  0  0  0
 11 17  1  1  0  0  0
 11  2  1  0  0  0  0
 12 18  1  0  0  0  0
 13 19  1  0  0  0  0
 13 12  2  0  0  0  0
 14 20  1  6  0  0  0
 14 13  1  0  0  0  0
 15 14  1  0  0  0  0
 15 22  1  0  0  0  0
 15 16  1  0  0  0  0
 16 11  1  0  0  0  0
 21 15  1  0  0  0  0
 23 16  1  0  0  0  0
 24 16  1  0  0  0  0
 25 26  1  0  0  0  0
 25 14  1  0  0  0  0
 27 25  1  0  0  0  0
 28 25  1  0  0  0  0
 29  3  1  0  0  0  0
 30 29  1  0  0  0  0
 31 30  2  0  0  0  0
 31 32  1  0  0  0  0
 32 33  1  0  0  0  0
 33 29  2  0  0  0  0
 34 30  1  0  0  0  0
 35 31  1  0  0  0  0
 36 37  2  0  0  0  0
 36 32  1  0  0  0  0
 38 37  1  0  0  0  0
 39 40  1  0  0  0  0
 39 38  2  0  0  0  0
 40 36  1  0  0  0  0
 41 40  1  0  0  0  0
M  END
>  <minimizedAffinity>
-5.71503305

>  <minimizedRMSD>
0.0978406817

$$$$
