
     RDKit          3D

 43 46  0  0  0  0  0  0  0  0999 V2000
   46.1587   33.6005   45.2809 C   0  0  2  0  0  0  0  0  0  0  0  0
   44.9213   34.6642   45.4988 C   0  0  0  0  0  0  0  0  0  0  0  0
   44.6828   35.5937   44.4304 C   0  0  0  0  0  0  0  0  0  0  0  0
   45.5042   35.5472   43.2175 C   0  0  1  0  0  0  0  0  0  0  0  0
   46.5879   34.5720   43.1819 C   0  0  0  0  0  0  0  0  0  0  0  0
   46.1557   33.3229   43.9150 C   0  0  0  0  0  0  0  0  0  0  0  0
   45.4015   32.8818   47.5314 C   0  0  0  0  0  0  0  0  0  0  0  0
   45.9198   32.6355   46.2992 C   0  0  0  0  0  0  0  0  0  0  0  0
   46.1505   31.2841   46.0273 C   0  0  0  0  0  0  0  0  0  0  0  0
   45.8857   30.2803   46.9024 N   0  0  0  0  0  0  0  0  0  0  0  0
   45.3570   30.5922   48.1455 C   0  0  0  0  0  0  0  0  0  0  0  0
   45.1300   31.8687   48.4275 N   0  0  0  0  0  0  0  0  0  0  0  0
   45.0903   29.5657   49.0922 N   0  0  0  0  0  0  0  0  0  0  0  0
   46.7522   30.5983   44.8970 C   0  0  0  0  0  0  0  0  0  0  0  0
   46.3618   29.9202   43.7889 C   0  0  0  0  0  0  0  0  0  0  0  0
   47.5129   29.4681   43.1282 C   0  0  0  0  0  0  0  0  0  0  0  0
   48.5389   29.8940   43.8665 N   0  0  0  0  0  0  0  0  0  0  0  0
   48.1174   30.5624   44.9137 N   0  0  0  0  0  0  0  0  0  0  0  0
   44.5148   35.2645   42.0478 C   0  0  0  0  0  0  0  0  0  0  0  0
   43.4622   34.4501   42.4266 F   0  0  0  0  0  0  0  0  0  0  0  0
   43.9566   36.4927   41.7024 F   0  0  0  0  0  0  0  0  0  0  0  0
   45.2160   34.8158   40.9468 F   0  0  0  0  0  0  0  0  0  0  0  0
   46.9467   34.3330   45.6290 H   0  0  0  0  0  0  0  0  0  0  0  0
   44.2324   34.7914   46.3253 H   0  0  0  0  0  0  0  0  0  0  0  0
   43.8967   36.2935   44.5363 H   0  0  0  0  0  0  0  0  0  0  0  0
   45.9111   36.5680   43.0318 H   0  0  0  0  0  0  0  0  0  0  0  0
   46.8656   34.3851   42.1156 H   0  0  0  0  0  0  0  0  0  0  0  0
   47.4638   34.9666   43.7336 H   0  0  0  0  0  0  0  0  0  0  0  0
   45.2342   32.9189   43.4479 H   0  0  0  0  0  0  0  0  0  0  0  0
   47.0213   32.6918   43.5843 H   0  0  0  0  0  0  0  0  0  0  0  0
   45.1891   33.8896   47.8479 H   0  0  0  0  0  0  0  0  0  0  0  0
   45.2313   29.7404   50.1163 H   0  0  0  0  0  0  0  0  0  0  0  0
   44.7459   28.6009   48.8209 H   0  0  0  0  0  0  0  0  0  0  0  0
   45.3058   29.8389   43.6002 H   0  0  0  0  0  0  0  0  0  0  0  0
   47.4387   28.9015   42.2168 H   0  0  0  0  0  0  0  0  0  0  0  0
   49.9134   29.6283   43.5165 C   0  0  0  0  0  0  0  0  0  0  0  0
   50.5999   30.0979   42.4150 C   0  0  0  0  0  0  0  0  0  0  0  0
   51.8272   29.5918   42.5164 N   0  0  0  0  0  0  0  0  0  0  0  0
   51.9358   28.8279   43.6318 C   0  0  0  0  0  0  0  0  0  0  0  0
   50.7544   28.8464   44.2555 N   0  0  0  0  0  0  0  0  0  0  0  0
   50.1684   30.7499   41.6499 H   0  0  0  0  0  0  0  0  0  0  0  0
   52.7904   28.2726   44.0144 H   0  0  0  0  0  0  0  0  0  0  0  0
   50.4491   28.3706   45.1561 H   0  0  0  0  0  0  0  0  0  0  0  0
  1  2  1  0
  1  8  1  0
  3  2  2  0
  4  3  1  0
  5  4  1  0
  5  6  1  0
  6  1  1  0
  7 12  2  0
  8  7  1  0
  9  8  2  0
  9 10  1  0
 10 11  2  0
 11 12  1  0
 11 13  1  0
 14 18  2  0
 14  9  1  0
 15 14  1  0
 16 15  2  0
 16 17  1  0
 17 18  1  0
 19 20  1  0
 19  4  1  0
 21 19  1  0
 22 19  1  0
  1 23  1  1
  2 24  1  0
  3 25  1  0
  4 26  1  6
  5 27  1  0
  5 28  1  0
  6 29  1  0
  6 30  1  0
  7 31  1  0
 13 32  1  0
 13 33  1  0
 15 34  1  0
 16 35  1  0
 36 37  2  0
 37 38  1  0
 38 39  2  0
 39 40  1  0
 40 36  1  0
 37 41  1  0
 39 42  1  0
 40 43  1  0
 17 36  1  0
M  ISO  8  23  13  24  13  25  13  26  13  27  13  28  13  29  13  30  13
M  ISO  3  31  14  34  14  35  14
M  END
>  <DihAtoms>  (1) 
15,16,35,36

>  <DihDeg>  (1) 
20.619680765977694

$$$$
