
 OpenBabel03232520403D

 25 27  0  0  0  0  0  0  0  0999 V2000
   43.9510   35.5480   42.8240 C   0  0  0  0  0  0  0  0  0  0  0  0
   43.2440   35.1670   41.6600 C   0  0  0  0  0  0  0  0  0  0  0  0
   43.9210   34.5430   40.6290 C   0  0  0  0  0  0  0  0  0  0  0  0
   45.2710   34.3010   40.7480 N   0  0  0  0  0  0  0  0  0  0  0  0
   45.9060   34.6820   41.8790 C   0  0  0  0  0  0  0  0  0  0  0  0
   45.2600   35.2930   42.8960 N   0  0  0  0  0  0  0  0  0  0  0  0
   43.3680   36.0290   43.5900 H   0  0  0  0  0  0  0  0  0  0  0  0
   43.4260   34.2270   39.7070 H   0  0  0  0  0  0  0  0  0  0  0  0
   47.3500   34.4580   42.0830 C   0  0  0  0  0  0  0  0  0  0  0  0
   48.2410   35.4830   41.9370 C   0  0  0  0  0  0  0  0  0  0  0  0
   49.6010   35.3090   42.1200 C   0  0  0  0  0  0  0  0  0  0  0  0
   50.1040   34.0640   42.4650 C   0  0  0  0  0  0  0  0  0  0  0  0
   49.1640   33.0470   42.6030 C   0  0  0  0  0  0  0  0  0  0  0  0
   47.8400   33.2400   42.4180 N   0  0  0  0  0  0  0  0  0  0  0  0
   47.8990   36.4530   41.6740 H   0  0  0  0  0  0  0  0  0  0  0  0
   50.2690   36.1520   41.9940 H   0  0  0  0  0  0  0  0  0  0  0  0
   51.1580   33.9190   42.6090 H   0  0  0  0  0  0  0  0  0  0  0  0
   49.5460   32.0550   42.8750 H   0  0  0  0  0  0  0  0  0  0  0  0
   41.4650   35.4660   41.4640 S   0  0  0  0  0  0  0  0  0  0  0  0
   40.7460   33.8210   41.2690 C   0  0  0  0  0  0  0  0  0  0  0  0
   40.8050   32.8790   40.2480 C   0  0  0  0  0  0  0  0  0  0  0  0
   40.0760   31.8190   40.6360 N   0  0  0  0  0  0  0  0  0  0  0  0
   39.5740   32.0860   41.8620 C   0  0  0  0  0  0  0  0  0  0  0  0
   39.9770   33.3120   42.2630 N   0  0  0  0  0  0  0  0  0  0  0  0
   39.6700   33.6810   43.2100 H   0  0  0  0  0  0  0  0  0  0  0  0
  1  6  1  0  0  0  0
  1  7  1  0  0  0  0
  2  1  2  0  0  0  0
  3  4  2  0  0  0  0
  3  2  1  0  0  0  0
  4  5  1  0  0  0  0
  5  9  1  0  0  0  0
  5  6  2  0  0  0  0
  8  3  1  0  0  0  0
  9 14  1  0  0  0  0
 10  9  2  0  0  0  0
 10 11  1  0  0  0  0
 11 12  2  0  0  0  0
 12 13  1  0  0  0  0
 12 17  1  0  0  0  0
 13 18  1  0  0  0  0
 14 13  2  0  0  0  0
 15 10  1  0  0  0  0
 16 11  1  0  0  0  0
 19  2  1  0  0  0  0
 20 19  1  0  0  0  0
 20 24  1  0  0  0  0
 21 22  1  0  0  0  0
 21 20  2  0  0  0  0
 22 23  2  0  0  0  0
 23 24  1  0  0  0  0
 24 25  1  0  0  0  0
M  END
>  <minimizedAffinity>
-5.27007437

>  <minimizedRMSD>
0.859181404

$$$$
