
 OpenBabel03232520453D

 35 37  0  0  0  0  0  0  0  0999 V2000
   46.5140   34.5780   42.2210 C   0  0  0  0  0  0  0  0  0  0  0  0
   47.8180   34.9550   42.0770 C   0  0  0  0  0  0  0  0  0  0  0  0
   48.4940   34.8610   40.8580 C   0  0  0  0  0  0  0  0  0  0  0  0
   47.8180   34.3610   39.7330 C   0  0  0  0  0  0  0  0  0  0  0  0
   46.5090   33.9840   39.8800 C   0  0  0  0  0  0  0  0  0  0  0  0
   45.8740   34.0950   41.1150 C   0  0  0  0  0  0  0  0  0  0  0  0
   48.3780   35.3460   42.9200 H   0  0  0  0  0  0  0  0  0  0  0  0
   49.5250   35.1660   40.7750 H   0  0  0  0  0  0  0  0  0  0  0  0
   48.3180   34.2790   38.7760 H   0  0  0  0  0  0  0  0  0  0  0  0
   45.9540   33.5940   39.0360 H   0  0  0  0  0  0  0  0  0  0  0  0
   44.5170   33.6920   41.2200 N   0  0  0  0  0  0  0  0  0  0  0  0
   43.6850   34.6590   40.7170 C   0  0  0  0  0  0  0  0  0  0  0  0
   42.2990   34.4720   40.7190 C   0  0  0  0  0  0  0  0  0  0  0  0
   41.8120   33.2850   41.2430 C   0  0  0  0  0  0  0  0  0  0  0  0
   40.5790   33.0600   41.2720 O   0  0  0  0  0  0  0  0  0  0  0  0
   42.6690   32.3680   41.7240 N   0  0  0  0  0  0  0  0  0  0  0  0
   43.9940   32.5600   41.7160 C   0  0  0  0  0  0  0  0  0  0  0  0
   44.8610   31.7670   42.1410 O   0  0  0  0  0  0  0  0  0  0  0  0
   43.9840   35.5930   40.2990 H   0  0  0  0  0  0  0  0  0  0  0  0
   42.3220   31.4810   42.1170 H   0  0  0  0  0  0  0  0  0  0  0  0
   41.3640   35.4960   40.1830 C   0  0  0  0  0  0  0  0  0  0  0  0
   41.2760   36.3180   40.9090 H   0  0  0  0  0  0  0  0  0  0  0  0
   40.4230   35.0310   39.8700 H   0  0  0  0  0  0  0  0  0  0  0  0
   41.8220   35.9250   39.2530 H   0  0  0  0  0  0  0  0  0  0  0  0
   44.4840   35.7400   45.1730 C   0  0  0  0  0  0  0  0  0  0  0  0
   45.0090   35.7230   43.8770 C   0  0  0  0  0  0  0  0  0  0  0  0
   45.8970   34.7120   43.5290 C   0  0  0  0  0  0  0  0  0  0  0  0
   46.2100   33.7930   44.4570 N   0  0  0  0  0  0  0  0  0  0  0  0
   45.6790   33.8400   45.7140 C   0  0  0  0  0  0  0  0  0  0  0  0
   44.8210   34.8120   46.0580 N   0  0  0  0  0  0  0  0  0  0  0  0
   43.7950   36.5380   45.4210 H   0  0  0  0  0  0  0  0  0  0  0  0
   44.7700   36.4490   43.1230 H   0  0  0  0  0  0  0  0  0  0  0  0
   46.0310   32.8200   46.7350 C   0  0  0  0  0  0  0  0  0  0  0  0
   45.0990   32.7500   47.8910 C   0  0  0  0  0  0  0  0  0  0  0  0
   46.1080   31.4960   45.9660 C   0  0  0  0  0  0  0  0  0  0  0  0
  1 27  1  0  0  0  0
  2  1  1  0  0  0  0
  2  7  1  0  0  0  0
  3  2  2  0  0  0  0
  4  5  2  0  0  0  0
  4  3  1  0  0  0  0
  5  6  1  0  0  0  0
  6 11  1  0  0  0  0
  6  1  2  0  0  0  0
  8  3  1  0  0  0  0
  9  4  1  0  0  0  0
 10  5  1  0  0  0  0
 11 17  1  0  0  0  0
 12 13  2  0  0  0  0
 12 11  1  0  0  0  0
 13 14  1  0  0  0  0
 14 15  2  0  0  0  0
 14 16  1  0  0  0  0
 16 20  1  0  0  0  0
 17 16  1  0  0  0  0
 17 18  2  0  0  0  0
 19 12  1  0  0  0  0
 21 13  1  0  0  0  0
 21 22  1  0  0  0  0
 23 21  1  0  0  0  0
 24 21  1  0  0  0  0
 25 31  1  0  0  0  0
 25 30  1  0  0  0  0
 26 25  2  0  0  0  0
 27 26  1  0  0  0  0
 27 28  2  0  0  0  0
 28 29  1  0  0  0  0
 29 30  2  0  0  0  0
 29 33  1  0  0  0  0
 32 26  1  0  0  0  0
 33 34  1  0  0  0  0
 35 33  1  0  0  0  0
M  END
>  <minimizedAffinity>
-6.80155182

>  <minimizedRMSD>
0.302761644

$$$$
