
 OpenBabel03232521003D

 41 44  0  0  1  0  0  0  0  0999 V2000
   45.3530   32.8780   47.5000 C   0  0  0  0  0  0  0  0  0  0  0  0
   45.9190   32.6320   46.2890 C   0  0  0  0  0  0  0  0  0  0  0  0
   46.1960   31.2840   46.0420 C   0  0  0  0  0  0  0  0  0  0  0  0
   45.9300   30.2830   46.9200 N   0  0  0  0  0  0  0  0  0  0  0  0
   45.3520   30.5950   48.1410 C   0  0  0  0  0  0  0  0  0  0  0  0
   45.0810   31.8680   48.4010 N   0  0  0  0  0  0  0  0  0  0  0  0
   45.0830   29.5730   49.0920 N   0  0  0  0  0  0  0  0  0  0  0  0
   45.1030   33.8830   47.7970 H   0  0  0  0  0  0  0  0  0  0  0  0
   45.1850   29.7630   50.1180 H   0  0  0  0  0  0  0  0  0  0  0  0
   44.7750   28.5950   48.8220 H   0  0  0  0  0  0  0  0  0  0  0  0
   46.1640   33.5900   45.2670 C   0  0  2  0  0  0  0  0  0  0  0  0
   44.9530   34.6810   45.5020 C   0  0  0  0  0  0  0  0  0  0  0  0
   44.7200   35.6160   44.4360 C   0  0  0  0  0  0  0  0  0  0  0  0
   45.5220   35.5510   43.2130 C   0  0  1  0  0  0  0  0  0  0  0  0
   46.5840   34.5520   43.1620 C   0  0  0  0  0  0  0  0  0  0  0  0
   46.1350   33.3130   43.9010 C   0  0  0  0  0  0  0  0  0  0  0  0
   46.9730   34.3060   45.6030 H   0  0  0  0  0  0  0  0  0  0  0  0
   44.2790   34.8240   46.3380 H   0  0  0  0  0  0  0  0  0  0  0  0
   43.9510   36.3330   44.5530 H   0  0  0  0  0  0  0  0  0  0  0  0
   45.9490   36.5630   43.0200 H   0  0  0  0  0  0  0  0  0  0  0  0
   46.8430   34.3590   42.0920 H   0  0  0  0  0  0  0  0  0  0  0  0
   47.4760   34.9280   43.7010 H   0  0  0  0  0  0  0  0  0  0  0  0
   45.1980   32.9290   43.4480 H   0  0  0  0  0  0  0  0  0  0  0  0
   46.9810   32.6630   43.5580 H   0  0  0  0  0  0  0  0  0  0  0  0
   44.5110   35.2890   42.0570 C   0  0  0  0  0  0  0  0  0  0  0  0
   43.4470   34.4960   42.4510 F   0  0  0  0  0  0  0  0  0  0  0  0
   43.9730   36.5300   41.7210 F   0  0  0  0  0  0  0  0  0  0  0  0
   45.1860   34.8280   40.9460 F   0  0  0  0  0  0  0  0  0  0  0  0
   46.8520   30.6020   44.9410 C   0  0  0  0  0  0  0  0  0  0  0  0
   46.5220   29.8350   43.8720 C   0  0  0  0  0  0  0  0  0  0  0  0
   47.7070   29.4610   43.2220 C   0  0  0  0  0  0  0  0  0  0  0  0
   48.6920   30.0200   43.9270 N   0  0  0  0  0  0  0  0  0  0  0  0
   48.2150   30.6970   44.9440 N   0  0  0  0  0  0  0  0  0  0  0  0
   45.4770   29.6440   43.6990 H   0  0  0  0  0  0  0  0  0  0  0  0
   47.6810   28.8440   42.3410 H   0  0  0  0  0  0  0  0  0  0  0  0
   50.0830   29.8680   43.5750 C   0  0  0  0  0  0  0  0  0  0  0  0
   50.8030   30.6260   42.6720 C   0  0  0  0  0  3  0  0  0  0  0  0
   52.0340   30.1190   42.6830 N   0  0  0  0  0  0  0  0  0  0  0  0
   52.1130   29.0790   43.5510 C   0  0  0  0  0  3  0  0  0  0  0  0
   50.9080   28.9190   44.1070 N   0  0  0  0  0  0  0  0  0  0  0  0
   50.5770   28.2130   44.8300 H   0  0  0  0  0  0  0  0  0  0  0  0
  1  8  1  0  0  0  0
  1  6  1  0  0  0  0
  2  1  2  0  0  0  0
  3  2  1  0  0  0  0
  3  4  2  0  0  0  0
  4  5  1  0  0  0  0
  5  6  2  0  0  0  0
  5  7  1  0  0  0  0
  7  9  1  0  0  0  0
 10  7  1  0  0  0  0
 11 12  1  0  0  0  0
 11 17  1  1  0  0  0
 11  2  1  0  0  0  0
 12 18  1  0  0  0  0
 13 19  1  0  0  0  0
 13 12  2  0  0  0  0
 14 20  1  6  0  0  0
 14 13  1  0  0  0  0
 15 14  1  0  0  0  0
 15 22  1  0  0  0  0
 15 16  1  0  0  0  0
 16 11  1  0  0  0  0
 21 15  1  0  0  0  0
 23 16  1  0  0  0  0
 24 16  1  0  0  0  0
 25 26  1  0  0  0  0
 25 14  1  0  0  0  0
 27 25  1  0  0  0  0
 28 25  1  0  0  0  0
 29 33  2  0  0  0  0
 29  3  1  0  0  0  0
 30 29  1  0  0  0  0
 31 30  2  0  0  0  0
 31 32  1  0  0  0  0
 32 33  1  0  0  0  0
 34 30  1  0  0  0  0
 35 31  1  0  0  0  0
 36 32  1  0  0  0  0
 36 40  1  0  0  0  0
 37 38  1  0  0  0  0
 37 36  2  0  0  0  0
 38 39  2  0  0  0  0
 39 40  1  0  0  0  0
 40 41  1  0  0  0  0
M  END
>  <minimizedAffinity>
-5.69850397

>  <minimizedRMSD>
0.265217662

$$$$
