
 OpenBabel03232521003D

 41 44  0  0  1  0  0  0  0  0999 V2000
   45.3510   32.8480   47.4780 C   0  0  0  0  0  0  0  0  0  0  0  0
   45.9200   32.6110   46.2710 C   0  0  0  0  0  0  0  0  0  0  0  0
   46.2120   31.2690   46.0130 C   0  0  0  0  0  0  0  0  0  0  0  0
   45.9540   30.2630   46.8850 N   0  0  0  0  0  0  0  0  0  0  0  0
   45.3710   30.5610   48.1070 C   0  0  0  0  0  0  0  0  0  0  0  0
   45.0860   31.8330   48.3730 N   0  0  0  0  0  0  0  0  0  0  0  0
   45.1250   29.5290   49.0540 N   0  0  0  0  0  0  0  0  0  0  0  0
   45.0860   33.8430   47.7930 H   0  0  0  0  0  0  0  0  0  0  0  0
   44.8450   28.6170   48.5860 H   0  0  0  0  0  0  0  0  0  0  0  0
   45.2530   29.8120   50.0510 H   0  0  0  0  0  0  0  0  0  0  0  0
   46.1670   33.5760   45.2530 C   0  0  2  0  0  0  0  0  0  0  0  0
   44.9570   34.6660   45.5000 C   0  0  0  0  0  0  0  0  0  0  0  0
   44.7280   35.6120   44.4450 C   0  0  0  0  0  0  0  0  0  0  0  0
   45.5280   35.5590   43.2180 C   0  0  1  0  0  0  0  0  0  0  0  0
   46.5850   34.5550   43.1540 C   0  0  0  0  0  0  0  0  0  0  0  0
   46.1350   33.3120   43.8860 C   0  0  0  0  0  0  0  0  0  0  0  0
   46.9560   34.3060   45.5920 H   0  0  0  0  0  0  0  0  0  0  0  0
   44.2980   34.7760   46.3480 H   0  0  0  0  0  0  0  0  0  0  0  0
   43.9580   36.3330   44.5660 H   0  0  0  0  0  0  0  0  0  0  0  0
   45.9490   36.5700   43.0520 H   0  0  0  0  0  0  0  0  0  0  0  0
   46.8510   34.3770   42.0900 H   0  0  0  0  0  0  0  0  0  0  0  0
   47.5020   34.9290   43.6670 H   0  0  0  0  0  0  0  0  0  0  0  0
   46.9830   32.6630   43.5400 H   0  0  0  0  0  0  0  0  0  0  0  0
   45.2250   32.8750   43.4330 H   0  0  0  0  0  0  0  0  0  0  0  0
   44.5120   35.3110   42.0640 C   0  0  0  0  0  0  0  0  0  0  0  0
   43.4380   34.5340   42.4580 F   0  0  0  0  0  0  0  0  0  0  0  0
   43.9990   36.5640   41.7290 F   0  0  0  0  0  0  0  0  0  0  0  0
   45.1820   34.8360   40.9520 F   0  0  0  0  0  0  0  0  0  0  0  0
   46.8690   30.5950   44.9050 C   0  0  0  0  0  0  0  0  0  0  0  0
   46.5360   29.8110   43.8460 C   0  0  0  0  0  0  0  0  0  0  0  0
   47.7150   29.4580   43.1840 C   0  0  0  0  0  0  0  0  0  0  0  0
   48.6990   30.0420   43.8690 N   0  0  0  0  0  0  0  0  0  0  0  0
   48.2260   30.7190   44.8890 N   0  0  0  0  0  0  0  0  0  0  0  0
   45.4900   29.6080   43.7060 H   0  0  0  0  0  0  0  0  0  0  0  0
   47.6300   28.8340   42.3120 H   0  0  0  0  0  0  0  0  0  0  0  0
   50.0670   29.8870   43.4600 C   0  0  0  0  0  0  0  0  0  0  0  0
   50.4490   28.6050   43.4080 N   0  0  0  0  0  0  0  0  0  0  0  0
   51.6620   28.5130   43.0460 O   0  0  0  0  0  0  0  0  0  0  0  0
   52.2340   29.7170   42.8140 C   0  0  0  0  0  0  0  0  0  0  0  0
   52.6800   30.6570   42.6330 H   0  0  0  0  0  0  0  0  0  0  0  0
   51.1720   30.5350   43.0950 N   0  0  0  0  0  0  0  0  0  0  0  0
  1  8  1  0  0  0  0
  1  6  1  0  0  0  0
  2  1  2  0  0  0  0
  3  2  1  0  0  0  0
  3  4  2  0  0  0  0
  4  5  1  0  0  0  0
  5  6  2  0  0  0  0
  5  7  1  0  0  0  0
  7 10  1  0  0  0  0
  9  7  1  0  0  0  0
 11 12  1  0  0  0  0
 11 17  1  1  0  0  0
 11  2  1  0  0  0  0
 12 18  1  0  0  0  0
 13 19  1  0  0  0  0
 13 12  2  0  0  0  0
 14 20  1  6  0  0  0
 14 13  1  0  0  0  0
 15 14  1  0  0  0  0
 15 22  1  0  0  0  0
 15 16  1  0  0  0  0
 16 11  1  0  0  0  0
 21 15  1  0  0  0  0
 23 16  1  0  0  0  0
 24 16  1  0  0  0  0
 25 26  1  0  0  0  0
 25 14  1  0  0  0  0
 27 25  1  0  0  0  0
 28 25  1  0  0  0  0
 29  3  1  0  0  0  0
 30 29  1  0  0  0  0
 31 30  2  0  0  0  0
 31 32  1  0  0  0  0
 32 33  1  0  0  0  0
 33 29  2  0  0  0  0
 34 30  1  0  0  0  0
 35 31  1  0  0  0  0
 36 32  1  0  0  0  0
 37 36  2  0  0  0  0
 38 37  1  0  0  0  0
 39 38  1  0  0  0  0
 39 41  2  0  0  0  0
 40 39  1  0  0  0  0
 41 36  1  0  0  0  0
M  END
>  <minimizedAffinity>
-5.93695211

>  <minimizedRMSD>
0.229703188

$$$$
