
 OpenBabel03232520043D

 28 30  0  0  0  0  0  0  0  0999 V2000
   46.1610   30.3730   49.1230 N   0  0  0  0  0  0  0  0  0  0  0  0
   45.3570   31.4260   49.4480 C   0  0  0  0  0  0  0  0  0  0  0  0
   45.2990   32.2460   48.3710 N   0  0  0  0  0  0  0  0  0  0  0  0
   46.0630   31.6810   47.4160 C   0  0  0  0  0  0  0  0  0  0  0  0
   46.2880   32.1760   46.1570 C   0  0  0  0  0  0  0  0  0  0  0  0
   47.0980   31.4440   45.3380 N   0  0  0  0  0  0  0  0  0  0  0  0
   47.6540   30.2870   45.7480 C   0  0  0  0  0  0  0  0  0  0  0  0
   47.4030   29.8450   46.9890 N   0  0  0  0  0  0  0  0  0  0  0  0
   46.6230   30.5020   47.8460 C   0  0  0  0  0  0  0  0  0  0  0  0
   46.4310   29.5400   49.7200 H   0  0  0  0  0  0  0  0  0  0  0  0
   44.8800   31.5280   50.4180 H   0  0  0  0  0  0  0  0  0  0  0  0
   48.5300   29.5010   44.8580 C   0  0  0  0  0  0  0  0  0  0  0  0
   47.8620   28.2160   44.3970 C   0  0  0  0  0  0  0  0  0  0  0  0
   49.7780   29.0860   45.5960 C   0  0  0  0  0  0  0  0  0  0  0  0
   48.9550   30.2940   43.6400 C   0  0  0  0  0  0  0  0  0  0  0  0
   45.6510   33.6700   45.4430 S   0  0  0  0  0  0  0  0  0  0  0  0
   47.7970   34.7140   42.3400 C   0  0  0  0  0  0  0  0  0  0  0  0
   47.0910   34.3350   41.2090 C   0  0  0  0  0  0  0  0  0  0  0  0
   45.8610   33.7100   41.4170 C   0  0  0  0  0  0  0  0  0  0  0  0
   45.4400   33.5160   42.6980 N   0  0  0  0  0  0  0  0  0  0  0  0
   46.1720   33.9070   43.7610 C   0  0  0  0  0  0  0  0  0  0  0  0
   47.3350   34.4980   43.5810 N   0  0  0  0  0  0  0  0  0  0  0  0
   47.4830   34.5190   40.2370 H   0  0  0  0  0  0  0  0  0  0  0  0
   45.2720   33.3960   40.5730 H   0  0  0  0  0  0  0  0  0  0  0  0
   49.1070   35.3800   42.1440 C   0  0  0  0  0  0  0  0  0  0  0  0
   49.2580   36.1540   41.1780 O   0  0  0  0  0  0  0  0  0  0  0  0
   50.1270   35.1340   43.0250 O   0  0  0  0  0  0  0  0  0  0  0  0
   50.8480   35.8560   43.1590 H   0  0  0  0  0  0  0  0  0  0  0  0
  1  2  1  0  0  0  0
  1 10  1  0  0  0  0
  2 11  1  0  0  0  0
  3  2  2  0  0  0  0
  4  9  1  0  0  0  0
  4  3  1  0  0  0  0
  5  4  2  0  0  0  0
  6  7  2  0  0  0  0
  6  5  1  0  0  0  0
  7  8  1  0  0  0  0
  8  9  2  0  0  0  0
  9  1  1  0  0  0  0
 12 14  1  0  0  0  0
 12  7  1  0  0  0  0
 13 12  1  0  0  0  0
 15 12  1  0  0  0  0
 16  5  1  0  0  0  0
 17 22  1  0  0  0  0
 18 19  1  0  0  0  0
 18 17  2  0  0  0  0
 19 20  2  0  0  0  0
 20 21  1  0  0  0  0
 21 16  1  0  0  0  0
 22 21  2  0  0  0  0
 23 18  1  0  0  0  0
 24 19  1  0  0  0  0
 25 17  1  0  0  0  0
 25 27  1  0  0  0  0
 26 25  2  0  0  0  0
 27 28  1  0  0  0  0
M  END
>  <minimizedAffinity>
-5.76957989

>  <minimizedRMSD>
0.231658444

$$$$
