
 OpenBabel03232519213D

 35 37  0  0  1  0  0  0  0  0999 V2000
   47.0010   30.6420   47.7320 N   0  0  0  0  0  0  0  0  0  0  0  0
   46.9540   31.0400   49.1430 C   0  0  0  0  0  0  0  0  0  0  0  0
   45.8030   32.0080   49.1490 C   0  0  0  0  0  0  0  0  0  0  0  0
   44.7750   31.3440   48.2770 C   0  0  0  0  0  0  0  0  0  0  0  0
   45.6940   30.5920   47.2860 C   0  0  2  0  0  0  0  0  0  0  0  0
   47.6810   31.2860   47.3220 H   0  0  0  0  0  0  0  0  0  0  0  0
   47.8560   31.5790   49.4660 H   0  0  0  0  0  0  0  0  0  0  0  0
   46.6890   30.1880   49.7910 H   0  0  0  0  0  0  0  0  0  0  0  0
   45.3630   32.1520   50.1600 H   0  0  0  0  0  0  0  0  0  0  0  0
   46.0860   33.0160   48.7840 H   0  0  0  0  0  0  0  0  0  0  0  0
   44.1740   30.6880   48.8950 H   0  0  0  0  0  0  0  0  0  0  0  0
   44.1660   32.1000   47.7260 H   0  0  0  0  0  0  0  0  0  0  0  0
   45.1070   29.1940   47.2660 C   0  0  0  0  0  0  0  0  0  0  0  0
   45.1330   28.0350   48.0170 C   0  0  0  0  0  0  0  0  0  0  0  0
   44.3340   27.1160   47.3870 C   0  0  0  0  0  0  0  0  0  0  0  0
   43.8300   27.6870   46.2830 N   0  0  0  0  0  0  0  0  0  0  0  0
   44.3000   28.9430   46.2120 N   0  0  0  0  0  0  0  0  0  0  0  0
   45.7590   28.1040   48.9080 H   0  0  0  0  0  0  0  0  0  0  0  0
   44.2330   26.1380   47.8380 H   0  0  0  0  0  0  0  0  0  0  0  0
   43.1920   27.1850   45.6370 H   0  0  0  0  0  0  0  0  0  0  0  0
   45.5730   30.9970   45.9770 O   0  0  0  0  0  0  0  0  0  0  0  0
   46.4110   31.9940   45.3590 C   0  0  0  0  0  0  0  0  0  0  0  0
   47.6120   31.7630   45.2100 O   0  0  0  0  0  0  0  0  0  0  0  0
   44.7350   35.2400   45.4540 C   0  0  0  0  0  0  0  0  0  0  0  0
   44.3570   35.4430   44.1190 C   0  0  0  0  0  0  0  0  0  0  0  0
   44.6910   34.4700   43.1890 C   0  0  0  0  0  0  0  0  0  0  0  0
   45.3710   33.3590   43.6270 N   0  0  0  0  0  0  0  0  0  0  0  0
   45.7050   33.2310   44.9570 C   0  0  0  0  0  0  0  0  0  0  0  0
   45.3940   34.1500   45.8450 N   0  0  0  0  0  0  0  0  0  0  0  0
   44.4440   36.0370   46.1230 H   0  0  0  0  0  0  0  0  0  0  0  0
   43.8280   36.2940   43.7520 H   0  0  0  0  0  0  0  0  0  0  0  0
   44.3900   34.4950   41.7560 C   0  0  0  0  0  0  0  0  0  0  0  0
   43.6710   35.7430   41.3520 C   0  0  0  0  0  0  0  0  0  0  0  0
   43.5050   33.3110   41.3410 C   0  0  0  0  0  0  0  0  0  0  0  0
   45.6450   34.3670   40.9170 C   0  0  0  0  0  0  0  0  0  0  0  0
  1  2  1  0  0  0  0
  2  3  1  0  0  0  0
  2  7  1  0  0  0  0
  2  8  1  0  0  0  0
  3  9  1  0  0  0  0
  4 11  1  0  0  0  0
  4  3  1  0  0  0  0
  5 21  1  6  0  0  0
  5  1  1  0  0  0  0
  5  4  1  0  0  0  0
  6  1  1  0  0  0  0
 10  3  1  0  0  0  0
 12  4  1  0  0  0  0
 13  5  1  0  0  0  0
 13 14  1  0  0  0  0
 14 18  1  0  0  0  0
 15 19  1  0  0  0  0
 15 14  2  0  0  0  0
 16 15  1  0  0  0  0
 17 16  1  0  0  0  0
 17 13  2  0  0  0  0
 20 16  1  0  0  0  0
 22 21  1  0  0  0  0
 23 22  2  0  0  0  0
 24 29  1  0  0  0  0
 24 30  1  0  0  0  0
 25 24  2  0  0  0  0
 26 27  2  0  0  0  0
 26 25  1  0  0  0  0
 27 28  1  0  0  0  0
 28 22  1  0  0  0  0
 28 29  2  0  0  0  0
 31 25  1  0  0  0  0
 32 26  1  0  0  0  0
 33 32  1  0  0  0  0
 34 32  1  0  0  0  0
 35 32  1  0  0  0  0
M  END
>  <minimizedAffinity>
-5.3063941

>  <minimizedRMSD>
1.09689558

$$$$
