REMARK  Name = 
REMARK  3 active torsions:
REMARK  status: ('A' for Active; 'I' for Inactive)
REMARK    1  A    between atoms: C_1  and  C_8
REMARK    2  A    between atoms: C_4  and  C_19
REMARK    3  A    between atoms: C_9  and  C_14
REMARK                            x       y       z     vdW  Elec       q    Type
REMARK                         _______ _______ _______ _____ _____    ______ ____
ROOT
ATOM      1  C   UNL     1      45.389  32.882  47.529  0.00  0.00    +0.000 A 
ATOM      2  C   UNL     1      45.911  32.636  46.303  0.00  0.00    +0.000 A 
ATOM      3  C   UNL     1      46.154  31.287  46.029  0.00  0.00    +0.000 A 
ATOM      4  N   UNL     1      45.895  30.284  46.904  0.00  0.00    +0.000 NA
ATOM      5  C   UNL     1      45.361  30.592  48.146  0.00  0.00    +0.000 A 
ATOM      6  N   UNL     1      45.123  31.870  48.427  0.00  0.00    +0.000 NA
ATOM      7  N   UNL     1      45.115  29.562  49.095  0.00  0.00    +0.000 N 
ATOM      8  H   UNL     1      45.164  33.883  47.857  0.00  0.00    +0.000 HD
ATOM      9  H   UNL     1      44.793  28.662  48.632  0.00  0.00    +0.000 HD
ATOM     10  H   UNL     1      45.284  29.835  50.089  0.00  0.00    +0.000 HD
ENDROOT
BRANCH   2  11
ATOM     11  C   UNL     1      46.153  33.599  45.282  0.00  0.00    +0.000 C 
ATOM     12  C   UNL     1      44.911  34.659  45.496  0.00  0.00    +0.000 C 
ATOM     13  C   UNL     1      44.679  35.590  44.429  0.00  0.00    +0.000 C 
ATOM     14  C   UNL     1      45.504  35.549  43.218  0.00  0.00    +0.000 C 
ATOM     15  C   UNL     1      46.588  34.572  43.184  0.00  0.00    +0.000 C 
ATOM     16  C   UNL     1      46.156  33.324  43.917  0.00  0.00    +0.000 C 
ATOM     17  H   UNL     1      46.916  34.352  45.631  0.00  0.00    +0.000 HD
ATOM     18  H   UNL     1      44.232  34.758  46.330  0.00  0.00    +0.000 HD
ATOM     19  H   UNL     1      43.888  36.292  44.529  0.00  0.00    +0.000 HD
ATOM     20  H   UNL     1      45.902  36.569  43.053  0.00  0.00    +0.000 HD
ATOM     21  H   UNL     1      46.880  34.393  42.127  0.00  0.00    +0.000 HD
ATOM     22  H   UNL     1      47.484  34.974  43.712  0.00  0.00    +0.000 HD
ATOM     23  H   UNL     1      47.027  32.694  43.593  0.00  0.00    +0.000 HD
ATOM     24  H   UNL     1      45.267  32.860  43.449  0.00  0.00    +0.000 HD
BRANCH  14  25
ATOM     25  C   UNL     1      44.518  35.266  42.047  0.00  0.00    +0.000 C 
ATOM     26  F   UNL     1      43.466  34.450  42.421  0.00  0.00    +0.000 F 
ATOM     27  F   UNL     1      43.966  36.500  41.703  0.00  0.00    +0.000 F 
ATOM     28  F   UNL     1      45.225  34.816  40.946  0.00  0.00    +0.000 F 
ENDBRANCH  14  25
ENDBRANCH   2  11
BRANCH   3  29
ATOM     29  C   UNL     1      46.754  30.600  44.897  0.00  0.00    +0.000 A 
ATOM     30  C   UNL     1      46.358  29.921  43.789  0.00  0.00    +0.000 A 
ATOM     31  C   UNL     1      47.503  29.466  43.130  0.00  0.00    +0.000 A 
ATOM     32  N   UNL     1      48.532  29.889  43.865  0.00  0.00    +0.000 N 
ATOM     33  N   UNL     1      48.117  30.561  44.913  0.00  0.00    +0.000 NA
ATOM     34  H   UNL     1      45.299  29.853  43.618  0.00  0.00    +0.000 HD
ATOM     35  H   UNL     1      47.367  28.905  42.222  0.00  0.00    +0.000 HD
ATOM     36  C   UNL     1      49.881  29.593  43.474  0.00  0.00    +0.000 A 
ATOM     37  N   UNL     1      50.526  28.840  44.374  0.00  0.00    +0.000 NA
ATOM     38  O   UNL     1      51.714  28.604  43.991  0.00  0.00    +0.000 OA
ATOM     39  C   UNL     1      52.003  29.168  42.795  0.00  0.00    +0.000 A 
ATOM     40  H   UNL     1      52.228  29.609  41.862  0.00  0.00    +0.000 HD
ATOM     41  N   UNL     1      50.804  29.774  42.530  0.00  0.00    +0.000 NA
ENDBRANCH   3  29
TORSDOF 3
