
 OpenBabel03232519123D

 38 41  0  0  1  0  0  0  0  0999 V2000
   44.6000   34.9630   42.9070 C   0  0  1  0  0  0  0  0  0  0  0  0
   43.5990   34.6460   43.2900 H   0  0  0  0  0  0  0  0  0  0  0  0
   45.6010   34.0480   43.4550 C   0  0  0  0  0  0  0  0  0  0  0  0
   46.6520   33.6510   42.5950 C   0  0  0  0  0  0  0  0  0  0  0  0
   47.6520   32.7690   43.0760 C   0  0  0  0  0  0  0  0  0  0  0  0
   47.5240   32.3580   44.3700 N   0  0  0  0  0  0  0  0  0  0  0  0
   46.5230   32.7540   45.1470 C   0  0  0  0  0  0  0  0  0  0  0  0
   45.5500   33.5980   44.7130 N   0  0  0  0  0  0  0  0  0  0  0  0
   46.6800   34.0240   41.5810 H   0  0  0  0  0  0  0  0  0  0  0  0
   48.4590   32.4540   42.4400 H   0  0  0  0  0  0  0  0  0  0  0  0
   46.4070   32.3010   46.5420 C   0  0  0  0  0  0  0  0  0  0  0  0
   47.3290   31.3550   47.0100 C   0  0  0  0  0  0  0  0  0  0  0  0
   46.7630   31.1280   48.7830 S   0  0  0  0  0  0  0  0  0  0  0  0
   45.3770   32.3760   48.5200 C   0  0  0  0  0  0  0  0  0  0  0  0
   45.5340   32.6630   47.4550 N   0  0  0  0  0  0  0  0  0  0  0  0
   48.1890   30.7990   46.6190 H   0  0  0  0  0  0  0  0  0  0  0  0
   44.4550   32.8960   49.1390 H   0  0  0  0  0  0  0  0  0  0  0  0
   44.8090   36.3720   43.3860 C   0  0  0  0  0  0  0  0  0  0  0  0
   44.3880   37.0720   42.6050 H   0  0  0  0  0  0  0  0  0  0  0  0
   45.8520   36.6420   43.5840 H   0  0  0  0  0  0  0  0  0  0  0  0
   44.2590   36.5210   44.3410 H   0  0  0  0  0  0  0  0  0  0  0  0
   44.5210   34.9370   41.4040 C   0  0  0  0  0  0  0  0  0  0  0  0
   44.4850   35.9640   40.9860 H   0  0  0  0  0  0  0  0  0  0  0  0
   45.4490   34.4830   40.9750 H   0  0  0  0  0  0  0  0  0  0  0  0
   43.3540   34.2370   40.9180 N   0  0  0  0  0  0  0  0  0  0  0  0
   42.8420   33.1210   41.5120 C   0  0  0  0  0  0  0  0  0  0  0  0
   41.7440   32.6690   40.8430 N   0  0  0  0  0  0  0  0  0  0  0  0
   41.5330   33.4990   39.7970 C   0  0  0  0  0  0  0  0  0  0  0  0
   40.5800   33.5010   38.8240 C   0  0  0  0  0  0  0  0  0  0  0  0
   39.6630   32.6540   38.7350 O   0  0  0  0  0  0  0  0  0  0  0  0
   40.5830   34.4640   37.8650 N   0  0  0  0  0  0  0  0  0  0  0  0
   41.5810   35.3650   37.9820 C   0  0  0  0  0  0  0  0  0  0  0  0
   41.6700   36.4120   37.0290 N   0  0  0  0  0  0  0  0  0  0  0  0
   42.5370   35.3840   38.9360 N   0  0  0  0  0  0  0  0  0  0  0  0
   42.5380   34.4340   39.8880 C   0  0  0  0  0  0  0  0  0  0  0  0
   39.9110   34.5780   37.0660 H   0  0  0  0  0  0  0  0  0  0  0  0
   40.8840   37.0670   37.2800 H   0  0  0  0  0  0  0  0  0  0  0  0
   42.0200   36.9480   36.2340 H   0  0  0  0  0  0  0  0  0  0  0  0
  1  2  1  1  0  0  0
  1 18  1  0  0  0  0
  1  3  1  0  0  0  0
  3  8  1  0  0  0  0
  4  5  1  0  0  0  0
  4  3  2  0  0  0  0
  5  6  2  0  0  0  0
  6  7  1  0  0  0  0
  7 11  1  0  0  0  0
  8  7  2  0  0  0  0
  9  4  1  0  0  0  0
 10  5  1  0  0  0  0
 11 12  2  0  0  0  0
 11 15  1  0  0  0  0
 12 13  1  0  0  0  0
 14 13  1  0  0  0  0
 14 17  1  0  0  0  0
 15 14  2  0  0  0  0
 16 12  1  0  0  0  0
 18 20  1  0  0  0  0
 18 21  1  0  0  0  0
 19 18  1  0  0  0  0
 22  1  1  0  0  0  0
 23 22  1  0  0  0  0
 24 22  1  0  0  0  0
 25 22  1  0  0  0  0
 25 26  1  0  0  0  0
 27 26  2  0  0  0  0
 28 35  2  0  0  0  0
 28 27  1  0  0  0  0
 29 28  1  0  0  0  0
 30 29  2  0  0  0  0
 31 32  1  0  0  0  0
 31 29  1  0  0  0  0
 32 34  2  0  0  0  0
 33 37  1  0  0  0  0
 33 32  1  0  0  0  0
 34 35  1  0  0  0  0
 35 25  1  0  0  0  0
 36 31  1  0  0  0  0
 38 33  1  0  0  0  0
M  END
>  <minimizedAffinity>
-5.91313648

>  <minimizedRMSD>
2.0572567

$$$$
