
 OpenBabel03232520143D

 29 30  0  0  0  0  0  0  0  0999 V2000
   47.4180   34.2010   42.1820 C   0  0  0  0  0  0  0  0  0  0  0  0
   48.2720   35.3380   41.7210 C   0  0  0  0  0  0  0  0  0  0  0  0
   49.6450   35.4180   42.3010 C   0  0  0  0  0  0  0  0  0  0  0  0
   50.3630   34.1220   42.3850 C   0  0  0  0  0  0  0  0  0  0  0  0
   49.5130   32.9280   42.0990 C   0  0  0  0  0  0  0  0  0  0  0  0
   48.2080   33.0760   42.7950 C   0  0  0  0  0  0  0  0  0  0  0  0
   48.3800   35.4040   40.6220 H   0  0  0  0  0  0  0  0  0  0  0  0
   47.7640   36.2900   41.9940 H   0  0  0  0  0  0  0  0  0  0  0  0
   49.5520   35.8960   43.3150 H   0  0  0  0  0  0  0  0  0  0  0  0
   50.2300   36.1200   41.6950 H   0  0  0  0  0  0  0  0  0  0  0  0
   51.2520   34.0750   41.7100 H   0  0  0  0  0  0  0  0  0  0  0  0
   50.7570   33.9910   43.4320 H   0  0  0  0  0  0  0  0  0  0  0  0
   49.5160   32.7530   41.0350 H   0  0  0  0  0  0  0  0  0  0  0  0
   50.0320   32.0410   42.5590 H   0  0  0  0  0  0  0  0  0  0  0  0
   47.6820   32.1250   42.8060 H   0  0  0  0  0  0  0  0  0  0  0  0
   48.4350   33.3880   43.8460 H   0  0  0  0  0  0  0  0  0  0  0  0
   45.2260   34.3540   45.1670 C   0  0  0  0  0  0  0  0  0  0  0  0
   44.5370   35.5610   45.0210 C   0  0  0  0  0  0  0  0  0  0  0  0
   44.8420   36.3330   43.8820 C   0  0  0  0  0  0  0  0  0  0  0  0
   45.7870   35.8450   43.0020 N   0  0  0  0  0  0  0  0  0  0  0  0
   46.4200   34.6850   43.1810 C   0  0  0  0  0  0  0  0  0  0  0  0
   46.1430   33.9480   44.2520 N   0  0  0  0  0  0  0  0  0  0  0  0
   44.9540   33.8160   46.0460 H   0  0  0  0  0  0  0  0  0  0  0  0
   43.8050   35.9470   45.6940 H   0  0  0  0  0  0  0  0  0  0  0  0
   44.3870   37.2820   43.6480 H   0  0  0  0  0  0  0  0  0  0  0  0
   46.5480   33.6300   41.0950 C   0  0  0  0  0  0  0  0  0  0  0  0
   46.3640   32.1140   41.2950 C   0  0  0  0  0  0  0  0  0  0  0  0
   47.1910   33.7580   39.7400 C   0  0  0  0  0  0  0  0  0  0  0  0
   45.1850   34.2030   40.9230 C   0  0  0  0  0  0  0  0  0  0  0  0
  1  6  1  0  0  0  0
  1 21  1  0  0  0  0
  2  8  1  0  0  0  0
  2  1  1  0  0  0  0
  2  3  1  0  0  0  0
  3  4  1  0  0  0  0
  3  9  1  0  0  0  0
  4 12  1  0  0  0  0
  5  4  1  0  0  0  0
  5 14  1  0  0  0  0
  5  6  1  0  0  0  0
  6 15  1  0  0  0  0
  6 16  1  0  0  0  0
  7  2  1  0  0  0  0
 10  3  1  0  0  0  0
 11  4  1  0  0  0  0
 13  5  1  0  0  0  0
 17 23  1  0  0  0  0
 18 17  1  0  0  0  0
 18 24  1  0  0  0  0
 19 18  2  0  0  0  0
 20 21  2  0  0  0  0
 20 19  1  0  0  0  0
 21 22  1  0  0  0  0
 22 17  2  0  0  0  0
 25 19  1  0  0  0  0
 26 27  1  0  0  0  0
 26  1  1  0  0  0  0
 28 26  1  0  0  0  0
 29 26  1  0  0  0  0
M  END
>  <minimizedAffinity>
-5.35887337

>  <minimizedRMSD>
0.389428854

$$$$
