
 OpenBabel03232520593D

 41 44  0  0  1  0  0  0  0  0999 V2000
   45.5060   32.9070   47.4300 C   0  0  0  0  0  0  0  0  0  0  0  0
   45.9550   32.6390   46.1800 C   0  0  0  0  0  0  0  0  0  0  0  0
   46.1360   31.2820   45.8990 C   0  0  0  0  0  0  0  0  0  0  0  0
   45.8870   30.2910   46.7900 N   0  0  0  0  0  0  0  0  0  0  0  0
   45.4280   30.6200   48.0570 C   0  0  0  0  0  0  0  0  0  0  0  0
   45.2500   31.9070   48.3440 N   0  0  0  0  0  0  0  0  0  0  0  0
   45.1940   29.6020   49.0210 N   0  0  0  0  0  0  0  0  0  0  0  0
   45.3330   33.9160   47.7640 H   0  0  0  0  0  0  0  0  0  0  0  0
   44.8180   28.7130   48.5790 H   0  0  0  0  0  0  0  0  0  0  0  0
   45.4230   29.8710   50.0040 H   0  0  0  0  0  0  0  0  0  0  0  0
   46.1790   33.5910   45.1440 C   0  0  2  0  0  0  0  0  0  0  0  0
   44.9810   34.6890   45.4090 C   0  0  0  0  0  0  0  0  0  0  0  0
   44.7280   35.6230   44.3490 C   0  0  0  0  0  0  0  0  0  0  0  0
   45.4950   35.5520   43.1020 C   0  0  1  0  0  0  0  0  0  0  0  0
   46.5460   34.5420   43.0230 C   0  0  0  0  0  0  0  0  0  0  0  0
   46.1110   33.3110   43.7810 C   0  0  0  0  0  0  0  0  0  0  0  0
   46.9800   34.3210   45.4530 H   0  0  0  0  0  0  0  0  0  0  0  0
   44.3440   34.8120   46.2730 H   0  0  0  0  0  0  0  0  0  0  0  0
   43.9640   36.3490   44.4820 H   0  0  0  0  0  0  0  0  0  0  0  0
   45.9150   36.5590   42.9140 H   0  0  0  0  0  0  0  0  0  0  0  0
   46.7830   34.3510   41.9550 H   0  0  0  0  0  0  0  0  0  0  0  0
   47.4770   34.9190   43.5070 H   0  0  0  0  0  0  0  0  0  0  0  0
   46.9460   32.6530   43.4210 H   0  0  0  0  0  0  0  0  0  0  0  0
   45.1870   32.8720   43.3570 H   0  0  0  0  0  0  0  0  0  0  0  0
   44.4470   35.2950   41.9790 C   0  0  0  0  0  0  0  0  0  0  0  0
   43.3930   34.5080   42.4040 F   0  0  0  0  0  0  0  0  0  0  0  0
   43.9130   36.5430   41.6590 F   0  0  0  0  0  0  0  0  0  0  0  0
   45.0900   34.8260   40.8470 F   0  0  0  0  0  0  0  0  0  0  0  0
   46.6530   30.5710   44.7410 C   0  0  0  0  0  0  0  0  0  0  0  0
   46.1800   29.8520   43.6900 C   0  0  0  0  0  0  0  0  0  0  0  0
   47.2750   29.3980   42.9510 C   0  0  0  0  0  0  0  0  0  0  0  0
   48.3530   29.8610   43.5840 N   0  0  0  0  0  0  0  0  0  0  0  0
   48.0130   30.5570   44.6430 N   0  0  0  0  0  0  0  0  0  0  0  0
   45.1120   29.7600   43.6110 H   0  0  0  0  0  0  0  0  0  0  0  0
   47.0740   28.8070   42.0740 H   0  0  0  0  0  0  0  0  0  0  0  0
   49.6700   29.5770   43.0890 C   0  0  0  0  0  0  0  0  0  0  0  0
   50.5610   30.5200   43.4220 N   0  0  0  0  0  0  0  0  0  0  0  0
   51.7100   30.2320   42.9640 O   0  0  0  0  0  0  0  0  0  0  0  0
   51.7240   29.0660   42.2760 C   0  0  0  0  0  0  0  0  0  0  0  0
   51.7350   28.1570   41.7380 H   0  0  0  0  0  0  0  0  0  0  0  0
   50.4080   28.7110   42.3960 N   0  0  0  0  0  0  0  0  0  0  0  0
  1  8  1  0  0  0  0
  1  6  1  0  0  0  0
  2  1  2  0  0  0  0
  3  2  1  0  0  0  0
  3  4  2  0  0  0  0
  4  5  1  0  0  0  0
  5  6  2  0  0  0  0
  5  7  1  0  0  0  0
  7 10  1  0  0  0  0
  9  7  1  0  0  0  0
 11 12  1  0  0  0  0
 11 17  1  1  0  0  0
 11  2  1  0  0  0  0
 12 18  1  0  0  0  0
 13 19  1  0  0  0  0
 13 12  2  0  0  0  0
 14 20  1  6  0  0  0
 14 13  1  0  0  0  0
 15 14  1  0  0  0  0
 15 22  1  0  0  0  0
 15 16  1  0  0  0  0
 16 11  1  0  0  0  0
 21 15  1  0  0  0  0
 23 16  1  0  0  0  0
 24 16  1  0  0  0  0
 25 26  1  0  0  0  0
 25 14  1  0  0  0  0
 27 25  1  0  0  0  0
 28 25  1  0  0  0  0
 29  3  1  0  0  0  0
 30 29  1  0  0  0  0
 31 32  1  0  0  0  0
 31 30  2  0  0  0  0
 32 33  1  0  0  0  0
 33 29  2  0  0  0  0
 34 30  1  0  0  0  0
 35 31  1  0  0  0  0
 36 37  2  0  0  0  0
 36 32  1  0  0  0  0
 38 37  1  0  0  0  0
 39 41  2  0  0  0  0
 39 38  1  0  0  0  0
 40 39  1  0  0  0  0
 41 36  1  0  0  0  0
M  END
>  <minimizedAffinity>
-5.87551641

>  <minimizedRMSD>
0.279476613

$$$$
