
 OpenBabel03232515593D

 34 36  0  0  0  0  0  0  0  0999 V2000
   46.9030   34.3890   42.1110 C   0  0  0  0  0  0  0  0  0  0  0  0
   44.5470   35.8640   44.6880 C   0  0  0  0  0  0  0  0  0  0  0  0
   45.2350   35.7250   43.4680 C   0  0  0  0  0  0  0  0  0  0  0  0
   46.1250   34.6480   43.3260 C   0  0  0  0  0  0  0  0  0  0  0  0
   46.2720   33.7960   44.3850 N   0  0  0  0  0  0  0  0  0  0  0  0
   45.5820   33.9820   45.5340 C   0  0  0  0  0  0  0  0  0  0  0  0
   44.7360   34.9890   45.6960 N   0  0  0  0  0  0  0  0  0  0  0  0
   43.8870   36.7170   44.7040 H   0  0  0  0  0  0  0  0  0  0  0  0
   45.1530   36.3630   42.6180 H   0  0  0  0  0  0  0  0  0  0  0  0
   45.7760   33.2460   46.3100 H   0  0  0  0  0  0  0  0  0  0  0  0
   45.9170   34.3370   40.9490 C   0  0  0  0  0  0  0  0  0  0  0  0
   45.5000   35.3470   40.7750 H   0  0  0  0  0  0  0  0  0  0  0  0
   45.1020   33.6040   41.1600 H   0  0  0  0  0  0  0  0  0  0  0  0
   46.4670   33.9510   40.0520 H   0  0  0  0  0  0  0  0  0  0  0  0
   47.9910   35.3390   41.8280 C   0  0  0  0  0  0  0  0  0  0  0  0
   47.7820   36.3930   42.0270 H   0  0  0  0  0  0  0  0  0  0  0  0
   48.9060   35.0110   42.3980 H   0  0  0  0  0  0  0  0  0  0  0  0
   48.2730   35.2570   40.7470 H   0  0  0  0  0  0  0  0  0  0  0  0
   47.4970   32.9930   42.2040 C   0  0  0  0  0  0  0  0  0  0  0  0
   46.9100   32.4490   42.9660 H   0  0  0  0  0  0  0  0  0  0  0  0
   48.5450   33.0230   42.5960 H   0  0  0  0  0  0  0  0  0  0  0  0
   47.4130   32.3080   40.9960 O   0  0  0  0  0  0  0  0  0  0  0  0
   48.5520   32.0980   40.2490 C   0  0  0  0  0  0  0  0  0  0  0  0
   49.7210   31.7220   40.8370 N   0  0  0  0  0  0  0  0  0  0  0  0
   50.6390   31.5870   39.9410 O   0  0  0  0  0  0  0  0  0  0  0  0
   50.1790   31.8470   38.7580 C   0  0  0  0  0  0  0  0  0  0  0  0
   48.8930   32.1620   38.9440 N   0  0  0  0  0  0  0  0  0  0  0  0
   50.8220   31.8240   37.5210 O   0  0  0  0  0  0  0  0  0  0  0  0
   52.0970   31.2790   37.4330 C   0  0  0  0  0  0  0  0  0  0  0  0
   52.6380   30.1060   36.9180 C   0  0  0  0  0  0  0  0  0  0  0  0
   54.0150   30.1270   37.1320 C   0  0  0  0  0  0  0  0  0  0  0  0
   54.2350   31.3290   37.7750 C   0  0  0  0  0  0  0  0  0  0  0  0
   55.2400   31.6210   38.0720 H   0  0  0  0  0  0  0  0  0  0  0  0
   53.1070   31.9470   37.9220 O   0  0  0  0  0  0  0  0  0  0  0  0
  1 19  1  0  0  0  0
  1  4  1  0  0  0  0
  2  8  1  0  0  0  0
  2  7  1  0  0  0  0
  3  2  2  0  0  0  0
  4  3  1  0  0  0  0
  4  5  2  0  0  0  0
  5  6  1  0  0  0  0
  6  7  2  0  0  0  0
  6 10  1  0  0  0  0
  9  3  1  0  0  0  0
 11 13  1  0  0  0  0
 11  1  1  0  0  0  0
 12 11  1  0  0  0  0
 14 11  1  0  0  0  0
 15 16  1  0  0  0  0
 15  1  1  0  0  0  0
 15 17  1  0  0  0  0
 18 15  1  0  0  0  0
 19 21  1  0  0  0  0
 19 20  1  0  0  0  0
 22 19  1  0  0  0  0
 23 24  2  0  0  0  0
 23 22  1  0  0  0  0
 25 24  1  0  0  0  0
 26 27  2  0  0  0  0
 26 25  1  0  0  0  0
 27 23  1  0  0  0  0
 28 26  1  0  0  0  0
 29 28  1  0  0  0  0
 29 34  1  0  0  0  0
 30 31  1  0  0  0  0
 30 29  2  0  0  0  0
 31 32  2  0  0  0  0
 32 34  1  0  0  0  0
 32 33  1  0  0  0  0
M  END
>  <minimizedAffinity>
-4.7123661

>  <minimizedRMSD>
1.8461647

$$$$
