
 OpenBabel03232521003D

 41 44  0  0  1  0  0  0  0  0999 V2000
   45.4730   32.8510   47.5170 C   0  0  0  0  0  0  0  0  0  0  0  0
   45.9420   32.6030   46.2700 C   0  0  0  0  0  0  0  0  0  0  0  0
   46.1230   31.2500   45.9700 C   0  0  0  0  0  0  0  0  0  0  0  0
   45.8570   30.2450   46.8390 N   0  0  0  0  0  0  0  0  0  0  0  0
   45.3790   30.5540   48.1040 C   0  0  0  0  0  0  0  0  0  0  0  0
   45.2000   31.8360   48.4100 N   0  0  0  0  0  0  0  0  0  0  0  0
   45.1270   29.5200   49.0470 N   0  0  0  0  0  0  0  0  0  0  0  0
   45.2980   33.8540   47.8670 H   0  0  0  0  0  0  0  0  0  0  0  0
   44.7540   28.6400   48.5830 H   0  0  0  0  0  0  0  0  0  0  0  0
   45.3410   29.7720   50.0380 H   0  0  0  0  0  0  0  0  0  0  0  0
   46.1850   33.5720   45.2550 C   0  0  2  0  0  0  0  0  0  0  0  0
   44.9630   34.6490   45.4960 C   0  0  0  0  0  0  0  0  0  0  0  0
   44.7310   35.5940   44.4410 C   0  0  0  0  0  0  0  0  0  0  0  0
   45.5380   35.5510   43.2180 C   0  0  1  0  0  0  0  0  0  0  0  0
   46.6050   34.5570   43.1590 C   0  0  0  0  0  0  0  0  0  0  0  0
   46.1640   33.3090   43.8870 C   0  0  0  0  0  0  0  0  0  0  0  0
   46.9650   34.3090   45.5990 H   0  0  0  0  0  0  0  0  0  0  0  0
   44.2980   34.7520   46.3410 H   0  0  0  0  0  0  0  0  0  0  0  0
   43.9530   36.3070   44.5580 H   0  0  0  0  0  0  0  0  0  0  0  0
   45.9500   36.5660   43.0560 H   0  0  0  0  0  0  0  0  0  0  0  0
   46.8790   34.3830   42.0970 H   0  0  0  0  0  0  0  0  0  0  0  0
   47.5150   34.9390   43.6780 H   0  0  0  0  0  0  0  0  0  0  0  0
   47.0200   32.6680   43.5450 H   0  0  0  0  0  0  0  0  0  0  0  0
   45.2610   32.8640   43.4280 H   0  0  0  0  0  0  0  0  0  0  0  0
   44.5310   35.2940   42.0590 C   0  0  0  0  0  0  0  0  0  0  0  0
   43.4640   34.5030   42.4440 F   0  0  0  0  0  0  0  0  0  0  0  0
   44.0050   36.5420   41.7240 F   0  0  0  0  0  0  0  0  0  0  0  0
   45.2130   34.8300   40.9480 F   0  0  0  0  0  0  0  0  0  0  0  0
   46.6560   30.5580   44.8080 C   0  0  0  0  0  0  0  0  0  0  0  0
   46.1960   29.9210   43.7000 C   0  0  0  0  0  0  0  0  0  0  0  0
   47.2980   29.4250   42.9990 C   0  0  0  0  0  0  0  0  0  0  0  0
   48.3670   29.7840   43.7100 N   0  0  0  0  0  0  0  0  0  0  0  0
   48.0160   30.4540   44.7820 N   0  0  0  0  0  0  0  0  0  0  0  0
   45.1300   29.9060   43.5600 H   0  0  0  0  0  0  0  0  0  0  0  0
   47.1090   28.8890   42.0850 H   0  0  0  0  0  0  0  0  0  0  0  0
   49.6880   29.4320   43.2730 C   0  0  0  0  0  0  0  0  0  0  0  0
   50.6380   29.8260   44.1320 N   0  0  0  0  0  0  0  0  0  0  0  0
   51.7890   29.4970   43.7070 O   0  0  0  0  0  0  0  0  0  0  0  0
   51.7460   28.8480   42.5210 C   0  0  0  0  0  0  0  0  0  0  0  0
   51.7120   28.3410   41.5950 H   0  0  0  0  0  0  0  0  0  0  0  0
   50.3940   28.8420   42.3080 N   0  0  0  0  0  0  0  0  0  0  0  0
  1  8  1  0  0  0  0
  1  6  1  0  0  0  0
  2  1  2  0  0  0  0
  3  2  1  0  0  0  0
  3  4  2  0  0  0  0
  4  5  1  0  0  0  0
  5  6  2  0  0  0  0
  5  7  1  0  0  0  0
  7 10  1  0  0  0  0
  9  7  1  0  0  0  0
 11 12  1  0  0  0  0
 11 17  1  1  0  0  0
 11  2  1  0  0  0  0
 12 18  1  0  0  0  0
 13 19  1  0  0  0  0
 13 12  2  0  0  0  0
 14 20  1  6  0  0  0
 14 13  1  0  0  0  0
 15 14  1  0  0  0  0
 15 22  1  0  0  0  0
 15 16  1  0  0  0  0
 16 11  1  0  0  0  0
 21 15  1  0  0  0  0
 23 16  1  0  0  0  0
 24 16  1  0  0  0  0
 25 26  1  0  0  0  0
 25 14  1  0  0  0  0
 27 25  1  0  0  0  0
 28 25  1  0  0  0  0
 29  3  1  0  0  0  0
 30 29  1  0  0  0  0
 31 30  2  0  0  0  0
 31 32  1  0  0  0  0
 32 33  1  0  0  0  0
 33 29  2  0  0  0  0
 34 30  1  0  0  0  0
 35 31  1  0  0  0  0
 36 32  1  0  0  0  0
 36 37  2  0  0  0  0
 38 37  1  0  0  0  0
 39 38  1  0  0  0  0
 40 39  1  0  0  0  0
 41 39  2  0  0  0  0
 41 36  1  0  0  0  0
M  END
>  <minimizedAffinity>
-5.88815975

>  <minimizedRMSD>
0.193181857

$$$$
