
 OpenBabel03232521003D

 42 45  0  0  1  0  0  0  0  0999 V2000
   45.3350   32.8980   47.5090 C   0  0  0  0  0  0  0  0  0  0  0  0
   45.9090   32.6440   46.3030 C   0  0  0  0  0  0  0  0  0  0  0  0
   46.1960   31.2970   46.0680 C   0  0  0  0  0  0  0  0  0  0  0  0
   45.9310   30.3030   46.9540 N   0  0  0  0  0  0  0  0  0  0  0  0
   45.3440   30.6140   48.1720 C   0  0  0  0  0  0  0  0  0  0  0  0
   45.0640   31.8890   48.4160 N   0  0  0  0  0  0  0  0  0  0  0  0
   45.0640   29.6030   49.1210 N   0  0  0  0  0  0  0  0  0  0  0  0
   45.0760   33.9050   47.7960 H   0  0  0  0  0  0  0  0  0  0  0  0
   44.2680   29.6680   49.7740 H   0  0  0  0  0  0  0  0  0  0  0  0
   45.7080   28.7590   49.1440 H   0  0  0  0  0  0  0  0  0  0  0  0
   46.1570   33.5960   45.2750 C   0  0  2  0  0  0  0  0  0  0  0  0
   44.9480   34.6900   45.5060 C   0  0  0  0  0  0  0  0  0  0  0  0
   44.7180   35.6210   44.4360 C   0  0  0  0  0  0  0  0  0  0  0  0
   45.5180   35.5480   43.2120 C   0  0  1  0  0  0  0  0  0  0  0  0
   46.5760   34.5420   43.1620 C   0  0  0  0  0  0  0  0  0  0  0  0
   46.1230   33.3100   43.9100 C   0  0  0  0  0  0  0  0  0  0  0  0
   46.9800   34.3010   45.6020 H   0  0  0  0  0  0  0  0  0  0  0  0
   44.2720   34.8410   46.3390 H   0  0  0  0  0  0  0  0  0  0  0  0
   43.9490   36.3420   44.5480 H   0  0  0  0  0  0  0  0  0  0  0  0
   45.9500   36.5590   43.0090 H   0  0  0  0  0  0  0  0  0  0  0  0
   47.5620   34.8740   43.5610 H   0  0  0  0  0  0  0  0  0  0  0  0
   46.7910   34.3200   42.0750 H   0  0  0  0  0  0  0  0  0  0  0  0
   46.9770   32.6600   43.5810 H   0  0  0  0  0  0  0  0  0  0  0  0
   45.1700   32.9780   43.4480 H   0  0  0  0  0  0  0  0  0  0  0  0
   44.5050   35.2840   42.0590 C   0  0  0  0  0  0  0  0  0  0  0  0
   43.4450   34.4850   42.4530 F   0  0  0  0  0  0  0  0  0  0  0  0
   43.9630   36.5220   41.7270 F   0  0  0  0  0  0  0  0  0  0  0  0
   45.1790   34.8250   40.9430 F   0  0  0  0  0  0  0  0  0  0  0  0
   46.8570   30.6080   44.9750 C   0  0  0  0  0  0  0  0  0  0  0  0
   46.5420   29.8230   43.9140 C   0  0  0  0  0  0  0  0  0  0  0  0
   47.7300   29.4590   43.2670 C   0  0  0  0  0  0  0  0  0  0  0  0
   48.7050   30.0410   43.9650 N   0  0  0  0  0  0  0  0  0  0  0  0
   48.2160   30.7230   44.9750 N   0  0  0  0  0  0  0  0  0  0  0  0
   45.4890   29.6170   43.7500 H   0  0  0  0  0  0  0  0  0  0  0  0
   47.6970   28.8280   42.3910 H   0  0  0  0  0  0  0  0  0  0  0  0
   53.1050   29.0110   44.3540 H   0  0  0  0  0  0  0  0  0  0  0  0
   52.2110   29.3520   43.9230 N   0  0  0  0  0  0  0  0  0  0  0  0
   51.0020   29.3890   44.4780 N   0  0  0  0  0  0  0  0  0  0  0  0
   50.0940   29.8970   43.6000 C   0  0  0  0  0  0  0  0  0  0  0  0
   50.7710   30.1930   42.4360 C   0  0  0  0  0  3  0  0  0  0  0  0
   52.0870   29.8400   42.6740 C   0  0  0  0  0  0  0  0  0  0  0  0
   52.8300   29.9740   41.9090 H   0  0  0  0  0  0  0  0  0  0  0  0
  1  8  1  0  0  0  0
  1  6  1  0  0  0  0
  2  1  2  0  0  0  0
  3  2  1  0  0  0  0
  3  4  2  0  0  0  0
  4  5  1  0  0  0  0
  5  6  2  0  0  0  0
  5  7  1  0  0  0  0
  7 10  1  0  0  0  0
  7  9  1  0  0  0  0
 11 12  1  0  0  0  0
 11 17  1  1  0  0  0
 11  2  1  0  0  0  0
 12 18  1  0  0  0  0
 13 19  1  0  0  0  0
 13 12  2  0  0  0  0
 14 20  1  6  0  0  0
 14 13  1  0  0  0  0
 15 14  1  0  0  0  0
 15 21  1  0  0  0  0
 15 16  1  0  0  0  0
 16 11  1  0  0  0  0
 22 15  1  0  0  0  0
 23 16  1  0  0  0  0
 24 16  1  0  0  0  0
 25 26  1  0  0  0  0
 25 14  1  0  0  0  0
 27 25  1  0  0  0  0
 28 25  1  0  0  0  0
 29  3  1  0  0  0  0
 30 29  1  0  0  0  0
 31 30  2  0  0  0  0
 31 32  1  0  0  0  0
 32 33  1  0  0  0  0
 33 29  2  0  0  0  0
 34 30  1  0  0  0  0
 35 31  1  0  0  0  0
 37 36  1  0  0  0  0
 37 38  1  0  0  0  0
 39 32  1  0  0  0  0
 39 38  2  0  0  0  0
 40 41  2  0  0  0  0
 40 39  1  0  0  0  0
 41 37  1  0  0  0  0
 42 41  1  0  0  0  0
M  END
>  <minimizedAffinity>
-5.98545265

>  <minimizedRMSD>
0.225185141

$$$$
