
 OpenBabel03232520563D

 40 43  0  0  1  0  0  0  0  0999 V2000
   45.6060   32.8060   47.6140 C   0  0  0  0  0  0  0  0  0  0  0  0
   45.8830   32.5240   46.3140 C   0  0  0  0  0  0  0  0  0  0  0  0
   45.8990   31.1690   45.9570 C   0  0  0  0  0  0  0  0  0  0  0  0
   45.6550   30.2070   46.8540 N   0  0  0  0  0  0  0  0  0  0  0  0
   45.3770   30.5180   48.1670 C   0  0  0  0  0  0  0  0  0  0  0  0
   45.3550   31.8030   48.5270 N   0  0  0  0  0  0  0  0  0  0  0  0
   45.1360   29.4850   49.1190 N   0  0  0  0  0  0  0  0  0  0  0  0
   45.5760   33.8250   47.9610 H   0  0  0  0  0  0  0  0  0  0  0  0
   44.3670   29.6810   49.7670 H   0  0  0  0  0  0  0  0  0  0  0  0
   45.7390   28.6160   49.0990 H   0  0  0  0  0  0  0  0  0  0  0  0
   46.1170   33.5350   45.3290 C   0  0  2  0  0  0  0  0  0  0  0  0
   44.9780   34.6100   45.5150 C   0  0  0  0  0  0  0  0  0  0  0  0
   44.7710   35.5400   44.4370 C   0  0  0  0  0  0  0  0  0  0  0  0
   45.5770   35.4670   43.2270 C   0  0  1  0  0  0  0  0  0  0  0  0
   46.6670   34.4820   43.2190 C   0  0  0  0  0  0  0  0  0  0  0  0
   46.2040   33.2270   43.9350 C   0  0  0  0  0  0  0  0  0  0  0  0
   46.9490   34.2220   45.6940 H   0  0  0  0  0  0  0  0  0  0  0  0
   44.2640   34.8410   46.2980 H   0  0  0  0  0  0  0  0  0  0  0  0
   44.0250   36.2930   44.4860 H   0  0  0  0  0  0  0  0  0  0  0  0
   46.0060   36.4820   43.0160 H   0  0  0  0  0  0  0  0  0  0  0  0
   46.9960   34.2890   42.1770 H   0  0  0  0  0  0  0  0  0  0  0  0
   47.5140   34.8830   43.8360 H   0  0  0  0  0  0  0  0  0  0  0  0
   46.7880   32.4470   43.5070 H   0  0  0  0  0  0  0  0  0  0  0  0
   45.1500   33.0680   43.5340 H   0  0  0  0  0  0  0  0  0  0  0  0
   44.6080   35.1960   42.0490 C   0  0  0  0  0  0  0  0  0  0  0  0
   43.5830   34.3420   42.3830 F   0  0  0  0  0  0  0  0  0  0  0  0
   44.0200   36.4180   41.7320 F   0  0  0  0  0  0  0  0  0  0  0  0
   45.3370   34.7900   40.9340 F   0  0  0  0  0  0  0  0  0  0  0  0
   46.1370   30.4670   44.7460 N   0  0  0  0  0  0  0  0  0  0  0  0
   45.1230   30.0960   43.9360 C   0  0  0  0  0  0  0  0  0  0  0  0
   45.6390   29.4780   42.8310 N   0  0  0  0  0  0  0  0  0  0  0  0
   46.9970   29.4720   42.9660 C   0  0  0  0  0  0  0  0  0  0  0  0
   48.0880   29.0310   42.2550 C   0  0  0  0  0  0  0  0  0  0  0  0
   49.3440   29.1810   42.6740 N   0  0  0  0  0  0  0  0  0  0  0  0
   49.6180   29.7870   43.8410 C   0  0  0  0  0  0  0  0  0  0  0  0
   48.5930   30.2550   44.6080 N   0  0  0  0  0  0  0  0  0  0  0  0
   47.3310   30.0960   44.1750 C   0  0  0  0  0  0  0  0  0  0  0  0
   47.7980   28.3840   41.0080 N   0  0  0  0  0  0  0  0  0  0  0  0
   48.2900   28.3580   40.0900 H   0  0  0  0  0  0  0  0  0  0  0  0
   46.9430   27.7990   40.8970 H   0  0  0  0  0  0  0  0  0  0  0  0
  1  8  1  0  0  0  0
  1  6  1  0  0  0  0
  2  1  2  0  0  0  0
  3  2  1  0  0  0  0
  3  4  2  0  0  0  0
  4  5  1  0  0  0  0
  5  6  2  0  0  0  0
  5  7  1  0  0  0  0
  7  9  1  0  0  0  0
 10  7  1  0  0  0  0
 11 12  1  0  0  0  0
 11 17  1  1  0  0  0
 11  2  1  0  0  0  0
 12 18  1  0  0  0  0
 13 19  1  0  0  0  0
 13 12  2  0  0  0  0
 14 20  1  6  0  0  0
 14 13  1  0  0  0  0
 15 14  1  0  0  0  0
 15 22  1  0  0  0  0
 15 16  1  0  0  0  0
 16 11  1  0  0  0  0
 21 15  1  0  0  0  0
 23 16  1  0  0  0  0
 24 16  1  0  0  0  0
 25 26  1  0  0  0  0
 25 14  1  0  0  0  0
 27 25  1  0  0  0  0
 28 25  1  0  0  0  0
 29  3  1  0  0  0  0
 30 29  1  0  0  0  0
 31 32  1  0  0  0  0
 31 30  2  0  0  0  0
 32 37  1  0  0  0  0
 33 34  1  0  0  0  0
 33 32  2  0  0  0  0
 34 35  2  0  0  0  0
 35 36  1  0  0  0  0
 37 36  2  0  0  0  0
 37 29  1  0  0  0  0
 38 33  1  0  0  0  0
 39 38  1  0  0  0  0
 40 38  1  0  0  0  0
M  END
>  <minimizedAffinity>
-5.75828981

>  <minimizedRMSD>
0.880492032

$$$$
