
 OpenBabel03232520493D

 35 38  0  0  1  0  0  0  0  0999 V2000
   46.6490   32.0010   44.8250 C   0  0  2  0  0  0  0  0  0  0  0  0
   46.7110   33.5060   44.6650 C   0  0  0  0  0  0  0  0  0  0  0  0
   46.3900   34.0730   43.3730 C   0  0  0  0  0  0  0  0  0  0  0  0
   46.0160   33.1850   42.2770 C   0  0  2  0  0  0  0  0  0  0  0  0
   46.1180   31.7340   42.4990 C   0  0  0  0  0  0  0  0  0  0  0  0
   45.6560   31.3960   43.8880 C   0  0  0  0  0  0  0  0  0  0  0  0
   47.6770   31.6760   44.5140 H   0  0  0  0  0  0  0  0  0  0  0  0
   46.9660   34.2560   45.3930 H   0  0  0  0  0  0  0  0  0  0  0  0
   46.4290   35.1310   43.2450 H   0  0  0  0  0  0  0  0  0  0  0  0
   44.9340   33.4090   42.0420 H   0  0  0  0  0  0  0  0  0  0  0  0
   47.1040   31.2910   42.2530 H   0  0  0  0  0  0  0  0  0  0  0  0
   45.3940   31.2070   41.8110 H   0  0  0  0  0  0  0  0  0  0  0  0
   45.6620   30.2970   44.0710 H   0  0  0  0  0  0  0  0  0  0  0  0
   44.6430   31.8180   44.0060 H   0  0  0  0  0  0  0  0  0  0  0  0
   46.9490   32.5090   47.2250 C   0  0  0  0  0  0  0  0  0  0  0  0
   46.4070   31.6680   46.2520 C   0  0  0  0  0  0  0  0  0  0  0  0
   45.6610   30.5310   46.6680 C   0  0  0  0  0  0  0  0  0  0  0  0
   45.5160   30.3210   47.9930 N   0  0  0  0  0  0  0  0  0  0  0  0
   46.0530   31.1530   48.9190 C   0  0  0  0  0  0  0  0  0  0  0  0
   46.7640   32.2400   48.5380 N   0  0  0  0  0  0  0  0  0  0  0  0
   47.5300   33.3940   47.0130 H   0  0  0  0  0  0  0  0  0  0  0  0
   45.2290   29.8650   45.9390 H   0  0  0  0  0  0  0  0  0  0  0  0
   45.8560   30.8610   49.9510 H   0  0  0  0  0  0  0  0  0  0  0  0
   46.7350   33.5400   41.0500 N   0  0  0  0  0  0  0  0  0  0  0  0
   47.9480   34.1500   40.9690 C   0  0  0  0  0  0  0  0  0  0  0  0
   48.2700   34.3040   39.6760 N   0  0  0  0  0  0  0  0  0  0  0  0
   47.2550   33.7880   38.9550 C   0  0  0  0  0  0  0  0  0  0  0  0
   47.0900   33.6970   37.5860 C   0  0  0  0  0  0  0  0  0  0  0  0
   45.9500   33.1210   37.1280 N   0  0  0  0  0  0  0  0  0  0  0  0
   44.9990   32.6460   37.9360 C   0  0  0  0  0  0  0  0  0  0  0  0
   45.1680   32.7390   39.2770 N   0  0  0  0  0  0  0  0  0  0  0  0
   46.2910   33.3070   39.8000 C   0  0  0  0  0  0  0  0  0  0  0  0
   48.0790   34.1910   36.6860 N   0  0  0  0  0  0  0  0  0  0  0  0
   47.6710   34.9590   36.0860 H   0  0  0  0  0  0  0  0  0  0  0  0
   49.0700   33.9930   36.4720 H   0  0  0  0  0  0  0  0  0  0  0  0
  1  7  1  6  0  0  0
  1 16  1  0  0  0  0
  2  1  1  0  0  0  0
  2  8  1  0  0  0  0
  3  2  2  0  0  0  0
  4 10  1  6  0  0  0
  4  5  1  0  0  0  0
  4  3  1  0  0  0  0
  5  6  1  0  0  0  0
  6 14  1  0  0  0  0
  6 13  1  0  0  0  0
  6  1  1  0  0  0  0
  9  3  1  0  0  0  0
 11  5  1  0  0  0  0
 12  5  1  0  0  0  0
 15 20  1  0  0  0  0
 16 17  1  0  0  0  0
 16 15  2  0  0  0  0
 17 18  2  0  0  0  0
 18 19  1  0  0  0  0
 19 23  1  0  0  0  0
 20 19  2  0  0  0  0
 21 15  1  0  0  0  0
 22 17  1  0  0  0  0
 24  4  1  0  0  0  0
 25 24  1  0  0  0  0
 26 25  2  0  0  0  0
 27 26  1  0  0  0  0
 27 32  1  0  0  0  0
 28 27  2  0  0  0  0
 29 28  1  0  0  0  0
 29 30  2  0  0  0  0
 30 31  1  0  0  0  0
 31 32  2  0  0  0  0
 32 24  1  0  0  0  0
 33 28  1  0  0  0  0
 34 33  1  0  0  0  0
 35 33  1  0  0  0  0
M  END
>  <minimizedAffinity>
-5.07917404

>  <minimizedRMSD>
4.73809004

$$$$
