
 OpenBabel03232519333D

 44 46  0  0  1  0  0  0  0  0999 V2000
   46.9070   34.3610   40.3550 C   0  0  1  0  0  0  0  0  0  0  0  0
   48.1380   34.0010   39.5020 C   0  0  0  0  0  0  0  0  0  0  0  0
   47.5760   33.7190   38.1120 C   0  0  0  0  0  0  0  0  0  0  0  0
   46.7900   32.4410   38.1610 C   0  0  0  0  0  0  0  0  0  0  0  0
   46.5190   32.0460   39.5750 C   0  0  0  0  0  0  0  0  0  0  0  0
   45.9970   33.2350   40.4130 C   0  0  2  0  0  0  0  0  0  0  0  0
   46.6160   35.3110   39.9300 H   0  0  0  0  0  0  0  0  0  0  0  0
   48.8290   34.8700   39.4770 H   0  0  0  0  0  0  0  0  0  0  0  0
   48.6570   33.1400   39.9120 H   0  0  0  0  0  0  0  0  0  0  0  0
   48.4960   33.6110   37.4650 H   0  0  0  0  0  0  0  0  0  0  0  0
   47.0410   34.5750   37.7140 H   0  0  0  0  0  0  0  0  0  0  0  0
   45.9080   32.4460   37.5000 H   0  0  0  0  0  0  0  0  0  0  0  0
   47.4430   31.6410   37.7500 H   0  0  0  0  0  0  0  0  0  0  0  0
   47.3890   31.5520   40.0410 H   0  0  0  0  0  0  0  0  0  0  0  0
   45.6890   31.3010   39.5470 H   0  0  0  0  0  0  0  0  0  0  0  0
   45.9490   32.6320   41.3430 H   0  0  0  0  0  0  0  0  0  0  0  0
   47.3830   34.7400   41.7760 C   0  0  0  0  0  0  0  0  0  0  0  0
   48.5210   34.6360   41.7510 H   0  0  0  0  0  0  0  0  0  0  0  0
   47.2430   35.8050   41.9880 H   0  0  0  0  0  0  0  0  0  0  0  0
   46.8180   33.7490   42.6890 C   0  0  0  0  0  0  0  0  0  0  0  0
   47.6020   33.0480   43.0560 H   0  0  0  0  0  0  0  0  0  0  0  0
   45.9820   33.0880   42.3350 H   0  0  0  0  0  0  0  0  0  0  0  0
   45.9680   33.6690   44.9400 C   0  0  0  0  0  0  0  0  0  0  0  0
   46.0410   34.3720   43.7360 C   0  0  0  0  0  0  0  0  0  0  0  0
   45.3800   35.5320   43.5410 C   0  0  0  0  0  0  0  0  0  0  0  0
   44.6280   36.0010   44.5690 N   0  0  0  0  0  0  0  0  0  0  0  0
   44.5290   35.3520   45.7470 C   0  0  0  0  0  0  0  0  0  0  0  0
   45.1980   34.1860   45.9360 N   0  0  0  0  0  0  0  0  0  0  0  0
   46.4980   32.7390   45.0970 H   0  0  0  0  0  0  0  0  0  0  0  0
   45.3530   36.1530   42.6740 H   0  0  0  0  0  0  0  0  0  0  0  0
   43.9220   35.7430   46.5550 H   0  0  0  0  0  0  0  0  0  0  0  0
   44.6770   33.5410   39.7710 C   0  0  0  0  0  0  0  0  0  0  0  0
   44.1160   32.5770   39.7110 H   0  0  0  0  0  0  0  0  0  0  0  0
   44.6950   33.9550   38.7730 H   0  0  0  0  0  0  0  0  0  0  0  0
   43.8250   34.4630   40.6340 C   0  0  0  0  0  0  0  0  0  0  0  0
   43.4390   34.0770   41.5470 H   0  0  0  0  0  0  0  0  0  0  0  0
   44.3440   35.4610   40.6770 H   0  0  0  0  0  0  0  0  0  0  0  0
   42.6260   34.8110   39.8300 N   0  0  0  0  0  0  0  0  0  0  0  0
   41.4940   35.2990   40.3670 N   0  0  0  0  0  0  0  0  0  0  0  0
   40.5770   35.5220   39.4090 C   0  0  0  0  0  0  0  0  0  0  0  0
   39.5860   35.9160   39.6140 H   0  0  0  0  0  0  0  0  0  0  0  0
   41.1580   35.1550   38.2130 C   0  0  0  0  0  0  0  0  0  0  0  0
   42.4340   34.7160   38.4990 C   0  0  0  0  0  0  0  0  0  0  0  0
   43.1790   34.3510   37.8020 H   0  0  0  0  0  0  0  0  0  0  0  0
  1  7  1  6  0  0  0
  1  6  1  0  0  0  0
  1 17  1  0  0  0  0
  2  9  1  0  0  0  0
  2  1  1  0  0  0  0
  3  4  1  0  0  0  0
  3  2  1  0  0  0  0
  4  5  1  0  0  0  0
  5 14  1  0  0  0  0
  5  6  1  0  0  0  0
  6 16  1  1  0  0  0
  8  2  1  0  0  0  0
 10  3  1  0  0  0  0
 11  3  1  0  0  0  0
 12  4  1  0  0  0  0
 13  4  1  0  0  0  0
 15  5  1  0  0  0  0
 17 19  1  0  0  0  0
 17 20  1  0  0  0  0
 18 17  1  0  0  0  0
 20 21  1  0  0  0  0
 20 24  1  0  0  0  0
 22 20  1  0  0  0  0
 23 29  1  0  0  0  0
 23 28  1  0  0  0  0
 24 23  2  0  0  0  0
 25 24  1  0  0  0  0
 25 26  2  0  0  0  0
 26 27  1  0  0  0  0
 27 28  2  0  0  0  0
 27 31  1  0  0  0  0
 30 25  1  0  0  0  0
 32  6  1  0  0  0  0
 32 35  1  0  0  0  0
 33 32  1  0  0  0  0
 34 32  1  0  0  0  0
 35 37  1  0  0  0  0
 35 36  1  0  0  0  0
 38 39  1  0  0  0  0
 38 35  1  0  0  0  0
 40 41  1  0  0  0  0
 40 39  2  0  0  0  0
 42 43  2  0  0  0  0
 42 40  1  0  0  0  0
 43 38  1  0  0  0  0
 44 43  1  0  0  0  0
M  END
>  <minimizedAffinity>
-4.94643354

>  <minimizedRMSD>
1.9786607

$$$$
