
 OpenBabel03232521003D

 42 45  0  0  1  0  0  0  0  0999 V2000
   45.3270   32.8040   47.4470 C   0  0  0  0  0  0  0  0  0  0  0  0
   45.9420   32.5860   46.2540 C   0  0  0  0  0  0  0  0  0  0  0  0
   46.2820   31.2530   46.0100 C   0  0  0  0  0  0  0  0  0  0  0  0
   46.0280   30.2390   46.8760 N   0  0  0  0  0  0  0  0  0  0  0  0
   45.3980   30.5120   48.0810 C   0  0  0  0  0  0  0  0  0  0  0  0
   45.0680   31.7740   48.3340 N   0  0  0  0  0  0  0  0  0  0  0  0
   45.1280   29.4800   49.0090 N   0  0  0  0  0  0  0  0  0  0  0  0
   45.0260   33.7970   47.7390 H   0  0  0  0  0  0  0  0  0  0  0  0
   44.3140   29.5090   49.6410 H   0  0  0  0  0  0  0  0  0  0  0  0
   45.8010   28.6590   49.0400 H   0  0  0  0  0  0  0  0  0  0  0  0
   46.1840   33.5600   45.2450 C   0  0  2  0  0  0  0  0  0  0  0  0
   44.9710   34.6440   45.5010 C   0  0  0  0  0  0  0  0  0  0  0  0
   44.7350   35.5960   44.4510 C   0  0  0  0  0  0  0  0  0  0  0  0
   45.5330   35.5520   43.2240 C   0  0  1  0  0  0  0  0  0  0  0  0
   46.5940   34.5510   43.1510 C   0  0  0  0  0  0  0  0  0  0  0  0
   46.1480   33.3020   43.8750 C   0  0  0  0  0  0  0  0  0  0  0  0
   47.0040   34.2610   45.5850 H   0  0  0  0  0  0  0  0  0  0  0  0
   44.2970   34.7760   46.3390 H   0  0  0  0  0  0  0  0  0  0  0  0
   43.9640   36.3120   44.5790 H   0  0  0  0  0  0  0  0  0  0  0  0
   45.9600   36.5680   43.0410 H   0  0  0  0  0  0  0  0  0  0  0  0
   47.5800   34.8780   43.5550 H   0  0  0  0  0  0  0  0  0  0  0  0
   46.8080   34.3530   42.0590 H   0  0  0  0  0  0  0  0  0  0  0  0
   47.0040   32.6630   43.5300 H   0  0  0  0  0  0  0  0  0  0  0  0
   45.1950   32.9760   43.4080 H   0  0  0  0  0  0  0  0  0  0  0  0
   44.5180   35.3070   42.0680 C   0  0  0  0  0  0  0  0  0  0  0  0
   43.4420   34.5280   42.4580 F   0  0  0  0  0  0  0  0  0  0  0  0
   44.0010   36.5560   41.7350 F   0  0  0  0  0  0  0  0  0  0  0  0
   45.1860   34.8360   40.9540 F   0  0  0  0  0  0  0  0  0  0  0  0
   46.9960   30.6030   44.9270 C   0  0  0  0  0  0  0  0  0  0  0  0
   46.7380   29.8240   43.8460 C   0  0  0  0  0  0  0  0  0  0  0  0
   47.9550   29.5090   43.2290 C   0  0  0  0  0  0  0  0  0  0  0  0
   48.8900   30.1100   43.9640 N   0  0  0  0  0  0  0  0  0  0  0  0
   48.3500   30.7600   44.9690 N   0  0  0  0  0  0  0  0  0  0  0  0
   45.6970   29.5880   43.6480 H   0  0  0  0  0  0  0  0  0  0  0  0
   47.9670   28.8900   42.3430 H   0  0  0  0  0  0  0  0  0  0  0  0
   52.7830   30.8140   41.7450 H   0  0  0  0  0  0  0  0  0  0  0  0
   52.1170   30.4430   42.4670 N   0  0  0  0  0  0  0  0  0  0  0  0
   50.8130   30.6790   42.5690 N   0  0  0  0  0  0  0  0  0  0  0  0
   50.2930   30.0150   43.6380 C   0  0  0  0  0  0  0  0  0  0  0  0
   51.3280   29.3280   44.2350 C   0  0  0  0  0  3  0  0  0  0  0  0
   52.4490   29.6180   43.4780 C   0  0  0  0  0  0  0  0  0  0  0  0
   53.4030   29.1960   43.7410 H   0  0  0  0  0  0  0  0  0  0  0  0
  1  8  1  0  0  0  0
  1  6  1  0  0  0  0
  2  1  2  0  0  0  0
  3  2  1  0  0  0  0
  3  4  2  0  0  0  0
  4  5  1  0  0  0  0
  5  6  2  0  0  0  0
  5  7  1  0  0  0  0
  7 10  1  0  0  0  0
  7  9  1  0  0  0  0
 11 12  1  0  0  0  0
 11 17  1  1  0  0  0
 11  2  1  0  0  0  0
 12 18  1  0  0  0  0
 13 19  1  0  0  0  0
 13 12  2  0  0  0  0
 14 20  1  6  0  0  0
 14 13  1  0  0  0  0
 15 14  1  0  0  0  0
 15 21  1  0  0  0  0
 15 16  1  0  0  0  0
 16 11  1  0  0  0  0
 22 15  1  0  0  0  0
 23 16  1  0  0  0  0
 24 16  1  0  0  0  0
 25 26  1  0  0  0  0
 25 14  1  0  0  0  0
 27 25  1  0  0  0  0
 28 25  1  0  0  0  0
 29 33  2  0  0  0  0
 29  3  1  0  0  0  0
 30 29  1  0  0  0  0
 31 30  2  0  0  0  0
 31 32  1  0  0  0  0
 32 33  1  0  0  0  0
 34 30  1  0  0  0  0
 35 31  1  0  0  0  0
 36 37  1  0  0  0  0
 37 38  1  0  0  0  0
 37 41  1  0  0  0  0
 38 39  2  0  0  0  0
 39 32  1  0  0  0  0
 39 40  1  0  0  0  0
 41 42  1  0  0  0  0
 41 40  2  0  0  0  0
M  END
>  <minimizedAffinity>
-6.04004288

>  <minimizedRMSD>
0.348494858

$$$$
