
 OpenBabel03232520143D

 37 40  0  0  0  0  0  0  0  0999 V2000
   47.5060   34.1200   42.1610 C   0  0  0  0  0  0  0  0  0  0  0  0
   48.3940   35.2350   41.6930 C   0  0  0  0  0  0  0  0  0  0  0  0
   49.7460   35.2800   42.2960 C   0  0  0  0  0  0  0  0  0  0  0  0
   50.4160   33.9530   42.4290 C   0  0  0  0  0  0  0  0  0  0  0  0
   49.5260   32.7920   42.0290 C   0  0  0  0  0  0  0  0  0  0  0  0
   48.2280   32.9930   42.7890 C   0  0  0  0  0  0  0  0  0  0  0  0
   47.8900   36.2060   41.8920 H   0  0  0  0  0  0  0  0  0  0  0  0
   48.5350   35.1770   40.5820 H   0  0  0  0  0  0  0  0  0  0  0  0
   50.3850   35.9080   41.6430 H   0  0  0  0  0  0  0  0  0  0  0  0
   49.6620   35.8400   43.2590 H   0  0  0  0  0  0  0  0  0  0  0  0
   51.4110   33.8790   41.9560 H   0  0  0  0  0  0  0  0  0  0  0  0
   50.6020   33.8070   43.5320 H   0  0  0  0  0  0  0  0  0  0  0  0
   50.0260   31.8490   42.2960 H   0  0  0  0  0  0  0  0  0  0  0  0
   49.4050   32.9260   40.9240 H   0  0  0  0  0  0  0  0  0  0  0  0
   47.6320   32.1020   42.9260 H   0  0  0  0  0  0  0  0  0  0  0  0
   48.5220   33.3240   43.8250 H   0  0  0  0  0  0  0  0  0  0  0  0
   45.2490   34.4220   45.0800 C   0  0  0  0  0  0  0  0  0  0  0  0
   44.5440   35.5990   44.8180 C   0  0  0  0  0  0  0  0  0  0  0  0
   44.8520   36.2890   43.6540 C   0  0  0  0  0  0  0  0  0  0  0  0
   45.8170   35.7760   42.8480 N   0  0  0  0  0  0  0  0  0  0  0  0
   46.4900   34.6430   43.1080 C   0  0  0  0  0  0  0  0  0  0  0  0
   46.1880   33.9660   44.2500 N   0  0  0  0  0  0  0  0  0  0  0  0
   45.0010   33.8830   46.0010 H   0  0  0  0  0  0  0  0  0  0  0  0
   43.7800   35.9870   45.4760 H   0  0  0  0  0  0  0  0  0  0  0  0
   44.3610   37.2140   43.3580 H   0  0  0  0  0  0  0  0  0  0  0  0
   46.7230   33.7020   40.9850 N   0  0  0  0  0  0  0  0  0  0  0  0
   45.5230   33.1430   41.0840 C   0  0  0  0  0  0  0  0  0  0  0  0
   45.0290   32.8590   39.8660 N   0  0  0  0  0  0  0  0  0  0  0  0
   45.9600   33.2590   38.9830 C   0  0  0  0  0  0  0  0  0  0  0  0
   46.0620   33.2480   37.6030 C   0  0  0  0  0  0  0  0  0  0  0  0
   47.1720   33.7430   36.9850 N   0  0  0  0  0  0  0  0  0  0  0  0
   48.2000   34.2570   37.7000 C   0  0  0  0  0  0  0  0  0  0  0  0
   48.0970   34.2650   39.0480 N   0  0  0  0  0  0  0  0  0  0  0  0
   47.0360   33.7940   39.6810 C   0  0  0  0  0  0  0  0  0  0  0  0
   44.9530   32.6990   36.9220 N   0  0  0  0  0  0  0  0  0  0  0  0
   44.8330   31.6590   37.0810 H   0  0  0  0  0  0  0  0  0  0  0  0
   44.1590   32.9530   36.2800 H   0  0  0  0  0  0  0  0  0  0  0  0
  1  6  1  0  0  0  0
  1 21  1  0  0  0  0
  2  7  1  0  0  0  0
  2  1  1  0  0  0  0
  2  3  1  0  0  0  0
  3  4  1  0  0  0  0
  3 10  1  0  0  0  0
  4 12  1  0  0  0  0
  5 13  1  0  0  0  0
  5  4  1  0  0  0  0
  5  6  1  0  0  0  0
  6 15  1  0  0  0  0
  6 16  1  0  0  0  0
  8  2  1  0  0  0  0
  9  3  1  0  0  0  0
 11  4  1  0  0  0  0
 14  5  1  0  0  0  0
 17 23  1  0  0  0  0
 18 17  1  0  0  0  0
 18 24  1  0  0  0  0
 19 18  2  0  0  0  0
 20 21  2  0  0  0  0
 20 19  1  0  0  0  0
 21 22  1  0  0  0  0
 22 17  2  0  0  0  0
 25 19  1  0  0  0  0
 26 27  1  0  0  0  0
 26  1  1  0  0  0  0
 28 27  2  0  0  0  0
 29 34  1  0  0  0  0
 29 28  1  0  0  0  0
 30 29  2  0  0  0  0
 31 30  1  0  0  0  0
 31 32  2  0  0  0  0
 32 33  1  0  0  0  0
 33 34  2  0  0  0  0
 34 26  1  0  0  0  0
 35 36  1  0  0  0  0
 35 30  1  0  0  0  0
 37 35  1  0  0  0  0
M  END
>  <minimizedAffinity>
-6.46617508

>  <minimizedRMSD>
0.754177928

$$$$
