
 OpenBabel03232517303D

 34 37  0  0  0  0  0  0  0  0999 V2000
   46.4480   34.3640   41.6170 N   0  0  0  0  0  0  0  0  0  0  0  0
   45.8470   33.6920   40.6210 C   0  0  0  0  0  0  0  0  0  0  0  0
   46.4540   33.4890   39.4020 C   0  0  0  0  0  0  0  0  0  0  0  0
   47.7150   34.0220   39.2720 C   0  0  0  0  0  0  0  0  0  0  0  0
   48.3420   33.8740   38.1710 O   0  0  0  0  0  0  0  0  0  0  0  0
   48.3510   34.7100   40.2680 N   0  0  0  0  0  0  0  0  0  0  0  0
   47.6950   34.8740   41.4490 C   0  0  0  0  0  0  0  0  0  0  0  0
   48.3270   35.5100   42.3170 O   0  0  0  0  0  0  0  0  0  0  0  0
   49.3110   35.0950   40.1190 H   0  0  0  0  0  0  0  0  0  0  0  0
   44.6740   36.1160   44.3270 C   0  0  0  0  0  0  0  0  0  0  0  0
   45.2160   35.8220   43.0540 C   0  0  0  0  0  0  0  0  0  0  0  0
   45.9220   34.6260   42.8950 C   0  0  0  0  0  0  0  0  0  0  0  0
   46.0580   33.7910   43.9810 N   0  0  0  0  0  0  0  0  0  0  0  0
   45.5230   34.1130   45.1830 C   0  0  0  0  0  0  0  0  0  0  0  0
   44.8340   35.2660   45.3630 N   0  0  0  0  0  0  0  0  0  0  0  0
   44.1240   37.0320   44.4790 H   0  0  0  0  0  0  0  0  0  0  0  0
   45.0730   36.5200   42.2440 H   0  0  0  0  0  0  0  0  0  0  0  0
   45.7190   33.3480   45.9390 H   0  0  0  0  0  0  0  0  0  0  0  0
   44.5400   33.1940   40.8890 N   0  0  0  0  0  0  0  0  0  0  0  0
   44.2620   31.9940   41.4400 C   0  0  0  0  0  0  0  0  0  0  0  0
   42.9510   31.8150   41.5640 N   0  0  0  0  0  0  0  0  0  0  0  0
   42.3360   32.9050   41.0930 C   0  0  0  0  0  0  0  0  0  0  0  0
   41.0400   33.3550   40.9350 C   0  0  0  0  0  0  0  0  0  0  0  0
   40.7570   34.5710   40.3970 N   0  0  0  0  0  0  0  0  0  0  0  0
   41.7710   35.3830   39.9960 C   0  0  0  0  0  0  0  0  0  0  0  0
   43.0710   34.9900   40.1300 N   0  0  0  0  0  0  0  0  0  0  0  0
   43.3360   33.7770   40.6670 C   0  0  0  0  0  0  0  0  0  0  0  0
   39.9890   32.4890   41.3610 N   0  0  0  0  0  0  0  0  0  0  0  0
   40.0220   31.4400   41.2720 H   0  0  0  0  0  0  0  0  0  0  0  0
   39.0600   32.5710   41.7960 H   0  0  0  0  0  0  0  0  0  0  0  0
   45.7770   32.7470   38.3220 C   0  0  0  0  0  0  0  0  0  0  0  0
   44.7860   32.4230   38.6650 H   0  0  0  0  0  0  0  0  0  0  0  0
   45.6730   33.3720   37.4150 H   0  0  0  0  0  0  0  0  0  0  0  0
   46.3360   31.8160   38.0480 H   0  0  0  0  0  0  0  0  0  0  0  0
  1 12  1  0  0  0  0
  2 19  1  0  0  0  0
  2  1  1  0  0  0  0
  3  2  2  0  0  0  0
  4  3  1  0  0  0  0
  4  6  1  0  0  0  0
  5  4  2  0  0  0  0
  6  7  1  0  0  0  0
  7  1  1  0  0  0  0
  7  8  2  0  0  0  0
  9  6  1  0  0  0  0
 10 16  1  0  0  0  0
 10 15  1  0  0  0  0
 11 10  2  0  0  0  0
 12 11  1  0  0  0  0
 12 13  2  0  0  0  0
 13 14  1  0  0  0  0
 14 15  2  0  0  0  0
 14 18  1  0  0  0  0
 17 11  1  0  0  0  0
 19 20  1  0  0  0  0
 20 21  2  0  0  0  0
 22 21  1  0  0  0  0
 23 22  1  0  0  0  0
 23 28  1  0  0  0  0
 24 23  2  0  0  0  0
 25 26  2  0  0  0  0
 25 24  1  0  0  0  0
 26 27  1  0  0  0  0
 27 19  1  0  0  0  0
 27 22  2  0  0  0  0
 28 30  1  0  0  0  0
 29 28  1  0  0  0  0
 31 32  1  0  0  0  0
 31  3  1  0  0  0  0
 33 31  1  0  0  0  0
 34 31  1  0  0  0  0
M  END
>  <minimizedAffinity>
-6.35653353

>  <minimizedRMSD>
1.25884044

$$$$
