
 OpenBabel03232521003D

 42 45  0  0  1  0  0  0  0  0999 V2000
   45.4110   32.8830   47.4700 C   0  0  0  0  0  0  0  0  0  0  0  0
   45.9320   32.6270   46.2400 C   0  0  0  0  0  0  0  0  0  0  0  0
   46.1730   31.2750   45.9820 C   0  0  0  0  0  0  0  0  0  0  0  0
   45.9140   30.2790   46.8670 N   0  0  0  0  0  0  0  0  0  0  0  0
   45.3830   30.5920   48.1100 C   0  0  0  0  0  0  0  0  0  0  0  0
   45.1470   31.8720   48.3770 N   0  0  0  0  0  0  0  0  0  0  0  0
   45.1110   29.5790   49.0580 N   0  0  0  0  0  0  0  0  0  0  0  0
   45.1910   33.8930   47.7760 H   0  0  0  0  0  0  0  0  0  0  0  0
   44.3430   29.6590   49.7420 H   0  0  0  0  0  0  0  0  0  0  0  0
   45.7330   28.7180   49.0490 H   0  0  0  0  0  0  0  0  0  0  0  0
   46.1670   33.5830   45.2130 C   0  0  2  0  0  0  0  0  0  0  0  0
   44.9660   34.6810   45.4700 C   0  0  0  0  0  0  0  0  0  0  0  0
   44.7220   35.6180   44.4090 C   0  0  0  0  0  0  0  0  0  0  0  0
   45.5010   35.5480   43.1710 C   0  0  1  0  0  0  0  0  0  0  0  0
   46.5540   34.5380   43.0980 C   0  0  0  0  0  0  0  0  0  0  0  0
   46.1080   33.3040   43.8480 C   0  0  0  0  0  0  0  0  0  0  0  0
   46.9970   34.2820   45.5290 H   0  0  0  0  0  0  0  0  0  0  0  0
   44.3050   34.8300   46.3150 H   0  0  0  0  0  0  0  0  0  0  0  0
   43.9580   36.3410   44.5360 H   0  0  0  0  0  0  0  0  0  0  0  0
   45.9340   36.5580   42.9650 H   0  0  0  0  0  0  0  0  0  0  0  0
   47.5480   34.8630   43.4820 H   0  0  0  0  0  0  0  0  0  0  0  0
   46.7490   34.3210   42.0060 H   0  0  0  0  0  0  0  0  0  0  0  0
   46.9540   32.6520   43.5000 H   0  0  0  0  0  0  0  0  0  0  0  0
   45.1460   32.9780   43.4000 H   0  0  0  0  0  0  0  0  0  0  0  0
   44.4680   35.2930   42.0340 C   0  0  0  0  0  0  0  0  0  0  0  0
   43.4080   34.5020   42.4430 F   0  0  0  0  0  0  0  0  0  0  0  0
   43.9300   36.5370   41.7120 F   0  0  0  0  0  0  0  0  0  0  0  0
   45.1200   34.8310   40.9070 F   0  0  0  0  0  0  0  0  0  0  0  0
   46.7740   30.5810   44.8580 C   0  0  0  0  0  0  0  0  0  0  0  0
   46.3990   29.8050   43.8090 C   0  0  0  0  0  0  0  0  0  0  0  0
   47.5510   29.4260   43.1080 C   0  0  0  0  0  0  0  0  0  0  0  0
   48.5650   29.9890   43.7640 N   0  0  0  0  0  0  0  0  0  0  0  0
   48.1330   30.6740   44.7970 N   0  0  0  0  0  0  0  0  0  0  0  0
   45.3360   29.6170   43.6910 H   0  0  0  0  0  0  0  0  0  0  0  0
   47.4690   28.7990   42.2320 H   0  0  0  0  0  0  0  0  0  0  0  0
   52.4710   27.9150   42.7590 H   0  0  0  0  0  0  0  0  0  0  0  0
   51.7760   28.6900   42.8840 N   0  0  0  0  0  0  0  0  0  0  0  0
   50.5190   28.5960   43.3100 N   0  0  0  0  0  0  0  0  0  0  0  0
   49.9340   29.8240   43.3360 C   0  0  0  0  0  0  0  0  0  0  0  0
   50.8750   30.7350   42.9050 C   0  0  0  0  0  3  0  0  0  0  0  0
   52.0090   29.9920   42.6320 C   0  0  0  0  0  0  0  0  0  0  0  0
   52.9010   30.4770   42.2740 H   0  0  0  0  0  0  0  0  0  0  0  0
  1  8  1  0  0  0  0
  1  6  1  0  0  0  0
  2  1  2  0  0  0  0
  3  2  1  0  0  0  0
  3  4  2  0  0  0  0
  4  5  1  0  0  0  0
  5  6  2  0  0  0  0
  5  7  1  0  0  0  0
  7  9  1  0  0  0  0
 10  7  1  0  0  0  0
 11 12  1  0  0  0  0
 11 17  1  1  0  0  0
 11  2  1  0  0  0  0
 12 18  1  0  0  0  0
 13 19  1  0  0  0  0
 13 12  2  0  0  0  0
 14 20  1  6  0  0  0
 14 13  1  0  0  0  0
 15 14  1  0  0  0  0
 15 21  1  0  0  0  0
 15 16  1  0  0  0  0
 16 11  1  0  0  0  0
 22 15  1  0  0  0  0
 23 16  1  0  0  0  0
 24 16  1  0  0  0  0
 25 26  1  0  0  0  0
 25 14  1  0  0  0  0
 27 25  1  0  0  0  0
 28 25  1  0  0  0  0
 29  3  1  0  0  0  0
 30 29  1  0  0  0  0
 31 32  1  0  0  0  0
 31 30  2  0  0  0  0
 32 33  1  0  0  0  0
 33 29  2  0  0  0  0
 34 30  1  0  0  0  0
 35 31  1  0  0  0  0
 36 37  1  0  0  0  0
 37 38  1  0  0  0  0
 38 39  2  0  0  0  0
 39 32  1  0  0  0  0
 40 39  1  0  0  0  0
 41 37  1  0  0  0  0
 41 40  2  0  0  0  0
 42 41  1  0  0  0  0
M  END
>  <minimizedAffinity>
-6.01643133

>  <minimizedRMSD>
0.180318013

$$$$
