
 OpenBabel03232521003D

 42 45  0  0  1  0  0  0  0  0999 V2000
   45.4550   32.9260   47.4380 C   0  0  0  0  0  0  0  0  0  0  0  0
   45.9420   32.6530   46.1980 C   0  0  0  0  0  0  0  0  0  0  0  0
   46.1530   31.2950   45.9440 C   0  0  0  0  0  0  0  0  0  0  0  0
   45.8980   30.3100   46.8420 N   0  0  0  0  0  0  0  0  0  0  0  0
   45.4030   30.6410   48.0950 C   0  0  0  0  0  0  0  0  0  0  0  0
   45.1960   31.9270   48.3580 N   0  0  0  0  0  0  0  0  0  0  0  0
   45.1360   29.6390   49.0570 N   0  0  0  0  0  0  0  0  0  0  0  0
   45.2600   33.9430   47.7430 H   0  0  0  0  0  0  0  0  0  0  0  0
   44.3860   29.7370   49.7580 H   0  0  0  0  0  0  0  0  0  0  0  0
   45.7420   28.7670   49.0380 H   0  0  0  0  0  0  0  0  0  0  0  0
   46.1690   33.5990   45.1590 C   0  0  2  0  0  0  0  0  0  0  0  0
   44.9770   34.7050   45.4210 C   0  0  0  0  0  0  0  0  0  0  0  0
   44.7240   35.6330   44.3540 C   0  0  0  0  0  0  0  0  0  0  0  0
   45.4870   35.5480   43.1070 C   0  0  1  0  0  0  0  0  0  0  0  0
   46.5330   34.5310   43.0300 C   0  0  0  0  0  0  0  0  0  0  0  0
   46.0910   33.3070   43.7980 C   0  0  0  0  0  0  0  0  0  0  0  0
   47.0070   34.2960   45.4580 H   0  0  0  0  0  0  0  0  0  0  0  0
   44.3280   34.8660   46.2730 H   0  0  0  0  0  0  0  0  0  0  0  0
   43.9660   36.3620   44.4850 H   0  0  0  0  0  0  0  0  0  0  0  0
   45.9230   36.5530   42.8870 H   0  0  0  0  0  0  0  0  0  0  0  0
   47.5340   34.8550   43.3980 H   0  0  0  0  0  0  0  0  0  0  0  0
   46.7140   34.3030   41.9390 H   0  0  0  0  0  0  0  0  0  0  0  0
   46.9280   32.6470   43.4460 H   0  0  0  0  0  0  0  0  0  0  0  0
   45.1210   32.9820   43.3650 H   0  0  0  0  0  0  0  0  0  0  0  0
   44.4380   35.2880   41.9860 C   0  0  0  0  0  0  0  0  0  0  0  0
   43.3840   34.4970   42.4130 F   0  0  0  0  0  0  0  0  0  0  0  0
   43.8940   36.5300   41.6670 F   0  0  0  0  0  0  0  0  0  0  0  0
   45.0740   34.8220   40.8510 F   0  0  0  0  0  0  0  0  0  0  0  0
   46.7140   30.5840   44.8100 C   0  0  0  0  0  0  0  0  0  0  0  0
   46.2990   29.8210   43.7670 C   0  0  0  0  0  0  0  0  0  0  0  0
   47.4280   29.4060   43.0480 C   0  0  0  0  0  0  0  0  0  0  0  0
   48.4690   29.9370   43.6890 N   0  0  0  0  0  0  0  0  0  0  0  0
   48.0740   30.6350   44.7290 N   0  0  0  0  0  0  0  0  0  0  0  0
   45.2300   29.6660   43.6670 H   0  0  0  0  0  0  0  0  0  0  0  0
   47.3120   28.7820   42.1740 H   0  0  0  0  0  0  0  0  0  0  0  0
   52.1610   27.7480   42.2230 H   0  0  0  0  0  0  0  0  0  0  0  0
   51.5480   28.5420   42.5320 N   0  0  0  0  0  0  0  0  0  0  0  0
   50.2760   28.4870   42.9160 N   0  0  0  0  0  0  0  0  0  0  0  0
   49.8250   29.7300   43.2400 C   0  0  0  0  0  0  0  0  0  0  0  0
   50.8720   30.6070   43.0490 C   0  0  0  0  0  3  0  0  0  0  0  0
   51.9290   29.8320   42.6070 C   0  0  0  0  0  0  0  0  0  0  0  0
   52.8760   30.2870   42.3840 H   0  0  0  0  0  0  0  0  0  0  0  0
  1  8  1  0  0  0  0
  1  6  1  0  0  0  0
  2  1  2  0  0  0  0
  3  2  1  0  0  0  0
  3  4  2  0  0  0  0
  4  5  1  0  0  0  0
  5  6  2  0  0  0  0
  5  7  1  0  0  0  0
  7  9  1  0  0  0  0
 10  7  1  0  0  0  0
 11 12  1  0  0  0  0
 11 17  1  1  0  0  0
 11  2  1  0  0  0  0
 12 18  1  0  0  0  0
 13 19  1  0  0  0  0
 13 12  2  0  0  0  0
 14 20  1  6  0  0  0
 14 13  1  0  0  0  0
 15 14  1  0  0  0  0
 15 21  1  0  0  0  0
 15 16  1  0  0  0  0
 16 11  1  0  0  0  0
 22 15  1  0  0  0  0
 23 16  1  0  0  0  0
 24 16  1  0  0  0  0
 25 26  1  0  0  0  0
 25 14  1  0  0  0  0
 27 25  1  0  0  0  0
 28 25  1  0  0  0  0
 29  3  1  0  0  0  0
 30 29  1  0  0  0  0
 31 32  1  0  0  0  0
 31 30  2  0  0  0  0
 32 33  1  0  0  0  0
 33 29  2  0  0  0  0
 34 30  1  0  0  0  0
 35 31  1  0  0  0  0
 36 37  1  0  0  0  0
 37 41  1  0  0  0  0
 37 38  1  0  0  0  0
 38 39  2  0  0  0  0
 39 32  1  0  0  0  0
 40 39  1  0  0  0  0
 41 40  2  0  0  0  0
 42 41  1  0  0  0  0
M  END
>  <minimizedAffinity>
-5.97719765

>  <minimizedRMSD>
0.199967459

$$$$
