
 OpenBabel03232518043D

 45 47  0  0  1  0  0  0  0  0999 V2000
   48.4710   33.1120   41.5670 C   0  0  0  0  0  0  0  0  0  0  0  0
   48.1080   32.6590   42.4670 H   0  0  0  0  0  0  0  0  0  0  0  0
   48.2470   32.3700   40.6930 H   0  0  0  0  0  0  0  0  0  0  0  0
   47.9460   34.4210   41.1780 C   0  0  0  0  0  0  0  0  0  0  0  0
   44.1770   34.7580   41.3600 C   0  0  0  0  0  0  0  0  0  0  0  0
   45.4220   34.3750   40.8480 C   0  0  0  0  0  0  0  0  0  0  0  0
   46.5780   34.7370   41.5570 C   0  0  0  0  0  0  0  0  0  0  0  0
   46.4270   35.4420   42.7070 N   0  0  0  0  0  0  0  0  0  0  0  0
   45.1910   35.7940   43.1720 C   0  0  0  0  0  0  0  0  0  0  0  0
   44.0920   35.4600   42.5140 N   0  0  0  0  0  0  0  0  0  0  0  0
   45.5720   33.8200   39.9450 H   0  0  0  0  0  0  0  0  0  0  0  0
   45.1460   36.3530   44.0920 H   0  0  0  0  0  0  0  0  0  0  0  0
   43.0180   34.3430   40.5780 C   0  0  0  0  0  0  0  0  0  0  0  0
   42.4440   34.9460   39.7020 O   0  0  0  0  0  0  0  0  0  0  0  0
   42.6860   33.3560   40.8750 H   0  0  0  0  0  0  0  0  0  0  0  0
   48.8440   35.5810   41.5060 C   0  0  0  0  0  0  0  0  0  0  0  0
   48.5840   36.4160   40.8100 H   0  0  0  0  0  0  0  0  0  0  0  0
   48.7570   35.9200   42.5590 H   0  0  0  0  0  0  0  0  0  0  0  0
   49.8860   35.2870   41.2300 H   0  0  0  0  0  0  0  0  0  0  0  0
   48.0000   34.3680   39.6220 C   0  0  0  0  0  0  0  0  0  0  0  0
   49.0470   34.3360   39.2700 H   0  0  0  0  0  0  0  0  0  0  0  0
   47.4220   35.2060   39.2320 H   0  0  0  0  0  0  0  0  0  0  0  0
   47.4880   33.4160   39.3770 H   0  0  0  0  0  0  0  0  0  0  0  0
   49.8840   33.2520   41.5860 O   0  0  0  0  0  0  0  0  0  0  0  0
   50.3200   31.9770   41.3390 C   0  0  1  0  0  0  0  0  0  0  0  0
   51.6590   31.6950   40.8660 C   0  0  0  0  0  0  0  0  0  0  0  0
   51.4150   31.5120   42.3220 C   0  0  2  0  0  0  0  0  0  0  0  0
   49.5530   31.1550   41.1910 H   0  0  0  0  0  0  0  0  0  0  0  0
   51.9240   30.8120   40.2730 H   0  0  0  0  0  0  0  0  0  0  0  0
   52.2840   32.5830   40.5590 H   0  0  0  0  0  0  0  0  0  0  0  0
   51.8830   32.2350   42.9900 H   0  0  0  0  0  0  0  0  0  0  0  0
   51.2400   30.1290   42.8780 C   0  0  1  0  0  0  0  0  0  0  0  0
   51.3630   30.1470   43.9620 H   0  0  0  0  0  0  0  0  0  0  0  0
   49.9180   29.4690   42.5420 C   0  0  0  0  0  0  0  0  0  0  0  0
   49.0610   30.1510   42.7130 H   0  0  0  0  0  0  0  0  0  0  0  0
   49.8670   28.5530   43.1570 H   0  0  0  0  0  0  0  0  0  0  0  0
   49.9730   29.1500   41.4810 H   0  0  0  0  0  0  0  0  0  0  0  0
   52.2990   29.2080   42.2880 C   0  0  0  0  0  0  0  0  0  0  0  0
   52.0030   28.1620   42.2760 H   0  0  0  0  0  0  0  0  0  0  0  0
   52.4300   29.5660   41.2370 H   0  0  0  0  0  0  0  0  0  0  0  0
   53.5910   29.3890   42.9370 N   0  0  0  0  0  0  0  0  0  0  0  0
   54.7890   29.4520   42.2900 C   0  0  0  0  0  0  0  0  0  0  0  0
   55.7630   29.6240   43.1990 N   0  0  0  0  0  0  0  0  0  0  0  0
   55.1510   29.6660   44.4030 C   0  0  0  0  0  0  0  0  0  0  0  0
   53.8320   29.5220   44.2320 N   0  0  0  0  0  0  0  0  0  0  0  0
  1 24  1  0  0  0  0
  1  2  1  0  0  0  0
  3  1  1  0  0  0  0
  4 16  1  0  0  0  0
  4  7  1  0  0  0  0
  4  1  1  0  0  0  0
  5 10  1  0  0  0  0
  6  5  2  0  0  0  0
  6  7  1  0  0  0  0
  7  8  2  0  0  0  0
  8  9  1  0  0  0  0
  9 12  1  0  0  0  0
 10  9  2  0  0  0  0
 11  6  1  0  0  0  0
 13 15  1  0  0  0  0
 13  5  1  0  0  0  0
 14 13  2  0  0  0  0
 16 18  1  0  0  0  0
 17 16  1  0  0  0  0
 19 16  1  0  0  0  0
 20  4  1  0  0  0  0
 21 20  1  0  0  0  0
 22 20  1  0  0  0  0
 23 20  1  0  0  0  0
 25 28  1  6  0  0  0
 25 24  1  0  0  0  0
 25 27  1  0  0  0  0
 26 25  1  0  0  0  0
 26 27  1  0  0  0  0
 27 32  1  0  0  0  0
 27 31  1  1  0  0  0
 29 26  1  0  0  0  0
 30 26  1  0  0  0  0
 32 33  1  1  0  0  0
 34 35  1  0  0  0  0
 34 32  1  0  0  0  0
 34 36  1  0  0  0  0
 37 34  1  0  0  0  0
 38 32  1  0  0  0  0
 38 41  1  0  0  0  0
 39 38  1  0  0  0  0
 40 38  1  0  0  0  0
 41 45  1  0  0  0  0
 42 41  1  0  0  0  0
 42 43  2  0  0  0  0
 43 44  1  0  0  0  0
 45 44  2  0  0  0  0
M  END
>  <minimizedAffinity>
-4.25863314

>  <minimizedRMSD>
2.30033684

$$$$
