
 OpenBabel03232520043D

 33 36  0  0  0  0  0  0  0  0999 V2000
   46.1860   30.3990   49.1390 N   0  0  0  0  0  0  0  0  0  0  0  0
   45.3050   31.3950   49.4240 C   0  0  0  0  0  0  0  0  0  0  0  0
   45.2320   32.2190   48.3510 N   0  0  0  0  0  0  0  0  0  0  0  0
   46.0760   31.7040   47.4280 C   0  0  0  0  0  0  0  0  0  0  0  0
   46.3240   32.2140   46.1790 C   0  0  0  0  0  0  0  0  0  0  0  0
   47.2210   31.5330   45.3950 N   0  0  0  0  0  0  0  0  0  0  0  0
   47.8220   30.4220   45.8400 C   0  0  0  0  0  0  0  0  0  0  0  0
   47.5470   29.9680   47.0610 N   0  0  0  0  0  0  0  0  0  0  0  0
   46.6870   30.5650   47.8930 C   0  0  0  0  0  0  0  0  0  0  0  0
   46.5000   29.5790   49.7270 H   0  0  0  0  0  0  0  0  0  0  0  0
   44.7780   31.4620   50.3760 H   0  0  0  0  0  0  0  0  0  0  0  0
   48.7600   29.6680   45.0810 N   0  0  0  0  0  0  0  0  0  0  0  0
   49.3260   28.5830   45.6860 C   0  0  0  0  0  0  0  0  0  0  0  0
   50.2420   27.8490   44.9410 C   0  0  0  0  0  0  0  0  0  0  0  0
   50.5960   28.1680   43.6400 C   0  0  0  0  0  0  0  0  0  0  0  0
   51.4290   27.4860   42.9860 O   0  0  0  0  0  0  0  0  0  0  0  0
   49.9980   29.2490   43.1110 N   0  0  0  0  0  0  0  0  0  0  0  0
   49.1060   29.9860   43.8000 C   0  0  0  0  0  0  0  0  0  0  0  0
   48.5310   31.0080   43.3230 O   0  0  0  0  0  0  0  0  0  0  0  0
   50.2400   29.5120   42.1460 H   0  0  0  0  0  0  0  0  0  0  0  0
   45.6280   33.6560   45.4320 S   0  0  0  0  0  0  0  0  0  0  0  0
   47.7700   34.7100   42.3370 C   0  0  0  0  0  0  0  0  0  0  0  0
   47.0610   34.3340   41.2130 C   0  0  0  0  0  0  0  0  0  0  0  0
   45.8360   33.7120   41.4150 C   0  0  0  0  0  0  0  0  0  0  0  0
   45.4110   33.5110   42.6950 N   0  0  0  0  0  0  0  0  0  0  0  0
   46.1440   33.8990   43.7550 C   0  0  0  0  0  0  0  0  0  0  0  0
   47.3220   34.4980   43.5830 N   0  0  0  0  0  0  0  0  0  0  0  0
   47.3860   34.4870   40.1920 H   0  0  0  0  0  0  0  0  0  0  0  0
   45.2240   33.3890   40.5820 H   0  0  0  0  0  0  0  0  0  0  0  0
   49.0740   35.3730   42.1400 C   0  0  0  0  0  0  0  0  0  0  0  0
   49.2460   36.1470   41.1720 O   0  0  0  0  0  0  0  0  0  0  0  0
   50.1040   35.1320   43.0310 O   0  0  0  0  0  0  0  0  0  0  0  0
   51.0780   35.1510   42.7020 H   0  0  0  0  0  0  0  0  0  0  0  0
  1  2  1  0  0  0  0
  1 10  1  0  0  0  0
  2 11  1  0  0  0  0
  3  2  2  0  0  0  0
  4  9  1  0  0  0  0
  4  3  1  0  0  0  0
  5  4  2  0  0  0  0
  6  7  2  0  0  0  0
  6  5  1  0  0  0  0
  7  8  1  0  0  0  0
  8  9  2  0  0  0  0
  9  1  1  0  0  0  0
 12 13  1  0  0  0  0
 12  7  1  0  0  0  0
 14 13  2  0  0  0  0
 15 14  1  0  0  0  0
 16 15  2  0  0  0  0
 17 15  1  0  0  0  0
 17 18  1  0  0  0  0
 18 12  1  0  0  0  0
 19 18  2  0  0  0  0
 20 17  1  0  0  0  0
 21  5  1  0  0  0  0
 22 27  1  0  0  0  0
 23 24  1  0  0  0  0
 23 22  2  0  0  0  0
 24 25  2  0  0  0  0
 25 26  1  0  0  0  0
 26 21  1  0  0  0  0
 27 26  2  0  0  0  0
 28 23  1  0  0  0  0
 29 24  1  0  0  0  0
 30 22  1  0  0  0  0
 30 32  1  0  0  0  0
 31 30  2  0  0  0  0
 33 32  1  0  0  0  0
M  END
>  <minimizedAffinity>
-6.17283058

>  <minimizedRMSD>
0.218436196

$$$$
