
 OpenBabel03232520233D

 32 35  0  0  0  0  0  0  0  0999 V2000
   44.0330   32.9380   41.6230 C   0  0  0  0  0  0  0  0  0  0  0  0
   43.8440   34.0230   40.7630 C   0  0  0  0  0  0  0  0  0  0  0  0
   44.8630   34.8870   40.9570 N   0  0  0  0  0  0  0  0  0  0  0  0
   45.6690   34.3830   41.8960 C   0  0  0  0  0  0  0  0  0  0  0  0
   46.8270   34.9080   42.4230 C   0  0  0  0  0  0  0  0  0  0  0  0
   47.4790   34.1700   43.4030 C   0  0  0  0  0  0  0  0  0  0  0  0
   47.0410   32.9290   43.8940 C   0  0  0  0  0  0  0  0  0  0  0  0
   45.8740   32.4840   43.3070 C   0  0  0  0  0  0  0  0  0  0  0  0
   45.1810   33.1440   42.3480 C   0  0  0  0  0  0  0  0  0  0  0  0
   44.9960   35.7950   40.4580 H   0  0  0  0  0  0  0  0  0  0  0  0
   47.2570   35.8540   42.1220 H   0  0  0  0  0  0  0  0  0  0  0  0
   48.3940   34.5880   43.8180 H   0  0  0  0  0  0  0  0  0  0  0  0
   47.6100   32.4260   44.6560 H   0  0  0  0  0  0  0  0  0  0  0  0
   45.4860   31.5310   43.6440 H   0  0  0  0  0  0  0  0  0  0  0  0
   42.7560   29.4370   41.3880 C   0  0  0  0  0  0  0  0  0  0  0  0
   43.6140   30.5470   41.2640 C   0  0  0  0  0  0  0  0  0  0  0  0
   43.1630   31.7720   41.7390 C   0  0  0  0  0  0  0  0  0  0  0  0
   41.9080   31.8410   42.3050 N   0  0  0  0  0  0  0  0  0  0  0  0
   41.1200   30.7450   42.4010 C   0  0  0  0  0  0  0  0  0  0  0  0
   41.5310   29.5500   41.9500 N   0  0  0  0  0  0  0  0  0  0  0  0
   43.0740   28.4670   41.0280 H   0  0  0  0  0  0  0  0  0  0  0  0
   44.5870   30.4130   40.8070 H   0  0  0  0  0  0  0  0  0  0  0  0
   40.1440   30.8010   42.8420 H   0  0  0  0  0  0  0  0  0  0  0  0
   42.7840   34.2270   39.8320 N   0  0  0  0  0  0  0  0  0  0  0  0
   41.6920   34.8770   40.3050 C   0  0  0  0  0  0  0  0  0  0  0  0
   40.5890   35.1510   39.5350 C   0  0  0  0  0  0  0  0  0  0  0  0
   40.6220   34.7330   38.2260 C   0  0  0  0  0  0  0  0  0  0  0  0
   39.6610   34.9300   37.4180 O   0  0  0  0  0  0  0  0  0  0  0  0
   41.7150   34.0860   37.7620 N   0  0  0  0  0  0  0  0  0  0  0  0
   42.7830   33.8320   38.5440 C   0  0  0  0  0  0  0  0  0  0  0  0
   43.8070   33.2340   38.1410 O   0  0  0  0  0  0  0  0  0  0  0  0
   41.7270   33.7720   36.7620 H   0  0  0  0  0  0  0  0  0  0  0  0
  1 17  1  0  0  0  0
  1  9  1  0  0  0  0
  2  3  1  0  0  0  0
  2  1  2  0  0  0  0
  3  4  1  0  0  0  0
  4  9  2  0  0  0  0
  4  5  1  0  0  0  0
  5  6  2  0  0  0  0
  6 12  1  0  0  0  0
  6  7  1  0  0  0  0
  7 13  1  0  0  0  0
  8 14  1  0  0  0  0
  8  7  2  0  0  0  0
  9  8  1  0  0  0  0
 10  3  1  0  0  0  0
 11  5  1  0  0  0  0
 15 20  1  0  0  0  0
 16 15  2  0  0  0  0
 16 17  1  0  0  0  0
 17 18  2  0  0  0  0
 18 19  1  0  0  0  0
 19 23  1  0  0  0  0
 20 19  2  0  0  0  0
 21 15  1  0  0  0  0
 22 16  1  0  0  0  0
 24 25  1  0  0  0  0
 24  2  1  0  0  0  0
 26 25  2  0  0  0  0
 27 26  1  0  0  0  0
 28 27  2  0  0  0  0
 29 27  1  0  0  0  0
 29 30  1  0  0  0  0
 30 24  1  0  0  0  0
 31 30  2  0  0  0  0
 32 29  1  0  0  0  0
M  END
>  <minimizedAffinity>
-5.19936657

>  <minimizedRMSD>
7.43152761

$$$$
