REMARK  Name = 
REMARK  4 active torsions:
REMARK  status: ('A' for Active; 'I' for Inactive)
REMARK    1  A    between atoms: C_1  and  C_8
REMARK    2  A    between atoms: C_4  and  C_19
REMARK    3  A    between atoms: C_9  and  C_14
REMARK    4  A    between atoms: N_17  and  C_36
REMARK                            x       y       z     vdW  Elec       q    Type
REMARK                         _______ _______ _______ _____ _____    ______ ____
ROOT
ATOM      1  C   UNL     1      45.400  32.884  47.529  0.00  0.00    +0.000 A 
ATOM      2  C   UNL     1      45.919  32.635  46.297  0.00  0.00    +0.000 A 
ATOM      3  C   UNL     1      46.153  31.285  46.027  0.00  0.00    +0.000 A 
ATOM      4  N   UNL     1      45.890  30.284  46.906  0.00  0.00    +0.000 NA
ATOM      5  C   UNL     1      45.360  30.588  48.151  0.00  0.00    +0.000 A 
ATOM      6  N   UNL     1      45.131  31.868  48.429  0.00  0.00    +0.000 NA
ATOM      7  N   UNL     1      45.083  29.568  49.090  0.00  0.00    +0.000 N 
ATOM      8  H   UNL     1      45.185  33.894  47.844  0.00  0.00    +0.000 HD
ATOM      9  H   UNL     1      44.469  28.770  48.818  0.00  0.00    +0.000 HD
ATOM     10  H   UNL     1      45.480  29.595  50.052  0.00  0.00    +0.000 HD
ENDROOT
BRANCH   2  11
ATOM     11  C   UNL     1      46.160  33.599  45.279  0.00  0.00    +0.000 C 
ATOM     12  C   UNL     1      44.924  34.664  45.499  0.00  0.00    +0.000 C 
ATOM     13  C   UNL     1      44.685  35.594  44.432  0.00  0.00    +0.000 C 
ATOM     14  C   UNL     1      45.505  35.547  43.217  0.00  0.00    +0.000 C 
ATOM     15  C   UNL     1      46.587  34.569  43.179  0.00  0.00    +0.000 C 
ATOM     16  C   UNL     1      46.153  33.321  43.913  0.00  0.00    +0.000 C 
ATOM     17  H   UNL     1      46.975  34.307  45.621  0.00  0.00    +0.000 HD
ATOM     18  H   UNL     1      44.233  34.798  46.322  0.00  0.00    +0.000 HD
ATOM     19  H   UNL     1      43.900  36.297  44.536  0.00  0.00    +0.000 HD
ATOM     20  H   UNL     1      45.910  36.565  43.027  0.00  0.00    +0.000 HD
ATOM     21  H   UNL     1      47.552  34.951  43.608  0.00  0.00    +0.000 HD
ATOM     22  H   UNL     1      46.848  34.369  42.102  0.00  0.00    +0.000 HD
ATOM     23  H   UNL     1      45.216  32.959  43.438  0.00  0.00    +0.000 HD
ATOM     24  H   UNL     1      47.026  32.693  43.590  0.00  0.00    +0.000 HD
BRANCH  14  25
ATOM     25  C   UNL     1      44.514  35.266  42.048  0.00  0.00    +0.000 C 
ATOM     26  F   UNL     1      43.460  34.453  42.428  0.00  0.00    +0.000 F 
ATOM     27  F   UNL     1      43.957  36.495  41.704  0.00  0.00    +0.000 F 
ATOM     28  F   UNL     1      45.213  34.814  40.946  0.00  0.00    +0.000 F 
ENDBRANCH  14  25
ENDBRANCH   2  11
BRANCH   3  29
ATOM     29  C   UNL     1      46.749  30.597  44.898  0.00  0.00    +0.000 A 
ATOM     30  C   UNL     1      46.368  29.921  43.784  0.00  0.00    +0.000 A 
ATOM     31  C   UNL     1      47.518  29.471  43.125  0.00  0.00    +0.000 A 
ATOM     32  N   UNL     1      48.540  29.895  43.869  0.00  0.00    +0.000 N 
ATOM     33  N   UNL     1      48.112  30.559  44.917  0.00  0.00    +0.000 NA
ATOM     34  H   UNL     1      45.309  29.843  43.595  0.00  0.00    +0.000 HD
ATOM     35  H   UNL     1      47.435  28.905  42.207  0.00  0.00    +0.000 HD
BRANCH  32  36
ATOM     36  C   UNL     1      49.910  29.623  43.512  0.00  0.00    +0.000 A 
ATOM     37  C   UNL     1      50.506  30.175  42.411  0.00  0.00    +0.000 A 
ATOM     38  C   UNL     1      51.838  29.799  42.221  0.00  0.00    +0.000 A 
ATOM     39  H   UNL     1      52.376  30.197  41.368  0.00  0.00    +0.000 HD
ATOM     40  N   UNL     1      52.522  28.970  43.023  0.00  0.00    +0.000 NA
ATOM     41  C   UNL     1      51.905  28.458  44.081  0.00  0.00    +0.000 A 
ATOM     42  N   UNL     1      50.617  28.789  44.309  0.00  0.00    +0.000 NA
ENDBRANCH  32  36
ENDBRANCH   3  29
TORSDOF 4
