
 OpenBabel03232521003D

 45 49  0  0  1  0  0  0  0  0999 V2000
   45.3490   32.9330   47.4870 C   0  0  0  0  0  0  0  0  0  0  0  0
   45.8950   32.6550   46.2760 C   0  0  0  0  0  0  0  0  0  0  0  0
   46.1540   31.3000   46.0530 C   0  0  0  0  0  0  0  0  0  0  0  0
   45.8920   30.3200   46.9550 N   0  0  0  0  0  0  0  0  0  0  0  0
   45.3330   30.6560   48.1800 C   0  0  0  0  0  0  0  0  0  0  0  0
   45.0790   31.9400   48.4130 N   0  0  0  0  0  0  0  0  0  0  0  0
   45.0540   29.6620   49.1500 N   0  0  0  0  0  0  0  0  0  0  0  0
   45.1130   33.9470   47.7670 H   0  0  0  0  0  0  0  0  0  0  0  0
   45.1220   29.8810   50.1700 H   0  0  0  0  0  0  0  0  0  0  0  0
   44.7790   28.7030   48.7890 H   0  0  0  0  0  0  0  0  0  0  0  0
   46.1370   33.5890   45.2300 C   0  0  2  0  0  0  0  0  0  0  0  0
   44.9570   34.7110   45.4750 C   0  0  0  0  0  0  0  0  0  0  0  0
   44.7210   35.6340   44.4010 C   0  0  0  0  0  0  0  0  0  0  0  0
   45.4940   35.5300   43.1590 C   0  0  1  0  0  0  0  0  0  0  0  0
   46.5270   34.5020   43.0970 C   0  0  0  0  0  0  0  0  0  0  0  0
   46.0660   33.2880   43.8700 C   0  0  0  0  0  0  0  0  0  0  0  0
   46.9720   34.2890   45.5270 H   0  0  0  0  0  0  0  0  0  0  0  0
   44.3050   34.8810   46.3240 H   0  0  0  0  0  0  0  0  0  0  0  0
   43.9710   36.3730   44.5210 H   0  0  0  0  0  0  0  0  0  0  0  0
   45.9450   36.5220   42.9210 H   0  0  0  0  0  0  0  0  0  0  0  0
   47.4860   34.8830   43.5140 H   0  0  0  0  0  0  0  0  0  0  0  0
   46.7430   34.2780   42.0200 H   0  0  0  0  0  0  0  0  0  0  0  0
   46.8970   32.6170   43.5280 H   0  0  0  0  0  0  0  0  0  0  0  0
   45.1060   32.9420   43.4340 H   0  0  0  0  0  0  0  0  0  0  0  0
   44.4470   35.2750   42.0330 C   0  0  0  0  0  0  0  0  0  0  0  0
   43.3970   34.4790   42.4510 F   0  0  0  0  0  0  0  0  0  0  0  0
   43.8990   36.5170   41.7210 F   0  0  0  0  0  0  0  0  0  0  0  0
   45.0900   34.8180   40.8990 F   0  0  0  0  0  0  0  0  0  0  0  0
   46.7850   30.5870   44.9550 C   0  0  0  0  0  0  0  0  0  0  0  0
   46.4450   29.7340   43.9560 C   0  0  0  0  0  0  0  0  0  0  0  0
   47.6090   29.3910   43.2590 C   0  0  0  0  0  0  0  0  0  0  0  0
   48.5980   30.0500   43.8650 N   0  0  0  0  0  0  0  0  0  0  0  0
   48.1340   30.7610   44.8680 N   0  0  0  0  0  0  0  0  0  0  0  0
   45.4050   29.4720   43.8620 H   0  0  0  0  0  0  0  0  0  0  0  0
   47.5730   28.7210   42.4220 H   0  0  0  0  0  0  0  0  0  0  0  0
   54.0600   28.6500   44.5600 H   0  0  0  0  0  0  0  0  0  0  0  0
   53.0280   28.8320   44.6130 N   0  0  0  0  0  0  0  0  0  0  0  0
   52.2480   28.5220   45.6660 C   0  0  0  0  0  3  0  0  0  0  0  0
   50.9650   28.8940   45.4060 N   0  0  0  0  0  0  0  0  0  0  0  0
   50.9980   29.4250   44.1930 C   0  0  0  0  0  0  0  0  0  0  0  0
   49.9750   29.9610   43.4410 C   0  0  0  0  0  0  0  0  0  0  0  0
   50.2770   30.4460   42.2090 N   0  0  0  0  0  0  0  0  0  0  0  0
   51.5330   30.4100   41.7240 C   0  0  0  0  0  3  0  0  0  0  0  0
   52.5780   29.8890   42.4290 N   0  0  0  0  0  0  0  0  0  0  0  0
   52.2620   29.4050   43.6660 C   0  0  0  0  0  0  0  0  0  0  0  0
  1  8  1  0  0  0  0
  1  6  1  0  0  0  0
  2  1  2  0  0  0  0
  3  2  1  0  0  0  0
  3  4  2  0  0  0  0
  4  5  1  0  0  0  0
  5  6  2  0  0  0  0
  5  7  1  0  0  0  0
  7  9  1  0  0  0  0
 10  7  1  0  0  0  0
 11 12  1  0  0  0  0
 11 17  1  1  0  0  0
 11  2  1  0  0  0  0
 12 18  1  0  0  0  0
 13 19  1  0  0  0  0
 13 12  2  0  0  0  0
 14 20  1  6  0  0  0
 14 13  1  0  0  0  0
 15 14  1  0  0  0  0
 15 21  1  0  0  0  0
 15 16  1  0  0  0  0
 16 11  1  0  0  0  0
 22 15  1  0  0  0  0
 23 16  1  0  0  0  0
 24 16  1  0  0  0  0
 25 26  1  0  0  0  0
 25 14  1  0  0  0  0
 27 25  1  0  0  0  0
 28 25  1  0  0  0  0
 29  3  1  0  0  0  0
 30 29  1  0  0  0  0
 31 32  1  0  0  0  0
 31 30  2  0  0  0  0
 32 33  1  0  0  0  0
 33 29  2  0  0  0  0
 34 30  1  0  0  0  0
 35 31  1  0  0  0  0
 36 37  1  0  0  0  0
 37 38  1  0  0  0  0
 39 38  2  0  0  0  0
 40 39  1  0  0  0  0
 41 32  1  0  0  0  0
 41 40  2  0  0  0  0
 42 41  1  0  0  0  0
 43 42  2  0  0  0  0
 43 44  1  0  0  0  0
 44 45  2  0  0  0  0
 45 40  1  0  0  0  0
 45 37  1  0  0  0  0
M  END
>  <minimizedAffinity>
-5.96399689

>  <minimizedRMSD>
0.317231983

$$$$
