
 OpenBabel03232521013D

 45 49  0  0  1  0  0  0  0  0999 V2000
   45.3480   32.9130   47.5130 C   0  0  0  0  0  0  0  0  0  0  0  0
   45.9120   32.6500   46.3060 C   0  0  0  0  0  0  0  0  0  0  0  0
   46.1880   31.3000   46.0740 C   0  0  0  0  0  0  0  0  0  0  0  0
   45.9230   30.3100   46.9640 N   0  0  0  0  0  0  0  0  0  0  0  0
   45.3460   30.6290   48.1840 C   0  0  0  0  0  0  0  0  0  0  0  0
   45.0760   31.9080   48.4260 N   0  0  0  0  0  0  0  0  0  0  0  0
   45.0650   29.6240   49.1420 N   0  0  0  0  0  0  0  0  0  0  0  0
   45.0990   33.9220   47.7980 H   0  0  0  0  0  0  0  0  0  0  0  0
   45.1180   29.8330   50.1650 H   0  0  0  0  0  0  0  0  0  0  0  0
   44.8030   28.6650   48.7690 H   0  0  0  0  0  0  0  0  0  0  0  0
   46.1590   33.5970   45.2720 C   0  0  2  0  0  0  0  0  0  0  0  0
   44.9520   34.6930   45.4990 C   0  0  0  0  0  0  0  0  0  0  0  0
   44.7210   35.6190   44.4260 C   0  0  0  0  0  0  0  0  0  0  0  0
   45.5230   35.5390   43.2000 C   0  0  1  0  0  0  0  0  0  0  0  0
   46.5760   34.5310   43.1540 C   0  0  0  0  0  0  0  0  0  0  0  0
   46.1230   33.3030   43.9090 C   0  0  0  0  0  0  0  0  0  0  0  0
   46.9730   34.3100   45.5910 H   0  0  0  0  0  0  0  0  0  0  0  0
   44.2790   34.8440   46.3340 H   0  0  0  0  0  0  0  0  0  0  0  0
   43.9540   36.3420   44.5350 H   0  0  0  0  0  0  0  0  0  0  0  0
   45.9590   36.5410   42.9790 H   0  0  0  0  0  0  0  0  0  0  0  0
   47.5190   34.9280   43.5940 H   0  0  0  0  0  0  0  0  0  0  0  0
   46.8200   34.3190   42.0800 H   0  0  0  0  0  0  0  0  0  0  0  0
   46.9740   32.6510   43.5800 H   0  0  0  0  0  0  0  0  0  0  0  0
   45.1800   32.9420   43.4500 H   0  0  0  0  0  0  0  0  0  0  0  0
   44.5060   35.2710   42.0500 C   0  0  0  0  0  0  0  0  0  0  0  0
   43.4510   34.4690   42.4460 F   0  0  0  0  0  0  0  0  0  0  0  0
   43.9550   36.5080   41.7190 F   0  0  0  0  0  0  0  0  0  0  0  0
   45.1790   34.8150   40.9340 F   0  0  0  0  0  0  0  0  0  0  0  0
   46.8390   30.6030   44.9780 C   0  0  0  0  0  0  0  0  0  0  0  0
   46.5090   29.8230   43.9190 C   0  0  0  0  0  0  0  0  0  0  0  0
   47.6900   29.4410   43.2710 C   0  0  0  0  0  0  0  0  0  0  0  0
   48.6790   30.0070   43.9660 N   0  0  0  0  0  0  0  0  0  0  0  0
   48.1990   30.6960   44.9760 N   0  0  0  0  0  0  0  0  0  0  0  0
   45.4620   29.6310   43.7520 H   0  0  0  0  0  0  0  0  0  0  0  0
   47.6640   28.8160   42.3990 H   0  0  0  0  0  0  0  0  0  0  0  0
   53.9870   28.1930   44.8710 H   0  0  0  0  0  0  0  0  0  0  0  0
   52.9660   28.4420   44.8790 N   0  0  0  0  0  0  0  0  0  0  0  0
   52.1060   28.1170   45.8610 C   0  0  0  0  0  3  0  0  0  0  0  0
   50.8670   28.5920   45.5550 N   0  0  0  0  0  0  0  0  0  0  0  0
   51.0100   29.1980   44.3860 C   0  0  0  0  0  0  0  0  0  0  0  0
   50.0710   29.8530   43.6160 C   0  0  0  0  0  0  0  0  0  0  0  0
   50.4790   30.3970   42.4410 N   0  0  0  0  0  0  0  0  0  0  0  0
   51.7570   30.3060   42.0270 C   0  0  0  0  0  3  0  0  0  0  0  0
   52.7210   29.6690   42.7520 N   0  0  0  0  0  0  0  0  0  0  0  0
   52.2980   29.1270   43.9320 C   0  0  0  0  0  0  0  0  0  0  0  0
  1  8  1  0  0  0  0
  1  6  1  0  0  0  0
  2  1  2  0  0  0  0
  3  2  1  0  0  0  0
  3  4  2  0  0  0  0
  4  5  1  0  0  0  0
  5  6  2  0  0  0  0
  5  7  1  0  0  0  0
  7  9  1  0  0  0  0
 10  7  1  0  0  0  0
 11 12  1  0  0  0  0
 11 17  1  1  0  0  0
 11  2  1  0  0  0  0
 12 18  1  0  0  0  0
 13 19  1  0  0  0  0
 13 12  2  0  0  0  0
 14 20  1  6  0  0  0
 14 13  1  0  0  0  0
 15 14  1  0  0  0  0
 15 21  1  0  0  0  0
 15 16  1  0  0  0  0
 16 11  1  0  0  0  0
 22 15  1  0  0  0  0
 23 16  1  0  0  0  0
 24 16  1  0  0  0  0
 25 26  1  0  0  0  0
 25 14  1  0  0  0  0
 27 25  1  0  0  0  0
 28 25  1  0  0  0  0
 29  3  1  0  0  0  0
 30 29  1  0  0  0  0
 31 30  2  0  0  0  0
 31 32  1  0  0  0  0
 32 33  1  0  0  0  0
 33 29  2  0  0  0  0
 34 30  1  0  0  0  0
 35 31  1  0  0  0  0
 36 37  1  0  0  0  0
 37 38  1  0  0  0  0
 39 38  2  0  0  0  0
 40 39  1  0  0  0  0
 41 32  1  0  0  0  0
 41 40  2  0  0  0  0
 42 41  1  0  0  0  0
 43 42  2  0  0  0  0
 43 44  1  0  0  0  0
 44 45  2  0  0  0  0
 45 40  1  0  0  0  0
 45 37  1  0  0  0  0
M  END
>  <minimizedAffinity>
-5.94207478

>  <minimizedRMSD>
0.699382007

$$$$
