
 OpenBabel03232518503D

 35 37  0  0  0  0  0  0  0  0999 V2000
   47.4610   33.0330   43.6830 C   0  0  0  0  0  0  0  0  0  0  0  0
   47.6930   31.7930   43.6690 O   0  0  0  0  0  0  0  0  0  0  0  0
   44.7620   35.2660   44.9170 C   0  0  0  0  0  0  0  0  0  0  0  0
   45.6970   34.7670   44.0180 C   0  0  0  0  0  0  0  0  0  0  0  0
   46.4570   33.6940   44.4380 C   0  0  0  0  0  0  0  0  0  0  0  0
   46.2600   33.1850   45.6850 N   0  0  0  0  0  0  0  0  0  0  0  0
   45.3690   33.6650   46.5310 C   0  0  0  0  0  0  0  0  0  0  0  0
   44.6420   34.6920   46.1280 N   0  0  0  0  0  0  0  0  0  0  0  0
   44.1320   36.1040   44.6550 H   0  0  0  0  0  0  0  0  0  0  0  0
   45.8800   35.3450   42.6820 C   0  0  0  0  0  0  0  0  0  0  0  0
   44.9910   36.4220   42.5780 F   0  0  0  0  0  0  0  0  0  0  0  0
   45.4460   34.4740   41.7030 F   0  0  0  0  0  0  0  0  0  0  0  0
   47.1530   35.7600   42.4310 F   0  0  0  0  0  0  0  0  0  0  0  0
   45.1260   33.1930   47.7970 O   0  0  0  0  0  0  0  0  0  0  0  0
   45.8560   32.1330   48.3750 C   0  0  0  0  0  0  0  0  0  0  0  0
   47.2060   32.4720   48.4820 F   0  0  0  0  0  0  0  0  0  0  0  0
   45.6620   30.9360   47.7540 F   0  0  0  0  0  0  0  0  0  0  0  0
   45.4240   32.0390   49.7110 F   0  0  0  0  0  0  0  0  0  0  0  0
   48.4760   33.3000   42.7820 O   0  0  0  0  0  0  0  0  0  0  0  0
   48.6390   32.7210   41.5640 C   0  0  0  0  0  0  0  0  0  0  0  0
   47.5340   32.3200   40.6320 C   0  0  0  0  0  0  0  0  0  0  0  0
   48.4720   31.6330   39.2520 S   0  0  0  0  0  0  0  0  0  0  0  0
   50.1320   31.9700   40.0780 C   0  0  0  0  0  0  0  0  0  0  0  0
   49.8550   32.4760   41.1310 N   0  0  0  0  0  0  0  0  0  0  0  0
   46.3620   32.3770   40.6450 H   0  0  0  0  0  0  0  0  0  0  0  0
   51.3900   31.6250   39.4370 N   0  0  0  0  0  0  0  0  0  0  0  0
   52.3890   31.3110   40.2450 C   0  0  0  0  0  0  0  0  0  0  0  0
   53.5770   30.9850   39.6260 C   0  0  0  0  0  0  0  0  0  0  0  0
   53.5800   31.0280   38.2490 C   0  0  0  0  0  0  0  0  0  0  0  0
   54.7440   30.7140   37.5100 N   0  0  0  0  0  0  0  0  0  0  0  0
   52.5110   31.3620   37.4830 N   0  0  0  0  0  0  0  0  0  0  0  0
   51.3340   31.6840   38.0950 C   0  0  0  0  0  0  0  0  0  0  0  0
   50.3070   32.0020   37.4600 O   0  0  0  0  0  0  0  0  0  0  0  0
   55.6180   30.5340   37.0020 H   0  0  0  0  0  0  0  0  0  0  0  0
   54.6000   29.8890   36.8650 H   0  0  0  0  0  0  0  0  0  0  0  0
  1  5  1  0  0  0  0
  2  1  2  0  0  0  0
  3  8  1  0  0  0  0
  4  5  1  0  0  0  0
  4  3  2  0  0  0  0
  5  6  2  0  0  0  0
  6  7  1  0  0  0  0
  7 14  1  0  0  0  0
  8  7  2  0  0  0  0
  9  3  1  0  0  0  0
 10  4  1  0  0  0  0
 11 10  1  0  0  0  0
 12 10  1  0  0  0  0
 13 10  1  0  0  0  0
 14 15  1  0  0  0  0
 15 16  1  0  0  0  0
 15 18  1  0  0  0  0
 17 15  1  0  0  0  0
 19  1  1  0  0  0  0
 20 19  1  0  0  0  0
 21 25  1  0  0  0  0
 21 20  2  0  0  0  0
 22 23  1  0  0  0  0
 22 21  1  0  0  0  0
 23 24  2  0  0  0  0
 24 20  1  0  0  0  0
 26 23  1  0  0  0  0
 26 27  1  0  0  0  0
 28 27  2  0  0  0  0
 29 28  1  0  0  0  0
 30 29  1  0  0  0  0
 31 32  1  0  0  0  0
 31 29  2  0  0  0  0
 32 26  1  0  0  0  0
 33 32  2  0  0  0  0
 34 30  1  0  0  0  0
 35 30  1  0  0  0  0
M  END
>  <minimizedAffinity>
-6.59149694

>  <minimizedRMSD>
0.778320909

$$$$
