
 OpenBabel03232521013D

 45 49  0  0  1  0  0  0  0  0999 V2000
   45.3800   32.9370   47.4910 C   0  0  0  0  0  0  0  0  0  0  0  0
   45.9060   32.6670   46.2680 C   0  0  0  0  0  0  0  0  0  0  0  0
   46.1490   31.3120   46.0270 C   0  0  0  0  0  0  0  0  0  0  0  0
   45.8900   30.3250   46.9210 N   0  0  0  0  0  0  0  0  0  0  0  0
   45.3520   30.6520   48.1570 C   0  0  0  0  0  0  0  0  0  0  0  0
   45.1140   31.9350   48.4090 N   0  0  0  0  0  0  0  0  0  0  0  0
   45.0780   29.6500   49.1200 N   0  0  0  0  0  0  0  0  0  0  0  0
   45.1580   33.9500   47.7850 H   0  0  0  0  0  0  0  0  0  0  0  0
   45.1620   29.8560   50.1420 H   0  0  0  0  0  0  0  0  0  0  0  0
   44.7880   28.6970   48.7530 H   0  0  0  0  0  0  0  0  0  0  0  0
   46.1420   33.6110   45.2300 C   0  0  2  0  0  0  0  0  0  0  0  0
   44.9450   34.7140   45.4740 C   0  0  0  0  0  0  0  0  0  0  0  0
   44.7040   35.6400   44.4030 C   0  0  0  0  0  0  0  0  0  0  0  0
   45.4860   35.5550   43.1650 C   0  0  1  0  0  0  0  0  0  0  0  0
   46.5330   34.5420   43.1050 C   0  0  0  0  0  0  0  0  0  0  0  0
   46.0840   33.3170   43.8680 C   0  0  0  0  0  0  0  0  0  0  0  0
   46.9650   34.3210   45.5360 H   0  0  0  0  0  0  0  0  0  0  0  0
   44.2850   34.8700   46.3190 H   0  0  0  0  0  0  0  0  0  0  0  0
   43.9420   36.3680   44.5230 H   0  0  0  0  0  0  0  0  0  0  0  0
   45.9250   36.5540   42.9370 H   0  0  0  0  0  0  0  0  0  0  0  0
   47.4850   34.9340   43.5310 H   0  0  0  0  0  0  0  0  0  0  0  0
   46.7600   34.3270   42.0280 H   0  0  0  0  0  0  0  0  0  0  0  0
   46.9270   32.6590   43.5270 H   0  0  0  0  0  0  0  0  0  0  0  0
   45.1320   32.9600   43.4230 H   0  0  0  0  0  0  0  0  0  0  0  0
   44.4510   35.2920   42.0310 C   0  0  0  0  0  0  0  0  0  0  0  0
   43.3980   34.4950   42.4430 F   0  0  0  0  0  0  0  0  0  0  0  0
   43.9020   36.5310   41.7080 F   0  0  0  0  0  0  0  0  0  0  0  0
   45.1050   34.8320   40.9050 F   0  0  0  0  0  0  0  0  0  0  0  0
   46.7570   30.6060   44.9120 C   0  0  0  0  0  0  0  0  0  0  0  0
   46.4020   29.7340   43.9350 C   0  0  0  0  0  0  0  0  0  0  0  0
   47.5480   29.4160   43.1960 C   0  0  0  0  0  0  0  0  0  0  0  0
   48.5410   30.1080   43.7570 N   0  0  0  0  0  0  0  0  0  0  0  0
   48.0960   30.8160   44.7710 N   0  0  0  0  0  0  0  0  0  0  0  0
   45.3680   29.4420   43.8830 H   0  0  0  0  0  0  0  0  0  0  0  0
   47.4990   28.7370   42.3670 H   0  0  0  0  0  0  0  0  0  0  0  0
   54.0630   28.8600   44.2510 H   0  0  0  0  0  0  0  0  0  0  0  0
   53.0280   29.0160   44.3440 N   0  0  0  0  0  0  0  0  0  0  0  0
   52.2980   28.6950   45.4280 C   0  0  0  0  0  3  0  0  0  0  0  0
   50.9960   29.0300   45.2150 N   0  0  0  0  0  0  0  0  0  0  0  0
   50.9690   29.5500   43.9970 C   0  0  0  0  0  0  0  0  0  0  0  0
   49.9030   30.0530   43.2820 C   0  0  0  0  0  0  0  0  0  0  0  0
   50.1440   30.5350   42.0350 N   0  0  0  0  0  0  0  0  0  0  0  0
   51.3800   30.5270   41.5020 C   0  0  0  0  0  3  0  0  0  0  0  0
   52.4660   30.0410   42.1700 N   0  0  0  0  0  0  0  0  0  0  0  0
   52.2100   29.5590   43.4210 C   0  0  0  0  0  0  0  0  0  0  0  0
  1  8  1  0  0  0  0
  1  6  1  0  0  0  0
  2  1  2  0  0  0  0
  3  2  1  0  0  0  0
  3  4  2  0  0  0  0
  4  5  1  0  0  0  0
  5  6  2  0  0  0  0
  5  7  1  0  0  0  0
  7  9  1  0  0  0  0
 10  7  1  0  0  0  0
 11 12  1  0  0  0  0
 11 17  1  1  0  0  0
 11  2  1  0  0  0  0
 12 18  1  0  0  0  0
 13 19  1  0  0  0  0
 13 12  2  0  0  0  0
 14 20  1  6  0  0  0
 14 13  1  0  0  0  0
 15 14  1  0  0  0  0
 15 21  1  0  0  0  0
 15 16  1  0  0  0  0
 16 11  1  0  0  0  0
 22 15  1  0  0  0  0
 23 16  1  0  0  0  0
 24 16  1  0  0  0  0
 25 26  1  0  0  0  0
 25 14  1  0  0  0  0
 27 25  1  0  0  0  0
 28 25  1  0  0  0  0
 29  3  1  0  0  0  0
 30 29  1  0  0  0  0
 31 32  1  0  0  0  0
 31 30  2  0  0  0  0
 32 33  1  0  0  0  0
 33 29  2  0  0  0  0
 34 30  1  0  0  0  0
 35 31  1  0  0  0  0
 36 37  1  0  0  0  0
 37 38  1  0  0  0  0
 39 38  2  0  0  0  0
 40 39  1  0  0  0  0
 41 32  1  0  0  0  0
 41 40  2  0  0  0  0
 42 41  1  0  0  0  0
 43 42  2  0  0  0  0
 43 44  1  0  0  0  0
 44 45  2  0  0  0  0
 45 40  1  0  0  0  0
 45 37  1  0  0  0  0
M  END
>  <minimizedAffinity>
-6.02564669

>  <minimizedRMSD>
1.44558716

$$$$
