
 OpenBabel03232521003D

 45 49  0  0  1  0  0  0  0  0999 V2000
   45.4150   32.9510   47.4440 C   0  0  0  0  0  0  0  0  0  0  0  0
   45.9280   32.6870   46.2140 C   0  0  0  0  0  0  0  0  0  0  0  0
   46.1730   31.3340   45.9650 C   0  0  0  0  0  0  0  0  0  0  0  0
   45.9270   30.3430   46.8580 N   0  0  0  0  0  0  0  0  0  0  0  0
   45.4030   30.6630   48.1020 C   0  0  0  0  0  0  0  0  0  0  0  0
   45.1620   31.9450   48.3610 N   0  0  0  0  0  0  0  0  0  0  0  0
   45.1430   29.6570   49.0640 N   0  0  0  0  0  0  0  0  0  0  0  0
   45.1920   33.9620   47.7440 H   0  0  0  0  0  0  0  0  0  0  0  0
   45.2380   29.8590   50.0850 H   0  0  0  0  0  0  0  0  0  0  0  0
   44.8520   28.7040   48.6960 H   0  0  0  0  0  0  0  0  0  0  0  0
   46.1490   33.6360   45.1770 C   0  0  2  0  0  0  0  0  0  0  0  0
   44.9480   34.7320   45.4360 C   0  0  0  0  0  0  0  0  0  0  0  0
   44.6910   35.6600   44.3710 C   0  0  0  0  0  0  0  0  0  0  0  0
   45.4630   35.5840   43.1260 C   0  0  1  0  0  0  0  0  0  0  0  0
   46.5150   34.5770   43.0520 C   0  0  0  0  0  0  0  0  0  0  0  0
   46.0800   33.3470   43.8150 C   0  0  0  0  0  0  0  0  0  0  0  0
   46.9700   34.3500   45.4780 H   0  0  0  0  0  0  0  0  0  0  0  0
   44.2950   34.8810   46.2870 H   0  0  0  0  0  0  0  0  0  0  0  0
   43.9270   36.3830   44.5000 H   0  0  0  0  0  0  0  0  0  0  0  0
   45.8940   36.5860   42.8960 H   0  0  0  0  0  0  0  0  0  0  0  0
   47.4680   34.9720   43.4700 H   0  0  0  0  0  0  0  0  0  0  0  0
   46.7330   34.3670   41.9720 H   0  0  0  0  0  0  0  0  0  0  0  0
   46.9230   32.6950   43.4640 H   0  0  0  0  0  0  0  0  0  0  0  0
   45.1260   32.9860   43.3780 H   0  0  0  0  0  0  0  0  0  0  0  0
   44.4180   35.3190   42.0000 C   0  0  0  0  0  0  0  0  0  0  0  0
   43.3630   34.5330   42.4250 F   0  0  0  0  0  0  0  0  0  0  0  0
   43.8760   36.5590   41.6700 F   0  0  0  0  0  0  0  0  0  0  0  0
   45.0620   34.8440   40.8740 F   0  0  0  0  0  0  0  0  0  0  0  0
   46.7700   30.6350   44.8400 C   0  0  0  0  0  0  0  0  0  0  0  0
   46.4140   29.7480   43.8770 C   0  0  0  0  0  0  0  0  0  0  0  0
   47.5490   29.4510   43.1140 C   0  0  0  0  0  0  0  0  0  0  0  0
   48.5380   30.1700   43.6470 N   0  0  0  0  0  0  0  0  0  0  0  0
   48.1010   30.8750   44.6660 N   0  0  0  0  0  0  0  0  0  0  0  0
   45.3850   29.4320   43.8520 H   0  0  0  0  0  0  0  0  0  0  0  0
   47.4960   28.7650   42.2900 H   0  0  0  0  0  0  0  0  0  0  0  0
   54.0940   29.0330   44.0080 H   0  0  0  0  0  0  0  0  0  0  0  0
   53.0580   29.1680   44.1260 N   0  0  0  0  0  0  0  0  0  0  0  0
   52.3610   28.8320   45.2260 C   0  0  0  0  0  3  0  0  0  0  0  0
   51.0490   29.1400   45.0440 N   0  0  0  0  0  0  0  0  0  0  0  0
   50.9810   29.6610   43.8280 C   0  0  0  0  0  0  0  0  0  0  0  0
   49.8890   30.1440   43.1390 C   0  0  0  0  0  0  0  0  0  0  0  0
   50.0910   30.6320   41.8890 N   0  0  0  0  0  0  0  0  0  0  0  0
   51.3150   30.6500   41.3270 C   0  0  0  0  0  3  0  0  0  0  0  0
   52.4250   30.1840   41.9680 N   0  0  0  0  0  0  0  0  0  0  0  0
   52.2080   29.6970   43.2240 C   0  0  0  0  0  0  0  0  0  0  0  0
  1  8  1  0  0  0  0
  1  6  1  0  0  0  0
  2  1  2  0  0  0  0
  3  2  1  0  0  0  0
  3  4  2  0  0  0  0
  4  5  1  0  0  0  0
  5  6  2  0  0  0  0
  5  7  1  0  0  0  0
  7  9  1  0  0  0  0
 10  7  1  0  0  0  0
 11 12  1  0  0  0  0
 11 17  1  1  0  0  0
 11  2  1  0  0  0  0
 12 18  1  0  0  0  0
 13 19  1  0  0  0  0
 13 12  2  0  0  0  0
 14 20  1  6  0  0  0
 14 13  1  0  0  0  0
 15 14  1  0  0  0  0
 15 21  1  0  0  0  0
 15 16  1  0  0  0  0
 16 11  1  0  0  0  0
 22 15  1  0  0  0  0
 23 16  1  0  0  0  0
 24 16  1  0  0  0  0
 25 26  1  0  0  0  0
 25 14  1  0  0  0  0
 27 25  1  0  0  0  0
 28 25  1  0  0  0  0
 29  3  1  0  0  0  0
 30 29  1  0  0  0  0
 31 32  1  0  0  0  0
 31 30  2  0  0  0  0
 32 33  1  0  0  0  0
 33 29  2  0  0  0  0
 34 30  1  0  0  0  0
 35 31  1  0  0  0  0
 36 37  1  0  0  0  0
 37 38  1  0  0  0  0
 39 38  2  0  0  0  0
 40 39  1  0  0  0  0
 41 32  1  0  0  0  0
 41 40  2  0  0  0  0
 42 41  1  0  0  0  0
 43 42  2  0  0  0  0
 43 44  1  0  0  0  0
 44 45  2  0  0  0  0
 45 40  1  0  0  0  0
 45 37  1  0  0  0  0
M  END
>  <minimizedAffinity>
-6.04329157

>  <minimizedRMSD>
1.33648872

$$$$
