
 OpenBabel03232520243D

 39 43  0  0  0  0  0  0  0  0999 V2000
   46.6970   34.4940   41.3870 C   0  0  0  0  0  0  0  0  0  0  0  0
   48.0120   34.7560   41.0560 C   0  0  0  0  0  0  0  0  0  0  0  0
   48.2510   34.3500   39.8040 N   0  0  0  0  0  0  0  0  0  0  0  0
   47.1040   33.8270   39.3220 C   0  0  0  0  0  0  0  0  0  0  0  0
   46.8260   33.2720   38.0820 C   0  0  0  0  0  0  0  0  0  0  0  0
   45.5460   32.8070   37.8530 C   0  0  0  0  0  0  0  0  0  0  0  0
   44.5110   32.8520   38.7700 C   0  0  0  0  0  0  0  0  0  0  0  0
   44.8540   33.4160   39.9850 C   0  0  0  0  0  0  0  0  0  0  0  0
   46.0880   33.8970   40.2920 C   0  0  0  0  0  0  0  0  0  0  0  0
   49.1470   34.3990   39.2400 H   0  0  0  0  0  0  0  0  0  0  0  0
   47.5810   33.2010   37.3100 H   0  0  0  0  0  0  0  0  0  0  0  0
   45.3210   32.3700   36.8800 H   0  0  0  0  0  0  0  0  0  0  0  0
   43.5250   32.4720   38.5390 H   0  0  0  0  0  0  0  0  0  0  0  0
   44.1000   33.4910   40.7670 H   0  0  0  0  0  0  0  0  0  0  0  0
   44.7600   36.2640   44.0420 C   0  0  0  0  0  0  0  0  0  0  0  0
   45.3950   36.0030   42.8190 C   0  0  0  0  0  0  0  0  0  0  0  0
   46.0310   34.7810   42.6540 C   0  0  0  0  0  0  0  0  0  0  0  0
   46.0190   33.8740   43.6870 N   0  0  0  0  0  0  0  0  0  0  0  0
   45.3880   34.1790   44.8520 C   0  0  0  0  0  0  0  0  0  0  0  0
   44.7640   35.3630   45.0310 N   0  0  0  0  0  0  0  0  0  0  0  0
   44.2820   37.2360   44.1060 H   0  0  0  0  0  0  0  0  0  0  0  0
   45.4200   36.6850   42.0040 H   0  0  0  0  0  0  0  0  0  0  0  0
   45.3810   33.4570   45.6660 H   0  0  0  0  0  0  0  0  0  0  0  0
   48.9910   35.3900   41.9580 C   0  0  0  0  0  0  0  0  0  0  0  0
   49.8500   35.6970   41.3350 H   0  0  0  0  0  0  0  0  0  0  0  0
   48.5870   36.3110   42.4220 H   0  0  0  0  0  0  0  0  0  0  0  0
   49.4620   34.4240   43.0180 C   0  0  0  0  0  0  0  0  0  0  0  0
   48.5940   34.2030   43.6870 H   0  0  0  0  0  0  0  0  0  0  0  0
   50.2690   34.9100   43.6090 H   0  0  0  0  0  0  0  0  0  0  0  0
   49.9500   33.1910   42.5020 N   0  0  0  0  0  0  0  0  0  0  0  0
   51.1580   33.0260   41.9270 C   0  0  0  0  0  0  0  0  0  0  0  0
   51.3900   31.7800   41.5220 N   0  0  0  0  0  0  0  0  0  0  0  0
   50.2990   31.0710   41.8330 C   0  0  0  0  0  0  0  0  0  0  0  0
   49.9010   29.7550   41.6900 C   0  0  0  0  0  0  0  0  0  0  0  0
   50.5950   29.0710   41.2170 H   0  0  0  0  0  0  0  0  0  0  0  0
   48.6780   29.3460   42.1320 N   0  0  0  0  0  0  0  0  0  0  0  0
   47.8300   30.2310   42.7220 C   0  0  0  0  0  0  0  0  0  0  0  0
   48.1930   31.5370   42.8780 N   0  0  0  0  0  0  0  0  0  0  0  0
   49.4200   31.9390   42.4330 C   0  0  0  0  0  0  0  0  0  0  0  0
  1 17  1  0  0  0  0
  2  1  2  0  0  0  0
  2 24  1  0  0  0  0
  3  2  1  0  0  0  0
  4  3  1  0  0  0  0
  4  9  1  0  0  0  0
  5  4  2  0  0  0  0
  6  5  1  0  0  0  0
  6  7  2  0  0  0  0
  7  8  1  0  0  0  0
  8  9  2  0  0  0  0
  8 14  1  0  0  0  0
  9  1  1  0  0  0  0
 10  3  1  0  0  0  0
 11  5  1  0  0  0  0
 12  6  1  0  0  0  0
 13  7  1  0  0  0  0
 15 21  1  0  0  0  0
 15 20  1  0  0  0  0
 16 15  2  0  0  0  0
 17 16  1  0  0  0  0
 17 18  2  0  0  0  0
 18 19  1  0  0  0  0
 19 20  2  0  0  0  0
 19 23  1  0  0  0  0
 22 16  1  0  0  0  0
 24 26  1  0  0  0  0
 24 27  1  0  0  0  0
 25 24  1  0  0  0  0
 27 29  1  0  0  0  0
 27 28  1  0  0  0  0
 30 27  1  0  0  0  0
 31 30  1  0  0  0  0
 32 33  1  0  0  0  0
 32 31  2  0  0  0  0
 33 39  1  0  0  0  0
 34 33  2  0  0  0  0
 34 36  1  0  0  0  0
 35 34  1  0  0  0  0
 36 37  2  0  0  0  0
 37 38  1  0  0  0  0
 39 30  1  0  0  0  0
 39 38  2  0  0  0  0
M  END
>  <minimizedAffinity>
-5.56173468

>  <minimizedRMSD>
1.52442908

$$$$
