
 OpenBabel03232521003D

 45 49  0  0  1  0  0  0  0  0999 V2000
   45.3990   32.9310   47.5220 C   0  0  0  0  0  0  0  0  0  0  0  0
   45.9110   32.6480   46.2970 C   0  0  0  0  0  0  0  0  0  0  0  0
   46.1300   31.2890   46.0580 C   0  0  0  0  0  0  0  0  0  0  0  0
   45.8610   30.3090   46.9580 N   0  0  0  0  0  0  0  0  0  0  0  0
   45.3390   30.6490   48.1970 C   0  0  0  0  0  0  0  0  0  0  0  0
   45.1240   31.9370   48.4460 N   0  0  0  0  0  0  0  0  0  0  0  0
   45.0560   29.6550   49.1660 N   0  0  0  0  0  0  0  0  0  0  0  0
   45.1970   33.9490   47.8150 H   0  0  0  0  0  0  0  0  0  0  0  0
   45.1520   29.8630   50.1850 H   0  0  0  0  0  0  0  0  0  0  0  0
   44.7470   28.7060   48.8040 H   0  0  0  0  0  0  0  0  0  0  0  0
   46.1540   33.5850   45.2530 C   0  0  2  0  0  0  0  0  0  0  0  0
   44.9640   34.6970   45.4890 C   0  0  0  0  0  0  0  0  0  0  0  0
   44.7300   35.6190   44.4130 C   0  0  0  0  0  0  0  0  0  0  0  0
   45.5140   35.5210   43.1770 C   0  0  1  0  0  0  0  0  0  0  0  0
   46.5540   34.5010   43.1240 C   0  0  0  0  0  0  0  0  0  0  0  0
   46.0960   33.2840   43.8930 C   0  0  0  0  0  0  0  0  0  0  0  0
   46.9810   34.2910   45.5570 H   0  0  0  0  0  0  0  0  0  0  0  0
   44.3040   34.8620   46.3320 H   0  0  0  0  0  0  0  0  0  0  0  0
   43.9730   36.3520   44.5270 H   0  0  0  0  0  0  0  0  0  0  0  0
   45.9590   36.5170   42.9430 H   0  0  0  0  0  0  0  0  0  0  0  0
   47.5080   34.8890   43.5480 H   0  0  0  0  0  0  0  0  0  0  0  0
   46.7810   34.2790   42.0480 H   0  0  0  0  0  0  0  0  0  0  0  0
   46.9350   32.6180   43.5570 H   0  0  0  0  0  0  0  0  0  0  0  0
   45.1430   32.9300   43.4490 H   0  0  0  0  0  0  0  0  0  0  0  0
   44.4780   35.2580   42.0430 C   0  0  0  0  0  0  0  0  0  0  0  0
   43.4270   34.4590   42.4540 F   0  0  0  0  0  0  0  0  0  0  0  0
   43.9270   36.4970   41.7220 F   0  0  0  0  0  0  0  0  0  0  0  0
   45.1330   34.8010   40.9160 F   0  0  0  0  0  0  0  0  0  0  0  0
   46.7160   30.5690   44.9410 C   0  0  0  0  0  0  0  0  0  0  0  0
   46.3250   29.7720   43.9150 C   0  0  0  0  0  0  0  0  0  0  0  0
   47.4670   29.3720   43.2110 C   0  0  0  0  0  0  0  0  0  0  0  0
   48.4950   29.9440   43.8400 N   0  0  0  0  0  0  0  0  0  0  0  0
   48.0750   30.6540   44.8630 N   0  0  0  0  0  0  0  0  0  0  0  0
   45.2700   29.5830   43.8100 H   0  0  0  0  0  0  0  0  0  0  0  0
   47.3910   28.7320   42.3530 H   0  0  0  0  0  0  0  0  0  0  0  0
   53.1810   31.4860   41.0210 H   0  0  0  0  0  0  0  0  0  0  0  0
   52.2370   31.3670   41.4650 N   0  0  0  0  0  0  0  0  0  0  0  0
   51.2050   32.2170   41.3120 C   0  0  0  0  0  3  0  0  0  0  0  0
   50.1340   31.7650   42.0200 N   0  0  0  0  0  0  0  0  0  0  0  0
   50.5470   30.6420   42.5910 C   0  0  0  0  0  0  0  0  0  0  0  0
   49.8650   29.7760   43.4180 C   0  0  0  0  0  0  0  0  0  0  0  0
   50.5250   28.6810   43.8760 N   0  0  0  0  0  0  0  0  0  0  0  0
   51.8060   28.4370   43.5380 C   0  0  0  0  0  3  0  0  0  0  0  0
   52.5220   29.2630   42.7240 N   0  0  0  0  0  0  0  0  0  0  0  0
   51.8470   30.3600   42.2700 C   0  0  0  0  0  0  0  0  0  0  0  0
  1  8  1  0  0  0  0
  1  6  1  0  0  0  0
  2  1  2  0  0  0  0
  3  2  1  0  0  0  0
  3  4  2  0  0  0  0
  4  5  1  0  0  0  0
  5  6  2  0  0  0  0
  5  7  1  0  0  0  0
  7  9  1  0  0  0  0
 10  7  1  0  0  0  0
 11 12  1  0  0  0  0
 11 17  1  1  0  0  0
 11  2  1  0  0  0  0
 12 18  1  0  0  0  0
 13 19  1  0  0  0  0
 13 12  2  0  0  0  0
 14 20  1  6  0  0  0
 14 13  1  0  0  0  0
 15 14  1  0  0  0  0
 15 21  1  0  0  0  0
 15 16  1  0  0  0  0
 16 11  1  0  0  0  0
 22 15  1  0  0  0  0
 23 16  1  0  0  0  0
 24 16  1  0  0  0  0
 25 26  1  0  0  0  0
 25 14  1  0  0  0  0
 27 25  1  0  0  0  0
 28 25  1  0  0  0  0
 29  3  1  0  0  0  0
 30 29  1  0  0  0  0
 31 32  1  0  0  0  0
 31 30  2  0  0  0  0
 32 33  1  0  0  0  0
 33 29  2  0  0  0  0
 34 30  1  0  0  0  0
 35 31  1  0  0  0  0
 36 37  1  0  0  0  0
 37 45  1  0  0  0  0
 38 37  1  0  0  0  0
 38 39  2  0  0  0  0
 39 40  1  0  0  0  0
 40 41  1  0  0  0  0
 41 32  1  0  0  0  0
 41 42  2  0  0  0  0
 43 42  1  0  0  0  0
 44 43  2  0  0  0  0
 45 40  2  0  0  0  0
 45 44  1  0  0  0  0
M  END
>  <minimizedAffinity>
-6.41009045

>  <minimizedRMSD>
0.611997128

$$$$
