
 OpenBabel03232518573D

 47 51  0  0  1  0  0  0  0  0999 V2000
   46.0810   32.0770   45.3760 C   0  0  1  0  0  0  0  0  0  0  0  0
   45.0590   31.9500   44.8890 H   0  0  0  0  0  0  0  0  0  0  0  0
   45.7850   32.1500   49.0670 C   0  0  0  0  0  0  0  0  0  0  0  0
   45.3620   30.8020   49.3400 C   0  0  0  0  0  0  0  0  0  0  0  0
   45.1960   29.8990   48.2380 C   0  0  0  0  0  0  0  0  0  0  0  0
   45.4510   30.3810   46.9830 N   0  0  0  0  0  0  0  0  0  0  0  0
   45.8400   31.6380   46.7770 C   0  0  0  0  0  0  0  0  0  0  0  0
   46.0070   32.5200   47.8080 N   0  0  0  0  0  0  0  0  0  0  0  0
   45.9000   32.8020   49.9120 H   0  0  0  0  0  0  0  0  0  0  0  0
   45.1630   30.4340   50.3350 H   0  0  0  0  0  0  0  0  0  0  0  0
   44.8830   28.8950   48.4120 H   0  0  0  0  0  0  0  0  0  0  0  0
   46.6150   33.4340   45.2430 C   0  0  0  0  0  0  0  0  0  0  0  0
   46.8530   33.9430   46.2030 H   0  0  0  0  0  0  0  0  0  0  0  0
   47.5720   33.4270   44.6880 H   0  0  0  0  0  0  0  0  0  0  0  0
   45.6820   34.2430   44.4160 C   0  0  0  0  0  0  0  0  0  0  0  0
   44.8940   35.1860   45.0250 C   0  0  0  0  0  0  0  0  0  0  0  0
   44.1320   35.7940   44.0630 C   0  0  0  0  0  0  0  0  0  0  0  0
   44.5150   35.1710   42.9070 N   0  0  0  0  0  0  0  0  0  0  0  0
   45.4330   34.2490   43.0970 N   0  0  0  0  0  0  0  0  0  0  0  0
   44.8040   35.4810   46.0720 H   0  0  0  0  0  0  0  0  0  0  0  0
   43.3800   36.5820   44.0840 H   0  0  0  0  0  0  0  0  0  0  0  0
   44.5340   34.5870   40.5690 N   0  0  0  0  0  0  0  0  0  0  0  0
   43.4310   34.1250   39.7640 C   0  0  0  0  0  0  0  0  0  0  0  0
   42.3250   33.9660   40.8150 C   0  0  0  0  0  0  0  0  0  0  0  0
   42.4760   35.2820   41.5550 C   0  0  0  0  0  0  0  0  0  0  0  0
   43.9830   35.4640   41.5690 C   0  0  1  0  0  0  0  0  0  0  0  0
   44.9430   33.7340   41.0160 H   0  0  0  0  0  0  0  0  0  0  0  0
   43.6670   33.1740   39.2800 H   0  0  0  0  0  0  0  0  0  0  0  0
   43.0560   34.9010   39.0560 H   0  0  0  0  0  0  0  0  0  0  0  0
   42.5290   33.0880   41.4550 H   0  0  0  0  0  0  0  0  0  0  0  0
   41.3300   33.9240   40.3530 H   0  0  0  0  0  0  0  0  0  0  0  0
   41.9690   36.0610   40.9830 H   0  0  0  0  0  0  0  0  0  0  0  0
   42.1010   35.2250   42.5940 H   0  0  0  0  0  0  0  0  0  0  0  0
   44.2730   36.4910   41.3280 H   0  0  0  0  0  0  0  0  0  0  0  0
   46.9040   31.0040   44.6800 C   0  0  0  0  0  0  0  0  0  0  0  0
   46.5110   29.9980   44.9580 H   0  0  0  0  0  0  0  0  0  0  0  0
   47.9060   31.0500   45.1800 H   0  0  0  0  0  0  0  0  0  0  0  0
   47.0920   31.1540   43.2900 N   0  0  0  0  0  0  0  0  0  0  0  0
   46.0780   30.7290   42.4760 C   0  0  0  0  0  0  0  0  0  0  0  0
   46.3900   30.9480   41.1640 N   0  0  0  0  0  0  0  0  0  0  0  0
   47.5960   31.5120   41.1060 C   0  0  0  0  0  0  0  0  0  0  0  0
   48.4950   31.9760   40.1710 C   0  0  0  0  0  0  0  0  0  0  0  0
   48.1810   31.8910   39.1240 H   0  0  0  0  0  0  0  0  0  0  0  0
   49.7000   32.5090   40.5140 N   0  0  0  0  0  0  0  0  0  0  0  0
   50.0550   32.6000   41.8100 C   0  0  0  0  0  0  0  0  0  0  0  0
   49.1860   32.1500   42.7300 N   0  0  0  0  0  0  0  0  0  0  0  0
   47.9940   31.6210   42.4180 C   0  0  0  0  0  0  0  0  0  0  0  0
  1  2  1  6  0  0  0
  1  7  1  0  0  0  0
  3  4  1  0  0  0  0
  3  9  1  0  0  0  0
  4 10  1  0  0  0  0
  5 11  1  0  0  0  0
  5  4  2  0  0  0  0
  6  5  1  0  0  0  0
  7  6  2  0  0  0  0
  7  8  1  0  0  0  0
  8  3  2  0  0  0  0
 12  1  1  0  0  0  0
 12 13  1  0  0  0  0
 14 12  1  0  0  0  0
 15 16  1  0  0  0  0
 15 12  1  0  0  0  0
 16 20  1  0  0  0  0
 17 21  1  0  0  0  0
 17 16  2  0  0  0  0
 18 19  1  0  0  0  0
 18 17  1  0  0  0  0
 19 15  2  0  0  0  0
 22 27  1  0  0  0  0
 22 26  1  0  0  0  0
 23 22  1  0  0  0  0
 23 24  1  0  0  0  0
 24 30  1  0  0  0  0
 24 25  1  0  0  0  0
 25 26  1  0  0  0  0
 25 33  1  0  0  0  0
 26 34  1  6  0  0  0
 26 18  1  0  0  0  0
 28 23  1  0  0  0  0
 29 23  1  0  0  0  0
 31 24  1  0  0  0  0
 32 25  1  0  0  0  0
 35 36  1  0  0  0  0
 35 37  1  0  0  0  0
 35  1  1  0  0  0  0
 38 35  1  0  0  0  0
 39 38  1  0  0  0  0
 40 39  2  0  0  0  0
 41 40  1  0  0  0  0
 41 47  1  0  0  0  0
 42 44  1  0  0  0  0
 42 41  2  0  0  0  0
 43 42  1  0  0  0  0
 44 45  2  0  0  0  0
 45 46  1  0  0  0  0
 47 46  2  0  0  0  0
 47 38  1  0  0  0  0
M  END
>  <minimizedAffinity>
-5.6070776

>  <minimizedRMSD>
1.13974857

$$$$
