
 OpenBabel03232515223D

 43 47  0  0  0  0  0  0  0  0999 V2000
   48.0250   31.0680   48.2870 C   0  0  0  0  0  0  0  0  0  0  0  0
   48.9080   31.5930   49.1840 C   0  0  0  0  0  0  0  0  0  0  0  0
   49.9160   30.8320   49.7070 C   0  0  0  0  0  0  0  0  0  0  0  0
   50.0310   29.5080   49.3120 C   0  0  0  0  0  0  0  0  0  0  0  0
   49.1420   28.9890   48.4130 C   0  0  0  0  0  0  0  0  0  0  0  0
   48.1320   29.7460   47.8860 C   0  0  0  0  0  0  0  0  0  0  0  0
   48.8160   32.6270   49.4900 H   0  0  0  0  0  0  0  0  0  0  0  0
   50.6000   31.2820   50.4170 H   0  0  0  0  0  0  0  0  0  0  0  0
   50.8390   28.9180   49.7380 H   0  0  0  0  0  0  0  0  0  0  0  0
   44.4380   35.9390   44.4770 C   0  0  0  0  0  0  0  0  0  0  0  0
   45.1600   35.8050   43.2800 C   0  0  0  0  0  0  0  0  0  0  0  0
   46.1220   34.8120   43.1860 C   0  0  0  0  0  0  0  0  0  0  0  0
   46.3350   34.0050   44.2520 N   0  0  0  0  0  0  0  0  0  0  0  0
   45.6150   34.1620   45.4070 C   0  0  0  0  0  0  0  0  0  0  0  0
   44.6660   35.1220   45.5330 N   0  0  0  0  0  0  0  0  0  0  0  0
   45.8370   33.3120   46.5310 N   0  0  0  0  0  0  0  0  0  0  0  0
   47.0220   32.6760   46.5990 C   0  0  0  0  0  0  0  0  0  0  0  0
   46.9740   31.9330   47.7690 C   0  0  0  0  0  0  0  0  0  0  0  0
   45.7790   32.1370   48.3670 N   0  0  0  0  0  0  0  0  0  0  0  0
   45.0850   32.9720   47.6230 C   0  0  0  0  0  0  0  0  0  0  0  0
   43.6840   36.7180   44.5510 H   0  0  0  0  0  0  0  0  0  0  0  0
   44.9970   36.4360   42.4370 H   0  0  0  0  0  0  0  0  0  0  0  0
   46.7200   34.6400   42.3060 H   0  0  0  0  0  0  0  0  0  0  0  0
   47.8870   32.6710   45.9490 H   0  0  0  0  0  0  0  0  0  0  0  0
   44.0800   33.4010   47.7340 H   0  0  0  0  0  0  0  0  0  0  0  0
   47.2170   29.2010   46.9580 N   0  0  0  0  0  0  0  0  0  0  0  0
   47.3880   29.3000   45.9220 H   0  0  0  0  0  0  0  0  0  0  0  0
   46.3950   28.7140   47.4130 H   0  0  0  0  0  0  0  0  0  0  0  0
   49.2590   27.5900   47.9920 C   0  0  0  0  0  0  0  0  0  0  0  0
   48.3870   26.7260   48.2570 O   0  0  0  0  0  0  0  0  0  0  0  0
   50.4650   27.1560   47.2120 C   0  0  0  0  0  0  0  0  0  0  0  0
   51.4400   26.3140   47.8500 C   0  0  0  0  0  0  0  0  0  0  0  0
   52.6660   26.0800   46.5250 S   0  0  0  0  0  0  0  0  0  0  0  0
   51.6690   27.1580   45.3140 C   0  0  0  0  0  0  0  0  0  0  0  0
   50.7480   27.4590   45.9860 N   0  0  0  0  0  0  0  0  0  0  0  0
   52.0780   27.4230   43.9860 N   0  0  0  0  0  0  0  0  0  0  0  0
   53.0310   27.8560   43.9340 H   0  0  0  0  0  0  0  0  0  0  0  0
   51.3100   27.1170   43.3250 H   0  0  0  0  0  0  0  0  0  0  0  0
   51.4160   25.8260   49.1480 N   0  0  0  0  0  0  0  0  0  0  0  0
   50.8790   24.6650   49.6290 C   0  0  0  0  0  0  0  0  0  0  0  0
   51.0680   24.5540   50.9790 C   0  0  0  0  0  0  0  0  0  0  0  0
   51.7370   25.6620   51.3620 N   0  0  0  0  0  0  0  0  0  0  0  0
   51.9300   26.4000   50.2500 C   0  0  0  0  0  0  0  0  0  0  0  0
  1  2  1  0  0  0  0
  2  7  1  0  0  0  0
  2  3  2  0  0  0  0
  3  8  1  0  0  0  0
  4  3  1  0  0  0  0
  4  9  1  0  0  0  0
  5  4  2  0  0  0  0
  6  1  2  0  0  0  0
  6  5  1  0  0  0  0
 10 21  1  0  0  0  0
 10 15  1  0  0  0  0
 11 10  2  0  0  0  0
 12 11  1  0  0  0  0
 12 13  2  0  0  0  0
 13 14  1  0  0  0  0
 14 15  2  0  0  0  0
 14 16  1  0  0  0  0
 16 17  1  0  0  0  0
 16 20  1  0  0  0  0
 17 18  2  0  0  0  0
 18  1  1  0  0  0  0
 18 19  1  0  0  0  0
 20 25  1  0  0  0  0
 20 19  2  0  0  0  0
 22 11  1  0  0  0  0
 23 12  1  0  0  0  0
 24 17  1  0  0  0  0
 26 28  1  0  0  0  0
 26  6  1  0  0  0  0
 27 26  1  0  0  0  0
 29 30  2  0  0  0  0
 29  5  1  0  0  0  0
 31 32  2  0  0  0  0
 31 29  1  0  0  0  0
 32 39  1  0  0  0  0
 33 32  1  0  0  0  0
 34 35  2  0  0  0  0
 34 33  1  0  0  0  0
 35 31  1  0  0  0  0
 36 34  1  0  0  0  0
 37 36  1  0  0  0  0
 38 36  1  0  0  0  0
 39 40  1  0  0  0  0
 39 43  1  0  0  0  0
 40 41  2  0  0  0  0
 41 42  1  0  0  0  0
 43 42  2  0  0  0  0
M  END
>  <minimizedAffinity>
-5.88102818

>  <minimizedRMSD>
0.86497736

$$$$
