
 OpenBabel03232521013D

 42 45  0  0  1  0  0  0  0  0999 V2000
   45.3750   32.9130   47.5230 C   0  0  0  0  0  0  0  0  0  0  0  0
   45.9150   32.6500   46.3030 C   0  0  0  0  0  0  0  0  0  0  0  0
   46.1670   31.2970   46.0580 C   0  0  0  0  0  0  0  0  0  0  0  0
   45.9000   30.3060   46.9460 N   0  0  0  0  0  0  0  0  0  0  0  0
   45.3480   30.6290   48.1760 C   0  0  0  0  0  0  0  0  0  0  0  0
   45.1020   31.9080   48.4320 N   0  0  0  0  0  0  0  0  0  0  0  0
   45.0760   29.6180   49.1330 N   0  0  0  0  0  0  0  0  0  0  0  0
   45.1470   33.9250   47.8180 H   0  0  0  0  0  0  0  0  0  0  0  0
   45.7880   28.9060   49.4670 H   0  0  0  0  0  0  0  0  0  0  0  0
   44.1190   29.5570   49.5430 H   0  0  0  0  0  0  0  0  0  0  0  0
   46.1620   33.6010   45.2740 C   0  0  2  0  0  0  0  0  0  0  0  0
   44.9490   34.6920   45.4990 C   0  0  0  0  0  0  0  0  0  0  0  0
   44.7200   35.6200   44.4260 C   0  0  0  0  0  0  0  0  0  0  0  0
   45.5260   35.5480   43.2050 C   0  0  1  0  0  0  0  0  0  0  0  0
   46.5880   34.5480   43.1630 C   0  0  0  0  0  0  0  0  0  0  0  0
   46.1370   33.3140   43.9100 C   0  0  0  0  0  0  0  0  0  0  0  0
   46.9730   34.3180   45.6070 H   0  0  0  0  0  0  0  0  0  0  0  0
   44.2710   34.8410   46.3310 H   0  0  0  0  0  0  0  0  0  0  0  0
   43.9490   36.3380   44.5360 H   0  0  0  0  0  0  0  0  0  0  0  0
   45.9630   36.5500   42.9980 H   0  0  0  0  0  0  0  0  0  0  0  0
   46.8910   34.3570   42.1150 H   0  0  0  0  0  0  0  0  0  0  0  0
   47.5020   34.9380   43.6870 H   0  0  0  0  0  0  0  0  0  0  0  0
   46.9890   32.6620   43.5840 H   0  0  0  0  0  0  0  0  0  0  0  0
   45.1850   32.9960   43.4340 H   0  0  0  0  0  0  0  0  0  0  0  0
   44.5170   35.2770   42.0490 C   0  0  0  0  0  0  0  0  0  0  0  0
   43.4570   34.4800   42.4430 F   0  0  0  0  0  0  0  0  0  0  0  0
   43.9740   36.5140   41.7090 F   0  0  0  0  0  0  0  0  0  0  0  0
   45.1960   34.8170   40.9400 F   0  0  0  0  0  0  0  0  0  0  0  0
   46.7920   30.6000   44.9490 C   0  0  0  0  0  0  0  0  0  0  0  0
   46.4320   29.8600   43.8700 C   0  0  0  0  0  0  0  0  0  0  0  0
   47.6020   29.4470   43.2130 C   0  0  0  0  0  0  0  0  0  0  0  0
   48.6070   29.9560   43.9260 N   0  0  0  0  0  0  0  0  0  0  0  0
   48.1570   30.6390   44.9520 N   0  0  0  0  0  0  0  0  0  0  0  0
   45.3750   29.7160   43.6980 H   0  0  0  0  0  0  0  0  0  0  0  0
   47.5390   28.8410   42.3210 H   0  0  0  0  0  0  0  0  0  0  0  0
   49.9860   29.7470   43.5630 C   0  0  0  0  0  0  0  0  0  0  0  0
   50.6550   28.5540   43.8480 C   0  0  0  0  0  3  0  0  0  0  0  0
   51.9220   28.7480   43.3520 C   0  0  0  0  0  0  0  0  0  0  0  0
   52.6610   27.9650   43.4400 H   0  0  0  0  0  0  0  0  0  0  0  0
   52.0020   29.9950   42.8010 N   0  0  0  0  0  0  0  0  0  0  0  0
   50.8130   30.6020   42.9340 N   0  0  0  0  0  0  0  0  0  0  0  0
   52.8940   30.3250   42.3700 H   0  0  0  0  0  0  0  0  0  0  0  0
  1  8  1  0  0  0  0
  1  6  1  0  0  0  0
  2  1  2  0  0  0  0
  3  2  1  0  0  0  0
  3  4  2  0  0  0  0
  4  5  1  0  0  0  0
  5  6  2  0  0  0  0
  5  7  1  0  0  0  0
  7  9  1  0  0  0  0
  7 10  1  0  0  0  0
 11 12  1  0  0  0  0
 11 17  1  1  0  0  0
 11  2  1  0  0  0  0
 12 18  1  0  0  0  0
 13 19  1  0  0  0  0
 13 12  2  0  0  0  0
 14 20  1  6  0  0  0
 14 13  1  0  0  0  0
 15 14  1  0  0  0  0
 15 22  1  0  0  0  0
 15 16  1  0  0  0  0
 16 11  1  0  0  0  0
 21 15  1  0  0  0  0
 23 16  1  0  0  0  0
 24 16  1  0  0  0  0
 25 26  1  0  0  0  0
 25 14  1  0  0  0  0
 27 25  1  0  0  0  0
 28 25  1  0  0  0  0
 29 33  2  0  0  0  0
 29  3  1  0  0  0  0
 30 29  1  0  0  0  0
 31 30  2  0  0  0  0
 31 32  1  0  0  0  0
 32 33  1  0  0  0  0
 34 30  1  0  0  0  0
 35 31  1  0  0  0  0
 36 37  1  0  0  0  0
 36 32  1  0  0  0  0
 38 39  1  0  0  0  0
 38 37  2  0  0  0  0
 40 41  1  0  0  0  0
 40 38  1  0  0  0  0
 41 36  2  0  0  0  0
 42 40  1  0  0  0  0
M  END
>  <minimizedAffinity>
-6.00524235

>  <minimizedRMSD>
0.105151877

$$$$
