
 OpenBabel03232521013D

 42 45  0  0  1  0  0  0  0  0999 V2000
   45.4070   32.8560   47.5060 C   0  0  0  0  0  0  0  0  0  0  0  0
   45.9290   32.6050   46.2760 C   0  0  0  0  0  0  0  0  0  0  0  0
   46.1610   31.2540   46.0070 C   0  0  0  0  0  0  0  0  0  0  0  0
   45.8930   30.2520   46.8830 N   0  0  0  0  0  0  0  0  0  0  0  0
   45.3600   30.5620   48.1240 C   0  0  0  0  0  0  0  0  0  0  0  0
   45.1330   31.8410   48.4030 N   0  0  0  0  0  0  0  0  0  0  0  0
   45.0880   29.5400   49.0690 N   0  0  0  0  0  0  0  0  0  0  0  0
   45.1940   33.8660   47.8190 H   0  0  0  0  0  0  0  0  0  0  0  0
   45.7950   28.8150   49.3830 H   0  0  0  0  0  0  0  0  0  0  0  0
   44.1340   29.4850   49.4900 H   0  0  0  0  0  0  0  0  0  0  0  0
   46.1750   33.5690   45.2590 C   0  0  2  0  0  0  0  0  0  0  0  0
   44.9640   34.6600   45.5010 C   0  0  0  0  0  0  0  0  0  0  0  0
   44.7340   35.6010   44.4400 C   0  0  0  0  0  0  0  0  0  0  0  0
   45.5370   35.5440   43.2160 C   0  0  1  0  0  0  0  0  0  0  0  0
   46.5970   34.5430   43.1590 C   0  0  0  0  0  0  0  0  0  0  0  0
   46.1460   33.3000   43.8910 C   0  0  0  0  0  0  0  0  0  0  0  0
   46.9870   34.2810   45.5980 H   0  0  0  0  0  0  0  0  0  0  0  0
   44.2880   34.7980   46.3360 H   0  0  0  0  0  0  0  0  0  0  0  0
   43.9640   36.3190   44.5610 H   0  0  0  0  0  0  0  0  0  0  0  0
   45.9750   36.5480   43.0210 H   0  0  0  0  0  0  0  0  0  0  0  0
   46.8970   34.3650   42.1080 H   0  0  0  0  0  0  0  0  0  0  0  0
   47.5130   34.9240   43.6860 H   0  0  0  0  0  0  0  0  0  0  0  0
   46.9960   32.6510   43.5550 H   0  0  0  0  0  0  0  0  0  0  0  0
   45.1920   32.9900   43.4130 H   0  0  0  0  0  0  0  0  0  0  0  0
   44.5250   35.2890   42.0590 C   0  0  0  0  0  0  0  0  0  0  0  0
   43.4570   34.5000   42.4500 F   0  0  0  0  0  0  0  0  0  0  0  0
   43.9950   36.5330   41.7260 F   0  0  0  0  0  0  0  0  0  0  0  0
   45.1990   34.8280   40.9470 F   0  0  0  0  0  0  0  0  0  0  0  0
   46.7640   30.5670   44.8800 C   0  0  0  0  0  0  0  0  0  0  0  0
   46.3820   29.8560   43.7880 C   0  0  0  0  0  0  0  0  0  0  0  0
   47.5380   29.4320   43.1150 C   0  0  0  0  0  0  0  0  0  0  0  0
   48.5580   29.9060   43.8310 N   0  0  0  0  0  0  0  0  0  0  0  0
   48.1300   30.5770   44.8740 N   0  0  0  0  0  0  0  0  0  0  0  0
   45.3210   29.7380   43.6210 H   0  0  0  0  0  0  0  0  0  0  0  0
   47.4570   28.8460   42.2120 H   0  0  0  0  0  0  0  0  0  0  0  0
   49.9310   29.6760   43.4550 C   0  0  0  0  0  0  0  0  0  0  0  0
   50.3060   29.4440   42.1300 C   0  0  0  0  0  3  0  0  0  0  0  0
   51.6690   29.2760   42.1870 C   0  0  0  0  0  0  0  0  0  0  0  0
   52.2270   29.0780   41.2830 H   0  0  0  0  0  0  0  0  0  0  0  0
   52.0830   29.4010   43.4810 N   0  0  0  0  0  0  0  0  0  0  0  0
   51.0120   29.6470   44.2540 N   0  0  0  0  0  0  0  0  0  0  0  0
   53.0940   29.3040   43.7240 H   0  0  0  0  0  0  0  0  0  0  0  0
  1  8  1  0  0  0  0
  1  6  1  0  0  0  0
  2  1  2  0  0  0  0
  3  2  1  0  0  0  0
  3  4  2  0  0  0  0
  4  5  1  0  0  0  0
  5  6  2  0  0  0  0
  5  7  1  0  0  0  0
  7  9  1  0  0  0  0
  7 10  1  0  0  0  0
 11 12  1  0  0  0  0
 11 17  1  1  0  0  0
 11  2  1  0  0  0  0
 12 18  1  0  0  0  0
 13 19  1  0  0  0  0
 13 12  2  0  0  0  0
 14 20  1  6  0  0  0
 14 13  1  0  0  0  0
 15 14  1  0  0  0  0
 15 22  1  0  0  0  0
 15 16  1  0  0  0  0
 16 11  1  0  0  0  0
 21 15  1  0  0  0  0
 23 16  1  0  0  0  0
 24 16  1  0  0  0  0
 25 26  1  0  0  0  0
 25 14  1  0  0  0  0
 27 25  1  0  0  0  0
 28 25  1  0  0  0  0
 29  3  1  0  0  0  0
 30 29  1  0  0  0  0
 31 30  2  0  0  0  0
 31 32  1  0  0  0  0
 32 33  1  0  0  0  0
 33 29  2  0  0  0  0
 34 30  1  0  0  0  0
 35 31  1  0  0  0  0
 36 32  1  0  0  0  0
 36 41  2  0  0  0  0
 37 38  2  0  0  0  0
 37 36  1  0  0  0  0
 38 40  1  0  0  0  0
 39 38  1  0  0  0  0
 40 42  1  0  0  0  0
 40 41  1  0  0  0  0
M  END
>  <minimizedAffinity>
-5.94922209

>  <minimizedRMSD>
0.0619716011

$$$$
