
 OpenBabel03232521003D

 42 45  0  0  1  0  0  0  0  0999 V2000
   45.3450   32.9010   47.5120 C   0  0  0  0  0  0  0  0  0  0  0  0
   45.9110   32.6420   46.3030 C   0  0  0  0  0  0  0  0  0  0  0  0
   46.1910   31.2940   46.0680 C   0  0  0  0  0  0  0  0  0  0  0  0
   45.9260   30.3020   46.9560 N   0  0  0  0  0  0  0  0  0  0  0  0
   45.3470   30.6190   48.1740 C   0  0  0  0  0  0  0  0  0  0  0  0
   45.0740   31.8960   48.4200 N   0  0  0  0  0  0  0  0  0  0  0  0
   45.0760   29.6080   49.1310 N   0  0  0  0  0  0  0  0  0  0  0  0
   45.0930   33.9100   47.7980 H   0  0  0  0  0  0  0  0  0  0  0  0
   45.7940   28.9100   49.4810 H   0  0  0  0  0  0  0  0  0  0  0  0
   44.1130   29.5320   49.5240 H   0  0  0  0  0  0  0  0  0  0  0  0
   46.1590   33.5930   45.2740 C   0  0  2  0  0  0  0  0  0  0  0  0
   44.9510   34.6890   45.5030 C   0  0  0  0  0  0  0  0  0  0  0  0
   44.7230   35.6190   44.4310 C   0  0  0  0  0  0  0  0  0  0  0  0
   45.5260   35.5450   43.2080 C   0  0  1  0  0  0  0  0  0  0  0  0
   46.5840   34.5410   43.1630 C   0  0  0  0  0  0  0  0  0  0  0  0
   46.1300   33.3080   43.9100 C   0  0  0  0  0  0  0  0  0  0  0  0
   46.9730   34.3070   45.6050 H   0  0  0  0  0  0  0  0  0  0  0  0
   44.2750   34.8390   46.3360 H   0  0  0  0  0  0  0  0  0  0  0  0
   43.9550   36.3400   44.5430 H   0  0  0  0  0  0  0  0  0  0  0  0
   45.9670   36.5450   43.0010 H   0  0  0  0  0  0  0  0  0  0  0  0
   46.8840   34.3490   42.1140 H   0  0  0  0  0  0  0  0  0  0  0  0
   47.5010   34.9270   43.6850 H   0  0  0  0  0  0  0  0  0  0  0  0
   46.9790   32.6530   43.5810 H   0  0  0  0  0  0  0  0  0  0  0  0
   45.1760   32.9940   43.4360 H   0  0  0  0  0  0  0  0  0  0  0  0
   44.5130   35.2780   42.0540 C   0  0  0  0  0  0  0  0  0  0  0  0
   43.4540   34.4810   42.4490 F   0  0  0  0  0  0  0  0  0  0  0  0
   43.9710   36.5170   41.7200 F   0  0  0  0  0  0  0  0  0  0  0  0
   45.1890   34.8220   40.9410 F   0  0  0  0  0  0  0  0  0  0  0  0
   46.8480   30.6030   44.9740 C   0  0  0  0  0  0  0  0  0  0  0  0
   46.5210   29.8420   43.8980 C   0  0  0  0  0  0  0  0  0  0  0  0
   47.7090   29.4550   43.2590 C   0  0  0  0  0  0  0  0  0  0  0  0
   48.6920   30.0000   43.9770 N   0  0  0  0  0  0  0  0  0  0  0  0
   48.2110   30.6800   44.9910 N   0  0  0  0  0  0  0  0  0  0  0  0
   45.4710   29.6670   43.7170 H   0  0  0  0  0  0  0  0  0  0  0  0
   47.6740   28.8390   42.3720 H   0  0  0  0  0  0  0  0  0  0  0  0
   50.0800   29.8260   43.6320 C   0  0  0  0  0  0  0  0  0  0  0  0
   50.6480   30.4450   42.5150 C   0  0  0  0  0  3  0  0  0  0  0  0
   51.9620   30.0380   42.5340 C   0  0  0  0  0  0  0  0  0  0  0  0
   52.6420   30.3760   41.7650 H   0  0  0  0  0  0  0  0  0  0  0  0
   52.1630   29.2190   43.6070 N   0  0  0  0  0  0  0  0  0  0  0  0
   51.0060   29.0940   44.2750 N   0  0  0  0  0  0  0  0  0  0  0  0
   53.1060   28.8080   43.7870 H   0  0  0  0  0  0  0  0  0  0  0  0
  1  8  1  0  0  0  0
  1  6  1  0  0  0  0
  2  1  2  0  0  0  0
  3  2  1  0  0  0  0
  3  4  2  0  0  0  0
  4  5  1  0  0  0  0
  5  6  2  0  0  0  0
  5  7  1  0  0  0  0
  7  9  1  0  0  0  0
  7 10  1  0  0  0  0
 11 12  1  0  0  0  0
 11 17  1  1  0  0  0
 11  2  1  0  0  0  0
 12 18  1  0  0  0  0
 13 19  1  0  0  0  0
 13 12  2  0  0  0  0
 14 20  1  6  0  0  0
 14 13  1  0  0  0  0
 15 14  1  0  0  0  0
 15 22  1  0  0  0  0
 15 16  1  0  0  0  0
 16 11  1  0  0  0  0
 21 15  1  0  0  0  0
 23 16  1  0  0  0  0
 24 16  1  0  0  0  0
 25 26  1  0  0  0  0
 25 14  1  0  0  0  0
 27 25  1  0  0  0  0
 28 25  1  0  0  0  0
 29 33  2  0  0  0  0
 29  3  1  0  0  0  0
 30 29  1  0  0  0  0
 31 30  2  0  0  0  0
 31 32  1  0  0  0  0
 32 33  1  0  0  0  0
 34 30  1  0  0  0  0
 35 31  1  0  0  0  0
 36 32  1  0  0  0  0
 36 41  2  0  0  0  0
 37 38  2  0  0  0  0
 37 36  1  0  0  0  0
 38 40  1  0  0  0  0
 39 38  1  0  0  0  0
 40 42  1  0  0  0  0
 40 41  1  0  0  0  0
M  END
>  <minimizedAffinity>
-6.00337553

>  <minimizedRMSD>
0.181205839

$$$$
