
 OpenBabel03232521003D

 42 45  0  0  1  0  0  0  0  0999 V2000
   45.5130   32.8420   47.5160 C   0  0  0  0  0  0  0  0  0  0  0  0
   45.9630   32.5990   46.2550 C   0  0  0  0  0  0  0  0  0  0  0  0
   46.1270   31.2450   45.9480 C   0  0  0  0  0  0  0  0  0  0  0  0
   45.8620   30.2360   46.8150 N   0  0  0  0  0  0  0  0  0  0  0  0
   45.4040   30.5390   48.0880 C   0  0  0  0  0  0  0  0  0  0  0  0
   45.2430   31.8180   48.4040 N   0  0  0  0  0  0  0  0  0  0  0  0
   45.1380   29.5070   49.0250 N   0  0  0  0  0  0  0  0  0  0  0  0
   45.3570   33.8520   47.8590 H   0  0  0  0  0  0  0  0  0  0  0  0
   45.8300   28.7480   49.2880 H   0  0  0  0  0  0  0  0  0  0  0  0
   44.2060   29.4800   49.4910 H   0  0  0  0  0  0  0  0  0  0  0  0
   46.1960   33.5740   45.2470 C   0  0  2  0  0  0  0  0  0  0  0  0
   44.9660   34.6430   45.4930 C   0  0  0  0  0  0  0  0  0  0  0  0
   44.7250   35.5890   44.4390 C   0  0  0  0  0  0  0  0  0  0  0  0
   45.5340   35.5550   43.2180 C   0  0  1  0  0  0  0  0  0  0  0  0
   46.6110   34.5720   43.1570 C   0  0  0  0  0  0  0  0  0  0  0  0
   46.1770   33.3160   43.8770 C   0  0  0  0  0  0  0  0  0  0  0  0
   46.9960   34.2970   45.5960 H   0  0  0  0  0  0  0  0  0  0  0  0
   44.2860   34.7630   46.3260 H   0  0  0  0  0  0  0  0  0  0  0  0
   43.9440   36.2930   44.5630 H   0  0  0  0  0  0  0  0  0  0  0  0
   45.9560   36.5680   43.0320 H   0  0  0  0  0  0  0  0  0  0  0  0
   46.9180   34.4070   42.1050 H   0  0  0  0  0  0  0  0  0  0  0  0
   47.5180   34.9640   43.6900 H   0  0  0  0  0  0  0  0  0  0  0  0
   47.0400   32.6840   43.5390 H   0  0  0  0  0  0  0  0  0  0  0  0
   45.2310   32.9940   43.3930 H   0  0  0  0  0  0  0  0  0  0  0  0
   44.5300   35.2930   42.0550 C   0  0  0  0  0  0  0  0  0  0  0  0
   43.4610   34.5030   42.4420 F   0  0  0  0  0  0  0  0  0  0  0  0
   44.0000   36.5340   41.7130 F   0  0  0  0  0  0  0  0  0  0  0  0
   45.2140   34.8290   40.9500 F   0  0  0  0  0  0  0  0  0  0  0  0
   46.6450   30.5610   44.7780 C   0  0  0  0  0  0  0  0  0  0  0  0
   46.1810   29.9590   43.6530 C   0  0  0  0  0  0  0  0  0  0  0  0
   47.2810   29.4490   42.9450 C   0  0  0  0  0  0  0  0  0  0  0  0
   48.3500   29.7650   43.6760 N   0  0  0  0  0  0  0  0  0  0  0  0
   48.0030   30.4200   44.7580 N   0  0  0  0  0  0  0  0  0  0  0  0
   45.1140   29.9690   43.4900 H   0  0  0  0  0  0  0  0  0  0  0  0
   47.1320   28.9270   42.0110 H   0  0  0  0  0  0  0  0  0  0  0  0
   49.6870   29.4070   43.2730 C   0  0  0  0  0  0  0  0  0  0  0  0
   50.8120   29.8070   43.9980 C   0  0  0  0  0  3  0  0  0  0  0  0
   51.8720   29.2750   43.3030 C   0  0  0  0  0  0  0  0  0  0  0  0
   52.8810   29.4360   43.6520 H   0  0  0  0  0  0  0  0  0  0  0  0
   51.4000   28.5930   42.2190 N   0  0  0  0  0  0  0  0  0  0  0  0
   50.0610   28.6780   42.2060 N   0  0  0  0  0  0  0  0  0  0  0  0
   52.0620   28.1160   41.5670 H   0  0  0  0  0  0  0  0  0  0  0  0
  1  8  1  0  0  0  0
  1  6  1  0  0  0  0
  2  1  2  0  0  0  0
  3  2  1  0  0  0  0
  3  4  2  0  0  0  0
  4  5  1  0  0  0  0
  5  6  2  0  0  0  0
  5  7  1  0  0  0  0
  7  9  1  0  0  0  0
  7 10  1  0  0  0  0
 11 12  1  0  0  0  0
 11 17  1  1  0  0  0
 11  2  1  0  0  0  0
 12 18  1  0  0  0  0
 13 19  1  0  0  0  0
 13 12  2  0  0  0  0
 14 20  1  6  0  0  0
 14 13  1  0  0  0  0
 15 14  1  0  0  0  0
 15 22  1  0  0  0  0
 15 16  1  0  0  0  0
 16 11  1  0  0  0  0
 21 15  1  0  0  0  0
 23 16  1  0  0  0  0
 24 16  1  0  0  0  0
 25 26  1  0  0  0  0
 25 14  1  0  0  0  0
 27 25  1  0  0  0  0
 28 25  1  0  0  0  0
 29  3  1  0  0  0  0
 30 29  1  0  0  0  0
 31 30  2  0  0  0  0
 31 32  1  0  0  0  0
 32 33  1  0  0  0  0
 33 29  2  0  0  0  0
 34 30  1  0  0  0  0
 35 31  1  0  0  0  0
 36 32  1  0  0  0  0
 36 37  1  0  0  0  0
 38 39  1  0  0  0  0
 38 37  2  0  0  0  0
 40 38  1  0  0  0  0
 41 40  1  0  0  0  0
 41 36  2  0  0  0  0
 42 40  1  0  0  0  0
M  END
>  <minimizedAffinity>
-5.88149834

>  <minimizedRMSD>
0.23898308

$$$$
