
 OpenBabel03232520023D

 20 21  0  0  0  0  0  0  0  0999 V2000
   47.7960   34.8240   42.2830 C   0  0  0  0  0  0  0  0  0  0  0  0
   47.0710   34.4760   41.1380 C   0  0  0  0  0  0  0  0  0  0  0  0
   45.8170   33.9000   41.3090 C   0  0  0  0  0  0  0  0  0  0  0  0
   45.3660   33.7060   42.5930 N   0  0  0  0  0  0  0  0  0  0  0  0
   46.1070   34.0600   43.6600 C   0  0  0  0  0  0  0  0  0  0  0  0
   47.3030   34.6100   43.5070 N   0  0  0  0  0  0  0  0  0  0  0  0
   47.4950   34.6600   40.1560 H   0  0  0  0  0  0  0  0  0  0  0  0
   45.2220   33.6150   40.4520 H   0  0  0  0  0  0  0  0  0  0  0  0
   49.1160   35.4310   42.1060 C   0  0  0  0  0  0  0  0  0  0  0  0
   49.3120   36.2100   41.1390 O   0  0  0  0  0  0  0  0  0  0  0  0
   50.1260   35.1510   42.9870 O   0  0  0  0  0  0  0  0  0  0  0  0
   50.8510   35.8290   43.1900 H   0  0  0  0  0  0  0  0  0  0  0  0
   45.5490   33.8220   45.3260 S   0  0  0  0  0  0  0  0  0  0  0  0
   46.5030   32.5230   46.1340 C   0  0  0  0  0  0  0  0  0  0  0  0
   46.9580   32.4600   47.4540 C   0  0  0  0  0  0  0  0  0  0  0  0
   47.6470   31.2590   47.5920 C   0  0  0  0  0  0  0  0  0  0  0  0
   48.0760   31.0390   48.5700 H   0  0  0  0  0  0  0  0  0  0  0  0
   47.5880   30.6560   46.3950 N   0  0  0  0  0  0  0  0  0  0  0  0
   46.9280   31.3750   45.5360 N   0  0  0  0  0  0  0  0  0  0  0  0
   48.0790   29.7160   46.3530 H   0  0  0  0  0  0  0  0  0  0  0  0
  1  6  1  0  0  0  0
  2  3  1  0  0  0  0
  2  1  2  0  0  0  0
  3  4  2  0  0  0  0
  4  5  1  0  0  0  0
  5 13  1  0  0  0  0
  6  5  2  0  0  0  0
  7  2  1  0  0  0  0
  8  3  1  0  0  0  0
  9  1  1  0  0  0  0
  9 11  1  0  0  0  0
 10  9  2  0  0  0  0
 11 12  1  0  0  0  0
 13 14  1  0  0  0  0
 14 15  1  0  0  0  0
 15 16  2  0  0  0  0
 16 17  1  0  0  0  0
 18 16  1  0  0  0  0
 19 14  2  0  0  0  0
 19 18  1  0  0  0  0
 20 18  1  0  0  0  0
M  END
>  <minimizedAffinity>
-4.39747953

>  <minimizedRMSD>
2.64927435

$$$$
