
 OpenBabel03232519483D

 44 47  0  0  1  0  0  0  0  0999 V2000
   45.7110   33.3480   41.1590 N   0  0  0  0  0  0  0  0  0  0  0  0
   46.8770   33.2960   40.2830 C   0  0  0  0  0  0  0  0  0  0  0  0
   46.2020   33.3080   38.9330 C   0  0  0  0  0  0  0  0  0  0  0  0
   45.1620   32.2360   39.1330 C   0  0  0  0  0  0  0  0  0  0  0  0
   44.7000   32.4840   40.5310 C   0  0  2  0  0  0  0  0  0  0  0  0
   47.4030   34.2750   40.3810 H   0  0  0  0  0  0  0  0  0  0  0  0
   47.4960   32.4180   40.4450 H   0  0  0  0  0  0  0  0  0  0  0  0
   45.7610   34.2920   38.7310 H   0  0  0  0  0  0  0  0  0  0  0  0
   46.9250   32.9750   38.1410 H   0  0  0  0  0  0  0  0  0  0  0  0
   45.5650   31.2370   38.9340 H   0  0  0  0  0  0  0  0  0  0  0  0
   44.3040   32.4350   38.4350 H   0  0  0  0  0  0  0  0  0  0  0  0
   44.8470   31.5060   41.0540 H   0  0  0  0  0  0  0  0  0  0  0  0
   45.0080   36.0340   43.6180 C   0  0  0  0  0  0  0  0  0  0  0  0
   45.1710   35.3940   42.3800 C   0  0  0  0  0  0  0  0  0  0  0  0
   45.5320   34.0490   42.3500 C   0  0  0  0  0  0  0  0  0  0  0  0
   45.7050   33.4360   43.5530 N   0  0  0  0  0  0  0  0  0  0  0  0
   45.5460   34.0590   44.7400 C   0  0  0  0  0  0  0  0  0  0  0  0
   45.1980   35.3580   44.7550 N   0  0  0  0  0  0  0  0  0  0  0  0
   44.7300   37.0700   43.4770 H   0  0  0  0  0  0  0  0  0  0  0  0
   45.0400   35.8580   41.4280 H   0  0  0  0  0  0  0  0  0  0  0  0
   45.7390   33.3780   45.9750 N   0  0  0  0  0  0  0  0  0  0  0  0
   46.6410   32.3860   46.0080 C   0  0  0  0  0  0  0  0  0  0  0  0
   46.9340   31.6370   47.1320 C   0  0  0  0  0  0  0  0  0  0  0  0
   47.9440   30.5420   47.1260 C   0  0  0  0  0  0  0  0  0  0  0  0
   46.2060   31.9960   48.2570 C   0  0  0  0  0  0  0  0  0  0  0  0
   46.4200   31.3490   49.3390 O   0  0  0  0  0  0  0  0  0  0  0  0
   45.2990   32.9810   48.2580 N   0  0  0  0  0  0  0  0  0  0  0  0
   45.0750   33.6610   47.1190 C   0  0  0  0  0  0  0  0  0  0  0  0
   44.2290   34.6040   47.0550 O   0  0  0  0  0  0  0  0  0  0  0  0
   44.7720   33.2240   49.1200 H   0  0  0  0  0  0  0  0  0  0  0  0
   43.3670   32.9400   40.6880 N   0  0  0  0  0  0  0  0  0  0  0  0
   42.7540   33.9110   40.0100 C   0  0  0  0  0  0  0  0  0  0  0  0
   41.4390   34.2840   40.2400 C   0  0  0  0  0  0  0  0  0  0  0  0
   40.7170   33.6270   41.2170 C   0  0  0  0  0  0  0  0  0  0  0  0
   39.4970   33.9220   41.4800 O   0  0  0  0  0  0  0  0  0  0  0  0
   41.3330   32.6460   41.9030 N   0  0  0  0  0  0  0  0  0  0  0  0
   42.5950   32.3330   41.6360 C   0  0  0  0  0  0  0  0  0  0  0  0
   43.0890   31.3950   42.3370 O   0  0  0  0  0  0  0  0  0  0  0  0
   43.3480   34.4180   39.2410 H   0  0  0  0  0  0  0  0  0  0  0  0
   40.7850   32.1510   42.6390 H   0  0  0  0  0  0  0  0  0  0  0  0
   40.7810   35.3560   39.4830 C   0  0  0  0  0  0  0  0  0  0  0  0
   41.0360   35.2380   38.3970 H   0  0  0  0  0  0  0  0  0  0  0  0
   41.1100   36.3750   39.7940 H   0  0  0  0  0  0  0  0  0  0  0  0
   39.6830   35.2730   39.5630 H   0  0  0  0  0  0  0  0  0  0  0  0
  1 15  1  0  0  0  0
  2  6  1  0  0  0  0
  2  7  1  0  0  0  0
  2  1  1  0  0  0  0
  3  4  1  0  0  0  0
  3  2  1  0  0  0  0
  4  5  1  0  0  0  0
  5 31  1  0  0  0  0
  5 12  1  1  0  0  0
  5  1  1  0  0  0  0
  8  3  1  0  0  0  0
  9  3  1  0  0  0  0
 10  4  1  0  0  0  0
 11  4  1  0  0  0  0
 13 18  1  0  0  0  0
 14 13  2  0  0  0  0
 15 14  1  0  0  0  0
 15 16  2  0  0  0  0
 16 17  1  0  0  0  0
 17 18  2  0  0  0  0
 17 21  1  0  0  0  0
 19 13  1  0  0  0  0
 20 14  1  0  0  0  0
 21 22  1  0  0  0  0
 21 28  1  0  0  0  0
 22 23  2  0  0  0  0
 23 25  1  0  0  0  0
 24 23  1  0  0  0  0
 25 27  1  0  0  0  0
 25 26  2  0  0  0  0
 27 30  1  0  0  0  0
 28 27  1  0  0  0  0
 29 28  2  0  0  0  0
 31 37  1  0  0  0  0
 32 33  2  0  0  0  0
 32 31  1  0  0  0  0
 33 34  1  0  0  0  0
 34 35  2  0  0  0  0
 34 36  1  0  0  0  0
 36 40  1  0  0  0  0
 37 36  1  0  0  0  0
 37 38  2  0  0  0  0
 39 32  1  0  0  0  0
 41 44  1  0  0  0  0
 41 43  1  0  0  0  0
 41 33  1  0  0  0  0
 42 41  1  0  0  0  0
M  END
>  <minimizedAffinity>
-7.26401806

>  <minimizedRMSD>
1.25439036

$$$$
