
 OpenBabel03232521013D

 42 45  0  0  1  0  0  0  0  0999 V2000
   45.5910   32.8570   47.4170 C   0  0  0  0  0  0  0  0  0  0  0  0
   45.9880   32.5980   46.1420 C   0  0  0  0  0  0  0  0  0  0  0  0
   46.1040   31.2370   45.8370 C   0  0  0  0  0  0  0  0  0  0  0  0
   45.8450   30.2400   46.7210 N   0  0  0  0  0  0  0  0  0  0  0  0
   45.4420   30.5580   48.0100 C   0  0  0  0  0  0  0  0  0  0  0  0
   45.3260   31.8440   48.3230 N   0  0  0  0  0  0  0  0  0  0  0  0
   45.1730   29.5400   48.9530 N   0  0  0  0  0  0  0  0  0  0  0  0
   45.4740   33.8740   47.7610 H   0  0  0  0  0  0  0  0  0  0  0  0
   44.9000   28.5560   48.6870 H   0  0  0  0  0  0  0  0  0  0  0  0
   45.2420   29.7540   49.9640 H   0  0  0  0  0  0  0  0  0  0  0  0
   46.2080   33.5610   45.1190 C   0  0  2  0  0  0  0  0  0  0  0  0
   44.9990   34.6480   45.3910 C   0  0  0  0  0  0  0  0  0  0  0  0
   44.7390   35.5860   44.3370 C   0  0  0  0  0  0  0  0  0  0  0  0
   45.5110   35.5310   43.0920 C   0  0  1  0  0  0  0  0  0  0  0  0
   46.5710   34.5290   43.0060 C   0  0  0  0  0  0  0  0  0  0  0  0
   46.1430   33.2880   43.7540 C   0  0  0  0  0  0  0  0  0  0  0  0
   47.0250   34.2780   45.4360 H   0  0  0  0  0  0  0  0  0  0  0  0
   44.3430   34.7870   46.2410 H   0  0  0  0  0  0  0  0  0  0  0  0
   43.9720   36.3030   44.4710 H   0  0  0  0  0  0  0  0  0  0  0  0
   45.9340   36.5400   42.8930 H   0  0  0  0  0  0  0  0  0  0  0  0
   47.5860   34.8500   43.3560 H   0  0  0  0  0  0  0  0  0  0  0  0
   46.7310   34.3040   41.9100 H   0  0  0  0  0  0  0  0  0  0  0  0
   45.1810   32.9330   43.3270 H   0  0  0  0  0  0  0  0  0  0  0  0
   46.9930   32.6460   43.4000 H   0  0  0  0  0  0  0  0  0  0  0  0
   44.4720   35.2720   41.9600 C   0  0  0  0  0  0  0  0  0  0  0  0
   43.4240   34.4680   42.3740 F   0  0  0  0  0  0  0  0  0  0  0  0
   43.9170   36.5100   41.6490 F   0  0  0  0  0  0  0  0  0  0  0  0
   45.1200   34.8210   40.8250 F   0  0  0  0  0  0  0  0  0  0  0  0
   46.5580   30.5330   44.6520 C   0  0  0  0  0  0  0  0  0  0  0  0
   46.0350   29.9060   43.5690 C   0  0  0  0  0  0  0  0  0  0  0  0
   47.0920   29.3860   42.8090 C   0  0  0  0  0  0  0  0  0  0  0  0
   48.2000   29.7250   43.4680 N   0  0  0  0  0  0  0  0  0  0  0  0
   47.9120   30.4010   44.5550 N   0  0  0  0  0  0  0  0  0  0  0  0
   44.9630   29.9030   43.4670 H   0  0  0  0  0  0  0  0  0  0  0  0
   46.8970   28.8460   41.9030 H   0  0  0  0  0  0  0  0  0  0  0  0
   51.9390   32.0820   43.5950 H   0  0  0  0  0  0  0  0  0  0  0  0
   51.7510   31.3820   42.8470 N   0  0  0  0  0  0  0  0  0  0  0  0
   51.8720   30.0560   43.4560 C   0  0  0  0  0  2  0  0  0  0  0  0
   50.5500   29.6990   44.0760 C   0  0  0  0  0  2  0  0  0  0  0  0
   49.5410   29.3590   42.9870 C   0  0  0  0  0  3  0  0  0  0  0  0
   49.8720   30.2570   41.8170 C   0  0  0  0  0  2  0  0  0  0  0  0
   50.4340   31.5850   42.3050 C   0  0  0  0  0  2  0  0  0  0  0  0
  1  8  1  0  0  0  0
  1  6  1  0  0  0  0
  2  1  2  0  0  0  0
  3  2  1  0  0  0  0
  3  4  2  0  0  0  0
  4  5  1  0  0  0  0
  5  6  2  0  0  0  0
  5  7  1  0  0  0  0
  7 10  1  0  0  0  0
  9  7  1  0  0  0  0
 11 12  1  0  0  0  0
 11 17  1  1  0  0  0
 11  2  1  0  0  0  0
 12 18  1  0  0  0  0
 13 19  1  0  0  0  0
 13 12  2  0  0  0  0
 14 20  1  6  0  0  0
 14 13  1  0  0  0  0
 15 14  1  0  0  0  0
 15 21  1  0  0  0  0
 15 16  1  0  0  0  0
 16 11  1  0  0  0  0
 22 15  1  0  0  0  0
 23 16  1  0  0  0  0
 24 16  1  0  0  0  0
 25 26  1  0  0  0  0
 25 14  1  0  0  0  0
 27 25  1  0  0  0  0
 28 25  1  0  0  0  0
 29  3  1  0  0  0  0
 30 29  1  0  0  0  0
 31 32  1  0  0  0  0
 31 30  2  0  0  0  0
 32 33  1  0  0  0  0
 33 29  2  0  0  0  0
 34 30  1  0  0  0  0
 35 31  1  0  0  0  0
 37 38  1  0  0  0  0
 37 36  1  0  0  0  0
 38 39  1  0  0  0  0
 40 32  1  0  0  0  0
 40 39  1  0  0  0  0
 41 42  1  0  0  0  0
 41 40  1  0  0  0  0
 42 37  1  0  0  0  0
M  END
>  <minimizedAffinity>
-5.99604034

>  <minimizedRMSD>
0.450311899

$$$$
