
 OpenBabel03232521013D

 42 45  0  0  1  0  0  0  0  0999 V2000
   45.3450   32.8940   47.5280 C   0  0  0  0  0  0  0  0  0  0  0  0
   45.9210   32.6310   46.3250 C   0  0  0  0  0  0  0  0  0  0  0  0
   46.2040   31.2790   46.1000 C   0  0  0  0  0  0  0  0  0  0  0  0
   45.9330   30.2930   46.9920 N   0  0  0  0  0  0  0  0  0  0  0  0
   45.3430   30.6130   48.2060 C   0  0  0  0  0  0  0  0  0  0  0  0
   45.0660   31.8910   48.4420 N   0  0  0  0  0  0  0  0  0  0  0  0
   45.0560   29.6070   49.1570 N   0  0  0  0  0  0  0  0  0  0  0  0
   45.0890   33.9040   47.8080 H   0  0  0  0  0  0  0  0  0  0  0  0
   44.9140   28.5910   48.9050 H   0  0  0  0  0  0  0  0  0  0  0  0
   44.9780   29.8610   50.1570 H   0  0  0  0  0  0  0  0  0  0  0  0
   46.1740   33.5750   45.2910 C   0  0  2  0  0  0  0  0  0  0  0  0
   44.9650   34.6730   45.5110 C   0  0  0  0  0  0  0  0  0  0  0  0
   44.7390   35.5940   44.4350 C   0  0  0  0  0  0  0  0  0  0  0  0
   45.5440   35.5130   43.2120 C   0  0  1  0  0  0  0  0  0  0  0  0
   46.6010   34.5050   43.1730 C   0  0  0  0  0  0  0  0  0  0  0  0
   46.1460   33.2800   43.9300 C   0  0  0  0  0  0  0  0  0  0  0  0
   46.9860   34.2930   45.6190 H   0  0  0  0  0  0  0  0  0  0  0  0
   44.2860   34.8300   46.3410 H   0  0  0  0  0  0  0  0  0  0  0  0
   43.9730   36.3170   44.5350 H   0  0  0  0  0  0  0  0  0  0  0  0
   45.9780   36.5170   43.0080 H   0  0  0  0  0  0  0  0  0  0  0  0
   47.6070   34.8270   43.5450 H   0  0  0  0  0  0  0  0  0  0  0  0
   46.7900   34.2600   42.0860 H   0  0  0  0  0  0  0  0  0  0  0  0
   45.1940   32.9220   43.4820 H   0  0  0  0  0  0  0  0  0  0  0  0
   47.0010   32.6270   43.6110 H   0  0  0  0  0  0  0  0  0  0  0  0
   44.5350   35.2410   42.0570 C   0  0  0  0  0  0  0  0  0  0  0  0
   43.4920   34.4170   42.4450 F   0  0  0  0  0  0  0  0  0  0  0  0
   43.9660   36.4700   41.7380 F   0  0  0  0  0  0  0  0  0  0  0  0
   45.2160   34.8050   40.9350 F   0  0  0  0  0  0  0  0  0  0  0  0
   46.8670   30.5840   45.0130 C   0  0  0  0  0  0  0  0  0  0  0  0
   46.5470   29.8930   43.8900 C   0  0  0  0  0  0  0  0  0  0  0  0
   47.7340   29.4370   43.3010 C   0  0  0  0  0  0  0  0  0  0  0  0
   48.7120   29.8740   44.0940 N   0  0  0  0  0  0  0  0  0  0  0  0
   48.2280   30.5520   45.1070 N   0  0  0  0  0  0  0  0  0  0  0  0
   45.5020   29.8070   43.6430 H   0  0  0  0  0  0  0  0  0  0  0  0
   47.7060   28.8620   42.3950 H   0  0  0  0  0  0  0  0  0  0  0  0
   50.7880   25.9780   43.8240 H   0  0  0  0  0  0  0  0  0  0  0  0
   51.2750   26.8460   44.1360 N   0  0  0  0  0  0  0  0  0  0  0  0
   51.4550   27.6890   42.9540 C   0  0  0  0  0  2  0  0  0  0  0  0
   50.2040   28.5020   42.7590 C   0  0  0  0  0  2  0  0  0  0  0  0
   50.1300   29.5990   43.8130 C   0  0  0  0  0  3  0  0  0  0  0  0
   50.7430   29.0160   45.0650 C   0  0  0  0  0  2  0  0  0  0  0  0
   50.4890   27.5160   45.1360 C   0  0  0  0  0  2  0  0  0  0  0  0
  1  8  1  0  0  0  0
  1  6  1  0  0  0  0
  2  1  2  0  0  0  0
  3  2  1  0  0  0  0
  3  4  2  0  0  0  0
  4  5  1  0  0  0  0
  5  6  2  0  0  0  0
  5  7  1  0  0  0  0
  7 10  1  0  0  0  0
  9  7  1  0  0  0  0
 11 12  1  0  0  0  0
 11 17  1  1  0  0  0
 11  2  1  0  0  0  0
 12 18  1  0  0  0  0
 13 19  1  0  0  0  0
 13 12  2  0  0  0  0
 14 20  1  6  0  0  0
 14 13  1  0  0  0  0
 15 14  1  0  0  0  0
 15 21  1  0  0  0  0
 15 16  1  0  0  0  0
 16 11  1  0  0  0  0
 22 15  1  0  0  0  0
 23 16  1  0  0  0  0
 24 16  1  0  0  0  0
 25 26  1  0  0  0  0
 25 14  1  0  0  0  0
 27 25  1  0  0  0  0
 28 25  1  0  0  0  0
 29 33  2  0  0  0  0
 29  3  1  0  0  0  0
 30 29  1  0  0  0  0
 31 30  2  0  0  0  0
 31 32  1  0  0  0  0
 32 33  1  0  0  0  0
 34 30  1  0  0  0  0
 35 31  1  0  0  0  0
 36 37  1  0  0  0  0
 37 42  1  0  0  0  0
 38 37  1  0  0  0  0
 39 38  1  0  0  0  0
 39 40  1  0  0  0  0
 40 32  1  0  0  0  0
 40 41  1  0  0  0  0
 41 42  1  0  0  0  0
M  END
>  <minimizedAffinity>
-5.61181211

>  <minimizedRMSD>
0.790235877

$$$$
