
 OpenBabel03232521013D

 42 45  0  0  1  0  0  0  0  0999 V2000
   45.3710   32.8740   47.5020 C   0  0  0  0  0  0  0  0  0  0  0  0
   45.9270   32.6270   46.2860 C   0  0  0  0  0  0  0  0  0  0  0  0
   46.1960   31.2760   46.0360 C   0  0  0  0  0  0  0  0  0  0  0  0
   45.9300   30.2770   46.9150 N   0  0  0  0  0  0  0  0  0  0  0  0
   45.3600   30.5820   48.1430 C   0  0  0  0  0  0  0  0  0  0  0  0
   45.0970   31.8580   48.4030 N   0  0  0  0  0  0  0  0  0  0  0  0
   45.0800   29.5630   49.0810 N   0  0  0  0  0  0  0  0  0  0  0  0
   45.1270   33.8820   47.8010 H   0  0  0  0  0  0  0  0  0  0  0  0
   44.9250   28.5530   48.8160 H   0  0  0  0  0  0  0  0  0  0  0  0
   45.0170   29.8020   50.0870 H   0  0  0  0  0  0  0  0  0  0  0  0
   46.1730   33.5850   45.2650 C   0  0  2  0  0  0  0  0  0  0  0  0
   44.9590   34.6750   45.5030 C   0  0  0  0  0  0  0  0  0  0  0  0
   44.7260   35.6090   44.4400 C   0  0  0  0  0  0  0  0  0  0  0  0
   45.5280   35.5480   43.2140 C   0  0  1  0  0  0  0  0  0  0  0  0
   46.5890   34.5450   43.1570 C   0  0  0  0  0  0  0  0  0  0  0  0
   46.1420   33.3080   43.9000 C   0  0  0  0  0  0  0  0  0  0  0  0
   46.9830   34.3030   45.5990 H   0  0  0  0  0  0  0  0  0  0  0  0
   44.2830   34.8170   46.3370 H   0  0  0  0  0  0  0  0  0  0  0  0
   43.9570   36.3270   44.5520 H   0  0  0  0  0  0  0  0  0  0  0  0
   45.9570   36.5570   43.0220 H   0  0  0  0  0  0  0  0  0  0  0  0
   47.5950   34.8660   43.5310 H   0  0  0  0  0  0  0  0  0  0  0  0
   46.7750   34.3160   42.0670 H   0  0  0  0  0  0  0  0  0  0  0  0
   45.1900   32.9510   43.4500 H   0  0  0  0  0  0  0  0  0  0  0  0
   46.9990   32.6630   43.5700 H   0  0  0  0  0  0  0  0  0  0  0  0
   44.5170   35.2860   42.0580 C   0  0  0  0  0  0  0  0  0  0  0  0
   43.4550   34.4890   42.4500 F   0  0  0  0  0  0  0  0  0  0  0  0
   43.9750   36.5240   41.7260 F   0  0  0  0  0  0  0  0  0  0  0  0
   45.1910   34.8250   40.9420 F   0  0  0  0  0  0  0  0  0  0  0  0
   46.8390   30.5940   44.9290 C   0  0  0  0  0  0  0  0  0  0  0  0
   46.4970   29.8870   43.8220 C   0  0  0  0  0  0  0  0  0  0  0  0
   47.6740   29.4610   43.1910 C   0  0  0  0  0  0  0  0  0  0  0  0
   48.6680   29.9320   43.9440 N   0  0  0  0  0  0  0  0  0  0  0  0
   48.2020   30.6020   44.9720 N   0  0  0  0  0  0  0  0  0  0  0  0
   45.4470   29.7690   43.6140 H   0  0  0  0  0  0  0  0  0  0  0  0
   47.6290   28.8810   42.2900 H   0  0  0  0  0  0  0  0  0  0  0  0
   50.8260   26.0940   43.5390 H   0  0  0  0  0  0  0  0  0  0  0  0
   51.3040   26.9670   43.8490 N   0  0  0  0  0  0  0  0  0  0  0  0
   51.4230   27.8350   42.6770 C   0  0  0  0  0  2  0  0  0  0  0  0
   50.1470   28.6190   42.5370 C   0  0  0  0  0  2  0  0  0  0  0  0
   50.0820   29.6970   43.6120 C   0  0  0  0  0  3  0  0  0  0  0  0
   50.7500   29.1080   44.8330 C   0  0  0  0  0  2  0  0  0  0  0  0
   50.5340   27.6010   44.8870 C   0  0  0  0  0  2  0  0  0  0  0  0
  1  8  1  0  0  0  0
  1  6  1  0  0  0  0
  2  1  2  0  0  0  0
  3  2  1  0  0  0  0
  3  4  2  0  0  0  0
  4  5  1  0  0  0  0
  5  6  2  0  0  0  0
  5  7  1  0  0  0  0
  7 10  1  0  0  0  0
  9  7  1  0  0  0  0
 11 12  1  0  0  0  0
 11 17  1  1  0  0  0
 11  2  1  0  0  0  0
 12 18  1  0  0  0  0
 13 19  1  0  0  0  0
 13 12  2  0  0  0  0
 14 20  1  6  0  0  0
 14 13  1  0  0  0  0
 15 14  1  0  0  0  0
 15 21  1  0  0  0  0
 15 16  1  0  0  0  0
 16 11  1  0  0  0  0
 22 15  1  0  0  0  0
 23 16  1  0  0  0  0
 24 16  1  0  0  0  0
 25 26  1  0  0  0  0
 25 14  1  0  0  0  0
 27 25  1  0  0  0  0
 28 25  1  0  0  0  0
 29 33  2  0  0  0  0
 29  3  1  0  0  0  0
 30 29  1  0  0  0  0
 31 30  2  0  0  0  0
 31 32  1  0  0  0  0
 32 33  1  0  0  0  0
 34 30  1  0  0  0  0
 35 31  1  0  0  0  0
 36 37  1  0  0  0  0
 37 42  1  0  0  0  0
 38 37  1  0  0  0  0
 39 38  1  0  0  0  0
 39 40  1  0  0  0  0
 40 32  1  0  0  0  0
 40 41  1  0  0  0  0
 41 42  1  0  0  0  0
M  END
>  <minimizedAffinity>
-5.61681843

>  <minimizedRMSD>
0.113594763

$$$$
