
 OpenBabel03232520523D

 36 38  0  0  1  0  0  0  0  0999 V2000
   46.7650   32.8870   45.0840 C   0  0  2  0  0  0  0  0  0  0  0  0
   45.5330   33.6500   45.5190 C   0  0  0  0  0  0  0  0  0  0  0  0
   45.1220   34.7590   44.6870 C   0  0  0  0  0  0  0  0  0  0  0  0
   45.8620   35.1150   43.4910 C   0  0  1  0  0  0  0  0  0  0  0  0
   47.0980   34.3570   43.2100 C   0  0  0  0  0  0  0  0  0  0  0  0
   46.9280   32.9190   43.6080 C   0  0  0  0  0  0  0  0  0  0  0  0
   47.6050   33.4780   45.5560 H   0  0  0  0  0  0  0  0  0  0  0  0
   44.8270   33.5870   46.3360 H   0  0  0  0  0  0  0  0  0  0  0  0
   44.2520   35.3540   44.9280 H   0  0  0  0  0  0  0  0  0  0  0  0
   46.1120   36.2020   43.5520 H   0  0  0  0  0  0  0  0  0  0  0  0
   47.9400   34.7970   43.8080 H   0  0  0  0  0  0  0  0  0  0  0  0
   47.3520   34.4530   42.1320 H   0  0  0  0  0  0  0  0  0  0  0  0
   47.8550   32.3940   43.3510 H   0  0  0  0  0  0  0  0  0  0  0  0
   46.0260   32.4920   43.1240 H   0  0  0  0  0  0  0  0  0  0  0  0
   45.7980   30.6570   45.3620 C   0  0  0  0  0  0  0  0  0  0  0  0
   46.7730   31.5760   45.7060 C   0  0  0  0  0  0  0  0  0  0  0  0
   47.7140   31.1770   46.6600 C   0  0  0  0  0  0  0  0  0  0  0  0
   47.6470   29.9380   47.2060 N   0  0  0  0  0  0  0  0  0  0  0  0
   46.6820   29.0560   46.8520 C   0  0  0  0  0  0  0  0  0  0  0  0
   45.7620   29.4220   45.9310 N   0  0  0  0  0  0  0  0  0  0  0  0
   44.9980   30.7970   44.6520 H   0  0  0  0  0  0  0  0  0  0  0  0
   48.4790   31.8480   46.9540 H   0  0  0  0  0  0  0  0  0  0  0  0
   46.7220   27.7900   47.4980 N   0  0  0  0  0  0  0  0  0  0  0  0
   47.9770   27.3300   47.7220 C   0  0  0  0  0  0  0  0  0  0  0  0
   48.1530   26.1100   48.3430 C   0  0  0  0  0  0  0  0  0  0  0  0
   49.5180   25.5640   48.6110 C   0  0  0  0  0  0  0  0  0  0  0  0
   47.0610   25.3380   48.7460 C   0  0  0  0  0  0  0  0  0  0  0  0
   47.1970   24.2250   49.3120 O   0  0  0  0  0  0  0  0  0  0  0  0
   45.8630   25.8720   48.4830 N   0  0  0  0  0  0  0  0  0  0  0  0
   45.6680   27.0630   47.8760 C   0  0  0  0  0  0  0  0  0  0  0  0
   44.5310   27.5390   47.6420 O   0  0  0  0  0  0  0  0  0  0  0  0
   45.0200   25.2980   48.7820 H   0  0  0  0  0  0  0  0  0  0  0  0
   44.9060   34.9990   42.2940 C   0  0  0  0  0  0  0  0  0  0  0  0
   43.9090   34.0770   42.4930 F   0  0  0  0  0  0  0  0  0  0  0  0
   44.2670   36.2370   42.1550 F   0  0  0  0  0  0  0  0  0  0  0  0
   45.6300   34.7770   41.1330 F   0  0  0  0  0  0  0  0  0  0  0  0
  1  2  1  0  0  0  0
  1  7  1  1  0  0  0
  1 16  1  0  0  0  0
  2  8  1  0  0  0  0
  3  9  1  0  0  0  0
  3  2  2  0  0  0  0
  4 10  1  1  0  0  0
  4  3  1  0  0  0  0
  5  4  1  0  0  0  0
  5  6  1  0  0  0  0
  5 11  1  0  0  0  0
  6  1  1  0  0  0  0
 12  5  1  0  0  0  0
 13  6  1  0  0  0  0
 14  6  1  0  0  0  0
 15 16  2  0  0  0  0
 15 20  1  0  0  0  0
 16 17  1  0  0  0  0
 17 22  1  0  0  0  0
 17 18  2  0  0  0  0
 19 18  1  0  0  0  0
 19 23  1  0  0  0  0
 20 19  2  0  0  0  0
 21 15  1  0  0  0  0
 23 24  1  0  0  0  0
 23 30  1  0  0  0  0
 24 25  2  0  0  0  0
 25 26  1  0  0  0  0
 25 27  1  0  0  0  0
 27 28  2  0  0  0  0
 29 27  1  0  0  0  0
 29 32  1  0  0  0  0
 30 29  1  0  0  0  0
 31 30  2  0  0  0  0
 33 34  1  0  0  0  0
 33  4  1  0  0  0  0
 35 33  1  0  0  0  0
 36 33  1  0  0  0  0
M  END
>  <minimizedAffinity>
-5.45765495

>  <minimizedRMSD>
2.55101657

$$$$
