
 OpenBabel03232521013D

 42 45  0  0  1  0  0  0  0  0999 V2000
   45.5350   32.8920   47.3530 C   0  0  0  0  0  0  0  0  0  0  0  0
   45.9850   32.6630   46.0900 C   0  0  0  0  0  0  0  0  0  0  0  0
   46.1860   31.3120   45.7840 C   0  0  0  0  0  0  0  0  0  0  0  0
   45.9570   30.2970   46.6550 N   0  0  0  0  0  0  0  0  0  0  0  0
   45.4970   30.5850   47.9330 C   0  0  0  0  0  0  0  0  0  0  0  0
   45.3000   31.8610   48.2470 N   0  0  0  0  0  0  0  0  0  0  0  0
   45.2570   29.5490   48.8630 N   0  0  0  0  0  0  0  0  0  0  0  0
   45.3510   33.8990   47.6970 H   0  0  0  0  0  0  0  0  0  0  0  0
   45.0480   28.5520   48.5840 H   0  0  0  0  0  0  0  0  0  0  0  0
   45.2830   29.7600   49.8770 H   0  0  0  0  0  0  0  0  0  0  0  0
   46.1810   33.6420   45.0780 C   0  0  2  0  0  0  0  0  0  0  0  0
   44.9700   34.7160   45.3850 C   0  0  0  0  0  0  0  0  0  0  0  0
   44.6860   35.6680   44.3500 C   0  0  0  0  0  0  0  0  0  0  0  0
   45.4380   35.6360   43.0910 C   0  0  1  0  0  0  0  0  0  0  0  0
   46.5040   34.6430   42.9740 C   0  0  0  0  0  0  0  0  0  0  0  0
   46.0970   33.3890   43.7100 C   0  0  0  0  0  0  0  0  0  0  0  0
   46.9980   34.3600   45.3920 H   0  0  0  0  0  0  0  0  0  0  0  0
   44.3260   34.8380   46.2480 H   0  0  0  0  0  0  0  0  0  0  0  0
   43.9170   36.3770   44.5060 H   0  0  0  0  0  0  0  0  0  0  0  0
   45.8510   36.6520   42.9010 H   0  0  0  0  0  0  0  0  0  0  0  0
   47.5220   34.9660   43.3120 H   0  0  0  0  0  0  0  0  0  0  0  0
   46.6480   34.4360   41.8720 H   0  0  0  0  0  0  0  0  0  0  0  0
   45.1300   33.0330   43.2930 H   0  0  0  0  0  0  0  0  0  0  0  0
   46.9450   32.7580   43.3340 H   0  0  0  0  0  0  0  0  0  0  0  0
   44.3830   35.3870   41.9730 C   0  0  0  0  0  0  0  0  0  0  0  0
   43.3050   34.6400   42.4150 F   0  0  0  0  0  0  0  0  0  0  0  0
   43.8780   36.6360   41.6270 F   0  0  0  0  0  0  0  0  0  0  0  0
   45.0050   34.8750   40.8490 F   0  0  0  0  0  0  0  0  0  0  0  0
   46.7150   30.6410   44.6110 C   0  0  0  0  0  0  0  0  0  0  0  0
   46.3440   29.6860   43.7210 C   0  0  0  0  0  0  0  0  0  0  0  0
   47.4030   29.4850   42.8260 C   0  0  0  0  0  0  0  0  0  0  0  0
   48.3600   30.3270   43.2150 N   0  0  0  0  0  0  0  0  0  0  0  0
   47.9790   31.0190   44.2630 N   0  0  0  0  0  0  0  0  0  0  0  0
   45.3620   29.2590   43.8330 H   0  0  0  0  0  0  0  0  0  0  0  0
   47.3190   28.7650   42.0350 H   0  0  0  0  0  0  0  0  0  0  0  0
   49.7820   33.4270   40.3990 H   0  0  0  0  0  0  0  0  0  0  0  0
   50.1070   32.4380   40.3450 N   0  0  0  0  0  0  0  0  0  0  0  0
   51.0070   32.2170   41.4780 C   0  0  0  0  0  2  0  0  0  0  0  0
   50.1770   31.8430   42.6740 C   0  0  0  0  0  2  0  0  0  0  0  0
   49.6530   30.4220   42.5190 C   0  0  0  0  0  3  0  0  0  0  0  0
   49.3950   30.2320   41.0420 C   0  0  0  0  0  2  0  0  0  0  0  0
   48.9780   31.5480   40.3980 C   0  0  0  0  0  2  0  0  0  0  0  0
  1  8  1  0  0  0  0
  1  6  1  0  0  0  0
  2  1  2  0  0  0  0
  3  2  1  0  0  0  0
  3  4  2  0  0  0  0
  4  5  1  0  0  0  0
  5  6  2  0  0  0  0
  5  7  1  0  0  0  0
  7 10  1  0  0  0  0
  9  7  1  0  0  0  0
 11 12  1  0  0  0  0
 11 17  1  1  0  0  0
 11  2  1  0  0  0  0
 12 18  1  0  0  0  0
 13 19  1  0  0  0  0
 13 12  2  0  0  0  0
 14 20  1  6  0  0  0
 14 13  1  0  0  0  0
 15 14  1  0  0  0  0
 15 21  1  0  0  0  0
 15 16  1  0  0  0  0
 16 11  1  0  0  0  0
 22 15  1  0  0  0  0
 23 16  1  0  0  0  0
 24 16  1  0  0  0  0
 25 26  1  0  0  0  0
 25 14  1  0  0  0  0
 27 25  1  0  0  0  0
 28 25  1  0  0  0  0
 29  3  1  0  0  0  0
 30 34  1  0  0  0  0
 30 29  1  0  0  0  0
 31 32  1  0  0  0  0
 31 30  2  0  0  0  0
 32 33  1  0  0  0  0
 33 29  2  0  0  0  0
 35 31  1  0  0  0  0
 37 42  1  0  0  0  0
 37 36  1  0  0  0  0
 37 38  1  0  0  0  0
 38 39  1  0  0  0  0
 40 39  1  0  0  0  0
 40 32  1  0  0  0  0
 41 40  1  0  0  0  0
 42 41  1  0  0  0  0
M  END
>  <minimizedAffinity>
-6.18868685

>  <minimizedRMSD>
1.31395435

$$$$
