
 OpenBabel03232521003D

 42 45  0  0  1  0  0  0  0  0999 V2000
   45.5040   33.0210   47.2600 C   0  0  0  0  0  0  0  0  0  0  0  0
   45.9500   32.7630   46.0020 C   0  0  0  0  0  0  0  0  0  0  0  0
   46.1800   31.4080   45.7340 C   0  0  0  0  0  0  0  0  0  0  0  0
   45.9790   30.4160   46.6380 N   0  0  0  0  0  0  0  0  0  0  0  0
   45.5210   30.7310   47.9090 C   0  0  0  0  0  0  0  0  0  0  0  0
   45.2970   32.0120   48.1860 N   0  0  0  0  0  0  0  0  0  0  0  0
   45.3110   29.7190   48.8720 N   0  0  0  0  0  0  0  0  0  0  0  0
   45.2990   34.0320   47.5750 H   0  0  0  0  0  0  0  0  0  0  0  0
   45.1220   28.7100   48.6250 H   0  0  0  0  0  0  0  0  0  0  0  0
   45.3380   29.9610   49.8790 H   0  0  0  0  0  0  0  0  0  0  0  0
   46.1180   33.7150   44.9590 C   0  0  2  0  0  0  0  0  0  0  0  0
   44.9240   34.8050   45.2790 C   0  0  0  0  0  0  0  0  0  0  0  0
   44.6110   35.7320   44.2300 C   0  0  0  0  0  0  0  0  0  0  0  0
   45.3210   35.6640   42.9490 C   0  0  1  0  0  0  0  0  0  0  0  0
   46.3760   34.6620   42.8200 C   0  0  0  0  0  0  0  0  0  0  0  0
   45.9860   33.4290   43.6010 C   0  0  0  0  0  0  0  0  0  0  0  0
   46.9500   34.4360   45.2280 H   0  0  0  0  0  0  0  0  0  0  0  0
   44.3110   34.9520   46.1600 H   0  0  0  0  0  0  0  0  0  0  0  0
   43.8520   36.4500   44.3950 H   0  0  0  0  0  0  0  0  0  0  0  0
   45.7320   36.6720   42.7190 H   0  0  0  0  0  0  0  0  0  0  0  0
   47.4060   34.9860   43.1160 H   0  0  0  0  0  0  0  0  0  0  0  0
   46.4810   34.4260   41.7200 H   0  0  0  0  0  0  0  0  0  0  0  0
   45.0040   33.0690   43.2260 H   0  0  0  0  0  0  0  0  0  0  0  0
   46.8180   32.7830   43.2130 H   0  0  0  0  0  0  0  0  0  0  0  0
   44.2270   35.3940   41.8730 C   0  0  0  0  0  0  0  0  0  0  0  0
   43.1540   34.6770   42.3730 F   0  0  0  0  0  0  0  0  0  0  0  0
   43.7270   36.6390   41.5030 F   0  0  0  0  0  0  0  0  0  0  0  0
   44.8060   34.8370   40.7470 F   0  0  0  0  0  0  0  0  0  0  0  0
   46.7160   30.7150   44.5790 C   0  0  0  0  0  0  0  0  0  0  0  0
   46.3480   29.7470   43.7010 C   0  0  0  0  0  0  0  0  0  0  0  0
   47.4150   29.5240   42.8200 C   0  0  0  0  0  0  0  0  0  0  0  0
   48.3740   30.3660   43.2060 N   0  0  0  0  0  0  0  0  0  0  0  0
   47.9870   31.0770   44.2380 N   0  0  0  0  0  0  0  0  0  0  0  0
   45.3620   29.3290   43.8100 H   0  0  0  0  0  0  0  0  0  0  0  0
   47.3340   28.7910   42.0410 H   0  0  0  0  0  0  0  0  0  0  0  0
   49.8240   33.3700   40.3040 H   0  0  0  0  0  0  0  0  0  0  0  0
   50.1510   32.3810   40.2880 N   0  0  0  0  0  0  0  0  0  0  0  0
   51.0380   32.2010   41.4380 C   0  0  0  0  0  2  0  0  0  0  0  0
   50.1940   31.8660   42.6360 C   0  0  0  0  0  2  0  0  0  0  0  0
   49.6750   30.4390   42.5220 C   0  0  0  0  0  3  0  0  0  0  0  0
   49.4350   30.1990   41.0500 C   0  0  0  0  0  2  0  0  0  0  0  0
   49.0230   31.4930   40.3570 C   0  0  0  0  0  2  0  0  0  0  0  0
  1  8  1  0  0  0  0
  1  6  1  0  0  0  0
  2  1  2  0  0  0  0
  3  2  1  0  0  0  0
  3  4  2  0  0  0  0
  4  5  1  0  0  0  0
  5  6  2  0  0  0  0
  5  7  1  0  0  0  0
  7 10  1  0  0  0  0
  9  7  1  0  0  0  0
 11 17  1  1  0  0  0
 11 12  1  0  0  0  0
 11  2  1  0  0  0  0
 12 18  1  0  0  0  0
 13 19  1  0  0  0  0
 13 12  2  0  0  0  0
 14 20  1  6  0  0  0
 14 13  1  0  0  0  0
 15 14  1  0  0  0  0
 15 21  1  0  0  0  0
 15 16  1  0  0  0  0
 16 11  1  0  0  0  0
 22 15  1  0  0  0  0
 23 16  1  0  0  0  0
 24 16  1  0  0  0  0
 25 26  1  0  0  0  0
 25 14  1  0  0  0  0
 27 25  1  0  0  0  0
 28 25  1  0  0  0  0
 29  3  1  0  0  0  0
 30 34  1  0  0  0  0
 30 29  1  0  0  0  0
 31 32  1  0  0  0  0
 31 30  2  0  0  0  0
 32 33  1  0  0  0  0
 33 29  2  0  0  0  0
 35 31  1  0  0  0  0
 37 36  1  0  0  0  0
 37 42  1  0  0  0  0
 37 38  1  0  0  0  0
 38 39  1  0  0  0  0
 40 39  1  0  0  0  0
 40 32  1  0  0  0  0
 41 40  1  0  0  0  0
 42 41  1  0  0  0  0
M  END
>  <minimizedAffinity>
-6.12631607

>  <minimizedRMSD>
0.873523235

$$$$
