
 OpenBabel03232517293D

 32 34  0  0  0  0  0  0  0  0999 V2000
   46.4990   34.4350   41.6210 N   0  0  0  0  0  0  0  0  0  0  0  0
   45.8690   33.8960   40.5480 C   0  0  0  0  0  0  0  0  0  0  0  0
   46.5280   33.6450   39.3630 C   0  0  0  0  0  0  0  0  0  0  0  0
   47.8620   33.9800   39.3520 C   0  0  0  0  0  0  0  0  0  0  0  0
   48.5210   33.7710   38.2880 O   0  0  0  0  0  0  0  0  0  0  0  0
   48.5220   34.5250   40.4210 N   0  0  0  0  0  0  0  0  0  0  0  0
   47.8030   34.7410   41.5480 C   0  0  0  0  0  0  0  0  0  0  0  0
   48.4650   35.2430   42.4920 O   0  0  0  0  0  0  0  0  0  0  0  0
   49.5380   34.7550   40.3440 H   0  0  0  0  0  0  0  0  0  0  0  0
   44.4840   33.6030   40.7130 N   0  0  0  0  0  0  0  0  0  0  0  0
   43.4660   34.4080   40.4290 C   0  0  0  0  0  0  0  0  0  0  0  0
   42.1530   33.9940   40.6390 C   0  0  0  0  0  0  0  0  0  0  0  0
   41.0470   34.9230   40.3090 C   0  0  0  0  0  0  0  0  0  0  0  0
   41.9190   32.7320   41.1470 C   0  0  0  0  0  0  0  0  0  0  0  0
   40.7080   32.3900   41.3260 O   0  0  0  0  0  0  0  0  0  0  0  0
   42.9770   31.9450   41.4240 N   0  0  0  0  0  0  0  0  0  0  0  0
   44.2280   32.3670   41.2130 C   0  0  0  0  0  0  0  0  0  0  0  0
   45.0810   31.4710   41.5390 O   0  0  0  0  0  0  0  0  0  0  0  0
   42.6940   31.0090   41.8040 H   0  0  0  0  0  0  0  0  0  0  0  0
   44.7150   36.2990   44.2480 C   0  0  0  0  0  0  0  0  0  0  0  0
   45.3060   35.9820   42.9950 C   0  0  0  0  0  0  0  0  0  0  0  0
   45.9200   34.7310   42.8720 C   0  0  0  0  0  0  0  0  0  0  0  0
   45.9160   33.8960   43.9480 N   0  0  0  0  0  0  0  0  0  0  0  0
   45.3450   34.2360   45.1170 C   0  0  0  0  0  0  0  0  0  0  0  0
   44.7460   35.4260   45.2750 N   0  0  0  0  0  0  0  0  0  0  0  0
   44.2280   37.2640   44.3850 H   0  0  0  0  0  0  0  0  0  0  0  0
   45.2300   36.7420   42.2380 H   0  0  0  0  0  0  0  0  0  0  0  0
   45.3870   33.5100   45.9250 H   0  0  0  0  0  0  0  0  0  0  0  0
   45.8270   33.0600   38.2110 C   0  0  0  0  0  0  0  0  0  0  0  0
   46.5700   32.6770   37.4840 H   0  0  0  0  0  0  0  0  0  0  0  0
   45.0720   32.3220   38.5140 H   0  0  0  0  0  0  0  0  0  0  0  0
   45.2850   33.8970   37.6910 H   0  0  0  0  0  0  0  0  0  0  0  0
  1 22  1  0  0  0  0
  2 10  1  0  0  0  0
  2  1  1  0  0  0  0
  3  2  2  0  0  0  0
  4  3  1  0  0  0  0
  4  6  1  0  0  0  0
  5  4  2  0  0  0  0
  6  7  1  0  0  0  0
  7  1  1  0  0  0  0
  7  8  2  0  0  0  0
  9  6  1  0  0  0  0
 10 17  1  0  0  0  0
 11 12  2  0  0  0  0
 11 10  1  0  0  0  0
 12 14  1  0  0  0  0
 13 12  1  0  0  0  0
 14 15  2  0  0  0  0
 14 16  1  0  0  0  0
 16 19  1  0  0  0  0
 17 16  1  0  0  0  0
 17 18  2  0  0  0  0
 20 26  1  0  0  0  0
 20 25  1  0  0  0  0
 21 20  2  0  0  0  0
 22 21  1  0  0  0  0
 22 23  2  0  0  0  0
 23 24  1  0  0  0  0
 24 25  2  0  0  0  0
 24 28  1  0  0  0  0
 27 21  1  0  0  0  0
 29 31  1  0  0  0  0
 29  3  1  0  0  0  0
 30 29  1  0  0  0  0
 32 29  1  0  0  0  0
M  END
>  <minimizedAffinity>
-6.00502253

>  <minimizedRMSD>
0.711498499

$$$$
