
 OpenBabel03232521003D

 42 45  0  0  1  0  0  0  0  0999 V2000
   45.5920   32.8580   47.4170 C   0  0  0  0  0  0  0  0  0  0  0  0
   45.9880   32.5980   46.1420 C   0  0  0  0  0  0  0  0  0  0  0  0
   46.1040   31.2370   45.8370 C   0  0  0  0  0  0  0  0  0  0  0  0
   45.8450   30.2400   46.7210 N   0  0  0  0  0  0  0  0  0  0  0  0
   45.4420   30.5580   48.0100 C   0  0  0  0  0  0  0  0  0  0  0  0
   45.3260   31.8450   48.3230 N   0  0  0  0  0  0  0  0  0  0  0  0
   45.1730   29.5410   48.9540 N   0  0  0  0  0  0  0  0  0  0  0  0
   45.4750   33.8740   47.7610 H   0  0  0  0  0  0  0  0  0  0  0  0
   44.8990   28.5570   48.6870 H   0  0  0  0  0  0  0  0  0  0  0  0
   45.2420   29.7550   49.9650 H   0  0  0  0  0  0  0  0  0  0  0  0
   46.2080   33.5610   45.1180 C   0  0  2  0  0  0  0  0  0  0  0  0
   44.9990   34.6470   45.3890 C   0  0  0  0  0  0  0  0  0  0  0  0
   44.7390   35.5840   44.3340 C   0  0  0  0  0  0  0  0  0  0  0  0
   45.5120   35.5290   43.0900 C   0  0  1  0  0  0  0  0  0  0  0  0
   46.5730   34.5280   43.0050 C   0  0  0  0  0  0  0  0  0  0  0  0
   46.1460   33.2880   43.7540 C   0  0  0  0  0  0  0  0  0  0  0  0
   47.0240   34.2790   45.4360 H   0  0  0  0  0  0  0  0  0  0  0  0
   44.3410   34.7850   46.2380 H   0  0  0  0  0  0  0  0  0  0  0  0
   43.9710   36.3000   44.4670 H   0  0  0  0  0  0  0  0  0  0  0  0
   45.9340   36.5390   42.8910 H   0  0  0  0  0  0  0  0  0  0  0  0
   47.5870   34.8500   43.3570 H   0  0  0  0  0  0  0  0  0  0  0  0
   46.7350   34.3030   41.9100 H   0  0  0  0  0  0  0  0  0  0  0  0
   45.1850   32.9310   43.3250 H   0  0  0  0  0  0  0  0  0  0  0  0
   46.9970   32.6460   43.4010 H   0  0  0  0  0  0  0  0  0  0  0  0
   44.4750   35.2690   41.9570 C   0  0  0  0  0  0  0  0  0  0  0  0
   43.4290   34.4610   42.3690 F   0  0  0  0  0  0  0  0  0  0  0  0
   43.9160   36.5050   41.6480 F   0  0  0  0  0  0  0  0  0  0  0  0
   45.1250   34.8210   40.8220 F   0  0  0  0  0  0  0  0  0  0  0  0
   46.5580   30.5330   44.6530 C   0  0  0  0  0  0  0  0  0  0  0  0
   46.0350   29.9050   43.5690 C   0  0  0  0  0  0  0  0  0  0  0  0
   47.0920   29.3850   42.8100 C   0  0  0  0  0  0  0  0  0  0  0  0
   48.2000   29.7240   43.4690 N   0  0  0  0  0  0  0  0  0  0  0  0
   47.9120   30.4000   44.5560 N   0  0  0  0  0  0  0  0  0  0  0  0
   44.9630   29.9030   43.4680 H   0  0  0  0  0  0  0  0  0  0  0  0
   46.8970   28.8450   41.9040 H   0  0  0  0  0  0  0  0  0  0  0  0
   51.9390   32.0820   43.5940 H   0  0  0  0  0  0  0  0  0  0  0  0
   51.7520   31.3800   42.8470 N   0  0  0  0  0  0  0  0  0  0  0  0
   51.8720   30.0560   43.4560 C   0  0  0  0  0  2  0  0  0  0  0  0
   50.5500   29.6990   44.0770 C   0  0  0  0  0  2  0  0  0  0  0  0
   49.5410   29.3580   42.9870 C   0  0  0  0  0  3  0  0  0  0  0  0
   49.8720   30.2550   41.8170 C   0  0  0  0  0  2  0  0  0  0  0  0
   50.4340   31.5840   42.3050 C   0  0  0  0  0  2  0  0  0  0  0  0
  1  8  1  0  0  0  0
  1  6  1  0  0  0  0
  2  1  2  0  0  0  0
  3  2  1  0  0  0  0
  3  4  2  0  0  0  0
  4  5  1  0  0  0  0
  5  6  2  0  0  0  0
  5  7  1  0  0  0  0
  7 10  1  0  0  0  0
  9  7  1  0  0  0  0
 11 12  1  0  0  0  0
 11 17  1  1  0  0  0
 11  2  1  0  0  0  0
 12 18  1  0  0  0  0
 13 19  1  0  0  0  0
 13 12  2  0  0  0  0
 14 20  1  6  0  0  0
 14 13  1  0  0  0  0
 15 14  1  0  0  0  0
 15 21  1  0  0  0  0
 15 16  1  0  0  0  0
 16 11  1  0  0  0  0
 22 15  1  0  0  0  0
 23 16  1  0  0  0  0
 24 16  1  0  0  0  0
 25 26  1  0  0  0  0
 25 14  1  0  0  0  0
 27 25  1  0  0  0  0
 28 25  1  0  0  0  0
 29  3  1  0  0  0  0
 30 29  1  0  0  0  0
 31 32  1  0  0  0  0
 31 30  2  0  0  0  0
 32 33  1  0  0  0  0
 33 29  2  0  0  0  0
 34 30  1  0  0  0  0
 35 31  1  0  0  0  0
 37 38  1  0  0  0  0
 37 36  1  0  0  0  0
 38 39  1  0  0  0  0
 40 32  1  0  0  0  0
 40 39  1  0  0  0  0
 41 42  1  0  0  0  0
 41 40  1  0  0  0  0
 42 37  1  0  0  0  0
M  END
>  <minimizedAffinity>
-5.99502134

>  <minimizedRMSD>
0.583960593

$$$$
