
 OpenBabel03232520453D

 42 45  0  0  0  0  0  0  0  0999 V2000
   45.8080   34.2250   41.2900 C   0  0  0  0  0  0  0  0  0  0  0  0
   47.1010   34.2990   40.8610 C   0  0  0  0  0  0  0  0  0  0  0  0
   47.5040   33.8470   39.6060 C   0  0  0  0  0  0  0  0  0  0  0  0
   46.5520   33.2940   38.7420 C   0  0  0  0  0  0  0  0  0  0  0  0
   45.2460   33.2150   39.1630 C   0  0  0  0  0  0  0  0  0  0  0  0
   44.8980   33.6820   40.4270 C   0  0  0  0  0  0  0  0  0  0  0  0
   47.8550   34.7240   41.5160 H   0  0  0  0  0  0  0  0  0  0  0  0
   48.5510   33.9460   39.3530 H   0  0  0  0  0  0  0  0  0  0  0  0
   46.8960   32.9520   37.7760 H   0  0  0  0  0  0  0  0  0  0  0  0
   44.5080   32.7860   38.4930 H   0  0  0  0  0  0  0  0  0  0  0  0
   44.6630   36.3260   44.1900 C   0  0  0  0  0  0  0  0  0  0  0  0
   44.9260   35.9640   42.8700 C   0  0  0  0  0  0  0  0  0  0  0  0
   45.4860   34.7220   42.6100 C   0  0  0  0  0  0  0  0  0  0  0  0
   45.7510   33.9230   43.6590 N   0  0  0  0  0  0  0  0  0  0  0  0
   45.4890   34.2890   44.9420 C   0  0  0  0  0  0  0  0  0  0  0  0
   44.9460   35.4920   45.1940 N   0  0  0  0  0  0  0  0  0  0  0  0
   44.2240   37.2930   44.4210 H   0  0  0  0  0  0  0  0  0  0  0  0
   44.7120   36.6080   42.0450 H   0  0  0  0  0  0  0  0  0  0  0  0
   45.7860   33.4080   46.0200 N   0  0  0  0  0  0  0  0  0  0  0  0
   46.7110   32.4450   45.9690 C   0  0  0  0  0  0  0  0  0  0  0  0
   46.9250   31.6390   47.0750 C   0  0  0  0  0  0  0  0  0  0  0  0
   47.9500   30.5650   47.0280 C   0  0  0  0  0  0  0  0  0  0  0  0
   46.2030   31.7940   48.2590 C   0  0  0  0  0  0  0  0  0  0  0  0
   46.3750   31.0800   49.2730 O   0  0  0  0  0  0  0  0  0  0  0  0
   45.2890   32.7700   48.2620 N   0  0  0  0  0  0  0  0  0  0  0  0
   45.0980   33.5370   47.1840 C   0  0  0  0  0  0  0  0  0  0  0  0
   44.2220   34.4360   47.2590 O   0  0  0  0  0  0  0  0  0  0  0  0
   44.7180   32.9330   49.1240 H   0  0  0  0  0  0  0  0  0  0  0  0
   43.5380   33.5850   40.8270 N   0  0  0  0  0  0  0  0  0  0  0  0
   42.8020   34.6290   40.3290 C   0  0  0  0  0  0  0  0  0  0  0  0
   41.4430   34.7350   40.5970 C   0  0  0  0  0  0  0  0  0  0  0  0
   40.8660   33.7480   41.3820 C   0  0  0  0  0  0  0  0  0  0  0  0
   39.6400   33.7830   41.6630 O   0  0  0  0  0  0  0  0  0  0  0  0
   41.6180   32.7450   41.8500 N   0  0  0  0  0  0  0  0  0  0  0  0
   42.9370   32.6570   41.5810 C   0  0  0  0  0  0  0  0  0  0  0  0
   43.7090   31.7590   41.9750 O   0  0  0  0  0  0  0  0  0  0  0  0
   43.1800   35.4240   39.7170 H   0  0  0  0  0  0  0  0  0  0  0  0
   41.2210   31.9840   42.4450 H   0  0  0  0  0  0  0  0  0  0  0  0
   40.6150   35.8550   40.0720 C   0  0  0  0  0  0  0  0  0  0  0  0
   39.5840   35.4950   39.9850 H   0  0  0  0  0  0  0  0  0  0  0  0
   40.9870   36.0010   39.0170 H   0  0  0  0  0  0  0  0  0  0  0  0
   40.7620   36.7920   40.6110 H   0  0  0  0  0  0  0  0  0  0  0  0
  1 13  1  0  0  0  0
  2  1  1  0  0  0  0
  2  7  1  0  0  0  0
  3  2  2  0  0  0  0
  4  5  2  0  0  0  0
  4  3  1  0  0  0  0
  5  6  1  0  0  0  0
  6 29  1  0  0  0  0
  6  1  2  0  0  0  0
  8  3  1  0  0  0  0
  9  4  1  0  0  0  0
 10  5  1  0  0  0  0
 11 17  1  0  0  0  0
 11 16  1  0  0  0  0
 12 11  2  0  0  0  0
 13 12  1  0  0  0  0
 13 14  2  0  0  0  0
 14 15  1  0  0  0  0
 15 16  2  0  0  0  0
 15 19  1  0  0  0  0
 18 12  1  0  0  0  0
 19 26  1  0  0  0  0
 20 19  1  0  0  0  0
 20 21  2  0  0  0  0
 21 23  1  0  0  0  0
 22 21  1  0  0  0  0
 23 25  1  0  0  0  0
 23 24  2  0  0  0  0
 25 28  1  0  0  0  0
 26 27  2  0  0  0  0
 26 25  1  0  0  0  0
 29 35  1  0  0  0  0
 30 31  2  0  0  0  0
 30 29  1  0  0  0  0
 31 32  1  0  0  0  0
 32 33  2  0  0  0  0
 32 34  1  0  0  0  0
 34 38  1  0  0  0  0
 35 34  1  0  0  0  0
 35 36  2  0  0  0  0
 37 30  1  0  0  0  0
 39 31  1  0  0  0  0
 39 42  1  0  0  0  0
 40 39  1  0  0  0  0
 41 39  1  0  0  0  0
M  END
>  <minimizedAffinity>
-8.38870811

>  <minimizedRMSD>
1.04703045

$$$$
