
 OpenBabel03232521013D

 42 45  0  0  1  0  0  0  0  0999 V2000
   45.3450   32.8930   47.5280 C   0  0  0  0  0  0  0  0  0  0  0  0
   45.9210   32.6300   46.3250 C   0  0  0  0  0  0  0  0  0  0  0  0
   46.2040   31.2780   46.1000 C   0  0  0  0  0  0  0  0  0  0  0  0
   45.9330   30.2920   46.9920 N   0  0  0  0  0  0  0  0  0  0  0  0
   45.3420   30.6120   48.2060 C   0  0  0  0  0  0  0  0  0  0  0  0
   45.0660   31.8900   48.4420 N   0  0  0  0  0  0  0  0  0  0  0  0
   45.0560   29.6060   49.1570 N   0  0  0  0  0  0  0  0  0  0  0  0
   45.0890   33.9030   47.8080 H   0  0  0  0  0  0  0  0  0  0  0  0
   44.9140   28.5900   48.9060 H   0  0  0  0  0  0  0  0  0  0  0  0
   44.9770   29.8600   50.1580 H   0  0  0  0  0  0  0  0  0  0  0  0
   46.1750   33.5740   45.2910 C   0  0  2  0  0  0  0  0  0  0  0  0
   44.9650   34.6720   45.5110 C   0  0  0  0  0  0  0  0  0  0  0  0
   44.7390   35.5930   44.4350 C   0  0  0  0  0  0  0  0  0  0  0  0
   45.5450   35.5120   43.2120 C   0  0  1  0  0  0  0  0  0  0  0  0
   46.6020   34.5040   43.1730 C   0  0  0  0  0  0  0  0  0  0  0  0
   46.1460   33.2780   43.9300 C   0  0  0  0  0  0  0  0  0  0  0  0
   46.9860   34.2920   45.6190 H   0  0  0  0  0  0  0  0  0  0  0  0
   44.2860   34.8290   46.3410 H   0  0  0  0  0  0  0  0  0  0  0  0
   43.9730   36.3160   44.5350 H   0  0  0  0  0  0  0  0  0  0  0  0
   45.9790   36.5160   43.0080 H   0  0  0  0  0  0  0  0  0  0  0  0
   47.6080   34.8250   43.5460 H   0  0  0  0  0  0  0  0  0  0  0  0
   46.7910   34.2590   42.0860 H   0  0  0  0  0  0  0  0  0  0  0  0
   45.1940   32.9210   43.4830 H   0  0  0  0  0  0  0  0  0  0  0  0
   47.0020   32.6260   43.6110 H   0  0  0  0  0  0  0  0  0  0  0  0
   44.5360   35.2400   42.0570 C   0  0  0  0  0  0  0  0  0  0  0  0
   43.4950   34.4140   42.4440 F   0  0  0  0  0  0  0  0  0  0  0  0
   43.9650   36.4680   41.7390 F   0  0  0  0  0  0  0  0  0  0  0  0
   45.2170   34.8060   40.9340 F   0  0  0  0  0  0  0  0  0  0  0  0
   46.8670   30.5830   45.0140 C   0  0  0  0  0  0  0  0  0  0  0  0
   46.5470   29.8910   43.8910 C   0  0  0  0  0  0  0  0  0  0  0  0
   47.7340   29.4350   43.3020 C   0  0  0  0  0  0  0  0  0  0  0  0
   48.7120   29.8740   44.0940 N   0  0  0  0  0  0  0  0  0  0  0  0
   48.2280   30.5510   45.1080 N   0  0  0  0  0  0  0  0  0  0  0  0
   45.5030   29.8050   43.6440 H   0  0  0  0  0  0  0  0  0  0  0  0
   47.7070   28.8610   42.3960 H   0  0  0  0  0  0  0  0  0  0  0  0
   50.7910   25.9790   43.8270 H   0  0  0  0  0  0  0  0  0  0  0  0
   51.2770   26.8460   44.1370 N   0  0  0  0  0  0  0  0  0  0  0  0
   51.4550   27.6890   42.9550 C   0  0  0  0  0  2  0  0  0  0  0  0
   50.2050   28.5010   42.7600 C   0  0  0  0  0  2  0  0  0  0  0  0
   50.1310   29.5990   43.8130 C   0  0  0  0  0  3  0  0  0  0  0  0
   50.7440   29.0160   45.0660 C   0  0  0  0  0  2  0  0  0  0  0  0
   50.4900   27.5170   45.1380 C   0  0  0  0  0  2  0  0  0  0  0  0
  1  8  1  0  0  0  0
  1  6  1  0  0  0  0
  2  1  2  0  0  0  0
  3  2  1  0  0  0  0
  3  4  2  0  0  0  0
  4  5  1  0  0  0  0
  5  6  2  0  0  0  0
  5  7  1  0  0  0  0
  7 10  1  0  0  0  0
  9  7  1  0  0  0  0
 11 12  1  0  0  0  0
 11 17  1  1  0  0  0
 11  2  1  0  0  0  0
 12 18  1  0  0  0  0
 13 19  1  0  0  0  0
 13 12  2  0  0  0  0
 14 20  1  6  0  0  0
 14 13  1  0  0  0  0
 15 14  1  0  0  0  0
 15 21  1  0  0  0  0
 15 16  1  0  0  0  0
 16 11  1  0  0  0  0
 22 15  1  0  0  0  0
 23 16  1  0  0  0  0
 24 16  1  0  0  0  0
 25 26  1  0  0  0  0
 25 14  1  0  0  0  0
 27 25  1  0  0  0  0
 28 25  1  0  0  0  0
 29 33  2  0  0  0  0
 29  3  1  0  0  0  0
 30 29  1  0  0  0  0
 31 30  2  0  0  0  0
 31 32  1  0  0  0  0
 32 33  1  0  0  0  0
 34 30  1  0  0  0  0
 35 31  1  0  0  0  0
 36 37  1  0  0  0  0
 37 42  1  0  0  0  0
 38 37  1  0  0  0  0
 39 38  1  0  0  0  0
 39 40  1  0  0  0  0
 40 32  1  0  0  0  0
 40 41  1  0  0  0  0
 41 42  1  0  0  0  0
M  END
>  <minimizedAffinity>
-5.61235428

>  <minimizedRMSD>
0.978343308

$$$$
