REMARK  Name = 
REMARK  4 active torsions:
REMARK  status: ('A' for Active; 'I' for Inactive)
REMARK    1  A    between atoms: C_1  and  C_8
REMARK    2  A    between atoms: C_4  and  C_19
REMARK    3  A    between atoms: C_9  and  C_14
REMARK    4  A    between atoms: N_17  and  C_36
REMARK                            x       y       z     vdW  Elec       q    Type
REMARK                         _______ _______ _______ _____ _____    ______ ____
ROOT
ATOM      1  C   UNL     1      45.372  32.871  47.521  0.00  0.00    +0.000 A 
ATOM      2  C   UNL     1      45.897  32.630  46.299  0.00  0.00    +0.000 A 
ATOM      3  C   UNL     1      46.148  31.285  46.028  0.00  0.00    +0.000 A 
ATOM      4  N   UNL     1      45.890  30.287  46.911  0.00  0.00    +0.000 NA
ATOM      5  C   UNL     1      45.356  30.602  48.143  0.00  0.00    +0.000 A 
ATOM      6  N   UNL     1      45.109  31.870  48.419  0.00  0.00    +0.000 NA
ATOM      7  N   UNL     1      45.150  29.567  49.103  0.00  0.00    +0.000 N 
ATOM      8  H   UNL     1      45.142  33.876  47.837  0.00  0.00    +0.000 HD
ATOM      9  H   UNL     1      45.820  29.797  49.887  0.00  0.00    +0.000 HD
ATOM     10  H   UNL     1      44.513  28.751  49.102  0.00  0.00    +0.000 HD
ENDROOT
BRANCH   2  11
ATOM     11  C   UNL     1      46.152  33.591  45.279  0.00  0.00    +0.000 C 
ATOM     12  C   UNL     1      44.922  34.664  45.496  0.00  0.00    +0.000 C 
ATOM     13  C   UNL     1      44.690  35.599  44.432  0.00  0.00    +0.000 C 
ATOM     14  C   UNL     1      45.508  35.549  43.217  0.00  0.00    +0.000 C 
ATOM     15  C   UNL     1      46.591  34.571  43.183  0.00  0.00    +0.000 C 
ATOM     16  C   UNL     1      46.156  33.321  43.913  0.00  0.00    +0.000 C 
ATOM     17  H   UNL     1      46.911  34.349  45.638  0.00  0.00    +0.000 HD
ATOM     18  H   UNL     1      44.227  34.802  46.313  0.00  0.00    +0.000 HD
ATOM     19  H   UNL     1      43.897  36.315  44.542  0.00  0.00    +0.000 HD
ATOM     20  H   UNL     1      45.910  36.568  43.037  0.00  0.00    +0.000 HD
ATOM     21  H   UNL     1      46.910  34.388  42.133  0.00  0.00    +0.000 HD
ATOM     22  H   UNL     1      47.462  34.980  43.772  0.00  0.00    +0.000 HD
ATOM     23  H   UNL     1      45.224  32.989  43.411  0.00  0.00    +0.000 HD
ATOM     24  H   UNL     1      47.028  32.692  43.597  0.00  0.00    +0.000 HD
BRANCH  14  25
ATOM     25  C   UNL     1      44.518  35.268  42.049  0.00  0.00    +0.000 C 
ATOM     26  F   UNL     1      43.463  34.454  42.427  0.00  0.00    +0.000 F 
ATOM     27  F   UNL     1      43.963  36.499  41.706  0.00  0.00    +0.000 F 
ATOM     28  F   UNL     1      45.221  34.820  40.947  0.00  0.00    +0.000 F 
ENDBRANCH  14  25
ENDBRANCH   2  11
BRANCH   3  29
ATOM     29  C   UNL     1      46.751  30.596  44.895  0.00  0.00    +0.000 A 
ATOM     30  C   UNL     1      46.358  29.920  43.785  0.00  0.00    +0.000 A 
ATOM     31  C   UNL     1      47.511  29.467  43.130  0.00  0.00    +0.000 A 
ATOM     32  N   UNL     1      48.539  29.889  43.870  0.00  0.00    +0.000 N 
ATOM     33  N   UNL     1      48.112  30.557  44.915  0.00  0.00    +0.000 NA
ATOM     34  H   UNL     1      45.297  29.845  43.600  0.00  0.00    +0.000 HD
ATOM     35  H   UNL     1      47.426  28.900  42.215  0.00  0.00    +0.000 HD
BRANCH  32  36
ATOM     36  C   UNL     1      49.932  29.610  43.510  0.00  0.00    +0.000 C 
ATOM     37  H   UNL     1      50.442  30.552  43.159  0.00  0.00    +0.000 HD
ENDBRANCH  32  36
ENDBRANCH   3  29
TORSDOF 4
