
 OpenBabel03232520313D

 42 45  0  0  1  0  0  0  0  0999 V2000
   46.9330   34.5050   41.3050 C   0  0  0  0  0  0  0  0  0  0  0  0
   48.2030   34.9420   40.9410 C   0  0  0  0  0  0  0  0  0  0  0  0
   48.4620   34.6410   39.6710 N   0  0  0  0  0  0  0  0  0  0  0  0
   47.3730   34.0110   39.1980 C   0  0  0  0  0  0  0  0  0  0  0  0
   47.1130   33.4820   37.9270 C   0  0  0  0  0  0  0  0  0  0  0  0
   45.9100   32.8810   37.6940 C   0  0  0  0  0  0  0  0  0  0  0  0
   44.9100   32.7490   38.6310 C   0  0  0  0  0  0  0  0  0  0  0  0
   45.2120   33.2850   39.8720 C   0  0  0  0  0  0  0  0  0  0  0  0
   46.3920   33.9020   40.1800 C   0  0  0  0  0  0  0  0  0  0  0  0
   49.3170   34.8230   39.0830 H   0  0  0  0  0  0  0  0  0  0  0  0
   47.8530   33.5460   37.1290 H   0  0  0  0  0  0  0  0  0  0  0  0
   45.7430   32.4830   36.6970 H   0  0  0  0  0  0  0  0  0  0  0  0
   43.9660   32.2660   38.4130 H   0  0  0  0  0  0  0  0  0  0  0  0
   44.4630   33.2140   40.6550 H   0  0  0  0  0  0  0  0  0  0  0  0
   44.7930   35.8450   44.0430 C   0  0  0  0  0  0  0  0  0  0  0  0
   45.4300   35.7280   42.7830 C   0  0  0  0  0  0  0  0  0  0  0  0
   46.2750   34.6370   42.5900 C   0  0  0  0  0  0  0  0  0  0  0  0
   46.4560   33.7330   43.6020 N   0  0  0  0  0  0  0  0  0  0  0  0
   45.8130   33.9030   44.7920 C   0  0  0  0  0  0  0  0  0  0  0  0
   44.9900   34.9440   45.0160 N   0  0  0  0  0  0  0  0  0  0  0  0
   44.1380   36.6970   44.1850 H   0  0  0  0  0  0  0  0  0  0  0  0
   45.2770   36.4420   42.0080 H   0  0  0  0  0  0  0  0  0  0  0  0
   46.0100   33.1380   45.5490 H   0  0  0  0  0  0  0  0  0  0  0  0
   49.1250   35.6470   41.8680 C   0  0  0  0  0  0  0  0  0  0  0  0
   49.7250   36.4350   41.3360 H   0  0  0  0  0  0  0  0  0  0  0  0
   48.5170   36.2070   42.6310 H   0  0  0  0  0  0  0  0  0  0  0  0
   49.9900   34.6840   42.6270 C   0  0  0  0  0  0  0  0  0  0  0  0
   49.6370   34.5040   43.6700 H   0  0  0  0  0  0  0  0  0  0  0  0
   50.9850   35.1790   42.7350 H   0  0  0  0  0  0  0  0  0  0  0  0
   50.2580   33.3870   41.9090 C   0  0  1  0  0  0  0  0  0  0  0  0
   51.0410   32.2930   42.4730 C   0  0  0  0  0  0  0  0  0  0  0  0
   49.5560   32.1790   42.5530 C   0  0  2  0  0  0  0  0  0  0  0  0
   50.1810   33.4070   40.7890 H   0  0  0  0  0  0  0  0  0  0  0  0
   51.5790   31.6120   41.7940 H   0  0  0  0  0  0  0  0  0  0  0  0
   51.6290   32.5150   43.3860 H   0  0  0  0  0  0  0  0  0  0  0  0
   49.1600   32.2880   43.5850 H   0  0  0  0  0  0  0  0  0  0  0  0
   48.9690   31.2410   41.7290 O   0  0  0  0  0  0  0  0  0  0  0  0
   47.9060   30.5050   42.2720 C   0  0  0  0  0  0  0  0  0  0  0  0
   46.5420   30.9180   42.3100 N   0  0  0  0  0  0  0  0  0  0  0  0
   48.0720   29.3540   42.8030 O   0  0  0  0  0  0  0  0  0  0  0  0
   45.7580   30.3270   41.9590 H   0  0  0  0  0  0  0  0  0  0  0  0
   46.4470   31.8750   42.7270 H   0  0  0  0  0  0  0  0  0  0  0  0
  1 17  1  0  0  0  0
  2  1  2  0  0  0  0
  2 24  1  0  0  0  0
  3  2  1  0  0  0  0
  4  3  1  0  0  0  0
  4  9  1  0  0  0  0
  5  4  2  0  0  0  0
  6  5  1  0  0  0  0
  6  7  2  0  0  0  0
  7  8  1  0  0  0  0
  8  9  2  0  0  0  0
  8 14  1  0  0  0  0
  9  1  1  0  0  0  0
 10  3  1  0  0  0  0
 11  5  1  0  0  0  0
 12  6  1  0  0  0  0
 13  7  1  0  0  0  0
 15 21  1  0  0  0  0
 15 20  1  0  0  0  0
 16 15  2  0  0  0  0
 17 16  1  0  0  0  0
 17 18  2  0  0  0  0
 18 19  1  0  0  0  0
 19 20  2  0  0  0  0
 19 23  1  0  0  0  0
 22 16  1  0  0  0  0
 24 27  1  0  0  0  0
 24 26  1  0  0  0  0
 25 24  1  0  0  0  0
 27 29  1  0  0  0  0
 27 28  1  0  0  0  0
 30 33  1  6  0  0  0
 30 31  1  0  0  0  0
 30 32  1  0  0  0  0
 30 27  1  0  0  0  0
 31 32  1  0  0  0  0
 31 35  1  0  0  0  0
 32 36  1  1  0  0  0
 34 31  1  0  0  0  0
 37 38  1  0  0  0  0
 37 32  1  0  0  0  0
 38 39  1  0  0  0  0
 38 40  2  0  0  0  0
 39 42  1  0  0  0  0
 41 39  1  0  0  0  0
M  END
>  <minimizedAffinity>
-5.39961481

>  <minimizedRMSD>
0.0657884851

$$$$
