
 OpenBabel03232519223D

 37 39  0  0  1  0  0  0  0  0999 V2000
   47.0580   30.8060   47.5110 N   0  0  0  0  0  0  0  0  0  0  0  0
   47.0870   31.1540   48.9290 C   0  0  0  0  0  0  0  0  0  0  0  0
   45.9290   32.1100   49.0310 C   0  0  0  0  0  0  0  0  0  0  0  0
   44.8630   31.4630   48.1960 C   0  0  0  0  0  0  0  0  0  0  0  0
   45.7080   30.7300   47.1390 C   0  0  2  0  0  0  0  0  0  0  0  0
   47.6350   29.9730   47.3250 H   0  0  0  0  0  0  0  0  0  0  0  0
   46.8010   30.2520   49.5040 H   0  0  0  0  0  0  0  0  0  0  0  0
   48.0520   31.5860   49.2250 H   0  0  0  0  0  0  0  0  0  0  0  0
   45.6220   32.3000   50.0630 H   0  0  0  0  0  0  0  0  0  0  0  0
   46.2170   33.0780   48.5710 H   0  0  0  0  0  0  0  0  0  0  0  0
   44.2780   30.8030   48.8260 H   0  0  0  0  0  0  0  0  0  0  0  0
   44.2400   32.2440   47.7130 H   0  0  0  0  0  0  0  0  0  0  0  0
   45.1440   29.3530   47.1120 C   0  0  0  0  0  0  0  0  0  0  0  0
   45.1870   28.1890   47.8660 C   0  0  0  0  0  0  0  0  0  0  0  0
   44.4130   27.2590   47.2620 C   0  0  0  0  0  0  0  0  0  0  0  0
   43.8910   27.8320   46.1430 N   0  0  0  0  0  0  0  0  0  0  0  0
   44.3330   29.0910   46.0560 N   0  0  0  0  0  0  0  0  0  0  0  0
   45.8070   28.2500   48.7550 H   0  0  0  0  0  0  0  0  0  0  0  0
   44.3130   26.2720   47.6970 H   0  0  0  0  0  0  0  0  0  0  0  0
   43.2530   27.3000   45.5070 H   0  0  0  0  0  0  0  0  0  0  0  0
   45.5250   31.1900   45.8580 O   0  0  0  0  0  0  0  0  0  0  0  0
   46.3550   32.1570   45.1920 C   0  0  0  0  0  0  0  0  0  0  0  0
   47.5090   31.8680   44.8950 O   0  0  0  0  0  0  0  0  0  0  0  0
   44.6290   35.3470   45.6500 C   0  0  0  0  0  0  0  0  0  0  0  0
   44.4770   35.8300   44.3550 C   0  0  0  0  0  0  0  0  0  0  0  0
   44.9690   35.0580   43.3190 C   0  0  0  0  0  0  0  0  0  0  0  0
   45.5770   33.8600   43.6290 N   0  0  0  0  0  0  0  0  0  0  0  0
   45.6910   33.4510   44.9290 C   0  0  0  0  0  0  0  0  0  0  0  0
   45.2210   34.1890   45.9190 N   0  0  0  0  0  0  0  0  0  0  0  0
   44.2520   35.9330   46.4840 H   0  0  0  0  0  0  0  0  0  0  0  0
   43.9940   36.7740   44.1410 H   0  0  0  0  0  0  0  0  0  0  0  0
   44.8760   35.4320   41.9870 O   0  0  0  0  0  0  0  0  0  0  0  0
   43.7080   35.2270   41.2680 C   0  0  0  0  0  0  0  0  0  0  0  0
   43.9880   34.7710   39.9300 N   0  0  0  0  0  0  0  0  0  0  0  0
   42.5190   35.3710   41.5920 O   0  0  0  0  0  0  0  0  0  0  0  0
   44.8200   34.2870   39.5610 H   0  0  0  0  0  0  0  0  0  0  0  0
   43.3400   34.8840   39.1300 H   0  0  0  0  0  0  0  0  0  0  0  0
  1  2  1  0  0  0  0
  2  3  1  0  0  0  0
  2  8  1  0  0  0  0
  2  7  1  0  0  0  0
  3  9  1  0  0  0  0
  4 11  1  0  0  0  0
  4  3  1  0  0  0  0
  5 21  1  6  0  0  0
  5  1  1  0  0  0  0
  5  4  1  0  0  0  0
  6  1  1  0  0  0  0
 10  3  1  0  0  0  0
 12  4  1  0  0  0  0
 13  5  1  0  0  0  0
 13 14  1  0  0  0  0
 14 18  1  0  0  0  0
 15 19  1  0  0  0  0
 15 14  2  0  0  0  0
 16 15  1  0  0  0  0
 17 16  1  0  0  0  0
 17 13  2  0  0  0  0
 20 16  1  0  0  0  0
 22 21  1  0  0  0  0
 23 22  2  0  0  0  0
 24 29  1  0  0  0  0
 24 30  1  0  0  0  0
 25 24  2  0  0  0  0
 26 27  2  0  0  0  0
 26 25  1  0  0  0  0
 27 28  1  0  0  0  0
 28 22  1  0  0  0  0
 28 29  2  0  0  0  0
 31 25  1  0  0  0  0
 32 26  1  0  0  0  0
 33 35  2  0  0  0  0
 33 32  1  0  0  0  0
 34 33  1  0  0  0  0
 36 34  1  0  0  0  0
 37 34  1  0  0  0  0
M  END
>  <minimizedAffinity>
-5.34557295

>  <minimizedRMSD>
0.52334094

$$$$
