
 OpenBabel03232516403D

 54 58  0  0  1  0  0  0  0  0999 V2000
   46.4110   33.4320   45.5070 C   0  0  0  0  0  0  0  0  0  0  0  0
   46.4080   32.8340   44.2730 C   0  0  0  0  0  0  0  0  0  0  0  0
   46.9880   31.5080   44.1440 C   0  0  0  0  0  0  0  0  0  0  0  0
   47.5000   30.9360   45.2340 N   0  0  0  0  0  0  0  0  0  0  0  0
   47.4820   31.5570   46.4160 C   0  0  0  0  0  0  0  0  0  0  0  0
   46.9460   32.7830   46.5500 N   0  0  0  0  0  0  0  0  0  0  0  0
   46.0300   34.3870   45.8030 H   0  0  0  0  0  0  0  0  0  0  0  0
   46.9650   31.0740   43.1660 H   0  0  0  0  0  0  0  0  0  0  0  0
   48.0830   30.8760   47.5900 C   0  0  0  0  0  0  0  0  0  0  0  0
   48.4130   31.6200   48.7150 C   0  0  0  0  0  0  0  0  0  0  0  0
   48.9770   30.9670   49.8120 C   0  0  0  0  0  0  0  0  0  0  0  0
   49.2020   29.6490   49.7930 N   0  0  0  0  0  0  0  0  0  0  0  0
   48.8720   28.9490   48.6860 C   0  0  0  0  0  0  0  0  0  0  0  0
   48.3210   29.5580   47.6030 N   0  0  0  0  0  0  0  0  0  0  0  0
   48.2250   32.6970   48.7180 H   0  0  0  0  0  0  0  0  0  0  0  0
   49.2440   31.5170   50.6980 H   0  0  0  0  0  0  0  0  0  0  0  0
   49.1180   27.5450   48.6820 N   0  0  0  0  0  0  0  0  0  0  0  0
   48.5670   26.6030   47.8960 C   0  0  0  0  0  0  0  0  0  0  0  0
   49.0680   25.3870   48.2090 N   0  0  0  0  0  0  0  0  0  0  0  0
   49.9640   25.5280   49.2150 C   0  0  0  0  0  0  0  0  0  0  0  0
   50.7880   24.6750   49.9520 C   0  0  0  0  0  0  0  0  0  0  0  0
   50.7600   23.4440   49.6810 O   0  0  0  0  0  0  0  0  0  0  0  0
   51.5830   25.2070   50.9240 N   0  0  0  0  0  0  0  0  0  0  0  0
   51.5550   26.5320   51.1530 C   0  0  0  0  0  0  0  0  0  0  0  0
   52.4040   27.0460   52.1800 N   0  0  0  0  0  0  0  0  0  0  0  0
   50.7700   27.3860   50.4590 N   0  0  0  0  0  0  0  0  0  0  0  0
   49.9640   26.8830   49.4790 C   0  0  0  0  0  0  0  0  0  0  0  0
   52.2020   24.5670   51.4760 H   0  0  0  0  0  0  0  0  0  0  0  0
   53.1860   26.4840   52.5740 H   0  0  0  0  0  0  0  0  0  0  0  0
   52.3100   27.9930   52.6050 H   0  0  0  0  0  0  0  0  0  0  0  0
   45.8590   33.5770   43.1390 C   0  0  2  0  0  0  0  0  0  0  0  0
   45.7080   35.0110   43.5200 C   0  0  0  0  0  0  0  0  0  0  0  0
   44.8040   35.7890   42.7290 C   0  0  0  0  0  0  0  0  0  0  0  0
   44.0820   35.2490   41.6130 C   0  0  0  0  0  0  0  0  0  0  0  0
   44.1970   33.8150   41.3770 C   0  0  0  0  0  0  0  0  0  0  0  0
   44.5510   33.0590   42.6120 C   0  0  0  0  0  0  0  0  0  0  0  0
   46.1220   35.6670   44.2730 H   0  0  0  0  0  0  0  0  0  0  0  0
   44.6480   36.8350   42.9520 H   0  0  0  0  0  0  0  0  0  0  0  0
   43.0330   35.6520   41.6430 H   0  0  0  0  0  0  0  0  0  0  0  0
   44.4930   35.7580   40.6870 H   0  0  0  0  0  0  0  0  0  0  0  0
   44.6910   33.4800   40.4420 H   0  0  0  0  0  0  0  0  0  0  0  0
   43.1440   33.4630   41.1770 H   0  0  0  0  0  0  0  0  0  0  0  0
   44.5560   31.9650   42.4820 H   0  0  0  0  0  0  0  0  0  0  0  0
   43.8020   33.2860   43.3720 H   0  0  0  0  0  0  0  0  0  0  0  0
   46.9430   33.5730   42.0500 C   0  0  0  0  0  0  0  0  0  0  0  0
   46.9880   33.4520   40.7840 O   0  0  0  0  0  0  0  0  0  0  0  0
   48.2820   33.7620   42.6300 N   0  0  0  0  0  0  0  0  0  0  0  0
   49.0390   34.8890   42.4100 C   0  0  0  0  0  0  0  0  0  0  0  0
   48.7900   35.9480   41.8810 N   0  0  0  0  0  0  0  0  0  0  0  0
   50.4180   35.0240   42.8380 N   0  0  0  0  0  0  0  0  0  0  0  0
   47.9870   36.3810   41.5160 H   0  0  0  0  0  0  0  0  0  0  0  0
   48.7390   33.0760   43.2590 H   0  0  0  0  0  0  0  0  0  0  0  0
   51.2180   34.6270   42.3060 H   0  0  0  0  0  0  0  0  0  0  0  0
   50.6530   35.5460   43.7270 H   0  0  0  0  0  0  0  0  0  0  0  0
  1  7  1  0  0  0  0
  1  6  1  0  0  0  0
  2  1  2  0  0  0  0
  3  2  1  0  0  0  0
  3  4  2  0  0  0  0
  4  5  1  0  0  0  0
  5  6  2  0  0  0  0
  5  9  1  0  0  0  0
  8  3  1  0  0  0  0
  9 14  2  0  0  0  0
  9 10  1  0  0  0  0
 10 15  1  0  0  0  0
 10 11  2  0  0  0  0
 11 16  1  0  0  0  0
 12 11  1  0  0  0  0
 13 12  2  0  0  0  0
 14 13  1  0  0  0  0
 17 13  1  0  0  0  0
 17 27  1  0  0  0  0
 18 19  2  0  0  0  0
 18 17  1  0  0  0  0
 19 20  1  0  0  0  0
 20 27  2  0  0  0  0
 20 21  1  0  0  0  0
 21 23  1  0  0  0  0
 22 21  2  0  0  0  0
 23 24  1  0  0  0  0
 23 28  1  0  0  0  0
 24 25  1  0  0  0  0
 25 29  1  0  0  0  0
 25 30  1  0  0  0  0
 26 24  2  0  0  0  0
 27 26  1  0  0  0  0
 31 45  1  6  0  0  0
 31 32  1  0  0  0  0
 31  2  1  0  0  0  0
 32 37  1  0  0  0  0
 33 38  1  0  0  0  0
 33 32  2  0  0  0  0
 34 39  1  0  0  0  0
 34 33  1  0  0  0  0
 35 34  1  0  0  0  0
 35 36  1  0  0  0  0
 36 31  1  0  0  0  0
 36 44  1  0  0  0  0
 40 34  1  0  0  0  0
 41 35  1  0  0  0  0
 42 35  1  0  0  0  0
 43 36  1  0  0  0  0
 45 47  1  0  0  0  0
 46 45  2  0  0  0  0
 47 52  1  0  0  0  0
 48 47  1  0  0  0  0
 48 50  1  0  0  0  0
 49 48  2  0  0  0  0
 50 54  1  0  0  0  0
 51 49  1  0  0  0  0
 53 50  1  0  0  0  0
M  END
>  <minimizedAffinity>
-7.35438967

>  <minimizedRMSD>
0.504481733

$$$$
