REMARK  Name = 
REMARK  4 active torsions:
REMARK  status: ('A' for Active; 'I' for Inactive)
REMARK    1  A    between atoms: C_1  and  C_8
REMARK    2  A    between atoms: C_4  and  C_19
REMARK    3  A    between atoms: C_9  and  C_14
REMARK    4  A    between atoms: N_17  and  C_36
REMARK                            x       y       z     vdW  Elec       q    Type
REMARK                         _______ _______ _______ _____ _____    ______ ____
ROOT
ATOM      1  C   UNL     1      45.392  32.884  47.528  0.00  0.00    +0.000 A 
ATOM      2  C   UNL     1      45.912  32.636  46.302  0.00  0.00    +0.000 A 
ATOM      3  C   UNL     1      46.151  31.286  46.029  0.00  0.00    +0.000 A 
ATOM      4  N   UNL     1      45.890  30.283  46.904  0.00  0.00    +0.000 NA
ATOM      5  C   UNL     1      45.358  30.595  48.146  0.00  0.00    +0.000 A 
ATOM      6  N   UNL     1      45.125  31.863  48.424  0.00  0.00    +0.000 NA
ATOM      7  N   UNL     1      45.106  29.564  49.094  0.00  0.00    +0.000 N 
ATOM      8  H   UNL     1      45.174  33.892  47.842  0.00  0.00    +0.000 HD
ATOM      9  H   UNL     1      45.921  29.678  49.737  0.00  0.00    +0.000 HD
ATOM     10  H   UNL     1      44.279  28.898  49.075  0.00  0.00    +0.000 HD
ENDROOT
BRANCH   2  11
ATOM     11  C   UNL     1      46.154  33.598  45.279  0.00  0.00    +0.000 C 
ATOM     12  C   UNL     1      44.918  34.663  45.498  0.00  0.00    +0.000 C 
ATOM     13  C   UNL     1      44.689  35.595  44.429  0.00  0.00    +0.000 C 
ATOM     14  C   UNL     1      45.508  35.548  43.217  0.00  0.00    +0.000 C 
ATOM     15  C   UNL     1      46.587  34.570  43.181  0.00  0.00    +0.000 C 
ATOM     16  C   UNL     1      46.154  33.321  43.914  0.00  0.00    +0.000 C 
ATOM     17  H   UNL     1      46.914  34.355  45.626  0.00  0.00    +0.000 HD
ATOM     18  H   UNL     1      44.224  34.793  46.318  0.00  0.00    +0.000 HD
ATOM     19  H   UNL     1      43.908  36.298  44.526  0.00  0.00    +0.000 HD
ATOM     20  H   UNL     1      45.914  36.567  43.028  0.00  0.00    +0.000 HD
ATOM     21  H   UNL     1      46.860  34.373  42.109  0.00  0.00    +0.000 HD
ATOM     22  H   UNL     1      47.502  34.948  43.683  0.00  0.00    +0.000 HD
ATOM     23  H   UNL     1      45.236  32.937  43.424  0.00  0.00    +0.000 HD
ATOM     24  H   UNL     1      47.028  32.695  43.596  0.00  0.00    +0.000 HD
BRANCH  14  25
ATOM     25  C   UNL     1      44.516  35.266  42.049  0.00  0.00    +0.000 C 
ATOM     26  F   UNL     1      43.461  34.454  42.427  0.00  0.00    +0.000 F 
ATOM     27  F   UNL     1      43.962  36.497  41.704  0.00  0.00    +0.000 F 
ATOM     28  F   UNL     1      45.213  34.814  40.946  0.00  0.00    +0.000 F 
ENDBRANCH  14  25
ENDBRANCH   2  11
BRANCH   3  29
ATOM     29  C   UNL     1      46.752  30.598  44.896  0.00  0.00    +0.000 A 
ATOM     30  C   UNL     1      46.360  29.920  43.788  0.00  0.00    +0.000 A 
ATOM     31  C   UNL     1      47.514  29.468  43.130  0.00  0.00    +0.000 A 
ATOM     32  N   UNL     1      48.540  29.892  43.869  0.00  0.00    +0.000 N 
ATOM     33  N   UNL     1      48.116  30.560  44.914  0.00  0.00    +0.000 NA
ATOM     34  H   UNL     1      45.305  29.841  43.599  0.00  0.00    +0.000 HD
ATOM     35  H   UNL     1      47.445  28.903  42.221  0.00  0.00    +0.000 HD
BRANCH  32  36
ATOM     36  C   UNL     1      49.946  29.625  43.523  0.00  0.00    +0.000 C 
ATOM     37  C   UNL     1      50.929  30.427  44.366  0.00  0.00    +0.000 C 
ATOM     38  C   UNL     1      50.786  28.970  44.639  0.00  0.00    +0.000 C 
ENDBRANCH  32  36
ENDBRANCH   3  29
TORSDOF 4
