
 OpenBabel03232521013D

 38 41  0  0  1  0  0  0  0  0999 V2000
   45.3640   32.8690   47.4910 C   0  0  0  0  0  0  0  0  0  0  0  0
   45.9210   32.6250   46.2800 C   0  0  0  0  0  0  0  0  0  0  0  0
   46.1970   31.2790   46.0240 C   0  0  0  0  0  0  0  0  0  0  0  0
   45.9360   30.2760   46.8990 N   0  0  0  0  0  0  0  0  0  0  0  0
   45.3650   30.5840   48.1250 C   0  0  0  0  0  0  0  0  0  0  0  0
   45.0970   31.8490   48.3870 N   0  0  0  0  0  0  0  0  0  0  0  0
   45.1120   29.5540   49.0730 N   0  0  0  0  0  0  0  0  0  0  0  0
   45.1150   33.8740   47.7920 H   0  0  0  0  0  0  0  0  0  0  0  0
   45.9080   29.6910   49.7360 H   0  0  0  0  0  0  0  0  0  0  0  0
   44.3010   28.8700   49.0380 H   0  0  0  0  0  0  0  0  0  0  0  0
   46.1670   33.5850   45.2570 C   0  0  2  0  0  0  0  0  0  0  0  0
   44.9570   34.6740   45.4970 C   0  0  0  0  0  0  0  0  0  0  0  0
   44.7310   35.6140   44.4350 C   0  0  0  0  0  0  0  0  0  0  0  0
   45.5310   35.5550   43.2110 C   0  0  1  0  0  0  0  0  0  0  0  0
   46.5890   34.5550   43.1560 C   0  0  0  0  0  0  0  0  0  0  0  0
   46.1420   33.3130   43.8910 C   0  0  0  0  0  0  0  0  0  0  0  0
   46.9480   34.3250   45.5950 H   0  0  0  0  0  0  0  0  0  0  0  0
   44.2780   34.8160   46.3280 H   0  0  0  0  0  0  0  0  0  0  0  0
   43.9660   36.3330   44.5450 H   0  0  0  0  0  0  0  0  0  0  0  0
   45.9550   36.5660   43.0190 H   0  0  0  0  0  0  0  0  0  0  0  0
   46.8420   34.3560   42.0790 H   0  0  0  0  0  0  0  0  0  0  0  0
   47.5190   34.9120   43.6450 H   0  0  0  0  0  0  0  0  0  0  0  0
   45.2090   32.9490   43.4140 H   0  0  0  0  0  0  0  0  0  0  0  0
   46.9980   32.6700   43.5580 H   0  0  0  0  0  0  0  0  0  0  0  0
   44.5170   35.2970   42.0570 C   0  0  0  0  0  0  0  0  0  0  0  0
   43.4480   34.5100   42.4490 F   0  0  0  0  0  0  0  0  0  0  0  0
   43.9870   36.5410   41.7200 F   0  0  0  0  0  0  0  0  0  0  0  0
   45.1870   34.8290   40.9440 F   0  0  0  0  0  0  0  0  0  0  0  0
   46.8420   30.5970   44.9110 C   0  0  0  0  0  0  0  0  0  0  0  0
   46.4950   29.8720   43.8180 C   0  0  0  0  0  0  0  0  0  0  0  0
   47.6770   29.4670   43.1780 C   0  0  0  0  0  0  0  0  0  0  0  0
   48.6730   29.9630   43.9130 N   0  0  0  0  0  0  0  0  0  0  0  0
   48.2060   30.6330   44.9390 N   0  0  0  0  0  0  0  0  0  0  0  0
   45.4470   29.7320   43.6250 H   0  0  0  0  0  0  0  0  0  0  0  0
   47.6450   28.8770   42.2830 H   0  0  0  0  0  0  0  0  0  0  0  0
   50.0940   29.7640   43.5820 C   0  0  0  0  0  3  0  0  0  0  0  0
   50.3410   29.6000   42.0880 C   0  0  0  0  0  2  0  0  0  0  0  0
   50.7360   30.8830   42.7350 C   0  0  0  0  0  2  0  0  0  0  0  0
  1  8  1  0  0  0  0
  1  6  1  0  0  0  0
  2  1  2  0  0  0  0
  3  2  1  0  0  0  0
  3  4  2  0  0  0  0
  4  5  1  0  0  0  0
  5  6  2  0  0  0  0
  5  7  1  0  0  0  0
  7  9  1  0  0  0  0
 10  7  1  0  0  0  0
 11 12  1  0  0  0  0
 11 17  1  1  0  0  0
 11  2  1  0  0  0  0
 12 18  1  0  0  0  0
 13 19  1  0  0  0  0
 13 12  2  0  0  0  0
 14 20  1  6  0  0  0
 14 13  1  0  0  0  0
 15 14  1  0  0  0  0
 15 22  1  0  0  0  0
 15 16  1  0  0  0  0
 16 11  1  0  0  0  0
 21 15  1  0  0  0  0
 23 16  1  0  0  0  0
 24 16  1  0  0  0  0
 25 26  1  0  0  0  0
 25 14  1  0  0  0  0
 27 25  1  0  0  0  0
 28 25  1  0  0  0  0
 29 33  2  0  0  0  0
 29  3  1  0  0  0  0
 30 29  1  0  0  0  0
 31 30  2  0  0  0  0
 31 32  1  0  0  0  0
 32 33  1  0  0  0  0
 34 30  1  0  0  0  0
 35 31  1  0  0  0  0
 36 32  1  0  0  0  0
 37 38  1  0  0  0  0
 37 36  1  0  0  0  0
 38 36  1  0  0  0  0
M  END
>  <minimizedAffinity>
-5.58666134

>  <minimizedRMSD>
0.22363621

$$$$
