
 OpenBabel03232521003D

 38 41  0  0  1  0  0  0  0  0999 V2000
   45.5640   32.8350   47.5100 C   0  0  0  0  0  0  0  0  0  0  0  0
   45.9650   32.5840   46.2410 C   0  0  0  0  0  0  0  0  0  0  0  0
   46.0760   31.2280   45.9190 C   0  0  0  0  0  0  0  0  0  0  0  0
   45.8070   30.2230   46.7880 N   0  0  0  0  0  0  0  0  0  0  0  0
   45.4000   30.5380   48.0760 C   0  0  0  0  0  0  0  0  0  0  0  0
   45.2890   31.8110   48.4010 N   0  0  0  0  0  0  0  0  0  0  0  0
   45.1440   29.5020   49.0170 N   0  0  0  0  0  0  0  0  0  0  0  0
   45.4500   33.8470   47.8640 H   0  0  0  0  0  0  0  0  0  0  0  0
   46.0130   29.5340   49.5950 H   0  0  0  0  0  0  0  0  0  0  0  0
   44.2680   28.9010   49.0490 H   0  0  0  0  0  0  0  0  0  0  0  0
   46.2000   33.5540   45.2240 C   0  0  2  0  0  0  0  0  0  0  0  0
   44.9820   34.6320   45.4780 C   0  0  0  0  0  0  0  0  0  0  0  0
   44.7450   35.5790   44.4240 C   0  0  0  0  0  0  0  0  0  0  0  0
   45.5410   35.5350   43.1960 C   0  0  1  0  0  0  0  0  0  0  0  0
   46.6070   34.5450   43.1300 C   0  0  0  0  0  0  0  0  0  0  0  0
   46.1720   33.2930   43.8570 C   0  0  0  0  0  0  0  0  0  0  0  0
   46.9760   34.2980   45.5660 H   0  0  0  0  0  0  0  0  0  0  0  0
   44.3050   34.7610   46.3120 H   0  0  0  0  0  0  0  0  0  0  0  0
   43.9750   36.2900   44.5430 H   0  0  0  0  0  0  0  0  0  0  0  0
   45.9560   36.5510   43.0110 H   0  0  0  0  0  0  0  0  0  0  0  0
   46.8570   34.3560   42.0510 H   0  0  0  0  0  0  0  0  0  0  0  0
   47.5350   34.9060   43.6190 H   0  0  0  0  0  0  0  0  0  0  0  0
   45.2400   32.9260   43.3800 H   0  0  0  0  0  0  0  0  0  0  0  0
   47.0320   32.6600   43.5160 H   0  0  0  0  0  0  0  0  0  0  0  0
   44.5240   35.2790   42.0440 C   0  0  0  0  0  0  0  0  0  0  0  0
   43.4650   34.4770   42.4330 F   0  0  0  0  0  0  0  0  0  0  0  0
   43.9800   36.5200   41.7220 F   0  0  0  0  0  0  0  0  0  0  0  0
   45.1950   34.8290   40.9240 F   0  0  0  0  0  0  0  0  0  0  0  0
   46.5300   30.5300   44.7250 C   0  0  0  0  0  0  0  0  0  0  0  0
   46.0010   29.9060   43.6430 C   0  0  0  0  0  0  0  0  0  0  0  0
   47.0610   29.3960   42.8790 C   0  0  0  0  0  0  0  0  0  0  0  0
   48.1730   29.7340   43.5340 N   0  0  0  0  0  0  0  0  0  0  0  0
   47.8850   30.4020   44.6240 N   0  0  0  0  0  0  0  0  0  0  0  0
   44.9300   29.9010   43.5440 H   0  0  0  0  0  0  0  0  0  0  0  0
   46.8770   28.8590   41.9690 H   0  0  0  0  0  0  0  0  0  0  0  0
   49.5230   29.3830   43.0630 C   0  0  0  0  0  3  0  0  0  0  0  0
   50.4760   30.5720   43.0510 C   0  0  0  0  0  2  0  0  0  0  0  0
   50.6460   29.5370   44.1090 C   0  0  0  0  0  2  0  0  0  0  0  0
  1  8  1  0  0  0  0
  1  6  1  0  0  0  0
  2  1  2  0  0  0  0
  3  2  1  0  0  0  0
  3  4  2  0  0  0  0
  4  5  1  0  0  0  0
  5  6  2  0  0  0  0
  5  7  1  0  0  0  0
  7 10  1  0  0  0  0
  7  9  1  0  0  0  0
 11 12  1  0  0  0  0
 11 17  1  1  0  0  0
 11  2  1  0  0  0  0
 12 18  1  0  0  0  0
 13 19  1  0  0  0  0
 13 12  2  0  0  0  0
 14 20  1  6  0  0  0
 14 13  1  0  0  0  0
 15 14  1  0  0  0  0
 15 22  1  0  0  0  0
 15 16  1  0  0  0  0
 16 11  1  0  0  0  0
 21 15  1  0  0  0  0
 23 16  1  0  0  0  0
 24 16  1  0  0  0  0
 25 26  1  0  0  0  0
 25 14  1  0  0  0  0
 27 25  1  0  0  0  0
 28 25  1  0  0  0  0
 29  3  1  0  0  0  0
 30 29  1  0  0  0  0
 31 32  1  0  0  0  0
 31 30  2  0  0  0  0
 32 33  1  0  0  0  0
 33 29  2  0  0  0  0
 34 30  1  0  0  0  0
 35 31  1  0  0  0  0
 36 32  1  0  0  0  0
 36 38  1  0  0  0  0
 37 36  1  0  0  0  0
 37 38  1  0  0  0  0
M  END
>  <minimizedAffinity>
-5.55244017

>  <minimizedRMSD>
0.318120152

$$$$
