
 OpenBabel03232521003D

 38 41  0  0  1  0  0  0  0  0999 V2000
   45.3770   32.8780   47.5580 C   0  0  0  0  0  0  0  0  0  0  0  0
   45.9300   32.6100   46.3510 C   0  0  0  0  0  0  0  0  0  0  0  0
   46.1920   31.2570   46.1140 C   0  0  0  0  0  0  0  0  0  0  0  0
   45.9210   30.2710   47.0040 N   0  0  0  0  0  0  0  0  0  0  0  0
   45.3550   30.6030   48.2250 C   0  0  0  0  0  0  0  0  0  0  0  0
   45.1000   31.8730   48.4700 N   0  0  0  0  0  0  0  0  0  0  0  0
   45.0920   29.5890   49.1890 N   0  0  0  0  0  0  0  0  0  0  0  0
   45.1390   33.8900   47.8450 H   0  0  0  0  0  0  0  0  0  0  0  0
   45.8890   29.7270   49.8490 H   0  0  0  0  0  0  0  0  0  0  0  0
   44.2740   28.9130   49.1650 H   0  0  0  0  0  0  0  0  0  0  0  0
   46.1860   33.5530   45.3130 C   0  0  2  0  0  0  0  0  0  0  0  0
   44.9730   34.6450   45.5240 C   0  0  0  0  0  0  0  0  0  0  0  0
   44.7570   35.5670   44.4430 C   0  0  0  0  0  0  0  0  0  0  0  0
   45.5680   35.4860   43.2270 C   0  0  1  0  0  0  0  0  0  0  0  0
   46.6270   34.4860   43.2000 C   0  0  0  0  0  0  0  0  0  0  0  0
   46.1730   33.2570   43.9520 C   0  0  0  0  0  0  0  0  0  0  0  0
   46.9630   34.2990   45.6460 H   0  0  0  0  0  0  0  0  0  0  0  0
   44.2860   34.8010   46.3450 H   0  0  0  0  0  0  0  0  0  0  0  0
   43.9900   36.2860   44.5340 H   0  0  0  0  0  0  0  0  0  0  0  0
   45.9930   36.4940   43.0220 H   0  0  0  0  0  0  0  0  0  0  0  0
   46.8900   34.2690   42.1290 H   0  0  0  0  0  0  0  0  0  0  0  0
   47.5520   34.8530   43.6920 H   0  0  0  0  0  0  0  0  0  0  0  0
   45.2450   32.8840   43.4720 H   0  0  0  0  0  0  0  0  0  0  0  0
   47.0320   32.6090   43.6390 H   0  0  0  0  0  0  0  0  0  0  0  0
   44.5640   35.2080   42.0680 C   0  0  0  0  0  0  0  0  0  0  0  0
   43.5340   34.3640   42.4440 F   0  0  0  0  0  0  0  0  0  0  0  0
   43.9770   36.4330   41.7600 F   0  0  0  0  0  0  0  0  0  0  0  0
   45.2540   34.7970   40.9450 F   0  0  0  0  0  0  0  0  0  0  0  0
   46.8280   30.5530   45.0110 C   0  0  0  0  0  0  0  0  0  0  0  0
   46.4780   29.9420   43.8510 C   0  0  0  0  0  0  0  0  0  0  0  0
   47.6430   29.4110   43.2760 C   0  0  0  0  0  0  0  0  0  0  0  0
   48.6330   29.7260   44.1120 N   0  0  0  0  0  0  0  0  0  0  0  0
   48.1780   30.3980   45.1410 N   0  0  0  0  0  0  0  0  0  0  0  0
   45.4400   29.9580   43.5730 H   0  0  0  0  0  0  0  0  0  0  0  0
   47.6050   28.8800   42.3450 H   0  0  0  0  0  0  0  0  0  0  0  0
   50.0370   29.3500   43.8740 C   0  0  0  0  0  3  0  0  0  0  0  0
   50.8090   29.0900   45.1610 C   0  0  0  0  0  2  0  0  0  0  0  0
   50.4210   27.9230   44.3190 C   0  0  0  0  0  2  0  0  0  0  0  0
  1  8  1  0  0  0  0
  1  6  1  0  0  0  0
  2  1  2  0  0  0  0
  3  2  1  0  0  0  0
  3  4  2  0  0  0  0
  4  5  1  0  0  0  0
  5  6  2  0  0  0  0
  5  7  1  0  0  0  0
  7  9  1  0  0  0  0
 10  7  1  0  0  0  0
 11 12  1  0  0  0  0
 11 17  1  1  0  0  0
 11  2  1  0  0  0  0
 12 18  1  0  0  0  0
 13 19  1  0  0  0  0
 13 12  2  0  0  0  0
 14 20  1  6  0  0  0
 14 13  1  0  0  0  0
 15 14  1  0  0  0  0
 15 22  1  0  0  0  0
 15 16  1  0  0  0  0
 16 11  1  0  0  0  0
 21 15  1  0  0  0  0
 23 16  1  0  0  0  0
 24 16  1  0  0  0  0
 25 26  1  0  0  0  0
 25 14  1  0  0  0  0
 27 25  1  0  0  0  0
 28 25  1  0  0  0  0
 29 33  2  0  0  0  0
 29  3  1  0  0  0  0
 30 29  1  0  0  0  0
 31 30  2  0  0  0  0
 31 32  1  0  0  0  0
 32 33  1  0  0  0  0
 34 30  1  0  0  0  0
 35 31  1  0  0  0  0
 36 32  1  0  0  0  0
 36 38  1  0  0  0  0
 36 37  1  0  0  0  0
 38 37  1  0  0  0  0
M  END
>  <minimizedAffinity>
-5.56030083

>  <minimizedRMSD>
0.24859722

$$$$
