
 OpenBabel03232520563D

 42 45  0  0  1  0  0  0  0  0999 V2000
   45.6310   32.8180   47.6190 C   0  0  0  0  0  0  0  0  0  0  0  0
   45.9010   32.5250   46.3170 C   0  0  0  0  0  0  0  0  0  0  0  0
   45.9050   31.1630   45.9700 C   0  0  0  0  0  0  0  0  0  0  0  0
   45.6590   30.2130   46.8740 N   0  0  0  0  0  0  0  0  0  0  0  0
   45.3910   30.5340   48.1860 C   0  0  0  0  0  0  0  0  0  0  0  0
   45.3780   31.8190   48.5400 N   0  0  0  0  0  0  0  0  0  0  0  0
   45.1440   29.5030   49.1390 N   0  0  0  0  0  0  0  0  0  0  0  0
   45.6120   33.8290   47.9450 H   0  0  0  0  0  0  0  0  0  0  0  0
   44.1860   29.0890   49.2030 H   0  0  0  0  0  0  0  0  0  0  0  0
   45.8950   29.1480   49.7790 H   0  0  0  0  0  0  0  0  0  0  0  0
   46.1270   33.5470   45.3420 C   0  0  2  0  0  0  0  0  0  0  0  0
   44.9730   34.6030   45.5060 C   0  0  0  0  0  0  0  0  0  0  0  0
   44.7650   35.5200   44.4180 C   0  0  0  0  0  0  0  0  0  0  0  0
   45.5830   35.4560   43.2180 C   0  0  1  0  0  0  0  0  0  0  0  0
   46.6830   34.4900   43.2210 C   0  0  0  0  0  0  0  0  0  0  0  0
   46.2840   33.2360   43.9520 C   0  0  0  0  0  0  0  0  0  0  0  0
   46.9420   34.2360   45.7420 H   0  0  0  0  0  0  0  0  0  0  0  0
   44.2540   34.8180   46.2880 H   0  0  0  0  0  0  0  0  0  0  0  0
   44.0050   36.2580   44.4600 H   0  0  0  0  0  0  0  0  0  0  0  0
   45.9720   36.4810   43.0150 H   0  0  0  0  0  0  0  0  0  0  0  0
   47.6390   34.9250   43.5850 H   0  0  0  0  0  0  0  0  0  0  0  0
   46.9000   34.2110   42.1490 H   0  0  0  0  0  0  0  0  0  0  0  0
   45.3570   32.8770   43.4610 H   0  0  0  0  0  0  0  0  0  0  0  0
   47.0790   32.5400   43.6520 H   0  0  0  0  0  0  0  0  0  0  0  0
   44.6420   35.1620   42.0300 C   0  0  0  0  0  0  0  0  0  0  0  0
   43.6390   34.2660   42.3500 F   0  0  0  0  0  0  0  0  0  0  0  0
   43.9970   36.3620   41.7200 F   0  0  0  0  0  0  0  0  0  0  0  0
   45.3790   34.7870   40.9190 F   0  0  0  0  0  0  0  0  0  0  0  0
   46.1200   30.4690   44.7460 N   0  0  0  0  0  0  0  0  0  0  0  0
   45.0600   30.1070   43.9490 C   0  0  0  0  0  0  0  0  0  0  0  0
   45.5530   29.4280   42.8700 N   0  0  0  0  0  0  0  0  0  0  0  0
   46.8880   29.3750   43.0000 C   0  0  0  0  0  0  0  0  0  0  0  0
   47.9260   28.8320   42.2450 C   0  0  0  0  0  0  0  0  0  0  0  0
   47.6340   28.2330   41.1690 O   0  0  0  0  0  0  0  0  0  0  0  0
   49.2090   28.9510   42.6600 N   0  0  0  0  0  0  0  0  0  0  0  0
   49.5010   29.5920   43.8080 C   0  0  0  0  0  0  0  0  0  0  0  0
   50.8770   29.6600   44.1540 N   0  0  0  0  0  0  0  0  0  0  0  0
   48.5490   30.1480   44.6020 N   0  0  0  0  0  0  0  0  0  0  0  0
   47.2820   30.0170   44.1670 C   0  0  0  0  0  0  0  0  0  0  0  0
   49.9290   28.5280   42.0560 H   0  0  0  0  0  0  0  0  0  0  0  0
   51.4870   29.1350   44.8180 H   0  0  0  0  0  0  0  0  0  0  0  0
   51.3420   30.4280   43.5870 H   0  0  0  0  0  0  0  0  0  0  0  0
  1  8  1  0  0  0  0
  1  6  1  0  0  0  0
  2  1  2  0  0  0  0
  3  2  1  0  0  0  0
  3  4  2  0  0  0  0
  4  5  1  0  0  0  0
  5  6  2  0  0  0  0
  5  7  1  0  0  0  0
  7  9  1  0  0  0  0
  7 10  1  0  0  0  0
 11 12  1  0  0  0  0
 11 17  1  1  0  0  0
 11  2  1  0  0  0  0
 12 18  1  0  0  0  0
 13 19  1  0  0  0  0
 13 12  2  0  0  0  0
 14 20  1  6  0  0  0
 14 15  1  0  0  0  0
 14 13  1  0  0  0  0
 15 21  1  0  0  0  0
 15 16  1  0  0  0  0
 16 11  1  0  0  0  0
 22 15  1  0  0  0  0
 23 16  1  0  0  0  0
 24 16  1  0  0  0  0
 25 26  1  0  0  0  0
 25 14  1  0  0  0  0
 27 25  1  0  0  0  0
 28 25  1  0  0  0  0
 29  3  1  0  0  0  0
 30 29  1  0  0  0  0
 31 32  1  0  0  0  0
 31 30  2  0  0  0  0
 32 39  2  0  0  0  0
 33 35  1  0  0  0  0
 33 32  1  0  0  0  0
 34 33  2  0  0  0  0
 35 36  1  0  0  0  0
 36 37  1  0  0  0  0
 36 38  2  0  0  0  0
 37 41  1  0  0  0  0
 39 38  1  0  0  0  0
 39 29  1  0  0  0  0
 40 35  1  0  0  0  0
 42 37  1  0  0  0  0
M  END
>  <minimizedAffinity>
-5.86454391

>  <minimizedRMSD>
1.14340913

$$$$
