
 OpenBabel03232521013D

 38 41  0  0  1  0  0  0  0  0999 V2000
   45.3760   32.8770   47.5560 C   0  0  0  0  0  0  0  0  0  0  0  0
   45.9300   32.6090   46.3500 C   0  0  0  0  0  0  0  0  0  0  0  0
   46.1920   31.2570   46.1120 C   0  0  0  0  0  0  0  0  0  0  0  0
   45.9210   30.2700   47.0020 N   0  0  0  0  0  0  0  0  0  0  0  0
   45.3540   30.6020   48.2240 C   0  0  0  0  0  0  0  0  0  0  0  0
   45.0990   31.8730   48.4680 N   0  0  0  0  0  0  0  0  0  0  0  0
   45.0910   29.5890   49.1880 N   0  0  0  0  0  0  0  0  0  0  0  0
   45.1380   33.8890   47.8430 H   0  0  0  0  0  0  0  0  0  0  0  0
   45.8880   29.7270   49.8480 H   0  0  0  0  0  0  0  0  0  0  0  0
   44.2730   28.9120   49.1630 H   0  0  0  0  0  0  0  0  0  0  0  0
   46.1860   33.5520   45.3120 C   0  0  2  0  0  0  0  0  0  0  0  0
   44.9730   34.6450   45.5230 C   0  0  0  0  0  0  0  0  0  0  0  0
   44.7570   35.5670   44.4420 C   0  0  0  0  0  0  0  0  0  0  0  0
   45.5680   35.4860   43.2260 C   0  0  1  0  0  0  0  0  0  0  0  0
   46.6270   34.4860   43.1980 C   0  0  0  0  0  0  0  0  0  0  0  0
   46.1720   33.2560   43.9510 C   0  0  0  0  0  0  0  0  0  0  0  0
   46.9630   34.2980   45.6440 H   0  0  0  0  0  0  0  0  0  0  0  0
   44.2870   34.8010   46.3450 H   0  0  0  0  0  0  0  0  0  0  0  0
   43.9910   36.2870   44.5330 H   0  0  0  0  0  0  0  0  0  0  0  0
   45.9940   36.4940   43.0210 H   0  0  0  0  0  0  0  0  0  0  0  0
   46.8900   34.2680   42.1280 H   0  0  0  0  0  0  0  0  0  0  0  0
   47.5520   34.8520   43.6900 H   0  0  0  0  0  0  0  0  0  0  0  0
   45.2440   32.8840   43.4710 H   0  0  0  0  0  0  0  0  0  0  0  0
   47.0310   32.6080   43.6370 H   0  0  0  0  0  0  0  0  0  0  0  0
   44.5640   35.2090   42.0680 C   0  0  0  0  0  0  0  0  0  0  0  0
   43.5330   34.3650   42.4430 F   0  0  0  0  0  0  0  0  0  0  0  0
   43.9780   36.4340   41.7600 F   0  0  0  0  0  0  0  0  0  0  0  0
   45.2530   34.7970   40.9440 F   0  0  0  0  0  0  0  0  0  0  0  0
   46.8290   30.5520   45.0100 C   0  0  0  0  0  0  0  0  0  0  0  0
   46.4800   29.9400   43.8510 C   0  0  0  0  0  0  0  0  0  0  0  0
   47.6450   29.4110   43.2750 C   0  0  0  0  0  0  0  0  0  0  0  0
   48.6350   29.7280   44.1110 N   0  0  0  0  0  0  0  0  0  0  0  0
   48.1790   30.4000   45.1390 N   0  0  0  0  0  0  0  0  0  0  0  0
   45.4420   29.9540   43.5730 H   0  0  0  0  0  0  0  0  0  0  0  0
   47.6080   28.8780   42.3450 H   0  0  0  0  0  0  0  0  0  0  0  0
   50.0390   29.3540   43.8730 C   0  0  0  0  0  3  0  0  0  0  0  0
   50.8110   29.0890   45.1590 C   0  0  0  0  0  2  0  0  0  0  0  0
   50.4250   27.9260   44.3130 C   0  0  0  0  0  2  0  0  0  0  0  0
  1  8  1  0  0  0  0
  1  6  1  0  0  0  0
  2  1  2  0  0  0  0
  3  2  1  0  0  0  0
  3  4  2  0  0  0  0
  4  5  1  0  0  0  0
  5  6  2  0  0  0  0
  5  7  1  0  0  0  0
  7  9  1  0  0  0  0
 10  7  1  0  0  0  0
 11 12  1  0  0  0  0
 11 17  1  1  0  0  0
 11  2  1  0  0  0  0
 12 18  1  0  0  0  0
 13 19  1  0  0  0  0
 13 12  2  0  0  0  0
 14 20  1  6  0  0  0
 14 13  1  0  0  0  0
 15 14  1  0  0  0  0
 15 22  1  0  0  0  0
 15 16  1  0  0  0  0
 16 11  1  0  0  0  0
 21 15  1  0  0  0  0
 23 16  1  0  0  0  0
 24 16  1  0  0  0  0
 25 26  1  0  0  0  0
 25 14  1  0  0  0  0
 27 25  1  0  0  0  0
 28 25  1  0  0  0  0
 29 33  2  0  0  0  0
 29  3  1  0  0  0  0
 30 29  1  0  0  0  0
 31 30  2  0  0  0  0
 31 32  1  0  0  0  0
 32 33  1  0  0  0  0
 34 30  1  0  0  0  0
 35 31  1  0  0  0  0
 36 32  1  0  0  0  0
 36 38  1  0  0  0  0
 36 37  1  0  0  0  0
 38 37  1  0  0  0  0
M  END
>  <minimizedAffinity>
-5.56022882

>  <minimizedRMSD>
0.209517583

$$$$
