
 OpenBabel03232521003D

 41 44  0  0  1  0  0  0  0  0999 V2000
   45.6260   32.7430   47.5600 C   0  0  0  0  0  0  0  0  0  0  0  0
   46.0160   32.4850   46.2870 C   0  0  0  0  0  0  0  0  0  0  0  0
   46.0930   31.1260   45.9650 C   0  0  0  0  0  0  0  0  0  0  0  0
   45.8050   30.1260   46.8370 N   0  0  0  0  0  0  0  0  0  0  0  0
   45.4110   30.4430   48.1290 C   0  0  0  0  0  0  0  0  0  0  0  0
   45.3320   31.7280   48.4550 N   0  0  0  0  0  0  0  0  0  0  0  0
   45.1160   29.4250   49.0670 N   0  0  0  0  0  0  0  0  0  0  0  0
   45.5380   33.7600   47.9130 H   0  0  0  0  0  0  0  0  0  0  0  0
   44.2300   28.8580   48.9620 H   0  0  0  0  0  0  0  0  0  0  0  0
   45.8470   29.3280   49.8140 H   0  0  0  0  0  0  0  0  0  0  0  0
   46.2660   33.4510   45.2710 C   0  0  2  0  0  0  0  0  0  0  0  0
   45.0400   34.5320   45.5090 C   0  0  0  0  0  0  0  0  0  0  0  0
   44.8120   35.4810   44.4540 C   0  0  0  0  0  0  0  0  0  0  0  0
   45.6240   35.4300   43.2340 C   0  0  1  0  0  0  0  0  0  0  0  0
   46.6860   34.4320   43.1770 C   0  0  0  0  0  0  0  0  0  0  0  0
   46.2390   33.1860   43.9050 C   0  0  0  0  0  0  0  0  0  0  0  0
   47.0290   34.2060   45.6310 H   0  0  0  0  0  0  0  0  0  0  0  0
   44.3560   34.6580   46.3390 H   0  0  0  0  0  0  0  0  0  0  0  0
   44.0340   36.1950   44.5720 H   0  0  0  0  0  0  0  0  0  0  0  0
   46.0490   36.4400   43.0550 H   0  0  0  0  0  0  0  0  0  0  0  0
   47.6200   34.7830   43.6720 H   0  0  0  0  0  0  0  0  0  0  0  0
   46.9240   34.2360   42.0910 H   0  0  0  0  0  0  0  0  0  0  0  0
   47.0880   32.5400   43.5590 H   0  0  0  0  0  0  0  0  0  0  0  0
   45.2690   32.8240   43.5040 H   0  0  0  0  0  0  0  0  0  0  0  0
   44.6170   35.1750   42.0720 C   0  0  0  0  0  0  0  0  0  0  0  0
   43.5880   34.3240   42.4320 F   0  0  0  0  0  0  0  0  0  0  0  0
   44.0290   36.4050   41.7890 F   0  0  0  0  0  0  0  0  0  0  0  0
   45.3040   34.7840   40.9380 F   0  0  0  0  0  0  0  0  0  0  0  0
   46.5300   30.4210   44.7740 C   0  0  0  0  0  0  0  0  0  0  0  0
   45.9990   29.8590   43.6580 C   0  0  0  0  0  0  0  0  0  0  0  0
   47.0360   29.2890   42.9140 C   0  0  0  0  0  0  0  0  0  0  0  0
   48.1480   29.5300   43.6100 N   0  0  0  0  0  0  0  0  0  0  0  0
   47.8740   30.1950   44.7070 N   0  0  0  0  0  0  0  0  0  0  0  0
   44.9320   29.9350   43.5280 H   0  0  0  0  0  0  0  0  0  0  0  0
   46.8350   28.7830   41.9800 H   0  0  0  0  0  0  0  0  0  0  0  0
   49.4770   29.0860   43.1610 C   0  0  0  0  0  3  0  0  0  0  0  0
   50.3270   30.2910   43.0470 C   0  0  0  0  0  2  0  0  0  0  0  0
   51.7190   30.2020   43.5600 C   0  0  0  0  0  2  0  0  0  0  0  0
   51.7610   29.4260   44.8810 C   0  0  0  0  0  2  0  0  0  0  0  0
   51.3760   28.0150   44.4610 C   0  0  0  0  0  2  0  0  0  0  0  0
   49.9520   28.0030   44.0420 C   0  0  0  0  0  2  0  0  0  0  0  0
  1  8  1  0  0  0  0
  1  6  1  0  0  0  0
  2  1  2  0  0  0  0
  3  2  1  0  0  0  0
  3  4  2  0  0  0  0
  4  5  1  0  0  0  0
  5  6  2  0  0  0  0
  5  7  1  0  0  0  0
  7 10  1  0  0  0  0
  9  7  1  0  0  0  0
 11 12  1  0  0  0  0
 11 17  1  1  0  0  0
 11  2  1  0  0  0  0
 12 18  1  0  0  0  0
 13 19  1  0  0  0  0
 13 12  2  0  0  0  0
 14 20  1  6  0  0  0
 14 13  1  0  0  0  0
 15 14  1  0  0  0  0
 15 21  1  0  0  0  0
 15 16  1  0  0  0  0
 16 11  1  0  0  0  0
 22 15  1  0  0  0  0
 23 16  1  0  0  0  0
 24 16  1  0  0  0  0
 25 26  1  0  0  0  0
 25 14  1  0  0  0  0
 27 25  1  0  0  0  0
 28 25  1  0  0  0  0
 29  3  1  0  0  0  0
 30 29  1  0  0  0  0
 31 32  1  0  0  0  0
 31 30  2  0  0  0  0
 32 33  1  0  0  0  0
 33 29  2  0  0  0  0
 34 30  1  0  0  0  0
 35 31  1  0  0  0  0
 36 32  1  0  0  0  0
 36 41  1  0  0  0  0
 37 36  1  0  0  0  0
 37 38  1  0  0  0  0
 38 39  1  0  0  0  0
 40 39  1  0  0  0  0
 41 40  1  0  0  0  0
M  END
>  <minimizedAffinity>
-5.73571014

>  <minimizedRMSD>
0.550955892

$$$$
