
 OpenBabel03232520273D

 43 47  0  0  1  0  0  0  0  0999 V2000
   47.0410   34.5490   41.2760 C   0  0  0  0  0  0  0  0  0  0  0  0
   48.3200   35.0080   40.9720 C   0  0  0  0  0  0  0  0  0  0  0  0
   48.6100   34.7350   39.7040 N   0  0  0  0  0  0  0  0  0  0  0  0
   47.5420   34.1080   39.1880 C   0  0  0  0  0  0  0  0  0  0  0  0
   47.3210   33.6070   37.9010 C   0  0  0  0  0  0  0  0  0  0  0  0
   46.1210   32.9990   37.6250 C   0  0  0  0  0  0  0  0  0  0  0  0
   45.0970   32.8390   38.5280 C   0  0  0  0  0  0  0  0  0  0  0  0
   45.3760   33.3560   39.7840 C   0  0  0  0  0  0  0  0  0  0  0  0
   46.5390   33.9720   40.1360 C   0  0  0  0  0  0  0  0  0  0  0  0
   49.5020   34.9520   39.1660 H   0  0  0  0  0  0  0  0  0  0  0  0
   48.1020   33.7130   37.1630 H   0  0  0  0  0  0  0  0  0  0  0  0
   46.0330   32.6360   36.5950 H   0  0  0  0  0  0  0  0  0  0  0  0
   44.1750   32.3540   38.2550 H   0  0  0  0  0  0  0  0  0  0  0  0
   44.5850   33.2540   40.5470 H   0  0  0  0  0  0  0  0  0  0  0  0
   44.8090   35.8070   43.9990 C   0  0  0  0  0  0  0  0  0  0  0  0
   45.4710   35.7320   42.7520 C   0  0  0  0  0  0  0  0  0  0  0  0
   46.3410   34.6510   42.5650 C   0  0  0  0  0  0  0  0  0  0  0  0
   46.5230   33.7220   43.5640 N   0  0  0  0  0  0  0  0  0  0  0  0
   45.8520   33.8610   44.7360 C   0  0  0  0  0  0  0  0  0  0  0  0
   45.0050   34.8820   44.9670 N   0  0  0  0  0  0  0  0  0  0  0  0
   44.1430   36.6420   44.1340 H   0  0  0  0  0  0  0  0  0  0  0  0
   45.3010   36.4780   41.9990 H   0  0  0  0  0  0  0  0  0  0  0  0
   46.0310   33.1040   45.4870 H   0  0  0  0  0  0  0  0  0  0  0  0
   49.1950   35.6970   41.9490 C   0  0  0  0  0  0  0  0  0  0  0  0
   49.8400   36.4510   41.4740 H   0  0  0  0  0  0  0  0  0  0  0  0
   48.5370   36.2860   42.6500 H   0  0  0  0  0  0  0  0  0  0  0  0
   50.0230   34.7220   42.7250 C   0  0  0  0  0  0  0  0  0  0  0  0
   50.9360   35.2760   43.0920 H   0  0  0  0  0  0  0  0  0  0  0  0
   49.4560   34.4580   43.6420 H   0  0  0  0  0  0  0  0  0  0  0  0
   50.4820   33.5170   41.9490 C   0  0  1  0  0  0  0  0  0  0  0  0
   51.0100   32.3270   42.5850 C   0  0  0  0  0  0  0  0  0  0  0  0
   49.5870   32.2750   42.1490 C   0  0  2  0  0  0  0  0  0  0  0  0
   50.8140   33.7300   40.9180 H   0  0  0  0  0  0  0  0  0  0  0  0
   51.2570   32.3730   43.6630 H   0  0  0  0  0  0  0  0  0  0  0  0
   51.7300   31.6820   42.0180 H   0  0  0  0  0  0  0  0  0  0  0  0
   48.8620   32.3070   42.9980 H   0  0  0  0  0  0  0  0  0  0  0  0
   49.2560   31.5180   40.9720 N   0  0  0  0  0  0  0  0  0  0  0  0
   49.9420   31.5080   39.8420 N   0  0  0  0  0  0  0  0  0  0  0  0
   49.3720   30.6950   38.9270 C   0  0  0  0  0  0  0  0  0  0  0  0
   49.7530   30.5220   37.9210 H   0  0  0  0  0  0  0  0  0  0  0  0
   48.2510   30.1620   39.5300 C   0  0  0  0  0  0  0  0  0  0  0  0
   48.2010   30.6990   40.8210 C   0  0  0  0  0  0  0  0  0  0  0  0
   47.4250   30.4430   41.4950 H   0  0  0  0  0  0  0  0  0  0  0  0
  1 17  1  0  0  0  0
  2  1  2  0  0  0  0
  2 24  1  0  0  0  0
  3  2  1  0  0  0  0
  4  3  1  0  0  0  0
  4  9  1  0  0  0  0
  5  4  2  0  0  0  0
  6  5  1  0  0  0  0
  6  7  2  0  0  0  0
  7  8  1  0  0  0  0
  8  9  2  0  0  0  0
  8 14  1  0  0  0  0
  9  1  1  0  0  0  0
 10  3  1  0  0  0  0
 11  5  1  0  0  0  0
 12  6  1  0  0  0  0
 13  7  1  0  0  0  0
 15 21  1  0  0  0  0
 15 20  1  0  0  0  0
 16 15  2  0  0  0  0
 17 16  1  0  0  0  0
 17 18  2  0  0  0  0
 18 19  1  0  0  0  0
 19 20  2  0  0  0  0
 19 23  1  0  0  0  0
 22 16  1  0  0  0  0
 24 26  1  0  0  0  0
 24 27  1  0  0  0  0
 25 24  1  0  0  0  0
 27 28  1  0  0  0  0
 27 29  1  0  0  0  0
 30 33  1  6  0  0  0
 30 32  1  0  0  0  0
 30 31  1  0  0  0  0
 30 27  1  0  0  0  0
 31 34  1  0  0  0  0
 32 31  1  0  0  0  0
 32 36  1  1  0  0  0
 35 31  1  0  0  0  0
 37 32  1  0  0  0  0
 38 37  1  0  0  0  0
 39 41  1  0  0  0  0
 39 38  2  0  0  0  0
 40 39  1  0  0  0  0
 41 42  2  0  0  0  0
 42 37  1  0  0  0  0
 42 43  1  0  0  0  0
M  END
>  <minimizedAffinity>
-5.78420496

>  <minimizedRMSD>
0.674299121

$$$$
