
 OpenBabel03232519383D

 36 39  0  0  0  0  0  0  0  0999 V2000
   46.5360   34.4530   41.9700 N   0  0  0  0  0  0  0  0  0  0  0  0
   47.6670   35.2290   41.8570 C   0  0  0  0  0  0  0  0  0  0  0  0
   48.4140   35.2420   40.7120 C   0  0  0  0  0  0  0  0  0  0  0  0
   47.9890   34.4350   39.6510 C   0  0  0  0  0  0  0  0  0  0  0  0
   48.6480   34.4200   38.5840 O   0  0  0  0  0  0  0  0  0  0  0  0
   46.8830   33.7050   39.8250 N   0  0  0  0  0  0  0  0  0  0  0  0
   46.1670   33.7070   40.9540 C   0  0  0  0  0  0  0  0  0  0  0  0
   45.1470   33.0590   41.1680 O   0  0  0  0  0  0  0  0  0  0  0  0
   48.0550   35.8750   42.6320 H   0  0  0  0  0  0  0  0  0  0  0  0
   49.3020   35.8330   40.5810 H   0  0  0  0  0  0  0  0  0  0  0  0
   46.4000   32.8650   38.7830 C   0  0  0  0  0  0  0  0  0  0  0  0
   45.4280   33.2450   37.8670 C   0  0  0  0  0  0  0  0  0  0  0  0
   45.0200   32.3670   36.8900 C   0  0  0  0  0  0  0  0  0  0  0  0
   45.5710   31.0800   36.7990 C   0  0  0  0  0  0  0  0  0  0  0  0
   46.5340   30.7310   37.7230 C   0  0  0  0  0  0  0  0  0  0  0  0
   46.9840   31.5880   38.7350 C   0  0  0  0  0  0  0  0  0  0  0  0
   45.0130   34.2420   37.9510 H   0  0  0  0  0  0  0  0  0  0  0  0
   44.2590   32.6450   36.1620 H   0  0  0  0  0  0  0  0  0  0  0  0
   45.2960   30.3580   36.0680 H   0  0  0  0  0  0  0  0  0  0  0  0
   47.0090   29.7510   37.7190 H   0  0  0  0  0  0  0  0  0  0  0  0
   47.9810   31.1830   39.6670 N   0  0  0  0  0  0  0  0  0  0  0  0
   48.0140   30.8770   40.9550 N   0  0  0  0  0  0  0  0  0  0  0  0
   49.2500   30.5550   41.3360 C   0  0  0  0  0  0  0  0  0  0  0  0
   49.4680   30.2730   42.3690 H   0  0  0  0  0  0  0  0  0  0  0  0
   50.0680   30.6640   40.2080 C   0  0  0  0  0  0  0  0  0  0  0  0
   49.2380   31.0660   39.1580 C   0  0  0  0  0  0  0  0  0  0  0  0
   49.6840   31.2090   38.1810 H   0  0  0  0  0  0  0  0  0  0  0  0
   44.5240   35.8750   44.7330 C   0  0  0  0  0  0  0  0  0  0  0  0
   45.1170   35.7070   43.4500 C   0  0  0  0  0  0  0  0  0  0  0  0
   45.9370   34.6190   43.2700 C   0  0  0  0  0  0  0  0  0  0  0  0
   46.1640   33.7450   44.2910 N   0  0  0  0  0  0  0  0  0  0  0  0
   45.5780   33.9420   45.5010 C   0  0  0  0  0  0  0  0  0  0  0  0
   44.7750   34.9800   45.7270 N   0  0  0  0  0  0  0  0  0  0  0  0
   43.8750   36.6930   44.9560 H   0  0  0  0  0  0  0  0  0  0  0  0
   44.8880   36.4500   42.6770 H   0  0  0  0  0  0  0  0  0  0  0  0
   45.8720   33.1560   46.1790 H   0  0  0  0  0  0  0  0  0  0  0  0
  1 30  1  0  0  0  0
  2  1  1  0  0  0  0
  2  9  1  0  0  0  0
  3  2  2  0  0  0  0
  4  6  1  0  0  0  0
  4  3  1  0  0  0  0
  5  4  2  0  0  0  0
  6  7  1  0  0  0  0
  7  8  2  0  0  0  0
  7  1  1  0  0  0  0
 10  3  1  0  0  0  0
 11  6  1  0  0  0  0
 12 17  1  0  0  0  0
 12 11  2  0  0  0  0
 13 12  1  0  0  0  0
 14 13  2  0  0  0  0
 14 15  1  0  0  0  0
 15 16  2  0  0  0  0
 16 11  1  0  0  0  0
 16 21  1  0  0  0  0
 18 13  1  0  0  0  0
 19 14  1  0  0  0  0
 20 15  1  0  0  0  0
 21 22  1  0  0  0  0
 22 23  2  0  0  0  0
 23 24  1  0  0  0  0
 25 23  1  0  0  0  0
 26 21  1  0  0  0  0
 26 25  2  0  0  0  0
 27 26  1  0  0  0  0
 28 34  1  0  0  0  0
 28 33  1  0  0  0  0
 29 28  2  0  0  0  0
 30 29  1  0  0  0  0
 30 31  2  0  0  0  0
 31 32  1  0  0  0  0
 32 33  2  0  0  0  0
 32 36  1  0  0  0  0
 35 29  1  0  0  0  0
M  END
>  <minimizedAffinity>
-5.28707743

>  <minimizedRMSD>
0.375843018

$$$$
