
 OpenBabel03232519063D

 33 35  0  0  0  0  0  0  0  0999 V2000
   45.6010   33.6930   41.6210 C   0  0  0  0  0  0  0  0  0  0  0  0
   45.5180   33.8340   45.2970 C   0  0  0  0  0  0  0  0  0  0  0  0
   44.9050   35.0230   45.4620 C   0  0  0  0  0  0  0  0  0  0  0  0
   44.6200   35.5860   43.7550 S   0  0  0  0  0  0  0  0  0  0  0  0
   45.4360   34.0040   43.0810 C   0  0  0  0  0  0  0  0  0  0  0  0
   45.7090   33.4710   44.0680 N   0  0  0  0  0  0  0  0  0  0  0  0
   44.6360   35.5410   46.3940 H   0  0  0  0  0  0  0  0  0  0  0  0
   45.6180   32.1870   48.7350 C   0  0  0  0  0  0  0  0  0  0  0  0
   45.1960   32.9530   47.6510 C   0  0  0  0  0  0  0  0  0  0  0  0
   45.9310   33.0280   46.4800 C   0  0  0  0  0  0  0  0  0  0  0  0
   47.0720   32.3000   46.4890 N   0  0  0  0  0  0  0  0  0  0  0  0
   47.4970   31.5590   47.5120 C   0  0  0  0  0  0  0  0  0  0  0  0
   46.7620   31.5120   48.6280 N   0  0  0  0  0  0  0  0  0  0  0  0
   45.0000   32.1650   49.6300 H   0  0  0  0  0  0  0  0  0  0  0  0
   44.2730   33.5220   47.6870 H   0  0  0  0  0  0  0  0  0  0  0  0
   48.4340   31.0040   47.4300 H   0  0  0  0  0  0  0  0  0  0  0  0
   44.2950   33.9990   40.9500 C   0  0  0  0  0  0  0  0  0  0  0  0
   44.0110   35.0420   41.1880 H   0  0  0  0  0  0  0  0  0  0  0  0
   44.3000   33.8430   39.8690 H   0  0  0  0  0  0  0  0  0  0  0  0
   43.5260   33.3550   41.4230 H   0  0  0  0  0  0  0  0  0  0  0  0
   45.9450   32.2270   41.5330 C   0  0  0  0  0  0  0  0  0  0  0  0
   46.7770   32.0080   40.8340 H   0  0  0  0  0  0  0  0  0  0  0  0
   45.0590   31.6920   41.1270 H   0  0  0  0  0  0  0  0  0  0  0  0
   46.1410   31.7630   42.5360 H   0  0  0  0  0  0  0  0  0  0  0  0
   46.6770   34.5320   41.0120 C   0  0  0  0  0  0  0  0  0  0  0  0
   46.5720   34.5290   39.9220 H   0  0  0  0  0  0  0  0  0  0  0  0
   46.4640   35.5990   41.3120 H   0  0  0  0  0  0  0  0  0  0  0  0
   48.0330   34.1800   41.5010 C   0  0  0  0  0  0  0  0  0  0  0  0
   48.7140   32.9800   41.1290 C   0  0  0  0  0  0  0  0  0  0  0  0
   50.3390   33.1630   42.0800 S   0  0  0  0  0  0  0  0  0  0  0  0
   49.7340   34.8170   42.7630 C   0  0  0  0  0  0  0  0  0  0  0  0
   50.6300   35.1690   43.4390 H   0  0  0  0  0  0  0  0  0  0  0  0
   48.7160   34.9470   42.3150 N   0  0  0  0  0  0  0  0  0  0  0  0
  1  5  1  0  0  0  0
  2  3  2  0  0  0  0
  2 10  1  0  0  0  0
  3  7  1  0  0  0  0
  4  3  1  0  0  0  0
  5  4  1  0  0  0  0
  5  6  2  0  0  0  0
  6  2  1  0  0  0  0
  8 14  1  0  0  0  0
  9 15  1  0  0  0  0
  9  8  2  0  0  0  0
 10 11  2  0  0  0  0
 10  9  1  0  0  0  0
 11 12  1  0  0  0  0
 12 13  2  0  0  0  0
 13  8  1  0  0  0  0
 16 12  1  0  0  0  0
 17 18  1  0  0  0  0
 17 20  1  0  0  0  0
 17  1  1  0  0  0  0
 19 17  1  0  0  0  0
 21  1  1  0  0  0  0
 21 24  1  0  0  0  0
 22 21  1  0  0  0  0
 23 21  1  0  0  0  0
 25 27  1  0  0  0  0
 25 28  1  0  0  0  0
 25  1  1  0  0  0  0
 26 25  1  0  0  0  0
 28 33  1  0  0  0  0
 29 28  2  0  0  0  0
 29 30  1  0  0  0  0
 30 31  1  0  0  0  0
 31 32  1  0  0  0  0
 33 31  2  0  0  0  0
M  END
>  <minimizedAffinity>
-5.05118942

>  <minimizedRMSD>
2.65793276

$$$$
