
 OpenBabel03232521013D

 41 44  0  0  1  0  0  0  0  0999 V2000
   45.3960   32.8450   47.4830 C   0  0  0  0  0  0  0  0  0  0  0  0
   45.9400   32.6020   46.2640 C   0  0  0  0  0  0  0  0  0  0  0  0
   46.1960   31.2530   45.9980 C   0  0  0  0  0  0  0  0  0  0  0  0
   45.9310   30.2470   46.8710 N   0  0  0  0  0  0  0  0  0  0  0  0
   45.3750   30.5480   48.1060 C   0  0  0  0  0  0  0  0  0  0  0  0
   45.1240   31.8240   48.3780 N   0  0  0  0  0  0  0  0  0  0  0  0
   45.0970   29.5260   49.0440 N   0  0  0  0  0  0  0  0  0  0  0  0
   45.1630   33.8530   47.7900 H   0  0  0  0  0  0  0  0  0  0  0  0
   44.2930   28.8620   48.8710 H   0  0  0  0  0  0  0  0  0  0  0  0
   45.7540   29.5280   49.8620 H   0  0  0  0  0  0  0  0  0  0  0  0
   46.1860   33.5660   45.2450 C   0  0  2  0  0  0  0  0  0  0  0  0
   44.9670   34.6530   45.4920 C   0  0  0  0  0  0  0  0  0  0  0  0
   44.7350   35.6020   44.4380 C   0  0  0  0  0  0  0  0  0  0  0  0
   45.5370   35.5460   43.2110 C   0  0  1  0  0  0  0  0  0  0  0  0
   46.5940   34.5440   43.1470 C   0  0  0  0  0  0  0  0  0  0  0  0
   46.1470   33.3010   43.8790 C   0  0  0  0  0  0  0  0  0  0  0  0
   46.9550   34.3170   45.5980 H   0  0  0  0  0  0  0  0  0  0  0  0
   44.2900   34.7820   46.3270 H   0  0  0  0  0  0  0  0  0  0  0  0
   43.9620   36.3190   44.5610 H   0  0  0  0  0  0  0  0  0  0  0  0
   45.9660   36.5540   43.0280 H   0  0  0  0  0  0  0  0  0  0  0  0
   47.5340   34.8900   43.6350 H   0  0  0  0  0  0  0  0  0  0  0  0
   46.8240   34.3450   42.0590 H   0  0  0  0  0  0  0  0  0  0  0  0
   46.9900   32.6500   43.5270 H   0  0  0  0  0  0  0  0  0  0  0  0
   45.1730   32.9420   43.4870 H   0  0  0  0  0  0  0  0  0  0  0  0
   44.5210   35.2950   42.0570 C   0  0  0  0  0  0  0  0  0  0  0  0
   43.4510   34.5100   42.4470 F   0  0  0  0  0  0  0  0  0  0  0  0
   43.9920   36.5400   41.7260 F   0  0  0  0  0  0  0  0  0  0  0  0
   45.1890   34.8270   40.9410 F   0  0  0  0  0  0  0  0  0  0  0  0
   46.8260   30.5740   44.8810 C   0  0  0  0  0  0  0  0  0  0  0  0
   46.4790   29.8200   43.8060 C   0  0  0  0  0  0  0  0  0  0  0  0
   47.6450   29.4430   43.1350 C   0  0  0  0  0  0  0  0  0  0  0  0
   48.6470   29.9830   43.8310 N   0  0  0  0  0  0  0  0  0  0  0  0
   48.1890   30.6530   44.8610 N   0  0  0  0  0  0  0  0  0  0  0  0
   45.4270   29.6430   43.6480 H   0  0  0  0  0  0  0  0  0  0  0  0
   47.6000   28.8330   42.2440 H   0  0  0  0  0  0  0  0  0  0  0  0
   50.0580   29.8160   43.4490 C   0  0  0  0  0  3  0  0  0  0  0  0
   50.1780   28.5120   42.7640 C   0  0  0  0  0  2  0  0  0  0  0  0
   51.0140   28.4530   41.5370 C   0  0  0  0  0  2  0  0  0  0  0  0
   50.7860   29.6910   40.6660 C   0  0  0  0  0  2  0  0  0  0  0  0
   51.3620   30.8160   41.5130 C   0  0  0  0  0  2  0  0  0  0  0  0
   50.5060   31.0120   42.7100 C   0  0  0  0  0  2  0  0  0  0  0  0
  1  8  1  0  0  0  0
  1  6  1  0  0  0  0
  2  1  2  0  0  0  0
  3  2  1  0  0  0  0
  3  4  2  0  0  0  0
  4  5  1  0  0  0  0
  5  6  2  0  0  0  0
  5  7  1  0  0  0  0
  7 10  1  0  0  0  0
  9  7  1  0  0  0  0
 11 12  1  0  0  0  0
 11 17  1  1  0  0  0
 11  2  1  0  0  0  0
 12 18  1  0  0  0  0
 13 19  1  0  0  0  0
 13 12  2  0  0  0  0
 14 20  1  6  0  0  0
 14 13  1  0  0  0  0
 15 14  1  0  0  0  0
 15 21  1  0  0  0  0
 15 16  1  0  0  0  0
 16 11  1  0  0  0  0
 22 15  1  0  0  0  0
 23 16  1  0  0  0  0
 24 16  1  0  0  0  0
 25 26  1  0  0  0  0
 25 14  1  0  0  0  0
 27 25  1  0  0  0  0
 28 25  1  0  0  0  0
 29  3  1  0  0  0  0
 30 29  1  0  0  0  0
 31 30  2  0  0  0  0
 31 32  1  0  0  0  0
 32 33  1  0  0  0  0
 33 29  2  0  0  0  0
 34 30  1  0  0  0  0
 35 31  1  0  0  0  0
 36 32  1  0  0  0  0
 37 36  1  0  0  0  0
 38 37  1  0  0  0  0
 39 40  1  0  0  0  0
 39 38  1  0  0  0  0
 40 41  1  0  0  0  0
 41 36  1  0  0  0  0
M  END
>  <minimizedAffinity>
-5.78193712

>  <minimizedRMSD>
0.431448966

$$$$
