
 OpenBabel03232520503D

 30 32  0  0  1  0  0  0  0  0999 V2000
   46.2330   33.5290   45.6940 C   0  0  2  0  0  0  0  0  0  0  0  0
   45.0650   34.4830   45.8210 C   0  0  0  0  0  0  0  0  0  0  0  0
   44.7850   35.3100   44.6680 C   0  0  0  0  0  0  0  0  0  0  0  0
   45.5950   35.2180   43.4540 C   0  0  1  0  0  0  0  0  0  0  0  0
   46.7340   34.2710   43.4700 C   0  0  0  0  0  0  0  0  0  0  0  0
   46.3830   33.0600   44.2810 C   0  0  0  0  0  0  0  0  0  0  0  0
   47.1120   34.1630   45.9590 H   0  0  0  0  0  0  0  0  0  0  0  0
   44.4010   34.6500   46.6410 H   0  0  0  0  0  0  0  0  0  0  0  0
   43.9760   35.9920   44.7140 H   0  0  0  0  0  0  0  0  0  0  0  0
   46.0610   36.2400   43.3300 H   0  0  0  0  0  0  0  0  0  0  0  0
   46.9720   33.9160   42.4460 H   0  0  0  0  0  0  0  0  0  0  0  0
   47.6270   34.7340   43.9480 H   0  0  0  0  0  0  0  0  0  0  0  0
   45.4900   32.5230   43.9280 H   0  0  0  0  0  0  0  0  0  0  0  0
   47.2690   32.3760   44.2700 H   0  0  0  0  0  0  0  0  0  0  0  0
   45.2710   32.6570   47.7930 C   0  0  0  0  0  0  0  0  0  0  0  0
   46.0790   32.4300   46.6780 C   0  0  0  0  0  0  0  0  0  0  0  0
   46.7280   31.1710   46.5380 C   0  0  0  0  0  0  0  0  0  0  0  0
   46.5260   30.2500   47.5050 N   0  0  0  0  0  0  0  0  0  0  0  0
   45.7350   30.4940   48.5790 C   0  0  0  0  0  0  0  0  0  0  0  0
   45.1130   31.6870   48.7240 N   0  0  0  0  0  0  0  0  0  0  0  0
   44.7490   33.5860   47.9620 H   0  0  0  0  0  0  0  0  0  0  0  0
   47.3550   30.9740   45.6860 H   0  0  0  0  0  0  0  0  0  0  0  0
   45.6260   29.7000   49.3100 H   0  0  0  0  0  0  0  0  0  0  0  0
   44.7180   35.0220   42.3160 N   0  0  0  0  0  0  0  0  0  0  0  0
   43.4400   35.4050   42.3480 N   0  0  0  0  0  0  0  0  0  0  0  0
   42.8280   35.1310   41.2040 C   0  0  0  0  0  0  0  0  0  0  0  0
   41.7900   35.3590   41.0210 H   0  0  0  0  0  0  0  0  0  0  0  0
   43.7390   34.5330   40.3580 C   0  0  0  0  0  0  0  0  0  0  0  0
   44.9010   34.4870   41.0940 C   0  0  0  0  0  0  0  0  0  0  0  0
   45.8590   34.0890   40.7860 H   0  0  0  0  0  0  0  0  0  0  0  0
  1  2  1  0  0  0  0
  1  7  1  1  0  0  0
  1 16  1  0  0  0  0
  2  8  1  0  0  0  0
  3  9  1  0  0  0  0
  3  2  2  0  0  0  0
  4 10  1  6  0  0  0
  4  5  1  0  0  0  0
  4  3  1  0  0  0  0
  5 12  1  0  0  0  0
  5  6  1  0  0  0  0
  6  1  1  0  0  0  0
 11  5  1  0  0  0  0
 13  6  1  0  0  0  0
 14  6  1  0  0  0  0
 15 21  1  0  0  0  0
 15 20  1  0  0  0  0
 16 15  2  0  0  0  0
 17 16  1  0  0  0  0
 17 18  2  0  0  0  0
 18 19  1  0  0  0  0
 19 20  2  0  0  0  0
 19 23  1  0  0  0  0
 22 17  1  0  0  0  0
 24 25  1  0  0  0  0
 24  4  1  0  0  0  0
 26 25  2  0  0  0  0
 27 26  1  0  0  0  0
 28 29  2  0  0  0  0
 28 26  1  0  0  0  0
 29 24  1  0  0  0  0
 30 29  1  0  0  0  0
M  END
>  <minimizedAffinity>
-5.11967516

>  <minimizedRMSD>
0.796431363

$$$$
