
 OpenBabel03232521013D

 41 44  0  0  1  0  0  0  0  0999 V2000
   45.4870   32.8920   47.3720 C   0  0  0  0  0  0  0  0  0  0  0  0
   45.9620   32.6550   46.1250 C   0  0  0  0  0  0  0  0  0  0  0  0
   46.1790   31.3050   45.8300 C   0  0  0  0  0  0  0  0  0  0  0  0
   45.9410   30.2940   46.7040 N   0  0  0  0  0  0  0  0  0  0  0  0
   45.4550   30.5890   47.9700 C   0  0  0  0  0  0  0  0  0  0  0  0
   45.2430   31.8650   48.2690 N   0  0  0  0  0  0  0  0  0  0  0  0
   45.2070   29.5600   48.9080 N   0  0  0  0  0  0  0  0  0  0  0  0
   45.2900   33.9000   47.7030 H   0  0  0  0  0  0  0  0  0  0  0  0
   44.3830   28.9130   48.7710 H   0  0  0  0  0  0  0  0  0  0  0  0
   45.9050   29.5400   49.6920 H   0  0  0  0  0  0  0  0  0  0  0  0
   46.1740   33.6270   45.1050 C   0  0  2  0  0  0  0  0  0  0  0  0
   44.9610   34.7090   45.3990 C   0  0  0  0  0  0  0  0  0  0  0  0
   44.6930   35.6650   44.3610 C   0  0  0  0  0  0  0  0  0  0  0  0
   45.4560   35.6210   43.1080 C   0  0  1  0  0  0  0  0  0  0  0  0
   46.5120   34.6210   43.0020 C   0  0  0  0  0  0  0  0  0  0  0  0
   46.0920   33.3710   43.7400 C   0  0  0  0  0  0  0  0  0  0  0  0
   46.9520   34.3780   45.4390 H   0  0  0  0  0  0  0  0  0  0  0  0
   44.3100   34.8310   46.2570 H   0  0  0  0  0  0  0  0  0  0  0  0
   43.9220   36.3800   44.5140 H   0  0  0  0  0  0  0  0  0  0  0  0
   45.8750   36.6310   42.9190 H   0  0  0  0  0  0  0  0  0  0  0  0
   47.4660   34.9670   43.4630 H   0  0  0  0  0  0  0  0  0  0  0  0
   46.7070   34.4310   41.9060 H   0  0  0  0  0  0  0  0  0  0  0  0
   46.9250   32.7260   43.3560 H   0  0  0  0  0  0  0  0  0  0  0  0
   45.1060   33.0130   43.3760 H   0  0  0  0  0  0  0  0  0  0  0  0
   44.4030   35.3760   41.9850 C   0  0  0  0  0  0  0  0  0  0  0  0
   43.3250   34.6240   42.4170 F   0  0  0  0  0  0  0  0  0  0  0  0
   43.8970   36.6270   41.6460 F   0  0  0  0  0  0  0  0  0  0  0  0
   45.0300   34.8720   40.8610 F   0  0  0  0  0  0  0  0  0  0  0  0
   46.7380   30.6280   44.6740 C   0  0  0  0  0  0  0  0  0  0  0  0
   46.3760   29.7020   43.7490 C   0  0  0  0  0  0  0  0  0  0  0  0
   47.4660   29.4720   42.9040 C   0  0  0  0  0  0  0  0  0  0  0  0
   48.4380   30.2680   43.3520 N   0  0  0  0  0  0  0  0  0  0  0  0
   48.0320   30.9570   44.3920 N   0  0  0  0  0  0  0  0  0  0  0  0
   45.3730   29.3140   43.8070 H   0  0  0  0  0  0  0  0  0  0  0  0
   47.3970   28.7640   42.0910 H   0  0  0  0  0  0  0  0  0  0  0  0
   49.7690   30.3240   42.7270 C   0  0  0  0  0  3  0  0  0  0  0  0
   49.6930   29.5560   41.4640 C   0  0  0  0  0  2  0  0  0  0  0  0
   50.3500   30.1370   40.2650 C   0  0  0  0  0  2  0  0  0  0  0  0
   50.1040   31.6480   40.1900 C   0  0  0  0  0  2  0  0  0  0  0  0
   50.8750   32.1780   41.3910 C   0  0  0  0  0  2  0  0  0  0  0  0
   50.2050   31.7300   42.6370 C   0  0  0  0  0  2  0  0  0  0  0  0
  1  8  1  0  0  0  0
  1  6  1  0  0  0  0
  2  1  2  0  0  0  0
  3  2  1  0  0  0  0
  3  4  2  0  0  0  0
  4  5  1  0  0  0  0
  5  6  2  0  0  0  0
  5  7  1  0  0  0  0
  7 10  1  0  0  0  0
  9  7  1  0  0  0  0
 11 12  1  0  0  0  0
 11 17  1  1  0  0  0
 11  2  1  0  0  0  0
 12 18  1  0  0  0  0
 13 19  1  0  0  0  0
 13 12  2  0  0  0  0
 14 20  1  6  0  0  0
 14 13  1  0  0  0  0
 15 14  1  0  0  0  0
 15 21  1  0  0  0  0
 15 16  1  0  0  0  0
 16 11  1  0  0  0  0
 22 15  1  0  0  0  0
 23 16  1  0  0  0  0
 24 16  1  0  0  0  0
 25 26  1  0  0  0  0
 25 14  1  0  0  0  0
 27 25  1  0  0  0  0
 28 25  1  0  0  0  0
 29  3  1  0  0  0  0
 30 34  1  0  0  0  0
 30 29  1  0  0  0  0
 31 32  1  0  0  0  0
 31 30  2  0  0  0  0
 32 33  1  0  0  0  0
 33 29  2  0  0  0  0
 35 31  1  0  0  0  0
 36 32  1  0  0  0  0
 37 36  1  0  0  0  0
 38 37  1  0  0  0  0
 39 38  1  0  0  0  0
 39 40  1  0  0  0  0
 40 41  1  0  0  0  0
 41 36  1  0  0  0  0
M  END
>  <minimizedAffinity>
-6.00617886

>  <minimizedRMSD>
0.75270474

$$$$
