
 OpenBabel03232521003D

 41 44  0  0  1  0  0  0  0  0999 V2000
   45.4060   32.9130   47.4160 C   0  0  0  0  0  0  0  0  0  0  0  0
   45.9420   32.6640   46.1950 C   0  0  0  0  0  0  0  0  0  0  0  0
   46.2130   31.3160   45.9420 C   0  0  0  0  0  0  0  0  0  0  0  0
   45.9690   30.3170   46.8280 N   0  0  0  0  0  0  0  0  0  0  0  0
   45.4200   30.6240   48.0650 C   0  0  0  0  0  0  0  0  0  0  0  0
   45.1550   31.8990   48.3250 N   0  0  0  0  0  0  0  0  0  0  0  0
   45.1640   29.6080   49.0160 N   0  0  0  0  0  0  0  0  0  0  0  0
   45.1630   33.9220   47.7140 H   0  0  0  0  0  0  0  0  0  0  0  0
   44.3670   28.9320   48.8590 H   0  0  0  0  0  0  0  0  0  0  0  0
   45.8280   29.6290   49.8280 H   0  0  0  0  0  0  0  0  0  0  0  0
   46.1660   33.6200   45.1630 C   0  0  2  0  0  0  0  0  0  0  0  0
   44.9540   34.7100   45.4290 C   0  0  0  0  0  0  0  0  0  0  0  0
   44.7000   35.6510   44.3730 C   0  0  0  0  0  0  0  0  0  0  0  0
   45.4750   35.5850   43.1290 C   0  0  1  0  0  0  0  0  0  0  0  0
   46.5290   34.5810   43.0490 C   0  0  0  0  0  0  0  0  0  0  0  0
   46.0970   33.3440   43.8010 C   0  0  0  0  0  0  0  0  0  0  0  0
   46.9440   34.3730   45.4930 H   0  0  0  0  0  0  0  0  0  0  0  0
   44.2960   34.8470   46.2770 H   0  0  0  0  0  0  0  0  0  0  0  0
   43.9300   36.3710   44.5070 H   0  0  0  0  0  0  0  0  0  0  0  0
   45.9000   36.5910   42.9290 H   0  0  0  0  0  0  0  0  0  0  0  0
   47.4790   34.9300   43.5140 H   0  0  0  0  0  0  0  0  0  0  0  0
   46.7340   34.3740   41.9580 H   0  0  0  0  0  0  0  0  0  0  0  0
   46.9320   32.6900   43.4350 H   0  0  0  0  0  0  0  0  0  0  0  0
   45.1140   32.9830   43.4330 H   0  0  0  0  0  0  0  0  0  0  0  0
   44.4320   35.3260   42.0000 C   0  0  0  0  0  0  0  0  0  0  0  0
   43.3690   34.5480   42.4210 F   0  0  0  0  0  0  0  0  0  0  0  0
   43.9010   36.5690   41.6670 F   0  0  0  0  0  0  0  0  0  0  0  0
   45.0750   34.8440   40.8750 F   0  0  0  0  0  0  0  0  0  0  0  0
   46.8420   30.6320   44.8260 C   0  0  0  0  0  0  0  0  0  0  0  0
   46.5100   29.7800   43.8220 C   0  0  0  0  0  0  0  0  0  0  0  0
   47.6670   29.4780   43.0990 C   0  0  0  0  0  0  0  0  0  0  0  0
   48.6470   30.1600   43.6930 N   0  0  0  0  0  0  0  0  0  0  0  0
   48.1850   30.8460   44.7110 N   0  0  0  0  0  0  0  0  0  0  0  0
   45.4750   29.4880   43.7460 H   0  0  0  0  0  0  0  0  0  0  0  0
   47.6320   28.8100   42.2490 H   0  0  0  0  0  0  0  0  0  0  0  0
   50.0420   30.1120   43.2280 C   0  0  0  0  0  3  0  0  0  0  0  0
   50.1980   28.8740   42.4340 C   0  0  0  0  0  2  0  0  0  0  0  0
   50.9670   28.9620   41.1660 C   0  0  0  0  0  2  0  0  0  0  0  0
   50.6190   30.2490   40.4100 C   0  0  0  0  0  2  0  0  0  0  0  0
   51.1760   31.3380   41.3150 C   0  0  0  0  0  2  0  0  0  0  0  0
   50.3790   31.3860   42.5660 C   0  0  0  0  0  2  0  0  0  0  0  0
  1  8  1  0  0  0  0
  1  6  1  0  0  0  0
  2  1  2  0  0  0  0
  3  2  1  0  0  0  0
  3  4  2  0  0  0  0
  4  5  1  0  0  0  0
  5  6  2  0  0  0  0
  5  7  1  0  0  0  0
  7 10  1  0  0  0  0
  9  7  1  0  0  0  0
 11 12  1  0  0  0  0
 11 17  1  1  0  0  0
 11  2  1  0  0  0  0
 12 18  1  0  0  0  0
 13 19  1  0  0  0  0
 13 12  2  0  0  0  0
 14 20  1  6  0  0  0
 14 13  1  0  0  0  0
 15 14  1  0  0  0  0
 15 21  1  0  0  0  0
 15 16  1  0  0  0  0
 16 11  1  0  0  0  0
 22 15  1  0  0  0  0
 23 16  1  0  0  0  0
 24 16  1  0  0  0  0
 25 26  1  0  0  0  0
 25 14  1  0  0  0  0
 27 25  1  0  0  0  0
 28 25  1  0  0  0  0
 29  3  1  0  0  0  0
 30 29  1  0  0  0  0
 31 32  1  0  0  0  0
 31 30  2  0  0  0  0
 32 33  1  0  0  0  0
 33 29  2  0  0  0  0
 34 30  1  0  0  0  0
 35 31  1  0  0  0  0
 36 32  1  0  0  0  0
 37 36  1  0  0  0  0
 38 37  1  0  0  0  0
 39 38  1  0  0  0  0
 39 40  1  0  0  0  0
 40 41  1  0  0  0  0
 41 36  1  0  0  0  0
M  END
>  <minimizedAffinity>
-5.81653595

>  <minimizedRMSD>
0.330748051

$$$$
