
 OpenBabel03232521013D

 41 44  0  0  1  0  0  0  0  0999 V2000
   45.6170   32.8550   47.4100 C   0  0  0  0  0  0  0  0  0  0  0  0
   46.0050   32.5900   46.1370 C   0  0  0  0  0  0  0  0  0  0  0  0
   46.1110   31.2300   45.8310 C   0  0  0  0  0  0  0  0  0  0  0  0
   45.8510   30.2340   46.7160 N   0  0  0  0  0  0  0  0  0  0  0  0
   45.4580   30.5570   48.0070 C   0  0  0  0  0  0  0  0  0  0  0  0
   45.3510   31.8440   48.3180 N   0  0  0  0  0  0  0  0  0  0  0  0
   45.1910   29.5440   48.9570 N   0  0  0  0  0  0  0  0  0  0  0  0
   45.5080   33.8730   47.7510 H   0  0  0  0  0  0  0  0  0  0  0  0
   44.3170   28.9560   48.8650 H   0  0  0  0  0  0  0  0  0  0  0  0
   45.9280   29.4720   49.7010 H   0  0  0  0  0  0  0  0  0  0  0  0
   46.2270   33.5500   45.1080 C   0  0  2  0  0  0  0  0  0  0  0  0
   45.0060   34.6310   45.3710 C   0  0  0  0  0  0  0  0  0  0  0  0
   44.7490   35.5720   44.3160 C   0  0  0  0  0  0  0  0  0  0  0  0
   45.5300   35.5140   43.0750 C   0  0  1  0  0  0  0  0  0  0  0  0
   46.5910   34.5180   42.9980 C   0  0  0  0  0  0  0  0  0  0  0  0
   46.1660   33.2760   43.7450 C   0  0  0  0  0  0  0  0  0  0  0  0
   46.9970   34.3080   45.4430 H   0  0  0  0  0  0  0  0  0  0  0  0
   44.3430   34.7610   46.2170 H   0  0  0  0  0  0  0  0  0  0  0  0
   43.9740   36.2860   44.4490 H   0  0  0  0  0  0  0  0  0  0  0  0
   45.9480   36.5230   42.8790 H   0  0  0  0  0  0  0  0  0  0  0  0
   47.5370   34.8730   43.4670 H   0  0  0  0  0  0  0  0  0  0  0  0
   46.8020   34.3140   41.9070 H   0  0  0  0  0  0  0  0  0  0  0  0
   47.0060   32.6290   43.3820 H   0  0  0  0  0  0  0  0  0  0  0  0
   45.1860   32.9100   43.3720 H   0  0  0  0  0  0  0  0  0  0  0  0
   44.4940   35.2500   41.9410 C   0  0  0  0  0  0  0  0  0  0  0  0
   43.4530   34.4330   42.3460 F   0  0  0  0  0  0  0  0  0  0  0  0
   43.9270   36.4840   41.6360 F   0  0  0  0  0  0  0  0  0  0  0  0
   45.1490   34.8120   40.8050 F   0  0  0  0  0  0  0  0  0  0  0  0
   46.5570   30.5210   44.6450 C   0  0  0  0  0  0  0  0  0  0  0  0
   46.0330   29.9490   43.5310 C   0  0  0  0  0  0  0  0  0  0  0  0
   47.0770   29.3820   42.7940 C   0  0  0  0  0  0  0  0  0  0  0  0
   48.1850   29.6360   43.4910 N   0  0  0  0  0  0  0  0  0  0  0  0
   47.9030   30.3050   44.5840 N   0  0  0  0  0  0  0  0  0  0  0  0
   44.9660   30.0160   43.3970 H   0  0  0  0  0  0  0  0  0  0  0  0
   46.8830   28.8690   41.8620 H   0  0  0  0  0  0  0  0  0  0  0  0
   49.5190   29.1990   43.0490 C   0  0  0  0  0  3  0  0  0  0  0  0
   50.3830   30.3990   43.0140 C   0  0  0  0  0  2  0  0  0  0  0  0
   51.7630   30.2680   43.5510 C   0  0  0  0  0  2  0  0  0  0  0  0
   51.7680   29.4280   44.8320 C   0  0  0  0  0  2  0  0  0  0  0  0
   51.3780   28.0440   44.3340 C   0  0  0  0  0  2  0  0  0  0  0  0
   49.9640   28.0680   43.8840 C   0  0  0  0  0  2  0  0  0  0  0  0
  1  8  1  0  0  0  0
  1  6  1  0  0  0  0
  2  1  2  0  0  0  0
  3  2  1  0  0  0  0
  3  4  2  0  0  0  0
  4  5  1  0  0  0  0
  5  6  2  0  0  0  0
  5  7  1  0  0  0  0
  7 10  1  0  0  0  0
  9  7  1  0  0  0  0
 11 12  1  0  0  0  0
 11 17  1  1  0  0  0
 11  2  1  0  0  0  0
 12 18  1  0  0  0  0
 13 19  1  0  0  0  0
 13 12  2  0  0  0  0
 14 20  1  6  0  0  0
 14 13  1  0  0  0  0
 15 14  1  0  0  0  0
 15 21  1  0  0  0  0
 15 16  1  0  0  0  0
 16 11  1  0  0  0  0
 22 15  1  0  0  0  0
 23 16  1  0  0  0  0
 24 16  1  0  0  0  0
 25 26  1  0  0  0  0
 25 14  1  0  0  0  0
 27 25  1  0  0  0  0
 28 25  1  0  0  0  0
 29  3  1  0  0  0  0
 30 29  1  0  0  0  0
 31 32  1  0  0  0  0
 31 30  2  0  0  0  0
 32 33  1  0  0  0  0
 33 29  2  0  0  0  0
 34 30  1  0  0  0  0
 35 31  1  0  0  0  0
 36 32  1  0  0  0  0
 36 41  1  0  0  0  0
 37 36  1  0  0  0  0
 37 38  1  0  0  0  0
 38 39  1  0  0  0  0
 40 39  1  0  0  0  0
 41 40  1  0  0  0  0
M  END
>  <minimizedAffinity>
-5.72930431

>  <minimizedRMSD>
0.492322952

$$$$
