
 OpenBabel03232520093D

 21 23  0  0  0  0  0  0  0  0999 V2000
   46.0550   32.9040   45.9440 C   0  0  0  0  0  0  0  0  0  0  0  0
   45.7220   32.6370   47.2550 C   0  0  0  0  0  0  0  0  0  0  0  0
   46.1930   31.5070   47.8400 C   0  0  0  0  0  0  0  0  0  0  0  0
   46.9930   30.6940   47.0450 C   0  0  0  0  0  0  0  0  0  0  0  0
   47.0710   31.5380   45.4720 S   0  0  0  0  0  0  0  0  0  0  0  0
   45.0830   33.3510   47.7830 H   0  0  0  0  0  0  0  0  0  0  0  0
   45.9940   31.2050   48.8540 H   0  0  0  0  0  0  0  0  0  0  0  0
   44.4740   36.0060   44.7700 C   0  0  0  0  0  0  0  0  0  0  0  0
   45.0310   36.1210   43.4650 C   0  0  0  0  0  0  0  0  0  0  0  0
   45.9340   35.1220   43.0330 C   0  0  0  0  0  0  0  0  0  0  0  0
   46.2240   34.1020   43.8930 N   0  0  0  0  0  0  0  0  0  0  0  0
   45.6720   34.0340   45.1200 C   0  0  0  0  0  0  0  0  0  0  0  0
   44.8070   34.9700   45.5620 N   0  0  0  0  0  0  0  0  0  0  0  0
   43.7820   36.7790   45.0890 H   0  0  0  0  0  0  0  0  0  0  0  0
   44.7960   36.9300   42.7940 H   0  0  0  0  0  0  0  0  0  0  0  0
   46.3890   35.1560   42.0520 H   0  0  0  0  0  0  0  0  0  0  0  0
   47.6240   29.4360   47.4160 N   0  0  0  0  0  0  0  0  0  0  0  0
   47.1160   28.2050   47.2220 C   0  0  0  0  0  0  0  0  0  0  0  0
   48.0260   27.3550   47.7140 N   0  0  0  0  0  0  0  0  0  0  0  0
   49.0880   28.0180   48.2090 C   0  0  0  0  0  0  0  0  0  0  0  0
   48.7990   29.3380   48.0040 N   0  0  0  0  0  0  0  0  0  0  0  0
  1  2  2  0  0  0  0
  2  6  1  0  0  0  0
  2  3  1  0  0  0  0
  3  7  1  0  0  0  0
  4 17  1  0  0  0  0
  4  3  2  0  0  0  0
  5  1  1  0  0  0  0
  5  4  1  0  0  0  0
  8 14  1  0  0  0  0
  8 13  1  0  0  0  0
  9  8  2  0  0  0  0
 10  9  1  0  0  0  0
 10 11  2  0  0  0  0
 11 12  1  0  0  0  0
 12 13  2  0  0  0  0
 12  1  1  0  0  0  0
 15  9  1  0  0  0  0
 16 10  1  0  0  0  0
 17 21  1  0  0  0  0
 18 17  1  0  0  0  0
 18 19  2  0  0  0  0
 19 20  1  0  0  0  0
 21 20  2  0  0  0  0
M  END
>  <minimizedAffinity>
-4.36413002

>  <minimizedRMSD>
1.50467229

$$$$
