
 OpenBabel03232520233D

 28 31  0  0  0  0  0  0  0  0999 V2000
   45.0930   33.8100   41.2990 C   0  0  0  0  0  0  0  0  0  0  0  0
   45.8170   34.4500   42.3080 C   0  0  0  0  0  0  0  0  0  0  0  0
   47.0430   34.7460   41.8430 N   0  0  0  0  0  0  0  0  0  0  0  0
   47.1150   34.3110   40.5620 C   0  0  0  0  0  0  0  0  0  0  0  0
   48.1530   34.3770   39.6590 C   0  0  0  0  0  0  0  0  0  0  0  0
   47.9580   33.8510   38.4100 C   0  0  0  0  0  0  0  0  0  0  0  0
   46.7860   33.2480   37.9710 C   0  0  0  0  0  0  0  0  0  0  0  0
   45.7900   33.2160   38.9270 C   0  0  0  0  0  0  0  0  0  0  0  0
   45.9100   33.7160   40.1830 C   0  0  0  0  0  0  0  0  0  0  0  0
   47.7830   35.2270   42.3960 H   0  0  0  0  0  0  0  0  0  0  0  0
   49.0770   34.8350   39.9540 H   0  0  0  0  0  0  0  0  0  0  0  0
   48.8130   33.9270   37.7220 H   0  0  0  0  0  0  0  0  0  0  0  0
   46.6850   32.8460   36.9680 H   0  0  0  0  0  0  0  0  0  0  0  0
   44.8370   32.7500   38.6380 H   0  0  0  0  0  0  0  0  0  0  0  0
   41.3690   33.6710   41.0850 C   0  0  0  0  0  0  0  0  0  0  0  0
   42.6910   34.1630   40.9920 C   0  0  0  0  0  0  0  0  0  0  0  0
   43.7210   33.3220   41.3880 C   0  0  0  0  0  0  0  0  0  0  0  0
   43.4160   32.0600   41.8500 N   0  0  0  0  0  0  0  0  0  0  0  0
   42.1300   31.6400   41.9180 C   0  0  0  0  0  0  0  0  0  0  0  0
   41.1080   32.4300   41.5420 N   0  0  0  0  0  0  0  0  0  0  0  0
   40.5130   34.2780   40.7910 H   0  0  0  0  0  0  0  0  0  0  0  0
   42.8540   35.1660   40.6200 H   0  0  0  0  0  0  0  0  0  0  0  0
   42.0380   30.6230   42.3000 H   0  0  0  0  0  0  0  0  0  0  0  0
   45.3610   34.7520   43.6220 N   0  0  0  0  0  0  0  0  0  0  0  0
   44.8860   36.0220   43.7650 C   0  0  0  0  0  0  0  0  0  0  0  0
   44.4780   36.2070   45.0490 N   0  0  0  0  0  0  0  0  0  0  0  0
   44.7120   35.0320   45.6850 C   0  0  0  0  0  0  0  0  0  0  0  0
   45.2540   34.1480   44.7980 N   0  0  0  0  0  0  0  0  0  0  0  0
  1 17  1  0  0  0  0
  1  2  2  0  0  0  0
  2 24  1  0  0  0  0
  3  2  1  0  0  0  0
  3 10  1  0  0  0  0
  4  3  1  0  0  0  0
  5 11  1  0  0  0  0
  5  4  2  0  0  0  0
  6  5  1  0  0  0  0
  7  6  2  0  0  0  0
  7  8  1  0  0  0  0
  8  9  2  0  0  0  0
  9  4  1  0  0  0  0
  9  1  1  0  0  0  0
 12  6  1  0  0  0  0
 13  7  1  0  0  0  0
 14  8  1  0  0  0  0
 15 20  1  0  0  0  0
 16 15  2  0  0  0  0
 16 17  1  0  0  0  0
 17 18  2  0  0  0  0
 18 19  1  0  0  0  0
 19 23  1  0  0  0  0
 20 19  2  0  0  0  0
 21 15  1  0  0  0  0
 22 16  1  0  0  0  0
 24 25  1  0  0  0  0
 24 28  1  0  0  0  0
 25 26  2  0  0  0  0
 26 27  1  0  0  0  0
 28 27  2  0  0  0  0
M  END
>  <minimizedAffinity>
-5.33413076

>  <minimizedRMSD>
3.87276483

$$$$
