
 OpenBabel03232518163D

 27 29  0  0  1  0  0  0  0  0999 V2000
   43.9760   34.9190   41.5960 C   0  0  2  0  0  0  0  0  0  0  0  0
   42.4410   34.7620   41.4440 C   0  0  0  0  0  0  0  0  0  0  0  0
   42.3870   35.1200   39.9410 C   0  0  1  0  0  0  0  0  0  0  0  0
   43.4710   34.2060   39.4120 C   0  0  0  0  0  0  0  0  0  0  0  0
   44.4480   33.9900   40.5660 C   0  0  0  0  0  0  0  0  0  0  0  0
   44.1430   35.9830   41.3740 H   0  0  0  0  0  0  0  0  0  0  0  0
   42.1650   33.7130   41.6020 H   0  0  0  0  0  0  0  0  0  0  0  0
   41.9360   35.4990   42.0650 H   0  0  0  0  0  0  0  0  0  0  0  0
   42.7520   36.1440   39.8380 H   0  0  0  0  0  0  0  0  0  0  0  0
   43.9620   34.6260   38.5320 H   0  0  0  0  0  0  0  0  0  0  0  0
   43.0170   33.2360   39.1450 H   0  0  0  0  0  0  0  0  0  0  0  0
   44.4090   32.9450   40.9300 H   0  0  0  0  0  0  0  0  0  0  0  0
   45.4780   34.1670   40.2000 H   0  0  0  0  0  0  0  0  0  0  0  0
   44.2270   35.7200   43.8940 C   0  0  0  0  0  0  0  0  0  0  0  0
   44.4360   34.6730   42.9650 C   0  0  0  0  0  0  0  0  0  0  0  0
   45.0840   33.4780   43.3900 C   0  0  0  0  0  0  0  0  0  0  0  0
   45.4690   33.4180   44.6820 N   0  0  0  0  0  0  0  0  0  0  0  0
   45.2640   34.4320   45.5680 C   0  0  0  0  0  0  0  0  0  0  0  0
   44.6440   35.5790   45.1740 N   0  0  0  0  0  0  0  0  0  0  0  0
   43.7350   36.6270   43.5740 H   0  0  0  0  0  0  0  0  0  0  0  0
   45.2250   32.7030   42.6530 H   0  0  0  0  0  0  0  0  0  0  0  0
   45.5980   34.3200   46.5930 H   0  0  0  0  0  0  0  0  0  0  0  0
   41.0940   34.8880   39.3780 N   0  0  0  0  0  0  0  0  0  0  0  0
   39.9400   34.8580   40.0690 C   0  0  0  0  0  0  0  0  0  0  0  0
   38.9890   34.6130   39.1580 N   0  0  0  0  0  0  0  0  0  0  0  0
   39.5720   34.4990   37.9410 C   0  0  0  0  0  0  0  0  0  0  0  0
   40.9000   34.6730   38.0860 N   0  0  0  0  0  0  0  0  0  0  0  0
  1  6  1  6  0  0  0
  1 15  1  0  0  0  0
  2  1  1  0  0  0  0
  2  7  1  0  0  0  0
  2  8  1  0  0  0  0
  3  9  1  6  0  0  0
  3  2  1  0  0  0  0
  4  3  1  0  0  0  0
  4  5  1  0  0  0  0
  5 12  1  0  0  0  0
  5  1  1  0  0  0  0
 10  4  1  0  0  0  0
 11  4  1  0  0  0  0
 13  5  1  0  0  0  0
 14 19  1  0  0  0  0
 15 16  1  0  0  0  0
 15 14  2  0  0  0  0
 16 17  2  0  0  0  0
 17 18  1  0  0  0  0
 18 22  1  0  0  0  0
 19 18  2  0  0  0  0
 20 14  1  0  0  0  0
 21 16  1  0  0  0  0
 23  3  1  0  0  0  0
 23 24  1  0  0  0  0
 25 24  2  0  0  0  0
 26 27  2  0  0  0  0
 26 25  1  0  0  0  0
 27 23  1  0  0  0  0
M  END
>  <minimizedAffinity>
-4.74045801

>  <minimizedRMSD>
0.470883608

$$$$
