REMARK  Name = 
REMARK  4 active torsions:
REMARK  status: ('A' for Active; 'I' for Inactive)
REMARK    1  A    between atoms: C_1  and  C_8
REMARK    2  A    between atoms: C_4  and  C_19
REMARK    3  A    between atoms: C_9  and  C_14
REMARK    4  A    between atoms: N_17  and  C_36
REMARK                            x       y       z     vdW  Elec       q    Type
REMARK                         _______ _______ _______ _____ _____    ______ ____
ROOT
ATOM      1  C   UNL     1      45.404  32.887  47.530  0.00  0.00    +0.000 A 
ATOM      2  C   UNL     1      45.923  32.640  46.301  0.00  0.00    +0.000 A 
ATOM      3  C   UNL     1      46.153  31.285  46.029  0.00  0.00    +0.000 A 
ATOM      4  N   UNL     1      45.886  30.282  46.903  0.00  0.00    +0.000 NA
ATOM      5  C   UNL     1      45.355  30.587  48.148  0.00  0.00    +0.000 A 
ATOM      6  N   UNL     1      45.130  31.867  48.428  0.00  0.00    +0.000 NA
ATOM      7  N   UNL     1      45.072  29.567  49.083  0.00  0.00    +0.000 N 
ATOM      8  H   UNL     1      45.192  33.895  47.848  0.00  0.00    +0.000 HD
ATOM      9  H   UNL     1      44.607  28.700  48.700  0.00  0.00    +0.000 HD
ATOM     10  H   UNL     1      45.270  29.576  50.093  0.00  0.00    +0.000 HD
ENDROOT
BRANCH   2  11
ATOM     11  C   UNL     1      46.164  33.601  45.279  0.00  0.00    +0.000 C 
ATOM     12  C   UNL     1      44.925  34.665  45.499  0.00  0.00    +0.000 C 
ATOM     13  C   UNL     1      44.692  35.595  44.431  0.00  0.00    +0.000 C 
ATOM     14  C   UNL     1      45.505  35.550  43.218  0.00  0.00    +0.000 C 
ATOM     15  C   UNL     1      46.586  34.567  43.173  0.00  0.00    +0.000 C 
ATOM     16  C   UNL     1      46.157  33.322  43.914  0.00  0.00    +0.000 C 
ATOM     17  H   UNL     1      46.920  34.364  45.630  0.00  0.00    +0.000 HD
ATOM     18  H   UNL     1      44.236  34.785  46.326  0.00  0.00    +0.000 HD
ATOM     19  H   UNL     1      43.911  36.299  44.526  0.00  0.00    +0.000 HD
ATOM     20  H   UNL     1      45.905  36.571  43.024  0.00  0.00    +0.000 HD
ATOM     21  H   UNL     1      46.758  34.324  42.083  0.00  0.00    +0.000 HD
ATOM     22  H   UNL     1      47.585  34.923  43.522  0.00  0.00    +0.000 HD
ATOM     23  H   UNL     1      47.029  32.693  43.596  0.00  0.00    +0.000 HD
ATOM     24  H   UNL     1      45.221  32.961  43.440  0.00  0.00    +0.000 HD
BRANCH  14  25
ATOM     25  C   UNL     1      44.511  35.264  42.052  0.00  0.00    +0.000 C 
ATOM     26  F   UNL     1      43.460  34.453  42.431  0.00  0.00    +0.000 F 
ATOM     27  F   UNL     1      43.950  36.490  41.707  0.00  0.00    +0.000 F 
ATOM     28  F   UNL     1      45.207  34.812  40.946  0.00  0.00    +0.000 F 
ENDBRANCH  14  25
ENDBRANCH   2  11
BRANCH   3  29
ATOM     29  C   UNL     1      46.753  30.599  44.898  0.00  0.00    +0.000 A 
ATOM     30  C   UNL     1      46.367  29.921  43.786  0.00  0.00    +0.000 A 
ATOM     31  C   UNL     1      47.520  29.468  43.128  0.00  0.00    +0.000 A 
ATOM     32  N   UNL     1      48.543  29.892  43.870  0.00  0.00    +0.000 N 
ATOM     33  N   UNL     1      48.116  30.560  44.915  0.00  0.00    +0.000 NA
ATOM     34  H   UNL     1      45.305  29.845  43.600  0.00  0.00    +0.000 HD
ATOM     35  H   UNL     1      47.335  28.910  42.223  0.00  0.00    +0.000 HD
BRANCH  32  36
ATOM     36  C   UNL     1      49.893  29.575  43.440  0.00  0.00    +0.000 C 
ATOM     37  C   UNL     1      50.930  30.402  44.116  0.00  0.00    +0.000 C 
ATOM     38  C   UNL     1      51.968  29.414  44.660  0.00  0.00    +0.000 C 
ATOM     39  C   UNL     1      51.757  28.192  43.786  0.00  0.00    +0.000 C 
ATOM     40  C   UNL     1      50.245  28.132  43.750  0.00  0.00    +0.000 C 
ENDBRANCH  32  36
ENDBRANCH   3  29
TORSDOF 4
