
 OpenBabel03232521013D

 40 43  0  0  1  0  0  0  0  0999 V2000
   45.4400   32.9290   47.5740 C   0  0  0  0  0  0  0  0  0  0  0  0
   45.9350   32.6500   46.3420 C   0  0  0  0  0  0  0  0  0  0  0  0
   46.1250   31.2850   46.0880 C   0  0  0  0  0  0  0  0  0  0  0  0
   45.8450   30.3030   46.9820 N   0  0  0  0  0  0  0  0  0  0  0  0
   45.3410   30.6410   48.2300 C   0  0  0  0  0  0  0  0  0  0  0  0
   45.1530   31.9310   48.4920 N   0  0  0  0  0  0  0  0  0  0  0  0
   45.0450   29.6440   49.1850 N   0  0  0  0  0  0  0  0  0  0  0  0
   45.2590   33.9470   47.8790 H   0  0  0  0  0  0  0  0  0  0  0  0
   44.5530   28.7830   48.8220 H   0  0  0  0  0  0  0  0  0  0  0  0
   45.2580   29.6630   50.1910 H   0  0  0  0  0  0  0  0  0  0  0  0
   46.1850   33.5880   45.3020 C   0  0  2  0  0  0  0  0  0  0  0  0
   44.9600   34.6710   45.5040 C   0  0  0  0  0  0  0  0  0  0  0  0
   44.7370   35.5840   44.4190 C   0  0  0  0  0  0  0  0  0  0  0  0
   45.5460   35.5060   43.2050 C   0  0  1  0  0  0  0  0  0  0  0  0
   46.6150   34.5080   43.1770 C   0  0  0  0  0  0  0  0  0  0  0  0
   46.1720   33.2830   43.9420 C   0  0  0  0  0  0  0  0  0  0  0  0
   46.9520   34.3480   45.6360 H   0  0  0  0  0  0  0  0  0  0  0  0
   44.2750   34.8160   46.3300 H   0  0  0  0  0  0  0  0  0  0  0  0
   43.9650   36.2990   44.5020 H   0  0  0  0  0  0  0  0  0  0  0  0
   45.9590   36.5180   42.9910 H   0  0  0  0  0  0  0  0  0  0  0  0
   46.7810   34.2430   42.0910 H   0  0  0  0  0  0  0  0  0  0  0  0
   47.6190   34.8580   43.5170 H   0  0  0  0  0  0  0  0  0  0  0  0
   47.0350   32.6370   43.6340 H   0  0  0  0  0  0  0  0  0  0  0  0
   45.2300   32.9250   43.4770 H   0  0  0  0  0  0  0  0  0  0  0  0
   44.5460   35.2100   42.0470 C   0  0  0  0  0  0  0  0  0  0  0  0
   43.5210   34.3670   42.4270 F   0  0  0  0  0  0  0  0  0  0  0  0
   43.9500   36.4260   41.7260 F   0  0  0  0  0  0  0  0  0  0  0  0
   45.2400   34.7920   40.9270 F   0  0  0  0  0  0  0  0  0  0  0  0
   46.6910   30.5660   44.9600 C   0  0  0  0  0  0  0  0  0  0  0  0
   46.2770   29.9640   43.8150 C   0  0  0  0  0  0  0  0  0  0  0  0
   47.3980   29.4030   43.1860 C   0  0  0  0  0  0  0  0  0  0  0  0
   48.4310   29.6910   43.9780 N   0  0  0  0  0  0  0  0  0  0  0  0
   48.0390   30.3750   45.0260 N   0  0  0  0  0  0  0  0  0  0  0  0
   45.2210   30.0120   43.5880 H   0  0  0  0  0  0  0  0  0  0  0  0
   47.1890   28.8930   42.2590 H   0  0  0  0  0  0  0  0  0  0  0  0
   49.7540   29.2370   43.5880 C   0  0  0  0  0  3  0  0  0  0  0  0
   50.4300   30.1580   42.6330 C   0  0  0  0  0  2  0  0  0  0  0  0
   51.8180   30.4330   43.2240 C   0  0  0  0  0  2  0  0  0  0  0  0
   52.0360   29.2380   44.1340 C   0  0  0  0  0  2  0  0  0  0  0  0
   50.6760   29.1330   44.7880 C   0  0  0  0  0  2  0  0  0  0  0  0
  1  8  1  0  0  0  0
  1  6  1  0  0  0  0
  2  1  2  0  0  0  0
  3  2  1  0  0  0  0
  3  4  2  0  0  0  0
  4  5  1  0  0  0  0
  5  6  2  0  0  0  0
  5  7  1  0  0  0  0
  7 10  1  0  0  0  0
  9  7  1  0  0  0  0
 11 12  1  0  0  0  0
 11 17  1  1  0  0  0
 11  2  1  0  0  0  0
 12 18  1  0  0  0  0
 13 19  1  0  0  0  0
 13 12  2  0  0  0  0
 14 20  1  6  0  0  0
 14 13  1  0  0  0  0
 15 14  1  0  0  0  0
 15 22  1  0  0  0  0
 15 16  1  0  0  0  0
 16 11  1  0  0  0  0
 21 15  1  0  0  0  0
 23 16  1  0  0  0  0
 24 16  1  0  0  0  0
 25 26  1  0  0  0  0
 25 14  1  0  0  0  0
 27 25  1  0  0  0  0
 28 25  1  0  0  0  0
 29 33  2  0  0  0  0
 29  3  1  0  0  0  0
 30 29  1  0  0  0  0
 31 30  2  0  0  0  0
 31 32  1  0  0  0  0
 32 33  1  0  0  0  0
 34 30  1  0  0  0  0
 35 31  1  0  0  0  0
 36 32  1  0  0  0  0
 36 40  1  0  0  0  0
 37 38  1  0  0  0  0
 37 36  1  0  0  0  0
 38 39  1  0  0  0  0
 39 40  1  0  0  0  0
M  END
>  <minimizedAffinity>
-5.86567068

>  <minimizedRMSD>
0.371548295

$$$$
