
 OpenBabel03232521013D

 40 43  0  0  1  0  0  0  0  0999 V2000
   45.3860   32.8700   47.4950 C   0  0  0  0  0  0  0  0  0  0  0  0
   45.9360   32.6280   46.2780 C   0  0  0  0  0  0  0  0  0  0  0  0
   46.1990   31.2770   46.0170 C   0  0  0  0  0  0  0  0  0  0  0  0
   45.9350   30.2730   46.8900 N   0  0  0  0  0  0  0  0  0  0  0  0
   45.3720   30.5720   48.1220 C   0  0  0  0  0  0  0  0  0  0  0  0
   45.1150   31.8480   48.3920 N   0  0  0  0  0  0  0  0  0  0  0  0
   45.0910   29.5500   49.0560 N   0  0  0  0  0  0  0  0  0  0  0  0
   45.1470   33.8740   47.8040 H   0  0  0  0  0  0  0  0  0  0  0  0
   44.6520   28.6720   48.6670 H   0  0  0  0  0  0  0  0  0  0  0  0
   45.2680   29.5670   50.0700 H   0  0  0  0  0  0  0  0  0  0  0  0
   46.1780   33.5900   45.2570 C   0  0  2  0  0  0  0  0  0  0  0  0
   44.9550   34.6690   45.4940 C   0  0  0  0  0  0  0  0  0  0  0  0
   44.7220   35.6050   44.4320 C   0  0  0  0  0  0  0  0  0  0  0  0
   45.5210   35.5550   43.2100 C   0  0  1  0  0  0  0  0  0  0  0  0
   46.5890   34.5580   43.1500 C   0  0  0  0  0  0  0  0  0  0  0  0
   46.1520   33.3160   43.8910 C   0  0  0  0  0  0  0  0  0  0  0  0
   46.9470   34.3420   45.6020 H   0  0  0  0  0  0  0  0  0  0  0  0
   44.2760   34.7940   46.3290 H   0  0  0  0  0  0  0  0  0  0  0  0
   43.9510   36.3190   44.5380 H   0  0  0  0  0  0  0  0  0  0  0  0
   45.9320   36.5710   43.0150 H   0  0  0  0  0  0  0  0  0  0  0  0
   46.7460   34.3170   42.0570 H   0  0  0  0  0  0  0  0  0  0  0  0
   47.5960   34.9000   43.4890 H   0  0  0  0  0  0  0  0  0  0  0  0
   47.0130   32.6770   43.5610 H   0  0  0  0  0  0  0  0  0  0  0  0
   45.2070   32.9690   43.4260 H   0  0  0  0  0  0  0  0  0  0  0  0
   44.5110   35.2850   42.0540 C   0  0  0  0  0  0  0  0  0  0  0  0
   43.4570   34.4820   42.4400 F   0  0  0  0  0  0  0  0  0  0  0  0
   43.9570   36.5190   41.7230 F   0  0  0  0  0  0  0  0  0  0  0  0
   45.1900   34.8340   40.9370 F   0  0  0  0  0  0  0  0  0  0  0  0
   46.8360   30.5990   44.9020 C   0  0  0  0  0  0  0  0  0  0  0  0
   46.4920   29.8410   43.8290 C   0  0  0  0  0  0  0  0  0  0  0  0
   47.6680   29.4660   43.1630 C   0  0  0  0  0  0  0  0  0  0  0  0
   48.6620   30.0130   43.8610 N   0  0  0  0  0  0  0  0  0  0  0  0
   48.1970   30.6850   44.8870 N   0  0  0  0  0  0  0  0  0  0  0  0
   45.4370   29.6600   43.6720 H   0  0  0  0  0  0  0  0  0  0  0  0
   47.5160   28.8540   42.2870 H   0  0  0  0  0  0  0  0  0  0  0  0
   50.0270   29.8010   43.4120 C   0  0  0  0  0  3  0  0  0  0  0  0
   50.1600   28.6550   42.4710 C   0  0  0  0  0  2  0  0  0  0  0  0
   50.9300   29.1930   41.2590 C   0  0  0  0  0  2  0  0  0  0  0  0
   51.6560   30.3960   41.8310 C   0  0  0  0  0  2  0  0  0  0  0  0
   50.5570   31.0130   42.6690 C   0  0  0  0  0  2  0  0  0  0  0  0
  1  8  1  0  0  0  0
  1  6  1  0  0  0  0
  2  1  2  0  0  0  0
  3  2  1  0  0  0  0
  3  4  2  0  0  0  0
  4  5  1  0  0  0  0
  5  6  2  0  0  0  0
  5  7  1  0  0  0  0
  7 10  1  0  0  0  0
  9  7  1  0  0  0  0
 11 12  1  0  0  0  0
 11 17  1  1  0  0  0
 11  2  1  0  0  0  0
 12 18  1  0  0  0  0
 13 19  1  0  0  0  0
 13 12  2  0  0  0  0
 14 20  1  6  0  0  0
 14 13  1  0  0  0  0
 15 14  1  0  0  0  0
 15 22  1  0  0  0  0
 15 16  1  0  0  0  0
 16 11  1  0  0  0  0
 21 15  1  0  0  0  0
 23 16  1  0  0  0  0
 24 16  1  0  0  0  0
 25 26  1  0  0  0  0
 25 14  1  0  0  0  0
 27 25  1  0  0  0  0
 28 25  1  0  0  0  0
 29  3  1  0  0  0  0
 30 29  1  0  0  0  0
 31 30  2  0  0  0  0
 31 32  1  0  0  0  0
 32 33  1  0  0  0  0
 33 29  2  0  0  0  0
 34 30  1  0  0  0  0
 35 31  1  0  0  0  0
 36 32  1  0  0  0  0
 37 36  1  0  0  0  0
 38 39  1  0  0  0  0
 38 37  1  0  0  0  0
 39 40  1  0  0  0  0
 40 36  1  0  0  0  0
M  END
>  <minimizedAffinity>
-5.73934269

>  <minimizedRMSD>
0.356577218

$$$$
