
 OpenBabel03232520253D

 41 45  0  0  0  0  0  0  0  0999 V2000
   45.2570   33.8180   41.9770 C   0  0  0  0  0  0  0  0  0  0  0  0
   45.8390   34.3790   43.1050 C   0  0  0  0  0  0  0  0  0  0  0  0
   47.0530   34.8380   42.8160 N   0  0  0  0  0  0  0  0  0  0  0  0
   47.2730   34.5830   41.5100 C   0  0  0  0  0  0  0  0  0  0  0  0
   48.3740   34.8530   40.7120 C   0  0  0  0  0  0  0  0  0  0  0  0
   48.3410   34.4840   39.4010 C   0  0  0  0  0  0  0  0  0  0  0  0
   47.2690   33.8410   38.7780 C   0  0  0  0  0  0  0  0  0  0  0  0
   46.1990   33.5960   39.6170 C   0  0  0  0  0  0  0  0  0  0  0  0
   46.1630   33.9380   40.9390 C   0  0  0  0  0  0  0  0  0  0  0  0
   47.7500   35.3110   43.4270 H   0  0  0  0  0  0  0  0  0  0  0  0
   49.2690   35.3420   41.0590 H   0  0  0  0  0  0  0  0  0  0  0  0
   49.1930   34.6780   38.7290 H   0  0  0  0  0  0  0  0  0  0  0  0
   47.2550   33.5570   37.7470 H   0  0  0  0  0  0  0  0  0  0  0  0
   45.3120   33.1000   39.2350 H   0  0  0  0  0  0  0  0  0  0  0  0
   41.6220   33.3700   41.2420 C   0  0  0  0  0  0  0  0  0  0  0  0
   42.8920   33.9680   41.3420 C   0  0  0  0  0  0  0  0  0  0  0  0
   43.9380   33.2080   41.8690 C   0  0  0  0  0  0  0  0  0  0  0  0
   43.6900   31.9200   42.2670 N   0  0  0  0  0  0  0  0  0  0  0  0
   42.4380   31.3970   42.1450 C   0  0  0  0  0  0  0  0  0  0  0  0
   41.4010   32.1150   41.6350 N   0  0  0  0  0  0  0  0  0  0  0  0
   40.7660   33.8800   40.8520 H   0  0  0  0  0  0  0  0  0  0  0  0
   43.0020   34.9860   41.0070 H   0  0  0  0  0  0  0  0  0  0  0  0
   42.4700   30.3720   42.5180 H   0  0  0  0  0  0  0  0  0  0  0  0
   45.1610   34.4370   44.4310 C   0  0  0  0  0  0  0  0  0  0  0  0
   44.2060   33.8670   44.4160 H   0  0  0  0  0  0  0  0  0  0  0  0
   44.9510   35.5110   44.6000 H   0  0  0  0  0  0  0  0  0  0  0  0
   46.0120   33.8130   45.4980 C   0  0  0  0  0  0  0  0  0  0  0  0
   47.0680   34.1770   45.3830 H   0  0  0  0  0  0  0  0  0  0  0  0
   45.6940   34.2930   46.4680 H   0  0  0  0  0  0  0  0  0  0  0  0
   45.9390   32.3600   45.6060 C   0  0  0  0  0  0  0  0  0  0  0  0
   46.0610   31.4810   44.5800 N   0  0  0  0  0  0  0  0  0  0  0  0
   45.9960   30.1610   44.7460 C   0  0  0  0  0  0  0  0  0  0  0  0
   45.8070   29.5460   45.9230 N   0  0  0  0  0  0  0  0  0  0  0  0
   45.6740   30.3640   47.0100 C   0  0  0  0  0  0  0  0  0  0  0  0
   45.4680   29.8080   48.2560 C   0  0  0  0  0  0  0  0  0  0  0  0
   45.3190   30.5990   49.3820 C   0  0  0  0  0  0  0  0  0  0  0  0
   45.1570   30.1440   50.3520 H   0  0  0  0  0  0  0  0  0  0  0  0
   45.3790   31.9840   49.2510 C   0  0  0  0  0  0  0  0  0  0  0  0
   45.2630   32.5980   50.1230 H   0  0  0  0  0  0  0  0  0  0  0  0
   45.5890   32.4970   47.9760 C   0  0  0  0  0  0  0  0  0  0  0  0
   45.7420   31.7430   46.8320 C   0  0  0  0  0  0  0  0  0  0  0  0
  1  2  2  0  0  0  0
  2 24  1  0  0  0  0
  3  2  1  0  0  0  0
  3 10  1  0  0  0  0
  4  3  1  0  0  0  0
  5 11  1  0  0  0  0
  5  4  2  0  0  0  0
  6  5  1  0  0  0  0
  7  6  2  0  0  0  0
  7  8  1  0  0  0  0
  8  9  2  0  0  0  0
  9  4  1  0  0  0  0
  9  1  1  0  0  0  0
 12  6  1  0  0  0  0
 13  7  1  0  0  0  0
 14  8  1  0  0  0  0
 15 16  2  0  0  0  0
 15 20  1  0  0  0  0
 16 17  1  0  0  0  0
 17  1  1  0  0  0  0
 17 18  2  0  0  0  0
 19 18  1  0  0  0  0
 19 23  1  0  0  0  0
 20 19  2  0  0  0  0
 21 15  1  0  0  0  0
 22 16  1  0  0  0  0
 24 26  1  0  0  0  0
 24 27  1  0  0  0  0
 25 24  1  0  0  0  0
 27 30  1  0  0  0  0
 27 29  1  0  0  0  0
 28 27  1  0  0  0  0
 30 41  1  0  0  0  0
 31 32  1  0  0  0  0
 31 30  2  0  0  0  0
 32 33  2  0  0  0  0
 33 34  1  0  0  0  0
 34 35  1  0  0  0  0
 35 36  2  0  0  0  0
 36 37  1  0  0  0  0
 38 36  1  0  0  0  0
 38 39  1  0  0  0  0
 40 38  2  0  0  0  0
 41 34  2  0  0  0  0
 41 40  1  0  0  0  0
M  END
>  <minimizedAffinity>
-6.43479729

>  <minimizedRMSD>
5.9855032

$$$$
