
 OpenBabel03232520093D

 26 29  0  0  0  0  0  0  0  0999 V2000
   46.1210   32.9620   45.7200 C   0  0  0  0  0  0  0  0  0  0  0  0
   45.8770   32.7310   47.0600 C   0  0  0  0  0  0  0  0  0  0  0  0
   46.3390   31.5880   47.6370 C   0  0  0  0  0  0  0  0  0  0  0  0
   47.0450   30.7090   46.8010 C   0  0  0  0  0  0  0  0  0  0  0  0
   47.0360   31.5280   45.2190 S   0  0  0  0  0  0  0  0  0  0  0  0
   45.3210   33.4800   47.6070 H   0  0  0  0  0  0  0  0  0  0  0  0
   46.2090   31.3140   48.6520 H   0  0  0  0  0  0  0  0  0  0  0  0
   47.6300   29.4720   47.1090 N   0  0  0  0  0  0  0  0  0  0  0  0
   48.9580   29.2550   47.1670 C   0  0  0  0  0  0  0  0  0  0  0  0
   49.1510   27.9530   47.4890 N   0  0  0  0  0  0  0  0  0  0  0  0
   47.9380   27.3940   47.6240 C   0  0  0  0  0  0  0  0  0  0  0  0
   47.4390   26.1260   47.9360 C   0  0  0  0  0  0  0  0  0  0  0  0
   48.1520   25.3290   48.1340 H   0  0  0  0  0  0  0  0  0  0  0  0
   46.1210   25.8610   47.9980 N   0  0  0  0  0  0  0  0  0  0  0  0
   45.2110   26.8200   47.7570 C   0  0  0  0  0  0  0  0  0  0  0  0
   45.6450   28.0630   47.4520 N   0  0  0  0  0  0  0  0  0  0  0  0
   46.9750   28.3310   47.3890 C   0  0  0  0  0  0  0  0  0  0  0  0
   44.4910   36.0160   44.5350 C   0  0  0  0  0  0  0  0  0  0  0  0
   45.0870   36.1670   43.2520 C   0  0  0  0  0  0  0  0  0  0  0  0
   46.0400   35.2060   42.8290 C   0  0  0  0  0  0  0  0  0  0  0  0
   46.3350   34.1780   43.6850 N   0  0  0  0  0  0  0  0  0  0  0  0
   45.7430   34.0770   44.8930 C   0  0  0  0  0  0  0  0  0  0  0  0
   44.8340   34.9800   45.3150 N   0  0  0  0  0  0  0  0  0  0  0  0
   43.7850   36.7750   44.7850 H   0  0  0  0  0  0  0  0  0  0  0  0
   44.8700   36.9680   42.5620 H   0  0  0  0  0  0  0  0  0  0  0  0
   46.5150   35.2820   41.8650 H   0  0  0  0  0  0  0  0  0  0  0  0
  1  2  2  0  0  0  0
  2  6  1  0  0  0  0
  2  3  1  0  0  0  0
  3  7  1  0  0  0  0
  4  8  1  0  0  0  0
  4  3  2  0  0  0  0
  5  1  1  0  0  0  0
  5  4  1  0  0  0  0
  8  9  1  0  0  0  0
  8 17  1  0  0  0  0
  9 10  2  0  0  0  0
 10 11  1  0  0  0  0
 11 12  1  0  0  0  0
 12 14  2  0  0  0  0
 12 13  1  0  0  0  0
 15 14  1  0  0  0  0
 16 15  2  0  0  0  0
 17 16  1  0  0  0  0
 17 11  2  0  0  0  0
 18 24  1  0  0  0  0
 18 23  1  0  0  0  0
 19 18  2  0  0  0  0
 20 19  1  0  0  0  0
 20 21  2  0  0  0  0
 21 22  1  0  0  0  0
 22 23  2  0  0  0  0
 22  1  1  0  0  0  0
 25 19  1  0  0  0  0
 26 20  1  0  0  0  0
M  END
>  <minimizedAffinity>
-4.87747431

>  <minimizedRMSD>
2.00183463

$$$$
