
 OpenBabel03232521013D

 44 47  0  0  1  0  0  0  0  0999 V2000
   45.3510   32.9140   47.5190 C   0  0  0  0  0  0  0  0  0  0  0  0
   45.9070   32.6530   46.3080 C   0  0  0  0  0  0  0  0  0  0  0  0
   46.1740   31.3010   46.0690 C   0  0  0  0  0  0  0  0  0  0  0  0
   45.9080   30.3120   46.9600 N   0  0  0  0  0  0  0  0  0  0  0  0
   45.3390   30.6290   48.1850 C   0  0  0  0  0  0  0  0  0  0  0  0
   45.0770   31.9100   48.4310 N   0  0  0  0  0  0  0  0  0  0  0  0
   45.0610   29.6210   49.1370 N   0  0  0  0  0  0  0  0  0  0  0  0
   45.1080   33.9240   47.8100 H   0  0  0  0  0  0  0  0  0  0  0  0
   44.9710   29.9100   50.1360 H   0  0  0  0  0  0  0  0  0  0  0  0
   44.9480   28.6130   48.8450 H   0  0  0  0  0  0  0  0  0  0  0  0
   46.1550   33.6010   45.2770 C   0  0  2  0  0  0  0  0  0  0  0  0
   44.9480   34.6960   45.5020 C   0  0  0  0  0  0  0  0  0  0  0  0
   44.7190   35.6220   44.4270 C   0  0  0  0  0  0  0  0  0  0  0  0
   45.5190   35.5440   43.2040 C   0  0  1  0  0  0  0  0  0  0  0  0
   46.5780   34.5410   43.1610 C   0  0  0  0  0  0  0  0  0  0  0  0
   46.1270   33.3110   43.9140 C   0  0  0  0  0  0  0  0  0  0  0  0
   46.9710   34.3140   45.5990 H   0  0  0  0  0  0  0  0  0  0  0  0
   44.2720   34.8520   46.3340 H   0  0  0  0  0  0  0  0  0  0  0  0
   43.9520   36.3440   44.5380 H   0  0  0  0  0  0  0  0  0  0  0  0
   45.9520   36.5490   42.9940 H   0  0  0  0  0  0  0  0  0  0  0  0
   46.8230   34.3230   42.0810 H   0  0  0  0  0  0  0  0  0  0  0  0
   47.5140   34.9070   43.6500 H   0  0  0  0  0  0  0  0  0  0  0  0
   46.9850   32.6620   43.5890 H   0  0  0  0  0  0  0  0  0  0  0  0
   45.2130   32.8770   43.4610 H   0  0  0  0  0  0  0  0  0  0  0  0
   44.5060   35.2740   42.0520 C   0  0  0  0  0  0  0  0  0  0  0  0
   43.4500   34.4690   42.4490 F   0  0  0  0  0  0  0  0  0  0  0  0
   43.9540   36.5070   41.7190 F   0  0  0  0  0  0  0  0  0  0  0  0
   45.1820   34.8180   40.9370 F   0  0  0  0  0  0  0  0  0  0  0  0
   46.8170   30.6060   44.9700 C   0  0  0  0  0  0  0  0  0  0  0  0
   46.4820   29.8310   43.9080 C   0  0  0  0  0  0  0  0  0  0  0  0
   47.6620   29.4470   43.2540 C   0  0  0  0  0  0  0  0  0  0  0  0
   48.6510   30.0070   43.9510 N   0  0  0  0  0  0  0  0  0  0  0  0
   48.1790   30.6940   44.9650 N   0  0  0  0  0  0  0  0  0  0  0  0
   45.4400   29.6410   43.7380 H   0  0  0  0  0  0  0  0  0  0  0  0
   47.6410   28.8210   42.3740 H   0  0  0  0  0  0  0  0  0  0  0  0
   50.0450   29.8580   43.6090 C   0  0  0  0  0  0  0  0  0  0  0  0
   50.5270   30.3940   42.4170 C   0  0  0  0  0  0  0  0  0  0  0  0
   49.7920   30.9160   41.7890 H   0  0  0  0  0  0  0  0  0  0  0  0
   51.8630   30.2800   42.0370 C   0  0  0  0  0  3  0  0  0  0  0  0
   52.7330   29.6140   42.8710 C   0  0  0  0  0  0  0  0  0  0  0  0
   53.7400   29.5540   42.5360 H   0  0  0  0  0  0  0  0  0  0  0  0
   52.2590   29.0790   44.0570 C   0  0  0  0  0  0  0  0  0  0  0  0
   52.9420   28.5590   44.7070 H   0  0  0  0  0  0  0  0  0  0  0  0
   50.9240   29.2000   44.4250 C   0  0  0  0  0  3  0  0  0  0  0  0
  1  8  1  0  0  0  0
  1  6  1  0  0  0  0
  2  1  2  0  0  0  0
  3  2  1  0  0  0  0
  3  4  2  0  0  0  0
  4  5  1  0  0  0  0
  5  6  2  0  0  0  0
  5  7  1  0  0  0  0
  7  9  1  0  0  0  0
 10  7  1  0  0  0  0
 11 12  1  0  0  0  0
 11 17  1  1  0  0  0
 11  2  1  0  0  0  0
 12 18  1  0  0  0  0
 13 19  1  0  0  0  0
 13 12  2  0  0  0  0
 14 20  1  6  0  0  0
 14 13  1  0  0  0  0
 15 14  1  0  0  0  0
 15 22  1  0  0  0  0
 15 16  1  0  0  0  0
 16 11  1  0  0  0  0
 21 15  1  0  0  0  0
 23 16  1  0  0  0  0
 24 16  1  0  0  0  0
 25 26  1  0  0  0  0
 25 14  1  0  0  0  0
 27 25  1  0  0  0  0
 28 25  1  0  0  0  0
 29  3  1  0  0  0  0
 30 29  1  0  0  0  0
 31 30  2  0  0  0  0
 31 32  1  0  0  0  0
 32 33  1  0  0  0  0
 33 29  2  0  0  0  0
 34 30  1  0  0  0  0
 35 31  1  0  0  0  0
 36 32  1  0  0  0  0
 36 44  1  0  0  0  0
 37 36  2  0  0  0  0
 38 37  1  0  0  0  0
 39 37  1  0  0  0  0
 39 40  2  0  0  0  0
 40 42  1  0  0  0  0
 41 40  1  0  0  0  0
 42 44  2  0  0  0  0
 42 43  1  0  0  0  0
M  END
>  <minimizedAffinity>
-5.90847778

>  <minimizedRMSD>
0.187347233

$$$$
