
 OpenBabel03232521013D

 44 47  0  0  1  0  0  0  0  0999 V2000
   45.3500   32.9160   47.5180 C   0  0  0  0  0  0  0  0  0  0  0  0
   45.9060   32.6550   46.3070 C   0  0  0  0  0  0  0  0  0  0  0  0
   46.1740   31.3030   46.0680 C   0  0  0  0  0  0  0  0  0  0  0  0
   45.9080   30.3140   46.9600 N   0  0  0  0  0  0  0  0  0  0  0  0
   45.3390   30.6310   48.1840 C   0  0  0  0  0  0  0  0  0  0  0  0
   45.0770   31.9130   48.4300 N   0  0  0  0  0  0  0  0  0  0  0  0
   45.0600   29.6240   49.1370 N   0  0  0  0  0  0  0  0  0  0  0  0
   45.1070   33.9260   47.8080 H   0  0  0  0  0  0  0  0  0  0  0  0
   44.9710   29.9130   50.1350 H   0  0  0  0  0  0  0  0  0  0  0  0
   44.9480   28.6160   48.8450 H   0  0  0  0  0  0  0  0  0  0  0  0
   46.1540   33.6030   45.2750 C   0  0  2  0  0  0  0  0  0  0  0  0
   44.9470   34.6980   45.5010 C   0  0  0  0  0  0  0  0  0  0  0  0
   44.7180   35.6240   44.4260 C   0  0  0  0  0  0  0  0  0  0  0  0
   45.5180   35.5460   43.2020 C   0  0  1  0  0  0  0  0  0  0  0  0
   46.5770   34.5430   43.1590 C   0  0  0  0  0  0  0  0  0  0  0  0
   46.1260   33.3130   43.9120 C   0  0  0  0  0  0  0  0  0  0  0  0
   46.9700   34.3160   45.5970 H   0  0  0  0  0  0  0  0  0  0  0  0
   44.2710   34.8540   46.3320 H   0  0  0  0  0  0  0  0  0  0  0  0
   43.9510   36.3460   44.5360 H   0  0  0  0  0  0  0  0  0  0  0  0
   45.9500   36.5510   42.9910 H   0  0  0  0  0  0  0  0  0  0  0  0
   46.8210   34.3250   42.0790 H   0  0  0  0  0  0  0  0  0  0  0  0
   47.5130   34.9090   43.6480 H   0  0  0  0  0  0  0  0  0  0  0  0
   46.9840   32.6630   43.5880 H   0  0  0  0  0  0  0  0  0  0  0  0
   45.2120   32.8780   43.4600 H   0  0  0  0  0  0  0  0  0  0  0  0
   44.5040   35.2750   42.0500 C   0  0  0  0  0  0  0  0  0  0  0  0
   43.4480   34.4720   42.4480 F   0  0  0  0  0  0  0  0  0  0  0  0
   43.9540   36.5090   41.7160 F   0  0  0  0  0  0  0  0  0  0  0  0
   45.1800   34.8170   40.9360 F   0  0  0  0  0  0  0  0  0  0  0  0
   46.8170   30.6080   44.9700 C   0  0  0  0  0  0  0  0  0  0  0  0
   46.4820   29.8330   43.9070 C   0  0  0  0  0  0  0  0  0  0  0  0
   47.6620   29.4490   43.2540 C   0  0  0  0  0  0  0  0  0  0  0  0
   48.6500   30.0090   43.9510 N   0  0  0  0  0  0  0  0  0  0  0  0
   48.1790   30.6960   44.9640 N   0  0  0  0  0  0  0  0  0  0  0  0
   45.4390   29.6430   43.7370 H   0  0  0  0  0  0  0  0  0  0  0  0
   47.6400   28.8220   42.3730 H   0  0  0  0  0  0  0  0  0  0  0  0
   50.0450   29.8590   43.6090 C   0  0  0  0  0  0  0  0  0  0  0  0
   50.5270   30.3920   42.4170 C   0  0  0  0  0  0  0  0  0  0  0  0
   49.7920   30.9130   41.7870 H   0  0  0  0  0  0  0  0  0  0  0  0
   51.8620   30.2790   42.0360 C   0  0  0  0  0  3  0  0  0  0  0  0
   52.7320   29.6150   42.8720 C   0  0  0  0  0  0  0  0  0  0  0  0
   53.7400   29.5550   42.5370 H   0  0  0  0  0  0  0  0  0  0  0  0
   52.2590   29.0820   44.0590 C   0  0  0  0  0  0  0  0  0  0  0  0
   52.9430   28.5630   44.7100 H   0  0  0  0  0  0  0  0  0  0  0  0
   50.9240   29.2030   44.4270 C   0  0  0  0  0  3  0  0  0  0  0  0
  1  8  1  0  0  0  0
  1  6  1  0  0  0  0
  2  1  2  0  0  0  0
  3  2  1  0  0  0  0
  3  4  2  0  0  0  0
  4  5  1  0  0  0  0
  5  6  2  0  0  0  0
  5  7  1  0  0  0  0
  7  9  1  0  0  0  0
 10  7  1  0  0  0  0
 11 12  1  0  0  0  0
 11 17  1  1  0  0  0
 11  2  1  0  0  0  0
 12 18  1  0  0  0  0
 13 19  1  0  0  0  0
 13 12  2  0  0  0  0
 14 20  1  6  0  0  0
 14 13  1  0  0  0  0
 15 14  1  0  0  0  0
 15 22  1  0  0  0  0
 15 16  1  0  0  0  0
 16 11  1  0  0  0  0
 21 15  1  0  0  0  0
 23 16  1  0  0  0  0
 24 16  1  0  0  0  0
 25 26  1  0  0  0  0
 25 14  1  0  0  0  0
 27 25  1  0  0  0  0
 28 25  1  0  0  0  0
 29  3  1  0  0  0  0
 30 29  1  0  0  0  0
 31 30  2  0  0  0  0
 31 32  1  0  0  0  0
 32 33  1  0  0  0  0
 33 29  2  0  0  0  0
 34 30  1  0  0  0  0
 35 31  1  0  0  0  0
 36 32  1  0  0  0  0
 36 44  1  0  0  0  0
 37 36  2  0  0  0  0
 38 37  1  0  0  0  0
 39 37  1  0  0  0  0
 39 40  2  0  0  0  0
 40 42  1  0  0  0  0
 41 40  1  0  0  0  0
 42 44  2  0  0  0  0
 42 43  1  0  0  0  0
M  END
>  <minimizedAffinity>
-5.90747833

>  <minimizedRMSD>
0.29467535

$$$$
