
 OpenBabel03232520563D

 38 41  0  0  1  0  0  0  0  0999 V2000
   45.3650   32.9440   47.5890 C   0  0  0  0  0  0  0  0  0  0  0  0
   45.8720   32.6430   46.3630 C   0  0  0  0  0  0  0  0  0  0  0  0
   46.1450   31.2900   46.1080 C   0  0  0  0  0  0  0  0  0  0  0  0
   45.9170   30.3490   47.0280 N   0  0  0  0  0  0  0  0  0  0  0  0
   45.4050   30.6780   48.2620 C   0  0  0  0  0  0  0  0  0  0  0  0
   45.1380   31.9540   48.5210 N   0  0  0  0  0  0  0  0  0  0  0  0
   45.1920   29.6690   49.2520 N   0  0  0  0  0  0  0  0  0  0  0  0
   45.1400   33.9470   47.8380 H   0  0  0  0  0  0  0  0  0  0  0  0
   45.9130   28.9000   49.3960 H   0  0  0  0  0  0  0  0  0  0  0  0
   44.2800   29.7820   49.7860 H   0  0  0  0  0  0  0  0  0  0  0  0
   46.0830   33.6470   45.3640 C   0  0  2  0  0  0  0  0  0  0  0  0
   44.9350   34.7110   45.5320 C   0  0  0  0  0  0  0  0  0  0  0  0
   44.7190   35.6140   44.4300 C   0  0  0  0  0  0  0  0  0  0  0  0
   45.5210   35.5260   43.2190 C   0  0  1  0  0  0  0  0  0  0  0  0
   46.6150   34.5510   43.2190 C   0  0  0  0  0  0  0  0  0  0  0  0
   46.2160   33.3160   43.9790 C   0  0  0  0  0  0  0  0  0  0  0  0
   46.9020   34.3460   45.7420 H   0  0  0  0  0  0  0  0  0  0  0  0
   44.2300   34.9350   46.3260 H   0  0  0  0  0  0  0  0  0  0  0  0
   43.9580   36.3560   44.4860 H   0  0  0  0  0  0  0  0  0  0  0  0
   45.9290   36.5360   42.9880 H   0  0  0  0  0  0  0  0  0  0  0  0
   46.7850   34.2320   42.1480 H   0  0  0  0  0  0  0  0  0  0  0  0
   47.5920   34.9570   43.5510 H   0  0  0  0  0  0  0  0  0  0  0  0
   45.2640   32.9680   43.5210 H   0  0  0  0  0  0  0  0  0  0  0  0
   46.9790   32.5960   43.6670 H   0  0  0  0  0  0  0  0  0  0  0  0
   44.5570   35.2160   42.0520 C   0  0  0  0  0  0  0  0  0  0  0  0
   43.5460   34.3490   42.4080 F   0  0  0  0  0  0  0  0  0  0  0  0
   43.9330   36.4220   41.7170 F   0  0  0  0  0  0  0  0  0  0  0  0
   45.2620   34.8010   40.9440 F   0  0  0  0  0  0  0  0  0  0  0  0
   46.6500   30.5850   44.9780 N   0  0  0  0  0  0  0  0  0  0  0  0
   47.9850   30.4060   44.7000 C   0  0  0  0  0  0  0  0  0  0  0  0
   48.0890   29.7280   43.5360 N   0  0  0  0  0  0  0  0  0  0  0  0
   46.8550   29.4750   43.0740 C   0  0  0  0  0  0  0  0  0  0  0  0
   46.3420   28.8310   41.9540 C   0  0  0  0  0  0  0  0  0  0  0  0
   47.0110   28.4020   41.2320 H   0  0  0  0  0  0  0  0  0  0  0  0
   45.0070   28.7320   41.7540 N   0  0  0  0  0  0  0  0  0  0  0  0
   44.1170   29.2600   42.6410 C   0  0  0  0  0  0  0  0  0  0  0  0
   44.5980   29.8970   43.7490 N   0  0  0  0  0  0  0  0  0  0  0  0
   45.9230   30.0060   43.9660 C   0  0  0  0  0  0  0  0  0  0  0  0
  1  8  1  0  0  0  0
  1  6  1  0  0  0  0
  2  1  2  0  0  0  0
  3  2  1  0  0  0  0
  3  4  2  0  0  0  0
  4  5  1  0  0  0  0
  5  6  2  0  0  0  0
  5  7  1  0  0  0  0
  7  9  1  0  0  0  0
  7 10  1  0  0  0  0
 11 12  1  0  0  0  0
 11 17  1  1  0  0  0
 11  2  1  0  0  0  0
 12 18  1  0  0  0  0
 13 19  1  0  0  0  0
 13 12  2  0  0  0  0
 14 20  1  6  0  0  0
 14 15  1  0  0  0  0
 14 13  1  0  0  0  0
 15 22  1  0  0  0  0
 15 16  1  0  0  0  0
 16 11  1  0  0  0  0
 21 15  1  0  0  0  0
 23 16  1  0  0  0  0
 24 16  1  0  0  0  0
 25 26  1  0  0  0  0
 25 14  1  0  0  0  0
 27 25  1  0  0  0  0
 28 25  1  0  0  0  0
 29  3  1  0  0  0  0
 30 29  1  0  0  0  0
 31 30  2  0  0  0  0
 32 31  1  0  0  0  0
 32 38  1  0  0  0  0
 33 32  2  0  0  0  0
 34 33  1  0  0  0  0
 35 33  1  0  0  0  0
 35 36  2  0  0  0  0
 36 37  1  0  0  0  0
 37 38  2  0  0  0  0
 38 29  1  0  0  0  0
M  END
>  <minimizedAffinity>
-5.79447985

>  <minimizedRMSD>
0.700687408

$$$$
