
 OpenBabel03232518103D

 32 34  0  0  0  0  0  0  0  0999 V2000
   46.8820   32.1800   45.4540 S   0  0  0  0  0  0  0  0  0  0  0  0
   45.0080   35.0800   43.3300 C   0  0  0  0  0  0  0  0  0  0  0  0
   45.7890   33.9580   43.6330 C   0  0  0  0  0  0  0  0  0  0  0  0
   45.9310   33.5650   44.9510 C   0  0  0  0  0  0  0  0  0  0  0  0
   45.2900   34.3060   45.9010 N   0  0  0  0  0  0  0  0  0  0  0  0
   44.5440   35.3840   45.5760 C   0  0  0  0  0  0  0  0  0  0  0  0
   44.4070   35.7620   44.3030 N   0  0  0  0  0  0  0  0  0  0  0  0
   46.3070   33.3510   42.9150 H   0  0  0  0  0  0  0  0  0  0  0  0
   44.0650   35.9270   46.3620 H   0  0  0  0  0  0  0  0  0  0  0  0
   44.9620   35.3620   41.8720 C   0  0  0  0  0  0  0  0  0  0  0  0
   45.2960   34.4170   41.3610 H   0  0  0  0  0  0  0  0  0  0  0  0
   45.6200   36.1760   41.5490 H   0  0  0  0  0  0  0  0  0  0  0  0
   43.5430   35.5720   41.4040 C   0  0  0  0  0  0  0  0  0  0  0  0
   43.3980   35.2030   40.3710 H   0  0  0  0  0  0  0  0  0  0  0  0
   42.7850   35.1380   42.0650 H   0  0  0  0  0  0  0  0  0  0  0  0
   43.3710   36.6800   41.4230 H   0  0  0  0  0  0  0  0  0  0  0  0
   46.0670   31.1970   46.7040 C   0  0  0  0  0  0  0  0  0  0  0  0
   45.7200   31.2790   48.0450 C   0  0  0  0  0  0  0  0  0  0  0  0
   45.0860   30.0850   48.3380 C   0  0  0  0  0  0  0  0  0  0  0  0
   45.0500   29.3200   47.2300 N   0  0  0  0  0  0  0  0  0  0  0  0
   45.6360   29.9860   46.2560 N   0  0  0  0  0  0  0  0  0  0  0  0
   46.0150   32.2090   48.5100 H   0  0  0  0  0  0  0  0  0  0  0  0
   44.7400   29.9750   49.3660 H   0  0  0  0  0  0  0  0  0  0  0  0
   44.4470   28.0310   47.2590 C   0  0  0  0  0  0  0  0  0  0  0  0
   44.6440   27.1580   48.3210 C   0  0  0  0  0  0  0  0  0  0  0  0
   45.2790   27.4620   49.1640 H   0  0  0  0  0  0  0  0  0  0  0  0
   44.0720   25.9010   48.3750 C   0  0  0  0  0  0  0  0  0  0  0  0
   43.2820   25.5560   47.2990 C   0  0  0  0  0  0  0  0  0  0  0  0
   42.8090   24.5610   47.3080 H   0  0  0  0  0  0  0  0  0  0  0  0
   43.0370   26.3650   46.2060 C   0  0  0  0  0  0  0  0  0  0  0  0
   42.4070   26.0510   45.3820 H   0  0  0  0  0  0  0  0  0  0  0  0
   43.6440   27.6170   46.2150 C   0  0  0  0  0  0  0  0  0  0  0  0
  1 17  1  0  0  0  0
  2  3  2  0  0  0  0
  2  7  1  0  0  0  0
  3  4  1  0  0  0  0
  4  1  1  0  0  0  0
  4  5  2  0  0  0  0
  6  5  1  0  0  0  0
  6  9  1  0  0  0  0
  7  6  2  0  0  0  0
  8  3  1  0  0  0  0
 10  2  1  0  0  0  0
 11 10  1  0  0  0  0
 12 10  1  0  0  0  0
 13 16  1  0  0  0  0
 13 10  1  0  0  0  0
 13 15  1  0  0  0  0
 14 13  1  0  0  0  0
 17 18  1  0  0  0  0
 18 19  2  0  0  0  0
 18 22  1  0  0  0  0
 19 23  1  0  0  0  0
 20 24  1  0  0  0  0
 20 19  1  0  0  0  0
 21 17  2  0  0  0  0
 21 20  1  0  0  0  0
 24 25  1  0  0  0  0
 25 27  2  0  0  0  0
 25 26  1  0  0  0  0
 28 29  1  0  0  0  0
 28 27  1  0  0  0  0
 30 32  1  0  0  0  0
 30 28  2  0  0  0  0
 31 30  1  0  0  0  0
 32 24  2  0  0  0  0
M  END
>  <minimizedAffinity>
-5.18289423

>  <minimizedRMSD>
2.46785617

$$$$
