
 OpenBabel03232520253D

 35 38  0  0  0  0  0  0  0  0999 V2000
   46.9570   34.4950   41.2500 C   0  0  0  0  0  0  0  0  0  0  0  0
   48.2330   34.8840   40.9210 C   0  0  0  0  0  0  0  0  0  0  0  0
   48.5030   34.5320   39.6610 N   0  0  0  0  0  0  0  0  0  0  0  0
   47.4100   33.9160   39.1700 C   0  0  0  0  0  0  0  0  0  0  0  0
   47.1700   33.3650   37.9220 C   0  0  0  0  0  0  0  0  0  0  0  0
   45.9500   32.7920   37.6890 C   0  0  0  0  0  0  0  0  0  0  0  0
   44.9080   32.7150   38.6170 C   0  0  0  0  0  0  0  0  0  0  0  0
   45.2170   33.2850   39.8380 C   0  0  0  0  0  0  0  0  0  0  0  0
   46.4070   33.8720   40.1450 C   0  0  0  0  0  0  0  0  0  0  0  0
   49.4140   34.7190   39.1780 H   0  0  0  0  0  0  0  0  0  0  0  0
   47.9410   33.3960   37.1680 H   0  0  0  0  0  0  0  0  0  0  0  0
   45.8170   32.3770   36.6990 H   0  0  0  0  0  0  0  0  0  0  0  0
   43.9640   32.2500   38.3750 H   0  0  0  0  0  0  0  0  0  0  0  0
   44.4600   33.2690   40.6210 H   0  0  0  0  0  0  0  0  0  0  0  0
   44.8600   35.9760   43.9630 C   0  0  0  0  0  0  0  0  0  0  0  0
   45.5060   35.8160   42.7150 C   0  0  0  0  0  0  0  0  0  0  0  0
   46.2780   34.6900   42.5240 C   0  0  0  0  0  0  0  0  0  0  0  0
   46.3850   33.7750   43.5580 N   0  0  0  0  0  0  0  0  0  0  0  0
   45.7440   33.9780   44.7360 C   0  0  0  0  0  0  0  0  0  0  0  0
   44.9870   35.0660   44.9430 N   0  0  0  0  0  0  0  0  0  0  0  0
   44.2800   36.8710   44.0380 H   0  0  0  0  0  0  0  0  0  0  0  0
   45.3990   36.5520   41.9310 H   0  0  0  0  0  0  0  0  0  0  0  0
   45.9160   33.1840   45.4510 H   0  0  0  0  0  0  0  0  0  0  0  0
   49.1570   35.5850   41.8270 C   0  0  0  0  0  0  0  0  0  0  0  0
   48.7180   36.4640   42.3230 H   0  0  0  0  0  0  0  0  0  0  0  0
   50.0020   35.9850   41.1980 H   0  0  0  0  0  0  0  0  0  0  0  0
   49.7450   34.6480   42.8660 C   0  0  0  0  0  0  0  0  0  0  0  0
   50.5480   35.2400   43.3640 H   0  0  0  0  0  0  0  0  0  0  0  0
   48.9670   34.5250   43.6550 H   0  0  0  0  0  0  0  0  0  0  0  0
   50.2110   33.3830   42.2990 C   0  0  0  0  0  0  0  0  0  0  0  0
   49.5750   32.1580   42.2770 C   0  0  0  0  0  0  0  0  0  0  0  0
   50.4250   31.3140   41.6360 N   0  0  0  0  0  0  0  0  0  0  0  0
   51.5340   31.9980   41.2830 C   0  0  0  0  0  0  0  0  0  0  0  0
   51.4110   33.2820   41.6890 N   0  0  0  0  0  0  0  0  0  0  0  0
   52.1360   34.0350   41.5410 H   0  0  0  0  0  0  0  0  0  0  0  0
  1 17  1  0  0  0  0
  2  1  2  0  0  0  0
  2 24  1  0  0  0  0
  3  2  1  0  0  0  0
  4  3  1  0  0  0  0
  4  9  1  0  0  0  0
  5  4  2  0  0  0  0
  6  5  1  0  0  0  0
  6  7  2  0  0  0  0
  7  8  1  0  0  0  0
  8  9  2  0  0  0  0
  8 14  1  0  0  0  0
  9  1  1  0  0  0  0
 10  3  1  0  0  0  0
 11  5  1  0  0  0  0
 12  6  1  0  0  0  0
 13  7  1  0  0  0  0
 15 21  1  0  0  0  0
 15 20  1  0  0  0  0
 16 15  2  0  0  0  0
 17 16  1  0  0  0  0
 17 18  2  0  0  0  0
 18 19  1  0  0  0  0
 19 20  2  0  0  0  0
 19 23  1  0  0  0  0
 22 16  1  0  0  0  0
 24 25  1  0  0  0  0
 24 27  1  0  0  0  0
 26 24  1  0  0  0  0
 27 28  1  0  0  0  0
 27 29  1  0  0  0  0
 30 27  1  0  0  0  0
 31 30  2  0  0  0  0
 32 31  1  0  0  0  0
 33 32  2  0  0  0  0
 33 34  1  0  0  0  0
 34 30  1  0  0  0  0
 35 34  1  0  0  0  0
M  END
>  <minimizedAffinity>
-6.0366354

>  <minimizedRMSD>
0.956765652

$$$$
