
 OpenBabel03232517023D

 34 37  0  0  0  0  0  0  0  0999 V2000
   45.7640   34.7860   43.8050 C   0  0  0  0  0  0  0  0  0  0  0  0
   46.9260   34.2780   43.2970 C   0  0  0  0  0  0  0  0  0  0  0  0
   47.4920   33.2180   44.0100 C   0  0  0  0  0  0  0  0  0  0  0  0
   46.8680   32.7620   45.1400 N   0  0  0  0  0  0  0  0  0  0  0  0
   45.7220   33.3150   45.5760 C   0  0  0  0  0  0  0  0  0  0  0  0
   45.1730   34.3350   44.8980 N   0  0  0  0  0  0  0  0  0  0  0  0
   48.4160   32.7430   43.6910 H   0  0  0  0  0  0  0  0  0  0  0  0
   45.3790   32.8240   46.4770 H   0  0  0  0  0  0  0  0  0  0  0  0
   47.5980   34.6890   42.1190 N   0  0  0  0  0  0  0  0  0  0  0  0
   48.4900   35.6460   41.9090 C   0  0  0  0  0  0  0  0  0  0  0  0
   48.8340   35.6300   40.5820 N   0  0  0  0  0  0  0  0  0  0  0  0
   48.1450   34.6500   39.9530 C   0  0  0  0  0  0  0  0  0  0  0  0
   48.0900   34.1930   38.6610 C   0  0  0  0  0  0  0  0  0  0  0  0
   47.2710   33.1670   38.3570 N   0  0  0  0  0  0  0  0  0  0  0  0
   46.4980   32.5730   39.2950 C   0  0  0  0  0  0  0  0  0  0  0  0
   46.5630   33.0320   40.5560 N   0  0  0  0  0  0  0  0  0  0  0  0
   47.3560   34.0480   40.9250 C   0  0  0  0  0  0  0  0  0  0  0  0
   48.8850   34.7870   37.6500 N   0  0  0  0  0  0  0  0  0  0  0  0
   48.8560   36.2990   42.6800 H   0  0  0  0  0  0  0  0  0  0  0  0
   45.8580   31.7590   39.0140 H   0  0  0  0  0  0  0  0  0  0  0  0
   48.8540   35.7740   37.2540 H   0  0  0  0  0  0  0  0  0  0  0  0
   49.6070   34.1140   37.2540 H   0  0  0  0  0  0  0  0  0  0  0  0
   45.1570   35.8010   43.0080 C   0  0  0  0  0  0  0  0  0  0  0  0
   45.2530   37.0310   43.0750 O   0  0  0  0  0  0  0  0  0  0  0  0
   44.2980   35.5290   41.9590 O   0  0  0  0  0  0  0  0  0  0  0  0
   43.5590   34.4090   41.7530 C   0  0  0  0  0  0  0  0  0  0  0  0
   43.7710   33.6970   40.9750 H   0  0  0  0  0  0  0  0  0  0  0  0
   42.9820   33.9610   42.6220 H   0  0  0  0  0  0  0  0  0  0  0  0
   42.3410   35.0590   41.0230 C   0  0  0  0  0  0  0  0  0  0  0  0
   41.8980   35.0720   39.7230 C   0  0  0  0  0  0  0  0  0  0  0  0
   40.7920   35.8200   39.6370 N   0  0  0  0  0  0  0  0  0  0  0  0
   40.4830   36.3070   40.8480 C   0  0  0  0  0  0  0  0  0  0  0  0
   41.4200   35.8420   41.6690 N   0  0  0  0  0  0  0  0  0  0  0  0
   41.4480   36.0570   42.7100 H   0  0  0  0  0  0  0  0  0  0  0  0
  1  6  1  0  0  0  0
  2  1  2  0  0  0  0
  2  3  1  0  0  0  0
  3  4  2  0  0  0  0
  4  5  1  0  0  0  0
  5  8  1  0  0  0  0
  6  5  2  0  0  0  0
  7  3  1  0  0  0  0
  9  2  1  0  0  0  0
 10  9  1  0  0  0  0
 10 19  1  0  0  0  0
 11 10  2  0  0  0  0
 12 11  1  0  0  0  0
 12 17  1  0  0  0  0
 13 12  2  0  0  0  0
 14 13  1  0  0  0  0
 14 15  2  0  0  0  0
 15 16  1  0  0  0  0
 16 17  2  0  0  0  0
 17  9  1  0  0  0  0
 18 13  1  0  0  0  0
 20 15  1  0  0  0  0
 21 18  1  0  0  0  0
 22 18  1  0  0  0  0
 23 24  2  0  0  0  0
 23  1  1  0  0  0  0
 25 23  1  0  0  0  0
 26 25  1  0  0  0  0
 26 28  1  0  0  0  0
 27 26  1  0  0  0  0
 29 33  1  0  0  0  0
 29 26  1  0  0  0  0
 30 29  2  0  0  0  0
 31 30  1  0  0  0  0
 31 32  2  0  0  0  0
 32 33  1  0  0  0  0
 33 34  1  0  0  0  0
M  END
>  <minimizedAffinity>
-6.46156597

>  <minimizedRMSD>
0.933611214

$$$$
