
 OpenBabel03232516333D

 44 47  0  0  0  0  0  0  0  0999 V2000
   49.2770   33.8670   41.8490 C   0  0  0  0  0  0  0  0  0  0  0  0
   50.4200   33.6280   42.5290 N   0  0  0  0  0  0  0  0  0  0  0  0
   51.1510   32.7380   41.8860 O   0  0  0  0  0  0  0  0  0  0  0  0
   50.5170   32.3850   40.7980 C   0  0  0  0  0  0  0  0  0  0  0  0
   49.3700   33.0670   40.7630 N   0  0  0  0  0  0  0  0  0  0  0  0
   48.1190   34.7380   42.0830 C   0  0  0  0  0  0  0  0  0  0  0  0
   48.3040   35.2720   43.0490 H   0  0  0  0  0  0  0  0  0  0  0  0
   48.0590   35.5300   41.3310 H   0  0  0  0  0  0  0  0  0  0  0  0
   46.8150   34.0240   42.2520 C   0  0  0  0  0  0  0  0  0  0  0  0
   45.3370   34.1890   45.5950 C   0  0  0  0  0  0  0  0  0  0  0  0
   44.5980   35.3760   45.5720 C   0  0  0  0  0  0  0  0  0  0  0  0
   44.6110   36.1250   44.3960 C   0  0  0  0  0  0  0  0  0  0  0  0
   45.3400   35.6610   43.3320 N   0  0  0  0  0  0  0  0  0  0  0  0
   46.0360   34.5000   43.4160 C   0  0  0  0  0  0  0  0  0  0  0  0
   46.0280   33.7770   44.5440 N   0  0  0  0  0  0  0  0  0  0  0  0
   45.2820   33.6570   46.5430 H   0  0  0  0  0  0  0  0  0  0  0  0
   44.0040   35.7830   46.3930 H   0  0  0  0  0  0  0  0  0  0  0  0
   44.0730   37.0590   44.2750 H   0  0  0  0  0  0  0  0  0  0  0  0
   46.0040   34.2640   40.9980 C   0  0  0  0  0  0  0  0  0  0  0  0
   45.3940   33.3620   40.7320 H   0  0  0  0  0  0  0  0  0  0  0  0
   45.3690   35.1740   41.0720 H   0  0  0  0  0  0  0  0  0  0  0  0
   46.6790   34.4260   40.1310 H   0  0  0  0  0  0  0  0  0  0  0  0
   47.0130   32.5300   42.3550 C   0  0  0  0  0  0  0  0  0  0  0  0
   46.0370   32.0700   42.0620 H   0  0  0  0  0  0  0  0  0  0  0  0
   47.2240   32.2100   43.3960 H   0  0  0  0  0  0  0  0  0  0  0  0
   47.7770   32.1790   41.6530 H   0  0  0  0  0  0  0  0  0  0  0  0
   51.1470   31.4420   39.9830 O   0  0  0  0  0  0  0  0  0  0  0  0
   50.7050   31.1250   38.7160 C   0  0  0  0  0  0  0  0  0  0  0  0
   50.1750   29.8590   38.4690 C   0  0  0  0  0  0  0  0  0  0  0  0
   49.8210   29.8320   37.1220 C   0  0  0  0  0  0  0  0  0  0  0  0
   50.1340   31.0400   36.6020 N   0  0  0  0  0  0  0  0  0  0  0  0
   50.6660   31.8290   37.5470 N   0  0  0  0  0  0  0  0  0  0  0  0
   50.0360   29.0070   39.1510 H   0  0  0  0  0  0  0  0  0  0  0  0
   49.3790   28.9880   36.6070 H   0  0  0  0  0  0  0  0  0  0  0  0
   49.6860   31.7960   32.4650 C   0  0  0  0  0  0  0  0  0  0  0  0
   50.6830   30.9840   32.9940 C   0  0  0  0  0  0  0  0  0  0  0  0
   50.7900   30.7650   34.3490 C   0  0  0  0  0  0  0  0  0  0  0  0
   49.9000   31.3550   35.2340 C   0  0  0  0  0  0  0  0  0  0  0  0
   48.9030   32.1650   34.7300 C   0  0  0  0  0  0  0  0  0  0  0  0
   48.8040   32.3770   33.3620 C   0  0  0  0  0  0  0  0  0  0  0  0
   50.6280   31.5320   30.1100 H   0  0  0  0  0  0  0  0  0  0  0  0
   49.5350   32.0830   30.7380 S   0  0  0  0  0  0  0  0  0  0  0  0
   48.3130   31.4630   30.1570 O   0  0  0  0  0  0  0  0  0  0  0  0
   49.6080   33.5600   30.4690 O   0  0  0  0  0  0  0  0  0  0  0  0
  1  6  1  0  0  0  0
  1  2  2  0  0  0  0
  3  2  1  0  0  0  0
  4  3  1  0  0  0  0
  5  4  2  0  0  0  0
  5  1  1  0  0  0  0
  6  9  1  0  0  0  0
  6  7  1  0  0  0  0
  8  6  1  0  0  0  0
  9 23  1  0  0  0  0
  9 14  1  0  0  0  0
 10 16  1  0  0  0  0
 11 10  1  0  0  0  0
 11 17  1  0  0  0  0
 12 11  2  0  0  0  0
 13 14  2  0  0  0  0
 13 12  1  0  0  0  0
 14 15  1  0  0  0  0
 15 10  2  0  0  0  0
 18 12  1  0  0  0  0
 19 21  1  0  0  0  0
 19  9  1  0  0  0  0
 20 19  1  0  0  0  0
 22 19  1  0  0  0  0
 23 25  1  0  0  0  0
 24 23  1  0  0  0  0
 26 23  1  0  0  0  0
 27  4  1  0  0  0  0
 28 27  1  0  0  0  0
 29 28  1  0  0  0  0
 29 33  1  0  0  0  0
 30 29  2  0  0  0  0
 31 30  1  0  0  0  0
 31 32  1  0  0  0  0
 32 28  2  0  0  0  0
 34 30  1  0  0  0  0
 35 36  2  0  0  0  0
 35 40  1  0  0  0  0
 36 37  1  0  0  0  0
 37 38  2  0  0  0  0
 38 31  1  0  0  0  0
 39 38  1  0  0  0  0
 40 39  2  0  0  0  0
 41 42  1  0  0  0  0
 42 35  1  0  0  0  0
 43 42  2  0  0  0  0
 44 42  2  0  0  0  0
M  END
>  <minimizedAffinity>
-5.8931818

>  <minimizedRMSD>
3.93937945

$$$$
