
 OpenBabel03232520093D

 18 19  0  0  0  0  0  0  0  0999 V2000
   44.4980   36.0280   44.5910 C   0  0  0  0  0  0  0  0  0  0  0  0
   45.1030   36.1250   43.3090 C   0  0  0  0  0  0  0  0  0  0  0  0
   46.0260   35.1290   42.9220 C   0  0  0  0  0  0  0  0  0  0  0  0
   46.2860   34.1220   43.8100 N   0  0  0  0  0  0  0  0  0  0  0  0
   45.6860   34.0730   45.0180 C   0  0  0  0  0  0  0  0  0  0  0  0
   44.8010   35.0130   45.4100 N   0  0  0  0  0  0  0  0  0  0  0  0
   43.7930   36.7910   44.8850 H   0  0  0  0  0  0  0  0  0  0  0  0
   44.8810   36.9340   42.6180 H   0  0  0  0  0  0  0  0  0  0  0  0
   46.5170   35.1510   41.9600 H   0  0  0  0  0  0  0  0  0  0  0  0
   46.0340   32.9600   45.8820 C   0  0  0  0  0  0  0  0  0  0  0  0
   45.6930   32.7320   47.1970 C   0  0  0  0  0  0  0  0  0  0  0  0
   46.1420   31.6030   47.8090 C   0  0  0  0  0  0  0  0  0  0  0  0
   46.9290   30.7470   47.0340 C   0  0  0  0  0  0  0  0  0  0  0  0
   47.0220   31.5610   45.4410 S   0  0  0  0  0  0  0  0  0  0  0  0
   45.0750   33.4720   47.6930 H   0  0  0  0  0  0  0  0  0  0  0  0
   45.9320   31.3380   48.8230 H   0  0  0  0  0  0  0  0  0  0  0  0
   47.6700   29.2010   47.5210 S   0  0  0  0  0  0  0  0  0  0  0  0
   48.8630   29.4000   48.2480 H   0  0  0  0  0  0  0  0  0  0  0  0
  1  7  1  0  0  0  0
  1  6  1  0  0  0  0
  2  1  2  0  0  0  0
  3  2  1  0  0  0  0
  3  4  2  0  0  0  0
  4  5  1  0  0  0  0
  5  6  2  0  0  0  0
  5 10  1  0  0  0  0
  8  2  1  0  0  0  0
  9  3  1  0  0  0  0
 10 11  2  0  0  0  0
 11 15  1  0  0  0  0
 11 12  1  0  0  0  0
 12 16  1  0  0  0  0
 13 17  1  0  0  0  0
 13 12  2  0  0  0  0
 14 10  1  0  0  0  0
 14 13  1  0  0  0  0
 17 18  1  0  0  0  0
M  END
>  <minimizedAffinity>
-4.00715685

>  <minimizedRMSD>
1.04807544

$$$$
