
 OpenBabel03232521013D

 45 48  0  0  1  0  0  0  0  0999 V2000
   45.3240   32.9250   47.4920 C   0  0  0  0  0  0  0  0  0  0  0  0
   45.8870   32.6700   46.2840 C   0  0  0  0  0  0  0  0  0  0  0  0
   46.1740   31.3230   46.0520 C   0  0  0  0  0  0  0  0  0  0  0  0
   45.9170   30.3370   46.9470 N   0  0  0  0  0  0  0  0  0  0  0  0
   45.3410   30.6590   48.1650 C   0  0  0  0  0  0  0  0  0  0  0  0
   45.0600   31.9420   48.4040 N   0  0  0  0  0  0  0  0  0  0  0  0
   45.1000   29.6410   49.1280 N   0  0  0  0  0  0  0  0  0  0  0  0
   45.0660   33.9330   47.7770 H   0  0  0  0  0  0  0  0  0  0  0  0
   45.9570   29.2430   49.5720 H   0  0  0  0  0  0  0  0  0  0  0  0
   44.1560   29.3200   49.3710 H   0  0  0  0  0  0  0  0  0  0  0  0
   46.1300   33.6160   45.2490 C   0  0  2  0  0  0  0  0  0  0  0  0
   44.9320   34.7200   45.4870 C   0  0  0  0  0  0  0  0  0  0  0  0
   44.6990   35.6470   44.4160 C   0  0  0  0  0  0  0  0  0  0  0  0
   45.4890   35.5650   43.1820 C   0  0  1  0  0  0  0  0  0  0  0  0
   46.5390   34.5560   43.1300 C   0  0  0  0  0  0  0  0  0  0  0  0
   46.0860   33.3280   43.8860 C   0  0  0  0  0  0  0  0  0  0  0  0
   46.9360   34.3410   45.5710 H   0  0  0  0  0  0  0  0  0  0  0  0
   44.2660   34.8760   46.3280 H   0  0  0  0  0  0  0  0  0  0  0  0
   43.9400   36.3730   44.5290 H   0  0  0  0  0  0  0  0  0  0  0  0
   45.9220   36.5730   42.9860 H   0  0  0  0  0  0  0  0  0  0  0  0
   46.7880   34.3460   42.0590 H   0  0  0  0  0  0  0  0  0  0  0  0
   47.4900   34.9460   43.5860 H   0  0  0  0  0  0  0  0  0  0  0  0
   45.1370   32.9770   43.4310 H   0  0  0  0  0  0  0  0  0  0  0  0
   46.9280   32.6710   43.5490 H   0  0  0  0  0  0  0  0  0  0  0  0
   44.4610   35.3030   42.0420 C   0  0  0  0  0  0  0  0  0  0  0  0
   43.4030   34.5080   42.4490 F   0  0  0  0  0  0  0  0  0  0  0  0
   43.9200   36.5440   41.7130 F   0  0  0  0  0  0  0  0  0  0  0  0
   45.1200   34.8410   40.9190 F   0  0  0  0  0  0  0  0  0  0  0  0
   46.8240   30.6280   44.9540 C   0  0  0  0  0  0  0  0  0  0  0  0
   46.5010   29.7660   43.9570 C   0  0  0  0  0  0  0  0  0  0  0  0
   47.6790   29.4510   43.2590 C   0  0  0  0  0  0  0  0  0  0  0  0
   48.6470   30.1360   43.8680 N   0  0  0  0  0  0  0  0  0  0  0  0
   48.1710   30.8370   44.8690 N   0  0  0  0  0  0  0  0  0  0  0  0
   45.4690   29.4780   43.8630 H   0  0  0  0  0  0  0  0  0  0  0  0
   47.6040   28.7740   42.4280 H   0  0  0  0  0  0  0  0  0  0  0  0
   52.5420   29.6750   42.2560 C   0  0  0  0  0  0  0  0  0  0  0  0
   52.1680   28.9810   43.3870 C   0  0  0  0  0  3  0  0  0  0  0  0
   50.8950   29.1440   43.9000 C   0  0  0  0  0  3  0  0  0  0  0  0
   49.9650   29.9760   43.3280 C   0  0  0  0  0  0  0  0  0  0  0  0
   50.3190   30.6820   42.1910 C   0  0  0  0  0  3  0  0  0  0  0  0
   51.6060   30.5150   41.6780 C   0  0  0  0  0  3  0  0  0  0  0  0
   55.0350   30.1630   42.3270 H   0  0  0  0  0  0  0  0  0  0  0  0
   54.1350   29.5420   41.5240 S   0  0  0  0  0  0  0  0  0  0  0  0
   54.4460   28.0960   41.2690 O   0  0  0  0  0  0  0  0  0  0  0  0
   54.1280   30.2990   40.2050 O   0  0  0  0  0  0  0  0  0  0  0  0
  1  8  1  0  0  0  0
  1  6  1  0  0  0  0
  2  1  2  0  0  0  0
  3  2  1  0  0  0  0
  3  4  2  0  0  0  0
  4  5  1  0  0  0  0
  5  6  2  0  0  0  0
  5  7  1  0  0  0  0
  7 10  1  0  0  0  0
  7  9  1  0  0  0  0
 11 12  1  0  0  0  0
 11 17  1  1  0  0  0
 11  2  1  0  0  0  0
 12 18  1  0  0  0  0
 13 19  1  0  0  0  0
 13 12  2  0  0  0  0
 14 20  1  6  0  0  0
 14 13  1  0  0  0  0
 15 14  1  0  0  0  0
 15 22  1  0  0  0  0
 15 16  1  0  0  0  0
 16 11  1  0  0  0  0
 21 15  1  0  0  0  0
 23 16  1  0  0  0  0
 24 16  1  0  0  0  0
 25 26  1  0  0  0  0
 25 14  1  0  0  0  0
 27 25  1  0  0  0  0
 28 25  1  0  0  0  0
 29  3  1  0  0  0  0
 30 29  1  0  0  0  0
 31 32  1  0  0  0  0
 31 30  2  0  0  0  0
 32 33  1  0  0  0  0
 33 29  2  0  0  0  0
 34 30  1  0  0  0  0
 35 31  1  0  0  0  0
 36 37  1  0  0  0  0
 37 38  2  0  0  0  0
 39 32  1  0  0  0  0
 39 38  1  0  0  0  0
 40 39  2  0  0  0  0
 41 40  1  0  0  0  0
 41 36  2  0  0  0  0
 43 36  1  0  0  0  0
 43 42  1  0  0  0  0
 44 43  2  0  0  0  0
 45 43  2  0  0  0  0
M  END
>  <minimizedAffinity>
-5.86505365

>  <minimizedRMSD>
0.729427695

$$$$
