
 OpenBabel03232519523D

 42 45  0  0  1  0  0  0  0  0999 V2000
   45.7990   33.6730   42.1890 N   0  0  0  0  0  0  0  0  0  0  0  0
   47.0100   33.8630   41.4050 C   0  0  0  0  0  0  0  0  0  0  0  0
   46.4310   33.7980   40.0050 C   0  0  0  0  0  0  0  0  0  0  0  0
   45.6070   32.5440   40.0990 C   0  0  0  0  0  0  0  0  0  0  0  0
   45.0260   32.6480   41.4720 C   0  0  2  0  0  0  0  0  0  0  0  0
   47.7840   33.1000   41.5920 H   0  0  0  0  0  0  0  0  0  0  0  0
   47.3250   34.9010   41.5630 H   0  0  0  0  0  0  0  0  0  0  0  0
   47.2500   33.6470   39.2600 H   0  0  0  0  0  0  0  0  0  0  0  0
   45.8420   34.6980   39.8300 H   0  0  0  0  0  0  0  0  0  0  0  0
   46.2560   31.6610   39.9390 H   0  0  0  0  0  0  0  0  0  0  0  0
   44.7810   32.5330   39.3410 H   0  0  0  0  0  0  0  0  0  0  0  0
   45.3270   31.6990   41.9890 H   0  0  0  0  0  0  0  0  0  0  0  0
   44.5140   36.1380   44.6400 C   0  0  0  0  0  0  0  0  0  0  0  0
   44.8930   35.5830   43.4150 C   0  0  0  0  0  0  0  0  0  0  0  0
   45.4010   34.2910   43.3680 C   0  0  0  0  0  0  0  0  0  0  0  0
   45.4950   33.6340   44.5670 N   0  0  0  0  0  0  0  0  0  0  0  0
   45.1300   34.1690   45.7400 C   0  0  0  0  0  0  0  0  0  0  0  0
   44.6400   35.4200   45.7720 N   0  0  0  0  0  0  0  0  0  0  0  0
   45.3050   33.3280   46.8760 N   0  0  0  0  0  0  0  0  0  0  0  0
   44.1140   37.1230   44.7510 H   0  0  0  0  0  0  0  0  0  0  0  0
   44.7880   36.1600   42.5210 H   0  0  0  0  0  0  0  0  0  0  0  0
   46.0740   33.3860   47.5820 H   0  0  0  0  0  0  0  0  0  0  0  0
   44.5850   32.5680   47.0190 H   0  0  0  0  0  0  0  0  0  0  0  0
   43.6230   32.8190   41.5520 N   0  0  0  0  0  0  0  0  0  0  0  0
   42.9200   33.8910   41.1990 C   0  0  0  0  0  0  0  0  0  0  0  0
   41.5380   33.9780   41.3110 C   0  0  0  0  0  0  0  0  0  0  0  0
   40.8350   32.8860   41.8200 C   0  0  0  0  0  0  0  0  0  0  0  0
   39.5740   32.9230   41.9400 O   0  0  0  0  0  0  0  0  0  0  0  0
   41.5460   31.8180   42.1690 N   0  0  0  0  0  0  0  0  0  0  0  0
   42.8610   31.7990   42.0390 C   0  0  0  0  0  0  0  0  0  0  0  0
   43.4440   30.7250   42.4050 O   0  0  0  0  0  0  0  0  0  0  0  0
   43.4850   34.7400   40.8040 H   0  0  0  0  0  0  0  0  0  0  0  0
   41.0060   31.0110   42.5480 H   0  0  0  0  0  0  0  0  0  0  0  0
   40.8080   35.1980   40.8970 C   0  0  0  0  0  0  0  0  0  0  0  0
   41.5430   36.0320   40.8640 H   0  0  0  0  0  0  0  0  0  0  0  0
   39.9890   35.4690   41.5940 H   0  0  0  0  0  0  0  0  0  0  0  0
   40.2550   34.9740   39.5380 C   0  0  0  0  0  0  0  0  0  0  0  0
   40.9040   35.3920   38.3900 C   0  0  0  0  0  0  0  0  0  0  0  0
   40.1710   35.0620   37.2950 N   0  0  0  0  0  0  0  0  0  0  0  0
   39.0880   34.4470   37.8010 C   0  0  0  0  0  0  0  0  0  0  0  0
   39.1080   34.3770   39.1670 N   0  0  0  0  0  0  0  0  0  0  0  0
   38.3980   33.9610   39.7830 H   0  0  0  0  0  0  0  0  0  0  0  0
  1 15  1  0  0  0  0
  2  7  1  0  0  0  0
  2  6  1  0  0  0  0
  2  1  1  0  0  0  0
  3  4  1  0  0  0  0
  3  2  1  0  0  0  0
  4  5  1  0  0  0  0
  5 24  1  0  0  0  0
  5 12  1  1  0  0  0
  5  1  1  0  0  0  0
  8  3  1  0  0  0  0
  9  3  1  0  0  0  0
 10  4  1  0  0  0  0
 11  4  1  0  0  0  0
 13 20  1  0  0  0  0
 13 18  1  0  0  0  0
 14 13  2  0  0  0  0
 15 14  1  0  0  0  0
 15 16  2  0  0  0  0
 16 17  1  0  0  0  0
 17 18  2  0  0  0  0
 17 19  1  0  0  0  0
 19 23  1  0  0  0  0
 19 22  1  0  0  0  0
 21 14  1  0  0  0  0
 24 30  1  0  0  0  0
 25 26  2  0  0  0  0
 25 24  1  0  0  0  0
 26 27  1  0  0  0  0
 27 28  2  0  0  0  0
 27 29  1  0  0  0  0
 29 33  1  0  0  0  0
 30 29  1  0  0  0  0
 30 31  2  0  0  0  0
 32 25  1  0  0  0  0
 34 26  1  0  0  0  0
 34 36  1  0  0  0  0
 35 34  1  0  0  0  0
 37 34  1  0  0  0  0
 38 37  2  0  0  0  0
 39 40  2  0  0  0  0
 39 38  1  0  0  0  0
 40 41  1  0  0  0  0
 41 37  1  0  0  0  0
 41 42  1  0  0  0  0
M  END
>  <minimizedAffinity>
-6.43009424

>  <minimizedRMSD>
1.28810978

$$$$
