
 OpenBabel03232519243D

 37 40  0  0  1  0  0  0  0  0999 V2000
   46.9440   30.6270   47.8090 N   0  0  0  0  0  0  0  0  0  0  0  0
   46.8960   30.9940   49.2300 C   0  0  0  0  0  0  0  0  0  0  0  0
   45.7350   31.9270   49.2560 C   0  0  0  0  0  0  0  0  0  0  0  0
   44.7160   31.2500   48.3870 C   0  0  0  0  0  0  0  0  0  0  0  0
   45.6310   30.5230   47.3610 C   0  0  2  0  0  0  0  0  0  0  0  0
   47.5320   31.3780   47.3980 H   0  0  0  0  0  0  0  0  0  0  0  0
   46.7430   30.0980   49.8630 H   0  0  0  0  0  0  0  0  0  0  0  0
   47.7950   31.5630   49.5490 H   0  0  0  0  0  0  0  0  0  0  0  0
   45.3720   32.1840   50.2670 H   0  0  0  0  0  0  0  0  0  0  0  0
   46.0280   32.8620   48.7400 H   0  0  0  0  0  0  0  0  0  0  0  0
   44.1580   30.5630   49.0150 H   0  0  0  0  0  0  0  0  0  0  0  0
   44.0340   31.9380   47.8600 H   0  0  0  0  0  0  0  0  0  0  0  0
   45.0900   29.1380   47.3360 C   0  0  0  0  0  0  0  0  0  0  0  0
   45.1420   27.9810   48.0860 C   0  0  0  0  0  0  0  0  0  0  0  0
   44.3840   27.0320   47.4870 C   0  0  0  0  0  0  0  0  0  0  0  0
   43.8590   27.5940   46.3590 N   0  0  0  0  0  0  0  0  0  0  0  0
   44.2870   28.8570   46.2760 N   0  0  0  0  0  0  0  0  0  0  0  0
   45.7580   28.0460   48.9880 H   0  0  0  0  0  0  0  0  0  0  0  0
   44.2910   26.0430   47.9210 H   0  0  0  0  0  0  0  0  0  0  0  0
   43.2290   27.0610   45.7110 H   0  0  0  0  0  0  0  0  0  0  0  0
   45.4940   30.9650   46.0830 O   0  0  0  0  0  0  0  0  0  0  0  0
   46.5100   31.6110   45.3000 C   0  0  0  0  0  0  0  0  0  0  0  0
   47.5940   31.0560   45.1470 O   0  0  0  0  0  0  0  0  0  0  0  0
   45.0270   34.9340   44.9070 C   0  0  0  0  0  0  0  0  0  0  0  0
   45.4370   35.3270   43.6290 C   0  0  0  0  0  0  0  0  0  0  0  0
   46.2240   34.4370   42.9160 C   0  0  0  0  0  0  0  0  0  0  0  0
   46.5540   33.2390   43.4880 N   0  0  0  0  0  0  0  0  0  0  0  0
   46.1100   32.9290   44.7490 C   0  0  0  0  0  0  0  0  0  0  0  0
   45.3660   33.7590   45.4350 N   0  0  0  0  0  0  0  0  0  0  0  0
   44.4050   35.6050   45.5070 H   0  0  0  0  0  0  0  0  0  0  0  0
   45.1580   36.2730   43.2150 H   0  0  0  0  0  0  0  0  0  0  0  0
   46.6870   34.7260   41.6390 O   0  0  0  0  0  0  0  0  0  0  0  0
   47.9470   34.2890   41.1760 C   0  0  0  0  0  0  0  0  0  0  0  0
   48.6030   35.5000   40.5270 C   0  0  0  0  0  0  0  0  0  0  0  0
   49.3400   36.1780   41.6730 C   0  0  0  0  0  0  0  0  0  0  0  0
   49.8980   35.0030   42.4480 C   0  0  0  0  0  0  0  0  0  0  0  0
   48.8740   33.9220   42.3130 C   0  0  0  0  0  0  0  0  0  0  0  0
  1  2  1  0  0  0  0
  2  3  1  0  0  0  0
  2  8  1  0  0  0  0
  2  7  1  0  0  0  0
  3  9  1  0  0  0  0
  4 11  1  0  0  0  0
  4  3  1  0  0  0  0
  5 21  1  6  0  0  0
  5  1  1  0  0  0  0
  5  4  1  0  0  0  0
  6  1  1  0  0  0  0
 10  3  1  0  0  0  0
 12  4  1  0  0  0  0
 13  5  1  0  0  0  0
 13 14  1  0  0  0  0
 14 18  1  0  0  0  0
 15 19  1  0  0  0  0
 15 14  2  0  0  0  0
 16 15  1  0  0  0  0
 17 16  1  0  0  0  0
 17 13  2  0  0  0  0
 20 16  1  0  0  0  0
 22 21  1  0  0  0  0
 23 22  2  0  0  0  0
 24 29  1  0  0  0  0
 24 30  1  0  0  0  0
 25 24  2  0  0  0  0
 26 27  2  0  0  0  0
 26 25  1  0  0  0  0
 27 28  1  0  0  0  0
 28 22  1  0  0  0  0
 28 29  2  0  0  0  0
 31 25  1  0  0  0  0
 32 26  1  0  0  0  0
 33 32  1  0  0  0  0
 33 37  1  0  0  0  0
 34 33  1  0  0  0  0
 34 35  1  0  0  0  0
 35 36  1  0  0  0  0
 37 36  1  0  0  0  0
M  END
>  <minimizedAffinity>
-5.95504379

>  <minimizedRMSD>
1.38919079

$$$$
