
 OpenBabel03232521013D

 45 49  0  0  1  0  0  0  0  0999 V2000
   45.4540   32.9260   47.5400 C   0  0  0  0  0  0  0  0  0  0  0  0
   45.9290   32.6540   46.2970 C   0  0  0  0  0  0  0  0  0  0  0  0
   46.1060   31.2880   46.0370 C   0  0  0  0  0  0  0  0  0  0  0  0
   45.8310   30.3040   46.9290 N   0  0  0  0  0  0  0  0  0  0  0  0
   45.3480   30.6410   48.1820 C   0  0  0  0  0  0  0  0  0  0  0  0
   45.1720   31.9410   48.4580 N   0  0  0  0  0  0  0  0  0  0  0  0
   45.0590   29.6380   49.1360 N   0  0  0  0  0  0  0  0  0  0  0  0
   45.2840   33.9190   47.8520 H   0  0  0  0  0  0  0  0  0  0  0  0
   44.2370   29.8380   49.7810 H   0  0  0  0  0  0  0  0  0  0  0  0
   45.6110   28.7540   49.2110 H   0  0  0  0  0  0  0  0  0  0  0  0
   46.1650   33.5980   45.2580 C   0  0  2  0  0  0  0  0  0  0  0  0
   44.9510   34.6900   45.4910 C   0  0  0  0  0  0  0  0  0  0  0  0
   44.7160   35.6160   44.4190 C   0  0  0  0  0  0  0  0  0  0  0  0
   45.5120   35.5330   43.1870 C   0  0  1  0  0  0  0  0  0  0  0  0
   46.5590   34.5220   43.1330 C   0  0  0  0  0  0  0  0  0  0  0  0
   46.1080   33.3010   43.8980 C   0  0  0  0  0  0  0  0  0  0  0  0
   46.9410   34.3510   45.5840 H   0  0  0  0  0  0  0  0  0  0  0  0
   44.2870   34.8270   46.3370 H   0  0  0  0  0  0  0  0  0  0  0  0
   43.9300   36.3470   44.5390 H   0  0  0  0  0  0  0  0  0  0  0  0
   45.9420   36.5360   42.9840 H   0  0  0  0  0  0  0  0  0  0  0  0
   46.7560   34.2830   42.0450 H   0  0  0  0  0  0  0  0  0  0  0  0
   47.5450   34.8240   43.5270 H   0  0  0  0  0  0  0  0  0  0  0  0
   46.9450   32.6370   43.5570 H   0  0  0  0  0  0  0  0  0  0  0  0
   45.1300   32.9370   43.5000 H   0  0  0  0  0  0  0  0  0  0  0  0
   44.4840   35.2740   42.0470 C   0  0  0  0  0  0  0  0  0  0  0  0
   43.4320   34.4660   42.4500 F   0  0  0  0  0  0  0  0  0  0  0  0
   43.9330   36.5110   41.7210 F   0  0  0  0  0  0  0  0  0  0  0  0
   45.1440   34.8140   40.9250 F   0  0  0  0  0  0  0  0  0  0  0  0
   46.6530   30.5710   44.8980 C   0  0  0  0  0  0  0  0  0  0  0  0
   46.2230   29.7820   43.8800 C   0  0  0  0  0  0  0  0  0  0  0  0
   47.3570   29.3890   43.1380 C   0  0  0  0  0  0  0  0  0  0  0  0
   48.3980   29.9570   43.7420 N   0  0  0  0  0  0  0  0  0  0  0  0
   48.0190   30.6600   44.7820 N   0  0  0  0  0  0  0  0  0  0  0  0
   45.1720   29.5980   43.8090 H   0  0  0  0  0  0  0  0  0  0  0  0
   47.2480   28.7550   42.2820 H   0  0  0  0  0  0  0  0  0  0  0  0
   49.7570   29.7930   43.2730 C   0  0  0  0  0  0  0  0  0  0  0  0
   50.6410   28.8600   43.8310 C   0  0  0  0  0  3  0  0  0  0  0  0
   51.8200   28.9510   43.1790 N   0  0  0  0  0  0  0  0  0  0  0  0
   51.7230   29.9030   42.2300 C   0  0  0  0  0  0  0  0  0  0  0  0
   52.6510   30.3640   41.3120 C   0  0  0  0  0  3  0  0  0  0  0  0
   52.2200   31.3660   40.4680 C   0  0  0  0  0  3  0  0  0  0  0  0
   50.9470   31.9090   40.5030 C   0  0  0  0  0  3  0  0  0  0  0  0
   50.0380   31.4360   41.4250 C   0  0  0  0  0  3  0  0  0  0  0  0
   50.4360   30.4470   42.2690 C   0  0  0  0  0  0  0  0  0  0  0  0
   52.6410   28.3440   43.4260 H   0  0  0  0  0  0  0  0  0  0  0  0
  1  8  1  0  0  0  0
  1  6  1  0  0  0  0
  2  1  2  0  0  0  0
  3  2  1  0  0  0  0
  3  4  2  0  0  0  0
  4  5  1  0  0  0  0
  5  6  2  0  0  0  0
  5  7  1  0  0  0  0
  7 10  1  0  0  0  0
  7  9  1  0  0  0  0
 11 12  1  0  0  0  0
 11 17  1  1  0  0  0
 11  2  1  0  0  0  0
 12 18  1  0  0  0  0
 13 19  1  0  0  0  0
 13 12  2  0  0  0  0
 14 20  1  6  0  0  0
 14 13  1  0  0  0  0
 15 14  1  0  0  0  0
 15 22  1  0  0  0  0
 15 16  1  0  0  0  0
 16 11  1  0  0  0  0
 21 15  1  0  0  0  0
 23 16  1  0  0  0  0
 24 16  1  0  0  0  0
 25 26  1  0  0  0  0
 25 14  1  0  0  0  0
 27 25  1  0  0  0  0
 28 25  1  0  0  0  0
 29  3  1  0  0  0  0
 30 29  1  0  0  0  0
 31 32  1  0  0  0  0
 31 30  2  0  0  0  0
 32 33  1  0  0  0  0
 33 29  2  0  0  0  0
 34 30  1  0  0  0  0
 35 31  1  0  0  0  0
 36 32  1  0  0  0  0
 36 37  2  0  0  0  0
 38 45  1  0  0  0  0
 38 37  1  0  0  0  0
 39 44  1  0  0  0  0
 39 38  1  0  0  0  0
 40 39  2  0  0  0  0
 41 42  2  0  0  0  0
 41 40  1  0  0  0  0
 42 43  1  0  0  0  0
 43 44  2  0  0  0  0
 44 36  1  0  0  0  0
M  END
>  <minimizedAffinity>
-6.3021841

>  <minimizedRMSD>
0.488569915

$$$$
