REMARK  Name = 
REMARK  3 active torsions:
REMARK  status: ('A' for Active; 'I' for Inactive)
REMARK    1  A    between atoms: C_1  and  C_8
REMARK    2  A    between atoms: C_4  and  C_14
REMARK    3  A    between atoms: C_9  and  C_29
REMARK                            x       y       z     vdW  Elec       q    Type
REMARK                         _______ _______ _______ _____ _____    ______ ____
ROOT
ATOM      1  C   UNL     1      46.146  33.661  45.318  0.00  0.00    +0.000 C 
ATOM      2  C   UNL     1      44.947  34.697  45.481  0.00  0.00    +0.000 C 
ATOM      3  C   UNL     1      44.703  35.587  44.376  0.00  0.00    +0.000 C 
ATOM      4  C   UNL     1      45.522  35.525  43.173  0.00  0.00    +0.000 C 
ATOM      5  C   UNL     1      46.639  34.539  43.168  0.00  0.00    +0.000 C 
ATOM      6  C   UNL     1      46.171  33.309  43.933  0.00  0.00    +0.000 C 
ATOM      7  H   UNL     1      46.936  34.386  45.642  0.00  0.00    +0.000 HD
ATOM      8  H   UNL     1      44.225  34.908  46.261  0.00  0.00    +0.000 HD
ATOM      9  H   UNL     1      43.921  36.302  44.416  0.00  0.00    +0.000 HD
ATOM     10  H   UNL     1      45.903  36.541  42.944  0.00  0.00    +0.000 HD
ATOM     11  H   UNL     1      46.825  34.249  42.117  0.00  0.00    +0.000 HD
ATOM     12  H   UNL     1      47.572  34.973  43.570  0.00  0.00    +0.000 HD
ATOM     13  H   UNL     1      46.532  32.470  43.435  0.00  0.00    +0.000 HD
ATOM     14  H   UNL     1      45.030  33.271  43.617  0.00  0.00    +0.000 HD
ENDROOT
BRANCH   1  16
ATOM     15  C   UNL     1      45.306  32.896  47.534  0.00  0.00    +0.000 A 
ATOM     16  C   UNL     1      45.947  32.670  46.333  0.00  0.00    +0.000 A 
ATOM     17  C   UNL     1      46.306  31.363  46.128  0.00  0.00    +0.000 A 
ATOM     18  N   UNL     1      46.039  30.397  47.027  0.00  0.00    +0.000 NA
ATOM     19  C   UNL     1      45.408  30.653  48.196  0.00  0.00    +0.000 A 
ATOM     20  N   UNL     1      45.045  31.905  48.444  0.00  0.00    +0.000 NA
ATOM     21  N   UNL     1      45.200  29.602  49.140  0.00  0.00    +0.000 N 
ATOM     22  H   UNL     1      44.988  33.887  47.800  0.00  0.00    +0.000 HD
ATOM     23  H   UNL     1      44.277  29.381  49.568  0.00  0.00    +0.000 HD
ATOM     24  H   UNL     1      46.038  29.030  49.406  0.00  0.00    +0.000 HD
BRANCH  17  25
ATOM     25  C   UNL     1      47.309  30.863  45.097  0.00  0.00    +0.000 A 
ATOM     26  C   UNL     1      48.413  31.807  44.760  0.00  0.00    +0.000 A 
ATOM     27  C   UNL     1      49.290  31.266  43.877  0.00  0.00    +0.000 A 
ATOM     28  C   UNL     1      49.218  30.001  43.326  0.00  0.00    +0.000 A 
ATOM     29  S   UNL     1      47.633  29.455  44.195  0.00  0.00    +0.000 S 
ENDBRANCH  17  25
ENDBRANCH   1  16
BRANCH   4  30
ATOM     30  C   UNL     1      44.577  35.187  41.992  0.00  0.00    +0.000 C 
ATOM     31  F   UNL     1      43.587  34.295  42.332  0.00  0.00    +0.000 F 
ATOM     32  F   UNL     1      43.938  36.377  41.651  0.00  0.00    +0.000 F 
ATOM     33  F   UNL     1      45.316  34.789  40.891  0.00  0.00    +0.000 F 
ENDBRANCH   4  30
TORSDOF 3
