
 OpenBabel03232520333D

 42 46  0  0  1  0  0  0  0  0999 V2000
   46.8190   34.5290   41.3480 C   0  0  0  0  0  0  0  0  0  0  0  0
   48.0810   34.9290   40.9540 C   0  0  0  0  0  0  0  0  0  0  0  0
   48.3240   34.5750   39.7050 N   0  0  0  0  0  0  0  0  0  0  0  0
   47.2180   33.9350   39.2640 C   0  0  0  0  0  0  0  0  0  0  0  0
   46.9440   33.3580   38.0180 C   0  0  0  0  0  0  0  0  0  0  0  0
   45.7330   32.7660   37.8250 C   0  0  0  0  0  0  0  0  0  0  0  0
   44.7470   32.6860   38.7660 C   0  0  0  0  0  0  0  0  0  0  0  0
   45.0670   33.2680   39.9750 C   0  0  0  0  0  0  0  0  0  0  0  0
   46.2610   33.8870   40.2570 C   0  0  0  0  0  0  0  0  0  0  0  0
   49.1770   34.7170   39.0930 H   0  0  0  0  0  0  0  0  0  0  0  0
   47.6870   33.3860   37.2180 H   0  0  0  0  0  0  0  0  0  0  0  0
   45.5640   32.3310   36.8410 H   0  0  0  0  0  0  0  0  0  0  0  0
   43.8010   32.2160   38.6020 H   0  0  0  0  0  0  0  0  0  0  0  0
   44.3560   33.2620   40.7950 H   0  0  0  0  0  0  0  0  0  0  0  0
   44.7410   36.0170   44.0600 C   0  0  0  0  0  0  0  0  0  0  0  0
   45.3620   35.8480   42.8140 C   0  0  0  0  0  0  0  0  0  0  0  0
   46.1650   34.7210   42.6380 C   0  0  0  0  0  0  0  0  0  0  0  0
   46.3210   33.8240   43.6760 N   0  0  0  0  0  0  0  0  0  0  0  0
   45.6920   34.0470   44.8590 C   0  0  0  0  0  0  0  0  0  0  0  0
   44.9070   35.1310   45.0580 N   0  0  0  0  0  0  0  0  0  0  0  0
   44.1350   36.8940   44.1490 H   0  0  0  0  0  0  0  0  0  0  0  0
   45.2420   36.5500   41.9970 H   0  0  0  0  0  0  0  0  0  0  0  0
   45.8770   33.2820   45.6190 H   0  0  0  0  0  0  0  0  0  0  0  0
   49.0190   35.6610   41.8440 C   0  0  0  0  0  0  0  0  0  0  0  0
   49.6380   36.3470   41.2080 H   0  0  0  0  0  0  0  0  0  0  0  0
   48.4450   36.2900   42.5840 H   0  0  0  0  0  0  0  0  0  0  0  0
   49.9070   34.7370   42.6010 C   0  0  0  0  0  0  0  0  0  0  0  0
   49.4950   34.5830   43.6230 H   0  0  0  0  0  0  0  0  0  0  0  0
   50.9000   35.2320   42.7280 H   0  0  0  0  0  0  0  0  0  0  0  0
   50.1660   33.4270   41.9190 C   0  0  1  0  0  0  0  0  0  0  0  0
   51.0790   32.3960   42.4340 C   0  0  0  0  0  0  0  0  0  0  0  0
   49.6160   32.2090   42.6820 C   0  0  2  0  0  0  0  0  0  0  0  0
   50.0190   33.4230   40.8110 H   0  0  0  0  0  0  0  0  0  0  0  0
   51.6150   31.7440   41.7150 H   0  0  0  0  0  0  0  0  0  0  0  0
   51.6920   32.6830   43.3140 H   0  0  0  0  0  0  0  0  0  0  0  0
   49.2620   32.3330   43.7090 H   0  0  0  0  0  0  0  0  0  0  0  0
   49.0000   31.2050   41.9720 O   0  0  0  0  0  0  0  0  0  0  0  0
   48.4990   30.1900   42.7410 C   0  0  0  0  0  0  0  0  0  0  0  0
   48.0660   30.8260   44.0530 C   0  0  0  0  0  0  0  0  0  0  0  0
   47.8520   29.5960   44.9110 C   0  0  0  0  0  0  0  0  0  0  0  0
   49.1970   28.9100   44.6890 C   0  0  0  0  0  0  0  0  0  0  0  0
   49.5230   29.1850   43.2140 C   0  0  0  0  0  0  0  0  0  0  0  0
  1 17  1  0  0  0  0
  2  1  2  0  0  0  0
  2 24  1  0  0  0  0
  3  2  1  0  0  0  0
  4  3  1  0  0  0  0
  4  9  1  0  0  0  0
  5  4  2  0  0  0  0
  6  5  1  0  0  0  0
  6  7  2  0  0  0  0
  7  8  1  0  0  0  0
  8  9  2  0  0  0  0
  8 14  1  0  0  0  0
  9  1  1  0  0  0  0
 10  3  1  0  0  0  0
 11  5  1  0  0  0  0
 12  6  1  0  0  0  0
 13  7  1  0  0  0  0
 15 21  1  0  0  0  0
 15 20  1  0  0  0  0
 16 15  2  0  0  0  0
 17 16  1  0  0  0  0
 17 18  2  0  0  0  0
 18 19  1  0  0  0  0
 19 20  2  0  0  0  0
 19 23  1  0  0  0  0
 22 16  1  0  0  0  0
 24 26  1  0  0  0  0
 24 27  1  0  0  0  0
 25 24  1  0  0  0  0
 27 29  1  0  0  0  0
 27 28  1  0  0  0  0
 30 33  1  6  0  0  0
 30 31  1  0  0  0  0
 30 27  1  0  0  0  0
 30 32  1  0  0  0  0
 31 32  1  0  0  0  0
 31 35  1  0  0  0  0
 32 36  1  1  0  0  0
 34 31  1  0  0  0  0
 37 32  1  0  0  0  0
 37 38  1  0  0  0  0
 38 42  1  0  0  0  0
 38 39  1  0  0  0  0
 39 40  1  0  0  0  0
 41 40  1  0  0  0  0
 42 41  1  0  0  0  0
M  END
>  <minimizedAffinity>
-5.62996483

>  <minimizedRMSD>
0.739418983

$$$$
