
 OpenBabel03232520293D

 41 45  0  0  1  0  0  0  0  0999 V2000
   46.9500   34.5230   41.3560 C   0  0  0  0  0  0  0  0  0  0  0  0
   48.2280   34.9560   41.0300 C   0  0  0  0  0  0  0  0  0  0  0  0
   48.5070   34.6540   39.7680 N   0  0  0  0  0  0  0  0  0  0  0  0
   47.4260   34.0300   39.2650 C   0  0  0  0  0  0  0  0  0  0  0  0
   47.1890   33.5080   38.0000 C   0  0  0  0  0  0  0  0  0  0  0  0
   45.9810   32.9100   37.7380 C   0  0  0  0  0  0  0  0  0  0  0  0
   44.9660   32.7870   38.6600 C   0  0  0  0  0  0  0  0  0  0  0  0
   45.2430   33.3190   39.9070 C   0  0  0  0  0  0  0  0  0  0  0  0
   46.4220   33.9270   40.2350 C   0  0  0  0  0  0  0  0  0  0  0  0
   49.3880   34.8550   39.2470 H   0  0  0  0  0  0  0  0  0  0  0  0
   47.9520   33.5740   37.2240 H   0  0  0  0  0  0  0  0  0  0  0  0
   45.8450   32.5190   36.7350 H   0  0  0  0  0  0  0  0  0  0  0  0
   44.0250   32.3140   38.4330 H   0  0  0  0  0  0  0  0  0  0  0  0
   44.5150   33.2770   40.7080 H   0  0  0  0  0  0  0  0  0  0  0  0
   44.7730   35.8820   44.0710 C   0  0  0  0  0  0  0  0  0  0  0  0
   45.4230   35.7640   42.8270 C   0  0  0  0  0  0  0  0  0  0  0  0
   46.2670   34.6620   42.6430 C   0  0  0  0  0  0  0  0  0  0  0  0
   46.4320   33.7460   43.6620 N   0  0  0  0  0  0  0  0  0  0  0  0
   45.7680   33.9320   44.8350 C   0  0  0  0  0  0  0  0  0  0  0  0
   44.9550   34.9680   45.0530 N   0  0  0  0  0  0  0  0  0  0  0  0
   44.1070   36.7060   44.2850 H   0  0  0  0  0  0  0  0  0  0  0  0
   45.2680   36.4930   42.0650 H   0  0  0  0  0  0  0  0  0  0  0  0
   45.9090   33.2020   45.6290 H   0  0  0  0  0  0  0  0  0  0  0  0
   49.1280   35.6510   41.9740 C   0  0  0  0  0  0  0  0  0  0  0  0
   48.4820   36.1650   42.7430 H   0  0  0  0  0  0  0  0  0  0  0  0
   49.6420   36.4600   41.4150 H   0  0  0  0  0  0  0  0  0  0  0  0
   50.0800   34.7020   42.6450 C   0  0  0  0  0  0  0  0  0  0  0  0
   49.6860   34.5270   43.6880 H   0  0  0  0  0  0  0  0  0  0  0  0
   51.0650   35.1960   42.8080 H   0  0  0  0  0  0  0  0  0  0  0  0
   50.3000   33.4300   41.9010 C   0  0  1  0  0  0  0  0  0  0  0  0
   50.9580   32.2630   42.5010 C   0  0  0  0  0  0  0  0  0  0  0  0
   49.4640   32.2300   42.4420 C   0  0  2  0  0  0  0  0  0  0  0  0
   50.3870   33.4820   40.7840 H   0  0  0  0  0  0  0  0  0  0  0  0
   51.5770   31.5800   41.9120 H   0  0  0  0  0  0  0  0  0  0  0  0
   51.3750   32.4450   43.5160 H   0  0  0  0  0  0  0  0  0  0  0  0
   48.8910   32.4020   43.3500 H   0  0  0  0  0  0  0  0  0  0  0  0
   48.9330   31.3030   41.4090 C   0  0  0  0  0  0  0  0  0  0  0  0
   49.3140   30.7860   40.1790 C   0  0  0  0  0  0  0  0  0  0  0  0
   48.4460   29.9150   39.5760 C   0  0  0  0  0  0  0  0  0  0  0  0
   47.2660   29.5470   40.1130 C   0  0  0  0  0  0  0  0  0  0  0  0
   47.2470   30.4920   41.7010 S   0  0  0  0  0  0  0  0  0  0  0  0
  1 17  1  0  0  0  0
  2  1  2  0  0  0  0
  2 24  1  0  0  0  0
  3  2  1  0  0  0  0
  4  3  1  0  0  0  0
  4  9  1  0  0  0  0
  5  4  2  0  0  0  0
  6  5  1  0  0  0  0
  6  7  2  0  0  0  0
  7  8  1  0  0  0  0
  8  9  2  0  0  0  0
  8 14  1  0  0  0  0
  9  1  1  0  0  0  0
 10  3  1  0  0  0  0
 11  5  1  0  0  0  0
 12  6  1  0  0  0  0
 13  7  1  0  0  0  0
 15 21  1  0  0  0  0
 15 20  1  0  0  0  0
 16 15  2  0  0  0  0
 17 16  1  0  0  0  0
 17 18  2  0  0  0  0
 18 19  1  0  0  0  0
 19 20  2  0  0  0  0
 19 23  1  0  0  0  0
 22 16  1  0  0  0  0
 24 27  1  0  0  0  0
 24 25  1  0  0  0  0
 26 24  1  0  0  0  0
 27 29  1  0  0  0  0
 27 28  1  0  0  0  0
 30 33  1  6  0  0  0
 30 32  1  0  0  0  0
 30 31  1  0  0  0  0
 30 27  1  0  0  0  0
 31 35  1  0  0  0  0
 32 31  1  0  0  0  0
 32 36  1  1  0  0  0
 34 31  1  0  0  0  0
 37 41  1  0  0  0  0
 37 32  1  0  0  0  0
 38 37  2  0  0  0  0
 39 40  2  0  0  0  0
 39 38  1  0  0  0  0
 40 41  1  0  0  0  0
M  END
>  <minimizedAffinity>
-5.75293112

>  <minimizedRMSD>
0.252608657

$$$$
