
 OpenBabel03232521013D

 45 49  0  0  1  0  0  0  0  0999 V2000
   45.3810   32.8700   47.4500 C   0  0  0  0  0  0  0  0  0  0  0  0
   45.9310   32.6270   46.2320 C   0  0  0  0  0  0  0  0  0  0  0  0
   46.1990   31.2750   45.9830 C   0  0  0  0  0  0  0  0  0  0  0  0
   45.9400   30.2750   46.8630 N   0  0  0  0  0  0  0  0  0  0  0  0
   45.3790   30.5820   48.0910 C   0  0  0  0  0  0  0  0  0  0  0  0
   45.1140   31.8690   48.3550 N   0  0  0  0  0  0  0  0  0  0  0  0
   45.1040   29.5620   49.0320 N   0  0  0  0  0  0  0  0  0  0  0  0
   45.1390   33.8510   47.7520 H   0  0  0  0  0  0  0  0  0  0  0  0
   44.2420   29.7130   49.6360 H   0  0  0  0  0  0  0  0  0  0  0  0
   45.7030   28.7130   49.1340 H   0  0  0  0  0  0  0  0  0  0  0  0
   46.1600   33.5850   45.2040 C   0  0  2  0  0  0  0  0  0  0  0  0
   44.9570   34.6820   45.4680 C   0  0  0  0  0  0  0  0  0  0  0  0
   44.7150   35.6250   44.4120 C   0  0  0  0  0  0  0  0  0  0  0  0
   45.4950   35.5540   43.1690 C   0  0  1  0  0  0  0  0  0  0  0  0
   46.5330   34.5370   43.0880 C   0  0  0  0  0  0  0  0  0  0  0  0
   46.0840   33.3090   43.8400 C   0  0  0  0  0  0  0  0  0  0  0  0
   46.9450   34.3280   45.5310 H   0  0  0  0  0  0  0  0  0  0  0  0
   44.3050   34.8110   46.3250 H   0  0  0  0  0  0  0  0  0  0  0  0
   43.9360   36.3600   44.5540 H   0  0  0  0  0  0  0  0  0  0  0  0
   45.9300   36.5570   42.9760 H   0  0  0  0  0  0  0  0  0  0  0  0
   46.7150   34.3130   41.9940 H   0  0  0  0  0  0  0  0  0  0  0  0
   47.5270   34.8270   43.4740 H   0  0  0  0  0  0  0  0  0  0  0  0
   46.9120   32.6440   43.4790 H   0  0  0  0  0  0  0  0  0  0  0  0
   45.0980   32.9570   43.4490 H   0  0  0  0  0  0  0  0  0  0  0  0
   44.4500   35.3200   42.0390 C   0  0  0  0  0  0  0  0  0  0  0  0
   43.3840   34.5350   42.4520 F   0  0  0  0  0  0  0  0  0  0  0  0
   43.9250   36.5680   41.7180 F   0  0  0  0  0  0  0  0  0  0  0  0
   45.0900   34.8450   40.9110 F   0  0  0  0  0  0  0  0  0  0  0  0
   46.8420   30.5930   44.8730 C   0  0  0  0  0  0  0  0  0  0  0  0
   46.5120   29.7620   43.8510 C   0  0  0  0  0  0  0  0  0  0  0  0
   47.6990   29.4530   43.1530 C   0  0  0  0  0  0  0  0  0  0  0  0
   48.6700   30.1090   43.7860 N   0  0  0  0  0  0  0  0  0  0  0  0
   48.2000   30.7890   44.8030 N   0  0  0  0  0  0  0  0  0  0  0  0
   45.4820   29.4940   43.7450 H   0  0  0  0  0  0  0  0  0  0  0  0
   47.6710   28.8050   42.3020 H   0  0  0  0  0  0  0  0  0  0  0  0
   50.0530   30.0490   43.3660 C   0  0  0  0  0  0  0  0  0  0  0  0
   50.4830   30.4990   42.1090 C   0  0  0  0  0  3  0  0  0  0  0  0
   51.8150   30.3090   42.0240 N   0  0  0  0  0  0  0  0  0  0  0  0
   52.2540   29.7550   43.1710 C   0  0  0  0  0  0  0  0  0  0  0  0
   53.5250   29.3740   43.5660 C   0  0  0  0  0  3  0  0  0  0  0  0
   53.6280   28.8290   44.8300 C   0  0  0  0  0  3  0  0  0  0  0  0
   52.5540   28.6550   45.6840 C   0  0  0  0  0  3  0  0  0  0  0  0
   51.2950   29.0410   45.2730 C   0  0  0  0  0  3  0  0  0  0  0  0
   51.1640   29.5820   44.0300 C   0  0  0  0  0  0  0  0  0  0  0  0
   52.3630   30.5740   41.1660 H   0  0  0  0  0  0  0  0  0  0  0  0
  1  8  1  0  0  0  0
  1  6  1  0  0  0  0
  2  1  2  0  0  0  0
  3  2  1  0  0  0  0
  3  4  2  0  0  0  0
  4  5  1  0  0  0  0
  5  6  2  0  0  0  0
  5  7  1  0  0  0  0
  7 10  1  0  0  0  0
  7  9  1  0  0  0  0
 11 12  1  0  0  0  0
 11 17  1  1  0  0  0
 11  2  1  0  0  0  0
 12 18  1  0  0  0  0
 13 19  1  0  0  0  0
 13 12  2  0  0  0  0
 14 20  1  6  0  0  0
 14 13  1  0  0  0  0
 15 14  1  0  0  0  0
 15 22  1  0  0  0  0
 15 16  1  0  0  0  0
 16 11  1  0  0  0  0
 21 15  1  0  0  0  0
 23 16  1  0  0  0  0
 24 16  1  0  0  0  0
 25 26  1  0  0  0  0
 25 14  1  0  0  0  0
 27 25  1  0  0  0  0
 28 25  1  0  0  0  0
 29  3  1  0  0  0  0
 30 29  1  0  0  0  0
 31 32  1  0  0  0  0
 31 30  2  0  0  0  0
 32 33  1  0  0  0  0
 33 29  2  0  0  0  0
 34 30  1  0  0  0  0
 35 31  1  0  0  0  0
 36 32  1  0  0  0  0
 36 44  1  0  0  0  0
 37 36  2  0  0  0  0
 38 37  1  0  0  0  0
 38 39  1  0  0  0  0
 39 40  2  0  0  0  0
 39 44  1  0  0  0  0
 40 41  1  0  0  0  0
 41 42  2  0  0  0  0
 43 42  1  0  0  0  0
 44 43  2  0  0  0  0
 45 38  1  0  0  0  0
M  END
>  <minimizedAffinity>
-6.07527637

>  <minimizedRMSD>
0.368588239

$$$$
