
 OpenBabel03232520563D

 33 35  0  0  1  0  0  0  0  0999 V2000
   46.1680   33.4570   45.2710 C   0  0  2  0  0  0  0  0  0  0  0  0
   45.1040   34.6160   45.5160 C   0  0  0  0  0  0  0  0  0  0  0  0
   44.8780   35.5310   44.4280 C   0  0  0  0  0  0  0  0  0  0  0  0
   45.5950   35.3840   43.1680 C   0  0  1  0  0  0  0  0  0  0  0  0
   46.5950   34.2820   43.0870 C   0  0  0  0  0  0  0  0  0  0  0  0
   46.0530   33.1080   43.8900 C   0  0  0  0  0  0  0  0  0  0  0  0
   47.0530   34.0900   45.5330 H   0  0  0  0  0  0  0  0  0  0  0  0
   44.4680   34.9020   46.3460 H   0  0  0  0  0  0  0  0  0  0  0  0
   44.1830   36.3260   44.5210 H   0  0  0  0  0  0  0  0  0  0  0  0
   46.0660   36.3530   42.9070 H   0  0  0  0  0  0  0  0  0  0  0  0
   46.6710   33.9770   42.0260 H   0  0  0  0  0  0  0  0  0  0  0  0
   47.5960   34.6110   43.4170 H   0  0  0  0  0  0  0  0  0  0  0  0
   46.2840   32.2360   43.3710 H   0  0  0  0  0  0  0  0  0  0  0  0
   44.8950   33.1950   43.6580 H   0  0  0  0  0  0  0  0  0  0  0  0
   45.2360   32.7370   47.4660 C   0  0  0  0  0  0  0  0  0  0  0  0
   45.9370   32.4900   46.3030 C   0  0  0  0  0  0  0  0  0  0  0  0
   46.3270   31.1840   46.1510 C   0  0  0  0  0  0  0  0  0  0  0  0
   46.0340   30.2380   47.0630 N   0  0  0  0  0  0  0  0  0  0  0  0
   45.3440   30.5150   48.1940 C   0  0  0  0  0  0  0  0  0  0  0  0
   44.9490   31.7660   48.3890 N   0  0  0  0  0  0  0  0  0  0  0  0
   45.1080   29.4860   49.1560 N   0  0  0  0  0  0  0  0  0  0  0  0
   44.8900   33.7290   47.6890 H   0  0  0  0  0  0  0  0  0  0  0  0
   44.1700   29.2600   49.5460 H   0  0  0  0  0  0  0  0  0  0  0  0
   45.9420   28.9360   49.4770 H   0  0  0  0  0  0  0  0  0  0  0  0
   47.3860   30.6750   45.1830 C   0  0  0  0  0  0  0  0  0  0  0  0
   48.5020   29.8990   45.7970 C   0  0  0  0  0  3  0  0  0  0  0  0
   49.3710   29.4380   44.8620 C   0  0  0  0  0  3  0  0  0  0  0  0
   49.2830   29.6320   43.4970 C   0  0  0  0  0  3  0  0  0  0  0  0
   47.6920   30.6490   43.5080 S   0  0  0  0  0  0  0  0  0  0  0  0
   44.5350   35.1540   42.0610 C   0  0  0  0  0  0  0  0  0  0  0  0
   43.5010   34.3430   42.4650 F   0  0  0  0  0  0  0  0  0  0  0  0
   43.9780   36.4020   41.7900 F   0  0  0  0  0  0  0  0  0  0  0  0
   45.1490   34.7190   40.8990 F   0  0  0  0  0  0  0  0  0  0  0  0
  1  2  1  0  0  0  0
  1  7  1  1  0  0  0
  1 16  1  0  0  0  0
  2  8  1  0  0  0  0
  3  9  1  0  0  0  0
  3  2  2  0  0  0  0
  4 10  1  6  0  0  0
  4  3  1  0  0  0  0
  5  4  1  0  0  0  0
  5 12  1  0  0  0  0
  5  6  1  0  0  0  0
  6  1  1  0  0  0  0
 11  5  1  0  0  0  0
 13  6  1  0  0  0  0
 14  6  1  0  0  0  0
 15 22  1  0  0  0  0
 15 20  1  0  0  0  0
 16 15  2  0  0  0  0
 17 16  1  0  0  0  0
 17 18  2  0  0  0  0
 18 19  1  0  0  0  0
 19 20  2  0  0  0  0
 19 21  1  0  0  0  0
 21 24  1  0  0  0  0
 21 23  1  0  0  0  0
 25 26  2  0  0  0  0
 25 17  1  0  0  0  0
 27 26  1  0  0  0  0
 28 29  1  0  0  0  0
 28 27  2  0  0  0  0
 29 25  1  0  0  0  0
 30 31  1  0  0  0  0
 30  4  1  0  0  0  0
 32 30  1  0  0  0  0
 33 30  1  0  0  0  0
M  END
>  <minimizedAffinity>
-5.60371923

>  <minimizedRMSD>
0.22883071

$$$$
