
 OpenBabel03232520113D

 36 39  0  0  1  0  0  0  0  0999 V2000
   49.1360   28.7390   48.7390 N   0  0  0  0  0  0  0  0  0  0  0  0
   49.1800   27.4190   48.1710 C   0  0  0  0  0  0  0  0  0  0  0  0
   50.5870   26.9130   47.9910 C   0  0  0  0  0  0  0  0  0  0  0  0
   51.5100   27.4000   49.0690 C   0  0  0  0  0  0  0  0  0  0  0  0
   50.7490   27.8330   50.2930 C   0  0  0  0  0  0  0  0  0  0  0  0
   49.9080   29.0160   49.9380 C   0  0  1  0  0  0  0  0  0  0  0  0
   48.6460   27.3880   47.1940 H   0  0  0  0  0  0  0  0  0  0  0  0
   48.6540   26.7400   48.8900 H   0  0  0  0  0  0  0  0  0  0  0  0
   50.5480   25.7950   48.1080 H   0  0  0  0  0  0  0  0  0  0  0  0
   50.9450   27.0990   46.9600 H   0  0  0  0  0  0  0  0  0  0  0  0
   52.0570   28.2900   48.6500 H   0  0  0  0  0  0  0  0  0  0  0  0
   52.2830   26.6190   49.2890 H   0  0  0  0  0  0  0  0  0  0  0  0
   50.1620   27.0050   50.7030 H   0  0  0  0  0  0  0  0  0  0  0  0
   51.5210   28.1830   51.0300 H   0  0  0  0  0  0  0  0  0  0  0  0
   49.1380   29.0620   50.7460 H   0  0  0  0  0  0  0  0  0  0  0  0
   47.1920   31.8510   47.0160 C   0  0  0  0  0  0  0  0  0  0  0  0
   47.1000   31.8150   48.3810 C   0  0  0  0  0  0  0  0  0  0  0  0
   47.7180   30.8120   49.0550 C   0  0  0  0  0  0  0  0  0  0  0  0
   48.4030   29.8890   48.2820 C   0  0  0  0  0  0  0  0  0  0  0  0
   48.1810   30.4360   46.6010 S   0  0  0  0  0  0  0  0  0  0  0  0
   46.5280   32.6020   48.8660 H   0  0  0  0  0  0  0  0  0  0  0  0
   47.7030   30.6950   50.1320 H   0  0  0  0  0  0  0  0  0  0  0  0
   45.0880   34.4550   45.5170 C   0  0  0  0  0  0  0  0  0  0  0  0
   45.6250   34.5430   44.2180 C   0  0  0  0  0  0  0  0  0  0  0  0
   46.7140   33.6960   43.8800 C   0  0  0  0  0  0  0  0  0  0  0  0
   47.1880   32.8340   44.8370 N   0  0  0  0  0  0  0  0  0  0  0  0
   46.6420   32.7880   46.0580 C   0  0  0  0  0  0  0  0  0  0  0  0
   45.6030   33.5890   46.4010 N   0  0  0  0  0  0  0  0  0  0  0  0
   44.2760   35.1210   45.6970 H   0  0  0  0  0  0  0  0  0  0  0  0
   45.3340   35.1710   43.4110 H   0  0  0  0  0  0  0  0  0  0  0  0
   47.1980   33.6750   42.9320 H   0  0  0  0  0  0  0  0  0  0  0  0
   50.5790   30.2990   49.9120 C   0  0  0  0  0  0  0  0  0  0  0  0
   50.4530   31.5790   50.5820 C   0  0  0  0  0  0  0  0  0  0  0  0
   51.3100   32.5570   50.2570 C   0  0  0  0  0  0  0  0  0  0  0  0
   52.3280   32.2900   49.2450 C   0  0  0  0  0  0  0  0  0  0  0  0
   51.9570   30.5060   48.7910 S   0  0  0  0  0  0  0  0  0  0  0  0
  1  6  1  0  0  0  0
  2  1  1  0  0  0  0
  2  8  1  0  0  0  0
  3  9  1  0  0  0  0
  3  2  1  0  0  0  0
  3  4  1  0  0  0  0
  4 12  1  0  0  0  0
  4  5  1  0  0  0  0
  5 13  1  0  0  0  0
  5 14  1  0  0  0  0
  6  5  1  0  0  0  0
  6 15  1  1  0  0  0
  7  2  1  0  0  0  0
 10  3  1  0  0  0  0
 11  4  1  0  0  0  0
 16 17  2  0  0  0  0
 17 21  1  0  0  0  0
 17 18  1  0  0  0  0
 18 22  1  0  0  0  0
 19  1  1  0  0  0  0
 19 18  2  0  0  0  0
 20 16  1  0  0  0  0
 20 19  1  0  0  0  0
 23 29  1  0  0  0  0
 23 28  1  0  0  0  0
 24 23  2  0  0  0  0
 25 24  1  0  0  0  0
 25 26  2  0  0  0  0
 26 27  1  0  0  0  0
 27 28  2  0  0  0  0
 27 16  1  0  0  0  0
 30 24  1  0  0  0  0
 31 25  1  0  0  0  0
 32  6  1  0  0  0  0
 32 33  2  0  0  0  0
 34 33  1  0  0  0  0
 35 34  2  0  0  0  0
 36 35  1  0  0  0  0
 36 32  1  0  0  0  0
M  END
>  <minimizedAffinity>
-4.51571321

>  <minimizedRMSD>
2.53135538

$$$$
