
 OpenBabel03232516413D

 45 48  0  0  1  0  0  0  0  0999 V2000
   46.3840   32.4670   44.1350 C   0  0  1  0  0  0  0  0  0  0  0  0
   46.1640   33.9000   44.4920 C   0  0  0  0  0  0  0  0  0  0  0  0
   45.1770   34.6020   43.7280 C   0  0  0  0  0  0  0  0  0  0  0  0
   44.4320   33.9890   42.6670 C   0  0  0  0  0  0  0  0  0  0  0  0
   44.6320   32.5630   42.4510 C   0  0  0  0  0  0  0  0  0  0  0  0
   45.0910   31.8620   43.6840 C   0  0  0  0  0  0  0  0  0  0  0  0
   46.5760   34.6040   45.2090 H   0  0  0  0  0  0  0  0  0  0  0  0
   44.9670   35.6350   43.9310 H   0  0  0  0  0  0  0  0  0  0  0  0
   44.7420   34.5100   41.7100 H   0  0  0  0  0  0  0  0  0  0  0  0
   43.3580   34.3110   42.7620 H   0  0  0  0  0  0  0  0  0  0  0  0
   43.5990   32.1320   42.3070 H   0  0  0  0  0  0  0  0  0  0  0  0
   45.1040   32.2400   41.5010 H   0  0  0  0  0  0  0  0  0  0  0  0
   45.1430   30.7690   43.5760 H   0  0  0  0  0  0  0  0  0  0  0  0
   44.3620   32.0640   44.4760 H   0  0  0  0  0  0  0  0  0  0  0  0
   47.4130   32.5070   42.9960 C   0  0  0  0  0  0  0  0  0  0  0  0
   47.5270   32.0210   41.8270 O   0  0  0  0  0  0  0  0  0  0  0  0
   48.5790   33.3350   43.3580 N   0  0  0  0  0  0  0  0  0  0  0  0
   48.8720   34.5260   42.7360 C   0  0  0  0  0  0  0  0  0  0  0  0
   48.2600   35.1970   41.9340 N   0  0  0  0  0  0  0  0  0  0  0  0
   50.0900   35.2750   42.9640 N   0  0  0  0  0  0  0  0  0  0  0  0
   47.3590   35.1820   41.5430 H   0  0  0  0  0  0  0  0  0  0  0  0
   49.2440   33.0950   44.1190 H   0  0  0  0  0  0  0  0  0  0  0  0
   50.8580   35.2650   42.2800 H   0  0  0  0  0  0  0  0  0  0  0  0
   50.0450   35.7900   43.8880 H   0  0  0  0  0  0  0  0  0  0  0  0
   47.0120   32.3930   46.4900 C   0  0  0  0  0  0  0  0  0  0  0  0
   47.0320   31.7860   45.2570 C   0  0  0  0  0  0  0  0  0  0  0  0
   47.7290   30.5180   45.1170 C   0  0  0  0  0  0  0  0  0  0  0  0
   48.3210   30.0050   46.1930 N   0  0  0  0  0  0  0  0  0  0  0  0
   48.2770   30.6330   47.3750 C   0  0  0  0  0  0  0  0  0  0  0  0
   47.6320   31.8070   47.5230 N   0  0  0  0  0  0  0  0  0  0  0  0
   46.5510   33.3090   46.7860 H   0  0  0  0  0  0  0  0  0  0  0  0
   47.7210   30.0790   44.1490 H   0  0  0  0  0  0  0  0  0  0  0  0
   48.9650   30.0210   48.5360 C   0  0  0  0  0  0  0  0  0  0  0  0
   49.2620   30.7960   49.6480 C   0  0  0  0  0  0  0  0  0  0  0  0
   49.9110   30.1950   50.7330 C   0  0  0  0  0  0  0  0  0  0  0  0
   50.2430   28.8890   50.7010 N   0  0  0  0  0  0  0  0  0  0  0  0
   49.9450   28.1580   49.6140 C   0  0  0  0  0  0  0  0  0  0  0  0
   49.3150   28.7170   48.5470 N   0  0  0  0  0  0  0  0  0  0  0  0
   48.9970   31.8430   49.6740 H   0  0  0  0  0  0  0  0  0  0  0  0
   50.1480   30.7920   51.6060 H   0  0  0  0  0  0  0  0  0  0  0  0
   50.2520   26.7250   49.4520 C   0  0  0  0  0  0  0  0  0  0  0  0
   49.2380   25.9290   49.1280 C   0  0  0  0  0  0  0  0  0  0  0  0
   49.1830   24.5980   48.9110 C   0  0  0  0  0  0  0  0  0  0  0  0
   50.5970   24.1150   49.1160 C   0  0  0  0  0  0  0  0  0  0  0  0
   51.6270   25.6700   49.5610 S   0  0  0  0  0  0  0  0  0  0  0  0
  1 15  1  6  0  0  0
  1  2  1  0  0  0  0
  1 26  1  0  0  0  0
  2  7  1  0  0  0  0
  3  8  1  0  0  0  0
  3  2  2  0  0  0  0
  4 10  1  0  0  0  0
  4  3  1  0  0  0  0
  5  4  1  0  0  0  0
  5  6  1  0  0  0  0
  6  1  1  0  0  0  0
  6 14  1  0  0  0  0
  9  4  1  0  0  0  0
 11  5  1  0  0  0  0
 12  5  1  0  0  0  0
 13  6  1  0  0  0  0
 15 17  1  0  0  0  0
 16 15  2  0  0  0  0
 17 22  1  0  0  0  0
 18 20  1  0  0  0  0
 18 17  1  0  0  0  0
 19 18  2  0  0  0  0
 20 24  1  0  0  0  0
 21 19  1  0  0  0  0
 23 20  1  0  0  0  0
 25 31  1  0  0  0  0
 25 30  1  0  0  0  0
 26 25  2  0  0  0  0
 27 26  1  0  0  0  0
 27 28  2  0  0  0  0
 28 29  1  0  0  0  0
 29 30  2  0  0  0  0
 29 33  1  0  0  0  0
 32 27  1  0  0  0  0
 33 38  2  0  0  0  0
 33 34  1  0  0  0  0
 34 39  1  0  0  0  0
 34 35  2  0  0  0  0
 35 40  1  0  0  0  0
 36 35  1  0  0  0  0
 37 36  2  0  0  0  0
 38 37  1  0  0  0  0
 41 45  1  0  0  0  0
 41 37  1  0  0  0  0
 42 41  2  0  0  0  0
 43 44  2  0  0  0  0
 43 42  1  0  0  0  0
 44 45  1  0  0  0  0
M  END
>  <minimizedAffinity>
-6.04163265

>  <minimizedRMSD>
1.68446434

$$$$
