
 OpenBabel03232521013D

 45 49  0  0  1  0  0  0  0  0999 V2000
   45.3490   32.8400   47.4340 C   0  0  0  0  0  0  0  0  0  0  0  0
   45.9350   32.6190   46.2290 C   0  0  0  0  0  0  0  0  0  0  0  0
   46.2470   31.2760   45.9800 C   0  0  0  0  0  0  0  0  0  0  0  0
   45.9930   30.2650   46.8480 N   0  0  0  0  0  0  0  0  0  0  0  0
   45.3920   30.5490   48.0620 C   0  0  0  0  0  0  0  0  0  0  0  0
   45.0860   31.8270   48.3270 N   0  0  0  0  0  0  0  0  0  0  0  0
   45.1220   29.5170   48.9910 N   0  0  0  0  0  0  0  0  0  0  0  0
   45.0720   33.8130   47.7350 H   0  0  0  0  0  0  0  0  0  0  0  0
   44.2410   29.6410   49.5740 H   0  0  0  0  0  0  0  0  0  0  0  0
   45.7410   28.6840   49.1040 H   0  0  0  0  0  0  0  0  0  0  0  0
   46.1650   33.5890   45.2120 C   0  0  2  0  0  0  0  0  0  0  0  0
   44.9520   34.6750   45.4790 C   0  0  0  0  0  0  0  0  0  0  0  0
   44.7100   35.6260   44.4310 C   0  0  0  0  0  0  0  0  0  0  0  0
   45.4980   35.5730   43.1920 C   0  0  1  0  0  0  0  0  0  0  0  0
   46.5450   34.5650   43.1070 C   0  0  0  0  0  0  0  0  0  0  0  0
   46.0990   33.3250   43.8450 C   0  0  0  0  0  0  0  0  0  0  0  0
   46.9420   34.3340   45.5520 H   0  0  0  0  0  0  0  0  0  0  0  0
   44.2930   34.7910   46.3320 H   0  0  0  0  0  0  0  0  0  0  0  0
   43.9250   36.3540   44.5740 H   0  0  0  0  0  0  0  0  0  0  0  0
   45.9270   36.5810   43.0120 H   0  0  0  0  0  0  0  0  0  0  0  0
   46.7350   34.3520   42.0130 H   0  0  0  0  0  0  0  0  0  0  0  0
   47.5340   34.8570   43.5030 H   0  0  0  0  0  0  0  0  0  0  0  0
   46.9340   32.6700   43.4830 H   0  0  0  0  0  0  0  0  0  0  0  0
   45.1190   32.9700   43.4440 H   0  0  0  0  0  0  0  0  0  0  0  0
   44.4630   35.3430   42.0530 C   0  0  0  0  0  0  0  0  0  0  0  0
   43.3840   34.5720   42.4600 F   0  0  0  0  0  0  0  0  0  0  0  0
   43.9550   36.5950   41.7180 F   0  0  0  0  0  0  0  0  0  0  0  0
   45.1090   34.8530   40.9350 F   0  0  0  0  0  0  0  0  0  0  0  0
   46.9350   30.6180   44.8830 C   0  0  0  0  0  0  0  0  0  0  0  0
   46.6540   29.7860   43.8480 C   0  0  0  0  0  0  0  0  0  0  0  0
   47.8670   29.5120   43.1800 C   0  0  0  0  0  0  0  0  0  0  0  0
   48.8030   30.1880   43.8420 N   0  0  0  0  0  0  0  0  0  0  0  0
   48.2900   30.8490   44.8510 N   0  0  0  0  0  0  0  0  0  0  0  0
   45.6340   29.4930   43.7130 H   0  0  0  0  0  0  0  0  0  0  0  0
   47.8770   28.8690   42.3250 H   0  0  0  0  0  0  0  0  0  0  0  0
   50.1980   30.1660   43.4580 C   0  0  0  0  0  0  0  0  0  0  0  0
   50.6910   30.8780   42.3570 C   0  0  0  0  0  3  0  0  0  0  0  0
   52.0180   30.6530   42.2650 N   0  0  0  0  0  0  0  0  0  0  0  0
   52.3920   29.8270   43.2620 C   0  0  0  0  0  0  0  0  0  0  0  0
   53.6320   29.3080   43.5910 C   0  0  0  0  0  3  0  0  0  0  0  0
   53.6680   28.4770   44.6930 C   0  0  0  0  0  3  0  0  0  0  0  0
   52.5560   28.1570   45.4530 C   0  0  0  0  0  3  0  0  0  0  0  0
   51.3290   28.6850   45.1070 C   0  0  0  0  0  3  0  0  0  0  0  0
   51.2650   29.5060   44.0250 C   0  0  0  0  0  0  0  0  0  0  0  0
   52.6070   31.0870   41.5090 H   0  0  0  0  0  0  0  0  0  0  0  0
  1  8  1  0  0  0  0
  1  6  1  0  0  0  0
  2  1  2  0  0  0  0
  3  2  1  0  0  0  0
  3  4  2  0  0  0  0
  4  5  1  0  0  0  0
  5  6  2  0  0  0  0
  5  7  1  0  0  0  0
  7 10  1  0  0  0  0
  7  9  1  0  0  0  0
 11 12  1  0  0  0  0
 11 17  1  1  0  0  0
 11  2  1  0  0  0  0
 12 18  1  0  0  0  0
 13 19  1  0  0  0  0
 13 12  2  0  0  0  0
 14 20  1  6  0  0  0
 14 13  1  0  0  0  0
 15 14  1  0  0  0  0
 15 22  1  0  0  0  0
 15 16  1  0  0  0  0
 16 11  1  0  0  0  0
 21 15  1  0  0  0  0
 23 16  1  0  0  0  0
 24 16  1  0  0  0  0
 25 26  1  0  0  0  0
 25 14  1  0  0  0  0
 27 25  1  0  0  0  0
 28 25  1  0  0  0  0
 29  3  1  0  0  0  0
 30 29  1  0  0  0  0
 31 32  1  0  0  0  0
 31 30  2  0  0  0  0
 32 33  1  0  0  0  0
 33 29  2  0  0  0  0
 34 30  1  0  0  0  0
 35 31  1  0  0  0  0
 36 32  1  0  0  0  0
 36 44  1  0  0  0  0
 37 36  2  0  0  0  0
 38 37  1  0  0  0  0
 38 39  1  0  0  0  0
 39 40  2  0  0  0  0
 39 44  1  0  0  0  0
 40 41  1  0  0  0  0
 41 42  2  0  0  0  0
 43 42  1  0  0  0  0
 44 43  2  0  0  0  0
 45 38  1  0  0  0  0
M  END
>  <minimizedAffinity>
-6.08837557

>  <minimizedRMSD>
0.960259974

$$$$
