
 OpenBabel03232521013D

 45 49  0  0  1  0  0  0  0  0999 V2000
   45.4420   32.9260   47.5130 C   0  0  0  0  0  0  0  0  0  0  0  0
   45.9320   32.6580   46.2750 C   0  0  0  0  0  0  0  0  0  0  0  0
   46.1300   31.2940   46.0190 C   0  0  0  0  0  0  0  0  0  0  0  0
   45.8610   30.3080   46.9120 N   0  0  0  0  0  0  0  0  0  0  0  0
   45.3610   30.6410   48.1590 C   0  0  0  0  0  0  0  0  0  0  0  0
   45.1650   31.9390   48.4300 N   0  0  0  0  0  0  0  0  0  0  0  0
   45.0780   29.6360   49.1130 N   0  0  0  0  0  0  0  0  0  0  0  0
   45.2550   33.9180   47.8210 H   0  0  0  0  0  0  0  0  0  0  0  0
   44.2470   29.8260   49.7500 H   0  0  0  0  0  0  0  0  0  0  0  0
   45.6410   28.7610   49.1940 H   0  0  0  0  0  0  0  0  0  0  0  0
   46.1650   33.6030   45.2360 C   0  0  2  0  0  0  0  0  0  0  0  0
   44.9550   34.6980   45.4780 C   0  0  0  0  0  0  0  0  0  0  0  0
   44.7150   35.6250   44.4080 C   0  0  0  0  0  0  0  0  0  0  0  0
   45.5040   35.5420   43.1710 C   0  0  1  0  0  0  0  0  0  0  0  0
   46.5480   34.5290   43.1100 C   0  0  0  0  0  0  0  0  0  0  0  0
   46.0990   33.3080   43.8750 C   0  0  0  0  0  0  0  0  0  0  0  0
   46.9440   34.3530   45.5590 H   0  0  0  0  0  0  0  0  0  0  0  0
   44.2960   34.8350   46.3280 H   0  0  0  0  0  0  0  0  0  0  0  0
   43.9320   36.3580   44.5340 H   0  0  0  0  0  0  0  0  0  0  0  0
   45.9360   36.5450   42.9680 H   0  0  0  0  0  0  0  0  0  0  0  0
   46.7380   34.2910   42.0210 H   0  0  0  0  0  0  0  0  0  0  0  0
   47.5370   34.8280   43.4990 H   0  0  0  0  0  0  0  0  0  0  0  0
   46.9320   32.6420   43.5290 H   0  0  0  0  0  0  0  0  0  0  0  0
   45.1170   32.9470   43.4830 H   0  0  0  0  0  0  0  0  0  0  0  0
   44.4690   35.2880   42.0360 C   0  0  0  0  0  0  0  0  0  0  0  0
   43.4150   34.4850   42.4460 F   0  0  0  0  0  0  0  0  0  0  0  0
   43.9230   36.5270   41.7120 F   0  0  0  0  0  0  0  0  0  0  0  0
   45.1210   34.8230   40.9120 F   0  0  0  0  0  0  0  0  0  0  0  0
   46.6980   30.5820   44.8880 C   0  0  0  0  0  0  0  0  0  0  0  0
   46.2830   29.8250   43.8400 C   0  0  0  0  0  0  0  0  0  0  0  0
   47.4320   29.4130   43.1310 C   0  0  0  0  0  0  0  0  0  0  0  0
   48.4650   29.9390   43.7840 N   0  0  0  0  0  0  0  0  0  0  0  0
   48.0700   30.6330   44.8230 N   0  0  0  0  0  0  0  0  0  0  0  0
   45.2300   29.6740   43.7270 H   0  0  0  0  0  0  0  0  0  0  0  0
   47.3360   28.7980   42.2600 H   0  0  0  0  0  0  0  0  0  0  0  0
   49.8360   29.7430   43.3610 C   0  0  0  0  0  0  0  0  0  0  0  0
   50.7010   28.8420   43.9950 C   0  0  0  0  0  3  0  0  0  0  0  0
   51.8950   28.8910   43.3710 N   0  0  0  0  0  0  0  0  0  0  0  0
   51.8290   29.7860   42.3650 C   0  0  0  0  0  0  0  0  0  0  0  0
   52.7820   30.1890   41.4460 C   0  0  0  0  0  3  0  0  0  0  0  0
   52.3770   31.1410   40.5330 C   0  0  0  0  0  3  0  0  0  0  0  0
   51.1060   31.6880   40.5020 C   0  0  0  0  0  3  0  0  0  0  0  0
   50.1710   31.2740   41.4270 C   0  0  0  0  0  3  0  0  0  0  0  0
   50.5440   30.3350   42.3390 C   0  0  0  0  0  0  0  0  0  0  0  0
   52.7090   28.2970   43.6730 H   0  0  0  0  0  0  0  0  0  0  0  0
  1  8  1  0  0  0  0
  1  6  1  0  0  0  0
  2  1  2  0  0  0  0
  3  2  1  0  0  0  0
  3  4  2  0  0  0  0
  4  5  1  0  0  0  0
  5  6  2  0  0  0  0
  5  7  1  0  0  0  0
  7 10  1  0  0  0  0
  7  9  1  0  0  0  0
 11 12  1  0  0  0  0
 11 17  1  1  0  0  0
 11  2  1  0  0  0  0
 12 18  1  0  0  0  0
 13 19  1  0  0  0  0
 13 12  2  0  0  0  0
 14 20  1  6  0  0  0
 14 13  1  0  0  0  0
 15 14  1  0  0  0  0
 15 22  1  0  0  0  0
 15 16  1  0  0  0  0
 16 11  1  0  0  0  0
 21 15  1  0  0  0  0
 23 16  1  0  0  0  0
 24 16  1  0  0  0  0
 25 26  1  0  0  0  0
 25 14  1  0  0  0  0
 27 25  1  0  0  0  0
 28 25  1  0  0  0  0
 29  3  1  0  0  0  0
 30 29  1  0  0  0  0
 31 32  1  0  0  0  0
 31 30  2  0  0  0  0
 32 33  1  0  0  0  0
 33 29  2  0  0  0  0
 34 30  1  0  0  0  0
 35 31  1  0  0  0  0
 36 32  1  0  0  0  0
 36 37  2  0  0  0  0
 38 45  1  0  0  0  0
 38 37  1  0  0  0  0
 39 38  1  0  0  0  0
 40 39  2  0  0  0  0
 41 40  1  0  0  0  0
 42 41  2  0  0  0  0
 42 43  1  0  0  0  0
 43 44  2  0  0  0  0
 44 39  1  0  0  0  0
 44 36  1  0  0  0  0
M  END
>  <minimizedAffinity>
-6.29480839

>  <minimizedRMSD>
0.896332622

$$$$
