
 OpenBabel03232520063D

 29 32  0  0  0  0  0  0  0  0999 V2000
   46.2010   30.3670   49.0990 N   0  0  0  0  0  0  0  0  0  0  0  0
   45.3450   31.3950   49.4150 C   0  0  0  0  0  0  0  0  0  0  0  0
   45.2670   32.2300   48.3450 N   0  0  0  0  0  0  0  0  0  0  0  0
   46.0810   31.6800   47.4060 C   0  0  0  0  0  0  0  0  0  0  0  0
   46.3030   32.2100   46.1430 C   0  0  0  0  0  0  0  0  0  0  0  0
   47.1560   31.5120   45.3450 N   0  0  0  0  0  0  0  0  0  0  0  0
   47.7440   30.3760   45.7650 C   0  0  0  0  0  0  0  0  0  0  0  0
   47.4910   29.9180   46.9920 N   0  0  0  0  0  0  0  0  0  0  0  0
   46.6780   30.5240   47.8370 C   0  0  0  0  0  0  0  0  0  0  0  0
   46.4750   29.5600   49.7090 H   0  0  0  0  0  0  0  0  0  0  0  0
   44.8440   31.4880   50.3550 H   0  0  0  0  0  0  0  0  0  0  0  0
   48.6750   29.6380   44.8550 C   0  0  0  0  0  0  0  0  0  0  0  0
   49.2130   30.0710   43.7110 C   0  0  0  0  0  0  0  0  0  0  0  0
   50.0520   29.2640   42.9920 C   0  0  0  0  0  0  0  0  0  0  0  0
   50.2750   27.9570   43.5830 C   0  0  0  0  0  0  0  0  0  0  0  0
   49.2160   28.0560   45.1510 S   0  0  0  0  0  0  0  0  0  0  0  0
   45.6290   33.6730   45.4240 S   0  0  0  0  0  0  0  0  0  0  0  0
   47.7970   34.7340   42.3340 C   0  0  0  0  0  0  0  0  0  0  0  0
   47.0750   34.3610   41.2020 C   0  0  0  0  0  0  0  0  0  0  0  0
   45.8520   33.7480   41.4010 C   0  0  0  0  0  0  0  0  0  0  0  0
   45.4180   33.5410   42.6810 N   0  0  0  0  0  0  0  0  0  0  0  0
   46.1550   33.9220   43.7410 C   0  0  0  0  0  0  0  0  0  0  0  0
   47.3360   34.5140   43.5670 N   0  0  0  0  0  0  0  0  0  0  0  0
   47.4070   34.5190   40.1840 H   0  0  0  0  0  0  0  0  0  0  0  0
   45.2090   33.4170   40.5940 H   0  0  0  0  0  0  0  0  0  0  0  0
   49.1020   35.3890   42.1370 C   0  0  0  0  0  0  0  0  0  0  0  0
   49.2650   36.1630   41.1680 O   0  0  0  0  0  0  0  0  0  0  0  0
   50.1180   35.1400   43.0180 O   0  0  0  0  0  0  0  0  0  0  0  0
   50.8600   35.8260   43.1310 H   0  0  0  0  0  0  0  0  0  0  0  0
  1  2  1  0  0  0  0
  1 10  1  0  0  0  0
  2 11  1  0  0  0  0
  3  2  2  0  0  0  0
  4  9  1  0  0  0  0
  4  3  1  0  0  0  0
  5  4  2  0  0  0  0
  6  7  2  0  0  0  0
  6  5  1  0  0  0  0
  7  8  1  0  0  0  0
  8  9  2  0  0  0  0
  9  1  1  0  0  0  0
 12 16  1  0  0  0  0
 12  7  1  0  0  0  0
 13 12  2  0  0  0  0
 14 15  2  0  0  0  0
 14 13  1  0  0  0  0
 15 16  1  0  0  0  0
 17  5  1  0  0  0  0
 18 23  1  0  0  0  0
 19 20  1  0  0  0  0
 19 18  2  0  0  0  0
 20 21  2  0  0  0  0
 21 22  1  0  0  0  0
 22 17  1  0  0  0  0
 23 22  2  0  0  0  0
 24 19  1  0  0  0  0
 25 20  1  0  0  0  0
 26 18  1  0  0  0  0
 26 28  1  0  0  0  0
 27 26  2  0  0  0  0
 28 29  1  0  0  0  0
M  END
>  <minimizedAffinity>
-5.71604633

>  <minimizedRMSD>
0.0853741914

$$$$
