
     RDKit          3D

 37 39  0  0  0  0  0  0  0  0999 V2000
   46.1281   33.6488   45.3167 C   0  0  2  0  0  0  0  0  0  0  0  0
   44.9440   34.6938   45.4778 C   0  0  0  0  0  0  0  0  0  0  0  0
   44.7111   35.5880   44.3726 C   0  0  0  0  0  0  0  0  0  0  0  0
   45.5176   35.5212   43.1735 C   0  0  1  0  0  0  0  0  0  0  0  0
   46.6487   34.5628   43.1880 C   0  0  0  0  0  0  0  0  0  0  0  0
   46.1902   33.3176   43.9305 C   0  0  0  0  0  0  0  0  0  0  0  0
   45.2950   32.9100   47.5275 C   0  0  0  0  0  0  0  0  0  0  0  0
   45.9086   32.6692   46.3320 C   0  0  0  0  0  0  0  0  0  0  0  0
   46.2802   31.3424   46.1100 C   0  0  0  0  0  0  0  0  0  0  0  0
   46.0483   30.3673   47.0078 N   0  0  0  0  0  0  0  0  0  0  0  0
   45.4277   30.6490   48.2033 C   0  0  0  0  0  0  0  0  0  0  0  0
   45.0646   31.9048   48.4406 N   0  0  0  0  0  0  0  0  0  0  0  0
   45.2070   29.6267   49.1688 N   0  0  0  0  0  0  0  0  0  0  0  0
   44.5750   35.1836   41.9916 C   0  0  0  0  0  0  0  0  0  0  0  0
   43.5817   34.2976   42.3366 F   0  0  0  0  0  0  0  0  0  0  0  0
   43.9456   36.3779   41.6486 F   0  0  0  0  0  0  0  0  0  0  0  0
   45.3235   34.7914   40.8921 F   0  0  0  0  0  0  0  0  0  0  0  0
   46.9292   34.3740   45.6590 H   0  0  0  0  0  0  0  0  0  0  0  0
   44.2202   34.9208   46.2526 H   0  0  0  0  0  0  0  0  0  0  0  0
   43.9460   36.3152   44.3924 H   0  0  0  0  0  0  0  0  0  0  0  0
   45.9253   36.5286   42.9455 H   0  0  0  0  0  0  0  0  0  0  0  0
   47.5584   34.9562   43.6826 H   0  0  0  0  0  0  0  0  0  0  0  0
   46.9338   34.2958   42.1515 H   0  0  0  0  0  0  0  0  0  0  0  0
   45.0948   33.2016   43.5652 H   0  0  0  0  0  0  0  0  0  0  0  0
   46.6915   32.5311   43.4501 H   0  0  0  0  0  0  0  0  0  0  0  0
   44.9716   33.8768   47.8074 H   0  0  0  0  0  0  0  0  0  0  0  0
   46.1272   29.2419   49.4941 H   0  0  0  0  0  0  0  0  0  0  0  0
   44.2748   29.3090   49.5017 H   0  0  0  0  0  0  0  0  0  0  0  0
   46.9934   30.6935   45.0187 C   0  0  0  0  0  0  0  0  0  0  0  0
   48.3488   30.9087   44.8195 C   0  0  0  0  0  0  0  0  0  0  0  0
   49.1216   30.4175   43.7874 C   0  0  0  0  0  0  0  0  0  0  0  0
   48.4697   29.6540   42.8953 N   0  0  0  0  0  0  0  0  0  0  0  0
   47.1577   29.4141   43.0405 C   0  0  0  0  0  0  0  0  0  0  0  0
   46.5804   28.7956   42.3364 H   0  0  0  0  0  0  0  0  0  0  0  0
   46.4451   29.9133   44.0615 N   0  0  0  0  0  0  0  0  0  0  0  0
   48.8734   31.5313   45.5494 H   0  0  0  0  0  0  0  0  0  0  0  0
   50.1720   30.6505   43.7325 H   0  0  0  0  0  0  0  0  0  0  0  0
  1  2  1  0
  1  8  1  0
  3  2  2  0
  4  5  1  0
  4  3  1  0
  5  6  1  0
  6  1  1  0
  7 12  2  0
  8  7  1  0
  9  8  2  0
  9 10  1  0
 10 11  2  0
 11 12  1  0
 11 13  1  0
 14 15  1  0
 14  4  1  0
 16 14  1  0
 17 14  1  0
  1 18  1  1
  2 19  1  0
  3 20  1  0
  4 21  1  6
  5 22  1  0
  5 23  1  0
  6 24  1  0
  6 25  1  0
  7 26  1  0
 13 27  1  0
 13 28  1  0
 29 30  2  0
 30 31  1  0
 31 32  2  0
 32 33  1  0
 33 34  1  0
 33 35  2  0
 35 29  1  0
 30 36  1  0
 31 37  1  0
  9 29  1  0
M  ISO  8  18  13  19  13  20  13  21  13  22  13  23  13  24  13  25  13
M  ISO  2  26  14  34  14
M  END
>  <DihAtoms>  (1) 
7,8,28,29

>  <DihDeg>  (1) 
-124.62878303885493

$$$$
