
 OpenBabel03232516333D

 44 48  0  0  0  0  0  0  0  0999 V2000
   48.9660   34.0770   41.8390 C   0  0  0  0  0  0  0  0  0  0  0  0
   49.9550   34.2010   42.7490 N   0  0  0  0  0  0  0  0  0  0  0  0
   50.8950   33.3180   42.5090 O   0  0  0  0  0  0  0  0  0  0  0  0
   50.5480   32.6140   41.4620 C   0  0  0  0  0  0  0  0  0  0  0  0
   49.3710   33.0570   41.0320 N   0  0  0  0  0  0  0  0  0  0  0  0
   47.6990   34.7730   41.6180 C   0  0  0  0  0  0  0  0  0  0  0  0
   47.7110   35.6590   42.3160 H   0  0  0  0  0  0  0  0  0  0  0  0
   47.6240   35.1810   40.6150 H   0  0  0  0  0  0  0  0  0  0  0  0
   46.4740   34.0010   41.9730 C   0  0  0  0  0  0  0  0  0  0  0  0
   45.4070   34.1070   45.4690 C   0  0  0  0  0  0  0  0  0  0  0  0
   44.6950   35.2950   45.5680 C   0  0  0  0  0  0  0  0  0  0  0  0
   44.5790   36.0660   44.4290 C   0  0  0  0  0  0  0  0  0  0  0  0
   45.1640   35.6270   43.2710 N   0  0  0  0  0  0  0  0  0  0  0  0
   45.8460   34.4720   43.2170 C   0  0  0  0  0  0  0  0  0  0  0  0
   45.9630   33.7150   44.3230 N   0  0  0  0  0  0  0  0  0  0  0  0
   45.5510   33.4340   46.3190 H   0  0  0  0  0  0  0  0  0  0  0  0
   44.2880   35.5260   46.5220 H   0  0  0  0  0  0  0  0  0  0  0  0
   44.0320   36.9880   44.4860 H   0  0  0  0  0  0  0  0  0  0  0  0
   45.4900   34.2130   40.8290 C   0  0  0  0  0  0  0  0  0  0  0  0
   44.5030   33.8160   41.1280 H   0  0  0  0  0  0  0  0  0  0  0  0
   45.3200   35.3240   40.7110 H   0  0  0  0  0  0  0  0  0  0  0  0
   45.8430   33.7920   39.8840 H   0  0  0  0  0  0  0  0  0  0  0  0
   46.7570   32.5270   42.0310 C   0  0  0  0  0  0  0  0  0  0  0  0
   47.4740   32.2910   41.1940 H   0  0  0  0  0  0  0  0  0  0  0  0
   47.2100   32.1730   42.9600 H   0  0  0  0  0  0  0  0  0  0  0  0
   45.8230   31.9850   41.7350 H   0  0  0  0  0  0  0  0  0  0  0  0
   51.4350   31.6170   41.0550 O   0  0  0  0  0  0  0  0  0  0  0  0
   51.7690   31.3900   39.7340 C   0  0  0  0  0  0  0  0  0  0  0  0
   53.1040   31.4880   39.3570 C   0  0  0  0  0  0  0  0  0  0  0  0
   53.1560   31.2160   37.9940 C   0  0  0  0  0  0  0  0  0  0  0  0
   51.8880   30.9690   37.5980 N   0  0  0  0  0  0  0  0  0  0  0  0
   51.0400   31.0700   38.6340 N   0  0  0  0  0  0  0  0  0  0  0  0
   53.9910   31.7210   39.9360 H   0  0  0  0  0  0  0  0  0  0  0  0
   54.0550   31.2110   37.3960 H   0  0  0  0  0  0  0  0  0  0  0  0
   51.5980   30.6540   36.2430 C   0  0  0  0  0  0  0  0  0  0  0  0
   52.3380   29.8540   35.3830 C   0  0  0  0  0  0  0  0  0  0  0  0
   51.9180   29.6470   34.0890 C   0  0  0  0  0  0  0  0  0  0  0  0
   50.7630   30.2090   33.5880 C   0  0  0  0  0  0  0  0  0  0  0  0
   50.0260   31.0040   34.4400 C   0  0  0  0  0  0  0  0  0  0  0  0
   48.8730   31.5700   33.9480 C   0  0  0  0  0  0  0  0  0  0  0  0
   48.0750   32.3780   34.7320 C   0  0  0  0  0  0  0  0  0  0  0  0
   48.4610   32.6110   36.0340 C   0  0  0  0  0  0  0  0  0  0  0  0
   49.6210   32.0320   36.5000 C   0  0  0  0  0  0  0  0  0  0  0  0
   50.4380   31.2230   35.7480 C   0  0  0  0  0  0  0  0  0  0  0  0
  1  2  2  0  0  0  0
  3  2  1  0  0  0  0
  4  3  1  0  0  0  0
  5  4  2  0  0  0  0
  5  1  1  0  0  0  0
  6  1  1  0  0  0  0
  6  9  1  0  0  0  0
  6  7  1  0  0  0  0
  8  6  1  0  0  0  0
  9 23  1  0  0  0  0
  9 14  1  0  0  0  0
 10 11  1  0  0  0  0
 10 16  1  0  0  0  0
 11 17  1  0  0  0  0
 12 18  1  0  0  0  0
 12 11  2  0  0  0  0
 13 12  1  0  0  0  0
 14 13  2  0  0  0  0
 14 15  1  0  0  0  0
 15 10  2  0  0  0  0
 19 20  1  0  0  0  0
 19  9  1  0  0  0  0
 21 19  1  0  0  0  0
 22 19  1  0  0  0  0
 23 25  1  0  0  0  0
 24 23  1  0  0  0  0
 26 23  1  0  0  0  0
 27  4  1  0  0  0  0
 28 27  1  0  0  0  0
 29 28  1  0  0  0  0
 29 33  1  0  0  0  0
 30 29  2  0  0  0  0
 31 30  1  0  0  0  0
 31 32  1  0  0  0  0
 32 28  2  0  0  0  0
 34 30  1  0  0  0  0
 35 31  1  0  0  0  0
 36 35  2  0  0  0  0
 37 36  1  0  0  0  0
 38 37  2  0  0  0  0
 38 39  1  0  0  0  0
 39 44  1  0  0  0  0
 40 39  2  0  0  0  0
 40 41  1  0  0  0  0
 41 42  2  0  0  0  0
 42 43  1  0  0  0  0
 44 35  1  0  0  0  0
 44 43  2  0  0  0  0
M  END
>  <minimizedAffinity>
-5.90906286

>  <minimizedRMSD>
2.34672976

$$$$
