
 OpenBabel03232520123D

 38 41  0  0  1  0  0  0  0  0999 V2000
   49.1760   28.8060   48.7570 N   0  0  0  0  0  0  0  0  0  0  0  0
   49.2450   27.4970   48.1790 C   0  0  0  0  0  0  0  0  0  0  0  0
   50.6660   27.0180   48.0210 C   0  0  0  0  0  0  0  0  0  0  0  0
   51.5330   27.4460   49.1730 C   0  0  0  0  0  0  0  0  0  0  0  0
   50.7120   27.8820   50.3780 C   0  0  0  0  0  0  0  0  0  0  0  0
   49.9320   29.0830   49.9690 C   0  0  1  0  0  0  0  0  0  0  0  0
   48.6310   26.8070   48.7950 H   0  0  0  0  0  0  0  0  0  0  0  0
   48.7580   27.5240   47.1710 H   0  0  0  0  0  0  0  0  0  0  0  0
   51.0400   27.4770   47.0660 H   0  0  0  0  0  0  0  0  0  0  0  0
   50.6550   25.9340   47.8390 H   0  0  0  0  0  0  0  0  0  0  0  0
   52.3480   28.1300   48.9180 H   0  0  0  0  0  0  0  0  0  0  0  0
   52.0490   26.5040   49.5190 H   0  0  0  0  0  0  0  0  0  0  0  0
   51.3910   28.0760   51.2060 H   0  0  0  0  0  0  0  0  0  0  0  0
   49.9930   27.0620   50.5580 H   0  0  0  0  0  0  0  0  0  0  0  0
   49.1350   29.2200   50.7580 H   0  0  0  0  0  0  0  0  0  0  0  0
   47.2060   31.9030   47.0300 C   0  0  0  0  0  0  0  0  0  0  0  0
   47.1510   31.9030   48.3990 C   0  0  0  0  0  0  0  0  0  0  0  0
   47.7780   30.9110   49.0690 C   0  0  0  0  0  0  0  0  0  0  0  0
   48.4350   29.9580   48.3090 C   0  0  0  0  0  0  0  0  0  0  0  0
   48.1660   30.4660   46.6330 S   0  0  0  0  0  0  0  0  0  0  0  0
   46.6050   32.7060   48.8770 H   0  0  0  0  0  0  0  0  0  0  0  0
   47.8030   30.8100   50.1460 H   0  0  0  0  0  0  0  0  0  0  0  0
   45.0690   34.4760   45.5090 C   0  0  0  0  0  0  0  0  0  0  0  0
   45.5880   34.5380   44.2020 C   0  0  0  0  0  0  0  0  0  0  0  0
   46.6740   33.6880   43.8640 C   0  0  0  0  0  0  0  0  0  0  0  0
   47.1690   32.8400   44.8280 N   0  0  0  0  0  0  0  0  0  0  0  0
   46.6400   32.8170   46.0580 C   0  0  0  0  0  0  0  0  0  0  0  0
   45.6010   33.6220   46.4030 N   0  0  0  0  0  0  0  0  0  0  0  0
   44.2470   35.1270   45.7440 H   0  0  0  0  0  0  0  0  0  0  0  0
   45.2000   35.1990   43.4530 H   0  0  0  0  0  0  0  0  0  0  0  0
   47.1120   33.6940   42.8750 H   0  0  0  0  0  0  0  0  0  0  0  0
   50.6750   30.3440   49.9360 C   0  0  0  0  0  0  0  0  0  0  0  0
   51.6490   30.6550   49.0090 C   0  0  0  0  0  0  0  0  0  0  0  0
   52.3600   31.8420   48.9650 C   0  0  0  0  0  0  0  0  0  0  0  0
   52.0900   32.7740   49.8930 N   0  0  0  0  0  0  0  0  0  0  0  0
   51.1340   32.5030   50.8260 C   0  0  0  0  0  0  0  0  0  0  0  0
   50.9600   33.2910   51.5450 H   0  0  0  0  0  0  0  0  0  0  0  0
   50.4580   31.3410   50.8440 N   0  0  0  0  0  0  0  0  0  0  0  0
  1  6  1  0  0  0  0
  2  1  1  0  0  0  0
  2  7  1  0  0  0  0
  3  2  1  0  0  0  0
  3  4  1  0  0  0  0
  4 12  1  0  0  0  0
  4  5  1  0  0  0  0
  5 14  1  0  0  0  0
  5 13  1  0  0  0  0
  6  5  1  0  0  0  0
  6 15  1  1  0  0  0
  8  2  1  0  0  0  0
  9  3  1  0  0  0  0
 10  3  1  0  0  0  0
 11  4  1  0  0  0  0
 16 17  2  0  0  0  0
 17 21  1  0  0  0  0
 17 18  1  0  0  0  0
 18 22  1  0  0  0  0
 19  1  1  0  0  0  0
 19 18  2  0  0  0  0
 20 16  1  0  0  0  0
 20 19  1  0  0  0  0
 23 29  1  0  0  0  0
 23 28  1  0  0  0  0
 24 23  2  0  0  0  0
 25 24  1  0  0  0  0
 25 26  2  0  0  0  0
 26 27  1  0  0  0  0
 27 28  2  0  0  0  0
 27 16  1  0  0  0  0
 30 24  1  0  0  0  0
 31 25  1  0  0  0  0
 32  6  1  0  0  0  0
 32 38  1  0  0  0  0
 33 32  2  0  0  0  0
 34 33  1  0  0  0  0
 34 35  2  0  0  0  0
 35 36  1  0  0  0  0
 36 38  2  0  0  0  0
 36 37  1  0  0  0  0
M  END
>  <minimizedAffinity>
-4.78581047

>  <minimizedRMSD>
2.60440898

$$$$
