
 OpenBabel03232519563D

 23 25  0  0  0  0  0  0  0  0999 V2000
   43.9700   34.2200   41.5050 N   0  0  0  0  0  0  0  0  0  0  0  0
   44.6260   33.8420   40.4050 C   0  0  0  0  0  0  0  0  0  0  0  0
   43.6810   33.9180   39.3410 C   0  0  0  0  0  0  0  0  0  0  0  0
   42.5280   34.3320   39.8240 N   0  0  0  0  0  0  0  0  0  0  0  0
   42.6670   34.5330   41.1720 C   0  0  0  0  0  0  0  0  0  0  0  0
   43.7940   33.7000   38.3110 H   0  0  0  0  0  0  0  0  0  0  0  0
   41.9070   34.8690   41.8430 H   0  0  0  0  0  0  0  0  0  0  0  0
   44.2410   35.5610   43.4700 C   0  0  0  0  0  0  0  0  0  0  0  0
   44.4290   34.2830   42.8210 C   0  0  0  0  0  0  0  0  0  0  0  0
   45.0240   33.2400   43.5410 C   0  0  0  0  0  0  0  0  0  0  0  0
   45.4060   33.4800   44.8350 N   0  0  0  0  0  0  0  0  0  0  0  0
   45.2110   34.7070   45.4160 C   0  0  0  0  0  0  0  0  0  0  0  0
   44.6300   35.7480   44.7390 N   0  0  0  0  0  0  0  0  0  0  0  0
   43.7820   36.3690   42.9250 H   0  0  0  0  0  0  0  0  0  0  0  0
   45.1650   32.2510   43.1790 H   0  0  0  0  0  0  0  0  0  0  0  0
   45.5630   34.7480   46.4420 H   0  0  0  0  0  0  0  0  0  0  0  0
   46.0010   33.4670   40.1510 C   0  0  0  0  0  0  0  0  0  0  0  0
   47.0250   34.3040   40.5250 C   0  0  0  0  0  0  0  0  0  0  0  0
   48.3510   34.0790   40.3490 C   0  0  0  0  0  0  0  0  0  0  0  0
   48.7130   32.9290   39.7500 N   0  0  0  0  0  0  0  0  0  0  0  0
   47.7590   32.0720   39.3620 C   0  0  0  0  0  0  0  0  0  0  0  0
   47.8560   31.0940   38.8640 H   0  0  0  0  0  0  0  0  0  0  0  0
   46.5010   32.3860   39.5810 N   0  0  0  0  0  0  0  0  0  0  0  0
  1  9  1  0  0  0  0
  2  1  1  0  0  0  0
  3  4  1  0  0  0  0
  3  2  2  0  0  0  0
  4  5  2  0  0  0  0
  5  1  1  0  0  0  0
  5  7  1  0  0  0  0
  6  3  1  0  0  0  0
  8 13  1  0  0  0  0
  9  8  2  0  0  0  0
  9 10  1  0  0  0  0
 10 11  2  0  0  0  0
 11 12  1  0  0  0  0
 12 16  1  0  0  0  0
 13 12  2  0  0  0  0
 14  8  1  0  0  0  0
 15 10  1  0  0  0  0
 17  2  1  0  0  0  0
 17 18  1  0  0  0  0
 19 18  2  0  0  0  0
 20 19  1  0  0  0  0
 21 23  1  0  0  0  0
 21 20  2  0  0  0  0
 22 21  1  0  0  0  0
 23 17  2  0  0  0  0
M  END
>  <minimizedAffinity>
-4.01981258

>  <minimizedRMSD>
1.13227558

$$$$
