
     RDKit          3D

 52 56  0  0  0  0  0  0  0  0999 V2000
   46.1599   33.6008   45.2795 C   0  0  2  0  0  0  0  0  0  0  0  0
   44.9188   34.6619   45.4981 C   0  0  0  0  0  0  0  0  0  0  0  0
   44.6832   35.5922   44.4294 C   0  0  0  0  0  0  0  0  0  0  0  0
   45.5078   35.5456   43.2157 C   0  0  1  0  0  0  0  0  0  0  0  0
   46.5861   34.5665   43.1778 C   0  0  0  0  0  0  0  0  0  0  0  0
   46.1513   33.3213   43.9146 C   0  0  0  0  0  0  0  0  0  0  0  0
   45.4026   32.8857   47.5321 C   0  0  0  0  0  0  0  0  0  0  0  0
   45.9214   32.6384   46.3009 C   0  0  0  0  0  0  0  0  0  0  0  0
   46.1537   31.2837   46.0292 C   0  0  0  0  0  0  0  0  0  0  0  0
   45.8890   30.2818   46.9053 N   0  0  0  0  0  0  0  0  0  0  0  0
   45.3597   30.5852   48.1494 C   0  0  0  0  0  0  0  0  0  0  0  0
   45.1301   31.8718   48.4325 N   0  0  0  0  0  0  0  0  0  0  0  0
   45.0802   29.5649   49.0831 N   0  0  0  0  0  0  0  0  0  0  0  0
   46.7511   30.5978   44.8991 C   0  0  0  0  0  0  0  0  0  0  0  0
   46.3595   29.9175   43.7903 C   0  0  0  0  0  0  0  0  0  0  0  0
   47.5170   29.4684   43.1276 C   0  0  0  0  0  0  0  0  0  0  0  0
   48.5398   29.8983   43.8641 N   0  0  0  0  0  0  0  0  0  0  0  0
   48.1198   30.5650   44.9123 N   0  0  0  0  0  0  0  0  0  0  0  0
   44.5134   35.2670   42.0496 C   0  0  0  0  0  0  0  0  0  0  0  0
   43.4612   34.4515   42.4271 F   0  0  0  0  0  0  0  0  0  0  0  0
   43.9604   36.4968   41.7039 F   0  0  0  0  0  0  0  0  0  0  0  0
   45.2121   34.8128   40.9463 F   0  0  0  0  0  0  0  0  0  0  0  0
   46.9327   34.3474   45.6258 H   0  0  0  0  0  0  0  0  0  0  0  0
   44.2260   34.7892   46.3213 H   0  0  0  0  0  0  0  0  0  0  0  0
   43.8957   36.2930   44.5309 H   0  0  0  0  0  0  0  0  0  0  0  0
   45.9206   36.5607   43.0218 H   0  0  0  0  0  0  0  0  0  0  0  0
   46.8539   34.3648   42.1020 H   0  0  0  0  0  0  0  0  0  0  0  0
   47.5292   34.9345   43.6353 H   0  0  0  0  0  0  0  0  0  0  0  0
   47.0168   32.6875   43.5862 H   0  0  0  0  0  0  0  0  0  0  0  0
   45.2210   32.9457   43.4403 H   0  0  0  0  0  0  0  0  0  0  0  0
   45.1901   33.8960   47.8449 H   0  0  0  0  0  0  0  0  0  0  0  0
   45.6265   29.4093   49.9774 H   0  0  0  0  0  0  0  0  0  0  0  0
   44.2783   28.9377   48.8527 H   0  0  0  0  0  0  0  0  0  0  0  0
   45.3012   29.8357   43.6073 H   0  0  0  0  0  0  0  0  0  0  0  0
   47.4427   28.9087   42.2291 H   0  0  0  0  0  0  0  0  0  0  0  0
   49.9227   29.6418   43.5180 C   0  0  0  0  0  0  0  0  0  0  0  0
   50.3455   28.3942   43.9859 C   0  0  0  0  0  0  0  0  0  0  0  0
   51.6737   28.0666   43.6933 C   0  0  0  0  0  0  0  0  0  0  0  0
   52.5397   28.9075   42.9851 C   0  0  0  0  0  0  0  0  0  0  0  0
   52.0439   30.1152   42.5617 C   0  0  0  0  0  0  0  0  0  0  0  0
   52.8690   30.9794   41.8561 C   0  0  0  0  0  0  0  0  0  0  0  0
   52.3355   32.1784   41.4497 C   0  0  0  0  0  0  0  0  0  0  0  0
   51.0156   32.5569   41.7145 C   0  0  0  0  0  0  0  0  0  0  0  0
   50.1843   31.6850   42.4260 C   0  0  0  0  0  0  0  0  0  0  0  0
   50.7442   30.4847   42.8240 C   0  0  0  0  0  0  0  0  0  0  0  0
   49.7358   27.6917   44.5387 H   0  0  0  0  0  0  0  0  0  0  0  0
   52.0293   27.0884   44.0520 H   0  0  0  0  0  0  0  0  0  0  0  0
   53.5368   28.5648   42.8130 H   0  0  0  0  0  0  0  0  0  0  0  0
   53.8674   30.6745   41.6648 H   0  0  0  0  0  0  0  0  0  0  0  0
   53.0119   32.8342   40.8970 H   0  0  0  0  0  0  0  0  0  0  0  0
   50.6748   33.5115   41.3623 H   0  0  0  0  0  0  0  0  0  0  0  0
   49.1716   31.9549   42.6392 H   0  0  0  0  0  0  0  0  0  0  0  0
  1  2  1  0
  1  8  1  0
  3  2  2  0
  4  3  1  0
  5  4  1  0
  5  6  1  0
  6  1  1  0
  7 12  2  0
  8  7  1  0
  9  8  2  0
  9 10  1  0
 10 11  2  0
 11 12  1  0
 11 13  1  0
 14 18  2  0
 14  9  1  0
 15 14  1  0
 16 15  2  0
 16 17  1  0
 17 18  1  0
 19 20  1  0
 19  4  1  0
 21 19  1  0
 22 19  1  0
  1 23  1  1
  2 24  1  0
  3 25  1  0
  4 26  1  6
  5 27  1  0
  5 28  1  0
  6 29  1  0
  6 30  1  0
  7 31  1  0
 13 32  1  0
 13 33  1  0
 15 34  1  0
 16 35  1  0
 36 37  2  0
 37 38  1  0
 38 39  2  0
 39 40  1  0
 40 41  2  0
 41 42  1  0
 42 43  2  0
 43 44  1  0
 44 45  2  0
 45 36  1  0
 45 40  1  0
 37 46  1  0
 38 47  1  0
 39 48  1  0
 41 49  1  0
 42 50  1  0
 43 51  1  0
 44 52  1  0
 17 36  1  0
M  ISO  8  23  13  24  13  25  13  26  13  27  13  28  13  29  13  30  13
M  ISO  3  31  14  34  14  35  14
M  END
>  <DihAtoms>  (1) 
15,16,35,36

>  <DihDeg>  (1) 
110.16249836467642

$$$$
