
 OpenBabel03232519343D

 44 46  0  0  1  0  0  0  0  0999 V2000
   46.7630   34.3990   40.5420 C   0  0  1  0  0  0  0  0  0  0  0  0
   47.9410   33.9150   39.6810 C   0  0  0  0  0  0  0  0  0  0  0  0
   47.3290   33.6790   38.3040 C   0  0  0  0  0  0  0  0  0  0  0  0
   46.4610   32.4600   38.3830 C   0  0  0  0  0  0  0  0  0  0  0  0
   46.1840   32.0970   39.8080 C   0  0  0  0  0  0  0  0  0  0  0  0
   45.7730   33.3350   40.6410 C   0  0  2  0  0  0  0  0  0  0  0  0
   46.5170   35.3240   40.0150 H   0  0  0  0  0  0  0  0  0  0  0  0
   48.6600   34.7590   39.6400 H   0  0  0  0  0  0  0  0  0  0  0  0
   48.4350   33.0350   40.1000 H   0  0  0  0  0  0  0  0  0  0  0  0
   46.8040   34.5850   38.0130 H   0  0  0  0  0  0  0  0  0  0  0  0
   48.1580   33.5230   37.5740 H   0  0  0  0  0  0  0  0  0  0  0  0
   47.0510   31.6080   37.9780 H   0  0  0  0  0  0  0  0  0  0  0  0
   45.5710   32.5080   37.7250 H   0  0  0  0  0  0  0  0  0  0  0  0
   47.0380   31.5610   40.2370 H   0  0  0  0  0  0  0  0  0  0  0  0
   45.2930   31.4370   39.8110 H   0  0  0  0  0  0  0  0  0  0  0  0
   45.7350   32.7580   41.5860 H   0  0  0  0  0  0  0  0  0  0  0  0
   47.2810   34.7520   41.9520 C   0  0  0  0  0  0  0  0  0  0  0  0
   47.0920   35.7920   42.2170 H   0  0  0  0  0  0  0  0  0  0  0  0
   48.4110   34.6580   41.8350 H   0  0  0  0  0  0  0  0  0  0  0  0
   46.8500   33.6880   42.8600 C   0  0  0  0  0  0  0  0  0  0  0  0
   47.6920   33.0540   43.2420 H   0  0  0  0  0  0  0  0  0  0  0  0
   46.0680   32.9650   42.5300 H   0  0  0  0  0  0  0  0  0  0  0  0
   46.1070   33.4730   45.1410 C   0  0  0  0  0  0  0  0  0  0  0  0
   46.0760   34.2160   43.9610 C   0  0  0  0  0  0  0  0  0  0  0  0
   45.3200   35.3270   43.8320 C   0  0  0  0  0  0  0  0  0  0  0  0
   44.5770   35.7000   44.9110 N   0  0  0  0  0  0  0  0  0  0  0  0
   44.5800   35.0070   46.0640 C   0  0  0  0  0  0  0  0  0  0  0  0
   45.3430   33.8950   46.1840 N   0  0  0  0  0  0  0  0  0  0  0  0
   46.7150   32.5810   45.2470 H   0  0  0  0  0  0  0  0  0  0  0  0
   45.2070   35.9690   42.9980 H   0  0  0  0  0  0  0  0  0  0  0  0
   43.9990   35.2880   46.9220 H   0  0  0  0  0  0  0  0  0  0  0  0
   44.4640   33.7110   40.0330 C   0  0  0  0  0  0  0  0  0  0  0  0
   44.4570   33.9360   38.9650 H   0  0  0  0  0  0  0  0  0  0  0  0
   43.7860   32.8450   40.1690 H   0  0  0  0  0  0  0  0  0  0  0  0
   43.8490   34.9230   40.7100 C   0  0  0  0  0  0  0  0  0  0  0  0
   44.2710   35.8820   40.3160 H   0  0  0  0  0  0  0  0  0  0  0  0
   43.6890   34.8940   41.7620 H   0  0  0  0  0  0  0  0  0  0  0  0
   42.4240   34.9060   40.1480 C   0  0  0  0  0  0  0  0  0  0  0  0
   42.1990   35.1760   38.8120 C   0  0  0  0  0  0  0  0  0  0  0  0
   40.9470   35.1740   38.2590 C   0  0  0  0  0  0  0  0  0  0  0  0
   40.9120   35.4020   37.2020 H   0  0  0  0  0  0  0  0  0  0  0  0
   39.8870   34.8910   39.0730 N   0  0  0  0  0  0  0  0  0  0  0  0
   40.1340   34.6290   40.3790 C   0  0  0  0  0  0  0  0  0  0  0  0
   41.3790   34.6350   40.9160 N   0  0  0  0  0  0  0  0  0  0  0  0
  1  7  1  6  0  0  0
  1  6  1  0  0  0  0
  1 17  1  0  0  0  0
  2  9  1  0  0  0  0
  2  1  1  0  0  0  0
  3  4  1  0  0  0  0
  3  2  1  0  0  0  0
  4  5  1  0  0  0  0
  5 15  1  0  0  0  0
  5 14  1  0  0  0  0
  5  6  1  0  0  0  0
  6 16  1  1  0  0  0
  8  2  1  0  0  0  0
 10  3  1  0  0  0  0
 11  3  1  0  0  0  0
 12  4  1  0  0  0  0
 13  4  1  0  0  0  0
 17 18  1  0  0  0  0
 17 20  1  0  0  0  0
 19 17  1  0  0  0  0
 20 21  1  0  0  0  0
 20 24  1  0  0  0  0
 22 20  1  0  0  0  0
 23 29  1  0  0  0  0
 23 28  1  0  0  0  0
 24 23  2  0  0  0  0
 25 24  1  0  0  0  0
 25 26  2  0  0  0  0
 26 27  1  0  0  0  0
 27 28  2  0  0  0  0
 27 31  1  0  0  0  0
 30 25  1  0  0  0  0
 32 34  1  0  0  0  0
 32  6  1  0  0  0  0
 32 35  1  0  0  0  0
 33 32  1  0  0  0  0
 35 37  1  0  0  0  0
 36 35  1  0  0  0  0
 38 35  1  0  0  0  0
 38 44  1  0  0  0  0
 39 38  2  0  0  0  0
 40 39  1  0  0  0  0
 40 42  2  0  0  0  0
 41 40  1  0  0  0  0
 42 43  1  0  0  0  0
 43 44  2  0  0  0  0
M  END
>  <minimizedAffinity>
-5.09624338

>  <minimizedRMSD>
2.33227038

$$$$
