
 OpenBabel03232520563D

 35 37  0  0  1  0  0  0  0  0999 V2000
   46.1310   33.6520   45.2250 C   0  0  2  0  0  0  0  0  0  0  0  0
   45.0420   34.7820   45.4630 C   0  0  0  0  0  0  0  0  0  0  0  0
   44.7820   35.6760   44.3640 C   0  0  0  0  0  0  0  0  0  0  0  0
   45.4790   35.5340   43.1030 C   0  0  1  0  0  0  0  0  0  0  0  0
   46.5350   34.4960   43.0430 C   0  0  0  0  0  0  0  0  0  0  0  0
   46.0520   33.2980   43.8460 C   0  0  0  0  0  0  0  0  0  0  0  0
   47.0080   34.3210   45.4860 H   0  0  0  0  0  0  0  0  0  0  0  0
   44.4040   35.0720   46.2910 H   0  0  0  0  0  0  0  0  0  0  0  0
   44.0750   36.4570   44.4320 H   0  0  0  0  0  0  0  0  0  0  0  0
   45.9360   36.5060   42.8230 H   0  0  0  0  0  0  0  0  0  0  0  0
   47.5090   34.8290   43.4530 H   0  0  0  0  0  0  0  0  0  0  0  0
   46.7120   34.1950   41.9920 H   0  0  0  0  0  0  0  0  0  0  0  0
   44.9250   33.2580   43.5740 H   0  0  0  0  0  0  0  0  0  0  0  0
   46.4540   32.4700   43.3410 H   0  0  0  0  0  0  0  0  0  0  0  0
   45.1020   32.8920   47.3450 C   0  0  0  0  0  0  0  0  0  0  0  0
   45.9280   32.7040   46.2740 C   0  0  0  0  0  0  0  0  0  0  0  0
   46.5530   31.4580   46.2160 C   0  0  0  0  0  0  0  0  0  0  0  0
   46.3560   30.5060   47.1470 N   0  0  0  0  0  0  0  0  0  0  0  0
   45.5170   30.7340   48.2130 C   0  0  0  0  0  0  0  0  0  0  0  0
   44.9090   31.9130   48.2940 N   0  0  0  0  0  0  0  0  0  0  0  0
   45.3270   29.7420   49.2170 N   0  0  0  0  0  0  0  0  0  0  0  0
   44.5770   33.7970   47.4950 H   0  0  0  0  0  0  0  0  0  0  0  0
   46.2370   29.5500   49.7010 H   0  0  0  0  0  0  0  0  0  0  0  0
   44.4240   29.2770   49.4360 H   0  0  0  0  0  0  0  0  0  0  0  0
   47.5300   30.8940   45.2960 C   0  0  0  0  0  0  0  0  0  0  0  0
   48.3510   29.8430   45.6770 C   0  0  0  0  0  0  0  0  0  0  0  0
   49.3610   29.2690   44.9320 C   0  0  0  0  0  0  0  0  0  0  0  0
   49.5490   29.8030   43.7140 N   0  0  0  0  0  0  0  0  0  0  0  0
   48.7830   30.8210   43.2950 C   0  0  0  0  0  0  0  0  0  0  0  0
   48.8990   31.2900   42.3070 H   0  0  0  0  0  0  0  0  0  0  0  0
   47.8110   31.3470   44.0540 N   0  0  0  0  0  0  0  0  0  0  0  0
   44.4180   35.2510   42.0110 C   0  0  0  0  0  0  0  0  0  0  0  0
   43.3840   34.4650   42.4610 F   0  0  0  0  0  0  0  0  0  0  0  0
   43.8680   36.4860   41.6790 F   0  0  0  0  0  0  0  0  0  0  0  0
   45.0400   34.7650   40.8690 F   0  0  0  0  0  0  0  0  0  0  0  0
  1  2  1  0  0  0  0
  1  7  1  1  0  0  0
  1 16  1  0  0  0  0
  2  8  1  0  0  0  0
  3  9  1  0  0  0  0
  3  2  2  0  0  0  0
  4 10  1  6  0  0  0
  4  3  1  0  0  0  0
  5  4  1  0  0  0  0
  5 11  1  0  0  0  0
  5  6  1  0  0  0  0
  6  1  1  0  0  0  0
 12  5  1  0  0  0  0
 13  6  1  0  0  0  0
 14  6  1  0  0  0  0
 15 22  1  0  0  0  0
 15 20  1  0  0  0  0
 16 15  2  0  0  0  0
 17 16  1  0  0  0  0
 17 18  2  0  0  0  0
 18 19  1  0  0  0  0
 19 20  2  0  0  0  0
 19 21  1  0  0  0  0
 21 24  1  0  0  0  0
 21 23  1  0  0  0  0
 25 26  1  0  0  0  0
 25 17  1  0  0  0  0
 27 26  2  0  0  0  0
 28 27  1  0  0  0  0
 29 28  2  0  0  0  0
 29 31  1  0  0  0  0
 30 29  1  0  0  0  0
 31 25  2  0  0  0  0
 32 33  1  0  0  0  0
 32  4  1  0  0  0  0
 34 32  1  0  0  0  0
 35 32  1  0  0  0  0
M  END
>  <minimizedAffinity>
-5.77411461

>  <minimizedRMSD>
0.541460812

$$$$
