
 OpenBabel03232516293D

 36 38  0  0  0  0  0  0  0  0999 V2000
   45.4070   33.5530   41.5850 C   0  0  0  0  0  0  0  0  0  0  0  0
   45.3960   33.9290   45.2330 C   0  0  0  0  0  0  0  0  0  0  0  0
   44.8270   35.1950   45.4390 C   0  0  0  0  0  0  0  0  0  0  0  0
   44.4420   35.9240   44.3000 C   0  0  0  0  0  0  0  0  0  0  0  0
   44.6450   35.3630   43.0680 N   0  0  0  0  0  0  0  0  0  0  0  0
   45.2030   34.1310   42.9410 C   0  0  0  0  0  0  0  0  0  0  0  0
   45.5740   33.4230   44.0110 N   0  0  0  0  0  0  0  0  0  0  0  0
   45.6750   33.4070   46.1300 H   0  0  0  0  0  0  0  0  0  0  0  0
   44.6920   35.5860   46.4430 H   0  0  0  0  0  0  0  0  0  0  0  0
   44.0040   36.8930   44.4170 H   0  0  0  0  0  0  0  0  0  0  0  0
   44.0870   33.5870   40.8510 C   0  0  0  0  0  0  0  0  0  0  0  0
   43.2320   33.7150   41.5680 H   0  0  0  0  0  0  0  0  0  0  0  0
   43.8860   32.6560   40.2890 H   0  0  0  0  0  0  0  0  0  0  0  0
   44.0630   34.5040   40.2220 H   0  0  0  0  0  0  0  0  0  0  0  0
   45.7900   32.0970   41.7040 C   0  0  0  0  0  0  0  0  0  0  0  0
   46.0870   31.8790   42.7680 H   0  0  0  0  0  0  0  0  0  0  0  0
   44.9750   31.3980   41.4260 H   0  0  0  0  0  0  0  0  0  0  0  0
   46.6420   31.8680   41.0540 H   0  0  0  0  0  0  0  0  0  0  0  0
   46.4110   34.3100   40.7720 C   0  0  0  0  0  0  0  0  0  0  0  0
   46.4940   33.7620   39.8020 H   0  0  0  0  0  0  0  0  0  0  0  0
   46.0190   35.3160   40.5080 H   0  0  0  0  0  0  0  0  0  0  0  0
   47.7250   34.4660   41.3810 C   0  0  0  0  0  0  0  0  0  0  0  0
   48.3410   35.4880   42.0230 N   0  0  0  0  0  0  0  0  0  0  0  0
   49.5520   35.1150   42.3900 O   0  0  0  0  0  0  0  0  0  0  0  0
   49.7500   33.8800   42.0090 C   0  0  0  0  0  0  0  0  0  0  0  0
   48.6400   33.4660   41.3890 N   0  0  0  0  0  0  0  0  0  0  0  0
   50.9870   33.3310   42.3210 O   0  0  0  0  0  0  0  0  0  0  0  0
   51.1520   31.9870   42.0190 C   0  0  0  0  0  0  0  0  0  0  0  0
   51.7840   31.7950   40.7990 C   0  0  0  0  0  0  0  0  0  0  0  0
   52.1230   32.5800   40.1340 H   0  0  0  0  0  0  0  0  0  0  0  0
   52.0390   30.5250   40.3210 C   0  0  0  0  0  0  0  0  0  0  0  0
   51.6580   29.4180   41.0710 C   0  0  0  0  0  0  0  0  0  0  0  0
   51.8330   28.3970   40.7460 H   0  0  0  0  0  0  0  0  0  0  0  0
   51.0310   29.6150   42.2810 C   0  0  0  0  0  0  0  0  0  0  0  0
   50.7110   28.7990   42.9120 H   0  0  0  0  0  0  0  0  0  0  0  0
   50.7710   30.8780   42.7700 C   0  0  0  0  0  0  0  0  0  0  0  0
  1 15  1  0  0  0  0
  1  6  1  0  0  0  0
  2  3  1  0  0  0  0
  2  8  1  0  0  0  0
  3  9  1  0  0  0  0
  4 10  1  0  0  0  0
  4  3  2  0  0  0  0
  5  4  1  0  0  0  0
  6  5  2  0  0  0  0
  6  7  1  0  0  0  0
  7  2  2  0  0  0  0
 11 12  1  0  0  0  0
 11  1  1  0  0  0  0
 13 11  1  0  0  0  0
 14 11  1  0  0  0  0
 15 16  1  0  0  0  0
 17 15  1  0  0  0  0
 18 15  1  0  0  0  0
 19 22  1  0  0  0  0
 19  1  1  0  0  0  0
 20 19  1  0  0  0  0
 21 19  1  0  0  0  0
 22 26  1  0  0  0  0
 22 23  2  0  0  0  0
 23 24  1  0  0  0  0
 25 27  1  0  0  0  0
 25 24  1  0  0  0  0
 26 25  2  0  0  0  0
 28 27  1  0  0  0  0
 28 36  1  0  0  0  0
 29 28  2  0  0  0  0
 30 29  1  0  0  0  0
 31 29  1  0  0  0  0
 31 32  2  0  0  0  0
 32 34  1  0  0  0  0
 33 32  1  0  0  0  0
 34 36  2  0  0  0  0
 34 35  1  0  0  0  0
M  END
>  <minimizedAffinity>
-4.59828234

>  <minimizedRMSD>
0.69180119

$$$$
