
 OpenBabel03232520503D

 30 32  0  0  1  0  0  0  0  0999 V2000
   46.5110   33.1740   46.0780 C   0  0  2  0  0  0  0  0  0  0  0  0
   47.0490   31.9740   45.3340 C   0  0  0  0  0  0  0  0  0  0  0  0
   47.2530   30.7590   46.0920 C   0  0  0  0  0  0  0  0  0  0  0  0
   46.9430   30.7210   47.5200 C   0  0  2  0  0  0  0  0  0  0  0  0
   46.4890   31.9710   48.1560 C   0  0  0  0  0  0  0  0  0  0  0  0
   45.6150   32.7500   47.2020 C   0  0  0  0  0  0  0  0  0  0  0  0
   47.4200   33.6820   46.4880 H   0  0  0  0  0  0  0  0  0  0  0  0
   47.3040   31.9040   44.3010 H   0  0  0  0  0  0  0  0  0  0  0  0
   47.6300   29.8930   45.6090 H   0  0  0  0  0  0  0  0  0  0  0  0
   46.0970   29.9800   47.6280 H   0  0  0  0  0  0  0  0  0  0  0  0
   47.3320   32.6600   48.4340 H   0  0  0  0  0  0  0  0  0  0  0  0
   45.8950   31.7130   49.0650 H   0  0  0  0  0  0  0  0  0  0  0  0
   44.7880   32.0950   46.8220 H   0  0  0  0  0  0  0  0  0  0  0  0
   45.2510   33.6100   47.7620 H   0  0  0  0  0  0  0  0  0  0  0  0
   46.3660   34.1420   43.8160 C   0  0  0  0  0  0  0  0  0  0  0  0
   45.8930   34.1030   45.1280 C   0  0  0  0  0  0  0  0  0  0  0  0
   44.8370   34.9860   45.4760 C   0  0  0  0  0  0  0  0  0  0  0  0
   44.3470   35.8210   44.5180 N   0  0  0  0  0  0  0  0  0  0  0  0
   44.8350   35.8300   43.2540 C   0  0  0  0  0  0  0  0  0  0  0  0
   45.8390   34.9930   42.9060 N   0  0  0  0  0  0  0  0  0  0  0  0
   47.1630   33.5190   43.4330 H   0  0  0  0  0  0  0  0  0  0  0  0
   44.4710   34.9610   46.4730 H   0  0  0  0  0  0  0  0  0  0  0  0
   44.3590   36.5360   42.6040 H   0  0  0  0  0  0  0  0  0  0  0  0
   48.0740   30.1750   48.3360 C   0  0  0  0  0  0  0  0  0  0  0  0
   48.4910   30.9040   49.4310 C   0  0  0  0  0  0  0  0  0  0  0  0
   49.5380   30.3390   50.1360 C   0  0  0  0  0  0  0  0  0  0  0  0
   50.1650   29.1710   49.8480 N   0  0  0  0  0  0  0  0  0  0  0  0
   49.7070   28.5100   48.7660 C   0  0  0  0  0  0  0  0  0  0  0  0
   50.0230   27.5670   48.3210 H   0  0  0  0  0  0  0  0  0  0  0  0
   48.6860   29.0070   48.0330 N   0  0  0  0  0  0  0  0  0  0  0  0
  1  7  1  1  0  0  0
  1  6  1  0  0  0  0
  2  1  1  0  0  0  0
  2  3  2  0  0  0  0
  3  4  1  0  0  0  0
  4 10  1  1  0  0  0
  4  5  1  0  0  0  0
  4 24  1  0  0  0  0
  5 11  1  0  0  0  0
  5 12  1  0  0  0  0
  6 14  1  0  0  0  0
  6  5  1  0  0  0  0
  8  2  1  0  0  0  0
  9  3  1  0  0  0  0
 13  6  1  0  0  0  0
 15 16  1  0  0  0  0
 16 17  2  0  0  0  0
 16  1  1  0  0  0  0
 17 22  1  0  0  0  0
 18 17  1  0  0  0  0
 19 18  2  0  0  0  0
 20 19  1  0  0  0  0
 20 15  2  0  0  0  0
 21 15  1  0  0  0  0
 23 19  1  0  0  0  0
 24 25  1  0  0  0  0
 25 26  2  0  0  0  0
 27 26  1  0  0  0  0
 28 27  2  0  0  0  0
 29 28  1  0  0  0  0
 30 24  2  0  0  0  0
 30 28  1  0  0  0  0
M  END
>  <minimizedAffinity>
-5.26193476

>  <minimizedRMSD>
7.78523827

$$$$
