REMARK  Name = 
REMARK  4 active torsions:
REMARK  status: ('A' for Active; 'I' for Inactive)
REMARK    1  A    between atoms: C_1  and  C_8
REMARK    2  A    between atoms: C_4  and  C_19
REMARK    3  A    between atoms: C_9  and  C_14
REMARK    4  A    between atoms: N_17  and  C_36
REMARK                            x       y       z     vdW  Elec       q    Type
REMARK                         _______ _______ _______ _____ _____    ______ ____
ROOT
ATOM      1  C   UNL     1      45.403  32.886  47.532  0.00  0.00    +0.000 A 
ATOM      2  C   UNL     1      45.921  32.638  46.301  0.00  0.00    +0.000 A 
ATOM      3  C   UNL     1      46.154  31.284  46.029  0.00  0.00    +0.000 A 
ATOM      4  N   UNL     1      45.889  30.282  46.905  0.00  0.00    +0.000 NA
ATOM      5  C   UNL     1      45.360  30.585  48.149  0.00  0.00    +0.000 A 
ATOM      6  N   UNL     1      45.130  31.872  48.432  0.00  0.00    +0.000 NA
ATOM      7  N   UNL     1      45.080  29.565  49.083  0.00  0.00    +0.000 N 
ATOM      8  H   UNL     1      45.190  33.896  47.845  0.00  0.00    +0.000 HD
ATOM      9  H   UNL     1      45.627  29.409  49.977  0.00  0.00    +0.000 HD
ATOM     10  H   UNL     1      44.278  28.938  48.853  0.00  0.00    +0.000 HD
ENDROOT
BRANCH   2  11
ATOM     11  C   UNL     1      46.160  33.601  45.279  0.00  0.00    +0.000 C 
ATOM     12  C   UNL     1      44.919  34.662  45.498  0.00  0.00    +0.000 C 
ATOM     13  C   UNL     1      44.683  35.592  44.429  0.00  0.00    +0.000 C 
ATOM     14  C   UNL     1      45.508  35.546  43.216  0.00  0.00    +0.000 C 
ATOM     15  C   UNL     1      46.586  34.566  43.178  0.00  0.00    +0.000 C 
ATOM     16  C   UNL     1      46.151  33.321  43.915  0.00  0.00    +0.000 C 
ATOM     17  H   UNL     1      46.933  34.347  45.626  0.00  0.00    +0.000 HD
ATOM     18  H   UNL     1      44.226  34.789  46.321  0.00  0.00    +0.000 HD
ATOM     19  H   UNL     1      43.896  36.293  44.531  0.00  0.00    +0.000 HD
ATOM     20  H   UNL     1      45.921  36.561  43.022  0.00  0.00    +0.000 HD
ATOM     21  H   UNL     1      46.854  34.365  42.102  0.00  0.00    +0.000 HD
ATOM     22  H   UNL     1      47.529  34.934  43.635  0.00  0.00    +0.000 HD
ATOM     23  H   UNL     1      47.017  32.688  43.586  0.00  0.00    +0.000 HD
ATOM     24  H   UNL     1      45.221  32.946  43.440  0.00  0.00    +0.000 HD
BRANCH  14  25
ATOM     25  C   UNL     1      44.513  35.267  42.050  0.00  0.00    +0.000 C 
ATOM     26  F   UNL     1      43.461  34.452  42.427  0.00  0.00    +0.000 F 
ATOM     27  F   UNL     1      43.960  36.497  41.704  0.00  0.00    +0.000 F 
ATOM     28  F   UNL     1      45.212  34.813  40.946  0.00  0.00    +0.000 F 
ENDBRANCH  14  25
ENDBRANCH   2  11
BRANCH   3  29
ATOM     29  C   UNL     1      46.751  30.598  44.899  0.00  0.00    +0.000 A 
ATOM     30  C   UNL     1      46.359  29.918  43.790  0.00  0.00    +0.000 A 
ATOM     31  C   UNL     1      47.517  29.468  43.128  0.00  0.00    +0.000 A 
ATOM     32  N   UNL     1      48.540  29.898  43.864  0.00  0.00    +0.000 N 
ATOM     33  N   UNL     1      48.120  30.565  44.912  0.00  0.00    +0.000 NA
ATOM     34  H   UNL     1      45.301  29.836  43.607  0.00  0.00    +0.000 HD
ATOM     35  H   UNL     1      47.443  28.909  42.229  0.00  0.00    +0.000 HD
BRANCH  32  36
ATOM     36  C   UNL     1      49.923  29.642  43.518  0.00  0.00    +0.000 A 
ATOM     37  C   UNL     1      50.797  30.380  44.321  0.00  0.00    +0.000 A 
ATOM     38  C   UNL     1      52.157  30.190  44.052  0.00  0.00    +0.000 A 
ATOM     39  C   UNL     1      52.636  29.330  43.056  0.00  0.00    +0.000 A 
ATOM     40  C   UNL     1      51.709  28.643  42.313  0.00  0.00    +0.000 A 
ATOM     41  C   UNL     1      52.141  27.780  41.316  0.00  0.00    +0.000 A 
ATOM     42  C   UNL     1      51.182  27.111  40.595  0.00  0.00    +0.000 A 
ATOM     43  C   UNL     1      49.810  27.263  40.821  0.00  0.00    +0.000 A 
ATOM     44  C   UNL     1      49.376  28.133  41.827  0.00  0.00    +0.000 A 
ATOM     45  C   UNL     1      50.359  28.795  42.539  0.00  0.00    +0.000 A 
ENDBRANCH  32  36
ENDBRANCH   3  29
TORSDOF 4
