
 OpenBabel03232521013D

 43 46  0  0  1  0  0  0  0  0999 V2000
   45.3110   32.9090   47.5020 C   0  0  0  0  0  0  0  0  0  0  0  0
   45.8890   32.6490   46.3030 C   0  0  0  0  0  0  0  0  0  0  0  0
   46.1900   31.3040   46.0740 C   0  0  0  0  0  0  0  0  0  0  0  0
   45.9300   30.3170   46.9670 N   0  0  0  0  0  0  0  0  0  0  0  0
   45.3380   30.6320   48.1800 C   0  0  0  0  0  0  0  0  0  0  0  0
   45.0460   31.9050   48.4160 N   0  0  0  0  0  0  0  0  0  0  0  0
   45.0810   29.6260   49.1440 N   0  0  0  0  0  0  0  0  0  0  0  0
   45.0410   33.9150   47.7860 H   0  0  0  0  0  0  0  0  0  0  0  0
   45.7510   29.7550   49.9500 H   0  0  0  0  0  0  0  0  0  0  0  0
   44.3800   28.8530   49.1520 H   0  0  0  0  0  0  0  0  0  0  0  0
   46.1460   33.5970   45.2740 C   0  0  2  0  0  0  0  0  0  0  0  0
   44.9450   34.7000   45.5020 C   0  0  0  0  0  0  0  0  0  0  0  0
   44.7190   35.6310   44.4310 C   0  0  0  0  0  0  0  0  0  0  0  0
   45.5190   35.5520   43.2080 C   0  0  1  0  0  0  0  0  0  0  0  0
   46.5730   34.5400   43.1590 C   0  0  0  0  0  0  0  0  0  0  0  0
   46.1150   33.3110   43.9100 C   0  0  0  0  0  0  0  0  0  0  0  0
   46.9880   34.2840   45.5980 H   0  0  0  0  0  0  0  0  0  0  0  0
   44.2660   34.8620   46.3290 H   0  0  0  0  0  0  0  0  0  0  0  0
   43.9440   36.3650   44.5480 H   0  0  0  0  0  0  0  0  0  0  0  0
   45.9680   36.5390   42.9680 H   0  0  0  0  0  0  0  0  0  0  0  0
   46.7600   34.3010   42.0700 H   0  0  0  0  0  0  0  0  0  0  0  0
   47.5640   34.8840   43.5380 H   0  0  0  0  0  0  0  0  0  0  0  0
   45.1650   32.9720   43.4450 H   0  0  0  0  0  0  0  0  0  0  0  0
   46.9720   32.6610   43.5890 H   0  0  0  0  0  0  0  0  0  0  0  0
   44.5030   35.2850   42.0550 C   0  0  0  0  0  0  0  0  0  0  0  0
   43.4430   34.4900   42.4490 F   0  0  0  0  0  0  0  0  0  0  0  0
   43.9600   36.5230   41.7190 F   0  0  0  0  0  0  0  0  0  0  0  0
   45.1780   34.8230   40.9410 F   0  0  0  0  0  0  0  0  0  0  0  0
   46.8490   30.6130   44.9830 C   0  0  0  0  0  0  0  0  0  0  0  0
   46.5300   29.8100   43.9360 C   0  0  0  0  0  0  0  0  0  0  0  0
   47.7200   29.4520   43.2820 C   0  0  0  0  0  0  0  0  0  0  0  0
   48.6930   30.0550   43.9650 N   0  0  0  0  0  0  0  0  0  0  0  0
   48.2080   30.7440   44.9710 N   0  0  0  0  0  0  0  0  0  0  0  0
   45.4870   29.5890   43.7810 H   0  0  0  0  0  0  0  0  0  0  0  0
   47.6890   28.8140   42.4180 H   0  0  0  0  0  0  0  0  0  0  0  0
   50.0610   29.9050   43.5700 C   0  0  0  0  0  0  0  0  0  0  0  0
   50.5150   30.4360   42.3700 C   0  0  0  0  0  3  0  0  0  0  0  0
   51.8320   30.2760   42.0220 C   0  0  0  0  0  0  0  0  0  0  0  0
   52.1510   30.7090   41.0700 H   0  0  0  0  0  0  0  0  0  0  0  0
   52.7230   29.5900   42.8450 C   0  0  0  0  0  3  0  0  0  0  0  0
   52.2270   29.0730   44.0360 C   0  0  0  0  0  0  0  0  0  0  0  0
   52.8870   28.5360   44.7020 H   0  0  0  0  0  0  0  0  0  0  0  0
   50.9200   29.2110   44.4240 C   0  0  0  0  0  3  0  0  0  0  0  0
  1  8  1  0  0  0  0
  1  6  1  0  0  0  0
  2  1  2  0  0  0  0
  3  2  1  0  0  0  0
  3  4  2  0  0  0  0
  4  5  1  0  0  0  0
  5  6  2  0  0  0  0
  5  7  1  0  0  0  0
  7 10  1  0  0  0  0
  7  9  1  0  0  0  0
 11 12  1  0  0  0  0
 11 17  1  1  0  0  0
 11  2  1  0  0  0  0
 12 18  1  0  0  0  0
 13 19  1  0  0  0  0
 13 12  2  0  0  0  0
 14 20  1  6  0  0  0
 14 13  1  0  0  0  0
 15 14  1  0  0  0  0
 15 22  1  0  0  0  0
 15 16  1  0  0  0  0
 16 11  1  0  0  0  0
 21 15  1  0  0  0  0
 23 16  1  0  0  0  0
 24 16  1  0  0  0  0
 25 26  1  0  0  0  0
 25 14  1  0  0  0  0
 27 25  1  0  0  0  0
 28 25  1  0  0  0  0
 29  3  1  0  0  0  0
 30 29  1  0  0  0  0
 31 30  2  0  0  0  0
 31 32  1  0  0  0  0
 32 33  1  0  0  0  0
 33 29  2  0  0  0  0
 34 30  1  0  0  0  0
 35 31  1  0  0  0  0
 36 32  1  0  0  0  0
 36 43  1  0  0  0  0
 37 36  2  0  0  0  0
 38 37  1  0  0  0  0
 38 40  2  0  0  0  0
 39 38  1  0  0  0  0
 40 41  1  0  0  0  0
 41 43  2  0  0  0  0
 41 42  1  0  0  0  0
M  END
>  <minimizedAffinity>
-5.87567997

>  <minimizedRMSD>
0.256441385

$$$$
