
 OpenBabel03232519103D

 43 45  0  0  1  0  0  0  0  0999 V2000
   45.8840   32.0930   42.2250 C   0  0  0  0  0  0  0  0  0  0  0  0
   46.6520   32.2680   45.8140 C   0  0  0  0  0  0  0  0  0  0  0  0
   45.9610   33.4080   46.1370 C   0  0  0  0  0  0  0  0  0  0  0  0
   45.2470   33.8890   44.5690 S   0  0  0  0  0  0  0  0  0  0  0  0
   46.0400   32.3950   43.6820 C   0  0  0  0  0  0  0  0  0  0  0  0
   46.5670   31.9440   44.5820 N   0  0  0  0  0  0  0  0  0  0  0  0
   45.8230   33.9550   47.0810 H   0  0  0  0  0  0  0  0  0  0  0  0
   48.3590   31.2990   49.0610 C   0  0  0  0  0  0  0  0  0  0  0  0
   47.6440   32.0370   48.1230 C   0  0  0  0  0  0  0  0  0  0  0  0
   47.4010   31.5310   46.8450 C   0  0  0  0  0  0  0  0  0  0  0  0
   47.9140   30.3070   46.6390 N   0  0  0  0  0  0  0  0  0  0  0  0
   48.5980   29.5730   47.5030 C   0  0  0  0  0  0  0  0  0  0  0  0
   48.8110   30.0810   48.7060 N   0  0  0  0  0  0  0  0  0  0  0  0
   48.4830   31.7970   50.0200 H   0  0  0  0  0  0  0  0  0  0  0  0
   47.2560   33.0230   48.3520 H   0  0  0  0  0  0  0  0  0  0  0  0
   48.9770   28.5890   47.2510 H   0  0  0  0  0  0  0  0  0  0  0  0
   44.4790   31.6070   42.0120 C   0  0  0  0  0  0  0  0  0  0  0  0
   43.8190   31.7400   42.8710 H   0  0  0  0  0  0  0  0  0  0  0  0
   44.0110   32.0460   41.1030 H   0  0  0  0  0  0  0  0  0  0  0  0
   44.4770   30.4970   41.7970 H   0  0  0  0  0  0  0  0  0  0  0  0
   46.8810   31.0290   41.8990 C   0  0  0  0  0  0  0  0  0  0  0  0
   47.8950   31.4780   42.0410 H   0  0  0  0  0  0  0  0  0  0  0  0
   46.7820   30.1660   42.5830 H   0  0  0  0  0  0  0  0  0  0  0  0
   46.8260   30.7240   40.8410 H   0  0  0  0  0  0  0  0  0  0  0  0
   46.1520   33.3040   41.4230 C   0  0  1  0  0  0  0  0  0  0  0  0
   45.9390   32.9920   40.3650 H   0  0  0  0  0  0  0  0  0  0  0  0
   45.1430   34.4000   41.6040 C   0  0  0  0  0  0  0  0  0  0  0  0
   43.8190   34.5160   41.1670 C   0  0  0  0  0  0  0  0  0  0  0  0
   43.2510   35.7010   41.5530 C   0  0  0  0  0  0  0  0  0  0  0  0
   42.2360   35.9850   41.3170 H   0  0  0  0  0  0  0  0  0  0  0  0
   44.2270   36.3170   42.2320 N   0  0  0  0  0  0  0  0  0  0  0  0
   45.3110   35.5720   42.2610 N   0  0  0  0  0  0  0  0  0  0  0  0
   44.1210   37.2700   42.6750 H   0  0  0  0  0  0  0  0  0  0  0  0
   47.4700   33.7790   41.4990 N   0  0  0  0  0  0  0  0  0  0  0  0
   48.6440   34.2500   42.1110 C   0  0  0  0  0  0  0  0  0  0  0  0
   49.8040   34.7140   42.1580 O   0  0  0  0  0  0  0  0  0  0  0  0
   48.5300   34.2110   43.5500 N   0  0  0  0  0  0  0  0  0  0  0  0
   48.1290   35.0030   44.1010 H   0  0  0  0  0  0  0  0  0  0  0  0
   48.8450   33.3780   44.1310 H   0  0  0  0  0  0  0  0  0  0  0  0
   48.1900   34.0160   40.2180 C   0  0  0  0  0  0  0  0  0  0  0  0
   47.1860   33.8330   39.2430 F   0  0  0  0  0  0  0  0  0  0  0  0
   49.1880   33.2190   40.0140 F   0  0  0  0  0  0  0  0  0  0  0  0
   48.4800   35.3930   40.1600 F   0  0  0  0  0  0  0  0  0  0  0  0
  1  5  1  0  0  0  0
  2  3  2  0  0  0  0
  2 10  1  0  0  0  0
  3  7  1  0  0  0  0
  4  3  1  0  0  0  0
  5  4  1  0  0  0  0
  5  6  2  0  0  0  0
  6  2  1  0  0  0  0
  8 14  1  0  0  0  0
  9 15  1  0  0  0  0
  9  8  2  0  0  0  0
 10  9  1  0  0  0  0
 11 10  2  0  0  0  0
 11 12  1  0  0  0  0
 12 13  2  0  0  0  0
 13  8  1  0  0  0  0
 16 12  1  0  0  0  0
 17  1  1  0  0  0  0
 17 18  1  0  0  0  0
 19 17  1  0  0  0  0
 20 17  1  0  0  0  0
 21 22  1  0  0  0  0
 21  1  1  0  0  0  0
 21 23  1  0  0  0  0
 24 21  1  0  0  0  0
 25 26  1  6  0  0  0
 25 34  1  0  0  0  0
 25 27  1  0  0  0  0
 25  1  1  0  0  0  0
 27 32  2  0  0  0  0
 28 29  2  0  0  0  0
 28 27  1  0  0  0  0
 29 31  1  0  0  0  0
 30 29  1  0  0  0  0
 31 32  1  0  0  0  0
 31 33  1  0  0  0  0
 34 35  1  0  0  0  0
 35 36  2  0  0  0  0
 35 37  1  0  0  0  0
 37 38  1  0  0  0  0
 37 39  1  0  0  0  0
 40 34  1  0  0  0  0
 41 40  1  0  0  0  0
 42 40  1  0  0  0  0
 43 40  1  0  0  0  0
M  END
>  <minimizedAffinity>
-5.63412905

>  <minimizedRMSD>
1.46204531

$$$$
