
 OpenBabel03232519523D

 43 46  0  0  1  0  0  0  0  0999 V2000
   45.7610   33.6770   42.1560 N   0  0  0  0  0  0  0  0  0  0  0  0
   46.9700   33.8800   41.3620 C   0  0  0  0  0  0  0  0  0  0  0  0
   46.3700   33.8280   39.9750 C   0  0  0  0  0  0  0  0  0  0  0  0
   45.5540   32.5670   40.0740 C   0  0  0  0  0  0  0  0  0  0  0  0
   44.9820   32.6560   41.4410 C   0  0  2  0  0  0  0  0  0  0  0  0
   47.3710   34.8810   41.5870 H   0  0  0  0  0  0  0  0  0  0  0  0
   47.6700   33.0520   41.5160 H   0  0  0  0  0  0  0  0  0  0  0  0
   45.7070   34.7100   39.8770 H   0  0  0  0  0  0  0  0  0  0  0  0
   47.1040   33.8310   39.1630 H   0  0  0  0  0  0  0  0  0  0  0  0
   44.8070   32.4440   39.2650 H   0  0  0  0  0  0  0  0  0  0  0  0
   46.2790   31.7130   39.9290 H   0  0  0  0  0  0  0  0  0  0  0  0
   45.2880   31.7000   41.9540 H   0  0  0  0  0  0  0  0  0  0  0  0
   44.4930   36.1380   44.6370 C   0  0  0  0  0  0  0  0  0  0  0  0
   44.8620   35.5800   43.4050 C   0  0  0  0  0  0  0  0  0  0  0  0
   45.3720   34.2970   43.3470 C   0  0  0  0  0  0  0  0  0  0  0  0
   45.4860   33.6350   44.5370 N   0  0  0  0  0  0  0  0  0  0  0  0
   45.1320   34.1710   45.7190 C   0  0  0  0  0  0  0  0  0  0  0  0
   44.6370   35.4210   45.7640 N   0  0  0  0  0  0  0  0  0  0  0  0
   45.3230   33.3230   46.8450 N   0  0  0  0  0  0  0  0  0  0  0  0
   44.0940   37.1330   44.7110 H   0  0  0  0  0  0  0  0  0  0  0  0
   44.7460   36.1650   42.4800 H   0  0  0  0  0  0  0  0  0  0  0  0
   46.1610   32.8320   47.1960 H   0  0  0  0  0  0  0  0  0  0  0  0
   44.4710   33.1530   47.4390 H   0  0  0  0  0  0  0  0  0  0  0  0
   43.5740   32.8290   41.5400 N   0  0  0  0  0  0  0  0  0  0  0  0
   42.8730   33.8970   41.1790 C   0  0  0  0  0  0  0  0  0  0  0  0
   41.4920   33.9900   41.3060 C   0  0  0  0  0  0  0  0  0  0  0  0
   40.7970   32.9220   41.8350 C   0  0  0  0  0  0  0  0  0  0  0  0
   39.5340   32.9430   41.9790 O   0  0  0  0  0  0  0  0  0  0  0  0
   41.5090   31.8420   42.1990 N   0  0  0  0  0  0  0  0  0  0  0  0
   42.8190   31.8210   42.0500 C   0  0  0  0  0  0  0  0  0  0  0  0
   43.4130   30.7480   42.4260 O   0  0  0  0  0  0  0  0  0  0  0  0
   43.4230   34.7420   40.7630 H   0  0  0  0  0  0  0  0  0  0  0  0
   40.9900   31.0150   42.6050 H   0  0  0  0  0  0  0  0  0  0  0  0
   40.7530   35.1980   40.8910 C   0  0  0  0  0  0  0  0  0  0  0  0
   41.3660   36.1050   41.0910 H   0  0  0  0  0  0  0  0  0  0  0  0
   39.8230   35.3290   41.4640 H   0  0  0  0  0  0  0  0  0  0  0  0
   40.4510   35.0890   39.4370 C   0  0  0  0  0  0  0  0  0  0  0  0
   39.4180   34.4120   38.8220 C   0  0  0  0  0  0  0  0  0  0  0  0
   39.6370   34.6610   37.4800 C   0  0  0  0  0  0  0  0  0  0  0  0
   38.9920   34.2640   36.6900 H   0  0  0  0  0  0  0  0  0  0  0  0
   40.7210   35.4320   37.2950 N   0  0  0  0  0  0  0  0  0  0  0  0
   41.2290   35.7000   38.5010 N   0  0  0  0  0  0  0  0  0  0  0  0
   41.1360   35.7860   36.3940 H   0  0  0  0  0  0  0  0  0  0  0  0
  1 15  1  0  0  0  0
  2  7  1  0  0  0  0
  2  6  1  0  0  0  0
  2  1  1  0  0  0  0
  3  4  1  0  0  0  0
  3  2  1  0  0  0  0
  4  5  1  0  0  0  0
  5 24  1  0  0  0  0
  5 12  1  1  0  0  0
  5  1  1  0  0  0  0
  8  3  1  0  0  0  0
  9  3  1  0  0  0  0
 10  4  1  0  0  0  0
 11  4  1  0  0  0  0
 13 20  1  0  0  0  0
 13 18  1  0  0  0  0
 14 13  2  0  0  0  0
 15 14  1  0  0  0  0
 15 16  2  0  0  0  0
 16 17  1  0  0  0  0
 17 18  2  0  0  0  0
 17 19  1  0  0  0  0
 19 22  1  0  0  0  0
 19 23  1  0  0  0  0
 21 14  1  0  0  0  0
 24 30  1  0  0  0  0
 25 26  2  0  0  0  0
 25 24  1  0  0  0  0
 26 27  1  0  0  0  0
 27 28  2  0  0  0  0
 27 29  1  0  0  0  0
 29 33  1  0  0  0  0
 30 29  1  0  0  0  0
 30 31  2  0  0  0  0
 32 25  1  0  0  0  0
 34 35  1  0  0  0  0
 34 26  1  0  0  0  0
 34 36  1  0  0  0  0
 37 34  1  0  0  0  0
 38 37  1  0  0  0  0
 39 38  2  0  0  0  0
 40 39  1  0  0  0  0
 41 39  1  0  0  0  0
 41 42  1  0  0  0  0
 42 37  2  0  0  0  0
 43 41  1  0  0  0  0
M  END
>  <minimizedAffinity>
-6.66963863

>  <minimizedRMSD>
1.16409218

$$$$
