
 OpenBabel03232520233D

 30 33  0  0  0  0  0  0  0  0999 V2000
   45.1690   33.7000   40.7950 C   0  0  0  0  0  0  0  0  0  0  0  0
   45.9360   34.2750   41.8020 C   0  0  0  0  0  0  0  0  0  0  0  0
   47.1640   34.5410   41.3310 N   0  0  0  0  0  0  0  0  0  0  0  0
   47.1970   34.1470   40.0410 C   0  0  0  0  0  0  0  0  0  0  0  0
   48.2360   34.2110   39.1310 C   0  0  0  0  0  0  0  0  0  0  0  0
   48.0080   33.7340   37.8640 C   0  0  0  0  0  0  0  0  0  0  0  0
   46.7970   33.1890   37.4280 C   0  0  0  0  0  0  0  0  0  0  0  0
   45.8080   33.1590   38.3860 C   0  0  0  0  0  0  0  0  0  0  0  0
   45.9580   33.6120   39.6650 C   0  0  0  0  0  0  0  0  0  0  0  0
   47.9740   34.9790   41.8560 H   0  0  0  0  0  0  0  0  0  0  0  0
   49.1950   34.6230   39.4140 H   0  0  0  0  0  0  0  0  0  0  0  0
   48.8230   33.7830   37.1490 H   0  0  0  0  0  0  0  0  0  0  0  0
   46.6680   32.8260   36.4160 H   0  0  0  0  0  0  0  0  0  0  0  0
   44.8350   32.7520   38.1370 H   0  0  0  0  0  0  0  0  0  0  0  0
   41.4610   33.6170   40.4100 C   0  0  0  0  0  0  0  0  0  0  0  0
   42.7970   34.0570   40.3100 C   0  0  0  0  0  0  0  0  0  0  0  0
   43.7910   33.2640   40.8880 C   0  0  0  0  0  0  0  0  0  0  0  0
   43.4200   32.1000   41.5240 N   0  0  0  0  0  0  0  0  0  0  0  0
   42.1190   31.7240   41.5900 C   0  0  0  0  0  0  0  0  0  0  0  0
   41.1420   32.4640   41.0450 N   0  0  0  0  0  0  0  0  0  0  0  0
   40.6410   34.1820   39.9850 H   0  0  0  0  0  0  0  0  0  0  0  0
   42.9950   34.9820   39.7930 H   0  0  0  0  0  0  0  0  0  0  0  0
   41.8740   30.7960   42.1030 H   0  0  0  0  0  0  0  0  0  0  0  0
   45.5260   34.5660   43.1730 C   0  0  0  0  0  0  0  0  0  0  0  0
   44.8510   35.7370   43.4510 C   0  0  0  0  0  0  0  0  0  0  0  0
   44.4590   36.0110   44.7680 C   0  0  0  0  0  0  0  0  0  0  0  0
   44.7780   35.0690   45.7420 C   0  0  0  0  0  0  0  0  0  0  0  0
   44.4980   35.2260   46.7930 H   0  0  0  0  0  0  0  0  0  0  0  0
   45.4610   33.8950   45.4290 C   0  0  0  0  0  0  0  0  0  0  0  0
   45.8290   33.6560   44.1400 N   0  0  0  0  0  0  0  0  0  0  0  0
  1 17  1  0  0  0  0
  1  2  2  0  0  0  0
  2 24  1  0  0  0  0
  3  2  1  0  0  0  0
  3 10  1  0  0  0  0
  4  3  1  0  0  0  0
  5 11  1  0  0  0  0
  5  4  2  0  0  0  0
  6  5  1  0  0  0  0
  7  6  2  0  0  0  0
  7  8  1  0  0  0  0
  8  9  2  0  0  0  0
  9  4  1  0  0  0  0
  9  1  1  0  0  0  0
 12  6  1  0  0  0  0
 13  7  1  0  0  0  0
 14  8  1  0  0  0  0
 15 20  1  0  0  0  0
 16 15  2  0  0  0  0
 16 17  1  0  0  0  0
 17 18  2  0  0  0  0
 18 19  1  0  0  0  0
 19 23  1  0  0  0  0
 20 19  2  0  0  0  0
 21 15  1  0  0  0  0
 22 16  1  0  0  0  0
 24 25  2  0  0  0  0
 24 30  1  0  0  0  0
 25 26  1  0  0  0  0
 26 27  2  0  0  0  0
 27 28  1  0  0  0  0
 29 27  1  0  0  0  0
 30 29  2  0  0  0  0
M  END
>  <minimizedAffinity>
-5.39370108

>  <minimizedRMSD>
4.10570621

$$$$
