REMARK  Name = 
REMARK  4 active torsions:
REMARK  status: ('A' for Active; 'I' for Inactive)
REMARK    1  A    between atoms: C_1  and  C_8
REMARK    2  A    between atoms: C_4  and  C_19
REMARK    3  A    between atoms: C_9  and  C_14
REMARK    4  A    between atoms: N_17  and  C_36
REMARK                            x       y       z     vdW  Elec       q    Type
REMARK                         _______ _______ _______ _____ _____    ______ ____
ROOT
ATOM      1  C   UNL     1      45.382  32.882  47.523  0.00  0.00    +0.000 A 
ATOM      2  C   UNL     1      45.906  32.632  46.297  0.00  0.00    +0.000 A 
ATOM      3  C   UNL     1      46.155  31.284  46.027  0.00  0.00    +0.000 A 
ATOM      4  N   UNL     1      45.898  30.285  46.908  0.00  0.00    +0.000 NA
ATOM      5  C   UNL     1      45.363  30.590  48.149  0.00  0.00    +0.000 A 
ATOM      6  N   UNL     1      45.120  31.866  48.424  0.00  0.00    +0.000 NA
ATOM      7  N   UNL     1      45.110  29.570  49.100  0.00  0.00    +0.000 N 
ATOM      8  H   UNL     1      45.155  33.889  47.839  0.00  0.00    +0.000 HD
ATOM      9  H   UNL     1      45.814  29.660  49.882  0.00  0.00    +0.000 HD
ATOM     10  H   UNL     1      44.386  28.819  49.118  0.00  0.00    +0.000 HD
ENDROOT
BRANCH   2  11
ATOM     11  C   UNL     1      46.154  33.595  45.280  0.00  0.00    +0.000 C 
ATOM     12  C   UNL     1      44.921  34.664  45.498  0.00  0.00    +0.000 C 
ATOM     13  C   UNL     1      44.687  35.598  44.431  0.00  0.00    +0.000 C 
ATOM     14  C   UNL     1      45.508  35.551  43.220  0.00  0.00    +0.000 C 
ATOM     15  C   UNL     1      46.588  34.567  43.179  0.00  0.00    +0.000 C 
ATOM     16  C   UNL     1      46.151  33.320  43.913  0.00  0.00    +0.000 C 
ATOM     17  H   UNL     1      46.972  34.301  45.622  0.00  0.00    +0.000 HD
ATOM     18  H   UNL     1      44.225  34.802  46.316  0.00  0.00    +0.000 HD
ATOM     19  H   UNL     1      43.891  36.311  44.542  0.00  0.00    +0.000 HD
ATOM     20  H   UNL     1      45.934  36.551  42.995  0.00  0.00    +0.000 HD
ATOM     21  H   UNL     1      46.798  34.342  42.092  0.00  0.00    +0.000 HD
ATOM     22  H   UNL     1      47.564  34.933  43.577  0.00  0.00    +0.000 HD
ATOM     23  H   UNL     1      45.218  32.960  43.431  0.00  0.00    +0.000 HD
ATOM     24  H   UNL     1      47.030  32.695  43.600  0.00  0.00    +0.000 HD
BRANCH  14  25
ATOM     25  C   UNL     1      44.517  35.267  42.050  0.00  0.00    +0.000 C 
ATOM     26  F   UNL     1      43.463  34.454  42.425  0.00  0.00    +0.000 F 
ATOM     27  F   UNL     1      43.959  36.496  41.704  0.00  0.00    +0.000 F 
ATOM     28  F   UNL     1      45.219  34.818  40.947  0.00  0.00    +0.000 F 
ENDBRANCH  14  25
ENDBRANCH   2  11
BRANCH   3  29
ATOM     29  C   UNL     1      46.751  30.598  44.897  0.00  0.00    +0.000 A 
ATOM     30  C   UNL     1      46.361  29.920  43.787  0.00  0.00    +0.000 A 
ATOM     31  C   UNL     1      47.513  29.466  43.126  0.00  0.00    +0.000 A 
ATOM     32  N   UNL     1      48.536  29.892  43.867  0.00  0.00    +0.000 N 
ATOM     33  N   UNL     1      48.115  30.560  44.915  0.00  0.00    +0.000 NA
ATOM     34  H   UNL     1      45.303  29.843  43.600  0.00  0.00    +0.000 HD
ATOM     35  H   UNL     1      47.425  28.902  42.215  0.00  0.00    +0.000 HD
BRANCH  32  36
ATOM     36  C   UNL     1      49.885  29.603  43.482  0.00  0.00    +0.000 A 
ATOM     37  C   UNL     1      50.581  28.553  44.066  0.00  0.00    +0.000 A 
ATOM     38  C   UNL     1      51.870  28.302  43.675  0.00  0.00    +0.000 A 
ATOM     39  H   UNL     1      52.385  27.468  44.158  0.00  0.00    +0.000 HD
ATOM     40  C   UNL     1      52.498  29.080  42.703  0.00  0.00    +0.000 A 
ATOM     41  C   UNL     1      51.766  30.121  42.144  0.00  0.00    +0.000 A 
ATOM     42  H   UNL     1      52.218  30.746  41.386  0.00  0.00    +0.000 HD
ATOM     43  C   UNL     1      50.475  30.406  42.505  0.00  0.00    +0.000 A 
ENDBRANCH  32  36
ENDBRANCH   3  29
TORSDOF 4
