
     RDKit          3D

 46 49  0  0  0  0  0  0  0  0999 V2000
   46.1540   33.5953   45.2802 C   0  0  2  0  0  0  0  0  0  0  0  0
   44.9209   34.6640   45.4985 C   0  0  0  0  0  0  0  0  0  0  0  0
   44.6873   35.5983   44.4306 C   0  0  0  0  0  0  0  0  0  0  0  0
   45.5078   35.5506   43.2201 C   0  0  1  0  0  0  0  0  0  0  0  0
   46.5881   34.5671   43.1793 C   0  0  0  0  0  0  0  0  0  0  0  0
   46.1513   33.3197   43.9134 C   0  0  0  0  0  0  0  0  0  0  0  0
   45.3819   32.8824   47.5228 C   0  0  0  0  0  0  0  0  0  0  0  0
   45.9064   32.6324   46.2973 C   0  0  0  0  0  0  0  0  0  0  0  0
   46.1549   31.2844   46.0270 C   0  0  0  0  0  0  0  0  0  0  0  0
   45.8983   30.2846   46.9080 N   0  0  0  0  0  0  0  0  0  0  0  0
   45.3629   30.5902   48.1490 C   0  0  0  0  0  0  0  0  0  0  0  0
   45.1198   31.8655   48.4238 N   0  0  0  0  0  0  0  0  0  0  0  0
   45.1096   29.5696   49.1001 N   0  0  0  0  0  0  0  0  0  0  0  0
   46.7509   30.5980   44.8974 C   0  0  0  0  0  0  0  0  0  0  0  0
   46.3612   29.9202   43.7867 C   0  0  0  0  0  0  0  0  0  0  0  0
   47.5132   29.4663   43.1258 C   0  0  0  0  0  0  0  0  0  0  0  0
   48.5362   29.8915   43.8672 N   0  0  0  0  0  0  0  0  0  0  0  0
   48.1153   30.5597   44.9148 N   0  0  0  0  0  0  0  0  0  0  0  0
   44.5172   35.2671   42.0500 C   0  0  0  0  0  0  0  0  0  0  0  0
   43.4628   34.4539   42.4253 F   0  0  0  0  0  0  0  0  0  0  0  0
   43.9593   36.4960   41.7038 F   0  0  0  0  0  0  0  0  0  0  0  0
   45.2186   34.8182   40.9468 F   0  0  0  0  0  0  0  0  0  0  0  0
   46.9719   34.3010   45.6222 H   0  0  0  0  0  0  0  0  0  0  0  0
   44.2255   34.8023   46.3162 H   0  0  0  0  0  0  0  0  0  0  0  0
   43.8909   36.3109   44.5422 H   0  0  0  0  0  0  0  0  0  0  0  0
   45.9336   36.5510   42.9946 H   0  0  0  0  0  0  0  0  0  0  0  0
   46.7983   34.3420   42.0918 H   0  0  0  0  0  0  0  0  0  0  0  0
   47.5643   34.9329   43.5770 H   0  0  0  0  0  0  0  0  0  0  0  0
   45.2183   32.9598   43.4306 H   0  0  0  0  0  0  0  0  0  0  0  0
   47.0298   32.6952   43.6003 H   0  0  0  0  0  0  0  0  0  0  0  0
   45.1548   33.8885   47.8392 H   0  0  0  0  0  0  0  0  0  0  0  0
   45.8140   29.6597   49.8822 H   0  0  0  0  0  0  0  0  0  0  0  0
   44.3865   28.8192   49.1179 H   0  0  0  0  0  0  0  0  0  0  0  0
   45.3030   29.8427   43.6001 H   0  0  0  0  0  0  0  0  0  0  0  0
   47.4255   28.9018   42.2155 H   0  0  0  0  0  0  0  0  0  0  0  0
   49.8849   29.6026   43.4819 C   0  0  0  0  0  0  0  0  0  0  0  0
   50.5260   30.3661   42.5155 C   0  0  0  0  0  0  0  0  0  0  0  0
   51.8172   30.0636   42.1692 C   0  0  0  0  0  0  0  0  0  0  0  0
   52.2878   30.6875   41.4048 H   0  0  0  0  0  0  0  0  0  0  0  0
   52.5006   29.0050   42.7672 C   0  0  0  0  0  0  0  0  0  0  0  0
   51.8216   28.2665   43.7298 C   0  0  0  0  0  0  0  0  0  0  0  0
   52.3177   27.4382   44.2157 H   0  0  0  0  0  0  0  0  0  0  0  0
   50.5316   28.5342   44.1057 C   0  0  0  0  0  0  0  0  0  0  0  0
   50.0015   31.1977   42.0400 H   0  0  0  0  0  0  0  0  0  0  0  0
   53.5151   28.7843   42.4804 H   0  0  0  0  0  0  0  0  0  0  0  0
   50.0485   27.9436   44.8471 H   0  0  0  0  0  0  0  0  0  0  0  0
  1  2  1  0
  1  8  1  0
  3  2  2  0
  4  3  1  0
  5  4  1  0
  5  6  1  0
  6  1  1  0
  7 12  2  0
  8  7  1  0
  9  8  2  0
  9 10  1  0
 10 11  2  0
 11 12  1  0
 11 13  1  0
 14 18  2  0
 14  9  1  0
 15 14  1  0
 16 15  2  0
 16 17  1  0
 17 18  1  0
 19 20  1  0
 19  4  1  0
 21 19  1  0
 22 19  1  0
  1 23  1  1
  2 24  1  0
  3 25  1  0
  4 26  1  6
  5 27  1  0
  5 28  1  0
  6 29  1  0
  6 30  1  0
  7 31  1  0
 13 32  1  0
 13 33  1  0
 15 34  1  0
 16 35  1  0
 36 37  2  0
 37 38  1  0
 38 39  1  0
 38 40  2  0
 40 41  1  0
 41 42  1  0
 41 43  2  0
 43 36  1  0
 37 44  1  0
 40 45  1  0
 43 46  1  0
 17 36  1  0
M  ISO  8  23  13  24  13  25  13  26  13  27  13  28  13  29  13  30  13
M  ISO  5  31  14  34  14  35  14  39  16  42  16
M  END
>  <DihAtoms>  (1) 
15,16,35,36

>  <DihDeg>  (1) 
65.86898934779833

$$$$
