
 OpenBabel03232520563D

 35 37  0  0  1  0  0  0  0  0999 V2000
   46.1270   33.5850   45.3020 C   0  0  2  0  0  0  0  0  0  0  0  0
   44.9750   34.6800   45.5140 C   0  0  0  0  0  0  0  0  0  0  0  0
   44.7360   35.6020   44.4360 C   0  0  0  0  0  0  0  0  0  0  0  0
   45.5130   35.5090   43.2110 C   0  0  1  0  0  0  0  0  0  0  0  0
   46.6010   34.5070   43.1800 C   0  0  0  0  0  0  0  0  0  0  0  0
   46.1130   33.2660   43.9220 C   0  0  0  0  0  0  0  0  0  0  0  0
   46.9390   34.3080   45.6260 H   0  0  0  0  0  0  0  0  0  0  0  0
   44.2840   34.9150   46.3190 H   0  0  0  0  0  0  0  0  0  0  0  0
   43.9820   36.3590   44.5100 H   0  0  0  0  0  0  0  0  0  0  0  0
   45.9370   36.5170   42.9890 H   0  0  0  0  0  0  0  0  0  0  0  0
   47.4850   34.8710   43.7440 H   0  0  0  0  0  0  0  0  0  0  0  0
   46.8650   34.2980   42.1400 H   0  0  0  0  0  0  0  0  0  0  0  0
   46.5860   32.4930   43.3930 H   0  0  0  0  0  0  0  0  0  0  0  0
   44.9990   33.1690   43.5910 H   0  0  0  0  0  0  0  0  0  0  0  0
   45.3820   32.9140   47.5680 C   0  0  0  0  0  0  0  0  0  0  0  0
   45.8990   32.6280   46.3370 C   0  0  0  0  0  0  0  0  0  0  0  0
   46.1290   31.2650   46.0890 C   0  0  0  0  0  0  0  0  0  0  0  0
   45.8580   30.3090   46.9940 N   0  0  0  0  0  0  0  0  0  0  0  0
   45.3370   30.6430   48.2260 C   0  0  0  0  0  0  0  0  0  0  0  0
   45.1110   31.9260   48.4890 N   0  0  0  0  0  0  0  0  0  0  0  0
   45.0680   29.6420   49.2000 N   0  0  0  0  0  0  0  0  0  0  0  0
   45.1870   33.9440   47.8180 H   0  0  0  0  0  0  0  0  0  0  0  0
   44.6810   28.7120   48.9590 H   0  0  0  0  0  0  0  0  0  0  0  0
   45.2860   29.9060   50.1790 H   0  0  0  0  0  0  0  0  0  0  0  0
   46.7060   30.5270   44.9730 C   0  0  0  0  0  0  0  0  0  0  0  0
   48.0860   30.4450   44.7040 C   0  0  0  0  0  3  0  0  0  0  0  0
   48.6860   29.7730   43.6670 C   0  0  0  0  0  3  0  0  0  0  0  0
   47.8210   29.1200   42.8160 C   0  0  0  0  0  0  0  0  0  0  0  0
   48.2530   28.5740   41.9790 H   0  0  0  0  0  0  0  0  0  0  0  0
   46.4750   29.1920   43.0680 C   0  0  0  0  0  3  0  0  0  0  0  0
   45.9300   29.8520   44.0820 N   0  0  0  0  0  0  0  0  0  0  0  0
   44.5180   35.2340   42.0560 C   0  0  0  0  0  0  0  0  0  0  0  0
   43.4810   34.4090   42.4290 F   0  0  0  0  0  0  0  0  0  0  0  0
   43.9520   36.4610   41.7240 F   0  0  0  0  0  0  0  0  0  0  0  0
   45.2110   34.7910   40.9380 F   0  0  0  0  0  0  0  0  0  0  0  0
  1  2  1  0  0  0  0
  1  7  1  1  0  0  0
  1 16  1  0  0  0  0
  2  8  1  0  0  0  0
  3  9  1  0  0  0  0
  3  2  2  0  0  0  0
  4 10  1  6  0  0  0
  4  3  1  0  0  0  0
  5  4  1  0  0  0  0
  5 11  1  0  0  0  0
  5  6  1  0  0  0  0
  6  1  1  0  0  0  0
 12  5  1  0  0  0  0
 13  6  1  0  0  0  0
 14  6  1  0  0  0  0
 15 22  1  0  0  0  0
 15 20  1  0  0  0  0
 16 15  2  0  0  0  0
 17 16  1  0  0  0  0
 17 18  2  0  0  0  0
 18 19  1  0  0  0  0
 19 20  2  0  0  0  0
 19 21  1  0  0  0  0
 21 24  1  0  0  0  0
 23 21  1  0  0  0  0
 25 17  1  0  0  0  0
 26 25  1  0  0  0  0
 27 26  2  0  0  0  0
 28 30  2  0  0  0  0
 28 27  1  0  0  0  0
 29 28  1  0  0  0  0
 30 31  1  0  0  0  0
 31 25  2  0  0  0  0
 32 33  1  0  0  0  0
 32  4  1  0  0  0  0
 34 32  1  0  0  0  0
 35 32  1  0  0  0  0
M  END
>  <minimizedAffinity>
-5.68798542

>  <minimizedRMSD>
0.325451851

$$$$
