
 OpenBabel03232520573D

 35 37  0  0  1  0  0  0  0  0999 V2000
   46.1270   33.5850   45.3020 C   0  0  2  0  0  0  0  0  0  0  0  0
   44.9740   34.6800   45.5150 C   0  0  0  0  0  0  0  0  0  0  0  0
   44.7350   35.6020   44.4370 C   0  0  0  0  0  0  0  0  0  0  0  0
   45.5130   35.5100   43.2120 C   0  0  1  0  0  0  0  0  0  0  0  0
   46.6010   34.5080   43.1810 C   0  0  0  0  0  0  0  0  0  0  0  0
   46.1130   33.2660   43.9220 C   0  0  0  0  0  0  0  0  0  0  0  0
   46.9380   34.3080   45.6270 H   0  0  0  0  0  0  0  0  0  0  0  0
   44.2840   34.9150   46.3200 H   0  0  0  0  0  0  0  0  0  0  0  0
   43.9810   36.3600   44.5110 H   0  0  0  0  0  0  0  0  0  0  0  0
   45.9370   36.5180   42.9900 H   0  0  0  0  0  0  0  0  0  0  0  0
   47.4850   34.8720   43.7450 H   0  0  0  0  0  0  0  0  0  0  0  0
   46.8640   34.2990   42.1410 H   0  0  0  0  0  0  0  0  0  0  0  0
   46.5860   32.4940   43.3930 H   0  0  0  0  0  0  0  0  0  0  0  0
   44.9990   33.1700   43.5920 H   0  0  0  0  0  0  0  0  0  0  0  0
   45.3820   32.9140   47.5680 C   0  0  0  0  0  0  0  0  0  0  0  0
   45.8990   32.6280   46.3370 C   0  0  0  0  0  0  0  0  0  0  0  0
   46.1290   31.2650   46.0880 C   0  0  0  0  0  0  0  0  0  0  0  0
   45.8580   30.3080   46.9940 N   0  0  0  0  0  0  0  0  0  0  0  0
   45.3370   30.6420   48.2250 C   0  0  0  0  0  0  0  0  0  0  0  0
   45.1110   31.9250   48.4880 N   0  0  0  0  0  0  0  0  0  0  0  0
   45.0680   29.6410   49.1990 N   0  0  0  0  0  0  0  0  0  0  0  0
   45.1860   33.9440   47.8190 H   0  0  0  0  0  0  0  0  0  0  0  0
   44.6810   28.7110   48.9570 H   0  0  0  0  0  0  0  0  0  0  0  0
   45.2860   29.9050   50.1790 H   0  0  0  0  0  0  0  0  0  0  0  0
   46.7060   30.5280   44.9720 C   0  0  0  0  0  0  0  0  0  0  0  0
   48.0860   30.4460   44.7040 C   0  0  0  0  0  3  0  0  0  0  0  0
   48.6860   29.7740   43.6670 C   0  0  0  0  0  3  0  0  0  0  0  0
   47.8210   29.1220   42.8150 C   0  0  0  0  0  0  0  0  0  0  0  0
   48.2550   28.5760   41.9780 H   0  0  0  0  0  0  0  0  0  0  0  0
   46.4760   29.1940   43.0660 C   0  0  0  0  0  3  0  0  0  0  0  0
   45.9310   29.8540   44.0810 N   0  0  0  0  0  0  0  0  0  0  0  0
   44.5170   35.2350   42.0570 C   0  0  0  0  0  0  0  0  0  0  0  0
   43.4790   34.4130   42.4310 F   0  0  0  0  0  0  0  0  0  0  0  0
   43.9540   36.4630   41.7230 F   0  0  0  0  0  0  0  0  0  0  0  0
   45.2100   34.7890   40.9400 F   0  0  0  0  0  0  0  0  0  0  0  0
  1  2  1  0  0  0  0
  1  7  1  1  0  0  0
  1 16  1  0  0  0  0
  2  8  1  0  0  0  0
  3  9  1  0  0  0  0
  3  2  2  0  0  0  0
  4 10  1  6  0  0  0
  4  3  1  0  0  0  0
  5  4  1  0  0  0  0
  5 11  1  0  0  0  0
  5  6  1  0  0  0  0
  6  1  1  0  0  0  0
 12  5  1  0  0  0  0
 13  6  1  0  0  0  0
 14  6  1  0  0  0  0
 15 22  1  0  0  0  0
 15 20  1  0  0  0  0
 16 15  2  0  0  0  0
 17 16  1  0  0  0  0
 17 18  2  0  0  0  0
 18 19  1  0  0  0  0
 19 20  2  0  0  0  0
 19 21  1  0  0  0  0
 21 24  1  0  0  0  0
 23 21  1  0  0  0  0
 25 17  1  0  0  0  0
 26 25  1  0  0  0  0
 27 26  2  0  0  0  0
 28 30  2  0  0  0  0
 28 27  1  0  0  0  0
 29 28  1  0  0  0  0
 30 31  1  0  0  0  0
 31 25  2  0  0  0  0
 32 33  1  0  0  0  0
 32  4  1  0  0  0  0
 34 32  1  0  0  0  0
 35 32  1  0  0  0  0
M  END
>  <minimizedAffinity>
-5.68725157

>  <minimizedRMSD>
0.292964131

$$$$
