
 OpenBabel03232520573D

 35 37  0  0  1  0  0  0  0  0999 V2000
   46.1290   33.5820   45.3050 C   0  0  2  0  0  0  0  0  0  0  0  0
   44.9760   34.6760   45.5170 C   0  0  0  0  0  0  0  0  0  0  0  0
   44.7370   35.5980   44.4380 C   0  0  0  0  0  0  0  0  0  0  0  0
   45.5160   35.5060   43.2140 C   0  0  1  0  0  0  0  0  0  0  0  0
   46.6040   34.5050   43.1840 C   0  0  0  0  0  0  0  0  0  0  0  0
   46.1160   33.2630   43.9260 C   0  0  0  0  0  0  0  0  0  0  0  0
   46.9400   34.3060   45.6300 H   0  0  0  0  0  0  0  0  0  0  0  0
   44.2840   34.9120   46.3210 H   0  0  0  0  0  0  0  0  0  0  0  0
   43.9830   36.3560   44.5110 H   0  0  0  0  0  0  0  0  0  0  0  0
   45.9390   36.5140   42.9920 H   0  0  0  0  0  0  0  0  0  0  0  0
   47.4880   34.8700   43.7490 H   0  0  0  0  0  0  0  0  0  0  0  0
   46.8690   34.2960   42.1440 H   0  0  0  0  0  0  0  0  0  0  0  0
   46.5910   32.4910   43.3970 H   0  0  0  0  0  0  0  0  0  0  0  0
   45.0030   33.1650   43.5940 H   0  0  0  0  0  0  0  0  0  0  0  0
   45.3840   32.9110   47.5710 C   0  0  0  0  0  0  0  0  0  0  0  0
   45.9000   32.6260   46.3400 C   0  0  0  0  0  0  0  0  0  0  0  0
   46.1300   31.2620   46.0920 C   0  0  0  0  0  0  0  0  0  0  0  0
   45.8580   30.3060   46.9970 N   0  0  0  0  0  0  0  0  0  0  0  0
   45.3370   30.6400   48.2290 C   0  0  0  0  0  0  0  0  0  0  0  0
   45.1120   31.9230   48.4920 N   0  0  0  0  0  0  0  0  0  0  0  0
   45.0690   29.6390   49.2030 N   0  0  0  0  0  0  0  0  0  0  0  0
   45.1890   33.9420   47.8220 H   0  0  0  0  0  0  0  0  0  0  0  0
   44.6810   28.7090   48.9610 H   0  0  0  0  0  0  0  0  0  0  0  0
   45.2860   29.9030   50.1820 H   0  0  0  0  0  0  0  0  0  0  0  0
   46.7070   30.5250   44.9760 C   0  0  0  0  0  0  0  0  0  0  0  0
   48.0870   30.4420   44.7070 C   0  0  0  0  0  3  0  0  0  0  0  0
   48.6870   29.7710   43.6700 C   0  0  0  0  0  3  0  0  0  0  0  0
   47.8220   29.1180   42.8190 C   0  0  0  0  0  0  0  0  0  0  0  0
   48.2540   28.5720   41.9820 H   0  0  0  0  0  0  0  0  0  0  0  0
   46.4760   29.1900   43.0700 C   0  0  0  0  0  3  0  0  0  0  0  0
   45.9310   29.8510   44.0850 N   0  0  0  0  0  0  0  0  0  0  0  0
   44.5210   35.2300   42.0580 C   0  0  0  0  0  0  0  0  0  0  0  0
   43.4870   34.4020   42.4290 F   0  0  0  0  0  0  0  0  0  0  0  0
   43.9530   36.4570   41.7270 F   0  0  0  0  0  0  0  0  0  0  0  0
   45.2160   34.7900   40.9400 F   0  0  0  0  0  0  0  0  0  0  0  0
  1  2  1  0  0  0  0
  1  7  1  1  0  0  0
  1 16  1  0  0  0  0
  2  8  1  0  0  0  0
  3  9  1  0  0  0  0
  3  2  2  0  0  0  0
  4 10  1  6  0  0  0
  4  3  1  0  0  0  0
  5  4  1  0  0  0  0
  5 11  1  0  0  0  0
  5  6  1  0  0  0  0
  6  1  1  0  0  0  0
 12  5  1  0  0  0  0
 13  6  1  0  0  0  0
 14  6  1  0  0  0  0
 15 22  1  0  0  0  0
 15 20  1  0  0  0  0
 16 15  2  0  0  0  0
 17 16  1  0  0  0  0
 17 18  2  0  0  0  0
 18 19  1  0  0  0  0
 19 20  2  0  0  0  0
 19 21  1  0  0  0  0
 21 24  1  0  0  0  0
 23 21  1  0  0  0  0
 25 17  1  0  0  0  0
 26 25  1  0  0  0  0
 27 26  2  0  0  0  0
 28 30  2  0  0  0  0
 28 27  1  0  0  0  0
 29 28  1  0  0  0  0
 30 31  1  0  0  0  0
 31 25  2  0  0  0  0
 32 33  1  0  0  0  0
 32  4  1  0  0  0  0
 34 32  1  0  0  0  0
 35 32  1  0  0  0  0
M  END
>  <minimizedAffinity>
-5.69211006

>  <minimizedRMSD>
0.500581622

$$$$
