
 OpenBabel03232520573D

 34 36  0  0  1  0  0  0  0  0999 V2000
   45.8160   33.6290   44.7760 C   0  0  2  0  0  0  0  0  0  0  0  0
   44.9870   34.9380   45.1310 C   0  0  0  0  0  0  0  0  0  0  0  0
   44.5630   35.7670   44.0300 C   0  0  0  0  0  0  0  0  0  0  0  0
   44.8790   35.3940   42.6610 C   0  0  1  0  0  0  0  0  0  0  0  0
   45.7240   34.1830   42.4690 C   0  0  0  0  0  0  0  0  0  0  0  0
   45.3150   33.1670   43.5230 C   0  0  0  0  0  0  0  0  0  0  0  0
   46.8090   34.1660   44.7140 H   0  0  0  0  0  0  0  0  0  0  0  0
   44.6330   35.4010   46.0520 H   0  0  0  0  0  0  0  0  0  0  0  0
   44.0060   36.6600   44.1880 H   0  0  0  0  0  0  0  0  0  0  0  0
   45.3670   36.2430   42.1240 H   0  0  0  0  0  0  0  0  0  0  0  0
   45.4800   33.7490   41.4800 H   0  0  0  0  0  0  0  0  0  0  0  0
   46.8110   34.3710   42.5560 H   0  0  0  0  0  0  0  0  0  0  0  0
   44.1610   33.3070   43.5560 H   0  0  0  0  0  0  0  0  0  0  0  0
   45.4280   32.2320   43.0590 H   0  0  0  0  0  0  0  0  0  0  0  0
   45.3500   33.2610   47.1800 C   0  0  0  0  0  0  0  0  0  0  0  0
   45.7820   32.8210   45.9580 C   0  0  0  0  0  0  0  0  0  0  0  0
   46.1300   31.4810   45.8990 C   0  0  0  0  0  0  0  0  0  0  0  0
   46.0460   30.6730   46.9630 N   0  0  0  0  0  0  0  0  0  0  0  0
   45.6090   31.1470   48.1780 C   0  0  0  0  0  0  0  0  0  0  0  0
   45.2690   32.4280   48.2680 N   0  0  0  0  0  0  0  0  0  0  0  0
   45.5690   30.2860   49.3190 N   0  0  0  0  0  0  0  0  0  0  0  0
   45.0620   34.2660   47.3380 H   0  0  0  0  0  0  0  0  0  0  0  0
   46.2310   29.4990   49.4290 H   0  0  0  0  0  0  0  0  0  0  0  0
   44.8320   30.5050   50.0300 H   0  0  0  0  0  0  0  0  0  0  0  0
   46.6890   30.6760   44.8190 C   0  0  0  0  0  0  0  0  0  0  0  0
   48.0030   30.7880   44.2900 C   0  0  0  0  0  3  0  0  0  0  0  0
   47.9510   29.5700   42.9070 S   0  0  0  0  0  0  0  0  0  0  0  0
   46.1460   29.1320   43.3010 C   0  0  0  0  0  0  0  0  0  0  0  0
   45.5330   28.3660   42.7220 H   0  0  0  0  0  0  0  0  0  0  0  0
   45.9050   29.7910   44.1870 N   0  0  0  0  0  0  0  0  0  0  0  0
   43.5340   35.1910   41.9170 C   0  0  0  0  0  0  0  0  0  0  0  0
   42.4400   35.5330   42.6790 F   0  0  0  0  0  0  0  0  0  0  0  0
   43.5580   36.0680   40.8360 F   0  0  0  0  0  0  0  0  0  0  0  0
   43.4640   33.9150   41.3960 F   0  0  0  0  0  0  0  0  0  0  0  0
  1  7  1  6  0  0  0
  1  2  1  0  0  0  0
  1 16  1  0  0  0  0
  2  8  1  0  0  0  0
  3  9  1  0  0  0  0
  3  2  2  0  0  0  0
  4 10  1  6  0  0  0
  4  3  1  0  0  0  0
  5 12  1  0  0  0  0
  5  4  1  0  0  0  0
  5  6  1  0  0  0  0
  6 13  1  0  0  0  0
  6  1  1  0  0  0  0
 11  5  1  0  0  0  0
 14  6  1  0  0  0  0
 15 22  1  0  0  0  0
 15 20  1  0  0  0  0
 16 15  2  0  0  0  0
 17 16  1  0  0  0  0
 17 18  2  0  0  0  0
 18 19  1  0  0  0  0
 19 20  2  0  0  0  0
 19 21  1  0  0  0  0
 21 23  1  0  0  0  0
 21 24  1  0  0  0  0
 25 17  1  0  0  0  0
 26 25  2  0  0  0  0
 27 28  1  0  0  0  0
 27 26  1  0  0  0  0
 28 30  2  0  0  0  0
 29 28  1  0  0  0  0
 30 25  1  0  0  0  0
 31  4  1  0  0  0  0
 31 32  1  0  0  0  0
 33 31  1  0  0  0  0
 34 31  1  0  0  0  0
M  END
>  <minimizedAffinity>
-5.14368153

>  <minimizedRMSD>
1.01167369

$$$$
