
 OpenBabel03232520253D

 32 35  0  0  0  0  0  0  0  0999 V2000
   46.9250   34.4820   41.2660 C   0  0  0  0  0  0  0  0  0  0  0  0
   48.1970   34.9020   40.9130 C   0  0  0  0  0  0  0  0  0  0  0  0
   48.4410   34.6000   39.6450 N   0  0  0  0  0  0  0  0  0  0  0  0
   47.3450   33.9870   39.1610 C   0  0  0  0  0  0  0  0  0  0  0  0
   47.0770   33.4700   37.8940 C   0  0  0  0  0  0  0  0  0  0  0  0
   45.8630   32.8900   37.6640 C   0  0  0  0  0  0  0  0  0  0  0  0
   44.8570   32.7690   38.6060 C   0  0  0  0  0  0  0  0  0  0  0  0
   45.1700   33.2950   39.8450 C   0  0  0  0  0  0  0  0  0  0  0  0
   46.3660   33.8940   40.1530 C   0  0  0  0  0  0  0  0  0  0  0  0
   49.3290   34.8000   39.1080 H   0  0  0  0  0  0  0  0  0  0  0  0
   47.8090   33.5190   37.0830 H   0  0  0  0  0  0  0  0  0  0  0  0
   45.6570   32.4880   36.6720 H   0  0  0  0  0  0  0  0  0  0  0  0
   43.9000   32.3160   38.4410 H   0  0  0  0  0  0  0  0  0  0  0  0
   44.4590   33.2560   40.6570 H   0  0  0  0  0  0  0  0  0  0  0  0
   44.8050   35.8420   44.0240 C   0  0  0  0  0  0  0  0  0  0  0  0
   45.4290   35.7230   42.7660 C   0  0  0  0  0  0  0  0  0  0  0  0
   46.2670   34.6220   42.5680 C   0  0  0  0  0  0  0  0  0  0  0  0
   46.4550   33.7080   43.5790 N   0  0  0  0  0  0  0  0  0  0  0  0
   45.8190   33.8870   44.7670 C   0  0  0  0  0  0  0  0  0  0  0  0
   45.0050   34.9310   45.0010 N   0  0  0  0  0  0  0  0  0  0  0  0
   44.1570   36.6620   44.2250 H   0  0  0  0  0  0  0  0  0  0  0  0
   45.2520   36.4630   42.0040 H   0  0  0  0  0  0  0  0  0  0  0  0
   45.9930   33.1550   45.5230 H   0  0  0  0  0  0  0  0  0  0  0  0
   49.1240   35.5860   41.8430 C   0  0  0  0  0  0  0  0  0  0  0  0
   48.5890   36.2240   42.5540 H   0  0  0  0  0  0  0  0  0  0  0  0
   49.7750   36.2700   41.2440 H   0  0  0  0  0  0  0  0  0  0  0  0
   49.9420   34.6050   42.6320 C   0  0  0  0  0  0  0  0  0  0  0  0
   50.8470   35.1410   42.9750 H   0  0  0  0  0  0  0  0  0  0  0  0
   49.3660   34.3780   43.5540 H   0  0  0  0  0  0  0  0  0  0  0  0
   50.2520   33.3310   41.9060 C   0  0  0  0  0  0  0  0  0  0  0  0
   51.0540   32.2550   42.4770 C   0  0  0  0  0  0  0  0  0  0  0  0
   49.5820   32.0880   42.5580 C   0  0  0  0  0  0  0  0  0  0  0  0
  1 17  1  0  0  0  0
  2  1  2  0  0  0  0
  2 24  1  0  0  0  0
  3  2  1  0  0  0  0
  4  3  1  0  0  0  0
  4  9  1  0  0  0  0
  5  4  2  0  0  0  0
  6  5  1  0  0  0  0
  6  7  2  0  0  0  0
  7  8  1  0  0  0  0
  8  9  2  0  0  0  0
  8 14  1  0  0  0  0
  9  1  1  0  0  0  0
 10  3  1  0  0  0  0
 11  5  1  0  0  0  0
 12  6  1  0  0  0  0
 13  7  1  0  0  0  0
 15 21  1  0  0  0  0
 15 20  1  0  0  0  0
 16 15  2  0  0  0  0
 17 16  1  0  0  0  0
 17 18  2  0  0  0  0
 18 19  1  0  0  0  0
 19 20  2  0  0  0  0
 19 23  1  0  0  0  0
 22 16  1  0  0  0  0
 24 25  1  0  0  0  0
 24 27  1  0  0  0  0
 26 24  1  0  0  0  0
 27 28  1  0  0  0  0
 27 29  1  0  0  0  0
 30 31  1  0  0  0  0
 30 32  1  0  0  0  0
 30 27  1  0  0  0  0
 31 32  1  0  0  0  0
M  END
>  <minimizedAffinity>
-5.60062313

>  <minimizedRMSD>
0.554586768

$$$$
