
 OpenBabel03232520563D

 34 36  0  0  1  0  0  0  0  0999 V2000
   46.0850   33.6010   45.2620 C   0  0  2  0  0  0  0  0  0  0  0  0
   44.9780   34.7190   45.4920 C   0  0  0  0  0  0  0  0  0  0  0  0
   44.7430   35.6440   44.4110 C   0  0  0  0  0  0  0  0  0  0  0  0
   45.4870   35.5300   43.1680 C   0  0  1  0  0  0  0  0  0  0  0  0
   46.5470   34.4860   43.1080 C   0  0  0  0  0  0  0  0  0  0  0  0
   46.0400   33.2750   43.8740 C   0  0  0  0  0  0  0  0  0  0  0  0
   46.9480   34.2680   45.5580 H   0  0  0  0  0  0  0  0  0  0  0  0
   44.3070   34.9840   46.3090 H   0  0  0  0  0  0  0  0  0  0  0  0
   44.0190   36.4200   44.4900 H   0  0  0  0  0  0  0  0  0  0  0  0
   45.9520   36.5090   42.8970 H   0  0  0  0  0  0  0  0  0  0  0  0
   46.6660   34.1800   42.0500 H   0  0  0  0  0  0  0  0  0  0  0  0
   47.5170   34.8000   43.5360 H   0  0  0  0  0  0  0  0  0  0  0  0
   44.9170   33.2540   43.5750 H   0  0  0  0  0  0  0  0  0  0  0  0
   46.4370   32.4450   43.3670 H   0  0  0  0  0  0  0  0  0  0  0  0
   45.3390   32.9050   47.5180 C   0  0  0  0  0  0  0  0  0  0  0  0
   45.8610   32.6240   46.2850 C   0  0  0  0  0  0  0  0  0  0  0  0
   46.1050   31.2820   46.0350 C   0  0  0  0  0  0  0  0  0  0  0  0
   45.8440   30.3290   46.9370 N   0  0  0  0  0  0  0  0  0  0  0  0
   45.3210   30.6450   48.1700 C   0  0  0  0  0  0  0  0  0  0  0  0
   45.0770   31.9230   48.4400 N   0  0  0  0  0  0  0  0  0  0  0  0
   45.0920   29.6220   49.1430 N   0  0  0  0  0  0  0  0  0  0  0  0
   45.1180   33.8960   47.8150 H   0  0  0  0  0  0  0  0  0  0  0  0
   45.6720   28.7680   49.1800 H   0  0  0  0  0  0  0  0  0  0  0  0
   44.3030   29.7970   49.8100 H   0  0  0  0  0  0  0  0  0  0  0  0
   46.7080   30.6070   44.8910 C   0  0  0  0  0  0  0  0  0  0  0  0
   48.0970   30.5420   44.6010 C   0  0  0  0  0  3  0  0  0  0  0  0
   48.0940   29.6620   42.9790 S   0  0  0  0  0  0  0  0  0  0  0  0
   46.1980   29.5440   42.9950 C   0  0  0  0  0  0  0  0  0  0  0  0
   45.5810   29.0560   42.1720 H   0  0  0  0  0  0  0  0  0  0  0  0
   45.9140   30.0520   43.9640 N   0  0  0  0  0  0  0  0  0  0  0  0
   44.4580   35.2680   42.0370 C   0  0  0  0  0  0  0  0  0  0  0  0
   43.4080   34.4740   42.4390 F   0  0  0  0  0  0  0  0  0  0  0  0
   43.9190   36.5110   41.7140 F   0  0  0  0  0  0  0  0  0  0  0  0
   45.0990   34.8030   40.9070 F   0  0  0  0  0  0  0  0  0  0  0  0
  1  2  1  0  0  0  0
  1  7  1  1  0  0  0
  1 16  1  0  0  0  0
  2  8  1  0  0  0  0
  3  9  1  0  0  0  0
  3  2  2  0  0  0  0
  4 10  1  6  0  0  0
  4  3  1  0  0  0  0
  5  4  1  0  0  0  0
  5 12  1  0  0  0  0
  5  6  1  0  0  0  0
  6  1  1  0  0  0  0
 11  5  1  0  0  0  0
 13  6  1  0  0  0  0
 14  6  1  0  0  0  0
 15 22  1  0  0  0  0
 15 20  1  0  0  0  0
 16 15  2  0  0  0  0
 17 16  1  0  0  0  0
 17 18  2  0  0  0  0
 18 19  1  0  0  0  0
 19 20  2  0  0  0  0
 19 21  1  0  0  0  0
 21 23  1  0  0  0  0
 21 24  1  0  0  0  0
 25 17  1  0  0  0  0
 26 25  2  0  0  0  0
 27 28  1  0  0  0  0
 27 26  1  0  0  0  0
 28 30  2  0  0  0  0
 29 28  1  0  0  0  0
 30 25  1  0  0  0  0
 31 32  1  0  0  0  0
 31  4  1  0  0  0  0
 33 31  1  0  0  0  0
 34 31  1  0  0  0  0
M  END
>  <minimizedAffinity>
-5.52088165

>  <minimizedRMSD>
0.259669572

$$$$
