
 OpenBabel03232520533D

 32 34  0  0  1  0  0  0  0  0999 V2000
   46.8080   32.9160   44.9150 C   0  0  2  0  0  0  0  0  0  0  0  0
   45.5760   33.6380   45.3980 C   0  0  0  0  0  0  0  0  0  0  0  0
   45.1310   34.7600   44.6180 C   0  0  0  0  0  0  0  0  0  0  0  0
   45.8380   35.1760   43.4160 C   0  0  1  0  0  0  0  0  0  0  0  0
   47.0900   34.4550   43.0880 C   0  0  0  0  0  0  0  0  0  0  0  0
   46.9450   33.0020   43.4360 C   0  0  0  0  0  0  0  0  0  0  0  0
   47.6500   33.5050   45.3740 H   0  0  0  0  0  0  0  0  0  0  0  0
   44.8860   33.5380   46.2250 H   0  0  0  0  0  0  0  0  0  0  0  0
   44.2800   35.3370   44.8650 H   0  0  0  0  0  0  0  0  0  0  0  0
   46.0780   36.2600   43.5160 H   0  0  0  0  0  0  0  0  0  0  0  0
   47.9300   34.8420   43.7250 H   0  0  0  0  0  0  0  0  0  0  0  0
   47.3440   34.6250   42.0230 H   0  0  0  0  0  0  0  0  0  0  0  0
   47.9030   32.5130   43.1620 H   0  0  0  0  0  0  0  0  0  0  0  0
   46.1620   32.4960   42.8690 H   0  0  0  0  0  0  0  0  0  0  0  0
   46.0520   31.2750   46.5650 C   0  0  0  0  0  0  0  0  0  0  0  0
   46.8590   31.5810   45.4870 C   0  0  0  0  0  0  0  0  0  0  0  0
   47.7040   30.5700   45.0110 C   0  0  0  0  0  0  0  0  0  0  0  0
   47.7060   29.3620   45.5990 N   0  0  0  0  0  0  0  0  0  0  0  0
   46.9010   29.0770   46.6650 C   0  0  0  0  0  0  0  0  0  0  0  0
   46.0740   30.0410   47.1430 N   0  0  0  0  0  0  0  0  0  0  0  0
   45.3490   31.9370   47.0500 H   0  0  0  0  0  0  0  0  0  0  0  0
   48.3450   30.7540   44.1830 H   0  0  0  0  0  0  0  0  0  0  0  0
   46.8910   27.7700   47.3160 C   0  0  0  0  0  0  0  0  0  0  0  0
   45.6600   26.9290   47.6690 C   0  0  0  0  0  0  0  0  0  0  0  0
   46.4510   25.5070   48.4210 S   0  0  0  0  0  0  0  0  0  0  0  0
   48.2080   26.1840   48.1780 C   0  0  0  0  0  0  0  0  0  0  0  0
   49.0320   25.5720   48.5270 H   0  0  0  0  0  0  0  0  0  0  0  0
   48.0570   27.2490   47.6390 N   0  0  0  0  0  0  0  0  0  0  0  0
   44.8610   35.0900   42.2350 C   0  0  0  0  0  0  0  0  0  0  0  0
   43.8400   34.1890   42.4540 F   0  0  0  0  0  0  0  0  0  0  0  0
   44.2470   36.3410   42.1080 F   0  0  0  0  0  0  0  0  0  0  0  0
   45.5430   34.8410   41.0650 F   0  0  0  0  0  0  0  0  0  0  0  0
  1  7  1  1  0  0  0
  1  2  1  0  0  0  0
  1 16  1  0  0  0  0
  2  8  1  0  0  0  0
  3  9  1  0  0  0  0
  3  2  2  0  0  0  0
  4 10  1  1  0  0  0
  4  3  1  0  0  0  0
  5  4  1  0  0  0  0
  5  6  1  0  0  0  0
  5 11  1  0  0  0  0
  6  1  1  0  0  0  0
 12  5  1  0  0  0  0
 13  6  1  0  0  0  0
 14  6  1  0  0  0  0
 15 21  1  0  0  0  0
 15 20  1  0  0  0  0
 16 15  2  0  0  0  0
 17 16  1  0  0  0  0
 17 18  2  0  0  0  0
 18 19  1  0  0  0  0
 19 20  2  0  0  0  0
 19 23  1  0  0  0  0
 22 17  1  0  0  0  0
 23 28  1  0  0  0  0
 23 24  2  0  0  0  0
 24 25  1  0  0  0  0
 26 25  1  0  0  0  0
 26 27  1  0  0  0  0
 28 26  2  0  0  0  0
 29 30  1  0  0  0  0
 29  4  1  0  0  0  0
 31 29  1  0  0  0  0
 32 29  1  0  0  0  0
M  END
>  <minimizedAffinity>
-4.68817425

>  <minimizedRMSD>
2.23356438

$$$$
