REMARK  Name = 
REMARK  3 active torsions:
REMARK  status: ('A' for Active; 'I' for Inactive)
REMARK    1  A    between atoms: C_1  and  C_8
REMARK    2  A    between atoms: C_4  and  C_14
REMARK    3  A    between atoms: C_9  and  C_29
REMARK                            x       y       z     vdW  Elec       q    Type
REMARK                         _______ _______ _______ _____ _____    ______ ____
ROOT
ATOM      1  C   UNL     1      46.133  33.650  45.317  0.00  0.00    +0.000 C 
ATOM      2  C   UNL     1      44.938  34.686  45.476  0.00  0.00    +0.000 C 
ATOM      3  C   UNL     1      44.699  35.588  44.376  0.00  0.00    +0.000 C 
ATOM      4  C   UNL     1      45.519  35.524  43.178  0.00  0.00    +0.000 C 
ATOM      5  C   UNL     1      46.653  34.558  43.186  0.00  0.00    +0.000 C 
ATOM      6  C   UNL     1      46.191  33.317  43.931  0.00  0.00    +0.000 C 
ATOM      7  H   UNL     1      46.928  34.378  45.657  0.00  0.00    +0.000 HD
ATOM      8  H   UNL     1      44.204  34.905  46.251  0.00  0.00    +0.000 HD
ATOM      9  H   UNL     1      43.918  36.310  44.408  0.00  0.00    +0.000 HD
ATOM     10  H   UNL     1      45.928  36.532  42.926  0.00  0.00    +0.000 HD
ATOM     11  H   UNL     1      46.854  34.258  42.139  0.00  0.00    +0.000 HD
ATOM     12  H   UNL     1      47.572  34.943  43.666  0.00  0.00    +0.000 HD
ATOM     13  H   UNL     1      45.091  33.214  43.569  0.00  0.00    +0.000 HD
ATOM     14  H   UNL     1      46.675  32.516  43.454  0.00  0.00    +0.000 HD
ENDROOT
BRANCH   1  16
ATOM     15  C   UNL     1      45.304  32.908  47.529  0.00  0.00    +0.000 A 
ATOM     16  C   UNL     1      45.922  32.663  46.333  0.00  0.00    +0.000 A 
ATOM     17  C   UNL     1      46.283  31.343  46.111  0.00  0.00    +0.000 A 
ATOM     18  N   UNL     1      46.041  30.376  47.004  0.00  0.00    +0.000 NA
ATOM     19  C   UNL     1      45.419  30.656  48.199  0.00  0.00    +0.000 A 
ATOM     20  N   UNL     1      45.061  31.912  48.442  0.00  0.00    +0.000 NA
ATOM     21  N   UNL     1      45.209  29.623  49.165  0.00  0.00    +0.000 N 
ATOM     22  H   UNL     1      44.989  33.880  47.803  0.00  0.00    +0.000 HD
ATOM     23  H   UNL     1      45.850  28.816  49.246  0.00  0.00    +0.000 HD
ATOM     24  H   UNL     1      44.369  29.739  49.781  0.00  0.00    +0.000 HD
BRANCH  17  25
ATOM     25  C   UNL     1      47.007  30.712  45.013  0.00  0.00    +0.000 A 
ATOM     26  C   UNL     1      46.691  29.460  44.418  0.00  0.00    +0.000 A 
ATOM     27  S   UNL     1      48.077  29.263  43.217  0.00  0.00    +0.000 S 
ATOM     28  C   UNL     1      48.833  30.923  43.747  0.00  0.00    +0.000 A 
ATOM     29  H   UNL     1      49.787  31.361  43.305  0.00  0.00    +0.000 HD
ATOM     30  N   UNL     1      48.120  31.292  44.543  0.00  0.00    +0.000 NA
ENDBRANCH  17  25
ENDBRANCH   1  16
BRANCH   4  31
ATOM     31  C   UNL     1      44.578  35.184  41.993  0.00  0.00    +0.000 C 
ATOM     32  F   UNL     1      43.584  34.296  42.333  0.00  0.00    +0.000 F 
ATOM     33  F   UNL     1      43.948  36.378  41.650  0.00  0.00    +0.000 F 
ATOM     34  F   UNL     1      45.316  34.791  40.895  0.00  0.00    +0.000 F 
ENDBRANCH   4  31
TORSDOF 3
