
 OpenBabel03232520463D

 38 41  0  0  0  0  0  0  0  0999 V2000
   46.4200   34.6840   42.1700 C   0  0  0  0  0  0  0  0  0  0  0  0
   47.7310   35.0390   42.0290 C   0  0  0  0  0  0  0  0  0  0  0  0
   48.4380   34.8250   40.8490 C   0  0  0  0  0  0  0  0  0  0  0  0
   47.7910   34.2210   39.7550 C   0  0  0  0  0  0  0  0  0  0  0  0
   46.4750   33.8650   39.8960 C   0  0  0  0  0  0  0  0  0  0  0  0
   45.8110   34.1000   41.0980 C   0  0  0  0  0  0  0  0  0  0  0  0
   48.2480   35.5050   42.8600 H   0  0  0  0  0  0  0  0  0  0  0  0
   49.4740   35.1380   40.8270 H   0  0  0  0  0  0  0  0  0  0  0  0
   48.3890   34.0880   38.8870 H   0  0  0  0  0  0  0  0  0  0  0  0
   45.9820   33.4040   39.0590 H   0  0  0  0  0  0  0  0  0  0  0  0
   44.4480   33.7140   41.1970 N   0  0  0  0  0  0  0  0  0  0  0  0
   43.6260   34.6530   40.6270 C   0  0  0  0  0  0  0  0  0  0  0  0
   42.2480   34.4780   40.6130 C   0  0  0  0  0  0  0  0  0  0  0  0
   41.7410   33.3230   41.1930 C   0  0  0  0  0  0  0  0  0  0  0  0
   40.5030   33.1020   41.2140 O   0  0  0  0  0  0  0  0  0  0  0  0
   42.5840   32.4320   41.7380 N   0  0  0  0  0  0  0  0  0  0  0  0
   43.9100   32.6130   41.7450 C   0  0  0  0  0  0  0  0  0  0  0  0
   44.7610   31.8380   42.2300 O   0  0  0  0  0  0  0  0  0  0  0  0
   43.9470   35.5630   40.1630 H   0  0  0  0  0  0  0  0  0  0  0  0
   42.2420   31.5380   42.1910 H   0  0  0  0  0  0  0  0  0  0  0  0
   41.3270   35.4760   40.0030 C   0  0  0  0  0  0  0  0  0  0  0  0
   40.3360   35.0360   39.9310 H   0  0  0  0  0  0  0  0  0  0  0  0
   41.6760   35.7920   38.9980 H   0  0  0  0  0  0  0  0  0  0  0  0
   41.2770   36.3340   40.7100 H   0  0  0  0  0  0  0  0  0  0  0  0
   44.3820   36.1830   44.9550 C   0  0  0  0  0  0  0  0  0  0  0  0
   44.9540   36.0470   43.6890 C   0  0  0  0  0  0  0  0  0  0  0  0
   45.7640   34.9480   43.4380 C   0  0  0  0  0  0  0  0  0  0  0  0
   45.9510   34.0750   44.4350 N   0  0  0  0  0  0  0  0  0  0  0  0
   45.3870   34.2200   45.6610 C   0  0  0  0  0  0  0  0  0  0  0  0
   44.5990   35.2880   45.9090 N   0  0  0  0  0  0  0  0  0  0  0  0
   43.7490   37.0540   45.1300 H   0  0  0  0  0  0  0  0  0  0  0  0
   44.8000   36.7540   42.8900 H   0  0  0  0  0  0  0  0  0  0  0  0
   45.6830   33.1870   46.6480 C   0  0  0  0  0  0  0  0  0  0  0  0
   46.8140   32.4210   46.4800 C   0  0  0  0  0  3  0  0  0  0  0  0
   46.8650   31.5190   47.5440 C   0  0  0  0  0  3  0  0  0  0  0  0
   45.7310   31.8080   48.3030 C   0  0  0  0  0  0  0  0  0  0  0  0
   45.3690   31.3480   49.2280 H   0  0  0  0  0  0  0  0  0  0  0  0
   45.0600   32.8010   47.7370 O   0  0  0  0  0  0  0  0  0  0  0  0
  1 27  1  0  0  0  0
  2  1  1  0  0  0  0
  2  7  1  0  0  0  0
  3  2  2  0  0  0  0
  4  5  2  0  0  0  0
  4  3  1  0  0  0  0
  5  6  1  0  0  0  0
  6 11  1  0  0  0  0
  6  1  2  0  0  0  0
  8  3  1  0  0  0  0
  9  4  1  0  0  0  0
 10  5  1  0  0  0  0
 11 17  1  0  0  0  0
 12 11  1  0  0  0  0
 13 12  2  0  0  0  0
 13 14  1  0  0  0  0
 14 15  2  0  0  0  0
 14 16  1  0  0  0  0
 16 17  1  0  0  0  0
 16 20  1  0  0  0  0
 17 18  2  0  0  0  0
 19 12  1  0  0  0  0
 21 13  1  0  0  0  0
 21 24  1  0  0  0  0
 22 21  1  0  0  0  0
 23 21  1  0  0  0  0
 25 31  1  0  0  0  0
 25 30  1  0  0  0  0
 26 25  2  0  0  0  0
 27 26  1  0  0  0  0
 27 28  2  0  0  0  0
 28 29  1  0  0  0  0
 29 30  2  0  0  0  0
 29 33  1  0  0  0  0
 32 26  1  0  0  0  0
 33 38  1  0  0  0  0
 34 33  2  0  0  0  0
 34 35  1  0  0  0  0
 35 36  2  0  0  0  0
 36 37  1  0  0  0  0
 38 36  1  0  0  0  0
M  END
>  <minimizedAffinity>
-7.47127867

>  <minimizedRMSD>
0.104398116

$$$$
