
 OpenBabel03232514273D

 32 35  0  0  0  0  0  0  0  0999 V2000
   44.3300   35.6190   44.6070 C   0  0  0  0  0  0  0  0  0  0  0  0
   44.9750   35.3710   43.3880 C   0  0  0  0  0  0  0  0  0  0  0  0
   46.0050   34.4310   43.3840 C   0  0  0  0  0  0  0  0  0  0  0  0
   46.3160   33.8190   44.5580 N   0  0  0  0  0  0  0  0  0  0  0  0
   45.6870   34.0700   45.7120 C   0  0  0  0  0  0  0  0  0  0  0  0
   44.6950   34.9680   45.7380 N   0  0  0  0  0  0  0  0  0  0  0  0
   43.5350   36.3530   44.5740 H   0  0  0  0  0  0  0  0  0  0  0  0
   45.9970   33.5370   46.5990 H   0  0  0  0  0  0  0  0  0  0  0  0
   44.5900   36.0730   42.1450 C   0  0  0  0  0  0  0  0  0  0  0  0
   45.4230   36.1780   41.4520 H   0  0  0  0  0  0  0  0  0  0  0  0
   44.3250   37.1120   42.4620 H   0  0  0  0  0  0  0  0  0  0  0  0
   43.4000   35.3890   41.4930 C   0  0  0  0  0  0  0  0  0  0  0  0
   43.5690   34.5840   40.3970 C   0  0  0  0  0  0  0  0  0  0  0  0
   41.8760   34.0270   40.0160 S   0  0  0  0  0  0  0  0  0  0  0  0
   41.2030   35.0490   41.5010 C   0  0  0  0  0  0  0  0  0  0  0  0
   42.1650   35.5010   41.8960 N   0  0  0  0  0  0  0  0  0  0  0  0
   44.5090   34.3360   39.8760 H   0  0  0  0  0  0  0  0  0  0  0  0
   40.1480   35.1720   41.8840 H   0  0  0  0  0  0  0  0  0  0  0  0
   46.8900   34.0330   41.9210 S   0  0  0  0  0  0  0  0  0  0  0  0
   48.5060   33.7080   42.0220 C   0  0  0  0  0  0  0  0  0  0  0  0
   49.7240   34.0740   42.5760 C   0  0  0  0  0  0  0  0  0  0  0  0
   50.9120   33.4760   42.3540 C   0  0  0  0  0  0  0  0  0  0  0  0
   50.8850   32.3710   41.4640 C   0  0  0  0  0  0  0  0  0  0  0  0
   49.0850   32.2570   40.9870 S   0  0  0  0  0  0  0  0  0  0  0  0
   49.5090   34.9230   43.2080 H   0  0  0  0  0  0  0  0  0  0  0  0
   51.7940   33.8180   42.8170 H   0  0  0  0  0  0  0  0  0  0  0  0
   51.8930   31.4990   40.9840 C   0  0  0  0  0  0  0  0  0  0  0  0
   52.1230   30.3140   41.5870 C   0  0  0  0  0  0  0  0  0  0  0  0
   53.1660   29.6920   40.8860 C   0  0  0  0  0  0  0  0  0  0  0  0
   53.4950   30.5940   39.8660 C   0  0  0  0  0  0  0  0  0  0  0  0
   54.2710   30.4180   39.1350 H   0  0  0  0  0  0  0  0  0  0  0  0
   52.7120   31.6430   39.9720 O   0  0  0  0  0  0  0  0  0  0  0  0
  1  6  1  0  0  0  0
  2  1  2  0  0  0  0
  3  2  1  0  0  0  0
  3  4  2  0  0  0  0
  4  5  1  0  0  0  0
  5  6  2  0  0  0  0
  5  8  1  0  0  0  0
  7  1  1  0  0  0  0
  9 11  1  0  0  0  0
  9  2  1  0  0  0  0
 10  9  1  0  0  0  0
 12 16  1  0  0  0  0
 12  9  1  0  0  0  0
 13 12  2  0  0  0  0
 14 13  1  0  0  0  0
 14 15  1  0  0  0  0
 15 18  1  0  0  0  0
 15 16  2  0  0  0  0
 17 13  1  0  0  0  0
 19 20  1  0  0  0  0
 19  3  1  0  0  0  0
 20 21  2  0  0  0  0
 21 25  1  0  0  0  0
 22 21  1  0  0  0  0
 22 26  1  0  0  0  0
 23 22  2  0  0  0  0
 24 23  1  0  0  0  0
 24 20  1  0  0  0  0
 27 23  1  0  0  0  0
 27 28  2  0  0  0  0
 29 28  1  0  0  0  0
 30 32  1  0  0  0  0
 30 29  2  0  0  0  0
 31 30  1  0  0  0  0
 32 27  1  0  0  0  0
M  END
>  <minimizedAffinity>
-5.2920661

>  <minimizedRMSD>
0.166094765

$$$$
