
 OpenBabel03232520203D

 38 41  0  0  0  0  0  0  0  0999 V2000
   47.5050   34.1520   42.2030 C   0  0  0  0  0  0  0  0  0  0  0  0
   48.3660   35.2730   41.6940 C   0  0  0  0  0  0  0  0  0  0  0  0
   49.7130   35.3690   42.2920 C   0  0  0  0  0  0  0  0  0  0  0  0
   50.4280   34.0690   42.4470 C   0  0  0  0  0  0  0  0  0  0  0  0
   49.5670   32.8560   42.1730 C   0  0  0  0  0  0  0  0  0  0  0  0
   48.2600   33.0630   42.9090 C   0  0  0  0  0  0  0  0  0  0  0  0
   47.8290   36.2410   41.9030 H   0  0  0  0  0  0  0  0  0  0  0  0
   48.4770   35.2150   40.5810 H   0  0  0  0  0  0  0  0  0  0  0  0
   49.6230   35.8180   43.3030 H   0  0  0  0  0  0  0  0  0  0  0  0
   50.2980   36.0830   41.6910 H   0  0  0  0  0  0  0  0  0  0  0  0
   50.8590   33.9290   43.4720 H   0  0  0  0  0  0  0  0  0  0  0  0
   51.2960   34.0120   41.7570 H   0  0  0  0  0  0  0  0  0  0  0  0
   49.4040   32.7570   41.0770 H   0  0  0  0  0  0  0  0  0  0  0  0
   50.1020   31.9660   42.5500 H   0  0  0  0  0  0  0  0  0  0  0  0
   47.6140   32.1610   42.8920 H   0  0  0  0  0  0  0  0  0  0  0  0
   48.4970   33.4260   43.9220 H   0  0  0  0  0  0  0  0  0  0  0  0
   45.2260   34.4880   45.1040 C   0  0  0  0  0  0  0  0  0  0  0  0
   44.5260   35.6580   44.8220 C   0  0  0  0  0  0  0  0  0  0  0  0
   44.8380   36.3210   43.6530 C   0  0  0  0  0  0  0  0  0  0  0  0
   45.7980   35.8070   42.8440 N   0  0  0  0  0  0  0  0  0  0  0  0
   46.4610   34.6680   43.1430 C   0  0  0  0  0  0  0  0  0  0  0  0
   46.1630   34.0010   44.3010 N   0  0  0  0  0  0  0  0  0  0  0  0
   44.9370   34.0180   46.0310 H   0  0  0  0  0  0  0  0  0  0  0  0
   43.7570   36.0820   45.4570 H   0  0  0  0  0  0  0  0  0  0  0  0
   44.3570   37.2330   43.3420 H   0  0  0  0  0  0  0  0  0  0  0  0
   46.8250   33.5130   41.0230 C   0  0  0  0  0  0  0  0  0  0  0  0
   45.7000   32.7510   40.7730 C   0  0  0  0  0  0  0  0  0  0  0  0
   45.4640   32.3790   39.5070 C   0  0  0  0  0  0  0  0  0  0  0  0
   46.2810   32.7240   38.4970 C   0  0  0  0  0  0  0  0  0  0  0  0
   47.5740   33.7050   39.3800 S   0  0  0  0  0  0  0  0  0  0  0  0
   45.1170   32.5340   41.6560 H   0  0  0  0  0  0  0  0  0  0  0  0
   44.5990   31.7810   39.2440 H   0  0  0  0  0  0  0  0  0  0  0  0
   46.3360   32.5160   37.1040 C   0  0  0  0  0  0  0  0  0  0  0  0
   47.4380   32.2800   36.3100 C   0  0  0  0  0  0  0  0  0  0  0  0
   46.9060   32.1510   35.0210 C   0  0  0  0  0  0  0  0  0  0  0  0
   45.5200   32.3190   35.1380 C   0  0  0  0  0  0  0  0  0  0  0  0
   44.7840   32.2820   34.3190 H   0  0  0  0  0  0  0  0  0  0  0  0
   45.2370   32.5340   36.4020 O   0  0  0  0  0  0  0  0  0  0  0  0
  1  6  1  0  0  0  0
  1 21  1  0  0  0  0
  2  7  1  0  0  0  0
  2  1  1  0  0  0  0
  2  3  1  0  0  0  0
  3  4  1  0  0  0  0
  3  9  1  0  0  0  0
  4 11  1  0  0  0  0
  5  4  1  0  0  0  0
  5 14  1  0  0  0  0
  5  6  1  0  0  0  0
  6 16  1  0  0  0  0
  8  2  1  0  0  0  0
 10  3  1  0  0  0  0
 12  4  1  0  0  0  0
 13  5  1  0  0  0  0
 15  6  1  0  0  0  0
 17 23  1  0  0  0  0
 18 17  1  0  0  0  0
 18 24  1  0  0  0  0
 19 18  2  0  0  0  0
 20 21  2  0  0  0  0
 20 19  1  0  0  0  0
 21 22  1  0  0  0  0
 22 17  2  0  0  0  0
 25 19  1  0  0  0  0
 26  1  1  0  0  0  0
 27 26  2  0  0  0  0
 27 31  1  0  0  0  0
 28 27  1  0  0  0  0
 29 30  1  0  0  0  0
 29 28  2  0  0  0  0
 30 26  1  0  0  0  0
 32 28  1  0  0  0  0
 33 29  1  0  0  0  0
 34 33  2  0  0  0  0
 35 36  2  0  0  0  0
 35 34  1  0  0  0  0
 36 38  1  0  0  0  0
 37 36  1  0  0  0  0
 38 33  1  0  0  0  0
M  END
>  <minimizedAffinity>
-5.87043095

>  <minimizedRMSD>
0.328750402

$$$$
