
 OpenBabel03232520293D

 42 46  0  0  1  0  0  0  0  0999 V2000
   46.9530   34.5300   41.3670 C   0  0  0  0  0  0  0  0  0  0  0  0
   48.2390   34.9560   41.0380 C   0  0  0  0  0  0  0  0  0  0  0  0
   48.5030   34.6530   39.7830 N   0  0  0  0  0  0  0  0  0  0  0  0
   47.4280   34.0390   39.2730 C   0  0  0  0  0  0  0  0  0  0  0  0
   47.1820   33.5200   38.0040 C   0  0  0  0  0  0  0  0  0  0  0  0
   45.9750   32.9310   37.7350 C   0  0  0  0  0  0  0  0  0  0  0  0
   44.9560   32.8120   38.6590 C   0  0  0  0  0  0  0  0  0  0  0  0
   45.2280   33.3370   39.9150 C   0  0  0  0  0  0  0  0  0  0  0  0
   46.4290   33.9400   40.2340 C   0  0  0  0  0  0  0  0  0  0  0  0
   49.3810   34.8300   39.2130 H   0  0  0  0  0  0  0  0  0  0  0  0
   47.9270   33.5740   37.2250 H   0  0  0  0  0  0  0  0  0  0  0  0
   45.7750   32.5240   36.7500 H   0  0  0  0  0  0  0  0  0  0  0  0
   43.9980   32.3690   38.5230 H   0  0  0  0  0  0  0  0  0  0  0  0
   44.4890   33.2890   40.7030 H   0  0  0  0  0  0  0  0  0  0  0  0
   44.7790   35.8960   44.0740 C   0  0  0  0  0  0  0  0  0  0  0  0
   45.4340   35.7690   42.8380 C   0  0  0  0  0  0  0  0  0  0  0  0
   46.2690   34.6690   42.6510 C   0  0  0  0  0  0  0  0  0  0  0  0
   46.4260   33.7580   43.6590 N   0  0  0  0  0  0  0  0  0  0  0  0
   45.7630   33.9410   44.8320 C   0  0  0  0  0  0  0  0  0  0  0  0
   44.9480   34.9880   45.0510 N   0  0  0  0  0  0  0  0  0  0  0  0
   44.1320   36.7500   44.2170 H   0  0  0  0  0  0  0  0  0  0  0  0
   45.3220   36.4800   42.0270 H   0  0  0  0  0  0  0  0  0  0  0  0
   45.9740   33.1400   45.5570 H   0  0  0  0  0  0  0  0  0  0  0  0
   49.1450   35.6430   41.9840 C   0  0  0  0  0  0  0  0  0  0  0  0
   49.7610   36.3870   41.4360 H   0  0  0  0  0  0  0  0  0  0  0  0
   48.5630   36.2050   42.7460 H   0  0  0  0  0  0  0  0  0  0  0  0
   50.0930   34.6850   42.6480 C   0  0  0  0  0  0  0  0  0  0  0  0
   49.7360   34.5300   43.6940 H   0  0  0  0  0  0  0  0  0  0  0  0
   51.1110   35.1570   42.7750 H   0  0  0  0  0  0  0  0  0  0  0  0
   50.2920   33.4070   41.8990 C   0  0  1  0  0  0  0  0  0  0  0  0
   50.9280   32.2230   42.4850 C   0  0  0  0  0  0  0  0  0  0  0  0
   49.4520   32.2230   42.4420 C   0  0  2  0  0  0  0  0  0  0  0  0
   50.2800   33.4910   40.7990 H   0  0  0  0  0  0  0  0  0  0  0  0
   51.5160   31.5780   41.7980 H   0  0  0  0  0  0  0  0  0  0  0  0
   51.4170   32.2650   43.4920 H   0  0  0  0  0  0  0  0  0  0  0  0
   48.9080   32.3860   43.3850 H   0  0  0  0  0  0  0  0  0  0  0  0
   48.8560   31.3130   41.4170 C   0  0  0  0  0  0  0  0  0  0  0  0
   49.4540   30.7460   40.3090 C   0  0  0  0  0  0  0  0  0  0  0  0
   48.5260   29.9710   39.6380 C   0  0  0  0  0  0  0  0  0  0  0  0
   47.3970   30.1090   40.3820 C   0  0  0  0  0  0  0  0  0  0  0  0
   46.4100   29.6860   40.2480 H   0  0  0  0  0  0  0  0  0  0  0  0
   47.6330   30.8970   41.4060 O   0  0  0  0  0  0  0  0  0  0  0  0
  1 17  1  0  0  0  0
  2  1  2  0  0  0  0
  2 24  1  0  0  0  0
  3  2  1  0  0  0  0
  4  3  1  0  0  0  0
  4  9  1  0  0  0  0
  5  4  2  0  0  0  0
  6  5  1  0  0  0  0
  6  7  2  0  0  0  0
  7  8  1  0  0  0  0
  8  9  2  0  0  0  0
  8 14  1  0  0  0  0
  9  1  1  0  0  0  0
 10  3  1  0  0  0  0
 11  5  1  0  0  0  0
 12  6  1  0  0  0  0
 13  7  1  0  0  0  0
 15 21  1  0  0  0  0
 15 20  1  0  0  0  0
 16 15  2  0  0  0  0
 17 16  1  0  0  0  0
 17 18  2  0  0  0  0
 18 19  1  0  0  0  0
 19 20  2  0  0  0  0
 19 23  1  0  0  0  0
 22 16  1  0  0  0  0
 24 27  1  0  0  0  0
 24 26  1  0  0  0  0
 25 24  1  0  0  0  0
 27 29  1  0  0  0  0
 27 28  1  0  0  0  0
 30 33  1  6  0  0  0
 30 32  1  0  0  0  0
 30 31  1  0  0  0  0
 30 27  1  0  0  0  0
 31 35  1  0  0  0  0
 32 31  1  0  0  0  0
 32 36  1  1  0  0  0
 34 31  1  0  0  0  0
 37 32  1  0  0  0  0
 38 37  2  0  0  0  0
 39 38  1  0  0  0  0
 39 40  2  0  0  0  0
 40 42  1  0  0  0  0
 41 40  1  0  0  0  0
 42 37  1  0  0  0  0
M  END
>  <minimizedAffinity>
-5.79556131

>  <minimizedRMSD>
0.272745073

$$$$
