
 OpenBabel03232520573D

 34 36  0  0  1  0  0  0  0  0999 V2000
   46.1040   33.5300   45.2240 C   0  0  2  0  0  0  0  0  0  0  0  0
   45.0160   34.6640   45.4810 C   0  0  0  0  0  0  0  0  0  0  0  0
   44.7770   35.5940   44.4110 C   0  0  0  0  0  0  0  0  0  0  0  0
   45.5080   35.4860   43.1520 C   0  0  1  0  0  0  0  0  0  0  0  0
   46.5410   34.4370   43.0780 C   0  0  0  0  0  0  0  0  0  0  0  0
   46.0230   33.2180   43.8360 C   0  0  0  0  0  0  0  0  0  0  0  0
   46.9820   34.1850   45.5020 H   0  0  0  0  0  0  0  0  0  0  0  0
   44.3670   34.9280   46.3070 H   0  0  0  0  0  0  0  0  0  0  0  0
   44.0600   36.3790   44.5150 H   0  0  0  0  0  0  0  0  0  0  0  0
   45.9560   36.4750   42.9150 H   0  0  0  0  0  0  0  0  0  0  0  0
   46.8060   34.2140   42.0460 H   0  0  0  0  0  0  0  0  0  0  0  0
   47.4660   34.7660   43.6060 H   0  0  0  0  0  0  0  0  0  0  0  0
   44.8740   33.2590   43.5770 H   0  0  0  0  0  0  0  0  0  0  0  0
   46.3300   32.4050   43.2650 H   0  0  0  0  0  0  0  0  0  0  0  0
   45.4290   32.8120   47.5020 C   0  0  0  0  0  0  0  0  0  0  0  0
   45.8910   32.5490   46.2380 C   0  0  0  0  0  0  0  0  0  0  0  0
   46.0590   31.2140   45.9640 C   0  0  0  0  0  0  0  0  0  0  0  0
   45.7720   30.2630   46.8870 N   0  0  0  0  0  0  0  0  0  0  0  0
   45.3170   30.5580   48.1260 C   0  0  0  0  0  0  0  0  0  0  0  0
   45.1450   31.8370   48.4350 N   0  0  0  0  0  0  0  0  0  0  0  0
   45.0550   29.5250   49.0570 N   0  0  0  0  0  0  0  0  0  0  0  0
   45.2640   33.8210   47.8420 H   0  0  0  0  0  0  0  0  0  0  0  0
   45.5010   29.4930   50.0160 H   0  0  0  0  0  0  0  0  0  0  0  0
   44.4110   28.7190   48.8840 H   0  0  0  0  0  0  0  0  0  0  0  0
   46.7960   30.5990   44.8350 C   0  0  0  0  0  0  0  0  0  0  0  0
   48.1870   30.4660   44.7830 C   0  0  0  0  0  3  0  0  0  0  0  0
   48.5900   29.8560   43.6210 C   0  0  0  0  0  3  0  0  0  0  0  0
   47.3940   29.6360   42.9950 C   0  0  0  0  0  0  0  0  0  0  0  0
   47.2760   29.1620   42.0230 H   0  0  0  0  0  0  0  0  0  0  0  0
   46.4300   30.0760   43.7280 O   0  0  0  0  0  0  0  0  0  0  0  0
   44.4590   35.2520   42.0350 C   0  0  0  0  0  0  0  0  0  0  0  0
   43.4080   34.4670   42.4370 F   0  0  0  0  0  0  0  0  0  0  0  0
   43.9290   36.5060   41.7300 F   0  0  0  0  0  0  0  0  0  0  0  0
   45.0860   34.7810   40.8930 F   0  0  0  0  0  0  0  0  0  0  0  0
  1  2  1  0  0  0  0
  1  7  1  1  0  0  0
  1 16  1  0  0  0  0
  2  8  1  0  0  0  0
  3  9  1  0  0  0  0
  3  2  2  0  0  0  0
  4 10  1  6  0  0  0
  4  3  1  0  0  0  0
  5  4  1  0  0  0  0
  5 12  1  0  0  0  0
  5  6  1  0  0  0  0
  6  1  1  0  0  0  0
 11  5  1  0  0  0  0
 13  6  1  0  0  0  0
 14  6  1  0  0  0  0
 15 22  1  0  0  0  0
 15 20  1  0  0  0  0
 16 15  2  0  0  0  0
 17 16  1  0  0  0  0
 17 18  2  0  0  0  0
 18 19  1  0  0  0  0
 19 20  2  0  0  0  0
 19 21  1  0  0  0  0
 21 23  1  0  0  0  0
 24 21  1  0  0  0  0
 25 17  1  0  0  0  0
 26 25  2  0  0  0  0
 27 26  1  0  0  0  0
 28 27  2  0  0  0  0
 28 30  1  0  0  0  0
 29 28  1  0  0  0  0
 30 25  1  0  0  0  0
 31 32  1  0  0  0  0
 31  4  1  0  0  0  0
 33 31  1  0  0  0  0
 34 31  1  0  0  0  0
M  END
>  <minimizedAffinity>
-5.56082821

>  <minimizedRMSD>
0.473987311

$$$$
