REMARK  Name = 
REMARK  3 active torsions:
REMARK  status: ('A' for Active; 'I' for Inactive)
REMARK    1  A    between atoms: C_1  and  C_8
REMARK    2  A    between atoms: C_4  and  C_14
REMARK    3  A    between atoms: C_9  and  C_29
REMARK                            x       y       z     vdW  Elec       q    Type
REMARK                         _______ _______ _______ _____ _____    ______ ____
ROOT
ATOM      1  C   UNL     1      46.141  33.646  45.310  0.00  0.00    +0.000 C 
ATOM      2  C   UNL     1      44.954  34.694  45.478  0.00  0.00    +0.000 C 
ATOM      3  C   UNL     1      44.712  35.587  44.377  0.00  0.00    +0.000 C 
ATOM      4  C   UNL     1      45.527  35.519  43.168  0.00  0.00    +0.000 C 
ATOM      5  C   UNL     1      46.641  34.554  43.178  0.00  0.00    +0.000 C 
ATOM      6  C   UNL     1      46.172  33.309  43.926  0.00  0.00    +0.000 C 
ATOM      7  H   UNL     1      46.946  34.372  45.629  0.00  0.00    +0.000 HD
ATOM      8  H   UNL     1      44.236  34.918  46.257  0.00  0.00    +0.000 HD
ATOM      9  H   UNL     1      43.931  36.315  44.422  0.00  0.00    +0.000 HD
ATOM     10  H   UNL     1      45.911  36.537  42.941  0.00  0.00    +0.000 HD
ATOM     11  H   UNL     1      46.987  34.337  42.169  0.00  0.00    +0.000 HD
ATOM     12  H   UNL     1      47.502  34.962  43.756  0.00  0.00    +0.000 HD
ATOM     13  H   UNL     1      45.042  33.256  43.596  0.00  0.00    +0.000 HD
ATOM     14  H   UNL     1      46.576  32.514  43.391  0.00  0.00    +0.000 HD
ENDROOT
BRANCH   1  16
ATOM     15  C   UNL     1      45.296  32.888  47.518  0.00  0.00    +0.000 A 
ATOM     16  C   UNL     1      45.941  32.666  46.328  0.00  0.00    +0.000 A 
ATOM     17  C   UNL     1      46.321  31.362  46.126  0.00  0.00    +0.000 A 
ATOM     18  N   UNL     1      46.055  30.399  47.043  0.00  0.00    +0.000 NA
ATOM     19  C   UNL     1      45.416  30.653  48.207  0.00  0.00    +0.000 A 
ATOM     20  N   UNL     1      45.036  31.902  48.446  0.00  0.00    +0.000 NA
ATOM     21  N   UNL     1      45.185  29.613  49.139  0.00  0.00    +0.000 N 
ATOM     22  H   UNL     1      44.955  33.870  47.798  0.00  0.00    +0.000 HD
ATOM     23  H   UNL     1      45.511  29.663  50.144  0.00  0.00    +0.000 HD
ATOM     24  H   UNL     1      44.683  28.722  48.921  0.00  0.00    +0.000 HD
BRANCH  17  25
ATOM     25  C   UNL     1      47.267  30.833  45.115  0.00  0.00    +0.000 A 
ATOM     26  C   UNL     1      48.523  30.299  45.417  0.00  0.00    +0.000 A 
ATOM     27  C   UNL     1      49.179  29.882  44.285  0.00  0.00    +0.000 A 
ATOM     28  C   UNL     1      48.269  30.189  43.311  0.00  0.00    +0.000 A 
ATOM     29  H   UNL     1      48.410  30.013  42.247  0.00  0.00    +0.000 HD
ATOM     30  O   UNL     1      47.221  30.718  43.844  0.00  0.00    +0.000 OA
ENDBRANCH  17  25
ENDBRANCH   1  16
BRANCH   4  31
ATOM     31  C   UNL     1      44.572  35.188  41.993  0.00  0.00    +0.000 C 
ATOM     32  F   UNL     1      43.584  34.299  42.335  0.00  0.00    +0.000 F 
ATOM     33  F   UNL     1      43.937  36.384  41.658  0.00  0.00    +0.000 F 
ATOM     34  F   UNL     1      45.307  34.788  40.889  0.00  0.00    +0.000 F 
ENDBRANCH   4  31
TORSDOF 3
