
 OpenBabel03232520573D

 34 36  0  0  1  0  0  0  0  0999 V2000
   46.0950   33.5940   45.2390 C   0  0  2  0  0  0  0  0  0  0  0  0
   44.9900   34.7140   45.4810 C   0  0  0  0  0  0  0  0  0  0  0  0
   44.7440   35.6310   44.4010 C   0  0  0  0  0  0  0  0  0  0  0  0
   45.4820   35.5220   43.1470 C   0  0  1  0  0  0  0  0  0  0  0  0
   46.5310   34.4880   43.0870 C   0  0  0  0  0  0  0  0  0  0  0  0
   46.0260   33.2680   43.8540 C   0  0  0  0  0  0  0  0  0  0  0  0
   46.9620   34.2640   45.5160 H   0  0  0  0  0  0  0  0  0  0  0  0
   44.3330   34.9760   46.3020 H   0  0  0  0  0  0  0  0  0  0  0  0
   44.0150   36.4070   44.4950 H   0  0  0  0  0  0  0  0  0  0  0  0
   45.9180   36.5160   42.9040 H   0  0  0  0  0  0  0  0  0  0  0  0
   46.8040   34.2590   42.0590 H   0  0  0  0  0  0  0  0  0  0  0  0
   47.4480   34.8340   43.6170 H   0  0  0  0  0  0  0  0  0  0  0  0
   44.8770   33.2910   43.5890 H   0  0  0  0  0  0  0  0  0  0  0  0
   46.3460   32.4540   43.2920 H   0  0  0  0  0  0  0  0  0  0  0  0
   45.3280   32.8700   47.4870 C   0  0  0  0  0  0  0  0  0  0  0  0
   45.8910   32.6190   46.2620 C   0  0  0  0  0  0  0  0  0  0  0  0
   46.1770   31.2960   46.0320 C   0  0  0  0  0  0  0  0  0  0  0  0
   45.9020   30.3430   46.9570 N   0  0  0  0  0  0  0  0  0  0  0  0
   45.3450   30.6260   48.1560 C   0  0  0  0  0  0  0  0  0  0  0  0
   45.0580   31.8940   48.4220 N   0  0  0  0  0  0  0  0  0  0  0  0
   45.1010   29.5940   49.0930 N   0  0  0  0  0  0  0  0  0  0  0  0
   45.0650   33.8690   47.7910 H   0  0  0  0  0  0  0  0  0  0  0  0
   45.4850   29.6140   50.0790 H   0  0  0  0  0  0  0  0  0  0  0  0
   44.5330   28.7380   48.8990 H   0  0  0  0  0  0  0  0  0  0  0  0
   47.0300   30.7180   44.9670 C   0  0  0  0  0  0  0  0  0  0  0  0
   46.5840   29.7950   44.0150 C   0  0  0  0  0  3  0  0  0  0  0  0
   47.5890   29.4360   43.1510 C   0  0  0  0  0  3  0  0  0  0  0  0
   48.6360   30.1790   43.6250 C   0  0  0  0  0  0  0  0  0  0  0  0
   49.6400   30.1800   43.2060 H   0  0  0  0  0  0  0  0  0  0  0  0
   48.2550   30.8720   44.6420 O   0  0  0  0  0  0  0  0  0  0  0  0
   44.4430   35.2640   42.0270 C   0  0  0  0  0  0  0  0  0  0  0  0
   43.4000   34.4700   42.4320 F   0  0  0  0  0  0  0  0  0  0  0  0
   43.8980   36.5080   41.7070 F   0  0  0  0  0  0  0  0  0  0  0  0
   45.0820   34.7900   40.8930 F   0  0  0  0  0  0  0  0  0  0  0  0
  1  2  1  0  0  0  0
  1  7  1  1  0  0  0
  1 16  1  0  0  0  0
  2  8  1  0  0  0  0
  3  9  1  0  0  0  0
  3  2  2  0  0  0  0
  4 10  1  6  0  0  0
  4  3  1  0  0  0  0
  5  4  1  0  0  0  0
  5 12  1  0  0  0  0
  5  6  1  0  0  0  0
  6  1  1  0  0  0  0
 11  5  1  0  0  0  0
 13  6  1  0  0  0  0
 14  6  1  0  0  0  0
 15 22  1  0  0  0  0
 15 20  1  0  0  0  0
 16 15  2  0  0  0  0
 17 16  1  0  0  0  0
 17 18  2  0  0  0  0
 18 19  1  0  0  0  0
 19 20  2  0  0  0  0
 19 21  1  0  0  0  0
 21 23  1  0  0  0  0
 24 21  1  0  0  0  0
 25 17  1  0  0  0  0
 26 25  2  0  0  0  0
 27 28  2  0  0  0  0
 27 26  1  0  0  0  0
 28 30  1  0  0  0  0
 29 28  1  0  0  0  0
 30 25  1  0  0  0  0
 31 32  1  0  0  0  0
 31  4  1  0  0  0  0
 33 31  1  0  0  0  0
 34 31  1  0  0  0  0
M  END
>  <minimizedAffinity>
-5.5556798

>  <minimizedRMSD>
0.239758268

$$$$
