
 OpenBabel03232520383D

 16 17  0  0  0  0  0  0  0  0999 V2000
   44.7720   34.9910   45.3620 C   0  0  0  0  0  0  0  0  0  0  0  0
   45.4400   34.8850   44.1190 C   0  0  0  0  0  0  0  0  0  0  0  0
   46.4360   33.9350   43.9530 C   0  0  0  0  0  0  0  0  0  0  0  0
   46.7380   33.1280   45.0110 N   0  0  0  0  0  0  0  0  0  0  0  0
   46.0860   33.2490   46.1830 C   0  0  0  0  0  0  0  0  0  0  0  0
   45.1210   34.1560   46.3740 N   0  0  0  0  0  0  0  0  0  0  0  0
   44.0160   35.7360   45.4360 H   0  0  0  0  0  0  0  0  0  0  0  0
   46.9460   33.8460   43.0240 H   0  0  0  0  0  0  0  0  0  0  0  0
   46.3490   32.4260   47.3590 C   0  0  0  0  0  0  0  0  0  0  0  0
   47.4250   31.7080   47.8800 C   0  0  0  0  0  0  0  0  0  0  0  0
   46.9260   31.1620   49.0610 C   0  0  0  0  0  0  0  0  0  0  0  0
   45.6130   31.5670   49.1910 C   0  0  0  0  0  0  0  0  0  0  0  0
   45.1300   31.1990   50.0780 H   0  0  0  0  0  0  0  0  0  0  0  0
   45.3030   32.3260   48.1470 O   0  0  0  0  0  0  0  0  0  0  0  0
   44.9860   35.9940   42.7560 S   0  0  0  0  0  0  0  0  0  0  0  0
   43.5630   36.0230   42.7360 H   0  0  0  0  0  0  0  0  0  0  0  0
  1  7  1  0  0  0  0
  1  6  1  0  0  0  0
  2  1  2  0  0  0  0
  3  2  1  0  0  0  0
  3  4  2  0  0  0  0
  4  5  1  0  0  0  0
  5  6  2  0  0  0  0
  5  9  1  0  0  0  0
  8  3  1  0  0  0  0
  9 10  2  0  0  0  0
  9 14  1  0  0  0  0
 10 11  1  0  0  0  0
 11 12  2  0  0  0  0
 12 13  1  0  0  0  0
 14 12  1  0  0  0  0
 15  2  1  0  0  0  0
 16 15  1  0  0  0  0
M  END
>  <minimizedAffinity>
-4.04549265

>  <minimizedRMSD>
1.71816421

$$$$
