
 OpenBabel03232520593D

 38 40  0  0  1  0  0  0  0  0999 V2000
   45.3980   32.8790   47.5070 C   0  0  0  0  0  0  0  0  0  0  0  0
   45.9290   32.6270   46.2850 C   0  0  0  0  0  0  0  0  0  0  0  0
   46.1720   31.2750   46.0220 C   0  0  0  0  0  0  0  0  0  0  0  0
   45.9060   30.2760   46.9000 N   0  0  0  0  0  0  0  0  0  0  0  0
   45.3620   30.5850   48.1390 C   0  0  0  0  0  0  0  0  0  0  0  0
   45.1250   31.8650   48.4080 N   0  0  0  0  0  0  0  0  0  0  0  0
   45.0850   29.5690   49.0850 N   0  0  0  0  0  0  0  0  0  0  0  0
   45.1760   33.8890   47.8130 H   0  0  0  0  0  0  0  0  0  0  0  0
   44.1760   29.2100   49.4080 H   0  0  0  0  0  0  0  0  0  0  0  0
   46.0260   29.2490   49.3950 H   0  0  0  0  0  0  0  0  0  0  0  0
   46.1740   33.5840   45.2600 C   0  0  2  0  0  0  0  0  0  0  0  0
   44.9540   34.6690   45.4940 C   0  0  0  0  0  0  0  0  0  0  0  0
   44.7280   35.6090   44.4310 C   0  0  0  0  0  0  0  0  0  0  0  0
   45.5290   35.5490   43.2080 C   0  0  1  0  0  0  0  0  0  0  0  0
   46.5910   34.5500   43.1570 C   0  0  0  0  0  0  0  0  0  0  0  0
   46.1480   33.3090   43.8960 C   0  0  0  0  0  0  0  0  0  0  0  0
   46.9390   34.3410   45.6080 H   0  0  0  0  0  0  0  0  0  0  0  0
   44.2720   34.8060   46.3240 H   0  0  0  0  0  0  0  0  0  0  0  0
   43.9570   36.3240   44.5420 H   0  0  0  0  0  0  0  0  0  0  0  0
   45.9480   36.5580   43.0180 H   0  0  0  0  0  0  0  0  0  0  0  0
   47.5020   34.9230   43.6590 H   0  0  0  0  0  0  0  0  0  0  0  0
   46.8690   34.3670   42.0990 H   0  0  0  0  0  0  0  0  0  0  0  0
   45.2150   32.8850   43.4680 H   0  0  0  0  0  0  0  0  0  0  0  0
   47.0000   32.6630   43.5560 H   0  0  0  0  0  0  0  0  0  0  0  0
   44.5170   35.2830   42.0530 C   0  0  0  0  0  0  0  0  0  0  0  0
   43.4590   34.4800   42.4410 F   0  0  0  0  0  0  0  0  0  0  0  0
   43.9690   36.5180   41.7220 F   0  0  0  0  0  0  0  0  0  0  0  0
   45.1960   34.8290   40.9380 F   0  0  0  0  0  0  0  0  0  0  0  0
   46.7860   30.5850   44.9010 C   0  0  0  0  0  0  0  0  0  0  0  0
   46.4140   29.8530   43.8200 C   0  0  0  0  0  0  0  0  0  0  0  0
   47.5720   29.4430   43.1490 C   0  0  0  0  0  0  0  0  0  0  0  0
   48.5870   29.9450   43.8520 N   0  0  0  0  0  0  0  0  0  0  0  0
   48.1490   30.6210   44.8870 N   0  0  0  0  0  0  0  0  0  0  0  0
   45.3510   29.7140   43.6600 H   0  0  0  0  0  0  0  0  0  0  0  0
   47.4840   28.8520   42.2660 H   0  0  0  0  0  0  0  0  0  0  0  0
   49.9800   29.7160   43.4430 C   0  0  0  0  0  2  0  0  0  0  0  0
   50.4970   30.9090   42.6570 C   0  0  0  0  0  2  0  0  0  0  0  0
   50.9870   30.5780   41.7160 H   0  0  0  0  0  0  0  0  0  0  0  0
  1  8  1  0  0  0  0
  1  6  1  0  0  0  0
  2  1  2  0  0  0  0
  3  2  1  0  0  0  0
  3  4  2  0  0  0  0
  4  5  1  0  0  0  0
  5  6  2  0  0  0  0
  5  7  1  0  0  0  0
  7 10  1  0  0  0  0
  7  9  1  0  0  0  0
 11 12  1  0  0  0  0
 11 17  1  1  0  0  0
 11  2  1  0  0  0  0
 12 18  1  0  0  0  0
 13 19  1  0  0  0  0
 13 12  2  0  0  0  0
 14 20  1  6  0  0  0
 14 13  1  0  0  0  0
 15 14  1  0  0  0  0
 15 21  1  0  0  0  0
 15 16  1  0  0  0  0
 16 11  1  0  0  0  0
 22 15  1  0  0  0  0
 23 16  1  0  0  0  0
 24 16  1  0  0  0  0
 25 26  1  0  0  0  0
 25 14  1  0  0  0  0
 27 25  1  0  0  0  0
 28 25  1  0  0  0  0
 29  3  1  0  0  0  0
 30 29  1  0  0  0  0
 31 30  2  0  0  0  0
 31 32  1  0  0  0  0
 32 33  1  0  0  0  0
 33 29  2  0  0  0  0
 34 30  1  0  0  0  0
 35 31  1  0  0  0  0
 36 32  1  0  0  0  0
 37 36  1  0  0  0  0
 38 37  1  0  0  0  0
M  END
>  <minimizedAffinity>
-5.53272772

>  <minimizedRMSD>
0.073062785

$$$$
