
 OpenBabel03232520393D

 22 23  0  0  0  0  0  0  0  0999 V2000
   44.0000   35.5360   42.8070 C   0  0  0  0  0  0  0  0  0  0  0  0
   43.2920   35.1300   41.6670 C   0  0  0  0  0  0  0  0  0  0  0  0
   43.9710   34.4810   40.6510 C   0  0  0  0  0  0  0  0  0  0  0  0
   45.3120   34.2500   40.7840 N   0  0  0  0  0  0  0  0  0  0  0  0
   45.9580   34.6600   41.9050 C   0  0  0  0  0  0  0  0  0  0  0  0
   45.3180   35.2910   42.9000 N   0  0  0  0  0  0  0  0  0  0  0  0
   43.4530   36.0480   43.6030 H   0  0  0  0  0  0  0  0  0  0  0  0
   43.5030   34.1350   39.7420 H   0  0  0  0  0  0  0  0  0  0  0  0
   47.3910   34.4400   42.0940 C   0  0  0  0  0  0  0  0  0  0  0  0
   48.2670   35.5040   41.9500 C   0  0  0  0  0  0  0  0  0  0  0  0
   49.6370   35.3840   42.1090 C   0  0  0  0  0  0  0  0  0  0  0  0
   50.1630   34.1410   42.4280 C   0  0  0  0  0  0  0  0  0  0  0  0
   49.2650   33.1010   42.5660 C   0  0  0  0  0  0  0  0  0  0  0  0
   47.9360   33.2610   42.4020 N   0  0  0  0  0  0  0  0  0  0  0  0
   47.8210   36.4740   41.6970 H   0  0  0  0  0  0  0  0  0  0  0  0
   50.2180   36.2880   41.9680 H   0  0  0  0  0  0  0  0  0  0  0  0
   51.2370   34.0550   42.5510 H   0  0  0  0  0  0  0  0  0  0  0  0
   49.7090   32.1250   42.8170 H   0  0  0  0  0  0  0  0  0  0  0  0
   41.5160   35.4300   41.4810 S   0  0  0  0  0  0  0  0  0  0  0  0
   40.9960   35.1030   39.7780 C   0  0  0  0  0  0  0  0  0  0  0  0
   39.5200   34.8910   39.6600 C   0  0  0  0  0  0  0  0  0  0  0  0
   39.0400   34.7850   40.6560 H   0  0  0  0  0  0  0  0  0  0  0  0
  1  6  1  0  0  0  0
  1  7  1  0  0  0  0
  2  1  2  0  0  0  0
  3  4  2  0  0  0  0
  3  2  1  0  0  0  0
  4  5  1  0  0  0  0
  5  9  1  0  0  0  0
  5  6  2  0  0  0  0
  8  3  1  0  0  0  0
  9 14  1  0  0  0  0
 10  9  2  0  0  0  0
 10 11  1  0  0  0  0
 11 12  2  0  0  0  0
 12 17  1  0  0  0  0
 12 13  1  0  0  0  0
 13 18  1  0  0  0  0
 14 13  2  0  0  0  0
 15 10  1  0  0  0  0
 16 11  1  0  0  0  0
 19  2  1  0  0  0  0
 20 19  1  0  0  0  0
 21 20  1  0  0  0  0
 21 22  1  0  0  0  0
M  END
>  <minimizedAffinity>
-4.54783964

>  <minimizedRMSD>
1.31478405

$$$$
