
 OpenBabel03232520583D

 38 40  0  0  1  0  0  0  0  0999 V2000
   45.3930   32.8700   47.5010 C   0  0  0  0  0  0  0  0  0  0  0  0
   45.9280   32.6220   46.2800 C   0  0  0  0  0  0  0  0  0  0  0  0
   46.1770   31.2710   46.0160 C   0  0  0  0  0  0  0  0  0  0  0  0
   45.9110   30.2700   46.8910 N   0  0  0  0  0  0  0  0  0  0  0  0
   45.3620   30.5750   48.1290 C   0  0  0  0  0  0  0  0  0  0  0  0
   45.1200   31.8540   48.3990 N   0  0  0  0  0  0  0  0  0  0  0  0
   45.0850   29.5560   49.0720 N   0  0  0  0  0  0  0  0  0  0  0  0
   45.1660   33.8790   47.8080 H   0  0  0  0  0  0  0  0  0  0  0  0
   44.1760   29.1950   49.3920 H   0  0  0  0  0  0  0  0  0  0  0  0
   46.0260   29.2390   49.3850 H   0  0  0  0  0  0  0  0  0  0  0  0
   46.1740   33.5810   45.2580 C   0  0  2  0  0  0  0  0  0  0  0  0
   44.9560   34.6680   45.4950 C   0  0  0  0  0  0  0  0  0  0  0  0
   44.7300   35.6110   44.4360 C   0  0  0  0  0  0  0  0  0  0  0  0
   45.5290   35.5520   43.2120 C   0  0  1  0  0  0  0  0  0  0  0  0
   46.5890   34.5530   43.1570 C   0  0  0  0  0  0  0  0  0  0  0  0
   46.1450   33.3100   43.8920 C   0  0  0  0  0  0  0  0  0  0  0  0
   46.9410   34.3360   45.6060 H   0  0  0  0  0  0  0  0  0  0  0  0
   44.2750   34.8030   46.3270 H   0  0  0  0  0  0  0  0  0  0  0  0
   43.9600   36.3260   44.5500 H   0  0  0  0  0  0  0  0  0  0  0  0
   45.9500   36.5620   43.0240 H   0  0  0  0  0  0  0  0  0  0  0  0
   47.5020   34.9220   43.6580 H   0  0  0  0  0  0  0  0  0  0  0  0
   46.8660   34.3720   42.0970 H   0  0  0  0  0  0  0  0  0  0  0  0
   45.2120   32.8880   43.4650 H   0  0  0  0  0  0  0  0  0  0  0  0
   46.9960   32.6630   43.5500 H   0  0  0  0  0  0  0  0  0  0  0  0
   44.5160   35.2920   42.0570 C   0  0  0  0  0  0  0  0  0  0  0  0
   43.4510   34.4990   42.4480 F   0  0  0  0  0  0  0  0  0  0  0  0
   43.9780   36.5300   41.7220 F   0  0  0  0  0  0  0  0  0  0  0  0
   45.1910   34.8280   40.9440 F   0  0  0  0  0  0  0  0  0  0  0  0
   46.7960   30.5850   44.8950 C   0  0  0  0  0  0  0  0  0  0  0  0
   46.4300   29.8580   43.8090 C   0  0  0  0  0  0  0  0  0  0  0  0
   47.5910   29.4490   43.1430 C   0  0  0  0  0  0  0  0  0  0  0  0
   48.6020   29.9460   43.8550 N   0  0  0  0  0  0  0  0  0  0  0  0
   48.1600   30.6180   44.8900 N   0  0  0  0  0  0  0  0  0  0  0  0
   45.3670   29.7210   43.6420 H   0  0  0  0  0  0  0  0  0  0  0  0
   47.5080   28.8610   42.2570 H   0  0  0  0  0  0  0  0  0  0  0  0
   49.9970   29.7160   43.4530 C   0  0  0  0  0  2  0  0  0  0  0  0
   50.7940   29.1550   44.6180 C   0  0  0  0  0  2  0  0  0  0  0  0
   51.7440   29.7150   44.7540 H   0  0  0  0  0  0  0  0  0  0  0  0
  1  8  1  0  0  0  0
  1  6  1  0  0  0  0
  2  1  2  0  0  0  0
  3  2  1  0  0  0  0
  3  4  2  0  0  0  0
  4  5  1  0  0  0  0
  5  6  2  0  0  0  0
  5  7  1  0  0  0  0
  7 10  1  0  0  0  0
  7  9  1  0  0  0  0
 11 12  1  0  0  0  0
 11 17  1  1  0  0  0
 11  2  1  0  0  0  0
 12 18  1  0  0  0  0
 13 19  1  0  0  0  0
 13 12  2  0  0  0  0
 14 20  1  6  0  0  0
 14 13  1  0  0  0  0
 15 14  1  0  0  0  0
 15 21  1  0  0  0  0
 15 16  1  0  0  0  0
 16 11  1  0  0  0  0
 22 15  1  0  0  0  0
 23 16  1  0  0  0  0
 24 16  1  0  0  0  0
 25 26  1  0  0  0  0
 25 14  1  0  0  0  0
 27 25  1  0  0  0  0
 28 25  1  0  0  0  0
 29  3  1  0  0  0  0
 30 29  1  0  0  0  0
 31 30  2  0  0  0  0
 31 32  1  0  0  0  0
 32 33  1  0  0  0  0
 33 29  2  0  0  0  0
 34 30  1  0  0  0  0
 35 31  1  0  0  0  0
 36 32  1  0  0  0  0
 36 37  1  0  0  0  0
 37 38  1  0  0  0  0
M  END
>  <minimizedAffinity>
-5.49030352

>  <minimizedRMSD>
0.229634643

$$$$
