
 OpenBabel03232519223D

 36 38  0  0  1  0  0  0  0  0999 V2000
   47.2550   31.1760   47.4000 N   0  0  0  0  0  0  0  0  0  0  0  0
   47.2480   31.5450   48.8230 C   0  0  0  0  0  0  0  0  0  0  0  0
   45.9460   32.2620   48.9370 C   0  0  0  0  0  0  0  0  0  0  0  0
   45.0040   31.4050   48.1510 C   0  0  0  0  0  0  0  0  0  0  0  0
   45.9530   30.8450   47.0720 C   0  0  2  0  0  0  0  0  0  0  0  0
   47.7300   31.9620   46.9500 H   0  0  0  0  0  0  0  0  0  0  0  0
   47.2120   30.6090   49.4070 H   0  0  0  0  0  0  0  0  0  0  0  0
   48.1250   32.1680   49.0770 H   0  0  0  0  0  0  0  0  0  0  0  0
   45.6310   32.3440   50.0040 H   0  0  0  0  0  0  0  0  0  0  0  0
   46.0440   33.2800   48.5250 H   0  0  0  0  0  0  0  0  0  0  0  0
   44.6140   30.6450   48.8210 H   0  0  0  0  0  0  0  0  0  0  0  0
   44.1900   31.9920   47.6700 H   0  0  0  0  0  0  0  0  0  0  0  0
   45.6630   29.3780   47.0660 C   0  0  0  0  0  0  0  0  0  0  0  0
   46.3050   28.1870   47.3830 C   0  0  0  0  0  0  0  0  0  0  0  0
   45.4410   27.1660   47.1380 C   0  0  0  0  0  0  0  0  0  0  0  0
   44.2810   27.7080   46.6750 N   0  0  0  0  0  0  0  0  0  0  0  0
   44.4250   29.0320   46.6370 N   0  0  0  0  0  0  0  0  0  0  0  0
   47.3200   28.3000   47.7480 H   0  0  0  0  0  0  0  0  0  0  0  0
   45.8110   26.1760   47.3420 H   0  0  0  0  0  0  0  0  0  0  0  0
   43.5120   27.0550   46.4390 H   0  0  0  0  0  0  0  0  0  0  0  0
   45.6370   31.2390   45.7930 O   0  0  0  0  0  0  0  0  0  0  0  0
   46.3400   32.2170   45.0200 C   0  0  0  0  0  0  0  0  0  0  0  0
   47.4440   31.9320   44.5510 O   0  0  0  0  0  0  0  0  0  0  0  0
   44.6290   35.3560   45.7420 C   0  0  0  0  0  0  0  0  0  0  0  0
   44.3480   35.8770   44.4720 C   0  0  0  0  0  0  0  0  0  0  0  0
   44.7550   35.1350   43.3650 C   0  0  0  0  0  0  0  0  0  0  0  0
   45.3990   33.9520   43.5860 N   0  0  0  0  0  0  0  0  0  0  0  0
   45.6360   33.5100   44.8630 C   0  0  0  0  0  0  0  0  0  0  0  0
   45.2570   34.2030   45.9130 N   0  0  0  0  0  0  0  0  0  0  0  0
   44.2820   35.9910   46.5440 H   0  0  0  0  0  0  0  0  0  0  0  0
   43.8330   36.8230   44.3280 H   0  0  0  0  0  0  0  0  0  0  0  0
   44.5240   35.5630   42.0800 O   0  0  0  0  0  0  0  0  0  0  0  0
   43.2680   35.4240   41.4770 C   0  0  0  0  0  0  0  0  0  0  0  0
   43.0870   35.2410   40.2420 O   0  0  0  0  0  0  0  0  0  0  0  0
   42.0980   35.4820   42.2230 O   0  0  0  0  0  0  0  0  0  0  0  0
   41.3590   34.7840   42.0970 H   0  0  0  0  0  0  0  0  0  0  0  0
  1  2  1  0  0  0  0
  2  3  1  0  0  0  0
  2  8  1  0  0  0  0
  2  7  1  0  0  0  0
  3  9  1  0  0  0  0
  4 11  1  0  0  0  0
  4  3  1  0  0  0  0
  5 21  1  6  0  0  0
  5  1  1  0  0  0  0
  5  4  1  0  0  0  0
  6  1  1  0  0  0  0
 10  3  1  0  0  0  0
 12  4  1  0  0  0  0
 13  5  1  0  0  0  0
 13 14  1  0  0  0  0
 14 18  1  0  0  0  0
 15 19  1  0  0  0  0
 15 14  2  0  0  0  0
 16 15  1  0  0  0  0
 17 16  1  0  0  0  0
 17 13  2  0  0  0  0
 20 16  1  0  0  0  0
 22 21  1  0  0  0  0
 23 22  2  0  0  0  0
 24 29  1  0  0  0  0
 24 30  1  0  0  0  0
 25 24  2  0  0  0  0
 26 27  2  0  0  0  0
 26 25  1  0  0  0  0
 27 28  1  0  0  0  0
 28 22  1  0  0  0  0
 28 29  2  0  0  0  0
 31 25  1  0  0  0  0
 32 26  1  0  0  0  0
 33 32  1  0  0  0  0
 33 35  1  0  0  0  0
 34 33  2  0  0  0  0
 36 35  1  0  0  0  0
M  END
>  <minimizedAffinity>
-5.40580225

>  <minimizedRMSD>
0.332449943

$$$$
