
 OpenBabel03232520593D

 38 40  0  0  1  0  0  0  0  0999 V2000
   45.3820   32.8640   47.4950 C   0  0  0  0  0  0  0  0  0  0  0  0
   45.9310   32.6170   46.2800 C   0  0  0  0  0  0  0  0  0  0  0  0
   46.1930   31.2680   46.0220 C   0  0  0  0  0  0  0  0  0  0  0  0
   45.9270   30.2670   46.8980 N   0  0  0  0  0  0  0  0  0  0  0  0
   45.3650   30.5710   48.1300 C   0  0  0  0  0  0  0  0  0  0  0  0
   45.1100   31.8490   48.3940 N   0  0  0  0  0  0  0  0  0  0  0  0
   45.0880   29.5520   49.0730 N   0  0  0  0  0  0  0  0  0  0  0  0
   45.1450   33.8730   47.7970 H   0  0  0  0  0  0  0  0  0  0  0  0
   44.1800   29.1840   49.3860 H   0  0  0  0  0  0  0  0  0  0  0  0
   46.0290   29.2440   49.3950 H   0  0  0  0  0  0  0  0  0  0  0  0
   46.1780   33.5760   45.2570 C   0  0  2  0  0  0  0  0  0  0  0  0
   44.9620   34.6650   45.4950 C   0  0  0  0  0  0  0  0  0  0  0  0
   44.7370   35.6080   44.4350 C   0  0  0  0  0  0  0  0  0  0  0  0
   45.5360   35.5480   43.2110 C   0  0  1  0  0  0  0  0  0  0  0  0
   46.5930   34.5450   43.1560 C   0  0  0  0  0  0  0  0  0  0  0  0
   46.1470   33.3040   43.8920 C   0  0  0  0  0  0  0  0  0  0  0  0
   46.9460   34.3300   45.6050 H   0  0  0  0  0  0  0  0  0  0  0  0
   44.2830   34.8020   46.3270 H   0  0  0  0  0  0  0  0  0  0  0  0
   43.9690   36.3250   44.5500 H   0  0  0  0  0  0  0  0  0  0  0  0
   45.9580   36.5560   43.0230 H   0  0  0  0  0  0  0  0  0  0  0  0
   47.5070   34.9130   43.6560 H   0  0  0  0  0  0  0  0  0  0  0  0
   46.8690   34.3640   42.0960 H   0  0  0  0  0  0  0  0  0  0  0  0
   45.2130   32.8840   43.4650 H   0  0  0  0  0  0  0  0  0  0  0  0
   46.9960   32.6550   43.5490 H   0  0  0  0  0  0  0  0  0  0  0  0
   44.5200   35.2880   42.0570 C   0  0  0  0  0  0  0  0  0  0  0  0
   43.4550   34.4960   42.4480 F   0  0  0  0  0  0  0  0  0  0  0  0
   43.9840   36.5270   41.7230 F   0  0  0  0  0  0  0  0  0  0  0  0
   45.1940   34.8250   40.9430 F   0  0  0  0  0  0  0  0  0  0  0  0
   46.8280   30.5840   44.9090 C   0  0  0  0  0  0  0  0  0  0  0  0
   46.4760   29.9050   43.7870 C   0  0  0  0  0  0  0  0  0  0  0  0
   47.6450   29.4590   43.1600 C   0  0  0  0  0  0  0  0  0  0  0  0
   48.6460   29.8880   43.9270 N   0  0  0  0  0  0  0  0  0  0  0  0
   48.1910   30.5530   44.9620 N   0  0  0  0  0  0  0  0  0  0  0  0
   45.4160   29.8230   43.5720 H   0  0  0  0  0  0  0  0  0  0  0  0
   47.5730   28.9000   42.2550 H   0  0  0  0  0  0  0  0  0  0  0  0
   50.0450   29.6040   43.5780 C   0  0  0  0  0  2  0  0  0  0  0  0
   50.1170   28.4550   42.5870 C   0  0  0  0  0  2  0  0  0  0  0  0
   50.8610   27.6980   42.9140 H   0  0  0  0  0  0  0  0  0  0  0  0
  1  8  1  0  0  0  0
  1  6  1  0  0  0  0
  2  1  2  0  0  0  0
  3  2  1  0  0  0  0
  3  4  2  0  0  0  0
  4  5  1  0  0  0  0
  5  6  2  0  0  0  0
  5  7  1  0  0  0  0
  7  9  1  0  0  0  0
  7 10  1  0  0  0  0
 11 12  1  0  0  0  0
 11 17  1  1  0  0  0
 11  2  1  0  0  0  0
 12 18  1  0  0  0  0
 13 19  1  0  0  0  0
 13 12  2  0  0  0  0
 14 20  1  6  0  0  0
 14 13  1  0  0  0  0
 15 14  1  0  0  0  0
 15 21  1  0  0  0  0
 15 16  1  0  0  0  0
 16 11  1  0  0  0  0
 22 15  1  0  0  0  0
 23 16  1  0  0  0  0
 24 16  1  0  0  0  0
 25 26  1  0  0  0  0
 25 14  1  0  0  0  0
 27 25  1  0  0  0  0
 28 25  1  0  0  0  0
 29 33  2  0  0  0  0
 29  3  1  0  0  0  0
 30 29  1  0  0  0  0
 31 30  2  0  0  0  0
 31 32  1  0  0  0  0
 32 33  1  0  0  0  0
 34 30  1  0  0  0  0
 35 31  1  0  0  0  0
 36 32  1  0  0  0  0
 37 38  1  0  0  0  0
 37 36  1  0  0  0  0
M  END
>  <minimizedAffinity>
-5.42629862

>  <minimizedRMSD>
0.0839769095

$$$$
