
 OpenBabel03232519143D

 30 31  0  0  1  0  0  0  0  0999 V2000
   45.4830   34.6910   43.8260 C   0  0  0  0  0  0  0  0  0  0  0  0
   46.5210   34.3970   42.8940 C   0  0  0  0  0  0  0  0  0  0  0  0
   47.4960   33.4470   43.2300 C   0  0  0  0  0  0  0  0  0  0  0  0
   47.3920   32.8510   44.4460 N   0  0  0  0  0  0  0  0  0  0  0  0
   46.4240   33.1360   45.2930 C   0  0  0  0  0  0  0  0  0  0  0  0
   45.4600   34.0540   45.0020 N   0  0  0  0  0  0  0  0  0  0  0  0
   46.5520   34.9020   41.9480 H   0  0  0  0  0  0  0  0  0  0  0  0
   48.2910   33.2110   42.5350 H   0  0  0  0  0  0  0  0  0  0  0  0
   46.3150   32.5050   46.6120 C   0  0  0  0  0  0  0  0  0  0  0  0
   47.3110   31.5930   46.9910 C   0  0  0  0  0  0  0  0  0  0  0  0
   46.7240   31.1110   48.6950 S   0  0  0  0  0  0  0  0  0  0  0  0
   45.2370   32.2450   48.5590 C   0  0  0  0  0  0  0  0  0  0  0  0
   45.4040   32.6660   47.5370 N   0  0  0  0  0  0  0  0  0  0  0  0
   48.2470   31.1670   46.5310 H   0  0  0  0  0  0  0  0  0  0  0  0
   44.3130   32.5500   49.2320 H   0  0  0  0  0  0  0  0  0  0  0  0
   44.4670   35.6890   43.4570 C   0  0  1  0  0  0  0  0  0  0  0  0
   43.6390   35.6460   44.1810 H   0  0  0  0  0  0  0  0  0  0  0  0
   45.0600   37.0920   43.5460 C   0  0  0  0  0  0  0  0  0  0  0  0
   45.8150   37.1360   44.3460 H   0  0  0  0  0  0  0  0  0  0  0  0
   44.2770   37.8580   43.7290 H   0  0  0  0  0  0  0  0  0  0  0  0
   45.5770   37.3210   42.5900 H   0  0  0  0  0  0  0  0  0  0  0  0
   43.9350   35.4870   42.0820 C   0  0  0  0  0  0  0  0  0  0  0  0
   43.5730   36.4950   41.7270 H   0  0  0  0  0  0  0  0  0  0  0  0
   44.7260   35.2110   41.3750 H   0  0  0  0  0  0  0  0  0  0  0  0
   42.7960   34.6050   42.0270 N   0  0  0  0  0  0  0  0  0  0  0  0
   42.9370   33.5880   42.2160 H   0  0  0  0  0  0  0  0  0  0  0  0
   41.5140   35.0880   41.7250 C   0  0  0  0  0  0  0  0  0  0  0  0
   41.2710   36.0740   40.9980 O   0  0  0  0  0  0  0  0  0  0  0  0
   40.3590   34.5090   42.2140 O   0  0  0  0  0  0  0  0  0  0  0  0
   39.5340   34.4170   41.6070 H   0  0  0  0  0  0  0  0  0  0  0  0
  1  6  1  0  0  0  0
  2  3  1  0  0  0  0
  2  1  2  0  0  0  0
  3  4  2  0  0  0  0
  4  5  1  0  0  0  0
  5  9  1  0  0  0  0
  6  5  2  0  0  0  0
  7  2  1  0  0  0  0
  8  3  1  0  0  0  0
  9 10  2  0  0  0  0
  9 13  1  0  0  0  0
 10 11  1  0  0  0  0
 12 11  1  0  0  0  0
 12 15  1  0  0  0  0
 13 12  2  0  0  0  0
 14 10  1  0  0  0  0
 16 18  1  0  0  0  0
 16  1  1  0  0  0  0
 16 17  1  1  0  0  0
 18 20  1  0  0  0  0
 18 19  1  0  0  0  0
 21 18  1  0  0  0  0
 22 16  1  0  0  0  0
 23 22  1  0  0  0  0
 24 22  1  0  0  0  0
 25 22  1  0  0  0  0
 25 26  1  0  0  0  0
 27 25  1  0  0  0  0
 27 29  1  0  0  0  0
 28 27  2  0  0  0  0
 30 29  1  0  0  0  0
M  END
>  <minimizedAffinity>
-5.00981522

>  <minimizedRMSD>
0.978560686

$$$$
