
 OpenBabel03232516563D

 29 32  0  0  1  0  0  0  0  0999 V2000
   45.7230   34.2730   43.7070 C   0  0  0  0  0  0  0  0  0  0  0  0
   47.0040   33.9210   43.2510 C   0  0  0  0  0  0  0  0  0  0  0  0
   47.7530   32.9980   43.9740 C   0  0  0  0  0  0  0  0  0  0  0  0
   47.2000   32.4740   45.0990 N   0  0  0  0  0  0  0  0  0  0  0  0
   45.9580   32.8230   45.5270 C   0  0  0  0  0  0  0  0  0  0  0  0
   45.2500   33.7080   44.8290 N   0  0  0  0  0  0  0  0  0  0  0  0
   48.7410   32.7050   43.6510 H   0  0  0  0  0  0  0  0  0  0  0  0
   45.5610   32.3770   46.4330 H   0  0  0  0  0  0  0  0  0  0  0  0
   47.6300   34.4390   42.0860 N   0  0  0  0  0  0  0  0  0  0  0  0
   48.4360   35.5080   41.8930 C   0  0  0  0  0  0  0  0  0  0  0  0
   48.7640   35.5740   40.5730 N   0  0  0  0  0  0  0  0  0  0  0  0
   48.1750   34.5600   39.9270 C   0  0  0  0  0  0  0  0  0  0  0  0
   48.1460   34.1380   38.6250 C   0  0  0  0  0  0  0  0  0  0  0  0
   47.4290   33.0380   38.2800 N   0  0  0  0  0  0  0  0  0  0  0  0
   46.7390   32.3420   39.1950 C   0  0  0  0  0  0  0  0  0  0  0  0
   46.7880   32.7800   40.4590 N   0  0  0  0  0  0  0  0  0  0  0  0
   47.4660   33.8510   40.8750 C   0  0  0  0  0  0  0  0  0  0  0  0
   48.8730   34.8170   37.6030 N   0  0  0  0  0  0  0  0  0  0  0  0
   48.7290   36.1530   42.6880 H   0  0  0  0  0  0  0  0  0  0  0  0
   46.1560   31.4580   38.9530 H   0  0  0  0  0  0  0  0  0  0  0  0
   48.7910   35.8230   37.3530 H   0  0  0  0  0  0  0  0  0  0  0  0
   49.5960   34.4420   36.9380 H   0  0  0  0  0  0  0  0  0  0  0  0
   44.9980   35.2090   42.9310 C   0  0  2  0  0  0  0  0  0  0  0  0
   45.1220   36.4980   43.0640 O   0  0  0  0  0  0  0  0  0  0  0  0
   43.9840   35.0410   41.8540 C   0  0  0  0  0  0  0  0  0  0  0  0
   43.2990   35.8140   41.0410 C   0  0  0  0  0  0  0  0  0  0  0  0
   42.3900   35.2160   40.2210 C   0  0  0  0  0  0  0  0  0  0  0  0
   42.2210   33.8280   40.2730 C   0  0  0  0  0  0  0  0  0  0  0  0
   43.4920   33.4240   41.6180 S   0  0  0  0  0  0  0  0  0  0  0  0
  1  6  1  0  0  0  0
  2  1  2  0  0  0  0
  2  3  1  0  0  0  0
  3  4  2  0  0  0  0
  4  5  1  0  0  0  0
  5  8  1  0  0  0  0
  6  5  2  0  0  0  0
  7  3  1  0  0  0  0
  9  2  1  0  0  0  0
 10  9  1  0  0  0  0
 10 19  1  0  0  0  0
 11 10  2  0  0  0  0
 12 11  1  0  0  0  0
 12 17  1  0  0  0  0
 13 12  2  0  0  0  0
 14 13  1  0  0  0  0
 14 15  2  0  0  0  0
 15 16  1  0  0  0  0
 16 17  2  0  0  0  0
 17  9  1  0  0  0  0
 18 13  1  0  0  0  0
 20 15  1  0  0  0  0
 21 18  1  0  0  0  0
 22 18  1  0  0  0  0
 23 24  1  1  0  0  0
 23  1  1  0  0  0  0
 25 23  1  0  0  0  0
 26 25  2  0  0  0  0
 27 28  2  0  0  0  0
 27 26  1  0  0  0  0
 28 29  1  0  0  0  0
 29 25  1  0  0  0  0
M  END
>  <minimizedAffinity>
-5.79227161

>  <minimizedRMSD>
0.850779831

$$$$
