
 OpenBabel03232511553D

 31 32  0  0  0  0  0  0  0  0999 V2000
   50.7570   32.8330   41.9410 C   0  0  0  0  0  0  0  0  0  0  0  0
   50.6960   31.4250   41.8100 C   0  0  0  0  0  0  0  0  0  0  0  0
   49.5650   30.7810   42.2900 C   0  0  0  0  0  0  0  0  0  0  0  0
   48.5750   31.5320   42.8580 N   0  0  0  0  0  0  0  0  0  0  0  0
   48.6690   32.8920   42.9680 C   0  0  0  0  0  0  0  0  0  0  0  0
   49.7430   33.4960   42.5120 N   0  0  0  0  0  0  0  0  0  0  0  0
   47.5560   33.5060   43.5810 N   0  0  0  0  0  0  0  0  0  0  0  0
   47.1800   33.0050   44.7750 C   0  0  0  0  0  0  0  0  0  0  0  0
   46.0960   33.5320   45.4710 C   0  0  0  0  0  0  0  0  0  0  0  0
   45.4080   34.5840   44.9130 C   0  0  0  0  0  0  0  0  0  0  0  0
   44.4280   35.0910   45.5000 O   0  0  0  0  0  0  0  0  0  0  0  0
   45.8030   35.0800   43.7010 N   0  0  0  0  0  0  0  0  0  0  0  0
   46.8560   34.5480   43.0530 C   0  0  0  0  0  0  0  0  0  0  0  0
   47.2480   34.9810   41.9320 O   0  0  0  0  0  0  0  0  0  0  0  0
   51.6600   33.3200   41.5550 H   0  0  0  0  0  0  0  0  0  0  0  0
   51.4460   30.8150   41.3740 H   0  0  0  0  0  0  0  0  0  0  0  0
   49.4070   29.6970   42.2430 H   0  0  0  0  0  0  0  0  0  0  0  0
   47.7090   32.1770   45.2300 H   0  0  0  0  0  0  0  0  0  0  0  0
   45.7120   32.9470   46.7900 C   0  0  0  0  0  0  0  0  0  0  0  0
   44.7800   32.3730   46.7460 H   0  0  0  0  0  0  0  0  0  0  0  0
   46.5340   32.2810   47.1330 H   0  0  0  0  0  0  0  0  0  0  0  0
   45.6210   33.7670   47.5160 H   0  0  0  0  0  0  0  0  0  0  0  0
   45.0700   36.1850   43.1290 C   0  0  0  0  0  0  0  0  0  0  0  0
   44.6490   36.7900   43.9610 H   0  0  0  0  0  0  0  0  0  0  0  0
   45.7180   36.8740   42.5570 H   0  0  0  0  0  0  0  0  0  0  0  0
   43.9890   35.6160   42.2400 C   0  0  0  0  0  0  0  0  0  0  0  0
   43.9910   36.2680   41.3220 H   0  0  0  0  0  0  0  0  0  0  0  0
   44.3220   34.6120   41.9050 H   0  0  0  0  0  0  0  0  0  0  0  0
   42.7030   35.5830   42.8520 N   0  0  0  0  0  0  0  0  0  0  0  0
   42.0770   34.9770   42.2470 H   0  0  0  0  0  0  0  0  0  0  0  0
   42.7640   35.0160   43.7500 H   0  0  0  0  0  0  0  0  0  0  0  0
  1  6  1  0  0  0  0
  2  1  2  0  0  0  0
  2  3  1  0  0  0  0
  3  4  2  0  0  0  0
  4  5  1  0  0  0  0
  5  7  1  0  0  0  0
  6  5  2  0  0  0  0
  7  8  1  0  0  0  0
  8 18  1  0  0  0  0
  8  9  2  0  0  0  0
  9 19  1  0  0  0  0
 10  9  1  0  0  0  0
 10 11  2  0  0  0  0
 12 10  1  0  0  0  0
 13  7  1  0  0  0  0
 13 12  1  0  0  0  0
 14 13  2  0  0  0  0
 15  1  1  0  0  0  0
 16  2  1  0  0  0  0
 17  3  1  0  0  0  0
 19 21  1  0  0  0  0
 19 22  1  0  0  0  0
 20 19  1  0  0  0  0
 23 12  1  0  0  0  0
 23 24  1  0  0  0  0
 25 23  1  0  0  0  0
 26 29  1  0  0  0  0
 26 23  1  0  0  0  0
 27 26  1  0  0  0  0
 28 26  1  0  0  0  0
 29 31  1  0  0  0  0
 30 29  1  0  0  0  0
M  END
>  <minimizedAffinity>
-5.17081833

>  <minimizedRMSD>
0.219995394

$$$$
