
 OpenBabel03232518283D

 33 37  0  0  0  0  0  0  0  0999 V2000
   44.3960   35.8000   45.1110 C   0  0  0  0  0  0  0  0  0  0  0  0
   44.7580   35.3360   43.8580 C   0  0  0  0  0  0  0  0  0  0  0  0
   45.3800   34.0550   43.7570 C   0  0  0  0  0  0  0  0  0  0  0  0
   45.5580   33.3960   44.9610 N   0  0  0  0  0  0  0  0  0  0  0  0
   45.1930   33.8890   46.1300 C   0  0  0  0  0  0  0  0  0  0  0  0
   44.6090   35.0900   46.2320 N   0  0  0  0  0  0  0  0  0  0  0  0
   43.9230   36.7700   45.2100 H   0  0  0  0  0  0  0  0  0  0  0  0
   44.5690   35.9330   43.0010 H   0  0  0  0  0  0  0  0  0  0  0  0
   45.7180   33.6600   42.4090 C   0  0  0  0  0  0  0  0  0  0  0  0
   45.0100   32.7150   41.7700 N   0  0  0  0  0  0  0  0  0  0  0  0
   45.2720   32.3060   40.5240 C   0  0  0  0  0  0  0  0  0  0  0  0
   46.2790   32.8080   39.7900 N   0  0  0  0  0  0  0  0  0  0  0  0
   47.0340   33.7550   40.3500 C   0  0  0  0  0  0  0  0  0  0  0  0
   48.0780   34.2970   39.6290 C   0  0  0  0  0  0  0  0  0  0  0  0
   48.8920   35.2860   40.1730 C   0  0  0  0  0  0  0  0  0  0  0  0
   49.7040   35.7130   39.6230 H   0  0  0  0  0  0  0  0  0  0  0  0
   48.5910   35.6900   41.4760 C   0  0  0  0  0  0  0  0  0  0  0  0
   49.2400   36.4590   41.8700 H   0  0  0  0  0  0  0  0  0  0  0  0
   47.5420   35.1220   42.1530 C   0  0  0  0  0  0  0  0  0  0  0  0
   46.7380   34.1550   41.6350 C   0  0  0  0  0  0  0  0  0  0  0  0
   45.4900   32.9150   47.5860 S   0  0  0  0  0  0  0  0  0  0  0  0
   48.7790   29.4350   48.4990 N   0  0  0  0  0  0  0  0  0  0  0  0
   48.7480   30.4470   49.3760 C   0  0  0  0  0  0  0  0  0  0  0  0
   47.8080   31.3360   49.0240 N   0  0  0  0  0  0  0  0  0  0  0  0
   47.2090   30.9010   47.8900 C   0  0  0  0  0  0  0  0  0  0  0  0
   46.1910   31.3500   47.0440 C   0  0  0  0  0  0  0  0  0  0  0  0
   45.8440   30.6400   45.9710 N   0  0  0  0  0  0  0  0  0  0  0  0
   46.5050   29.4730   45.7300 C   0  0  0  0  0  0  0  0  0  0  0  0
   47.4960   28.9830   46.5090 N   0  0  0  0  0  0  0  0  0  0  0  0
   47.8360   29.7160   47.5930 C   0  0  0  0  0  0  0  0  0  0  0  0
   49.4090   28.6120   48.5300 H   0  0  0  0  0  0  0  0  0  0  0  0
   49.3950   30.5190   50.2360 H   0  0  0  0  0  0  0  0  0  0  0  0
   46.1880   28.9310   44.8480 H   0  0  0  0  0  0  0  0  0  0  0  0
  1  7  1  0  0  0  0
  1  6  1  0  0  0  0
  2  1  2  0  0  0  0
  3  2  1  0  0  0  0
  3  4  2  0  0  0  0
  4  5  1  0  0  0  0
  5  6  2  0  0  0  0
  5 21  1  0  0  0  0
  8  2  1  0  0  0  0
  9  3  1  0  0  0  0
 10  9  1  0  0  0  0
 11 10  2  0  0  0  0
 12 13  2  0  0  0  0
 12 11  1  0  0  0  0
 13 20  1  0  0  0  0
 14 15  2  0  0  0  0
 14 13  1  0  0  0  0
 15 17  1  0  0  0  0
 16 15  1  0  0  0  0
 17 18  1  0  0  0  0
 17 19  2  0  0  0  0
 20 19  1  0  0  0  0
 20  9  2  0  0  0  0
 22 31  1  0  0  0  0
 22 23  1  0  0  0  0
 23 32  1  0  0  0  0
 24 23  2  0  0  0  0
 25 24  1  0  0  0  0
 26 21  1  0  0  0  0
 26 25  2  0  0  0  0
 27 26  1  0  0  0  0
 28 27  2  0  0  0  0
 28 29  1  0  0  0  0
 29 30  2  0  0  0  0
 30 25  1  0  0  0  0
 30 22  1  0  0  0  0
 33 28  1  0  0  0  0
M  END
>  <minimizedAffinity>
-6.32883453

>  <minimizedRMSD>
1.49543834

$$$$
