REMARK  Name = 
REMARK  4 active torsions:
REMARK  status: ('A' for Active; 'I' for Inactive)
REMARK    1  A    between atoms: C_1  and  C_18
REMARK    2  A    between atoms: C_6  and  N_7
REMARK    3  A    between atoms: C_9  and  C_10
REMARK    4  A    between atoms: C_20  and  C_33
REMARK                            x       y       z     vdW  Elec       q    Type
REMARK                         _______ _______ _______ _____ _____    ______ ____
ROOT
ATOM      1  C   UNL     1      46.408  34.676  42.158  0.00  0.00    +0.000 A 
ATOM      2  C   UNL     1      47.717  35.034  42.038  0.00  0.00    +0.000 A 
ATOM      3  C   UNL     1      48.427  34.824  40.850  0.00  0.00    +0.000 A 
ATOM      4  C   UNL     1      47.777  34.232  39.758  0.00  0.00    +0.000 A 
ATOM      5  C   UNL     1      46.460  33.880  39.902  0.00  0.00    +0.000 A 
ATOM      6  C   UNL     1      45.786  34.102  41.091  0.00  0.00    +0.000 A 
ATOM      7  H   UNL     1      48.277  35.495  42.846  0.00  0.00    +0.000 HD
ATOM      8  H   UNL     1      49.450  35.086  40.708  0.00  0.00    +0.000 HD
ATOM      9  H   UNL     1      48.264  34.041  38.813  0.00  0.00    +0.000 HD
ATOM     10  H   UNL     1      45.928  33.417  39.066  0.00  0.00    +0.000 HD
ENDROOT
BRANCH   6  11
ATOM     11  N   UNL     1      44.429  33.718  41.196  0.00  0.00    +0.000 N 
ATOM     12  C   UNL     1      43.617  34.683  40.663  0.00  0.00    +0.000 A 
ATOM     13  C   UNL     1      42.227  34.504  40.667  0.00  0.00    +0.000 A 
ATOM     14  C   UNL     1      41.718  33.341  41.216  0.00  0.00    +0.000 A 
ATOM     15  O   UNL     1      40.485  33.127  41.246  0.00  0.00    +0.000 OA
ATOM     16  N   UNL     1      42.557  32.429  41.724  0.00  0.00    +0.000 N 
ATOM     17  C   UNL     1      43.902  32.593  41.726  0.00  0.00    +0.000 A 
ATOM     18  O   UNL     1      44.756  31.802  42.175  0.00  0.00    +0.000 OA
ATOM     19  H   UNL     1      43.919  35.599  40.227  0.00  0.00    +0.000 HD
ATOM     20  H   UNL     1      42.244  31.514  42.160  0.00  0.00    +0.000 HD
BRANCH  13  21
ATOM     21  C   UNL     1      41.304  35.523  40.100  0.00  0.00    +0.000 C 
ATOM     22  H   UNL     1      41.798  36.187  39.387  0.00  0.00    +0.000 HD
ATOM     23  H   UNL     1      40.443  34.994  39.683  0.00  0.00    +0.000 HD
ATOM     24  H   UNL     1      40.999  36.162  40.979  0.00  0.00    +0.000 HD
ENDBRANCH  13  21
ENDBRANCH   6  11
BRANCH   1  27
ATOM     25  C   UNL     1      44.438  36.127  45.013  0.00  0.00    +0.000 A 
ATOM     26  C   UNL     1      44.995  36.015  43.755  0.00  0.00    +0.000 A 
ATOM     27  C   UNL     1      45.759  34.925  43.445  0.00  0.00    +0.000 A 
ATOM     28  N   UNL     1      45.917  34.003  44.428  0.00  0.00    +0.000 NA
ATOM     29  C   UNL     1      45.354  34.138  45.667  0.00  0.00    +0.000 A 
ATOM     30  N   UNL     1      44.630  35.200  45.922  0.00  0.00    +0.000 NA
ATOM     31  H   UNL     1      43.827  36.958  45.322  0.00  0.00    +0.000 HD
ATOM     32  H   UNL     1      44.845  36.770  43.005  0.00  0.00    +0.000 HD
BRANCH  29  33
ATOM     33  C   UNL     1      45.841  32.903  46.218  0.00  0.00    +0.000 A 
ATOM     34  N   UNL     1      46.254  31.857  46.685  0.00  0.00    +0.000 NA
ATOM     35  C   UNL     1      46.627  30.869  47.283  0.00  0.00    +0.000 A 
ATOM     36  N   UNL     1      46.995  30.317  46.122  0.00  0.00    +0.000 NA
ATOM     37  C   UNL     1      46.839  30.960  44.922  0.00  0.00    +0.000 A 
ATOM     38  C   UNL     1      47.291  30.195  43.815  0.00  0.00    +0.000 A 
ATOM     39  C   UNL     1      47.142  30.811  42.610  0.00  0.00    +0.000 A 
ATOM     40  H   UNL     1      47.491  30.211  41.788  0.00  0.00    +0.000 HD
ATOM     41  C   UNL     1      46.610  32.060  42.406  0.00  0.00    +0.000 A 
ATOM     42  H   UNL     1      46.494  32.539  41.465  0.00  0.00    +0.000 HD
ATOM     43  C   UNL     1      46.228  32.648  43.589  0.00  0.00    +0.000 A 
ATOM     44  C   UNL     1      46.257  32.263  44.971  0.00  0.00    +0.000 A 
ENDBRANCH  29  33
ENDBRANCH   1  27
TORSDOF 4
