
 OpenBabel03232517073D

 30 31  0  0  1  0  0  0  0  0999 V2000
   46.3430   35.0490   42.2820 C   0  0  1  0  0  0  0  0  0  0  0  0
   45.9600   36.1110   42.1490 H   0  0  0  0  0  0  0  0  0  0  0  0
   45.9700   34.7420   43.6790 C   0  0  0  0  0  0  0  0  0  0  0  0
   46.6660   33.6790   44.2200 C   0  0  0  0  0  0  0  0  0  0  0  0
   46.3740   33.2540   45.5050 C   0  0  0  0  0  0  0  0  0  0  0  0
   45.3730   33.9480   46.1860 N   0  0  0  0  0  0  0  0  0  0  0  0
   44.7160   34.9770   45.6410 C   0  0  0  0  0  0  0  0  0  0  0  0
   45.0250   35.3480   44.4120 N   0  0  0  0  0  0  0  0  0  0  0  0
   47.4690   33.0260   43.9270 H   0  0  0  0  0  0  0  0  0  0  0  0
   46.7440   32.4870   46.1360 H   0  0  0  0  0  0  0  0  0  0  0  0
   43.9440   35.5050   46.1850 H   0  0  0  0  0  0  0  0  0  0  0  0
   47.8320   35.2100   42.1310 C   0  0  0  0  0  0  0  0  0  0  0  0
   48.2760   34.4040   42.7860 H   0  0  0  0  0  0  0  0  0  0  0  0
   48.1600   36.1450   42.6340 H   0  0  0  0  0  0  0  0  0  0  0  0
   48.1900   35.2270   41.1190 H   0  0  0  0  0  0  0  0  0  0  0  0
   45.6620   34.2480   41.2570 C   0  0  1  0  0  0  0  0  0  0  0  0
   45.3180   33.3580   41.9000 H   0  0  0  0  0  0  0  0  0  0  0  0
   44.5060   34.9740   40.7580 N   0  0  0  0  0  0  0  0  0  0  0  0
   43.2660   34.8290   41.4320 C   0  0  0  0  0  0  0  0  0  0  0  0
   42.9930   33.7650   42.1400 N   0  0  0  0  0  0  0  0  0  0  0  0
   42.2190   35.8030   41.4080 N   0  0  0  0  0  0  0  0  0  0  0  0
   43.6130   32.9720   42.2640 H   0  0  0  0  0  0  0  0  0  0  0  0
   44.5250   35.6100   39.9410 H   0  0  0  0  0  0  0  0  0  0  0  0
   41.6330   35.9320   40.5530 H   0  0  0  0  0  0  0  0  0  0  0  0
   41.8580   36.4850   42.0940 H   0  0  0  0  0  0  0  0  0  0  0  0
   46.2300   33.5470   40.1260 C   0  0  0  0  0  0  0  0  0  0  0  0
   46.8360   32.1890   40.3140 C   0  0  0  0  0  0  0  0  0  0  0  0
   47.5910   32.0140   38.9950 C   0  0  0  0  0  0  0  0  0  0  0  0
   48.0240   33.4360   38.6300 C   0  0  0  0  0  0  0  0  0  0  0  0
   47.5900   34.2770   39.8170 C   0  0  0  0  0  0  0  0  0  0  0  0
  1  2  1  6  0  0  0
  1  3  1  0  0  0  0
  3  4  2  0  0  0  0
  3  8  1  0  0  0  0
  4  5  1  0  0  0  0
  5 10  1  0  0  0  0
  5  6  2  0  0  0  0
  7 11  1  0  0  0  0
  7  6  1  0  0  0  0
  8  7  2  0  0  0  0
  9  4  1  0  0  0  0
 12  1  1  0  0  0  0
 12 14  1  0  0  0  0
 12 13  1  0  0  0  0
 15 12  1  0  0  0  0
 16 17  1  1  0  0  0
 16  1  1  0  0  0  0
 18 16  1  0  0  0  0
 18 19  1  0  0  0  0
 19 20  2  0  0  0  0
 20 22  1  0  0  0  0
 21 19  1  0  0  0  0
 21 25  1  0  0  0  0
 23 18  1  0  0  0  0
 24 21  1  0  0  0  0
 26 27  1  0  0  0  0
 26 16  1  0  0  0  0
 28 27  1  0  0  0  0
 29 28  1  0  0  0  0
 29 30  1  0  0  0  0
 30 26  1  0  0  0  0
M  END
>  <minimizedAffinity>
-5.1115675

>  <minimizedRMSD>
1.89654994

$$$$
