REMARK  Name = 
REMARK  3 active torsions:
REMARK  status: ('A' for Active; 'I' for Inactive)
REMARK    1  A    between atoms: C_1  and  C_8
REMARK    2  A    between atoms: C_4  and  C_14
REMARK    3  A    between atoms: C_9  and  C_29
REMARK                            x       y       z     vdW  Elec       q    Type
REMARK                         _______ _______ _______ _____ _____    ______ ____
ROOT
ATOM      1  C   UNL     1      45.299  32.892  47.525  0.00  0.00    +0.000 A 
ATOM      2  C   UNL     1      45.964  32.656  46.319  0.00  0.00    +0.000 A 
ATOM      3  C   UNL     1      46.336  31.355  46.121  0.00  0.00    +0.000 A 
ATOM      4  N   UNL     1      46.041  30.413  47.051  0.00  0.00    +0.000 NA
ATOM      5  C   UNL     1      45.399  30.660  48.207  0.00  0.00    +0.000 A 
ATOM      6  N   UNL     1      45.027  31.907  48.446  0.00  0.00    +0.000 NA
ATOM      7  N   UNL     1      45.182  29.608  49.140  0.00  0.00    +0.000 N 
ATOM      8  H   UNL     1      44.968  33.858  47.802  0.00  0.00    +0.000 HD
ATOM      9  H   UNL     1      44.271  29.527  49.630  0.00  0.00    +0.000 HD
ATOM     10  H   UNL     1      45.965  28.931  49.310  0.00  0.00    +0.000 HD
ENDROOT
BRANCH   2  11
ATOM     11  C   UNL     1      46.160  33.635  45.300  0.00  0.00    +0.000 C 
ATOM     12  C   UNL     1      44.963  34.687  45.474  0.00  0.00    +0.000 C 
ATOM     13  C   UNL     1      44.710  35.585  44.383  0.00  0.00    +0.000 C 
ATOM     14  C   UNL     1      45.520  35.520  43.171  0.00  0.00    +0.000 C 
ATOM     15  C   UNL     1      46.637  34.573  43.185  0.00  0.00    +0.000 C 
ATOM     16  C   UNL     1      46.172  33.307  43.921  0.00  0.00    +0.000 C 
ATOM     17  H   UNL     1      46.952  34.370  45.622  0.00  0.00    +0.000 HD
ATOM     18  H   UNL     1      44.253  34.897  46.266  0.00  0.00    +0.000 HD
ATOM     19  H   UNL     1      43.915  36.308  44.458  0.00  0.00    +0.000 HD
ATOM     20  H   UNL     1      45.888  36.546  42.957  0.00  0.00    +0.000 HD
ATOM     21  H   UNL     1      47.481  34.999  43.780  0.00  0.00    +0.000 HD
ATOM     22  H   UNL     1      47.010  34.386  42.182  0.00  0.00    +0.000 HD
ATOM     23  H   UNL     1      45.018  33.294  43.590  0.00  0.00    +0.000 HD
ATOM     24  H   UNL     1      46.517  32.545  43.320  0.00  0.00    +0.000 HD
BRANCH  14  25
ATOM     25  C   UNL     1      44.571  35.187  41.994  0.00  0.00    +0.000 C 
ATOM     26  F   UNL     1      43.584  34.293  42.330  0.00  0.00    +0.000 F 
ATOM     27  F   UNL     1      43.929  36.382  41.661  0.00  0.00    +0.000 F 
ATOM     28  F   UNL     1      45.305  34.791  40.890  0.00  0.00    +0.000 F 
ENDBRANCH  14  25
ENDBRANCH   2  11
BRANCH   3  29
ATOM     29  C   UNL     1      47.207  30.764  45.082  0.00  0.00    +0.000 A 
ATOM     30  N   UNL     1      46.880  30.316  43.904  0.00  0.00    +0.000 NA
ATOM     31  C   UNL     1      47.575  29.743  42.958  0.00  0.00    +0.000 A 
ATOM     32  N   UNL     1      48.882  29.559  43.201  0.00  0.00    +0.000 NA
ATOM     33  C   UNL     1      49.407  29.962  44.383  0.00  0.00    +0.000 A 
ATOM     34  C   UNL     1      50.735  29.703  44.550  0.00  0.00    +0.000 A 
ATOM     35  C   UNL     1      51.331  30.050  45.739  0.00  0.00    +0.000 A 
ATOM     36  H   UNL     1      52.382  29.834  45.842  0.00  0.00    +0.000 HD
ATOM     37  C   UNL     1      50.537  30.650  46.715  0.00  0.00    +0.000 A 
ATOM     38  H   UNL     1      51.087  30.885  47.612  0.00  0.00    +0.000 HD
ATOM     39  C   UNL     1      49.205  30.865  46.438  0.00  0.00    +0.000 A 
ATOM     40  C   UNL     1      48.550  30.549  45.280  0.00  0.00    +0.000 A 
ENDBRANCH   3  29
TORSDOF 3
