REMARK  Name = 
REMARK  4 active torsions:
REMARK  status: ('A' for Active; 'I' for Inactive)
REMARK    1  A    between atoms: C_2  and  S_13
REMARK    2  A    between atoms: C_5  and  C_7
REMARK    3  A    between atoms: S_13  and  C_17
REMARK    4  A    between atoms: C_19  and  C_35
REMARK                            x       y       z     vdW  Elec       q    Type
REMARK                         _______ _______ _______ _____ _____    ______ ____
ROOT
ATOM      1  N   UNL     1      38.592  33.735  38.403  0.00  0.00    +0.000 NA
ATOM      2  C   UNL     1      38.464  33.953  39.804  0.00  0.00    +0.000 C 
ATOM      3  C   UNL     1      39.708  33.544  40.550  0.00  0.00    +0.000 C 
ATOM      4  C   UNL     1      40.864  34.334  40.017  0.00  0.00    +0.000 C 
ATOM      5  C   UNL     1      40.493  35.213  38.862  0.00  0.00    +0.000 C 
ATOM      6  C   UNL     1      39.708  34.463  37.804  0.00  0.00    +0.000 C 
ATOM      7  H   UNL     1      37.678  33.945  37.968  0.00  0.00    +0.000 HD
ATOM      8  H   UNL     1      38.343  35.051  39.999  0.00  0.00    +0.000 HD
ATOM      9  H   UNL     1      37.560  33.460  40.157  0.00  0.00    +0.000 HD
ATOM     10  H   UNL     1      39.509  33.743  41.641  0.00  0.00    +0.000 HD
ATOM     11  H   UNL     1      39.831  32.443  40.476  0.00  0.00    +0.000 HD
ATOM     12  H   UNL     1      41.614  33.577  39.689  0.00  0.00    +0.000 HD
ATOM     13  H   UNL     1      39.913  36.081  39.181  0.00  0.00    +0.000 HD
ATOM     14  H   UNL     1      41.435  35.562  38.400  0.00  0.00    +0.000 HD
ATOM     15  H   UNL     1      39.232  35.242  37.176  0.00  0.00    +0.000 HD
ENDROOT
BRANCH   6  16
ATOM     16  C   UNL     1      40.603  33.550  37.050  0.00  0.00    +0.000 A 
ATOM     17  N   UNL     1      41.901  33.973  37.007  0.00  0.00    +0.000 NA
ATOM     18  C   UNL     1      42.840  33.244  36.360  0.00  0.00    +0.000 A 
ATOM     19  N   UNL     1      42.565  32.078  35.728  0.00  0.00    +0.000 NA
ATOM     20  C   UNL     1      41.295  31.658  35.765  0.00  0.00    +0.000 A 
ATOM     21  C   UNL     1      40.847  30.492  35.170  0.00  0.00    +0.000 A 
ATOM     22  C   UNL     1      39.532  30.064  35.211  0.00  0.00    +0.000 A 
ATOM     23  H   UNL     1      39.241  29.137  34.724  0.00  0.00    +0.000 HD
ATOM     24  C   UNL     1      38.590  30.825  35.879  0.00  0.00    +0.000 A 
ATOM     25  H   UNL     1      37.568  30.481  35.904  0.00  0.00    +0.000 HD
ATOM     26  C   UNL     1      38.990  32.001  36.491  0.00  0.00    +0.000 A 
ATOM     27  C   UNL     1      40.304  32.366  36.412  0.00  0.00    +0.000 A 
ENDBRANCH   6  16
BRANCH   4  28
ATOM     28  S   UNL     1      41.552  35.302  41.358  0.00  0.00    +0.000 S 
BRANCH  28  30
ATOM     29  C   UNL     1      44.011  35.487  42.639  0.00  0.00    +0.000 A 
ATOM     30  C   UNL     1      43.322  35.022  41.523  0.00  0.00    +0.000 A 
ATOM     31  C   UNL     1      44.032  34.351  40.571  0.00  0.00    +0.000 A 
ATOM     32  N   UNL     1      45.370  34.143  40.706  0.00  0.00    +0.000 NA
ATOM     33  C   UNL     1      46.014  34.612  41.810  0.00  0.00    +0.000 A 
ATOM     34  N   UNL     1      45.341  35.279  42.771  0.00  0.00    +0.000 NA
ATOM     35  H   UNL     1      43.494  36.021  43.416  0.00  0.00    +0.000 HD
ATOM     36  H   UNL     1      43.593  33.962  39.687  0.00  0.00    +0.000 HD
BRANCH  33  37
ATOM     37  C   UNL     1      47.444  34.431  42.031  0.00  0.00    +0.000 A 
ATOM     38  C   UNL     1      48.299  35.489  41.937  0.00  0.00    +0.000 A 
ATOM     39  C   UNL     1      49.661  35.358  42.139  0.00  0.00    +0.000 A 
ATOM     40  C   UNL     1      50.191  34.120  42.449  0.00  0.00    +0.000 A 
ATOM     41  C   UNL     1      49.296  33.054  42.540  0.00  0.00    +0.000 A 
ATOM     42  N   UNL     1      47.974  33.219  42.336  0.00  0.00    +0.000 NA
ATOM     43  H   UNL     1      47.936  36.478  41.697  0.00  0.00    +0.000 HD
ATOM     44  H   UNL     1      50.355  36.171  42.072  0.00  0.00    +0.000 HD
ATOM     45  H   UNL     1      51.222  33.883  42.630  0.00  0.00    +0.000 HD
ATOM     46  H   UNL     1      49.615  32.049  42.778  0.00  0.00    +0.000 HD
ENDBRANCH  33  37
ENDBRANCH  28  30
ENDBRANCH   4  28
TORSDOF 4
