
     RDKit          3D

 49 53  0  0  0  0  0  0  0  0999 V2000
   44.0112   35.4873   42.6390 C   0  0  0  0  0  0  0  0  0  0  0  0
   43.3215   35.0217   41.5226 C   0  0  0  0  0  0  0  0  0  0  0  0
   44.0319   34.3510   40.5705 C   0  0  0  0  0  0  0  0  0  0  0  0
   45.3699   34.1431   40.7060 N   0  0  0  0  0  0  0  0  0  0  0  0
   46.0135   34.6118   41.8103 C   0  0  0  0  0  0  0  0  0  0  0  0
   45.3406   35.2792   42.7707 N   0  0  0  0  0  0  0  0  0  0  0  0
   47.4436   34.4312   42.0313 C   0  0  0  0  0  0  0  0  0  0  0  0
   48.2991   35.4892   41.9366 C   0  0  0  0  0  0  0  0  0  0  0  0
   49.6609   35.3577   42.1394 C   0  0  0  0  0  0  0  0  0  0  0  0
   50.1915   34.1202   42.4494 C   0  0  0  0  0  0  0  0  0  0  0  0
   49.2964   33.0545   42.5404 C   0  0  0  0  0  0  0  0  0  0  0  0
   47.9742   33.2187   42.3364 N   0  0  0  0  0  0  0  0  0  0  0  0
   41.5520   35.3020   41.3577 S   0  0  0  0  0  0  0  0  0  0  0  0
   38.5918   33.7346   38.4026 N   0  0  0  0  0  0  0  0  0  0  0  0
   38.4637   33.9530   39.8043 C   0  0  0  0  0  0  0  0  0  0  0  0
   39.7081   33.5444   40.5500 C   0  0  0  0  0  0  0  0  0  0  0  0
   40.8641   34.3345   40.0165 C   0  0  1  0  0  0  0  0  0  0  0  0
   40.4930   35.2126   38.8621 C   0  0  0  0  0  0  0  0  0  0  0  0
   39.7081   34.4633   37.8042 C   0  0  1  0  0  0  0  0  0  0  0  0
   43.4940   36.0213   43.4155 H   0  0  0  0  0  0  0  0  0  0  0  0
   43.5933   33.9620   39.6873 H   0  0  0  0  0  0  0  0  0  0  0  0
   47.9364   36.4780   41.6970 H   0  0  0  0  0  0  0  0  0  0  0  0
   50.3552   36.1710   42.0715 H   0  0  0  0  0  0  0  0  0  0  0  0
   51.2223   33.8826   42.6298 H   0  0  0  0  0  0  0  0  0  0  0  0
   49.6146   32.0494   42.7775 H   0  0  0  0  0  0  0  0  0  0  0  0
   37.6783   33.9454   37.9680 H   0  0  0  0  0  0  0  0  0  0  0  0
   38.3434   35.0514   39.9991 H   0  0  0  0  0  0  0  0  0  0  0  0
   37.5599   33.4600   40.1573 H   0  0  0  0  0  0  0  0  0  0  0  0
   39.5087   33.7429   41.6408 H   0  0  0  0  0  0  0  0  0  0  0  0
   39.8309   32.4434   40.4757 H   0  0  0  0  0  0  0  0  0  0  0  0
   41.6136   33.5773   39.6886 H   0  0  0  0  0  0  0  0  0  0  0  0
   39.9129   36.0806   39.1814 H   0  0  0  0  0  0  0  0  0  0  0  0
   41.4349   35.5622   38.3995 H   0  0  0  0  0  0  0  0  0  0  0  0
   39.2318   35.2422   37.1760 H   0  0  0  0  0  0  0  0  0  0  0  0
   40.6027   33.5499   37.0500 C   0  0  0  0  0  0  0  0  0  0  0  0
   41.9014   33.9726   37.0073 N   0  0  0  0  0  0  0  0  0  0  0  0
   42.8403   33.2439   36.3600 C   0  0  0  0  0  0  0  0  0  0  0  0
   42.5647   32.0781   35.7276 N   0  0  0  0  0  0  0  0  0  0  0  0
   41.2950   31.6582   35.7652 C   0  0  0  0  0  0  0  0  0  0  0  0
   40.8468   30.4920   35.1701 C   0  0  0  0  0  0  0  0  0  0  0  0
   39.5316   30.0636   35.2114 C   0  0  0  0  0  0  0  0  0  0  0  0
   39.2414   29.1365   34.7236 H   0  0  0  0  0  0  0  0  0  0  0  0
   38.5901   30.8246   35.8785 C   0  0  0  0  0  0  0  0  0  0  0  0
   37.5682   30.4812   35.9042 H   0  0  0  0  0  0  0  0  0  0  0  0
   38.9899   32.0009   36.4906 C   0  0  0  0  0  0  0  0  0  0  0  0
   40.3036   32.3660   36.4119 C   0  0  0  0  0  0  0  0  0  0  0  0
   43.8775   33.5582   36.3122 H   0  0  0  0  0  0  0  0  0  0  0  0
   41.5745   29.8747   34.6372 H   0  0  0  0  0  0  0  0  0  0  0  0
   38.2393   32.5651   36.9949 H   0  0  0  0  0  0  0  0  0  0  0  0
  1  6  2  0
  2  1  1  0
  3  4  1  0
  3  2  2  0
  4  5  2  0
  5  7  1  0
  5  6  1  0
  7 12  1  0
  8  7  2  0
  8  9  1  0
  9 10  2  0
 10 11  1  0
 12 11  2  0
 13  2  1  0
 14 15  1  0
 15 16  1  0
 17 16  1  0
 17 13  1  0
 18 17  1  0
 19 14  1  0
 19 18  1  0
  1 20  1  0
  3 21  1  0
  8 22  1  0
  9 23  1  0
 10 24  1  0
 11 25  1  0
 14 26  1  0
 15 27  1  0
 15 28  1  0
 16 29  1  0
 16 30  1  0
 17 31  1  6
 18 32  1  0
 18 33  1  0
 19 34  1  6
 35 36  2  0
 36 37  1  0
 37 38  2  0
 38 39  1  0
 39 40  2  0
 40 41  1  0
 41 42  1  0
 41 43  2  0
 43 44  1  0
 43 45  1  0
 45 46  2  0
 46 35  1  0
 46 39  1  0
 37 47  1  0
 40 48  1  0
 45 49  1  0
 19 35  1  0
M  ISO  8  20  14  21  14  22  14  23  14  24  14  25  14  26   5  27  13
M  ISO  8  28  13  29  13  30  13  31  13  32  13  33  13  34  13  42  16
M  ISO  1  44  16
M  END
>  <DihAtoms>  (1) 
13,18,34,35

>  <DihDeg>  (1) 
-31.15937576566382

$$$$
