
 OpenBabel03232515273D

 20 21  0  0  1  0  0  0  0  0999 V2000
   47.9590   35.0010   41.6730 C   0  0  2  0  0  0  0  0  0  0  0  0
   47.6810   35.9430   41.1500 H   0  0  0  0  0  0  0  0  0  0  0  0
   45.8620   35.5190   42.8600 C   0  0  0  0  0  0  0  0  0  0  0  0
   47.0460   34.7650   42.7630 C   0  0  0  0  0  0  0  0  0  0  0  0
   47.2630   33.8180   43.7570 C   0  0  0  0  0  0  0  0  0  0  0  0
   46.3500   33.6680   44.7480 N   0  0  0  0  0  0  0  0  0  0  0  0
   45.2190   34.4190   44.8000 C   0  0  0  0  0  0  0  0  0  0  0  0
   44.9790   35.3480   43.8490 N   0  0  0  0  0  0  0  0  0  0  0  0
   45.6530   36.2730   42.1010 H   0  0  0  0  0  0  0  0  0  0  0  0
   48.1330   33.2130   43.7540 H   0  0  0  0  0  0  0  0  0  0  0  0
   44.4750   34.3170   45.5830 H   0  0  0  0  0  0  0  0  0  0  0  0
   47.9180   33.9350   40.6050 C   0  0  0  0  0  0  0  0  0  0  0  0
   48.1190   34.4290   39.2120 C   0  0  0  0  0  0  0  0  0  0  0  0
   48.1150   33.0800   38.4750 C   0  0  0  0  0  0  0  0  0  0  0  0
   49.1040   32.3240   39.3370 C   0  0  0  0  0  0  0  0  0  0  0  0
   48.9810   32.9080   40.7500 C   0  0  0  0  0  0  0  0  0  0  0  0
   49.3500   35.1830   42.2090 C   0  0  0  0  0  0  0  0  0  0  0  0
   50.0460   35.4170   41.3690 H   0  0  0  0  0  0  0  0  0  0  0  0
   49.7530   34.2670   42.6810 H   0  0  0  0  0  0  0  0  0  0  0  0
   49.3440   36.0500   42.8990 H   0  0  0  0  0  0  0  0  0  0  0  0
  1  2  1  6  0  0  0
  1 17  1  0  0  0  0
  1  4  1  0  0  0  0
  3  8  1  0  0  0  0
  4  3  2  0  0  0  0
  4  5  1  0  0  0  0
  5  6  2  0  0  0  0
  6  7  1  0  0  0  0
  7 11  1  0  0  0  0
  8  7  2  0  0  0  0
  9  3  1  0  0  0  0
 10  5  1  0  0  0  0
 12 16  1  0  0  0  0
 12  1  1  0  0  0  0
 13 12  1  0  0  0  0
 14 13  1  0  0  0  0
 14 15  1  0  0  0  0
 15 16  1  0  0  0  0
 17 19  1  0  0  0  0
 17 20  1  0  0  0  0
 18 17  1  0  0  0  0
M  END
>  <minimizedAffinity>
-4.1858573

>  <minimizedRMSD>
1.73387337

$$$$
