
 OpenBabel03232520333D

 45 49  0  0  1  0  0  0  0  0999 V2000
   46.8840   34.5370   41.3450 C   0  0  0  0  0  0  0  0  0  0  0  0
   48.1720   34.9250   40.9900 C   0  0  0  0  0  0  0  0  0  0  0  0
   48.4320   34.5950   39.7390 N   0  0  0  0  0  0  0  0  0  0  0  0
   47.3270   33.9890   39.2590 C   0  0  0  0  0  0  0  0  0  0  0  0
   47.0650   33.4450   38.0010 C   0  0  0  0  0  0  0  0  0  0  0  0
   45.8500   32.8790   37.7630 C   0  0  0  0  0  0  0  0  0  0  0  0
   44.8330   32.7960   38.6860 C   0  0  0  0  0  0  0  0  0  0  0  0
   45.1400   33.3470   39.9200 C   0  0  0  0  0  0  0  0  0  0  0  0
   46.3340   33.9300   40.2290 C   0  0  0  0  0  0  0  0  0  0  0  0
   49.3040   34.7360   39.1470 H   0  0  0  0  0  0  0  0  0  0  0  0
   47.8220   33.4750   37.2180 H   0  0  0  0  0  0  0  0  0  0  0  0
   45.6750   32.4660   36.7750 H   0  0  0  0  0  0  0  0  0  0  0  0
   43.8940   32.3480   38.4760 H   0  0  0  0  0  0  0  0  0  0  0  0
   44.3960   33.3300   40.7220 H   0  0  0  0  0  0  0  0  0  0  0  0
   44.7570   36.0000   44.0360 C   0  0  0  0  0  0  0  0  0  0  0  0
   45.4000   35.8370   42.7990 C   0  0  0  0  0  0  0  0  0  0  0  0
   46.2100   34.7160   42.6330 C   0  0  0  0  0  0  0  0  0  0  0  0
   46.3530   33.8250   43.6610 N   0  0  0  0  0  0  0  0  0  0  0  0
   45.7030   34.0410   44.8340 C   0  0  0  0  0  0  0  0  0  0  0  0
   44.9110   35.1180   45.0260 N   0  0  0  0  0  0  0  0  0  0  0  0
   44.1260   36.8770   44.1640 H   0  0  0  0  0  0  0  0  0  0  0  0
   45.3010   36.5240   41.9820 H   0  0  0  0  0  0  0  0  0  0  0  0
   45.9220   33.2450   45.5390 H   0  0  0  0  0  0  0  0  0  0  0  0
   49.0970   35.6170   41.9170 C   0  0  0  0  0  0  0  0  0  0  0  0
   48.5110   36.2780   42.6040 H   0  0  0  0  0  0  0  0  0  0  0  0
   49.7830   36.2600   41.3030 H   0  0  0  0  0  0  0  0  0  0  0  0
   49.8520   34.6530   42.7770 C   0  0  0  0  0  0  0  0  0  0  0  0
   50.7050   35.2370   43.2280 H   0  0  0  0  0  0  0  0  0  0  0  0
   49.2520   34.3050   43.6440 H   0  0  0  0  0  0  0  0  0  0  0  0
   50.4640   33.5020   42.0390 C   0  0  1  0  0  0  0  0  0  0  0  0
   51.0930   32.3580   42.6870 C   0  0  0  0  0  0  0  0  0  0  0  0
   49.6930   32.1620   42.2040 C   0  0  2  0  0  0  0  0  0  0  0  0
   50.7470   33.7040   40.9890 H   0  0  0  0  0  0  0  0  0  0  0  0
   51.9130   31.8360   42.1440 H   0  0  0  0  0  0  0  0  0  0  0  0
   51.3060   32.4500   43.7600 H   0  0  0  0  0  0  0  0  0  0  0  0
   48.9510   32.1390   43.0350 H   0  0  0  0  0  0  0  0  0  0  0  0
   49.5370   31.3710   41.1110 O   0  0  0  0  0  0  0  0  0  0  0  0
   48.3170   30.7940   40.8120 C   0  0  0  0  0  0  0  0  0  0  0  0
   47.8230   30.1910   39.6760 C   0  0  0  0  0  3  0  0  0  0  0  0
   46.5380   29.6940   39.6620 C   0  0  0  0  0  0  0  0  0  0  0  0
   46.2640   29.2470   38.7220 H   0  0  0  0  0  0  0  0  0  0  0  0
   45.7040   29.7700   40.7530 C   0  0  0  0  0  3  0  0  0  0  0  0
   46.1790   30.3700   41.9000 C   0  0  0  0  0  0  0  0  0  0  0  0
   45.4990   30.4130   42.7380 H   0  0  0  0  0  0  0  0  0  0  0  0
   47.4810   30.8820   41.9340 C   0  0  0  0  0  3  0  0  0  0  0  0
  1 17  1  0  0  0  0
  2  1  2  0  0  0  0
  2 24  1  0  0  0  0
  3  2  1  0  0  0  0
  4  3  1  0  0  0  0
  4  9  1  0  0  0  0
  5  4  2  0  0  0  0
  6  5  1  0  0  0  0
  6  7  2  0  0  0  0
  7  8  1  0  0  0  0
  8  9  2  0  0  0  0
  8 14  1  0  0  0  0
  9  1  1  0  0  0  0
 10  3  1  0  0  0  0
 11  5  1  0  0  0  0
 12  6  1  0  0  0  0
 13  7  1  0  0  0  0
 15 21  1  0  0  0  0
 15 20  1  0  0  0  0
 16 15  2  0  0  0  0
 17 16  1  0  0  0  0
 17 18  2  0  0  0  0
 18 19  1  0  0  0  0
 19 20  2  0  0  0  0
 19 23  1  0  0  0  0
 22 16  1  0  0  0  0
 24 25  1  0  0  0  0
 24 27  1  0  0  0  0
 26 24  1  0  0  0  0
 27 28  1  0  0  0  0
 27 29  1  0  0  0  0
 30 33  1  6  0  0  0
 30 32  1  0  0  0  0
 30 31  1  0  0  0  0
 30 27  1  0  0  0  0
 31 35  1  0  0  0  0
 32 31  1  0  0  0  0
 32 36  1  1  0  0  0
 34 31  1  0  0  0  0
 37 32  1  0  0  0  0
 38 37  1  0  0  0  0
 38 45  1  0  0  0  0
 39 38  2  0  0  0  0
 40 39  1  0  0  0  0
 40 42  2  0  0  0  0
 41 40  1  0  0  0  0
 42 43  1  0  0  0  0
 43 45  2  0  0  0  0
 43 44  1  0  0  0  0
M  END
>  <minimizedAffinity>
-5.39587736

>  <minimizedRMSD>
0.986056209

$$$$
