
 OpenBabel03232519393D

 41 45  0  0  0  0  0  0  0  0999 V2000
   46.5800   32.8640   38.8070 C   0  0  0  0  0  0  0  0  0  0  0  0
   45.5500   33.1710   37.9300 C   0  0  0  0  0  0  0  0  0  0  0  0
   45.2160   32.2580   36.9440 C   0  0  0  0  0  0  0  0  0  0  0  0
   45.8850   31.0510   36.8130 C   0  0  0  0  0  0  0  0  0  0  0  0
   46.9040   30.7810   37.7030 C   0  0  0  0  0  0  0  0  0  0  0  0
   47.3020   31.6570   38.7320 C   0  0  0  0  0  0  0  0  0  0  0  0
   45.0280   34.1110   38.0360 H   0  0  0  0  0  0  0  0  0  0  0  0
   44.4010   32.5250   36.2680 H   0  0  0  0  0  0  0  0  0  0  0  0
   45.6250   30.3380   36.0400 H   0  0  0  0  0  0  0  0  0  0  0  0
   47.4300   29.8490   37.6080 H   0  0  0  0  0  0  0  0  0  0  0  0
   48.3690   31.3180   39.6700 C   0  0  0  0  0  0  0  0  0  0  0  0
   48.0500   30.9800   40.9090 N   0  0  0  0  0  0  0  0  0  0  0  0
   48.9950   30.6860   41.8130 C   0  0  0  0  0  0  0  0  0  0  0  0
   50.3260   30.7180   41.5110 N   0  0  0  0  0  0  0  0  0  0  0  0
   50.7170   31.0580   40.2570 C   0  0  0  0  0  0  0  0  0  0  0  0
   52.0510   31.0900   39.9800 C   0  0  0  0  0  0  0  0  0  0  0  0
   52.4260   31.4460   38.7030 C   0  0  0  0  0  0  0  0  0  0  0  0
   53.4930   31.4740   38.4840 H   0  0  0  0  0  0  0  0  0  0  0  0
   51.4380   31.7480   37.7820 C   0  0  0  0  0  0  0  0  0  0  0  0
   51.7840   32.0190   36.7930 H   0  0  0  0  0  0  0  0  0  0  0  0
   50.0820   31.7150   38.0590 C   0  0  0  0  0  0  0  0  0  0  0  0
   49.7120   31.3550   39.3460 C   0  0  0  0  0  0  0  0  0  0  0  0
   46.6290   34.4410   42.0250 N   0  0  0  0  0  0  0  0  0  0  0  0
   47.6910   35.3000   41.9160 C   0  0  0  0  0  0  0  0  0  0  0  0
   48.4230   35.3800   40.7590 C   0  0  0  0  0  0  0  0  0  0  0  0
   48.0480   34.5520   39.6830 C   0  0  0  0  0  0  0  0  0  0  0  0
   48.7010   34.6030   38.6080 O   0  0  0  0  0  0  0  0  0  0  0  0
   47.0050   33.7440   39.8610 N   0  0  0  0  0  0  0  0  0  0  0  0
   46.2960   33.6740   40.9990 C   0  0  0  0  0  0  0  0  0  0  0  0
   45.3280   32.9540   41.2120 O   0  0  0  0  0  0  0  0  0  0  0  0
   48.0430   35.9620   42.6920 H   0  0  0  0  0  0  0  0  0  0  0  0
   49.2820   36.0440   40.6310 H   0  0  0  0  0  0  0  0  0  0  0  0
   44.5740   35.6760   44.8340 C   0  0  0  0  0  0  0  0  0  0  0  0
   45.1500   35.5890   43.5430 C   0  0  0  0  0  0  0  0  0  0  0  0
   46.0370   34.5390   43.3230 C   0  0  0  0  0  0  0  0  0  0  0  0
   46.3070   33.6690   44.3270 N   0  0  0  0  0  0  0  0  0  0  0  0
   45.7310   33.7920   45.5540 C   0  0  0  0  0  0  0  0  0  0  0  0
   44.8770   34.7740   45.8130 N   0  0  0  0  0  0  0  0  0  0  0  0
   43.8710   36.4660   45.0810 H   0  0  0  0  0  0  0  0  0  0  0  0
   44.8820   36.3200   42.7990 H   0  0  0  0  0  0  0  0  0  0  0  0
   46.1040   32.9840   46.1750 H   0  0  0  0  0  0  0  0  0  0  0  0
  1 28  1  0  0  0  0
  2  7  1  0  0  0  0
  2  1  2  0  0  0  0
  3  2  1  0  0  0  0
  4  3  2  0  0  0  0
  4  5  1  0  0  0  0
  5  6  2  0  0  0  0
  6  1  1  0  0  0  0
  6 11  1  0  0  0  0
  8  3  1  0  0  0  0
  9  4  1  0  0  0  0
 10  5  1  0  0  0  0
 11 12  1  0  0  0  0
 12 13  2  0  0  0  0
 14 13  1  0  0  0  0
 15 14  2  0  0  0  0
 16 15  1  0  0  0  0
 17 16  2  0  0  0  0
 18 17  1  0  0  0  0
 19 21  2  0  0  0  0
 19 17  1  0  0  0  0
 20 19  1  0  0  0  0
 21 22  1  0  0  0  0
 22 11  2  0  0  0  0
 22 15  1  0  0  0  0
 23 35  1  0  0  0  0
 24 23  1  0  0  0  0
 24 31  1  0  0  0  0
 25 24  2  0  0  0  0
 26 28  1  0  0  0  0
 26 25  1  0  0  0  0
 27 26  2  0  0  0  0
 28 29  1  0  0  0  0
 29 30  2  0  0  0  0
 29 23  1  0  0  0  0
 32 25  1  0  0  0  0
 33 39  1  0  0  0  0
 33 38  1  0  0  0  0
 34 33  2  0  0  0  0
 35 34  1  0  0  0  0
 35 36  2  0  0  0  0
 36 37  1  0  0  0  0
 37 38  2  0  0  0  0
 37 41  1  0  0  0  0
 40 34  1  0  0  0  0
M  END
>  <minimizedAffinity>
-6.11050987

>  <minimizedRMSD>
1.23529458

$$$$
