
     RDKit          3D

 40 43  0  0  0  0  0  0  0  0999 V2000
   46.4159   34.6640   42.1741 C   0  0  0  0  0  0  0  0  0  0  0  0
   47.7259   35.0197   42.0421 C   0  0  0  0  0  0  0  0  0  0  0  0
   48.4226   34.8218   40.8483 C   0  0  0  0  0  0  0  0  0  0  0  0
   47.7698   34.2432   39.7486 C   0  0  0  0  0  0  0  0  0  0  0  0
   46.4582   33.8917   39.8942 C   0  0  0  0  0  0  0  0  0  0  0  0
   45.7940   34.1015   41.0937 C   0  0  0  0  0  0  0  0  0  0  0  0
   44.4302   33.7206   41.1980 N   0  0  0  0  0  0  0  0  0  0  0  0
   43.6127   34.6707   40.6693 C   0  0  0  0  0  0  0  0  0  0  0  0
   42.2255   34.5089   40.6625 C   0  0  0  0  0  0  0  0  0  0  0  0
   41.3025   35.5199   40.0970 C   0  0  0  0  0  0  0  0  0  0  0  0
   41.7285   33.3424   41.2162 C   0  0  0  0  0  0  0  0  0  0  0  0
   40.4832   33.1249   41.2463 O   0  0  0  0  0  0  0  0  0  0  0  0
   42.5588   32.4281   41.7277 N   0  0  0  0  0  0  0  0  0  0  0  0
   43.8961   32.5976   41.7276 C   0  0  0  0  0  0  0  0  0  0  0  0
   44.7511   31.8084   42.1779 O   0  0  0  0  0  0  0  0  0  0  0  0
   44.4224   36.1440   45.0118 C   0  0  0  0  0  0  0  0  0  0  0  0
   44.9929   36.0257   43.7406 C   0  0  0  0  0  0  0  0  0  0  0  0
   45.7697   34.9066   43.4513 C   0  0  0  0  0  0  0  0  0  0  0  0
   45.9228   34.0028   44.4232 N   0  0  0  0  0  0  0  0  0  0  0  0
   45.3631   34.1323   45.6503 C   0  0  0  0  0  0  0  0  0  0  0  0
   44.6160   35.2004   45.9403 N   0  0  0  0  0  0  0  0  0  0  0  0
   48.3142   35.4718   42.8322 H   0  0  0  0  0  0  0  0  0  0  0  0
   49.4621   35.0991   40.7296 H   0  0  0  0  0  0  0  0  0  0  0  0
   48.2742   34.0723   38.8039 H   0  0  0  0  0  0  0  0  0  0  0  0
   45.8985   33.4409   39.0834 H   0  0  0  0  0  0  0  0  0  0  0  0
   43.9327   35.6012   40.2228 H   0  0  0  0  0  0  0  0  0  0  0  0
   40.9932   36.1488   40.9776 H   0  0  0  0  0  0  0  0  0  0  0  0
   41.9264   36.1989   39.4635 H   0  0  0  0  0  0  0  0  0  0  0  0
   40.4466   35.1018   39.5606 H   0  0  0  0  0  0  0  0  0  0  0  0
   42.2431   31.5180   42.1641 H   0  0  0  0  0  0  0  0  0  0  0  0
   43.8274   37.0605   45.1436 H   0  0  0  0  0  0  0  0  0  0  0  0
   44.8877   36.7391   42.9340 H   0  0  0  0  0  0  0  0  0  0  0  0
   45.6063   33.0786   46.6193 C   0  0  0  0  0  0  0  0  0  0  0  0
   46.5931   32.0968   46.5111 C   0  0  0  0  0  0  0  0  0  0  0  0
   46.4357   31.3680   47.6143 N   0  0  0  0  0  0  0  0  0  0  0  0
   45.4448   31.8157   48.3829 C   0  0  0  0  0  0  0  0  0  0  0  0
   44.9211   32.8903   47.7614 N   0  0  0  0  0  0  0  0  0  0  0  0
   47.2970   32.0091   45.6826 H   0  0  0  0  0  0  0  0  0  0  0  0
   45.2401   31.2919   49.2973 H   0  0  0  0  0  0  0  0  0  0  0  0
   44.1298   33.4188   48.1655 H   0  0  0  0  0  0  0  0  0  0  0  0
  1 18  1  0
  2  1  2  0
  3  2  1  0
  4  5  1  0
  4  3  2  0
  5  6  2  0
  6  7  1  0
  6  1  1  0
  7 14  1  0
  8  7  1  0
  9  8  2  0
  9 11  1  0
 10  9  1  0
 11 12  2  0
 11 13  1  0
 14 13  1  0
 14 15  2  0
 16 21  2  0
 17 16  1  0
 18 17  2  0
 18 19  1  0
 19 20  2  0
 20 21  1  0
  2 22  1  0
  3 23  1  0
  4 24  1  0
  5 25  1  0
  8 26  1  0
 10 27  1  0
 10 28  1  0
 10 29  1  0
 13 30  1  0
 16 31  1  0
 17 32  1  0
 33 34  2  0
 34 35  1  0
 35 36  2  0
 36 37  1  0
 37 33  1  0
 34 38  1  0
 36 39  1  0
 37 40  1  0
 20 33  1  0
M  ISO  8  22  14  23  14  24  14  25  14  26  14  27   8  28   8  29   8
M  ISO  3  30   9  31  14  32  14
M  END
>  <DihAtoms>  (1) 
18,19,32,33

>  <DihDeg>  (1) 
-179.999801559174

$$$$
