
 OpenBabel03232519163D

 31 33  0  0  1  0  0  0  0  0999 V2000
   44.5300   35.6540   43.5900 C   0  0  1  0  0  0  0  0  0  0  0  0
   43.7460   35.7100   44.3680 H   0  0  0  0  0  0  0  0  0  0  0  0
   45.5330   34.6470   43.9610 C   0  0  0  0  0  0  0  0  0  0  0  0
   46.5700   34.3450   43.0310 C   0  0  0  0  0  0  0  0  0  0  0  0
   47.5380   33.3850   43.3730 C   0  0  0  0  0  0  0  0  0  0  0  0
   47.4230   32.7950   44.5870 N   0  0  0  0  0  0  0  0  0  0  0  0
   46.4550   33.0900   45.4310 C   0  0  0  0  0  0  0  0  0  0  0  0
   45.5020   34.0110   45.1380 N   0  0  0  0  0  0  0  0  0  0  0  0
   46.6550   34.8210   42.0650 H   0  0  0  0  0  0  0  0  0  0  0  0
   48.3380   33.1360   42.6880 H   0  0  0  0  0  0  0  0  0  0  0  0
   46.3250   32.4550   46.7580 C   0  0  0  0  0  0  0  0  0  0  0  0
   47.3690   31.5680   47.1400 C   0  0  0  0  0  0  0  0  0  0  0  0
   46.7660   31.0520   48.8250 S   0  0  0  0  0  0  0  0  0  0  0  0
   45.2250   32.1390   48.6660 C   0  0  0  0  0  0  0  0  0  0  0  0
   45.3860   32.5790   47.6580 N   0  0  0  0  0  0  0  0  0  0  0  0
   48.2480   31.2590   46.6550 H   0  0  0  0  0  0  0  0  0  0  0  0
   44.4160   32.2810   49.3780 H   0  0  0  0  0  0  0  0  0  0  0  0
   45.1780   37.0340   43.5260 C   0  0  0  0  0  0  0  0  0  0  0  0
   45.8410   37.1400   42.6540 H   0  0  0  0  0  0  0  0  0  0  0  0
   44.3350   37.7450   43.4110 H   0  0  0  0  0  0  0  0  0  0  0  0
   45.6710   37.2350   44.4870 H   0  0  0  0  0  0  0  0  0  0  0  0
   43.8880   35.3680   42.2750 C   0  0  0  0  0  0  0  0  0  0  0  0
   44.2170   34.3380   41.9610 H   0  0  0  0  0  0  0  0  0  0  0  0
   44.2980   36.0300   41.4730 H   0  0  0  0  0  0  0  0  0  0  0  0
   42.4700   35.3380   42.3370 N   0  0  0  0  0  0  0  0  0  0  0  0
   41.9910   36.2000   42.6130 H   0  0  0  0  0  0  0  0  0  0  0  0
   41.8170   34.6240   41.2620 C   0  0  0  0  0  0  0  0  0  0  0  0
   40.3230   34.9150   41.4040 C   0  0  0  0  0  0  0  0  0  0  0  0
   40.1220   36.0640   40.4360 C   0  0  0  0  0  0  0  0  0  0  0  0
   40.9280   35.5720   39.2300 C   0  0  0  0  0  0  0  0  0  0  0  0
   42.2430   35.2350   39.9450 C   0  0  0  0  0  0  0  0  0  0  0  0
  1  3  1  0  0  0  0
  1  2  1  1  0  0  0
  3  8  1  0  0  0  0
  4  5  1  0  0  0  0
  4  3  2  0  0  0  0
  5  6  2  0  0  0  0
  6  7  1  0  0  0  0
  7 11  1  0  0  0  0
  8  7  2  0  0  0  0
  9  4  1  0  0  0  0
 10  5  1  0  0  0  0
 11 12  2  0  0  0  0
 11 15  1  0  0  0  0
 12 13  1  0  0  0  0
 14 13  1  0  0  0  0
 14 17  1  0  0  0  0
 15 14  2  0  0  0  0
 16 12  1  0  0  0  0
 18  1  1  0  0  0  0
 18 21  1  0  0  0  0
 19 18  1  0  0  0  0
 20 18  1  0  0  0  0
 22 25  1  0  0  0  0
 22  1  1  0  0  0  0
 23 22  1  0  0  0  0
 24 22  1  0  0  0  0
 25 26  1  0  0  0  0
 27 28  1  0  0  0  0
 27 25  1  0  0  0  0
 29 28  1  0  0  0  0
 30 31  1  0  0  0  0
 30 29  1  0  0  0  0
 31 27  1  0  0  0  0
M  END
>  <minimizedAffinity>
-5.76683331

>  <minimizedRMSD>
1.18217218

$$$$
