
 OpenBabel03232520533D

 32 34  0  0  1  0  0  0  0  0999 V2000
   46.6410   32.6670   45.1070 C   0  0  2  0  0  0  0  0  0  0  0  0
   45.5230   33.5720   45.5670 C   0  0  0  0  0  0  0  0  0  0  0  0
   45.2350   34.7270   44.7550 C   0  0  0  0  0  0  0  0  0  0  0  0
   45.9970   35.0020   43.5430 C   0  0  1  0  0  0  0  0  0  0  0  0
   47.1330   34.1010   43.2420 C   0  0  0  0  0  0  0  0  0  0  0  0
   46.7850   32.6940   43.6260 C   0  0  0  0  0  0  0  0  0  0  0  0
   47.5720   33.1260   45.5540 H   0  0  0  0  0  0  0  0  0  0  0  0
   44.8290   33.5890   46.3960 H   0  0  0  0  0  0  0  0  0  0  0  0
   44.4710   35.4220   44.9940 H   0  0  0  0  0  0  0  0  0  0  0  0
   46.3980   36.0360   43.6000 H   0  0  0  0  0  0  0  0  0  0  0  0
   48.0270   34.4260   43.7860 H   0  0  0  0  0  0  0  0  0  0  0  0
   47.3640   34.1780   42.1580 H   0  0  0  0  0  0  0  0  0  0  0  0
   47.6720   32.0730   43.3710 H   0  0  0  0  0  0  0  0  0  0  0  0
   45.8530   32.3450   43.1610 H   0  0  0  0  0  0  0  0  0  0  0  0
   45.7380   31.2160   46.8610 C   0  0  0  0  0  0  0  0  0  0  0  0
   46.4970   31.3550   45.7140 C   0  0  0  0  0  0  0  0  0  0  0  0
   47.0960   30.1990   45.2110 C   0  0  0  0  0  0  0  0  0  0  0  0
   46.9300   29.0160   45.8310 N   0  0  0  0  0  0  0  0  0  0  0  0
   46.1750   28.9050   46.9630 C   0  0  0  0  0  0  0  0  0  0  0  0
   45.5820   30.0160   47.4710 N   0  0  0  0  0  0  0  0  0  0  0  0
   45.2100   32.0020   47.3810 H   0  0  0  0  0  0  0  0  0  0  0  0
   47.6980   30.2540   44.3170 H   0  0  0  0  0  0  0  0  0  0  0  0
   45.9900   27.6260   47.6410 C   0  0  0  0  0  0  0  0  0  0  0  0
   44.7590   27.1470   48.0440 C   0  0  0  0  0  3  0  0  0  0  0  0
   45.0000   25.9490   48.6260 N   0  0  0  0  0  0  0  0  0  0  0  0
   46.3240   25.7080   48.5800 C   0  0  0  0  0  3  0  0  0  0  0  0
   46.9580   26.7480   47.9670 N   0  0  0  0  0  0  0  0  0  0  0  0
   47.9730   26.8840   47.7670 H   0  0  0  0  0  0  0  0  0  0  0  0
   45.0110   35.0200   42.3630 C   0  0  0  0  0  0  0  0  0  0  0  0
   43.9560   34.1640   42.5360 F   0  0  0  0  0  0  0  0  0  0  0  0
   44.4740   36.3090   42.3070 F   0  0  0  0  0  0  0  0  0  0  0  0
   45.6890   34.8040   41.1770 F   0  0  0  0  0  0  0  0  0  0  0  0
  1  7  1  1  0  0  0
  1  2  1  0  0  0  0
  1 16  1  0  0  0  0
  2  8  1  0  0  0  0
  3  9  1  0  0  0  0
  3  2  2  0  0  0  0
  4 10  1  1  0  0  0
  4  3  1  0  0  0  0
  5  4  1  0  0  0  0
  5  6  1  0  0  0  0
  5 11  1  0  0  0  0
  6  1  1  0  0  0  0
 12  5  1  0  0  0  0
 13  6  1  0  0  0  0
 14  6  1  0  0  0  0
 15 21  1  0  0  0  0
 15 20  1  0  0  0  0
 16 15  2  0  0  0  0
 17 16  1  0  0  0  0
 17 18  2  0  0  0  0
 18 19  1  0  0  0  0
 19 20  2  0  0  0  0
 19 23  1  0  0  0  0
 22 17  1  0  0  0  0
 23 27  1  0  0  0  0
 23 24  2  0  0  0  0
 24 25  1  0  0  0  0
 26 25  2  0  0  0  0
 27 26  1  0  0  0  0
 28 27  1  0  0  0  0
 29 30  1  0  0  0  0
 29  4  1  0  0  0  0
 31 29  1  0  0  0  0
 32 29  1  0  0  0  0
M  END
>  <minimizedAffinity>
-4.72654915

>  <minimizedRMSD>
1.90492475

$$$$
