REMARK  Name = 
REMARK  2 active torsions:
REMARK  status: ('A' for Active; 'I' for Inactive)
REMARK    1  A    between atoms: C_2  and  C_7
REMARK    2  A    between atoms: C_10  and  C_24
REMARK                            x       y       z     vdW  Elec       q    Type
REMARK                         _______ _______ _______ _____ _____    ______ ____
ROOT
ATOM      1  C   UNL     1      45.935  33.891  45.264  0.00  0.00    +0.000 C 
ATOM      2  C   UNL     1      44.811  34.879  45.483  0.00  0.00    +0.000 C 
ATOM      3  C   UNL     1      44.535  35.804  44.400  0.00  0.00    +0.000 C 
ATOM      4  C   UNL     1      45.323  35.764  43.163  0.00  0.00    +0.000 C 
ATOM      5  C   UNL     1      46.475  34.822  43.133  0.00  0.00    +0.000 C 
ATOM      6  C   UNL     1      46.034  33.532  43.815  0.00  0.00    +0.000 C 
ATOM      7  H   UNL     1      46.878  34.443  45.554  0.00  0.00    +0.000 HD
ATOM      8  H   UNL     1      44.154  35.036  46.311  0.00  0.00    +0.000 HD
ATOM      9  H   UNL     1      43.758  36.519  44.499  0.00  0.00    +0.000 HD
ATOM     10  H   UNL     1      44.639  35.604  42.308  0.00  0.00    +0.000 HD
ATOM     11  H   UNL     1      47.411  35.194  43.550  0.00  0.00    +0.000 HD
ATOM     12  H   UNL     1      46.664  34.525  42.066  0.00  0.00    +0.000 HD
ATOM     13  H   UNL     1      44.981  33.344  43.468  0.00  0.00    +0.000 HD
ATOM     14  H   UNL     1      46.705  32.706  43.604  0.00  0.00    +0.000 HD
ENDROOT
BRANCH   1  16
ATOM     15  C   UNL     1      45.272  32.967  47.468  0.00  0.00    +0.000 A 
ATOM     16  C   UNL     1      45.766  32.760  46.181  0.00  0.00    +0.000 A 
ATOM     17  C   UNL     1      46.100  31.430  45.813  0.00  0.00    +0.000 A 
ATOM     18  N   UNL     1      45.925  30.442  46.716  0.00  0.00    +0.000 NA
ATOM     19  C   UNL     1      45.443  30.680  47.960  0.00  0.00    +0.000 A 
ATOM     20  N   UNL     1      45.123  31.930  48.320  0.00  0.00    +0.000 NA
ATOM     21  H   UNL     1      44.993  33.947  47.830  0.00  0.00    +0.000 HD
ATOM     22  H   UNL     1      46.488  31.174  44.842  0.00  0.00    +0.000 HD
ATOM     23  H   UNL     1      45.314  29.866  48.662  0.00  0.00    +0.000 HD
ENDBRANCH   1  16
BRANCH   4  24
ATOM     24  C   UNL     1      45.913  37.139  43.009  0.00  0.00    +0.000 A 
ATOM     25  C   UNL     1      47.022  37.694  42.402  0.00  0.00    +0.000 A 
ATOM     26  N   UNL     1      46.977  39.035  42.640  0.00  0.00    +0.000 NA
ATOM     27  C   UNL     1      45.883  39.321  43.368  0.00  0.00    +0.000 A 
ATOM     28  N   UNL     1      45.235  38.157  43.592  0.00  0.00    +0.000 N 
ATOM     29  H   UNL     1      44.340  38.200  44.157  0.00  0.00    +0.000 HD
ENDBRANCH   4  24
TORSDOF 2
