
 OpenBabel03232520383D

 16 17  0  0  0  0  0  0  0  0999 V2000
   44.4630   35.5550   44.3850 C   0  0  0  0  0  0  0  0  0  0  0  0
   44.4790   34.8790   43.1410 C   0  0  0  0  0  0  0  0  0  0  0  0
   45.0240   33.5900   43.0750 C   0  0  0  0  0  0  0  0  0  0  0  0
   45.5150   33.0460   44.2260 N   0  0  0  0  0  0  0  0  0  0  0  0
   45.4860   33.7100   45.3900 C   0  0  0  0  0  0  0  0  0  0  0  0
   44.9690   34.9480   45.4810 N   0  0  0  0  0  0  0  0  0  0  0  0
   44.0270   36.5570   44.3760 H   0  0  0  0  0  0  0  0  0  0  0  0
   45.0540   33.0480   42.1530 H   0  0  0  0  0  0  0  0  0  0  0  0
   45.9980   33.1630   46.6230 C   0  0  0  0  0  0  0  0  0  0  0  0
   45.2070   32.7340   47.6560 C   0  0  0  0  0  0  0  0  0  0  0  0
   45.9340   32.2730   48.6770 N   0  0  0  0  0  0  0  0  0  0  0  0
   47.2330   32.4030   48.3050 C   0  0  0  0  0  0  0  0  0  0  0  0
   47.2470   32.9440   47.0570 N   0  0  0  0  0  0  0  0  0  0  0  0
   48.1020   33.1780   46.4710 H   0  0  0  0  0  0  0  0  0  0  0  0
   43.8100   35.6640   41.6620 S   0  0  0  0  0  0  0  0  0  0  0  0
   42.8130   36.5550   42.1290 H   0  0  0  0  0  0  0  0  0  0  0  0
  1  6  1  0  0  0  0
  2  1  2  0  0  0  0
  3  2  1  0  0  0  0
  3  4  2  0  0  0  0
  4  5  1  0  0  0  0
  5  6  2  0  0  0  0
  5  9  1  0  0  0  0
  7  1  1  0  0  0  0
  8  3  1  0  0  0  0
  9 13  1  0  0  0  0
  9 10  2  0  0  0  0
 10 11  1  0  0  0  0
 12 11  2  0  0  0  0
 13 12  1  0  0  0  0
 14 13  1  0  0  0  0
 15 16  1  0  0  0  0
 15  2  1  0  0  0  0
M  END
>  <minimizedAffinity>
-4.22771311

>  <minimizedRMSD>
0.828214526

$$$$
