REMARK  Name = 
REMARK  4 active torsions:
REMARK  status: ('A' for Active; 'I' for Inactive)
REMARK    1  A    between atoms: C_1  and  C_18
REMARK    2  A    between atoms: C_6  and  N_7
REMARK    3  A    between atoms: C_9  and  C_10
REMARK    4  A    between atoms: C_20  and  C_33
REMARK                            x       y       z     vdW  Elec       q    Type
REMARK                         _______ _______ _______ _____ _____    ______ ____
ROOT
ATOM      1  C   UNL     1      46.416  34.664  42.174  0.00  0.00    +0.000 A 
ATOM      2  C   UNL     1      47.726  35.020  42.042  0.00  0.00    +0.000 A 
ATOM      3  C   UNL     1      48.423  34.822  40.848  0.00  0.00    +0.000 A 
ATOM      4  C   UNL     1      47.770  34.243  39.749  0.00  0.00    +0.000 A 
ATOM      5  C   UNL     1      46.458  33.892  39.894  0.00  0.00    +0.000 A 
ATOM      6  C   UNL     1      45.794  34.102  41.094  0.00  0.00    +0.000 A 
ATOM      7  H   UNL     1      48.314  35.472  42.832  0.00  0.00    +0.000 HD
ATOM      8  H   UNL     1      49.462  35.099  40.730  0.00  0.00    +0.000 HD
ATOM      9  H   UNL     1      48.274  34.072  38.804  0.00  0.00    +0.000 HD
ATOM     10  H   UNL     1      45.898  33.441  39.083  0.00  0.00    +0.000 HD
ENDROOT
BRANCH   6  11
ATOM     11  N   UNL     1      44.430  33.721  41.198  0.00  0.00    +0.000 N 
ATOM     12  C   UNL     1      43.613  34.671  40.669  0.00  0.00    +0.000 A 
ATOM     13  C   UNL     1      42.225  34.509  40.663  0.00  0.00    +0.000 A 
ATOM     14  C   UNL     1      41.728  33.342  41.216  0.00  0.00    +0.000 A 
ATOM     15  O   UNL     1      40.483  33.125  41.246  0.00  0.00    +0.000 OA
ATOM     16  N   UNL     1      42.559  32.428  41.728  0.00  0.00    +0.000 N 
ATOM     17  C   UNL     1      43.896  32.598  41.728  0.00  0.00    +0.000 A 
ATOM     18  O   UNL     1      44.751  31.808  42.178  0.00  0.00    +0.000 OA
ATOM     19  H   UNL     1      43.933  35.601  40.223  0.00  0.00    +0.000 HD
ATOM     20  H   UNL     1      42.243  31.518  42.164  0.00  0.00    +0.000 HD
BRANCH  13  21
ATOM     21  C   UNL     1      41.303  35.520  40.097  0.00  0.00    +0.000 C 
ATOM     22  H   UNL     1      40.993  36.149  40.978  0.00  0.00    +0.000 HD
ATOM     23  H   UNL     1      41.926  36.199  39.464  0.00  0.00    +0.000 HD
ATOM     24  H   UNL     1      40.447  35.102  39.561  0.00  0.00    +0.000 HD
ENDBRANCH  13  21
ENDBRANCH   6  11
BRANCH   1  27
ATOM     25  C   UNL     1      44.422  36.144  45.012  0.00  0.00    +0.000 A 
ATOM     26  C   UNL     1      44.993  36.026  43.741  0.00  0.00    +0.000 A 
ATOM     27  C   UNL     1      45.770  34.907  43.451  0.00  0.00    +0.000 A 
ATOM     28  N   UNL     1      45.923  34.003  44.423  0.00  0.00    +0.000 NA
ATOM     29  C   UNL     1      45.363  34.132  45.650  0.00  0.00    +0.000 A 
ATOM     30  N   UNL     1      44.616  35.200  45.940  0.00  0.00    +0.000 NA
ATOM     31  H   UNL     1      43.827  37.060  45.144  0.00  0.00    +0.000 HD
ATOM     32  H   UNL     1      44.888  36.739  42.934  0.00  0.00    +0.000 HD
BRANCH  29  33
ATOM     33  C   UNL     1      45.606  33.079  46.619  0.00  0.00    +0.000 A 
ATOM     34  C   UNL     1      46.754  32.285  46.676  0.00  0.00    +0.000 A 
ATOM     35  N   UNL     1      46.528  31.476  47.709  0.00  0.00    +0.000 NA
ATOM     36  C   UNL     1      45.349  31.703  48.285  0.00  0.00    +0.000 A 
ATOM     37  N   UNL     1      44.767  32.709  47.603  0.00  0.00    +0.000 N 
ATOM     38  H   UNL     1      43.834  33.072  47.862  0.00  0.00    +0.000 HD
ENDBRANCH  29  33
ENDBRANCH   1  27
TORSDOF 4
