
 OpenBabel03232520513D

 29 31  0  0  1  0  0  0  0  0999 V2000
   46.4110   34.1310   44.4780 C   0  0  2  0  0  0  0  0  0  0  0  0
   45.3000   34.6250   45.3770 C   0  0  0  0  0  0  0  0  0  0  0  0
   44.5160   35.7440   44.8900 C   0  0  0  0  0  0  0  0  0  0  0  0
   44.8070   36.3510   43.5870 C   0  0  2  0  0  0  0  0  0  0  0  0
   46.0040   35.8420   42.8640 C   0  0  0  0  0  0  0  0  0  0  0  0
   46.0420   34.3280   43.0420 C   0  0  0  0  0  0  0  0  0  0  0  0
   47.2970   34.7950   44.7070 H   0  0  0  0  0  0  0  0  0  0  0  0
   44.9650   34.2990   46.3380 H   0  0  0  0  0  0  0  0  0  0  0  0
   43.7240   36.1320   45.4800 H   0  0  0  0  0  0  0  0  0  0  0  0
   43.8970   36.3040   42.9590 H   0  0  0  0  0  0  0  0  0  0  0  0
   46.9570   36.2990   43.1310 H   0  0  0  0  0  0  0  0  0  0  0  0
   45.8440   35.9910   41.7620 H   0  0  0  0  0  0  0  0  0  0  0  0
   44.9770   33.9790   42.9430 H   0  0  0  0  0  0  0  0  0  0  0  0
   46.7140   33.8490   42.3380 H   0  0  0  0  0  0  0  0  0  0  0  0
   46.3910   32.2560   46.1020 C   0  0  0  0  0  0  0  0  0  0  0  0
   46.7590   32.7570   44.8540 C   0  0  0  0  0  0  0  0  0  0  0  0
   47.4790   31.8940   43.9870 C   0  0  0  0  0  0  0  0  0  0  0  0
   47.7700   30.6450   44.4080 N   0  0  0  0  0  0  0  0  0  0  0  0
   47.3980   30.1910   45.6290 C   0  0  0  0  0  0  0  0  0  0  0  0
   46.7170   30.9950   46.4570 N   0  0  0  0  0  0  0  0  0  0  0  0
   45.8410   32.8450   46.8230 H   0  0  0  0  0  0  0  0  0  0  0  0
   47.8050   32.1930   43.0050 H   0  0  0  0  0  0  0  0  0  0  0  0
   47.6460   29.1840   45.9380 H   0  0  0  0  0  0  0  0  0  0  0  0
   45.0810   37.8030   43.8640 C   0  0  0  0  0  0  0  0  0  0  0  0
   45.4340   38.9170   43.1280 C   0  0  0  0  0  3  0  0  0  0  0  0
   45.5290   39.9580   44.0030 N   0  0  0  0  0  0  0  0  0  0  0  0
   45.2480   39.5240   45.2430 C   0  0  0  0  0  3  0  0  0  0  0  0
   44.9740   38.2050   45.1540 N   0  0  0  0  0  0  0  0  0  0  0  0
   44.7290   37.6970   46.0500 H   0  0  0  0  0  0  0  0  0  0  0  0
  1  7  1  1  0  0  0
  1 16  1  0  0  0  0
  1  2  1  0  0  0  0
  2  8  1  0  0  0  0
  3  2  2  0  0  0  0
  3  9  1  0  0  0  0
  4 10  1  6  0  0  0
  4 24  1  0  0  0  0
  4  3  1  0  0  0  0
  5  6  1  0  0  0  0
  5 11  1  0  0  0  0
  5  4  1  0  0  0  0
  6  1  1  0  0  0  0
 12  5  1  0  0  0  0
 13  6  1  0  0  0  0
 14  6  1  0  0  0  0
 15 20  1  0  0  0  0
 15 21  1  0  0  0  0
 16 15  2  0  0  0  0
 17 18  2  0  0  0  0
 17 16  1  0  0  0  0
 18 19  1  0  0  0  0
 19 23  1  0  0  0  0
 19 20  2  0  0  0  0
 22 17  1  0  0  0  0
 24 28  1  0  0  0  0
 25 24  2  0  0  0  0
 25 26  1  0  0  0  0
 26 27  2  0  0  0  0
 28 27  1  0  0  0  0
 28 29  1  0  0  0  0
M  END
>  <minimizedAffinity>
-3.90923572

>  <minimizedRMSD>
1.93286824

$$$$
