
 OpenBabel03232520533D

 32 34  0  0  1  0  0  0  0  0999 V2000
   44.3920   34.5810   40.3060 C   0  0  2  0  0  0  0  0  0  0  0  0
   43.8570   35.1000   41.6190 C   0  0  0  0  0  0  0  0  0  0  0  0
   42.4350   35.3160   41.7100 C   0  0  0  0  0  0  0  0  0  0  0  0
   41.5590   35.0430   40.5770 C   0  0  1  0  0  0  0  0  0  0  0  0
   42.2060   34.6300   39.3100 C   0  0  0  0  0  0  0  0  0  0  0  0
   43.3820   33.7470   39.6000 C   0  0  0  0  0  0  0  0  0  0  0  0
   44.5650   35.5120   39.6880 H   0  0  0  0  0  0  0  0  0  0  0  0
   44.2780   35.3700   42.5780 H   0  0  0  0  0  0  0  0  0  0  0  0
   41.9630   35.6780   42.5880 H   0  0  0  0  0  0  0  0  0  0  0  0
   40.9570   35.9510   40.3640 H   0  0  0  0  0  0  0  0  0  0  0  0
   42.5310   35.5130   38.7480 H   0  0  0  0  0  0  0  0  0  0  0  0
   41.4510   34.1050   38.6860 H   0  0  0  0  0  0  0  0  0  0  0  0
   43.8160   33.4710   38.6130 H   0  0  0  0  0  0  0  0  0  0  0  0
   43.1190   32.8820   40.2250 H   0  0  0  0  0  0  0  0  0  0  0  0
   46.2330   33.9250   41.7830 C   0  0  0  0  0  0  0  0  0  0  0  0
   45.6960   33.9740   40.5090 C   0  0  0  0  0  0  0  0  0  0  0  0
   46.4680   33.4330   39.4800 C   0  0  0  0  0  0  0  0  0  0  0  0
   47.6740   32.8960   39.7370 N   0  0  0  0  0  0  0  0  0  0  0  0
   48.1830   32.8600   41.0040 C   0  0  0  0  0  0  0  0  0  0  0  0
   47.4500   33.3800   42.0220 N   0  0  0  0  0  0  0  0  0  0  0  0
   45.7740   34.2970   42.6870 H   0  0  0  0  0  0  0  0  0  0  0  0
   46.0940   33.4460   38.4670 H   0  0  0  0  0  0  0  0  0  0  0  0
   49.4900   32.2790   41.2920 C   0  0  0  0  0  0  0  0  0  0  0  0
   50.1720   31.4610   40.4130 C   0  0  0  0  0  3  0  0  0  0  0  0
   51.3280   31.1310   41.0340 N   0  0  0  0  0  0  0  0  0  0  0  0
   51.3510   31.7250   42.2430 C   0  0  0  0  0  3  0  0  0  0  0  0
   50.2070   32.4470   42.4190 N   0  0  0  0  0  0  0  0  0  0  0  0
   49.9040   33.0240   43.2340 H   0  0  0  0  0  0  0  0  0  0  0  0
   40.5380   33.9810   41.0180 C   0  0  0  0  0  0  0  0  0  0  0  0
   41.1260   32.8230   41.4530 F   0  0  0  0  0  0  0  0  0  0  0  0
   39.8500   34.5140   42.1120 F   0  0  0  0  0  0  0  0  0  0  0  0
   39.6120   33.7680   40.0120 F   0  0  0  0  0  0  0  0  0  0  0  0
  1  7  1  6  0  0  0
  1 16  1  0  0  0  0
  1  2  1  0  0  0  0
  2  3  2  0  0  0  0
  2  8  1  0  0  0  0
  3  9  1  0  0  0  0
  4 10  1  6  0  0  0
  4 29  1  0  0  0  0
  4  3  1  0  0  0  0
  5  6  1  0  0  0  0
  5  4  1  0  0  0  0
  6 14  1  0  0  0  0
  6  1  1  0  0  0  0
 11  5  1  0  0  0  0
 12  5  1  0  0  0  0
 13  6  1  0  0  0  0
 15 20  1  0  0  0  0
 15 21  1  0  0  0  0
 16 15  2  0  0  0  0
 17 18  2  0  0  0  0
 17 16  1  0  0  0  0
 18 19  1  0  0  0  0
 19 23  1  0  0  0  0
 19 20  2  0  0  0  0
 22 17  1  0  0  0  0
 23 27  1  0  0  0  0
 24 25  1  0  0  0  0
 24 23  2  0  0  0  0
 25 26  2  0  0  0  0
 26 27  1  0  0  0  0
 27 28  1  0  0  0  0
 29 30  1  0  0  0  0
 29 31  1  0  0  0  0
 32 29  1  0  0  0  0
M  END
>  <minimizedAffinity>
-4.25504065

>  <minimizedRMSD>
7.17698479

$$$$
