
 OpenBabel03232515043D

 32 35  0  0  0  0  0  0  0  0999 V2000
   44.4680   35.8030   44.6070 C   0  0  0  0  0  0  0  0  0  0  0  0
   45.1710   35.6780   43.4020 C   0  0  0  0  0  0  0  0  0  0  0  0
   46.1410   34.6850   43.3060 C   0  0  0  0  0  0  0  0  0  0  0  0
   46.3510   33.8960   44.3800 N   0  0  0  0  0  0  0  0  0  0  0  0
   45.6540   34.0390   45.5410 C   0  0  0  0  0  0  0  0  0  0  0  0
   44.7160   34.9820   45.6660 N   0  0  0  0  0  0  0  0  0  0  0  0
   45.8820   33.2030   46.6660 N   0  0  0  0  0  0  0  0  0  0  0  0
   47.0620   32.5550   46.7210 C   0  0  0  0  0  0  0  0  0  0  0  0
   47.0610   31.8150   47.8800 C   0  0  0  0  0  0  0  0  0  0  0  0
   45.8940   32.0160   48.5110 N   0  0  0  0  0  0  0  0  0  0  0  0
   45.1660   32.8570   47.7870 C   0  0  0  0  0  0  0  0  0  0  0  0
   43.7020   36.5580   44.7390 H   0  0  0  0  0  0  0  0  0  0  0  0
   44.9560   36.3430   42.5730 H   0  0  0  0  0  0  0  0  0  0  0  0
   46.6990   34.5560   42.4050 H   0  0  0  0  0  0  0  0  0  0  0  0
   47.9290   32.5400   46.0450 H   0  0  0  0  0  0  0  0  0  0  0  0
   44.1850   33.2900   47.9050 H   0  0  0  0  0  0  0  0  0  0  0  0
   48.1130   30.9490   48.3770 C   0  0  0  0  0  0  0  0  0  0  0  0
   49.0460   31.4580   49.2460 C   0  0  0  0  0  0  0  0  0  0  0  0
   50.0620   30.6730   49.7450 C   0  0  0  0  0  0  0  0  0  0  0  0
   50.1310   29.3420   49.3510 C   0  0  0  0  0  0  0  0  0  0  0  0
   49.1940   28.8290   48.4790 C   0  0  0  0  0  0  0  0  0  0  0  0
   48.1820   29.6370   47.9900 C   0  0  0  0  0  0  0  0  0  0  0  0
   48.9630   32.5000   49.5320 H   0  0  0  0  0  0  0  0  0  0  0  0
   50.7700   31.1080   50.4200 H   0  0  0  0  0  0  0  0  0  0  0  0
   50.9260   28.7110   49.7350 H   0  0  0  0  0  0  0  0  0  0  0  0
   49.2970   27.7860   48.2070 H   0  0  0  0  0  0  0  0  0  0  0  0
   47.2240   29.0330   47.0730 C   0  0  0  0  0  0  0  0  0  0  0  0
   46.1040   28.3960   47.4520 N   0  0  0  0  0  0  0  0  0  0  0  0
   45.4660   27.9720   46.4010 O   0  0  0  0  0  0  0  0  0  0  0  0
   46.1190   28.3000   45.3160 C   0  0  0  0  0  0  0  0  0  0  0  0
   45.9980   28.1780   44.2470 H   0  0  0  0  0  0  0  0  0  0  0  0
   47.1980   28.9520   45.7330 N   0  0  0  0  0  0  0  0  0  0  0  0
  1 12  1  0  0  0  0
  1  6  1  0  0  0  0
  2  1  2  0  0  0  0
  3  2  1  0  0  0  0
  3  4  2  0  0  0  0
  4  5  1  0  0  0  0
  5  6  2  0  0  0  0
  5  7  1  0  0  0  0
  7  8  1  0  0  0  0
  7 11  1  0  0  0  0
  8  9  2  0  0  0  0
  9 17  1  0  0  0  0
  9 10  1  0  0  0  0
 11 16  1  0  0  0  0
 11 10  2  0  0  0  0
 13  2  1  0  0  0  0
 14  3  1  0  0  0  0
 15  8  1  0  0  0  0
 17 18  1  0  0  0  0
 18 23  1  0  0  0  0
 18 19  2  0  0  0  0
 19 24  1  0  0  0  0
 20 25  1  0  0  0  0
 20 19  1  0  0  0  0
 21 20  2  0  0  0  0
 22 17  2  0  0  0  0
 22 21  1  0  0  0  0
 26 21  1  0  0  0  0
 27 28  2  0  0  0  0
 27 22  1  0  0  0  0
 29 28  1  0  0  0  0
 30 32  2  0  0  0  0
 30 29  1  0  0  0  0
 31 30  1  0  0  0  0
 32 27  1  0  0  0  0
M  END
>  <minimizedAffinity>
-5.82855225

>  <minimizedRMSD>
0.628144085

$$$$
