
 OpenBabel03232520573D

 34 36  0  0  1  0  0  0  0  0999 V2000
   46.1090   33.6350   45.2940 C   0  0  2  0  0  0  0  0  0  0  0  0
   44.9730   34.7140   45.4970 C   0  0  0  0  0  0  0  0  0  0  0  0
   44.7350   35.6280   44.4100 C   0  0  0  0  0  0  0  0  0  0  0  0
   45.5090   35.5370   43.1800 C   0  0  1  0  0  0  0  0  0  0  0  0
   46.5980   34.5560   43.1610 C   0  0  0  0  0  0  0  0  0  0  0  0
   46.1600   33.3110   43.9050 C   0  0  0  0  0  0  0  0  0  0  0  0
   46.9480   34.3290   45.6300 H   0  0  0  0  0  0  0  0  0  0  0  0
   44.2790   34.9600   46.2930 H   0  0  0  0  0  0  0  0  0  0  0  0
   43.9970   36.3820   44.4580 H   0  0  0  0  0  0  0  0  0  0  0  0
   45.9210   36.5550   42.9580 H   0  0  0  0  0  0  0  0  0  0  0  0
   47.4660   34.9620   43.7500 H   0  0  0  0  0  0  0  0  0  0  0  0
   46.9370   34.3190   42.1550 H   0  0  0  0  0  0  0  0  0  0  0  0
   46.7490   32.5330   43.4660 H   0  0  0  0  0  0  0  0  0  0  0  0
   45.1030   33.1350   43.5250 H   0  0  0  0  0  0  0  0  0  0  0  0
   45.2810   32.8960   47.4880 C   0  0  0  0  0  0  0  0  0  0  0  0
   45.9000   32.6410   46.3020 C   0  0  0  0  0  0  0  0  0  0  0  0
   46.2960   31.3110   46.0810 C   0  0  0  0  0  0  0  0  0  0  0  0
   46.0770   30.3550   46.9880 N   0  0  0  0  0  0  0  0  0  0  0  0
   45.4500   30.6410   48.1810 C   0  0  0  0  0  0  0  0  0  0  0  0
   45.0640   31.8950   48.4120 N   0  0  0  0  0  0  0  0  0  0  0  0
   45.2350   29.6110   49.1400 N   0  0  0  0  0  0  0  0  0  0  0  0
   44.9550   33.8890   47.7180 H   0  0  0  0  0  0  0  0  0  0  0  0
   45.0130   29.8940   50.1150 H   0  0  0  0  0  0  0  0  0  0  0  0
   45.3020   28.6110   48.8600 H   0  0  0  0  0  0  0  0  0  0  0  0
   46.9720   30.6520   44.9680 C   0  0  0  0  0  0  0  0  0  0  0  0
   46.2590   29.8770   44.1230 N   0  0  0  0  0  0  0  0  0  0  0  0
   47.0550   29.4230   43.2130 O   0  0  0  0  0  0  0  0  0  0  0  0
   48.2640   29.8780   43.4400 C   0  0  0  0  0  0  0  0  0  0  0  0
   48.9990   29.5360   42.7080 H   0  0  0  0  0  0  0  0  0  0  0  0
   48.2800   30.6730   44.5510 N   0  0  0  0  0  0  0  0  0  0  0  0
   44.5110   35.2490   42.0310 C   0  0  0  0  0  0  0  0  0  0  0  0
   43.4800   34.4200   42.4130 F   0  0  0  0  0  0  0  0  0  0  0  0
   43.9350   36.4700   41.6910 F   0  0  0  0  0  0  0  0  0  0  0  0
   45.2080   34.7990   40.9140 F   0  0  0  0  0  0  0  0  0  0  0  0
  1  2  1  0  0  0  0
  1  7  1  1  0  0  0
  1 16  1  0  0  0  0
  2  8  1  0  0  0  0
  3  9  1  0  0  0  0
  3  2  2  0  0  0  0
  4 10  1  6  0  0  0
  4  3  1  0  0  0  0
  5  4  1  0  0  0  0
  5 11  1  0  0  0  0
  5  6  1  0  0  0  0
  6  1  1  0  0  0  0
 12  5  1  0  0  0  0
 13  6  1  0  0  0  0
 14  6  1  0  0  0  0
 15 22  1  0  0  0  0
 15 20  1  0  0  0  0
 16 15  2  0  0  0  0
 17 16  1  0  0  0  0
 17 18  2  0  0  0  0
 18 19  1  0  0  0  0
 19 20  2  0  0  0  0
 19 21  1  0  0  0  0
 21 23  1  0  0  0  0
 24 21  1  0  0  0  0
 25 17  1  0  0  0  0
 26 25  2  0  0  0  0
 27 28  1  0  0  0  0
 27 26  1  0  0  0  0
 28 30  2  0  0  0  0
 29 28  1  0  0  0  0
 30 25  1  0  0  0  0
 31 32  1  0  0  0  0
 31  4  1  0  0  0  0
 33 31  1  0  0  0  0
 34 31  1  0  0  0  0
M  END
>  <minimizedAffinity>
-5.56631804

>  <minimizedRMSD>
0.173732907

$$$$
