
 OpenBabel03232520583D

 34 36  0  0  1  0  0  0  0  0999 V2000
   46.1380   33.7650   44.2620 C   0  0  2  0  0  0  0  0  0  0  0  0
   45.0520   34.8470   44.6450 C   0  0  0  0  0  0  0  0  0  0  0  0
   44.5070   35.6380   43.5730 C   0  0  0  0  0  0  0  0  0  0  0  0
   44.9400   35.4260   42.1990 C   0  0  1  0  0  0  0  0  0  0  0  0
   46.0250   34.4600   41.9950 C   0  0  0  0  0  0  0  0  0  0  0  0
   45.8420   33.2960   42.9470 C   0  0  0  0  0  0  0  0  0  0  0  0
   47.0080   34.5000   44.2970 H   0  0  0  0  0  0  0  0  0  0  0  0
   44.5770   35.1680   45.5670 H   0  0  0  0  0  0  0  0  0  0  0  0
   43.7780   36.3840   43.7360 H   0  0  0  0  0  0  0  0  0  0  0  0
   45.2420   36.4190   41.7770 H   0  0  0  0  0  0  0  0  0  0  0  0
   46.9990   34.9370   42.2940 H   0  0  0  0  0  0  0  0  0  0  0  0
   46.1020   34.1220   40.9640 H   0  0  0  0  0  0  0  0  0  0  0  0
   46.3270   32.4830   42.4500 H   0  0  0  0  0  0  0  0  0  0  0  0
   44.7300   33.0690   42.8750 H   0  0  0  0  0  0  0  0  0  0  0  0
   45.7610   33.1900   46.6220 C   0  0  0  0  0  0  0  0  0  0  0  0
   46.2340   32.8810   45.3830 C   0  0  0  0  0  0  0  0  0  0  0  0
   46.7960   31.6020   45.2340 C   0  0  0  0  0  0  0  0  0  0  0  0
   46.8620   30.7420   46.2530 N   0  0  0  0  0  0  0  0  0  0  0  0
   46.3770   31.0800   47.4970 C   0  0  0  0  0  0  0  0  0  0  0  0
   45.8390   32.2880   47.6630 N   0  0  0  0  0  0  0  0  0  0  0  0
   46.4660   30.1550   48.5750 N   0  0  0  0  0  0  0  0  0  0  0  0
   45.3220   34.1480   46.8030 H   0  0  0  0  0  0  0  0  0  0  0  0
   46.3470   30.5200   49.5410 H   0  0  0  0  0  0  0  0  0  0  0  0
   46.6460   29.1470   48.3880 H   0  0  0  0  0  0  0  0  0  0  0  0
   47.3980   30.9130   44.0960 C   0  0  0  0  0  0  0  0  0  0  0  0
   48.6320   31.2700   43.6830 N   0  0  0  0  0  0  0  0  0  0  0  0
   48.9650   30.5150   42.6880 O   0  0  0  0  0  0  0  0  0  0  0  0
   47.9840   29.6780   42.4430 C   0  0  0  0  0  0  0  0  0  0  0  0
   48.1910   29.0020   41.6100 H   0  0  0  0  0  0  0  0  0  0  0  0
   46.9490   29.8810   43.3110 N   0  0  0  0  0  0  0  0  0  0  0  0
   43.6920   35.0060   41.3840 C   0  0  0  0  0  0  0  0  0  0  0  0
   42.9050   34.0890   42.0450 F   0  0  0  0  0  0  0  0  0  0  0  0
   42.9190   36.1530   41.2250 F   0  0  0  0  0  0  0  0  0  0  0  0
   44.0840   34.5960   40.1140 F   0  0  0  0  0  0  0  0  0  0  0  0
  1  7  1  6  0  0  0
  1  2  1  0  0  0  0
  1 16  1  0  0  0  0
  2  8  1  0  0  0  0
  3  9  1  0  0  0  0
  3  2  2  0  0  0  0
  4 10  1  6  0  0  0
  4  3  1  0  0  0  0
  5  4  1  0  0  0  0
  5 11  1  0  0  0  0
  5  6  1  0  0  0  0
  6  1  1  0  0  0  0
 12  5  1  0  0  0  0
 13  6  1  0  0  0  0
 14  6  1  0  0  0  0
 15 22  1  0  0  0  0
 15 20  1  0  0  0  0
 16 15  2  0  0  0  0
 17 16  1  0  0  0  0
 17 18  2  0  0  0  0
 18 19  1  0  0  0  0
 19 20  2  0  0  0  0
 19 21  1  0  0  0  0
 21 23  1  0  0  0  0
 24 21  1  0  0  0  0
 25 17  1  0  0  0  0
 26 25  2  0  0  0  0
 27 26  1  0  0  0  0
 28 27  1  0  0  0  0
 28 30  2  0  0  0  0
 29 28  1  0  0  0  0
 30 25  1  0  0  0  0
 31 32  1  0  0  0  0
 31  4  1  0  0  0  0
 33 31  1  0  0  0  0
 34 31  1  0  0  0  0
M  END
>  <minimizedAffinity>
-4.88507509

>  <minimizedRMSD>
1.18418741

$$$$
