
 OpenBabel03232519023D

 28 30  0  0  1  0  0  0  0  0999 V2000
   44.4580   35.9190   44.7520 C   0  0  0  0  0  0  0  0  0  0  0  0
   44.8880   35.7400   43.4190 C   0  0  0  0  0  0  0  0  0  0  0  0
   45.6730   34.6170   43.1300 C   0  0  0  0  0  0  0  0  0  0  0  0
   45.9640   33.7790   44.1640 N   0  0  0  0  0  0  0  0  0  0  0  0
   45.5450   33.9710   45.4160 C   0  0  0  0  0  0  0  0  0  0  0  0
   44.7970   35.0270   45.7250 N   0  0  0  0  0  0  0  0  0  0  0  0
   45.9070   33.0320   46.4190 N   0  0  0  0  0  0  0  0  0  0  0  0
   45.1230   33.0670   47.6490 C   0  0  0  0  0  0  0  0  0  0  0  0
   45.6480   32.1710   48.7280 C   0  0  0  0  0  0  0  0  0  0  0  0
   46.9430   31.7380   48.4830 O   0  0  0  0  0  0  0  0  0  0  0  0
   46.9200   31.0390   47.2720 C   0  0  0  0  0  0  0  0  0  0  0  0
   46.9990   32.1070   46.2010 C   0  0  1  0  0  0  0  0  0  0  0  0
   43.8410   36.7820   45.0340 H   0  0  0  0  0  0  0  0  0  0  0  0
   44.6090   36.4530   42.6720 H   0  0  0  0  0  0  0  0  0  0  0  0
   46.0230   34.4420   42.1220 H   0  0  0  0  0  0  0  0  0  0  0  0
   45.2350   34.1200   48.0200 H   0  0  0  0  0  0  0  0  0  0  0  0
   44.0630   32.8580   47.5060 H   0  0  0  0  0  0  0  0  0  0  0  0
   44.9590   31.3190   48.9050 H   0  0  0  0  0  0  0  0  0  0  0  0
   45.6830   32.7070   49.7200 H   0  0  0  0  0  0  0  0  0  0  0  0
   45.9710   30.4430   47.1780 H   0  0  0  0  0  0  0  0  0  0  0  0
   47.7490   30.3280   47.2010 H   0  0  0  0  0  0  0  0  0  0  0  0
   47.9240   32.6910   46.4340 H   0  0  0  0  0  0  0  0  0  0  0  0
   47.0470   31.5440   44.8400 C   0  0  0  0  0  0  0  0  0  0  0  0
   46.1080   30.7280   44.3190 N   0  0  0  0  0  0  0  0  0  0  0  0
   46.3970   30.3790   43.1030 O   0  0  0  0  0  0  0  0  0  0  0  0
   47.5350   30.9780   42.8330 C   0  0  0  0  0  0  0  0  0  0  0  0
   47.9790   30.8260   41.8430 H   0  0  0  0  0  0  0  0  0  0  0  0
   47.9630   31.7120   43.9010 N   0  0  0  0  0  0  0  0  0  0  0  0
  1 13  1  0  0  0  0
  1  6  1  0  0  0  0
  2  1  2  0  0  0  0
  3  2  1  0  0  0  0
  3  4  2  0  0  0  0
  4  5  1  0  0  0  0
  5  6  2  0  0  0  0
  5  7  1  0  0  0  0
  7  8  1  0  0  0  0
  8 16  1  0  0  0  0
  8  9  1  0  0  0  0
  9 18  1  0  0  0  0
  9 19  1  0  0  0  0
 10  9  1  0  0  0  0
 11 10  1  0  0  0  0
 12  7  1  0  0  0  0
 12 22  1  1  0  0  0
 12 11  1  0  0  0  0
 14  2  1  0  0  0  0
 15  3  1  0  0  0  0
 17  8  1  0  0  0  0
 20 11  1  0  0  0  0
 21 11  1  0  0  0  0
 23 12  1  0  0  0  0
 24 23  2  0  0  0  0
 25 24  1  0  0  0  0
 26 25  1  0  0  0  0
 26 28  2  0  0  0  0
 27 26  1  0  0  0  0
 28 23  1  0  0  0  0
M  END
>  <minimizedAffinity>
-4.62296009

>  <minimizedRMSD>
0.684916675

$$$$
