REMARK  Name = 
REMARK  3 active torsions:
REMARK  status: ('A' for Active; 'I' for Inactive)
REMARK    1  A    between atoms: C_1  and  C_8
REMARK    2  A    between atoms: C_4  and  C_14
REMARK    3  A    between atoms: C_9  and  C_29
REMARK                            x       y       z     vdW  Elec       q    Type
REMARK                         _______ _______ _______ _____ _____    ______ ____
ROOT
ATOM      1  C   UNL     1      46.107  33.652  45.324  0.00  0.00    +0.000 C 
ATOM      2  C   UNL     1      44.925  34.689  45.474  0.00  0.00    +0.000 C 
ATOM      3  C   UNL     1      44.696  35.587  44.372  0.00  0.00    +0.000 C 
ATOM      4  C   UNL     1      45.520  35.518  43.174  0.00  0.00    +0.000 C 
ATOM      5  C   UNL     1      46.645  34.578  43.205  0.00  0.00    +0.000 C 
ATOM      6  C   UNL     1      46.225  33.322  43.940  0.00  0.00    +0.000 C 
ATOM      7  H   UNL     1      46.906  34.379  45.687  0.00  0.00    +0.000 HD
ATOM      8  H   UNL     1      44.191  34.914  46.241  0.00  0.00    +0.000 HD
ATOM      9  H   UNL     1      43.929  36.313  44.385  0.00  0.00    +0.000 HD
ATOM     10  H   UNL     1      45.903  36.549  42.960  0.00  0.00    +0.000 HD
ATOM     11  H   UNL     1      47.474  35.020  43.824  0.00  0.00    +0.000 HD
ATOM     12  H   UNL     1      47.032  34.348  42.215  0.00  0.00    +0.000 HD
ATOM     13  H   UNL     1      46.859  32.564  43.531  0.00  0.00    +0.000 HD
ATOM     14  H   UNL     1      45.191  33.104  43.521  0.00  0.00    +0.000 HD
ENDROOT
BRANCH   1  16
ATOM     15  C   UNL     1      45.324  32.923  47.537  0.00  0.00    +0.000 A 
ATOM     16  C   UNL     1      45.896  32.657  46.330  0.00  0.00    +0.000 A 
ATOM     17  C   UNL     1      46.239  31.316  46.087  0.00  0.00    +0.000 A 
ATOM     18  N   UNL     1      46.016  30.361  46.993  0.00  0.00    +0.000 NA
ATOM     19  C   UNL     1      45.437  30.657  48.207  0.00  0.00    +0.000 A 
ATOM     20  N   UNL     1      45.102  31.922  48.460  0.00  0.00    +0.000 NA
ATOM     21  N   UNL     1      45.217  29.627  49.165  0.00  0.00    +0.000 N 
ATOM     22  H   UNL     1      45.040  33.924  47.785  0.00  0.00    +0.000 HD
ATOM     23  H   UNL     1      45.036  29.909  50.149  0.00  0.00    +0.000 HD
ATOM     24  H   UNL     1      45.240  28.628  48.875  0.00  0.00    +0.000 HD
BRANCH  17  25
ATOM     25  C   UNL     1      46.856  30.644  44.948  0.00  0.00    +0.000 A 
ATOM     26  N   UNL     1      47.642  31.350  44.108  0.00  0.00    +0.000 NA
ATOM     27  O   UNL     1      48.092  30.550  43.199  0.00  0.00    +0.000 OA
ATOM     28  C   UNL     1      47.623  29.346  43.422  0.00  0.00    +0.000 A 
ATOM     29  H   UNL     1      47.961  28.607  42.691  0.00  0.00    +0.000 HD
ATOM     30  N   UNL     1      46.824  29.337  44.530  0.00  0.00    +0.000 NA
ENDBRANCH  17  25
ENDBRANCH   1  16
BRANCH   4  31
ATOM     31  C   UNL     1      44.580  35.185  41.989  0.00  0.00    +0.000 C 
ATOM     32  F   UNL     1      43.591  34.288  42.326  0.00  0.00    +0.000 F 
ATOM     33  F   UNL     1      43.940  36.373  41.646  0.00  0.00    +0.000 F 
ATOM     34  F   UNL     1      45.339  34.796  40.890  0.00  0.00    +0.000 F 
ENDBRANCH   4  31
TORSDOF 3
