
 OpenBabel03232520573D

 34 36  0  0  1  0  0  0  0  0999 V2000
   46.1090   33.6030   45.3270 C   0  0  2  0  0  0  0  0  0  0  0  0
   44.9710   34.6830   45.5150 C   0  0  0  0  0  0  0  0  0  0  0  0
   44.7460   35.5950   44.4240 C   0  0  0  0  0  0  0  0  0  0  0  0
   45.5330   35.5030   43.2030 C   0  0  1  0  0  0  0  0  0  0  0  0
   46.6230   34.5220   43.1980 C   0  0  0  0  0  0  0  0  0  0  0  0
   46.1770   33.2780   43.9390 C   0  0  0  0  0  0  0  0  0  0  0  0
   46.9450   34.2980   45.6710 H   0  0  0  0  0  0  0  0  0  0  0  0
   44.2680   34.9300   46.3030 H   0  0  0  0  0  0  0  0  0  0  0  0
   44.0070   36.3490   44.4620 H   0  0  0  0  0  0  0  0  0  0  0  0
   45.9490   36.5200   42.9840 H   0  0  0  0  0  0  0  0  0  0  0  0
   47.4850   34.9290   43.7960 H   0  0  0  0  0  0  0  0  0  0  0  0
   46.9740   34.2830   42.1970 H   0  0  0  0  0  0  0  0  0  0  0  0
   46.7700   32.4990   43.5080 H   0  0  0  0  0  0  0  0  0  0  0  0
   45.1240   33.1010   43.5470 H   0  0  0  0  0  0  0  0  0  0  0  0
   45.3170   32.8820   47.5390 C   0  0  0  0  0  0  0  0  0  0  0  0
   45.8890   32.6110   46.3330 C   0  0  0  0  0  0  0  0  0  0  0  0
   46.2230   31.2670   46.0920 C   0  0  0  0  0  0  0  0  0  0  0  0
   45.9910   30.3150   46.9990 N   0  0  0  0  0  0  0  0  0  0  0  0
   45.4120   30.6160   48.2110 C   0  0  0  0  0  0  0  0  0  0  0  0
   45.0860   31.8840   48.4630 N   0  0  0  0  0  0  0  0  0  0  0  0
   45.1820   29.5890   49.1700 N   0  0  0  0  0  0  0  0  0  0  0  0
   45.0400   33.8860   47.7860 H   0  0  0  0  0  0  0  0  0  0  0  0
   45.0020   29.8730   50.1530 H   0  0  0  0  0  0  0  0  0  0  0  0
   45.1990   28.5890   48.8810 H   0  0  0  0  0  0  0  0  0  0  0  0
   46.8370   30.5900   44.9550 C   0  0  0  0  0  0  0  0  0  0  0  0
   48.1820   30.5410   44.8600 N   0  0  0  0  0  0  0  0  0  0  0  0
   48.4940   29.8770   43.7970 O   0  0  0  0  0  0  0  0  0  0  0  0
   47.3920   29.4940   43.1970 C   0  0  0  0  0  0  0  0  0  0  0  0
   47.5730   28.9230   42.2820 H   0  0  0  0  0  0  0  0  0  0  0  0
   46.2930   29.9180   43.8880 N   0  0  0  0  0  0  0  0  0  0  0  0
   44.5490   35.2120   42.0430 C   0  0  0  0  0  0  0  0  0  0  0  0
   43.5300   34.3600   42.4060 F   0  0  0  0  0  0  0  0  0  0  0  0
   43.9540   36.4280   41.7160 F   0  0  0  0  0  0  0  0  0  0  0  0
   45.2620   34.7900   40.9250 F   0  0  0  0  0  0  0  0  0  0  0  0
  1  2  1  0  0  0  0
  1  7  1  1  0  0  0
  1 16  1  0  0  0  0
  2  8  1  0  0  0  0
  3  9  1  0  0  0  0
  3  2  2  0  0  0  0
  4 10  1  6  0  0  0
  4  3  1  0  0  0  0
  5  4  1  0  0  0  0
  5 11  1  0  0  0  0
  5  6  1  0  0  0  0
  6  1  1  0  0  0  0
 12  5  1  0  0  0  0
 13  6  1  0  0  0  0
 14  6  1  0  0  0  0
 15 22  1  0  0  0  0
 15 20  1  0  0  0  0
 16 15  2  0  0  0  0
 17 16  1  0  0  0  0
 17 18  2  0  0  0  0
 18 19  1  0  0  0  0
 19 20  2  0  0  0  0
 19 21  1  0  0  0  0
 21 23  1  0  0  0  0
 24 21  1  0  0  0  0
 25 17  1  0  0  0  0
 26 25  2  0  0  0  0
 27 26  1  0  0  0  0
 28 27  1  0  0  0  0
 28 30  2  0  0  0  0
 29 28  1  0  0  0  0
 30 25  1  0  0  0  0
 31 32  1  0  0  0  0
 31  4  1  0  0  0  0
 33 31  1  0  0  0  0
 34 31  1  0  0  0  0
M  END
>  <minimizedAffinity>
-5.61126089

>  <minimizedRMSD>
0.226625949

$$$$
