
 OpenBabel03232520203D

 38 41  0  0  0  0  0  0  0  0999 V2000
   47.5500   34.1560   42.1950 C   0  0  0  0  0  0  0  0  0  0  0  0
   48.4250   35.2780   41.7190 C   0  0  0  0  0  0  0  0  0  0  0  0
   49.7630   35.3560   42.3380 C   0  0  0  0  0  0  0  0  0  0  0  0
   50.4740   34.0480   42.4660 C   0  0  0  0  0  0  0  0  0  0  0  0
   49.6110   32.8470   42.1580 C   0  0  0  0  0  0  0  0  0  0  0  0
   48.2940   33.0490   42.8870 C   0  0  0  0  0  0  0  0  0  0  0  0
   48.5570   35.2520   40.6040 H   0  0  0  0  0  0  0  0  0  0  0  0
   47.8900   36.2340   41.9170 H   0  0  0  0  0  0  0  0  0  0  0  0
   50.3720   36.0690   41.7770 H   0  0  0  0  0  0  0  0  0  0  0  0
   49.6710   35.7920   43.3730 H   0  0  0  0  0  0  0  0  0  0  0  0
   50.8720   33.8810   43.5080 H   0  0  0  0  0  0  0  0  0  0  0  0
   51.3630   34.0180   41.8150 H   0  0  0  0  0  0  0  0  0  0  0  0
   49.4700   32.7200   41.0630 H   0  0  0  0  0  0  0  0  0  0  0  0
   50.1430   31.9510   42.5870 H   0  0  0  0  0  0  0  0  0  0  0  0
   48.5590   33.3600   43.9200 H   0  0  0  0  0  0  0  0  0  0  0  0
   47.6860   32.1340   42.8830 H   0  0  0  0  0  0  0  0  0  0  0  0
   45.2520   34.4480   45.0900 C   0  0  0  0  0  0  0  0  0  0  0  0
   44.5420   35.6260   44.7900 C   0  0  0  0  0  0  0  0  0  0  0  0
   44.8560   36.2920   43.6220 C   0  0  0  0  0  0  0  0  0  0  0  0
   45.8280   35.7820   42.8260 N   0  0  0  0  0  0  0  0  0  0  0  0
   46.5030   34.6430   43.1310 C   0  0  0  0  0  0  0  0  0  0  0  0
   46.1980   33.9860   44.2780 N   0  0  0  0  0  0  0  0  0  0  0  0
   44.9690   33.9680   46.0090 H   0  0  0  0  0  0  0  0  0  0  0  0
   43.7630   36.0830   45.3730 H   0  0  0  0  0  0  0  0  0  0  0  0
   44.4140   37.2020   43.2430 H   0  0  0  0  0  0  0  0  0  0  0  0
   46.8890   33.5390   40.9850 C   0  0  0  0  0  0  0  0  0  0  0  0
   45.7710   32.7520   40.7270 C   0  0  0  0  0  0  0  0  0  0  0  0
   45.5550   32.4160   39.4380 C   0  0  0  0  0  0  0  0  0  0  0  0
   46.3610   32.8110   38.4400 C   0  0  0  0  0  0  0  0  0  0  0  0
   47.6510   33.8100   39.3500 S   0  0  0  0  0  0  0  0  0  0  0  0
   45.2010   32.5000   41.6080 H   0  0  0  0  0  0  0  0  0  0  0  0
   44.6960   31.8010   39.1820 H   0  0  0  0  0  0  0  0  0  0  0  0
   46.3560   32.6010   37.0460 C   0  0  0  0  0  0  0  0  0  0  0  0
   47.4010   32.4980   36.2070 N   0  0  0  0  0  0  0  0  0  0  0  0
   46.9480   32.3030   34.9840 O   0  0  0  0  0  0  0  0  0  0  0  0
   45.6430   32.2780   35.0090 C   0  0  0  0  0  0  0  0  0  0  0  0
   44.9030   32.1440   34.2210 H   0  0  0  0  0  0  0  0  0  0  0  0
   45.2510   32.4630   36.2910 N   0  0  0  0  0  0  0  0  0  0  0  0
  1  6  1  0  0  0  0
  1 21  1  0  0  0  0
  2  8  1  0  0  0  0
  2  1  1  0  0  0  0
  2  3  1  0  0  0  0
  3  4  1  0  0  0  0
  3 10  1  0  0  0  0
  4 11  1  0  0  0  0
  5  4  1  0  0  0  0
  5 14  1  0  0  0  0
  5  6  1  0  0  0  0
  6 15  1  0  0  0  0
  7  2  1  0  0  0  0
  9  3  1  0  0  0  0
 12  4  1  0  0  0  0
 13  5  1  0  0  0  0
 16  6  1  0  0  0  0
 17 23  1  0  0  0  0
 18 17  1  0  0  0  0
 18 24  1  0  0  0  0
 19 18  2  0  0  0  0
 20 21  2  0  0  0  0
 20 19  1  0  0  0  0
 21 22  1  0  0  0  0
 22 17  2  0  0  0  0
 25 19  1  0  0  0  0
 26  1  1  0  0  0  0
 27 26  2  0  0  0  0
 27 31  1  0  0  0  0
 28 27  1  0  0  0  0
 29 30  1  0  0  0  0
 29 28  2  0  0  0  0
 30 26  1  0  0  0  0
 32 28  1  0  0  0  0
 33 29  1  0  0  0  0
 34 33  2  0  0  0  0
 35 36  1  0  0  0  0
 35 34  1  0  0  0  0
 36 38  2  0  0  0  0
 37 36  1  0  0  0  0
 38 33  1  0  0  0  0
M  END
>  <minimizedAffinity>
-5.91671515

>  <minimizedRMSD>
0.424624264

$$$$
