
 OpenBabel03232520293D

 43 47  0  0  1  0  0  0  0  0999 V2000
   46.9590   34.5460   41.3590 C   0  0  0  0  0  0  0  0  0  0  0  0
   48.2310   34.9780   41.0400 C   0  0  0  0  0  0  0  0  0  0  0  0
   48.5100   34.6740   39.7780 N   0  0  0  0  0  0  0  0  0  0  0  0
   47.4330   34.0490   39.2730 C   0  0  0  0  0  0  0  0  0  0  0  0
   47.1940   33.5240   38.0070 C   0  0  0  0  0  0  0  0  0  0  0  0
   45.9840   32.9260   37.7490 C   0  0  0  0  0  0  0  0  0  0  0  0
   44.9720   32.8050   38.6700 C   0  0  0  0  0  0  0  0  0  0  0  0
   45.2450   33.3360   39.9130 C   0  0  0  0  0  0  0  0  0  0  0  0
   46.4300   33.9490   40.2440 C   0  0  0  0  0  0  0  0  0  0  0  0
   49.4010   34.8690   39.2330 H   0  0  0  0  0  0  0  0  0  0  0  0
   47.9790   33.6070   37.2590 H   0  0  0  0  0  0  0  0  0  0  0  0
   45.8920   32.5460   36.7290 H   0  0  0  0  0  0  0  0  0  0  0  0
   44.0540   32.3240   38.3950 H   0  0  0  0  0  0  0  0  0  0  0  0
   44.4820   33.2720   40.6850 H   0  0  0  0  0  0  0  0  0  0  0  0
   44.7660   35.8880   44.0800 C   0  0  0  0  0  0  0  0  0  0  0  0
   45.4240   35.7740   42.8300 C   0  0  0  0  0  0  0  0  0  0  0  0
   46.2670   34.6850   42.6480 C   0  0  0  0  0  0  0  0  0  0  0  0
   46.4380   33.7660   43.6660 N   0  0  0  0  0  0  0  0  0  0  0  0
   45.7780   33.9350   44.8420 C   0  0  0  0  0  0  0  0  0  0  0  0
   44.9490   34.9820   45.0530 N   0  0  0  0  0  0  0  0  0  0  0  0
   44.1030   36.7020   44.2860 H   0  0  0  0  0  0  0  0  0  0  0  0
   45.2560   36.5140   42.0740 H   0  0  0  0  0  0  0  0  0  0  0  0
   46.0540   33.1120   45.4870 H   0  0  0  0  0  0  0  0  0  0  0  0
   49.1280   35.6720   41.9810 C   0  0  0  0  0  0  0  0  0  0  0  0
   48.5240   36.2270   42.7350 H   0  0  0  0  0  0  0  0  0  0  0  0
   49.7000   36.4320   41.4110 H   0  0  0  0  0  0  0  0  0  0  0  0
   50.0440   34.7130   42.6910 C   0  0  0  0  0  0  0  0  0  0  0  0
   50.9980   35.2670   42.8940 H   0  0  0  0  0  0  0  0  0  0  0  0
   49.6180   34.4900   43.6750 H   0  0  0  0  0  0  0  0  0  0  0  0
   50.3670   33.4710   41.9140 C   0  0  1  0  0  0  0  0  0  0  0  0
   50.9290   32.2760   42.5400 C   0  0  0  0  0  0  0  0  0  0  0  0
   49.4760   32.2560   42.2880 C   0  0  2  0  0  0  0  0  0  0  0  0
   50.5040   33.5990   40.8370 H   0  0  0  0  0  0  0  0  0  0  0  0
   51.6430   31.6840   41.9530 H   0  0  0  0  0  0  0  0  0  0  0  0
   51.2540   32.4070   43.6070 H   0  0  0  0  0  0  0  0  0  0  0  0
   48.7780   32.3830   43.1340 H   0  0  0  0  0  0  0  0  0  0  0  0
   49.0780   31.3610   41.1620 C   0  0  0  0  0  0  0  0  0  0  0  0
   48.0400   30.4550   41.2350 C   0  0  0  0  0  0  0  0  0  0  0  0
   47.7170   29.6440   40.1480 C   0  0  0  0  0  0  0  0  0  0  0  0
   46.8840   28.9310   40.2350 H   0  0  0  0  0  0  0  0  0  0  0  0
   48.4340   29.7530   39.0090 N   0  0  0  0  0  0  0  0  0  0  0  0
   49.4340   30.6290   38.9460 C   0  0  0  0  0  0  0  0  0  0  0  0
   49.7640   31.4260   39.9930 N   0  0  0  0  0  0  0  0  0  0  0  0
  1 17  1  0  0  0  0
  2  1  2  0  0  0  0
  2 24  1  0  0  0  0
  3  2  1  0  0  0  0
  4  3  1  0  0  0  0
  4  9  1  0  0  0  0
  5  4  2  0  0  0  0
  6  5  1  0  0  0  0
  6  7  2  0  0  0  0
  7  8  1  0  0  0  0
  8  9  2  0  0  0  0
  8 14  1  0  0  0  0
  9  1  1  0  0  0  0
 10  3  1  0  0  0  0
 11  5  1  0  0  0  0
 12  6  1  0  0  0  0
 13  7  1  0  0  0  0
 15 21  1  0  0  0  0
 15 20  1  0  0  0  0
 16 15  2  0  0  0  0
 17 16  1  0  0  0  0
 17 18  2  0  0  0  0
 18 19  1  0  0  0  0
 19 20  2  0  0  0  0
 19 23  1  0  0  0  0
 22 16  1  0  0  0  0
 24 27  1  0  0  0  0
 24 25  1  0  0  0  0
 26 24  1  0  0  0  0
 27 28  1  0  0  0  0
 27 29  1  0  0  0  0
 30 33  1  6  0  0  0
 30 32  1  0  0  0  0
 30 31  1  0  0  0  0
 30 27  1  0  0  0  0
 31 35  1  0  0  0  0
 32 31  1  0  0  0  0
 32 36  1  1  0  0  0
 34 31  1  0  0  0  0
 37 38  1  0  0  0  0
 37 32  1  0  0  0  0
 39 40  1  0  0  0  0
 39 38  2  0  0  0  0
 41 39  1  0  0  0  0
 42 41  2  0  0  0  0
 42 43  1  0  0  0  0
 43 37  2  0  0  0  0
M  END
>  <minimizedAffinity>
-5.85727024

>  <minimizedRMSD>
0.58329159

$$$$
