
 OpenBabel03232520253D

 39 43  0  0  0  0  0  0  0  0999 V2000
   46.7090   34.5000   41.3430 C   0  0  0  0  0  0  0  0  0  0  0  0
   48.0150   34.7960   40.9950 C   0  0  0  0  0  0  0  0  0  0  0  0
   48.2620   34.3760   39.7530 N   0  0  0  0  0  0  0  0  0  0  0  0
   47.1390   33.8090   39.2820 C   0  0  0  0  0  0  0  0  0  0  0  0
   46.8710   33.2230   38.0550 C   0  0  0  0  0  0  0  0  0  0  0  0
   45.6150   32.7140   37.8360 C   0  0  0  0  0  0  0  0  0  0  0  0
   44.5700   32.7380   38.7610 C   0  0  0  0  0  0  0  0  0  0  0  0
   44.9000   33.3350   39.9600 C   0  0  0  0  0  0  0  0  0  0  0  0
   46.1260   33.8650   40.2540 C   0  0  0  0  0  0  0  0  0  0  0  0
   49.1620   34.4600   39.2170 H   0  0  0  0  0  0  0  0  0  0  0  0
   47.5920   33.1460   37.2670 H   0  0  0  0  0  0  0  0  0  0  0  0
   45.3990   32.2530   36.8740 H   0  0  0  0  0  0  0  0  0  0  0  0
   43.5990   32.3240   38.5390 H   0  0  0  0  0  0  0  0  0  0  0  0
   44.1490   33.3980   40.7340 H   0  0  0  0  0  0  0  0  0  0  0  0
   44.7750   36.2860   43.9870 C   0  0  0  0  0  0  0  0  0  0  0  0
   45.4180   36.0250   42.7640 C   0  0  0  0  0  0  0  0  0  0  0  0
   46.0380   34.7890   42.6080 C   0  0  0  0  0  0  0  0  0  0  0  0
   45.9970   33.8940   43.6380 N   0  0  0  0  0  0  0  0  0  0  0  0
   45.3630   34.1970   44.8010 C   0  0  0  0  0  0  0  0  0  0  0  0
   44.7540   35.3860   44.9800 N   0  0  0  0  0  0  0  0  0  0  0  0
   44.3020   37.2750   44.0590 H   0  0  0  0  0  0  0  0  0  0  0  0
   45.4100   36.7850   41.9860 H   0  0  0  0  0  0  0  0  0  0  0  0
   45.3820   33.4250   45.5630 H   0  0  0  0  0  0  0  0  0  0  0  0
   48.9700   35.4780   41.8960 C   0  0  0  0  0  0  0  0  0  0  0  0
   48.5100   36.3640   42.3460 H   0  0  0  0  0  0  0  0  0  0  0  0
   49.8650   35.7900   41.3040 H   0  0  0  0  0  0  0  0  0  0  0  0
   49.4110   34.5700   43.0120 C   0  0  0  0  0  0  0  0  0  0  0  0
   48.4980   34.2960   43.5790 H   0  0  0  0  0  0  0  0  0  0  0  0
   50.0320   35.1930   43.7030 H   0  0  0  0  0  0  0  0  0  0  0  0
   50.1530   33.3780   42.5260 C   0  0  0  0  0  0  0  0  0  0  0  0
   51.4000   33.1820   41.9650 C   0  0  0  0  0  0  0  0  0  0  0  0
   51.5650   31.8630   41.7080 N   0  0  0  0  0  0  0  0  0  0  0  0
   50.4590   31.1770   42.0840 C   0  0  0  0  0  0  0  0  0  0  0  0
   50.1650   29.8230   42.0190 C   0  0  0  0  0  0  0  0  0  0  0  0
   48.9320   29.4410   42.4930 C   0  0  0  0  0  0  0  0  0  0  0  0
   47.9920   30.3020   43.0150 C   0  0  0  0  0  0  0  0  0  0  0  0
   48.3770   31.6340   43.0390 C   0  0  0  0  0  0  0  0  0  0  0  0
   49.5950   32.1020   42.5840 C   0  0  0  0  0  0  0  0  0  0  0  0
   52.4290   31.4560   41.2830 H   0  0  0  0  0  0  0  0  0  0  0  0
  1 17  1  0  0  0  0
  2  1  2  0  0  0  0
  2 24  1  0  0  0  0
  3  2  1  0  0  0  0
  4  3  1  0  0  0  0
  4  9  1  0  0  0  0
  5  4  2  0  0  0  0
  6  5  1  0  0  0  0
  6  7  2  0  0  0  0
  7  8  1  0  0  0  0
  8  9  2  0  0  0  0
  8 14  1  0  0  0  0
  9  1  1  0  0  0  0
 10  3  1  0  0  0  0
 11  5  1  0  0  0  0
 12  6  1  0  0  0  0
 13  7  1  0  0  0  0
 15 21  1  0  0  0  0
 15 20  1  0  0  0  0
 16 15  2  0  0  0  0
 17 16  1  0  0  0  0
 17 18  2  0  0  0  0
 18 19  1  0  0  0  0
 19 20  2  0  0  0  0
 19 23  1  0  0  0  0
 22 16  1  0  0  0  0
 24 25  1  0  0  0  0
 24 27  1  0  0  0  0
 26 24  1  0  0  0  0
 27 28  1  0  0  0  0
 27 29  1  0  0  0  0
 30 38  1  0  0  0  0
 30 27  1  0  0  0  0
 31 30  2  0  0  0  0
 32 31  1  0  0  0  0
 32 33  1  0  0  0  0
 33 38  1  0  0  0  0
 34 33  2  0  0  0  0
 34 35  1  0  0  0  0
 35 36  2  0  0  0  0
 36 37  1  0  0  0  0
 38 37  2  0  0  0  0
 39 32  1  0  0  0  0
M  END
>  <minimizedAffinity>
-5.81569004

>  <minimizedRMSD>
2.0965631

$$$$
