
 OpenBabel03232520583D

 35 37  0  0  1  0  0  0  0  0999 V2000
   46.1010   33.5890   45.2930 C   0  0  2  0  0  0  0  0  0  0  0  0
   44.9730   34.6860   45.5170 C   0  0  0  0  0  0  0  0  0  0  0  0
   44.7440   35.6200   44.4430 C   0  0  0  0  0  0  0  0  0  0  0  0
   45.5100   35.5380   43.2160 C   0  0  1  0  0  0  0  0  0  0  0  0
   46.5920   34.5260   43.1690 C   0  0  0  0  0  0  0  0  0  0  0  0
   46.1000   33.2870   43.9030 C   0  0  0  0  0  0  0  0  0  0  0  0
   46.9450   34.2700   45.6250 H   0  0  0  0  0  0  0  0  0  0  0  0
   44.2860   34.9290   46.3240 H   0  0  0  0  0  0  0  0  0  0  0  0
   44.0070   36.3840   44.5160 H   0  0  0  0  0  0  0  0  0  0  0  0
   45.9670   36.5420   43.0150 H   0  0  0  0  0  0  0  0  0  0  0  0
   47.4810   34.8730   43.7490 H   0  0  0  0  0  0  0  0  0  0  0  0
   46.8750   34.3000   42.1430 H   0  0  0  0  0  0  0  0  0  0  0  0
   46.5640   32.5000   43.3840 H   0  0  0  0  0  0  0  0  0  0  0  0
   44.9920   33.2220   43.5660 H   0  0  0  0  0  0  0  0  0  0  0  0
   45.3620   32.8700   47.5410 C   0  0  0  0  0  0  0  0  0  0  0  0
   45.8680   32.6030   46.3010 C   0  0  0  0  0  0  0  0  0  0  0  0
   46.1080   31.2540   46.0270 C   0  0  0  0  0  0  0  0  0  0  0  0
   45.8550   30.2850   46.9240 N   0  0  0  0  0  0  0  0  0  0  0  0
   45.3470   30.5940   48.1640 C   0  0  0  0  0  0  0  0  0  0  0  0
   45.1090   31.8710   48.4510 N   0  0  0  0  0  0  0  0  0  0  0  0
   45.1210   29.5690   49.1310 N   0  0  0  0  0  0  0  0  0  0  0  0
   45.1470   33.8720   47.8460 H   0  0  0  0  0  0  0  0  0  0  0  0
   45.7520   29.6660   49.9720 H   0  0  0  0  0  0  0  0  0  0  0  0
   44.4360   28.8100   49.0560 H   0  0  0  0  0  0  0  0  0  0  0  0
   46.6770   30.5640   44.8770 C   0  0  0  0  0  0  0  0  0  0  0  0
   48.0740   30.4990   44.7650 C   0  0  0  0  0  3  0  0  0  0  0  0
   48.7980   29.9470   43.7050 C   0  0  0  0  0  0  0  0  0  0  0  0
   49.8760   29.9750   43.7670 H   0  0  0  0  0  0  0  0  0  0  0  0
   48.0410   29.4500   42.7370 N   0  0  0  0  0  0  0  0  0  0  0  0
   46.7020   29.4900   42.7990 C   0  0  0  0  0  3  0  0  0  0  0  0
   46.0430   30.0220   43.8220 N   0  0  0  0  0  0  0  0  0  0  0  0
   44.5120   35.2780   42.0610 C   0  0  0  0  0  0  0  0  0  0  0  0
   43.4560   34.4800   42.4370 F   0  0  0  0  0  0  0  0  0  0  0  0
   43.9760   36.5170   41.7230 F   0  0  0  0  0  0  0  0  0  0  0  0
   45.1860   34.8130   40.9480 F   0  0  0  0  0  0  0  0  0  0  0  0
  1  2  1  0  0  0  0
  1  7  1  1  0  0  0
  1 16  1  0  0  0  0
  2  8  1  0  0  0  0
  3  9  1  0  0  0  0
  3  2  2  0  0  0  0
  4 10  1  6  0  0  0
  4  3  1  0  0  0  0
  5  4  1  0  0  0  0
  5 11  1  0  0  0  0
  5  6  1  0  0  0  0
  6  1  1  0  0  0  0
 12  5  1  0  0  0  0
 13  6  1  0  0  0  0
 14  6  1  0  0  0  0
 15 22  1  0  0  0  0
 15 20  1  0  0  0  0
 16 15  2  0  0  0  0
 17 16  1  0  0  0  0
 17 18  2  0  0  0  0
 18 19  1  0  0  0  0
 19 20  2  0  0  0  0
 19 21  1  0  0  0  0
 21 23  1  0  0  0  0
 24 21  1  0  0  0  0
 25 17  1  0  0  0  0
 26 25  1  0  0  0  0
 27 28  1  0  0  0  0
 27 26  2  0  0  0  0
 29 30  2  0  0  0  0
 29 27  1  0  0  0  0
 30 31  1  0  0  0  0
 31 25  2  0  0  0  0
 32 33  1  0  0  0  0
 32  4  1  0  0  0  0
 34 32  1  0  0  0  0
 35 32  1  0  0  0  0
M  END
>  <minimizedAffinity>
-5.65371513

>  <minimizedRMSD>
0.502631187

$$$$
