REMARK  Name = 
REMARK  4 active torsions:
REMARK  status: ('A' for Active; 'I' for Inactive)
REMARK    1  A    between atoms: C_1  and  C_18
REMARK    2  A    between atoms: C_6  and  N_7
REMARK    3  A    between atoms: C_9  and  C_10
REMARK    4  A    between atoms: C_20  and  C_33
REMARK                            x       y       z     vdW  Elec       q    Type
REMARK                         _______ _______ _______ _____ _____    ______ ____
ROOT
ATOM      1  C   UNL     1      46.412  34.666  42.179  0.00  0.00    +0.000 A 
ATOM      2  C   UNL     1      47.719  35.024  42.039  0.00  0.00    +0.000 A 
ATOM      3  C   UNL     1      48.421  34.825  40.835  0.00  0.00    +0.000 A 
ATOM      4  C   UNL     1      47.766  34.244  39.749  0.00  0.00    +0.000 A 
ATOM      5  C   UNL     1      46.459  33.892  39.905  0.00  0.00    +0.000 A 
ATOM      6  C   UNL     1      45.793  34.099  41.101  0.00  0.00    +0.000 A 
ATOM      7  H   UNL     1      48.290  35.480  42.842  0.00  0.00    +0.000 HD
ATOM      8  H   UNL     1      49.462  35.119  40.749  0.00  0.00    +0.000 HD
ATOM      9  H   UNL     1      48.318  34.095  38.825  0.00  0.00    +0.000 HD
ATOM     10  H   UNL     1      45.952  33.437  39.048  0.00  0.00    +0.000 HD
ENDROOT
BRANCH   6  11
ATOM     11  N   UNL     1      44.430  33.712  41.205  0.00  0.00    +0.000 N 
ATOM     12  C   UNL     1      43.614  34.675  40.669  0.00  0.00    +0.000 A 
ATOM     13  C   UNL     1      42.227  34.508  40.662  0.00  0.00    +0.000 A 
ATOM     14  C   UNL     1      41.722  33.337  41.215  0.00  0.00    +0.000 A 
ATOM     15  O   UNL     1      40.484  33.126  41.239  0.00  0.00    +0.000 OA
ATOM     16  N   UNL     1      42.564  32.425  41.727  0.00  0.00    +0.000 N 
ATOM     17  C   UNL     1      43.895  32.603  41.726  0.00  0.00    +0.000 A 
ATOM     18  O   UNL     1      44.747  31.810  42.179  0.00  0.00    +0.000 OA
ATOM     19  H   UNL     1      43.927  35.596  40.228  0.00  0.00    +0.000 HD
ATOM     20  H   UNL     1      42.225  31.529  42.154  0.00  0.00    +0.000 HD
BRANCH  13  21
ATOM     21  C   UNL     1      41.307  35.525  40.091  0.00  0.00    +0.000 C 
ATOM     22  H   UNL     1      40.688  36.027  40.842  0.00  0.00    +0.000 HD
ATOM     23  H   UNL     1      40.696  34.990  39.325  0.00  0.00    +0.000 HD
ATOM     24  H   UNL     1      41.935  36.263  39.533  0.00  0.00    +0.000 HD
ENDBRANCH  13  21
ENDBRANCH   6  11
BRANCH   1  27
ATOM     25  C   UNL     1      44.426  36.143  45.010  0.00  0.00    +0.000 A 
ATOM     26  C   UNL     1      44.993  36.025  43.743  0.00  0.00    +0.000 A 
ATOM     27  C   UNL     1      45.768  34.907  43.454  0.00  0.00    +0.000 A 
ATOM     28  N   UNL     1      45.930  33.991  44.426  0.00  0.00    +0.000 NA
ATOM     29  C   UNL     1      45.366  34.135  45.648  0.00  0.00    +0.000 A 
ATOM     30  N   UNL     1      44.618  35.204  45.938  0.00  0.00    +0.000 NA
ATOM     31  H   UNL     1      43.837  37.059  45.125  0.00  0.00    +0.000 HD
ATOM     32  H   UNL     1      44.864  36.757  42.964  0.00  0.00    +0.000 HD
BRANCH  29  33
ATOM     33  C   UNL     1      45.583  33.101  46.656  0.00  0.00    +0.000 A 
ATOM     34  C   UNL     1      46.193  33.402  47.856  0.00  0.00    +0.000 A 
ATOM     35  C   UNL     1      46.387  32.425  48.782  0.00  0.00    +0.000 A 
ATOM     36  H   UNL     1      46.863  32.691  49.705  0.00  0.00    +0.000 HD
ATOM     37  N   UNL     1      45.984  31.145  48.540  0.00  0.00    +0.000 NA
ATOM     38  C   UNL     1      45.385  30.873  47.348  0.00  0.00    +0.000 A 
ATOM     39  N   UNL     1      45.190  31.835  46.427  0.00  0.00    +0.000 NA
ENDBRANCH  29  33
ENDBRANCH   1  27
TORSDOF 4
