
     RDKit          3D

 37 39  0  0  0  0  0  0  0  0999 V2000
   46.1271   33.6437   45.3142 C   0  0  2  0  0  0  0  0  0  0  0  0
   44.9298   34.6784   45.4718 C   0  0  0  0  0  0  0  0  0  0  0  0
   44.6927   35.5797   44.3734 C   0  0  0  0  0  0  0  0  0  0  0  0
   45.5142   35.5230   43.1804 C   0  0  1  0  0  0  0  0  0  0  0  0
   46.6522   34.5749   43.1964 C   0  0  0  0  0  0  0  0  0  0  0  0
   46.2014   33.3208   43.9306 C   0  0  0  0  0  0  0  0  0  0  0  0
   45.3192   32.9154   47.5345 C   0  0  0  0  0  0  0  0  0  0  0  0
   45.9080   32.6617   46.3290 C   0  0  0  0  0  0  0  0  0  0  0  0
   46.2535   31.3289   46.0969 C   0  0  0  0  0  0  0  0  0  0  0  0
   46.0197   30.3603   47.0002 N   0  0  0  0  0  0  0  0  0  0  0  0
   45.4260   30.6551   48.2049 C   0  0  0  0  0  0  0  0  0  0  0  0
   45.0870   31.9167   48.4520 N   0  0  0  0  0  0  0  0  0  0  0  0
   45.2187   29.6340   49.1802 N   0  0  0  0  0  0  0  0  0  0  0  0
   44.5809   35.1882   41.9901 C   0  0  0  0  0  0  0  0  0  0  0  0
   43.5938   34.2894   42.3208 F   0  0  0  0  0  0  0  0  0  0  0  0
   43.9417   36.3769   41.6489 F   0  0  0  0  0  0  0  0  0  0  0  0
   45.3312   34.8049   40.8937 F   0  0  0  0  0  0  0  0  0  0  0  0
   46.9156   34.3776   45.6682 H   0  0  0  0  0  0  0  0  0  0  0  0
   44.1957   34.8933   46.2465 H   0  0  0  0  0  0  0  0  0  0  0  0
   43.9115   36.3016   44.4020 H   0  0  0  0  0  0  0  0  0  0  0  0
   45.9213   36.5486   42.9804 H   0  0  0  0  0  0  0  0  0  0  0  0
   47.4945   34.9808   43.8046 H   0  0  0  0  0  0  0  0  0  0  0  0
   46.9907   34.3489   42.1866 H   0  0  0  0  0  0  0  0  0  0  0  0
   46.7307   32.5542   43.4456 H   0  0  0  0  0  0  0  0  0  0  0  0
   45.1143   33.1868   43.5496 H   0  0  0  0  0  0  0  0  0  0  0  0
   45.0195   33.9051   47.8074 H   0  0  0  0  0  0  0  0  0  0  0  0
   45.7959   29.7894   50.0506 H   0  0  0  0  0  0  0  0  0  0  0  0
   44.5927   28.8282   49.0863 H   0  0  0  0  0  0  0  0  0  0  0  0
   46.9295   30.6604   44.9928 C   0  0  0  0  0  0  0  0  0  0  0  0
   48.3051   30.8754   44.8278 C   0  0  0  0  0  0  0  0  0  0  0  0
   49.1051   30.3820   43.7929 C   0  0  0  0  0  0  0  0  0  0  0  0
   50.1552   30.6382   43.8068 H   0  0  0  0  0  0  0  0  0  0  0  0
   48.4486   29.6455   42.9086 N   0  0  0  0  0  0  0  0  0  0  0  0
   47.1326   29.4127   43.0246 C   0  0  0  0  0  0  0  0  0  0  0  0
   46.3996   29.8960   44.0205 N   0  0  0  0  0  0  0  0  0  0  0  0
   48.8040   31.4957   45.5913 H   0  0  0  0  0  0  0  0  0  0  0  0
   46.6360   28.7942   42.2622 H   0  0  0  0  0  0  0  0  0  0  0  0
  1  2  1  0
  1  8  1  0
  3  2  2  0
  4  5  1  0
  4  3  1  0
  5  6  1  0
  6  1  1  0
  7 12  2  0
  8  7  1  0
  9  8  2  0
  9 10  1  0
 10 11  2  0
 11 12  1  0
 11 13  1  0
 14 15  1  0
 14  4  1  0
 16 14  1  0
 17 14  1  0
  1 18  1  1
  2 19  1  0
  3 20  1  0
  4 21  1  6
  5 22  1  0
  5 23  1  0
  6 24  1  0
  6 25  1  0
  7 26  1  0
 13 27  1  0
 13 28  1  0
 29 30  2  0
 30 31  1  0
 31 32  1  0
 31 33  2  0
 33 34  1  0
 34 35  2  0
 35 29  1  0
 30 36  1  0
 34 37  1  0
  9 29  1  0
M  ISO  8  18  13  19  13  20  13  21  13  22  13  23  13  24  13  25  13
M  ISO  2  26  14  32  14
M  END
>  <DihAtoms>  (1) 
7,8,28,29

>  <DihDeg>  (1) 
-123.55574648496668

$$$$
