
 OpenBabel03232519303D

 38 40  0  0  1  0  0  0  0  0999 V2000
   47.2550   34.3020   40.2100 C   0  0  1  0  0  0  0  0  0  0  0  0
   48.3770   34.3890   39.1660 C   0  0  0  0  0  0  0  0  0  0  0  0
   47.7450   33.9740   37.8480 C   0  0  0  0  0  0  0  0  0  0  0  0
   47.4570   32.4900   37.9070 C   0  0  0  0  0  0  0  0  0  0  0  0
   47.4900   31.9660   39.3200 C   0  0  0  0  0  0  0  0  0  0  0  0
   46.7900   32.8990   40.3150 C   0  0  2  0  0  0  0  0  0  0  0  0
   46.4640   35.0060   39.8790 H   0  0  0  0  0  0  0  0  0  0  0  0
   49.1420   33.6520   39.4300 H   0  0  0  0  0  0  0  0  0  0  0  0
   48.7790   35.4240   39.1150 H   0  0  0  0  0  0  0  0  0  0  0  0
   46.8050   34.5380   37.7180 H   0  0  0  0  0  0  0  0  0  0  0  0
   48.4580   34.1940   36.9920 H   0  0  0  0  0  0  0  0  0  0  0  0
   48.2940   31.9800   37.3830 H   0  0  0  0  0  0  0  0  0  0  0  0
   46.5340   32.2590   37.3790 H   0  0  0  0  0  0  0  0  0  0  0  0
   48.4880   31.7440   39.7040 H   0  0  0  0  0  0  0  0  0  0  0  0
   46.9130   31.0070   39.3650 H   0  0  0  0  0  0  0  0  0  0  0  0
   47.0440   32.4130   41.2980 H   0  0  0  0  0  0  0  0  0  0  0  0
   45.3440   32.7050   40.0220 C   0  0  0  0  0  0  0  0  0  0  0  0
   44.4370   33.7630   39.9330 C   0  0  0  0  0  0  0  0  0  0  0  0
   43.0950   33.6470   39.6630 C   0  0  0  0  0  0  0  0  0  0  0  0
   42.4790   34.5330   39.6150 H   0  0  0  0  0  0  0  0  0  0  0  0
   42.6350   32.4020   39.4740 N   0  0  0  0  0  0  0  0  0  0  0  0
   43.4890   31.3650   39.5560 C   0  0  0  0  0  0  0  0  0  0  0  0
   44.7880   31.5160   39.8200 N   0  0  0  0  0  0  0  0  0  0  0  0
   47.7930   34.8100   41.5640 C   0  0  0  0  0  0  0  0  0  0  0  0
   47.6290   35.8520   41.7430 H   0  0  0  0  0  0  0  0  0  0  0  0
   48.9230   34.6880   41.4580 H   0  0  0  0  0  0  0  0  0  0  0  0
   47.3090   33.8240   42.5900 C   0  0  0  0  0  0  0  0  0  0  0  0
   48.1690   33.4220   43.1880 H   0  0  0  0  0  0  0  0  0  0  0  0
   46.7410   32.9660   42.1200 H   0  0  0  0  0  0  0  0  0  0  0  0
   46.1450   33.8230   44.7350 C   0  0  0  0  0  0  0  0  0  0  0  0
   46.3650   34.4300   43.4850 C   0  0  0  0  0  0  0  0  0  0  0  0
   45.6630   35.5610   43.1520 C   0  0  0  0  0  0  0  0  0  0  0  0
   44.7710   36.0520   44.0620 N   0  0  0  0  0  0  0  0  0  0  0  0
   44.5600   35.4670   45.2670 C   0  0  0  0  0  0  0  0  0  0  0  0
   45.2550   34.3480   45.5950 N   0  0  0  0  0  0  0  0  0  0  0  0
   46.6850   32.9450   45.0050 H   0  0  0  0  0  0  0  0  0  0  0  0
   45.6990   36.1410   42.2470 H   0  0  0  0  0  0  0  0  0  0  0  0
   43.8300   35.9310   45.9250 H   0  0  0  0  0  0  0  0  0  0  0  0
  1  7  1  6  0  0  0
  1  6  1  0  0  0  0
  1 24  1  0  0  0  0
  2  8  1  0  0  0  0
  2  1  1  0  0  0  0
  3  4  1  0  0  0  0
  3  2  1  0  0  0  0
  4  5  1  0  0  0  0
  5 15  1  0  0  0  0
  5 14  1  0  0  0  0
  5  6  1  0  0  0  0
  6 16  1  1  0  0  0
  9  2  1  0  0  0  0
 10  3  1  0  0  0  0
 11  3  1  0  0  0  0
 12  4  1  0  0  0  0
 13  4  1  0  0  0  0
 17  6  1  0  0  0  0
 18 17  1  0  0  0  0
 19 18  2  0  0  0  0
 20 19  1  0  0  0  0
 21 22  2  0  0  0  0
 21 19  1  0  0  0  0
 22 23  1  0  0  0  0
 23 17  2  0  0  0  0
 24 25  1  0  0  0  0
 24 27  1  0  0  0  0
 26 24  1  0  0  0  0
 27 28  1  0  0  0  0
 27 31  1  0  0  0  0
 29 27  1  0  0  0  0
 30 36  1  0  0  0  0
 30 35  1  0  0  0  0
 31 30  2  0  0  0  0
 32 31  1  0  0  0  0
 32 33  2  0  0  0  0
 33 34  1  0  0  0  0
 34 35  2  0  0  0  0
 34 38  1  0  0  0  0
 37 32  1  0  0  0  0
M  END
>  <minimizedAffinity>
-4.53186846

>  <minimizedRMSD>
1.5903579

$$$$
