REMARK  Name = 
REMARK  3 active torsions:
REMARK  status: ('A' for Active; 'I' for Inactive)
REMARK    1  A    between atoms: C_1  and  C_8
REMARK    2  A    between atoms: C_4  and  C_14
REMARK    3  A    between atoms: C_9  and  C_29
REMARK                            x       y       z     vdW  Elec       q    Type
REMARK                         _______ _______ _______ _____ _____    ______ ____
ROOT
ATOM      1  C   UNL     1      46.127  33.644  45.314  0.00  0.00    +0.000 C 
ATOM      2  C   UNL     1      44.930  34.678  45.472  0.00  0.00    +0.000 C 
ATOM      3  C   UNL     1      44.693  35.580  44.373  0.00  0.00    +0.000 C 
ATOM      4  C   UNL     1      45.514  35.523  43.180  0.00  0.00    +0.000 C 
ATOM      5  C   UNL     1      46.652  34.575  43.196  0.00  0.00    +0.000 C 
ATOM      6  C   UNL     1      46.201  33.321  43.931  0.00  0.00    +0.000 C 
ATOM      7  H   UNL     1      46.916  34.378  45.668  0.00  0.00    +0.000 HD
ATOM      8  H   UNL     1      44.196  34.893  46.246  0.00  0.00    +0.000 HD
ATOM      9  H   UNL     1      43.911  36.302  44.402  0.00  0.00    +0.000 HD
ATOM     10  H   UNL     1      45.921  36.549  42.980  0.00  0.00    +0.000 HD
ATOM     11  H   UNL     1      47.495  34.981  43.805  0.00  0.00    +0.000 HD
ATOM     12  H   UNL     1      46.991  34.349  42.187  0.00  0.00    +0.000 HD
ATOM     13  H   UNL     1      46.731  32.554  43.446  0.00  0.00    +0.000 HD
ATOM     14  H   UNL     1      45.114  33.187  43.550  0.00  0.00    +0.000 HD
ENDROOT
BRANCH   1  16
ATOM     15  C   UNL     1      45.319  32.915  47.535  0.00  0.00    +0.000 A 
ATOM     16  C   UNL     1      45.908  32.662  46.329  0.00  0.00    +0.000 A 
ATOM     17  C   UNL     1      46.254  31.329  46.097  0.00  0.00    +0.000 A 
ATOM     18  N   UNL     1      46.020  30.360  47.000  0.00  0.00    +0.000 NA
ATOM     19  C   UNL     1      45.426  30.655  48.205  0.00  0.00    +0.000 A 
ATOM     20  N   UNL     1      45.087  31.917  48.452  0.00  0.00    +0.000 NA
ATOM     21  N   UNL     1      45.219  29.634  49.180  0.00  0.00    +0.000 N 
ATOM     22  H   UNL     1      45.020  33.905  47.807  0.00  0.00    +0.000 HD
ATOM     23  H   UNL     1      45.796  29.789  50.051  0.00  0.00    +0.000 HD
ATOM     24  H   UNL     1      44.593  28.828  49.086  0.00  0.00    +0.000 HD
BRANCH  17  25
ATOM     25  C   UNL     1      46.929  30.660  44.993  0.00  0.00    +0.000 A 
ATOM     26  C   UNL     1      48.282  30.323  45.148  0.00  0.00    +0.000 A 
ATOM     27  C   UNL     1      49.111  29.748  44.180  0.00  0.00    +0.000 A 
ATOM     28  H   UNL     1      50.136  29.546  44.456  0.00  0.00    +0.000 HD
ATOM     29  N   UNL     1      48.510  29.520  43.022  0.00  0.00    +0.000 NA
ATOM     30  C   UNL     1      47.218  29.827  42.826  0.00  0.00    +0.000 A 
ATOM     31  N   UNL     1      46.456  30.373  43.766  0.00  0.00    +0.000 NA
ENDBRANCH  17  25
ENDBRANCH   1  16
BRANCH   4  32
ATOM     32  C   UNL     1      44.581  35.188  41.990  0.00  0.00    +0.000 C 
ATOM     33  F   UNL     1      43.594  34.289  42.321  0.00  0.00    +0.000 F 
ATOM     34  F   UNL     1      43.942  36.377  41.649  0.00  0.00    +0.000 F 
ATOM     35  F   UNL     1      45.331  34.805  40.894  0.00  0.00    +0.000 F 
ENDBRANCH   4  32
TORSDOF 3
