
 OpenBabel03232520573D

 35 37  0  0  1  0  0  0  0  0999 V2000
   46.1600   33.5900   45.3120 C   0  0  2  0  0  0  0  0  0  0  0  0
   45.0480   34.7070   45.5150 C   0  0  0  0  0  0  0  0  0  0  0  0
   44.8150   35.6080   44.4140 C   0  0  0  0  0  0  0  0  0  0  0  0
   45.5650   35.4780   43.1810 C   0  0  1  0  0  0  0  0  0  0  0  0
   46.6340   34.4530   43.1530 C   0  0  0  0  0  0  0  0  0  0  0  0
   46.1370   33.2440   43.9320 C   0  0  0  0  0  0  0  0  0  0  0  0
   47.0160   34.2710   45.6110 H   0  0  0  0  0  0  0  0  0  0  0  0
   44.3730   34.9830   46.3220 H   0  0  0  0  0  0  0  0  0  0  0  0
   44.0870   36.3840   44.4720 H   0  0  0  0  0  0  0  0  0  0  0  0
   46.0300   36.4700   42.9420 H   0  0  0  0  0  0  0  0  0  0  0  0
   47.5340   34.8070   43.7100 H   0  0  0  0  0  0  0  0  0  0  0  0
   46.9020   34.1900   42.1320 H   0  0  0  0  0  0  0  0  0  0  0  0
   46.5860   32.4350   43.4340 H   0  0  0  0  0  0  0  0  0  0  0  0
   45.0250   33.1810   43.6120 H   0  0  0  0  0  0  0  0  0  0  0  0
   45.1130   32.8530   47.4280 C   0  0  0  0  0  0  0  0  0  0  0  0
   45.9290   32.6390   46.3540 C   0  0  0  0  0  0  0  0  0  0  0  0
   46.5110   31.3720   46.2850 C   0  0  0  0  0  0  0  0  0  0  0  0
   46.2820   30.4260   47.2130 N   0  0  0  0  0  0  0  0  0  0  0  0
   45.4550   30.6810   48.2820 C   0  0  0  0  0  0  0  0  0  0  0  0
   44.8880   31.8800   48.3720 N   0  0  0  0  0  0  0  0  0  0  0  0
   45.2480   29.6920   49.2900 N   0  0  0  0  0  0  0  0  0  0  0  0
   44.6220   33.7930   47.5700 H   0  0  0  0  0  0  0  0  0  0  0  0
   45.6390   29.9860   50.2260 H   0  0  0  0  0  0  0  0  0  0  0  0
   44.7800   28.7890   49.1620 H   0  0  0  0  0  0  0  0  0  0  0  0
   47.4580   30.7680   45.3570 C   0  0  0  0  0  0  0  0  0  0  0  0
   48.4140   29.8770   45.8680 C   0  0  0  0  0  3  0  0  0  0  0  0
   49.4420   29.2600   45.1500 C   0  0  0  0  0  0  0  0  0  0  0  0
   50.1000   28.5950   45.6910 H   0  0  0  0  0  0  0  0  0  0  0  0
   49.4730   29.5840   43.8660 N   0  0  0  0  0  0  0  0  0  0  0  0
   48.5810   30.4320   43.3320 C   0  0  0  0  0  3  0  0  0  0  0  0
   47.6140   31.0030   44.0410 N   0  0  0  0  0  0  0  0  0  0  0  0
   44.5480   35.1930   42.0470 C   0  0  0  0  0  0  0  0  0  0  0  0
   43.5300   34.3560   42.4410 F   0  0  0  0  0  0  0  0  0  0  0  0
   43.9630   36.4160   41.7320 F   0  0  0  0  0  0  0  0  0  0  0  0
   45.2120   34.7600   40.9150 F   0  0  0  0  0  0  0  0  0  0  0  0
  1  2  1  0  0  0  0
  1  7  1  1  0  0  0
  1 16  1  0  0  0  0
  2  8  1  0  0  0  0
  3  9  1  0  0  0  0
  3  2  2  0  0  0  0
  4 10  1  6  0  0  0
  4  3  1  0  0  0  0
  5  4  1  0  0  0  0
  5 11  1  0  0  0  0
  5  6  1  0  0  0  0
  6  1  1  0  0  0  0
 12  5  1  0  0  0  0
 13  6  1  0  0  0  0
 14  6  1  0  0  0  0
 15 22  1  0  0  0  0
 15 20  1  0  0  0  0
 16 15  2  0  0  0  0
 17 16  1  0  0  0  0
 17 18  2  0  0  0  0
 18 19  1  0  0  0  0
 19 20  2  0  0  0  0
 19 21  1  0  0  0  0
 21 23  1  0  0  0  0
 24 21  1  0  0  0  0
 25 26  1  0  0  0  0
 25 17  1  0  0  0  0
 27 28  1  0  0  0  0
 27 26  2  0  0  0  0
 29 27  1  0  0  0  0
 30 29  2  0  0  0  0
 30 31  1  0  0  0  0
 31 25  2  0  0  0  0
 32 33  1  0  0  0  0
 32  4  1  0  0  0  0
 34 32  1  0  0  0  0
 35 32  1  0  0  0  0
M  END
>  <minimizedAffinity>
-5.78165722

>  <minimizedRMSD>
0.541975379

$$$$
