
 OpenBabel03232520213D

 39 42  0  0  0  0  0  0  0  0999 V2000
   47.5560   34.1580   42.1730 C   0  0  0  0  0  0  0  0  0  0  0  0
   48.4180   35.2890   41.6920 C   0  0  0  0  0  0  0  0  0  0  0  0
   49.7560   35.3780   42.2950 C   0  0  0  0  0  0  0  0  0  0  0  0
   50.4720   34.0670   42.4580 C   0  0  0  0  0  0  0  0  0  0  0  0
   49.6190   32.8750   42.1500 C   0  0  0  0  0  0  0  0  0  0  0  0
   48.2990   33.0630   42.8790 C   0  0  0  0  0  0  0  0  0  0  0  0
   48.5270   35.2580   40.5870 H   0  0  0  0  0  0  0  0  0  0  0  0
   47.8620   36.2390   41.9100 H   0  0  0  0  0  0  0  0  0  0  0  0
   49.7170   35.9440   43.2710 H   0  0  0  0  0  0  0  0  0  0  0  0
   50.3910   35.9980   41.6180 H   0  0  0  0  0  0  0  0  0  0  0  0
   50.7980   33.9760   43.5180 H   0  0  0  0  0  0  0  0  0  0  0  0
   51.3770   33.9750   41.8100 H   0  0  0  0  0  0  0  0  0  0  0  0
   50.1340   31.9790   42.5480 H   0  0  0  0  0  0  0  0  0  0  0  0
   49.3770   32.7790   41.0750 H   0  0  0  0  0  0  0  0  0  0  0  0
   47.7090   32.1370   42.8670 H   0  0  0  0  0  0  0  0  0  0  0  0
   48.4840   33.4190   43.9140 H   0  0  0  0  0  0  0  0  0  0  0  0
   45.2390   34.4600   45.0540 C   0  0  0  0  0  0  0  0  0  0  0  0
   44.5280   35.6330   44.7520 C   0  0  0  0  0  0  0  0  0  0  0  0
   44.8490   36.3000   43.5830 C   0  0  0  0  0  0  0  0  0  0  0  0
   45.8290   35.7920   42.7910 N   0  0  0  0  0  0  0  0  0  0  0  0
   46.5000   34.6540   43.1070 C   0  0  0  0  0  0  0  0  0  0  0  0
   46.1890   33.9980   44.2520 N   0  0  0  0  0  0  0  0  0  0  0  0
   44.9320   33.9990   45.9800 H   0  0  0  0  0  0  0  0  0  0  0  0
   43.7640   36.0230   45.3780 H   0  0  0  0  0  0  0  0  0  0  0  0
   44.3220   37.2000   43.3260 H   0  0  0  0  0  0  0  0  0  0  0  0
   46.8950   33.5290   40.9680 C   0  0  0  0  0  0  0  0  0  0  0  0
   45.7600   32.7770   40.7050 C   0  0  0  0  0  0  0  0  0  0  0  0
   45.5590   32.4190   39.4220 C   0  0  0  0  0  0  0  0  0  0  0  0
   46.3910   32.7590   38.4340 C   0  0  0  0  0  0  0  0  0  0  0  0
   47.6930   33.7330   39.3500 S   0  0  0  0  0  0  0  0  0  0  0  0
   45.1400   32.5450   41.5550 H   0  0  0  0  0  0  0  0  0  0  0  0
   44.7010   31.8290   39.1200 H   0  0  0  0  0  0  0  0  0  0  0  0
   46.4750   32.5540   37.0060 C   0  0  0  0  0  0  0  0  0  0  0  0
   47.7440   32.4880   36.4780 C   0  0  0  0  0  0  0  0  0  0  0  0
   47.8070   32.2910   35.1120 C   0  0  0  0  0  0  0  0  0  0  0  0
   48.7780   32.2300   34.6380 H   0  0  0  0  0  0  0  0  0  0  0  0
   46.6850   32.1740   34.3550 N   0  0  0  0  0  0  0  0  0  0  0  0
   45.4570   32.2460   34.9180 C   0  0  0  0  0  0  0  0  0  0  0  0
   45.3620   32.4390   36.2620 N   0  0  0  0  0  0  0  0  0  0  0  0
  1  6  1  0  0  0  0
  1 21  1  0  0  0  0
  2  8  1  0  0  0  0
  2  1  1  0  0  0  0
  2  3  1  0  0  0  0
  3  4  1  0  0  0  0
  3  9  1  0  0  0  0
  4 11  1  0  0  0  0
  5  4  1  0  0  0  0
  5 13  1  0  0  0  0
  5  6  1  0  0  0  0
  6 16  1  0  0  0  0
  7  2  1  0  0  0  0
 10  3  1  0  0  0  0
 12  4  1  0  0  0  0
 14  5  1  0  0  0  0
 15  6  1  0  0  0  0
 17 23  1  0  0  0  0
 18 17  1  0  0  0  0
 18 24  1  0  0  0  0
 19 18  2  0  0  0  0
 20 21  2  0  0  0  0
 20 19  1  0  0  0  0
 21 22  1  0  0  0  0
 22 17  2  0  0  0  0
 25 19  1  0  0  0  0
 26  1  1  0  0  0  0
 27 26  2  0  0  0  0
 27 31  1  0  0  0  0
 28 27  1  0  0  0  0
 29 30  1  0  0  0  0
 29 28  2  0  0  0  0
 30 26  1  0  0  0  0
 32 28  1  0  0  0  0
 33 29  1  0  0  0  0
 34 33  1  0  0  0  0
 35 34  2  0  0  0  0
 36 35  1  0  0  0  0
 37 38  2  0  0  0  0
 37 35  1  0  0  0  0
 38 39  1  0  0  0  0
 39 33  2  0  0  0  0
M  END
>  <minimizedAffinity>
-6.10751963

>  <minimizedRMSD>
0.478931695

$$$$
