
 OpenBabel03232518593D

 47 51  0  0  1  0  0  0  0  0999 V2000
   46.0920   32.0840   45.3550 C   0  0  1  0  0  0  0  0  0  0  0  0
   45.0720   31.9580   44.8650 H   0  0  0  0  0  0  0  0  0  0  0  0
   45.7930   32.1490   49.0540 C   0  0  0  0  0  0  0  0  0  0  0  0
   45.3690   30.8190   49.3340 C   0  0  0  0  0  0  0  0  0  0  0  0
   45.2000   29.9290   48.2440 C   0  0  0  0  0  0  0  0  0  0  0  0
   45.4510   30.3920   46.9940 N   0  0  0  0  0  0  0  0  0  0  0  0
   45.8520   31.6570   46.7620 C   0  0  0  0  0  0  0  0  0  0  0  0
   46.0170   32.5190   47.7980 N   0  0  0  0  0  0  0  0  0  0  0  0
   45.9330   32.8600   49.8590 H   0  0  0  0  0  0  0  0  0  0  0  0
   45.1970   30.5350   50.3580 H   0  0  0  0  0  0  0  0  0  0  0  0
   44.8830   28.9220   48.4250 H   0  0  0  0  0  0  0  0  0  0  0  0
   46.6370   33.4340   45.2410 C   0  0  0  0  0  0  0  0  0  0  0  0
   46.8610   33.9460   46.1970 H   0  0  0  0  0  0  0  0  0  0  0  0
   47.5780   33.4620   44.6720 H   0  0  0  0  0  0  0  0  0  0  0  0
   45.6850   34.2480   44.4020 C   0  0  0  0  0  0  0  0  0  0  0  0
   44.9020   35.1740   45.0160 C   0  0  0  0  0  0  0  0  0  0  0  0
   44.1280   35.7860   44.0520 C   0  0  0  0  0  0  0  0  0  0  0  0
   44.5060   35.1720   42.8940 N   0  0  0  0  0  0  0  0  0  0  0  0
   45.4380   34.2450   43.0680 N   0  0  0  0  0  0  0  0  0  0  0  0
   44.7680   35.5190   46.0520 H   0  0  0  0  0  0  0  0  0  0  0  0
   43.3810   36.5530   44.0490 H   0  0  0  0  0  0  0  0  0  0  0  0
   44.5180   34.5850   40.5620 N   0  0  0  0  0  0  0  0  0  0  0  0
   43.3990   34.1290   39.7560 C   0  0  0  0  0  0  0  0  0  0  0  0
   42.3070   33.9670   40.8070 C   0  0  0  0  0  0  0  0  0  0  0  0
   42.4670   35.2910   41.5470 C   0  0  0  0  0  0  0  0  0  0  0  0
   43.9730   35.4590   41.5520 C   0  0  1  0  0  0  0  0  0  0  0  0
   44.9000   33.6870   40.9890 H   0  0  0  0  0  0  0  0  0  0  0  0
   43.6050   33.1830   39.2240 H   0  0  0  0  0  0  0  0  0  0  0  0
   43.0800   34.9400   39.0730 H   0  0  0  0  0  0  0  0  0  0  0  0
   42.5610   33.1760   41.5310 H   0  0  0  0  0  0  0  0  0  0  0  0
   41.3040   33.8230   40.3780 H   0  0  0  0  0  0  0  0  0  0  0  0
   42.0580   36.1190   40.9100 H   0  0  0  0  0  0  0  0  0  0  0  0
   42.0130   35.2880   42.5400 H   0  0  0  0  0  0  0  0  0  0  0  0
   44.2480   36.5060   41.3260 H   0  0  0  0  0  0  0  0  0  0  0  0
   46.9210   31.0080   44.6760 C   0  0  0  0  0  0  0  0  0  0  0  0
   47.9990   31.2210   44.9730 H   0  0  0  0  0  0  0  0  0  0  0  0
   46.7150   30.0320   45.1940 H   0  0  0  0  0  0  0  0  0  0  0  0
   46.8450   30.9320   43.2300 C   0  0  0  0  0  0  0  0  0  0  0  0
   45.9280   30.4120   42.3570 C   0  0  0  0  0  0  0  0  0  0  0  0
   46.2020   30.6230   41.0380 N   0  0  0  0  0  0  0  0  0  0  0  0
   47.3540   31.3140   41.0580 C   0  0  0  0  0  0  0  0  0  0  0  0
   48.1370   31.7720   39.9890 C   0  0  0  0  0  0  0  0  0  0  0  0
   49.3210   32.4250   40.2390 C   0  0  0  0  0  0  0  0  0  0  0  0
   49.7250   32.6210   41.5300 C   0  0  0  0  0  0  0  0  0  0  0  0
   48.9840   32.1850   42.6320 C   0  0  0  0  0  0  0  0  0  0  0  0
   47.7770   31.5220   42.3510 C   0  0  0  0  0  0  0  0  0  0  0  0
   45.6580   30.3040   40.2120 H   0  0  0  0  0  0  0  0  0  0  0  0
  1  2  1  6  0  0  0
  1  7  1  0  0  0  0
  3  4  1  0  0  0  0
  3  9  1  0  0  0  0
  4 10  1  0  0  0  0
  5 11  1  0  0  0  0
  5  4  2  0  0  0  0
  6  5  1  0  0  0  0
  7  6  2  0  0  0  0
  7  8  1  0  0  0  0
  8  3  2  0  0  0  0
 12  1  1  0  0  0  0
 12 13  1  0  0  0  0
 14 12  1  0  0  0  0
 15 16  1  0  0  0  0
 15 12  1  0  0  0  0
 16 20  1  0  0  0  0
 17 16  2  0  0  0  0
 18 19  1  0  0  0  0
 18 17  1  0  0  0  0
 19 15  2  0  0  0  0
 21 17  1  0  0  0  0
 22 27  1  0  0  0  0
 22 26  1  0  0  0  0
 23 22  1  0  0  0  0
 23 24  1  0  0  0  0
 24 30  1  0  0  0  0
 24 25  1  0  0  0  0
 25 26  1  0  0  0  0
 25 33  1  0  0  0  0
 26 34  1  6  0  0  0
 26 18  1  0  0  0  0
 28 23  1  0  0  0  0
 29 23  1  0  0  0  0
 31 24  1  0  0  0  0
 32 25  1  0  0  0  0
 35 36  1  0  0  0  0
 35 37  1  0  0  0  0
 35  1  1  0  0  0  0
 38 35  1  0  0  0  0
 39 38  2  0  0  0  0
 40 41  1  0  0  0  0
 40 39  1  0  0  0  0
 41 46  1  0  0  0  0
 42 43  1  0  0  0  0
 42 41  2  0  0  0  0
 43 44  2  0  0  0  0
 44 45  1  0  0  0  0
 46 45  2  0  0  0  0
 46 38  1  0  0  0  0
 47 40  1  0  0  0  0
M  END
>  <minimizedAffinity>
-5.65492201

>  <minimizedRMSD>
0.466667682

$$$$
