
 OpenBabel03232518223D

 48 51  0  0  1  0  0  0  0  0999 V2000
   41.6980   34.7420   38.9730 C   0  0  0  0  0  0  0  0  0  0  0  0
   44.3850   34.7020   41.5110 C   0  0  2  0  0  0  0  0  0  0  0  0
   42.8430   34.6050   41.1910 C   0  0  0  0  0  0  0  0  0  0  0  0
   42.9850   34.8590   39.6900 C   0  0  1  0  0  0  0  0  0  0  0  0
   44.0340   33.8420   39.3570 C   0  0  0  0  0  0  0  0  0  0  0  0
   44.9390   33.7610   40.5910 C   0  0  0  0  0  0  0  0  0  0  0  0
   44.5880   35.7600   41.1830 H   0  0  0  0  0  0  0  0  0  0  0  0
   42.4560   33.6360   41.4460 H   0  0  0  0  0  0  0  0  0  0  0  0
   42.4590   35.4750   41.7490 H   0  0  0  0  0  0  0  0  0  0  0  0
   43.4420   35.8660   39.5940 H   0  0  0  0  0  0  0  0  0  0  0  0
   44.5620   34.1870   38.4690 H   0  0  0  0  0  0  0  0  0  0  0  0
   43.6520   32.8300   39.1690 H   0  0  0  0  0  0  0  0  0  0  0  0
   45.1030   32.7300   40.9000 H   0  0  0  0  0  0  0  0  0  0  0  0
   45.9520   34.1210   40.2410 H   0  0  0  0  0  0  0  0  0  0  0  0
   44.3410   35.7130   43.7260 C   0  0  0  0  0  0  0  0  0  0  0  0
   44.6460   34.6130   42.9410 C   0  0  0  0  0  0  0  0  0  0  0  0
   45.2280   33.4220   43.5100 C   0  0  0  0  0  0  0  0  0  0  0  0
   45.4670   33.4180   44.8530 N   0  0  0  0  0  0  0  0  0  0  0  0
   45.1540   34.5290   45.6190 C   0  0  0  0  0  0  0  0  0  0  0  0
   44.6010   35.6600   45.0720 N   0  0  0  0  0  0  0  0  0  0  0  0
   43.9140   36.5810   43.2830 H   0  0  0  0  0  0  0  0  0  0  0  0
   45.4520   32.5940   42.8870 H   0  0  0  0  0  0  0  0  0  0  0  0
   45.3510   34.5070   46.6800 H   0  0  0  0  0  0  0  0  0  0  0  0
   41.4860   35.8920   38.0430 C   0  0  0  0  0  0  0  0  0  0  0  0
   40.9050   36.7380   38.5030 H   0  0  0  0  0  0  0  0  0  0  0  0
   42.4410   36.3030   37.6400 H   0  0  0  0  0  0  0  0  0  0  0  0
   40.8930   35.5350   37.1780 H   0  0  0  0  0  0  0  0  0  0  0  0
   41.8000   33.4970   38.1200 C   0  0  0  0  0  0  0  0  0  0  0  0
   41.6860   32.5570   38.7250 H   0  0  0  0  0  0  0  0  0  0  0  0
   40.9250   33.4750   37.4270 H   0  0  0  0  0  0  0  0  0  0  0  0
   42.6910   33.4830   37.4660 H   0  0  0  0  0  0  0  0  0  0  0  0
   40.5750   34.5370   39.9110 C   0  0  0  0  0  0  0  0  0  0  0  0
   40.2390   35.3930   40.4780 H   0  0  0  0  0  0  0  0  0  0  0  0
   40.7810   33.7470   40.6940 H   0  0  0  0  0  0  0  0  0  0  0  0
   39.3680   34.0030   39.1810 C   0  0  2  0  0  0  0  0  0  0  0  0
   38.1040   33.6650   39.8910 C   0  0  0  0  0  0  0  0  0  0  0  0
   38.9620   32.5380   39.4750 C   0  0  2  0  0  0  0  0  0  0  0  0
   39.3350   34.2800   38.0990 H   0  0  0  0  0  0  0  0  0  0  0  0
   38.0760   34.0110   40.9580 H   0  0  0  0  0  0  0  0  0  0  0  0
   37.1680   33.9280   39.3380 H   0  0  0  0  0  0  0  0  0  0  0  0
   38.5740   31.9640   38.6050 H   0  0  0  0  0  0  0  0  0  0  0  0
   39.6530   31.8080   40.5510 C   0  0  0  0  0  0  0  0  0  0  0  0
   40.4130   30.7330   40.0760 C   0  0  0  0  0  0  0  0  0  0  0  0
   41.1480   29.9050   40.9290 C   0  0  0  0  0  0  0  0  0  0  0  0
   41.7320   29.0790   40.5630 H   0  0  0  0  0  0  0  0  0  0  0  0
   41.1230   30.1530   42.2500 N   0  0  0  0  0  0  0  0  0  0  0  0
   40.3780   31.2060   42.6970 C   0  0  0  0  0  0  0  0  0  0  0  0
   39.6760   31.9930   41.8640 N   0  0  0  0  0  0  0  0  0  0  0  0
  1  4  1  0  0  0  0
  1 32  1  0  0  0  0
  2  7  1  6  0  0  0
  2 16  1  0  0  0  0
  3  8  1  0  0  0  0
  3  2  1  0  0  0  0
  3  9  1  0  0  0  0
  4 10  1  6  0  0  0
  4  3  1  0  0  0  0
  5  4  1  0  0  0  0
  5  6  1  0  0  0  0
  6 13  1  0  0  0  0
  6  2  1  0  0  0  0
 11  5  1  0  0  0  0
 12  5  1  0  0  0  0
 14  6  1  0  0  0  0
 15 20  1  0  0  0  0
 16 17  1  0  0  0  0
 16 15  2  0  0  0  0
 17 18  2  0  0  0  0
 18 19  1  0  0  0  0
 19 23  1  0  0  0  0
 20 19  2  0  0  0  0
 21 15  1  0  0  0  0
 22 17  1  0  0  0  0
 24 25  1  0  0  0  0
 24  1  1  0  0  0  0
 26 24  1  0  0  0  0
 27 24  1  0  0  0  0
 28 29  1  0  0  0  0
 28  1  1  0  0  0  0
 30 28  1  0  0  0  0
 31 28  1  0  0  0  0
 32 33  1  0  0  0  0
 32 34  1  0  0  0  0
 35 38  1  6  0  0  0
 35 37  1  0  0  0  0
 35 36  1  0  0  0  0
 35 32  1  0  0  0  0
 36 39  1  0  0  0  0
 37 41  1  6  0  0  0
 37 36  1  0  0  0  0
 37 42  1  0  0  0  0
 40 36  1  0  0  0  0
 42 48  1  0  0  0  0
 43 42  2  0  0  0  0
 43 44  1  0  0  0  0
 44 46  2  0  0  0  0
 45 44  1  0  0  0  0
 46 47  1  0  0  0  0
 48 47  2  0  0  0  0
M  END
>  <minimizedAffinity>
-5.71244526

>  <minimizedRMSD>
1.64670277

$$$$
