
 OpenBabel03232520073D

 31 34  0  0  0  0  0  0  0  0999 V2000
   46.1860   30.4050   49.1610 N   0  0  0  0  0  0  0  0  0  0  0  0
   45.3370   31.4200   49.4540 C   0  0  0  0  0  0  0  0  0  0  0  0
   45.2620   32.2400   48.3840 N   0  0  0  0  0  0  0  0  0  0  0  0
   46.0760   31.7020   47.4500 C   0  0  0  0  0  0  0  0  0  0  0  0
   46.3150   32.2070   46.1830 C   0  0  0  0  0  0  0  0  0  0  0  0
   47.1760   31.5040   45.3950 N   0  0  0  0  0  0  0  0  0  0  0  0
   47.7650   30.3750   45.8270 C   0  0  0  0  0  0  0  0  0  0  0  0
   47.4990   29.9300   47.0640 N   0  0  0  0  0  0  0  0  0  0  0  0
   46.6700   30.5530   47.9030 C   0  0  0  0  0  0  0  0  0  0  0  0
   46.4940   29.5770   49.7460 H   0  0  0  0  0  0  0  0  0  0  0  0
   44.8300   31.5050   50.4100 H   0  0  0  0  0  0  0  0  0  0  0  0
   48.6950   29.6240   44.9640 C   0  0  0  0  0  0  0  0  0  0  0  0
   48.9740   30.1290   43.7060 C   0  0  0  0  0  0  0  0  0  0  0  0
   49.8450   29.3650   42.9770 C   0  0  0  0  0  0  0  0  0  0  0  0
   50.1660   29.6160   41.9820 H   0  0  0  0  0  0  0  0  0  0  0  0
   50.4080   28.2140   43.4090 N   0  0  0  0  0  0  0  0  0  0  0  0
   50.0930   27.7680   44.6570 C   0  0  0  0  0  0  0  0  0  0  0  0
   49.2400   28.4940   45.4010 N   0  0  0  0  0  0  0  0  0  0  0  0
   45.6400   33.6580   45.4470 S   0  0  0  0  0  0  0  0  0  0  0  0
   47.7930   34.7090   42.3490 C   0  0  0  0  0  0  0  0  0  0  0  0
   47.0690   34.3170   41.2190 C   0  0  0  0  0  0  0  0  0  0  0  0
   45.8540   33.6960   41.4330 C   0  0  0  0  0  0  0  0  0  0  0  0
   45.4200   33.4970   42.7130 N   0  0  0  0  0  0  0  0  0  0  0  0
   46.1710   33.9010   43.7700 C   0  0  0  0  0  0  0  0  0  0  0  0
   47.3380   34.4970   43.5810 N   0  0  0  0  0  0  0  0  0  0  0  0
   47.3910   34.4650   40.2170 H   0  0  0  0  0  0  0  0  0  0  0  0
   45.2020   33.3480   40.6690 H   0  0  0  0  0  0  0  0  0  0  0  0
   49.0870   35.3700   42.1410 C   0  0  0  0  0  0  0  0  0  0  0  0
   49.2370   36.1380   41.1580 O   0  0  0  0  0  0  0  0  0  0  0  0
   50.1100   35.1360   43.0240 O   0  0  0  0  0  0  0  0  0  0  0  0
   50.9860   35.6390   42.9060 H   0  0  0  0  0  0  0  0  0  0  0  0
  1  2  1  0  0  0  0
  1 10  1  0  0  0  0
  2 11  1  0  0  0  0
  3  2  2  0  0  0  0
  4  9  1  0  0  0  0
  4  3  1  0  0  0  0
  5  4  2  0  0  0  0
  6  7  2  0  0  0  0
  6  5  1  0  0  0  0
  7  8  1  0  0  0  0
  8  9  2  0  0  0  0
  9  1  1  0  0  0  0
 12 18  1  0  0  0  0
 12  7  1  0  0  0  0
 13 12  2  0  0  0  0
 14 16  2  0  0  0  0
 14 13  1  0  0  0  0
 15 14  1  0  0  0  0
 16 17  1  0  0  0  0
 17 18  2  0  0  0  0
 19  5  1  0  0  0  0
 20 25  1  0  0  0  0
 21 22  1  0  0  0  0
 21 20  2  0  0  0  0
 22 23  2  0  0  0  0
 23 24  1  0  0  0  0
 24 19  1  0  0  0  0
 25 24  2  0  0  0  0
 26 21  1  0  0  0  0
 27 22  1  0  0  0  0
 28 20  1  0  0  0  0
 28 30  1  0  0  0  0
 29 28  2  0  0  0  0
 31 30  1  0  0  0  0
M  END
>  <minimizedAffinity>
-5.76184177

>  <minimizedRMSD>
0.372859716

$$$$
