
 OpenBabel03232516543D

 18 19  0  0  0  0  0  0  0  0999 V2000
   46.2340   33.6920   44.5740 C   0  0  0  0  0  0  0  0  0  0  0  0
   45.7680   33.6960   45.8740 C   0  0  0  0  0  0  0  0  0  0  0  0
   44.8240   34.7000   46.1250 C   0  0  0  0  0  0  0  0  0  0  0  0
   44.4400   35.5550   45.1530 N   0  0  0  0  0  0  0  0  0  0  0  0
   44.9250   35.5040   43.9050 C   0  0  0  0  0  0  0  0  0  0  0  0
   45.8130   34.5770   43.6300 N   0  0  0  0  0  0  0  0  0  0  0  0
   44.2800   34.9670   47.0090 H   0  0  0  0  0  0  0  0  0  0  0  0
   44.6940   36.1220   43.0630 H   0  0  0  0  0  0  0  0  0  0  0  0
   46.0750   32.8410   46.9890 C   0  0  0  0  0  0  0  0  0  0  0  0
   45.0790   32.2740   47.7450 C   0  0  0  0  0  0  0  0  0  0  0  0
   45.2830   31.4560   48.8290 C   0  0  0  0  0  0  0  0  0  0  0  0
   44.5180   31.0030   49.4320 H   0  0  0  0  0  0  0  0  0  0  0  0
   46.5580   31.1740   49.1980 N   0  0  0  0  0  0  0  0  0  0  0  0
   47.5410   31.7220   48.4700 C   0  0  0  0  0  0  0  0  0  0  0  0
   47.2770   32.5020   47.4360 N   0  0  0  0  0  0  0  0  0  0  0  0
   47.2400   32.6800   44.2980 C   0  0  0  0  0  0  0  0  0  0  0  0
   48.2000   32.8500   43.4550 O   0  0  0  0  0  0  0  0  0  0  0  0
   47.3850   31.6740   44.6980 H   0  0  0  0  0  0  0  0  0  0  0  0
  1  2  1  0  0  0  0
  2  3  2  0  0  0  0
  2  9  1  0  0  0  0
  3  7  1  0  0  0  0
  4  3  1  0  0  0  0
  5  4  2  0  0  0  0
  6  5  1  0  0  0  0
  6  1  2  0  0  0  0
  8  5  1  0  0  0  0
  9 15  2  0  0  0  0
  9 10  1  0  0  0  0
 10 11  2  0  0  0  0
 11 13  1  0  0  0  0
 11 12  1  0  0  0  0
 14 13  2  0  0  0  0
 15 14  1  0  0  0  0
 16  1  1  0  0  0  0
 16 18  1  0  0  0  0
 17 16  1  0  0  0  0
M  END
>  <minimizedAffinity>
-4.37303352

>  <minimizedRMSD>
5.86036491

$$$$
