
 OpenBabel03232518593D

 47 51  0  0  1  0  0  0  0  0999 V2000
   46.7740   32.0200   45.6000 C   0  0  1  0  0  0  0  0  0  0  0  0
   47.8800   32.0360   45.7720 H   0  0  0  0  0  0  0  0  0  0  0  0
   45.1160   30.0250   48.2150 C   0  0  0  0  0  0  0  0  0  0  0  0
   45.1940   30.9310   49.3400 C   0  0  0  0  0  0  0  0  0  0  0  0
   45.8140   32.1980   49.1440 C   0  0  0  0  0  0  0  0  0  0  0  0
   46.2910   32.4660   47.9040 N   0  0  0  0  0  0  0  0  0  0  0  0
   46.2020   31.6120   46.8920 C   0  0  0  0  0  0  0  0  0  0  0  0
   45.6160   30.3940   47.0450 N   0  0  0  0  0  0  0  0  0  0  0  0
   44.6350   29.1220   48.4920 H   0  0  0  0  0  0  0  0  0  0  0  0
   44.8300   30.7530   50.3310 H   0  0  0  0  0  0  0  0  0  0  0  0
   45.8780   32.8810   49.9770 H   0  0  0  0  0  0  0  0  0  0  0  0
   46.4570   31.1250   44.4670 C   0  0  0  0  0  0  0  0  0  0  0  0
   45.7350   30.3230   44.6930 H   0  0  0  0  0  0  0  0  0  0  0  0
   45.9690   31.7250   43.6560 H   0  0  0  0  0  0  0  0  0  0  0  0
   47.7100   30.6140   43.8570 C   0  0  0  0  0  0  0  0  0  0  0  0
   48.5890   29.9130   44.6180 C   0  0  0  0  0  0  0  0  0  0  0  0
   49.6550   29.5710   43.8260 C   0  0  0  0  0  0  0  0  0  0  0  0
   49.3450   30.0990   42.6070 N   0  0  0  0  0  0  0  0  0  0  0  0
   48.1950   30.7200   42.6090 N   0  0  0  0  0  0  0  0  0  0  0  0
   48.5910   29.6020   45.6690 H   0  0  0  0  0  0  0  0  0  0  0  0
   50.5940   29.0210   43.9700 H   0  0  0  0  0  0  0  0  0  0  0  0
   49.6450   30.8150   40.3180 N   0  0  0  0  0  0  0  0  0  0  0  0
   50.7460   31.5530   39.7530 C   0  0  0  0  0  0  0  0  0  0  0  0
   51.5680   31.8590   40.9980 C   0  0  0  0  0  0  0  0  0  0  0  0
   51.5750   30.4970   41.6770 C   0  0  0  0  0  0  0  0  0  0  0  0
   50.1770   30.0110   41.3970 C   0  0  1  0  0  0  0  0  0  0  0  0
   48.9030   31.4690   40.6460 H   0  0  0  0  0  0  0  0  0  0  0  0
   51.3550   30.8930   39.0880 H   0  0  0  0  0  0  0  0  0  0  0  0
   50.4470   32.4710   39.2470 H   0  0  0  0  0  0  0  0  0  0  0  0
   51.0840   32.6150   41.6220 H   0  0  0  0  0  0  0  0  0  0  0  0
   52.5860   32.1970   40.7520 H   0  0  0  0  0  0  0  0  0  0  0  0
   52.3610   29.8670   41.2580 H   0  0  0  0  0  0  0  0  0  0  0  0
   51.6570   30.6750   42.7740 H   0  0  0  0  0  0  0  0  0  0  0  0
   50.1390   28.9570   41.0580 H   0  0  0  0  0  0  0  0  0  0  0  0
   46.4060   33.4630   45.2730 C   0  0  0  0  0  0  0  0  0  0  0  0
   45.5880   33.6630   46.0260 H   0  0  0  0  0  0  0  0  0  0  0  0
   47.2270   34.1080   45.7220 H   0  0  0  0  0  0  0  0  0  0  0  0
   46.1400   33.8860   43.9520 C   0  0  0  0  0  0  0  0  0  0  0  0
   44.8240   33.9590   43.5470 C   0  0  0  0  0  0  0  0  0  0  0  0
   44.3970   34.2990   42.2800 C   0  0  0  0  0  0  0  0  0  0  0  0
   45.3580   34.5900   41.3440 C   0  0  0  0  0  0  0  0  0  0  0  0
   46.6990   34.5370   41.6850 C   0  0  0  0  0  0  0  0  0  0  0  0
   47.7010   34.8600   40.7670 C   0  0  0  0  0  0  0  0  0  0  0  0
   49.0590   34.8500   41.0860 C   0  0  0  0  0  0  0  0  0  0  0  0
   49.4080   34.5030   42.3750 C   0  0  0  0  0  0  0  0  0  0  0  0
   48.4330   34.1820   43.2890 C   0  0  0  0  0  0  0  0  0  0  0  0
   47.0750   34.1950   42.9530 C   0  0  0  0  0  0  0  0  0  0  0  0
  1  2  1  1  0  0  0
  1  7  1  0  0  0  0
  3  9  1  0  0  0  0
  3  4  1  0  0  0  0
  4 10  1  0  0  0  0
  5  4  2  0  0  0  0
  5 11  1  0  0  0  0
  6  5  1  0  0  0  0
  7  8  1  0  0  0  0
  7  6  2  0  0  0  0
  8  3  2  0  0  0  0
 12 13  1  0  0  0  0
 12  1  1  0  0  0  0
 14 12  1  0  0  0  0
 15 12  1  0  0  0  0
 15 16  1  0  0  0  0
 16 20  1  0  0  0  0
 17 21  1  0  0  0  0
 17 16  2  0  0  0  0
 18 19  1  0  0  0  0
 18 17  1  0  0  0  0
 19 15  2  0  0  0  0
 22 27  1  0  0  0  0
 22 26  1  0  0  0  0
 23 22  1  0  0  0  0
 23 24  1  0  0  0  0
 24 30  1  0  0  0  0
 24 25  1  0  0  0  0
 25 33  1  0  0  0  0
 26 34  1  6  0  0  0
 26 25  1  0  0  0  0
 26 18  1  0  0  0  0
 28 23  1  0  0  0  0
 29 23  1  0  0  0  0
 31 24  1  0  0  0  0
 32 25  1  0  0  0  0
 35  1  1  0  0  0  0
 35 37  1  0  0  0  0
 35 36  1  0  0  0  0
 38 35  1  0  0  0  0
 39 38  1  0  0  0  0
 40 39  2  0  0  0  0
 41 42  2  0  0  0  0
 41 40  1  0  0  0  0
 42 47  1  0  0  0  0
 43 44  2  0  0  0  0
 43 42  1  0  0  0  0
 44 45  1  0  0  0  0
 45 46  2  0  0  0  0
 47 46  1  0  0  0  0
 47 38  2  0  0  0  0
M  END
>  <minimizedAffinity>
-5.83836031

>  <minimizedRMSD>
6.4862957

$$$$
