
 OpenBabel03232520253D

 39 43  0  0  0  0  0  0  0  0999 V2000
   46.2500   34.4170   41.5260 C   0  0  0  0  0  0  0  0  0  0  0  0
   47.5510   34.5740   41.0810 C   0  0  0  0  0  0  0  0  0  0  0  0
   47.6730   34.0940   39.8440 N   0  0  0  0  0  0  0  0  0  0  0  0
   46.4710   33.6280   39.4810 C   0  0  0  0  0  0  0  0  0  0  0  0
   46.0490   33.0290   38.3010 C   0  0  0  0  0  0  0  0  0  0  0  0
   44.7350   32.6400   38.1920 C   0  0  0  0  0  0  0  0  0  0  0  0
   43.7740   32.7970   39.1810 C   0  0  0  0  0  0  0  0  0  0  0  0
   44.2420   33.3960   40.3310 C   0  0  0  0  0  0  0  0  0  0  0  0
   45.5410   33.8120   40.5130 C   0  0  0  0  0  0  0  0  0  0  0  0
   48.5290   34.0620   39.2260 H   0  0  0  0  0  0  0  0  0  0  0  0
   46.7440   32.8720   37.4780 H   0  0  0  0  0  0  0  0  0  0  0  0
   44.4610   32.1730   37.2370 H   0  0  0  0  0  0  0  0  0  0  0  0
   42.7610   32.4870   39.0720 H   0  0  0  0  0  0  0  0  0  0  0  0
   43.5470   33.5570   41.1580 H   0  0  0  0  0  0  0  0  0  0  0  0
   44.6810   36.4760   44.2280 C   0  0  0  0  0  0  0  0  0  0  0  0
   45.2020   36.1100   42.9700 C   0  0  0  0  0  0  0  0  0  0  0  0
   45.7070   34.8120   42.8200 C   0  0  0  0  0  0  0  0  0  0  0  0
   45.6730   33.9580   43.9000 N   0  0  0  0  0  0  0  0  0  0  0  0
   45.1590   34.3730   45.0850 C   0  0  0  0  0  0  0  0  0  0  0  0
   44.6650   35.6210   45.2530 N   0  0  0  0  0  0  0  0  0  0  0  0
   44.3180   37.5130   44.2160 H   0  0  0  0  0  0  0  0  0  0  0  0
   45.2290   36.7810   42.1170 H   0  0  0  0  0  0  0  0  0  0  0  0
   45.1300   33.7080   45.9360 H   0  0  0  0  0  0  0  0  0  0  0  0
   48.6390   35.1990   41.8960 C   0  0  0  0  0  0  0  0  0  0  0  0
   48.2760   36.1580   42.2650 H   0  0  0  0  0  0  0  0  0  0  0  0
   49.4490   35.4150   41.1720 H   0  0  0  0  0  0  0  0  0  0  0  0
   49.0640   34.2630   43.0120 C   0  0  0  0  0  0  0  0  0  0  0  0
   48.1380   34.0560   43.5970 H   0  0  0  0  0  0  0  0  0  0  0  0
   49.7370   34.8100   43.7050 H   0  0  0  0  0  0  0  0  0  0  0  0
   49.6500   33.0150   42.5290 C   0  0  0  0  0  0  0  0  0  0  0  0
   50.8490   33.0790   41.8100 C   0  0  0  0  0  0  0  0  0  0  0  0
   51.4140   31.8870   41.3680 C   0  0  0  0  0  0  0  0  0  0  0  0
   50.8520   30.6330   41.6010 C   0  0  0  0  0  0  0  0  0  0  0  0
   49.6550   30.5800   42.3190 C   0  0  0  0  0  0  0  0  0  0  0  0
   49.0350   29.3840   42.5870 C   0  0  0  0  0  0  0  0  0  0  0  0
   47.8540   29.2900   43.2850 C   0  0  0  0  0  0  0  0  0  0  0  0
   47.2730   30.4610   43.7340 C   0  0  0  0  0  0  0  0  0  0  0  0
   47.9070   31.6590   43.4580 C   0  0  0  0  0  0  0  0  0  0  0  0
   49.0910   31.7770   42.7620 C   0  0  0  0  0  0  0  0  0  0  0  0
  1 17  1  0  0  0  0
  2  1  2  0  0  0  0
  2 24  1  0  0  0  0
  3  2  1  0  0  0  0
  4  3  1  0  0  0  0
  4  9  1  0  0  0  0
  5  4  2  0  0  0  0
  6  5  1  0  0  0  0
  6  7  2  0  0  0  0
  7  8  1  0  0  0  0
  8  9  2  0  0  0  0
  8 14  1  0  0  0  0
  9  1  1  0  0  0  0
 10  3  1  0  0  0  0
 11  5  1  0  0  0  0
 12  6  1  0  0  0  0
 13  7  1  0  0  0  0
 15 20  1  0  0  0  0
 16 15  2  0  0  0  0
 17 16  1  0  0  0  0
 17 18  2  0  0  0  0
 18 19  1  0  0  0  0
 19 20  2  0  0  0  0
 19 23  1  0  0  0  0
 21 15  1  0  0  0  0
 22 16  1  0  0  0  0
 24 25  1  0  0  0  0
 24 27  1  0  0  0  0
 26 24  1  0  0  0  0
 27 28  1  0  0  0  0
 27 29  1  0  0  0  0
 30 39  1  0  0  0  0
 30 27  1  0  0  0  0
 31 30  2  0  0  0  0
 32 33  2  0  0  0  0
 32 31  1  0  0  0  0
 33 34  1  0  0  0  0
 34 35  2  0  0  0  0
 34 39  1  0  0  0  0
 35 36  1  0  0  0  0
 36 37  2  0  0  0  0
 38 37  1  0  0  0  0
 39 38  2  0  0  0  0
M  END
>  <minimizedAffinity>
-5.78136444

>  <minimizedRMSD>
2.17792225

$$$$
