
 OpenBabel03232519053D

 43 44  0  0  1  0  0  0  0  0999 V2000
   44.4920   35.9370   45.0930 C   0  0  0  0  0  0  0  0  0  0  0  0
   44.8420   36.4510   43.8140 C   0  0  0  0  0  0  0  0  0  0  0  0
   45.4030   35.5080   42.9060 C   0  0  0  0  0  0  0  0  0  0  0  0
   46.1720   34.5730   43.5390 N   0  0  0  0  0  0  0  0  0  0  0  0
   45.8010   34.0490   44.7050 C   0  0  2  0  0  0  0  0  0  0  0  0
   44.9620   34.7560   45.4820 N   0  0  0  0  0  0  0  0  0  0  0  0
   46.3470   32.8450   45.1340 N   0  0  2  0  0  0  0  0  0  0  0  0
   45.8810   32.3530   46.4110 C   0  0  0  0  0  0  0  0  0  0  0  0
   46.6390   31.1840   46.9440 C   0  0  0  0  0  0  0  0  0  0  0  0
   47.7810   30.8760   46.2200 O   0  0  0  0  0  0  0  0  0  0  0  0
   47.3740   30.7000   44.8970 C   0  0  0  0  0  0  0  0  0  0  0  0
   47.3270   32.1240   44.3580 C   0  0  1  0  0  0  0  0  0  0  0  0
   44.0320   36.4210   45.9700 H   0  0  0  0  0  0  0  0  0  0  0  0
   44.6000   37.5090   43.7880 H   0  0  0  0  0  0  0  0  0  0  0  0
   45.7120   36.0650   42.0040 H   0  0  0  0  0  0  0  0  0  0  0  0
   44.4800   34.9440   42.4860 H   0  0  0  0  0  0  0  0  0  0  0  0
   46.7170   34.7930   42.8090 H   0  0  0  0  0  0  0  0  0  0  0  0
   44.8210   32.0570   46.2430 H   0  0  0  0  0  0  0  0  0  0  0  0
   45.8340   33.2160   47.1220 H   0  0  0  0  0  0  0  0  0  0  0  0
   46.9670   31.4600   47.9630 H   0  0  0  0  0  0  0  0  0  0  0  0
   45.9920   30.2980   47.0140 H   0  0  0  0  0  0  0  0  0  0  0  0
   47.9920   30.0240   44.3110 H   0  0  0  0  0  0  0  0  0  0  0  0
   46.3180   30.3380   44.8840 H   0  0  0  0  0  0  0  0  0  0  0  0
   48.3120   32.5480   44.5720 H   0  0  0  0  0  0  0  0  0  0  0  0
   46.9510   32.2170   43.0340 N   0  0  0  0  0  0  0  0  0  0  0  0
   45.6350   32.3440   42.7100 C   0  0  0  0  0  0  0  0  0  0  0  0
   45.6110   32.5330   41.2100 C   0  0  0  0  0  0  0  0  0  0  0  0
   46.9400   33.1190   40.8810 C   0  0  0  0  0  0  0  0  0  0  0  0
   47.5500   33.2550   42.2680 C   0  0  0  0  0  0  0  0  0  0  0  0
   45.4240   31.2090   42.7780 H   0  0  0  0  0  0  0  0  0  0  0  0
   44.7420   32.5300   43.2670 H   0  0  0  0  0  0  0  0  0  0  0  0
   45.4880   31.6370   40.6100 H   0  0  0  0  0  0  0  0  0  0  0  0
   44.8020   33.2280   40.9030 H   0  0  0  0  0  0  0  0  0  0  0  0
   46.7930   34.1450   40.4310 H   0  0  0  0  0  0  0  0  0  0  0  0
   47.5400   32.5430   40.1330 H   0  0  0  0  0  0  0  0  0  0  0  0
   47.6030   32.9520   42.1030 H   0  0  0  0  0  0  0  0  0  0  0  0
   49.1010   33.1850   42.1850 C   0  0  0  0  0  0  0  0  0  0  0  0
   49.8670   32.1600   41.6070 C   0  0  0  0  0  0  0  0  0  0  0  0
   51.2220   32.3930   41.6890 C   0  0  0  0  0  0  0  0  0  0  0  0
   51.9910   31.7690   41.3280 H   0  0  0  0  0  0  0  0  0  0  0  0
   51.2840   33.5740   42.3250 N   0  0  0  0  0  0  0  0  0  0  0  0
   50.0700   34.0070   42.5970 N   0  0  0  0  0  0  0  0  0  0  0  0
   52.1180   34.1130   42.5890 H   0  0  0  0  0  0  0  0  0  0  0  0
  1  6  2  0  0  0  0
  1 13  1  0  0  0  0
  2  1  1  0  0  0  0
  3  4  1  0  0  0  0
  3  2  1  0  0  0  0
  4  5  1  0  0  0  0
  5  7  1  0  0  0  0
  5  6  1  1  0  0  0
  7  8  1  1  0  0  0
  8  9  1  0  0  0  0
  8 19  1  0  0  0  0
  9 21  1  0  0  0  0
  9 20  1  0  0  0  0
 10  9  1  0  0  0  0
 11 10  1  0  0  0  0
 12 24  1  1  0  0  0
 12 11  1  0  0  0  0
 12  7  1  0  0  0  0
 14  2  1  0  0  0  0
 15  3  1  0  0  0  0
 16  3  1  0  0  0  0
 17  4  1  0  0  0  0
 18  8  1  0  0  0  0
 22 11  1  0  0  0  0
 23 11  1  0  0  0  0
 25 12  1  0  0  0  0
 26 30  1  0  0  0  0
 26 25  1  0  0  0  0
 26 31  1  0  0  0  0
 27 26  1  0  0  0  0
 28 27  1  0  0  0  0
 32 27  1  0  0  0  0
 33 27  1  0  0  0  0
 34 28  1  0  0  0  0
 35 28  1  0  0  0  0
 36 25  1  0  0  0  0
 37 29  1  0  0  0  0
 37 42  2  0  0  0  0
 38 39  2  0  0  0  0
 38 37  1  0  0  0  0
 39 41  1  0  0  0  0
 40 39  1  0  0  0  0
 41 43  1  0  0  0  0
 41 42  1  0  0  0  0
M  END
>  <minimizedAffinity>
-5.61527157

>  <minimizedRMSD>
1.89781368

$$$$
