
 OpenBabel03232520163D

 32 34  0  0  0  0  0  0  0  0999 V2000
   47.4780   34.1740   42.2080 C   0  0  0  0  0  0  0  0  0  0  0  0
   48.3940   35.3050   41.8120 C   0  0  0  0  0  0  0  0  0  0  0  0
   49.7480   35.2690   42.4140 C   0  0  0  0  0  0  0  0  0  0  0  0
   50.3790   33.9050   42.4000 C   0  0  0  0  0  0  0  0  0  0  0  0
   49.4500   32.7990   41.9590 C   0  0  0  0  0  0  0  0  0  0  0  0
   48.1570   32.9700   42.7420 C   0  0  0  0  0  0  0  0  0  0  0  0
   47.9130   36.2720   42.1300 H   0  0  0  0  0  0  0  0  0  0  0  0
   48.5140   35.3220   40.7130 H   0  0  0  0  0  0  0  0  0  0  0  0
   49.6630   35.6310   43.4750 H   0  0  0  0  0  0  0  0  0  0  0  0
   50.3600   36.0170   41.8710 H   0  0  0  0  0  0  0  0  0  0  0  0
   50.8480   33.6840   43.3610 H   0  0  0  0  0  0  0  0  0  0  0  0
   51.2210   33.9400   41.6600 H   0  0  0  0  0  0  0  0  0  0  0  0
   49.2720   32.8410   40.8610 H   0  0  0  0  0  0  0  0  0  0  0  0
   49.9370   31.8410   42.2360 H   0  0  0  0  0  0  0  0  0  0  0  0
   47.5070   32.0970   42.6660 H   0  0  0  0  0  0  0  0  0  0  0  0
   48.4580   33.1710   43.8090 H   0  0  0  0  0  0  0  0  0  0  0  0
   45.2960   34.3540   45.1960 C   0  0  0  0  0  0  0  0  0  0  0  0
   44.5600   35.5270   44.9770 C   0  0  0  0  0  0  0  0  0  0  0  0
   44.8260   36.2520   43.7960 C   0  0  0  0  0  0  0  0  0  0  0  0
   45.7690   35.7860   42.9380 N   0  0  0  0  0  0  0  0  0  0  0  0
   46.4550   34.6520   43.1850 C   0  0  0  0  0  0  0  0  0  0  0  0
   46.2180   33.9500   44.3010 N   0  0  0  0  0  0  0  0  0  0  0  0
   45.1600   33.7320   46.0720 H   0  0  0  0  0  0  0  0  0  0  0  0
   43.8330   35.8390   45.6900 H   0  0  0  0  0  0  0  0  0  0  0  0
   44.2720   37.1620   43.6020 H   0  0  0  0  0  0  0  0  0  0  0  0
   46.7080   33.7730   40.9750 C   0  0  0  0  0  0  0  0  0  0  0  0
   45.5480   33.0270   40.9220 C   0  0  0  0  0  0  0  0  0  0  0  0
   45.1440   32.8690   39.6040 C   0  0  0  0  0  0  0  0  0  0  0  0
   44.2600   32.3220   39.2910 H   0  0  0  0  0  0  0  0  0  0  0  0
   46.0790   33.5300   38.8900 N   0  0  0  0  0  0  0  0  0  0  0  0
   46.9830   34.0520   39.6910 N   0  0  0  0  0  0  0  0  0  0  0  0
   46.0470   33.5910   37.8510 H   0  0  0  0  0  0  0  0  0  0  0  0
  1  6  1  0  0  0  0
  1 21  1  0  0  0  0
  2  7  1  0  0  0  0
  2  1  1  0  0  0  0
  2  3  1  0  0  0  0
  3  9  1  0  0  0  0
  4  3  1  0  0  0  0
  4 11  1  0  0  0  0
  5 14  1  0  0  0  0
  5  4  1  0  0  0  0
  5  6  1  0  0  0  0
  6 16  1  0  0  0  0
  8  2  1  0  0  0  0
 10  3  1  0  0  0  0
 12  4  1  0  0  0  0
 13  5  1  0  0  0  0
 15  6  1  0  0  0  0
 17 23  1  0  0  0  0
 18 17  1  0  0  0  0
 18 24  1  0  0  0  0
 19 18  2  0  0  0  0
 20 21  2  0  0  0  0
 20 19  1  0  0  0  0
 21 22  1  0  0  0  0
 22 17  2  0  0  0  0
 25 19  1  0  0  0  0
 26  1  1  0  0  0  0
 27 26  1  0  0  0  0
 28 27  2  0  0  0  0
 29 28  1  0  0  0  0
 30 28  1  0  0  0  0
 30 31  1  0  0  0  0
 31 26  2  0  0  0  0
 32 30  1  0  0  0  0
M  END
>  <minimizedAffinity>
-5.4957633

>  <minimizedRMSD>
0.690600455

$$$$
