
 OpenBabel03232517543D

 25 28  0  0  0  0  0  0  0  0999 V2000
   45.5510   33.6050   42.1680 N   0  0  0  0  0  0  0  0  0  0  0  0
   44.5270   33.8870   41.3540 C   0  0  0  0  0  0  0  0  0  0  0  0
   44.9810   33.8500   40.0850 N   0  0  0  0  0  0  0  0  0  0  0  0
   46.2870   33.5480   40.0970 C   0  0  0  0  0  0  0  0  0  0  0  0
   47.2650   33.3750   39.1230 C   0  0  0  0  0  0  0  0  0  0  0  0
   48.5170   33.0640   39.5300 N   0  0  0  0  0  0  0  0  0  0  0  0
   48.8870   32.9090   40.8030 C   0  0  0  0  0  0  0  0  0  0  0  0
   47.9390   33.0750   41.7720 N   0  0  0  0  0  0  0  0  0  0  0  0
   46.6560   33.3920   41.4090 C   0  0  0  0  0  0  0  0  0  0  0  0
   43.5120   34.1040   41.6550 H   0  0  0  0  0  0  0  0  0  0  0  0
   46.9840   33.4960   38.0920 H   0  0  0  0  0  0  0  0  0  0  0  0
   44.9810   34.5060   45.7110 C   0  0  0  0  0  0  0  0  0  0  0  0
   44.9680   34.5830   44.3050 C   0  0  0  0  0  0  0  0  0  0  0  0
   45.5650   33.5250   43.5880 C   0  0  0  0  0  0  0  0  0  0  0  0
   46.1160   32.4940   44.2970 N   0  0  0  0  0  0  0  0  0  0  0  0
   46.1010   32.4710   45.6280 C   0  0  0  0  0  0  0  0  0  0  0  0
   45.5470   33.4510   46.3440 N   0  0  0  0  0  0  0  0  0  0  0  0
   44.4230   35.4900   46.5440 N   0  0  0  0  0  0  0  0  0  0  0  0
   44.5030   35.4480   43.8380 H   0  0  0  0  0  0  0  0  0  0  0  0
   46.5770   31.5890   46.0390 H   0  0  0  0  0  0  0  0  0  0  0  0
   43.3930   35.3060   46.7010 H   0  0  0  0  0  0  0  0  0  0  0  0
   45.0550   36.2430   46.8890 H   0  0  0  0  0  0  0  0  0  0  0  0
   50.2920   32.5640   41.1720 C   0  0  0  0  0  0  0  0  0  0  0  0
   50.5530   31.7760   42.3880 C   0  0  0  0  0  0  0  0  0  0  0  0
   50.9320   33.2580   42.3420 C   0  0  0  0  0  0  0  0  0  0  0  0
  1 14  1  0  0  0  0
  2 10  1  0  0  0  0
  2  1  1  0  0  0  0
  3  4  1  0  0  0  0
  3  2  2  0  0  0  0
  4  9  1  0  0  0  0
  5  6  1  0  0  0  0
  5  4  2  0  0  0  0
  6  7  2  0  0  0  0
  7 23  1  0  0  0  0
  7  8  1  0  0  0  0
  9  8  2  0  0  0  0
  9  1  1  0  0  0  0
 11  5  1  0  0  0  0
 12 17  1  0  0  0  0
 12 18  1  0  0  0  0
 13 12  2  0  0  0  0
 14 15  2  0  0  0  0
 14 13  1  0  0  0  0
 15 16  1  0  0  0  0
 16 20  1  0  0  0  0
 16 17  2  0  0  0  0
 18 21  1  0  0  0  0
 18 22  1  0  0  0  0
 19 13  1  0  0  0  0
 23 25  1  0  0  0  0
 23 24  1  0  0  0  0
 25 24  1  0  0  0  0
M  END
>  <minimizedAffinity>
-4.98181963

>  <minimizedRMSD>
3.28204322

$$$$
