
     RDKit          3D

 34 36  0  0  0  0  0  0  0  0999 V2000
   46.1319   33.7051   45.4200 C   0  0  2  0  0  0  0  0  0  0  0  0
   44.9771   34.6628   45.5402 C   0  0  0  0  0  0  0  0  0  0  0  0
   44.7147   35.5284   44.4139 C   0  0  0  0  0  0  0  0  0  0  0  0
   45.5362   35.4666   43.2199 C   0  0  1  0  0  0  0  0  0  0  0  0
   46.6927   34.5394   43.2379 C   0  0  0  0  0  0  0  0  0  0  0  0
   46.3314   33.2987   44.0040 C   0  0  0  0  0  0  0  0  0  0  0  0
   45.2817   32.8528   47.5523 C   0  0  0  0  0  0  0  0  0  0  0  0
   45.9775   32.6242   46.3796 C   0  0  0  0  0  0  0  0  0  0  0  0
   46.5036   31.3481   46.2007 C   0  0  0  0  0  0  0  0  0  0  0  0
   46.3336   30.3958   47.1352 N   0  0  0  0  0  0  0  0  0  0  0  0
   45.6450   30.6416   48.2839 C   0  0  0  0  0  0  0  0  0  0  0  0
   45.1183   31.8772   48.4890 N   0  0  0  0  0  0  0  0  0  0  0  0
   44.6262   35.1072   42.0341 C   0  0  0  0  0  0  0  0  0  0  0  0
   43.6671   34.1755   42.3645 F   0  0  0  0  0  0  0  0  0  0  0  0
   43.9195   36.2589   41.6845 F   0  0  0  0  0  0  0  0  0  0  0  0
   45.3824   34.7538   40.9394 F   0  0  0  0  0  0  0  0  0  0  0  0
   47.0237   34.3116   45.7496 H   0  0  0  0  0  0  0  0  0  0  0  0
   44.2303   34.9059   46.2845 H   0  0  0  0  0  0  0  0  0  0  0  0
   43.9281   36.2382   44.3936 H   0  0  0  0  0  0  0  0  0  0  0  0
   45.9225   36.4848   42.9906 H   0  0  0  0  0  0  0  0  0  0  0  0
   46.9932   34.3142   42.2040 H   0  0  0  0  0  0  0  0  0  0  0  0
   47.5269   35.0373   43.7908 H   0  0  0  0  0  0  0  0  0  0  0  0
   47.0981   32.5482   43.8764 H   0  0  0  0  0  0  0  0  0  0  0  0
   45.3244   32.9777   43.6145 H   0  0  0  0  0  0  0  0  0  0  0  0
   44.8125   33.7785   47.8518 H   0  0  0  0  0  0  0  0  0  0  0  0
   47.0470   31.1137   45.3201 H   0  0  0  0  0  0  0  0  0  0  0  0
   45.4739   29.5697   49.2979 C   0  0  0  0  0  0  0  0  0  0  0  0
   44.6502   29.8355   50.5283 C   0  0  0  0  0  0  0  0  0  0  0  0
   46.1354   29.7763   50.6279 C   0  0  0  0  0  0  0  0  0  0  0  0
   45.4365   28.5068   48.9583 H   0  0  0  0  0  0  0  0  0  0  0  0
   44.1518   30.8310   50.6632 H   0  0  0  0  0  0  0  0  0  0  0  0
   44.0672   29.0325   51.0022 H   0  0  0  0  0  0  0  0  0  0  0  0
   46.5986   28.9029   51.1575 H   0  0  0  0  0  0  0  0  0  0  0  0
   46.6663   30.7346   50.7853 H   0  0  0  0  0  0  0  0  0  0  0  0
  1  2  1  0
  1  8  1  0
  3  2  2  0
  4  5  1  0
  4  3  1  0
  5  6  1  0
  6  1  1  0
  7 12  2  0
  8  7  1  0
  9  8  2  0
  9 10  1  0
 10 11  2  0
 11 12  1  0
 13 14  1  0
 13  4  1  0
 15 13  1  0
 16 13  1  0
  1 17  1  1
  2 18  1  0
  3 19  1  0
  4 20  1  6
  5 21  1  0
  5 22  1  0
  6 23  1  0
  6 24  1  0
  7 25  1  0
  9 26  1  0
 27 28  1  0
 28 29  1  0
 29 27  1  0
 27 30  1  0
 28 31  1  0
 28 32  1  0
 29 33  1  0
 29 34  1  0
 11 27  1  0
M  ISO  8  17  13  18  13  19  13  20  13  21  13  22  13  23  13  24  13
M  ISO  2  25  14  26  14
M  END
>  <DihAtoms>  (1) 
9,10,26,27

>  <DihDeg>  (1) 
33.16648425477642

$$$$
