
     RDKit          3D

 31 33  0  0  0  0  0  0  0  0999 V2000
   45.2763   32.9706   47.4539 C   0  0  0  0  0  0  0  0  0  0  0  0
   45.7689   32.7420   46.1689 C   0  0  0  0  0  0  0  0  0  0  0  0
   46.0939   31.4262   45.8072 C   0  0  0  0  0  0  0  0  0  0  0  0
   45.9164   30.4338   46.7210 N   0  0  0  0  0  0  0  0  0  0  0  0
   45.4366   30.6824   47.9633 C   0  0  0  0  0  0  0  0  0  0  0  0
   45.1183   31.9465   48.3260 N   0  0  0  0  0  0  0  0  0  0  0  0
   45.9420   33.8894   45.2714 C   0  0  2  0  0  0  0  0  0  0  0  0
   44.8164   34.8789   45.4813 C   0  0  0  0  0  0  0  0  0  0  0  0
   44.5277   35.8044   44.4079 C   0  0  0  0  0  0  0  0  0  0  0  0
   45.3098   35.7562   43.1754 C   0  0  1  0  0  0  0  0  0  0  0  0
   46.4501   34.8273   43.1175 C   0  0  0  0  0  0  0  0  0  0  0  0
   46.0857   33.5434   43.8211 C   0  0  0  0  0  0  0  0  0  0  0  0
   44.9910   33.9364   47.8490 H   0  0  0  0  0  0  0  0  0  0  0  0
   46.4692   31.2218   44.8386 H   0  0  0  0  0  0  0  0  0  0  0  0
   45.3323   29.8117   48.6215 H   0  0  0  0  0  0  0  0  0  0  0  0
   46.8511   34.4968   45.5664 H   0  0  0  0  0  0  0  0  0  0  0  0
   44.1733   35.0134   46.3238 H   0  0  0  0  0  0  0  0  0  0  0  0
   43.7442   36.5101   44.5267 H   0  0  0  0  0  0  0  0  0  0  0  0
   45.6954   36.7940   42.9512 H   0  0  0  0  0  0  0  0  0  0  0  0
   47.3003   35.2803   43.6680 H   0  0  0  0  0  0  0  0  0  0  0  0
   46.7019   34.5952   42.0698 H   0  0  0  0  0  0  0  0  0  0  0  0
   46.9439   32.8512   43.7205 H   0  0  0  0  0  0  0  0  0  0  0  0
   45.1405   33.1308   43.4239 H   0  0  0  0  0  0  0  0  0  0  0  0
   44.2893   35.4898   42.0603 C   0  0  0  0  0  0  0  0  0  0  0  0
   44.9343   35.0499   40.7643 C   0  0  0  0  0  0  0  0  0  0  0  0
   44.0722   34.1297   41.5392 C   0  0  0  0  0  0  0  0  0  0  0  0
   43.4239   36.2022   41.9966 H   0  0  0  0  0  0  0  0  0  0  0  0
   44.5642   35.5747   39.8545 H   0  0  0  0  0  0  0  0  0  0  0  0
   46.0217   34.8592   40.7321 H   0  0  0  0  0  0  0  0  0  0  0  0
   44.5869   33.2351   41.9824 H   0  0  0  0  0  0  0  0  0  0  0  0
   43.0866   33.9036   41.1095 H   0  0  0  0  0  0  0  0  0  0  0  0
  1  6  2  0
  2  1  1  0
  3  2  2  0
  3  4  1  0
  4  5  2  0
  5  6  1  0
  7  8  1  0
  7  2  1  0
  9  8  2  0
 10  9  1  0
 11 10  1  0
 11 12  1  0
 12  7  1  0
  1 13  1  0
  3 14  1  0
  5 15  1  0
  7 16  1  1
  8 17  1  0
  9 18  1  0
 10 19  1  6
 11 20  1  0
 11 21  1  0
 12 22  1  0
 12 23  1  0
 24 25  1  0
 25 26  1  0
 26 24  1  0
 24 27  1  0
 25 28  1  0
 25 29  1  0
 26 30  1  0
 26 31  1  0
 10 24  1  0
M  ISO  8  13  14  14  14  15  14  16  13  17  13  18  13  19  13  20  13
M  ISO  3  21  13  22  13  23  13
M  END
>  <DihAtoms>  (1) 
8,9,23,24

>  <DihDeg>  (1) 
60.00087787684488

$$$$
