
 OpenBabel03232520543D

 29 31  0  0  1  0  0  0  0  0999 V2000
   46.8170   33.6310   44.1880 C   0  0  2  0  0  0  0  0  0  0  0  0
   45.5030   34.0480   44.7910 C   0  0  0  0  0  0  0  0  0  0  0  0
   44.7260   35.0300   44.0710 C   0  0  0  0  0  0  0  0  0  0  0  0
   45.2020   35.5840   42.8180 C   0  0  1  0  0  0  0  0  0  0  0  0
   46.5440   35.1580   42.3530 C   0  0  0  0  0  0  0  0  0  0  0  0
   46.7630   33.7140   42.7040 C   0  0  0  0  0  0  0  0  0  0  0  0
   47.5470   34.4030   44.5660 H   0  0  0  0  0  0  0  0  0  0  0  0
   44.9300   33.8020   45.6760 H   0  0  0  0  0  0  0  0  0  0  0  0
   43.7880   35.3920   44.4070 H   0  0  0  0  0  0  0  0  0  0  0  0
   45.2040   36.6940   42.8890 H   0  0  0  0  0  0  0  0  0  0  0  0
   46.6260   35.3370   41.2710 H   0  0  0  0  0  0  0  0  0  0  0  0
   47.3080   35.7530   42.9110 H   0  0  0  0  0  0  0  0  0  0  0  0
   47.6570   33.3470   42.2200 H   0  0  0  0  0  0  0  0  0  0  0  0
   45.8280   33.1730   42.3830 H   0  0  0  0  0  0  0  0  0  0  0  0
   47.0710   32.1160   46.0940 C   0  0  0  0  0  0  0  0  0  0  0  0
   47.2300   32.3510   44.7420 C   0  0  0  0  0  0  0  0  0  0  0  0
   47.7990   31.3280   43.9890 C   0  0  0  0  0  0  0  0  0  0  0  0
   48.1700   30.1730   44.5670 N   0  0  0  0  0  0  0  0  0  0  0  0
   48.0040   29.9600   45.9020 C   0  0  0  0  0  0  0  0  0  0  0  0
   47.4510   30.9380   46.6650 N   0  0  0  0  0  0  0  0  0  0  0  0
   46.6510   32.7960   46.8220 H   0  0  0  0  0  0  0  0  0  0  0  0
   47.9450   31.4530   42.9450 H   0  0  0  0  0  0  0  0  0  0  0  0
   48.4240   28.6720   46.5120 C   0  0  0  0  0  3  0  0  0  0  0  0
   47.4150   27.8350   47.2490 C   0  0  0  0  0  2  0  0  0  0  0  0
   48.4420   28.6000   48.0100 C   0  0  0  0  0  2  0  0  0  0  0  0
   44.1680   35.2540   41.7290 C   0  0  0  0  0  0  0  0  0  0  0  0
   43.2130   34.3580   42.1560 F   0  0  0  0  0  0  0  0  0  0  0  0
   43.4720   36.4300   41.4420 F   0  0  0  0  0  0  0  0  0  0  0  0
   44.8000   34.8710   40.5670 F   0  0  0  0  0  0  0  0  0  0  0  0
  1  7  1  1  0  0  0
  1 16  1  0  0  0  0
  1  2  1  0  0  0  0
  2  8  1  0  0  0  0
  3  9  1  0  0  0  0
  3  2  2  0  0  0  0
  4 10  1  1  0  0  0
  4  3  1  0  0  0  0
  5  6  1  0  0  0  0
  5  4  1  0  0  0  0
  5 12  1  0  0  0  0
  6  1  1  0  0  0  0
 11  5  1  0  0  0  0
 13  6  1  0  0  0  0
 14  6  1  0  0  0  0
 15 20  1  0  0  0  0
 15 21  1  0  0  0  0
 16 15  2  0  0  0  0
 17 18  2  0  0  0  0
 17 16  1  0  0  0  0
 18 19  1  0  0  0  0
 19 23  1  0  0  0  0
 19 20  2  0  0  0  0
 22 17  1  0  0  0  0
 23 24  1  0  0  0  0
 23 25  1  0  0  0  0
 24 25  1  0  0  0  0
 26 27  1  0  0  0  0
 26  4  1  0  0  0  0
 28 26  1  0  0  0  0
 29 26  1  0  0  0  0
M  END
>  <minimizedAffinity>
-4.37301159

>  <minimizedRMSD>
2.40434241

$$$$
