REMARK  Name = 
REMARK  3 active torsions:
REMARK  status: ('A' for Active; 'I' for Inactive)
REMARK    1  A    between atoms: C_1  and  C_8
REMARK    2  A    between atoms: C_4  and  C_14
REMARK    3  A    between atoms: C_9  and  C_29
REMARK                            x       y       z     vdW  Elec       q    Type
REMARK                         _______ _______ _______ _____ _____    ______ ____
ROOT
ATOM      1  C   UNL     1      46.129  33.650  45.322  0.00  0.00    +0.000 C 
ATOM      2  C   UNL     1      44.966  34.706  45.481  0.00  0.00    +0.000 C 
ATOM      3  C   UNL     1      44.714  35.596  44.379  0.00  0.00    +0.000 C 
ATOM      4  C   UNL     1      45.511  35.511  43.171  0.00  0.00    +0.000 C 
ATOM      5  C   UNL     1      46.649  34.580  43.198  0.00  0.00    +0.000 C 
ATOM      6  C   UNL     1      46.230  33.321  43.938  0.00  0.00    +0.000 C 
ATOM      7  H   UNL     1      46.955  34.351  45.680  0.00  0.00    +0.000 HD
ATOM      8  H   UNL     1      44.248  34.963  46.253  0.00  0.00    +0.000 HD
ATOM      9  H   UNL     1      43.956  36.337  44.392  0.00  0.00    +0.000 HD
ATOM     10  H   UNL     1      45.901  36.536  42.940  0.00  0.00    +0.000 HD
ATOM     11  H   UNL     1      46.970  34.332  42.182  0.00  0.00    +0.000 HD
ATOM     12  H   UNL     1      47.509  35.009  43.765  0.00  0.00    +0.000 HD
ATOM     13  H   UNL     1      46.866  32.577  43.510  0.00  0.00    +0.000 HD
ATOM     14  H   UNL     1      45.196  33.105  43.527  0.00  0.00    +0.000 HD
ENDROOT
BRANCH   1  16
ATOM     15  C   UNL     1      45.295  32.912  47.527  0.00  0.00    +0.000 A 
ATOM     16  C   UNL     1      45.913  32.654  46.325  0.00  0.00    +0.000 A 
ATOM     17  C   UNL     1      46.286  31.319  46.093  0.00  0.00    +0.000 A 
ATOM     18  N   UNL     1      46.032  30.392  47.020  0.00  0.00    +0.000 NA
ATOM     19  C   UNL     1      45.422  30.674  48.195  0.00  0.00    +0.000 A 
ATOM     20  N   UNL     1      45.054  31.923  48.453  0.00  0.00    +0.000 NA
ATOM     21  N   UNL     1      45.198  29.609  49.128  0.00  0.00    +0.000 N 
ATOM     22  H   UNL     1      44.973  33.898  47.804  0.00  0.00    +0.000 HD
ATOM     23  H   UNL     1      45.887  28.874  49.334  0.00  0.00    +0.000 HD
ATOM     24  H   UNL     1      44.243  29.680  49.569  0.00  0.00    +0.000 HD
BRANCH  17  25
ATOM     25  C   UNL     1      46.948  30.723  44.911  0.00  0.00    +0.000 C 
ATOM     26  C   UNL     1      48.494  30.806  44.819  0.00  0.00    +0.000 C 
ATOM     27  C   UNL     1      47.718  31.688  43.972  0.00  0.00    +0.000 C 
ENDBRANCH  17  25
ENDBRANCH   1  16
BRANCH   4  28
ATOM     28  C   UNL     1      44.566  35.171  41.993  0.00  0.00    +0.000 C 
ATOM     29  F   UNL     1      43.584  34.288  42.350  0.00  0.00    +0.000 F 
ATOM     30  F   UNL     1      43.930  36.367  41.655  0.00  0.00    +0.000 F 
ATOM     31  F   UNL     1      45.317  34.778  40.891  0.00  0.00    +0.000 F 
ENDBRANCH   4  28
TORSDOF 3
