
 OpenBabel03232519263D

 23 24  0  0  0  0  0  0  0  0999 V2000
   46.5860   34.7530   41.7030 C   0  0  0  0  0  0  0  0  0  0  0  0
   46.6590   33.7070   41.4060 H   0  0  0  0  0  0  0  0  0  0  0  0
   46.0410   35.3200   40.9390 H   0  0  0  0  0  0  0  0  0  0  0  0
   45.1790   36.0240   43.2550 C   0  0  0  0  0  0  0  0  0  0  0  0
   45.9580   34.8870   42.9990 C   0  0  0  0  0  0  0  0  0  0  0  0
   46.0730   33.9510   44.0210 C   0  0  0  0  0  0  0  0  0  0  0  0
   45.4360   34.1780   45.2000 N   0  0  0  0  0  0  0  0  0  0  0  0
   44.6920   35.2890   45.4190 C   0  0  0  0  0  0  0  0  0  0  0  0
   44.5640   36.2100   44.4460 N   0  0  0  0  0  0  0  0  0  0  0  0
   45.0670   36.7770   42.4800 H   0  0  0  0  0  0  0  0  0  0  0  0
   46.6490   33.0720   43.8780 H   0  0  0  0  0  0  0  0  0  0  0  0
   44.1870   35.4650   46.3590 H   0  0  0  0  0  0  0  0  0  0  0  0
   47.9720   35.4150   41.7710 C   0  0  0  0  0  0  0  0  0  0  0  0
   48.0360   35.8940   42.7680 H   0  0  0  0  0  0  0  0  0  0  0  0
   48.0760   36.1880   41.0060 H   0  0  0  0  0  0  0  0  0  0  0  0
   48.9870   34.3340   41.7060 C   0  0  0  0  0  0  0  0  0  0  0  0
   50.1200   34.3240   42.4950 C   0  0  0  0  0  0  0  0  0  0  0  0
   50.9990   33.2640   42.3500 C   0  0  0  0  0  0  0  0  0  0  0  0
   51.9090   33.2020   42.9440 H   0  0  0  0  0  0  0  0  0  0  0  0
   50.7780   32.2230   41.4460 C   0  0  0  0  0  0  0  0  0  0  0  0
   49.6250   32.2650   40.6660 C   0  0  0  0  0  0  0  0  0  0  0  0
   49.3850   31.4910   39.9410 H   0  0  0  0  0  0  0  0  0  0  0  0
   48.7310   33.3270   40.8020 C   0  0  0  0  0  0  0  0  0  0  0  0
  1 13  1  0  0  0  0
  1  5  1  0  0  0  0
  2  1  1  0  0  0  0
  3  1  1  0  0  0  0
  4  9  1  0  0  0  0
  5  4  2  0  0  0  0
  5  6  1  0  0  0  0
  6  7  2  0  0  0  0
  7  8  1  0  0  0  0
  8 12  1  0  0  0  0
  9  8  2  0  0  0  0
 10  4  1  0  0  0  0
 11  6  1  0  0  0  0
 13 14  1  0  0  0  0
 15 13  1  0  0  0  0
 16 13  1  0  0  0  0
 16 17  1  0  0  0  0
 18 17  2  0  0  0  0
 18 19  1  0  0  0  0
 20 18  1  0  0  0  0
 21 23  1  0  0  0  0
 21 20  2  0  0  0  0
 22 21  1  0  0  0  0
 23 16  2  0  0  0  0
M  END
>  <minimizedAffinity>
-4.87566614

>  <minimizedRMSD>
2.78282261

$$$$
