
 OpenBabel03232520573D

 31 33  0  0  1  0  0  0  0  0999 V2000
   46.1280   33.6020   45.3230 C   0  0  2  0  0  0  0  0  0  0  0  0
   44.9750   34.6680   45.4920 C   0  0  0  0  0  0  0  0  0  0  0  0
   44.7290   35.5680   44.3980 C   0  0  0  0  0  0  0  0  0  0  0  0
   45.5220   35.4850   43.1870 C   0  0  1  0  0  0  0  0  0  0  0  0
   46.6520   34.5440   43.2050 C   0  0  0  0  0  0  0  0  0  0  0  0
   46.2230   33.2830   43.9360 C   0  0  0  0  0  0  0  0  0  0  0  0
   46.9610   34.2930   45.6840 H   0  0  0  0  0  0  0  0  0  0  0  0
   44.2610   34.9250   46.2680 H   0  0  0  0  0  0  0  0  0  0  0  0
   43.9780   36.3160   44.4180 H   0  0  0  0  0  0  0  0  0  0  0  0
   45.9210   36.5080   42.9630 H   0  0  0  0  0  0  0  0  0  0  0  0
   46.9690   34.3000   42.1860 H   0  0  0  0  0  0  0  0  0  0  0  0
   47.5170   34.9610   43.7730 H   0  0  0  0  0  0  0  0  0  0  0  0
   46.8520   32.5360   43.5010 H   0  0  0  0  0  0  0  0  0  0  0  0
   45.1860   33.0790   43.5260 H   0  0  0  0  0  0  0  0  0  0  0  0
   45.3900   32.8740   47.5650 C   0  0  0  0  0  0  0  0  0  0  0  0
   45.9050   32.6010   46.3190 C   0  0  0  0  0  0  0  0  0  0  0  0
   46.1610   31.2480   46.0370 C   0  0  0  0  0  0  0  0  0  0  0  0
   45.9010   30.3200   46.9610 N   0  0  0  0  0  0  0  0  0  0  0  0
   45.3930   30.6180   48.1800 C   0  0  0  0  0  0  0  0  0  0  0  0
   45.1370   31.8840   48.4860 N   0  0  0  0  0  0  0  0  0  0  0  0
   45.1520   29.5500   49.1050 N   0  0  0  0  0  0  0  0  0  0  0  0
   45.1620   33.8740   47.8820 H   0  0  0  0  0  0  0  0  0  0  0  0
   45.7970   28.7610   49.2500 H   0  0  0  0  0  0  0  0  0  0  0  0
   44.2370   29.6800   49.6110 H   0  0  0  0  0  0  0  0  0  0  0  0
   46.6970   30.6340   44.8010 C   0  0  0  0  0  3  0  0  0  0  0  0
   47.1880   29.1650   44.8670 C   0  0  0  0  0  2  0  0  0  0  0  0
   48.1880   30.2090   44.8130 C   0  0  0  0  0  2  0  0  0  0  0  0
   44.5720   35.1620   42.0090 C   0  0  0  0  0  0  0  0  0  0  0  0
   43.5850   34.2820   42.3600 F   0  0  0  0  0  0  0  0  0  0  0  0
   43.9420   36.3650   41.6840 F   0  0  0  0  0  0  0  0  0  0  0  0
   45.3170   34.7750   40.9010 F   0  0  0  0  0  0  0  0  0  0  0  0
  1  2  1  0  0  0  0
  1  7  1  1  0  0  0
  1 16  1  0  0  0  0
  2  8  1  0  0  0  0
  3  9  1  0  0  0  0
  3  2  2  0  0  0  0
  4 10  1  6  0  0  0
  4  5  1  0  0  0  0
  4  3  1  0  0  0  0
  5 12  1  0  0  0  0
  5  6  1  0  0  0  0
  6  1  1  0  0  0  0
 11  5  1  0  0  0  0
 13  6  1  0  0  0  0
 14  6  1  0  0  0  0
 15 22  1  0  0  0  0
 15 20  1  0  0  0  0
 16 15  2  0  0  0  0
 17 16  1  0  0  0  0
 17 18  2  0  0  0  0
 18 19  1  0  0  0  0
 19 20  2  0  0  0  0
 19 21  1  0  0  0  0
 21 23  1  0  0  0  0
 21 24  1  0  0  0  0
 25 27  1  0  0  0  0
 25 26  1  0  0  0  0
 25 17  1  0  0  0  0
 27 26  1  0  0  0  0
 28 29  1  0  0  0  0
 28  4  1  0  0  0  0
 30 28  1  0  0  0  0
 31 28  1  0  0  0  0
M  END
>  <minimizedAffinity>
-5.60407543

>  <minimizedRMSD>
0.196656168

$$$$
