
 OpenBabel03232520473D

 35 38  0  0  0  0  0  0  0  0999 V2000
   46.4370   34.6620   42.1970 C   0  0  0  0  0  0  0  0  0  0  0  0
   47.7450   35.0310   42.0670 C   0  0  0  0  0  0  0  0  0  0  0  0
   48.4500   34.8500   40.8770 C   0  0  0  0  0  0  0  0  0  0  0  0
   47.7980   34.2690   39.7690 C   0  0  0  0  0  0  0  0  0  0  0  0
   46.4860   33.9020   39.9110 C   0  0  0  0  0  0  0  0  0  0  0  0
   45.8240   34.1010   41.1150 C   0  0  0  0  0  0  0  0  0  0  0  0
   48.2980   35.4820   42.8840 H   0  0  0  0  0  0  0  0  0  0  0  0
   49.4850   35.1560   40.8120 H   0  0  0  0  0  0  0  0  0  0  0  0
   48.3650   34.1410   38.8640 H   0  0  0  0  0  0  0  0  0  0  0  0
   46.0280   33.4640   39.0450 H   0  0  0  0  0  0  0  0  0  0  0  0
   44.4640   33.7060   41.2140 N   0  0  0  0  0  0  0  0  0  0  0  0
   43.6380   34.6580   40.6740 C   0  0  0  0  0  0  0  0  0  0  0  0
   42.2530   34.4770   40.6630 C   0  0  0  0  0  0  0  0  0  0  0  0
   41.7580   33.3090   41.2140 C   0  0  0  0  0  0  0  0  0  0  0  0
   40.5230   33.0840   41.2350 O   0  0  0  0  0  0  0  0  0  0  0  0
   42.6020   32.4010   41.7310 N   0  0  0  0  0  0  0  0  0  0  0  0
   43.9300   32.5930   41.7330 C   0  0  0  0  0  0  0  0  0  0  0  0
   44.7890   31.8050   42.1910 O   0  0  0  0  0  0  0  0  0  0  0  0
   43.9500   35.5830   40.2330 H   0  0  0  0  0  0  0  0  0  0  0  0
   42.2880   31.5000   42.1610 H   0  0  0  0  0  0  0  0  0  0  0  0
   41.3310   35.4950   40.0860 C   0  0  0  0  0  0  0  0  0  0  0  0
   40.6490   35.8550   40.8800 H   0  0  0  0  0  0  0  0  0  0  0  0
   41.9370   36.2900   39.6200 H   0  0  0  0  0  0  0  0  0  0  0  0
   40.7000   34.9890   39.3250 H   0  0  0  0  0  0  0  0  0  0  0  0
   44.4160   36.0920   45.0300 C   0  0  0  0  0  0  0  0  0  0  0  0
   44.9830   35.9820   43.7710 C   0  0  0  0  0  0  0  0  0  0  0  0
   45.7880   34.8900   43.4770 C   0  0  0  0  0  0  0  0  0  0  0  0
   45.9820   33.9710   44.4510 N   0  0  0  0  0  0  0  0  0  0  0  0
   45.4100   34.1090   45.6780 C   0  0  0  0  0  0  0  0  0  0  0  0
   44.6310   35.1670   45.9600 N   0  0  0  0  0  0  0  0  0  0  0  0
   43.8170   36.9880   45.1130 H   0  0  0  0  0  0  0  0  0  0  0  0
   44.8690   36.6830   42.9400 H   0  0  0  0  0  0  0  0  0  0  0  0
   45.6690   33.0510   46.7120 C   0  0  0  0  0  0  0  0  0  0  0  0
   46.0610   31.7190   46.0530 C   0  0  0  0  0  0  0  0  0  0  0  0
   47.0060   32.4960   46.9260 C   0  0  0  0  0  0  0  0  0  0  0  0
  1 27  1  0  0  0  0
  2  1  1  0  0  0  0
  2  7  1  0  0  0  0
  3  2  2  0  0  0  0
  4  5  2  0  0  0  0
  4  3  1  0  0  0  0
  5  6  1  0  0  0  0
  6 11  1  0  0  0  0
  6  1  2  0  0  0  0
  8  3  1  0  0  0  0
  9  4  1  0  0  0  0
 10  5  1  0  0  0  0
 11 17  1  0  0  0  0
 12 11  1  0  0  0  0
 13 12  2  0  0  0  0
 13 14  1  0  0  0  0
 14 15  2  0  0  0  0
 14 16  1  0  0  0  0
 16 17  1  0  0  0  0
 16 20  1  0  0  0  0
 17 18  2  0  0  0  0
 19 12  1  0  0  0  0
 21 13  1  0  0  0  0
 21 22  1  0  0  0  0
 23 21  1  0  0  0  0
 24 21  1  0  0  0  0
 25 31  1  0  0  0  0
 25 30  1  0  0  0  0
 26 25  2  0  0  0  0
 27 26  1  0  0  0  0
 27 28  2  0  0  0  0
 28 29  1  0  0  0  0
 29 30  2  0  0  0  0
 29 33  1  0  0  0  0
 32 26  1  0  0  0  0
 33 35  1  0  0  0  0
 34 33  1  0  0  0  0
 34 35  1  0  0  0  0
M  END
>  <minimizedAffinity>
-6.89940739

>  <minimizedRMSD>
0.12115974

$$$$
