
 OpenBabel03232520583D

 31 33  0  0  1  0  0  0  0  0999 V2000
   46.1620   33.7140   45.3030 C   0  0  2  0  0  0  0  0  0  0  0  0
   44.9940   34.7650   45.4580 C   0  0  0  0  0  0  0  0  0  0  0  0
   44.7200   35.6310   44.3420 C   0  0  0  0  0  0  0  0  0  0  0  0
   45.4990   35.5260   43.1240 C   0  0  1  0  0  0  0  0  0  0  0  0
   46.6430   34.6030   43.1520 C   0  0  0  0  0  0  0  0  0  0  0  0
   46.2440   33.3570   43.9240 C   0  0  0  0  0  0  0  0  0  0  0  0
   46.9880   34.4270   45.6340 H   0  0  0  0  0  0  0  0  0  0  0  0
   44.2860   35.0330   46.2350 H   0  0  0  0  0  0  0  0  0  0  0  0
   43.9570   36.3670   44.3510 H   0  0  0  0  0  0  0  0  0  0  0  0
   45.8780   36.5490   42.8660 H   0  0  0  0  0  0  0  0  0  0  0  0
   46.9500   34.3360   42.1370 H   0  0  0  0  0  0  0  0  0  0  0  0
   47.5090   35.0490   43.6970 H   0  0  0  0  0  0  0  0  0  0  0  0
   46.8780   32.6080   43.5020 H   0  0  0  0  0  0  0  0  0  0  0  0
   45.2050   33.1260   43.5340 H   0  0  0  0  0  0  0  0  0  0  0  0
   45.1400   32.9300   47.4110 C   0  0  0  0  0  0  0  0  0  0  0  0
   45.9680   32.7370   46.3290 C   0  0  0  0  0  0  0  0  0  0  0  0
   46.5930   31.4810   46.2420 C   0  0  0  0  0  0  0  0  0  0  0  0
   46.3610   30.5630   47.1840 N   0  0  0  0  0  0  0  0  0  0  0  0
   45.5410   30.7800   48.2380 C   0  0  0  0  0  0  0  0  0  0  0  0
   44.9320   31.9530   48.3570 N   0  0  0  0  0  0  0  0  0  0  0  0
   45.3620   29.7310   49.1990 N   0  0  0  0  0  0  0  0  0  0  0  0
   44.6170   33.8540   47.5720 H   0  0  0  0  0  0  0  0  0  0  0  0
   46.1260   29.1390   49.5500 H   0  0  0  0  0  0  0  0  0  0  0  0
   44.3530   29.6490   49.4940 H   0  0  0  0  0  0  0  0  0  0  0  0
   47.5180   30.9640   45.2090 C   0  0  0  0  0  3  0  0  0  0  0  0
   47.0040   29.8550   44.2540 C   0  0  0  0  0  2  0  0  0  0  0  0
   47.9220   29.4700   45.3060 C   0  0  0  0  0  2  0  0  0  0  0  0
   44.5380   35.1560   41.9680 C   0  0  0  0  0  0  0  0  0  0  0  0
   43.5770   34.2620   42.3540 F   0  0  0  0  0  0  0  0  0  0  0  0
   43.8770   36.3370   41.6260 F   0  0  0  0  0  0  0  0  0  0  0  0
   45.2760   34.7610   40.8570 F   0  0  0  0  0  0  0  0  0  0  0  0
  1  2  1  0  0  0  0
  1  7  1  1  0  0  0
  1 16  1  0  0  0  0
  2  8  1  0  0  0  0
  3  9  1  0  0  0  0
  3  2  2  0  0  0  0
  4 10  1  6  0  0  0
  4  5  1  0  0  0  0
  4  3  1  0  0  0  0
  5 12  1  0  0  0  0
  5  6  1  0  0  0  0
  6  1  1  0  0  0  0
 11  5  1  0  0  0  0
 13  6  1  0  0  0  0
 14  6  1  0  0  0  0
 15 22  1  0  0  0  0
 15 20  1  0  0  0  0
 16 15  2  0  0  0  0
 17 16  1  0  0  0  0
 17 18  2  0  0  0  0
 18 19  1  0  0  0  0
 19 20  2  0  0  0  0
 19 21  1  0  0  0  0
 21 24  1  0  0  0  0
 21 23  1  0  0  0  0
 25 27  1  0  0  0  0
 25 17  1  0  0  0  0
 26 25  1  0  0  0  0
 26 27  1  0  0  0  0
 28 29  1  0  0  0  0
 28  4  1  0  0  0  0
 30 28  1  0  0  0  0
 31 28  1  0  0  0  0
M  END
>  <minimizedAffinity>
-5.56922865

>  <minimizedRMSD>
0.287749022

$$$$
