
 OpenBabel03232520583D

 31 33  0  0  1  0  0  0  0  0999 V2000
   46.1620   33.7160   45.3110 C   0  0  2  0  0  0  0  0  0  0  0  0
   44.9950   34.7690   45.4610 C   0  0  0  0  0  0  0  0  0  0  0  0
   44.7220   35.6300   44.3410 C   0  0  0  0  0  0  0  0  0  0  0  0
   45.5020   35.5200   43.1240 C   0  0  1  0  0  0  0  0  0  0  0  0
   46.6450   34.5960   43.1570 C   0  0  0  0  0  0  0  0  0  0  0  0
   46.2450   33.3540   43.9340 C   0  0  0  0  0  0  0  0  0  0  0  0
   46.9890   34.4310   45.6390 H   0  0  0  0  0  0  0  0  0  0  0  0
   44.2870   35.0410   46.2370 H   0  0  0  0  0  0  0  0  0  0  0  0
   43.9600   36.3670   44.3470 H   0  0  0  0  0  0  0  0  0  0  0  0
   45.8820   36.5410   42.8620 H   0  0  0  0  0  0  0  0  0  0  0  0
   46.9530   34.3250   42.1430 H   0  0  0  0  0  0  0  0  0  0  0  0
   47.5110   35.0440   43.7010 H   0  0  0  0  0  0  0  0  0  0  0  0
   46.8790   32.6030   43.5150 H   0  0  0  0  0  0  0  0  0  0  0  0
   45.2060   33.1220   43.5440 H   0  0  0  0  0  0  0  0  0  0  0  0
   45.1330   32.9410   47.4190 C   0  0  0  0  0  0  0  0  0  0  0  0
   45.9660   32.7440   46.3410 C   0  0  0  0  0  0  0  0  0  0  0  0
   46.5940   31.4900   46.2630 C   0  0  0  0  0  0  0  0  0  0  0  0
   46.3620   30.5750   47.2080 N   0  0  0  0  0  0  0  0  0  0  0  0
   45.5370   30.7950   48.2580 C   0  0  0  0  0  0  0  0  0  0  0  0
   44.9240   31.9680   48.3690 N   0  0  0  0  0  0  0  0  0  0  0  0
   45.3560   29.7510   49.2230 N   0  0  0  0  0  0  0  0  0  0  0  0
   44.6080   33.8640   47.5740 H   0  0  0  0  0  0  0  0  0  0  0  0
   46.1210   29.1630   49.5800 H   0  0  0  0  0  0  0  0  0  0  0  0
   44.3460   29.6680   49.5150 H   0  0  0  0  0  0  0  0  0  0  0  0
   47.5250   30.9700   45.2360 C   0  0  0  0  0  3  0  0  0  0  0  0
   47.0290   29.8290   44.3100 C   0  0  0  0  0  2  0  0  0  0  0  0
   47.9610   29.4880   45.3630 C   0  0  0  0  0  2  0  0  0  0  0  0
   44.5420   35.1460   41.9680 C   0  0  0  0  0  0  0  0  0  0  0  0
   43.5820   34.2510   42.3560 F   0  0  0  0  0  0  0  0  0  0  0  0
   43.8780   36.3250   41.6250 F   0  0  0  0  0  0  0  0  0  0  0  0
   45.2800   34.7490   40.8590 F   0  0  0  0  0  0  0  0  0  0  0  0
  1  2  1  0  0  0  0
  1  7  1  1  0  0  0
  1 16  1  0  0  0  0
  2  8  1  0  0  0  0
  3  9  1  0  0  0  0
  3  2  2  0  0  0  0
  4 10  1  6  0  0  0
  4  5  1  0  0  0  0
  4  3  1  0  0  0  0
  5 12  1  0  0  0  0
  5  6  1  0  0  0  0
  6  1  1  0  0  0  0
 11  5  1  0  0  0  0
 13  6  1  0  0  0  0
 14  6  1  0  0  0  0
 15 22  1  0  0  0  0
 15 20  1  0  0  0  0
 16 15  2  0  0  0  0
 17 16  1  0  0  0  0
 17 18  2  0  0  0  0
 18 19  1  0  0  0  0
 19 20  2  0  0  0  0
 19 21  1  0  0  0  0
 21 24  1  0  0  0  0
 21 23  1  0  0  0  0
 25 27  1  0  0  0  0
 25 17  1  0  0  0  0
 26 25  1  0  0  0  0
 26 27  1  0  0  0  0
 28 29  1  0  0  0  0
 28  4  1  0  0  0  0
 30 28  1  0  0  0  0
 31 28  1  0  0  0  0
M  END
>  <minimizedAffinity>
-5.56806898

>  <minimizedRMSD>
0.590226531

$$$$
