
 OpenBabel03232520583D

 31 33  0  0  1  0  0  0  0  0999 V2000
   46.1060   33.8600   45.2740 C   0  0  2  0  0  0  0  0  0  0  0  0
   44.9080   34.8770   45.4270 C   0  0  0  0  0  0  0  0  0  0  0  0
   44.5930   35.7150   44.3010 C   0  0  0  0  0  0  0  0  0  0  0  0
   45.3620   35.6160   43.0750 C   0  0  1  0  0  0  0  0  0  0  0  0
   46.5350   34.7300   43.1050 C   0  0  0  0  0  0  0  0  0  0  0  0
   46.1840   33.4840   43.9010 C   0  0  0  0  0  0  0  0  0  0  0  0
   46.9140   34.6050   45.5840 H   0  0  0  0  0  0  0  0  0  0  0  0
   44.2010   35.1350   46.2080 H   0  0  0  0  0  0  0  0  0  0  0  0
   43.8080   36.4270   44.3080 H   0  0  0  0  0  0  0  0  0  0  0  0
   45.7060   36.6460   42.7970 H   0  0  0  0  0  0  0  0  0  0  0  0
   46.8390   34.4570   42.0900 H   0  0  0  0  0  0  0  0  0  0  0  0
   47.3920   35.2120   43.6320 H   0  0  0  0  0  0  0  0  0  0  0  0
   46.8370   32.7500   43.4820 H   0  0  0  0  0  0  0  0  0  0  0  0
   45.1490   33.2150   43.5260 H   0  0  0  0  0  0  0  0  0  0  0  0
   45.1220   33.0730   47.3990 C   0  0  0  0  0  0  0  0  0  0  0  0
   45.9550   32.8940   46.3180 C   0  0  0  0  0  0  0  0  0  0  0  0
   46.6300   31.6640   46.2510 C   0  0  0  0  0  0  0  0  0  0  0  0
   46.4390   30.7530   47.2080 N   0  0  0  0  0  0  0  0  0  0  0  0
   45.6130   30.9550   48.2620 C   0  0  0  0  0  0  0  0  0  0  0  0
   44.9570   32.1040   48.3620 N   0  0  0  0  0  0  0  0  0  0  0  0
   45.4790   29.9160   49.2410 N   0  0  0  0  0  0  0  0  0  0  0  0
   44.5630   33.9770   47.5460 H   0  0  0  0  0  0  0  0  0  0  0  0
   46.2680   29.3620   49.5990 H   0  0  0  0  0  0  0  0  0  0  0  0
   44.4750   29.7990   49.5400 H   0  0  0  0  0  0  0  0  0  0  0  0
   47.5730   31.1670   45.2240 C   0  0  0  0  0  3  0  0  0  0  0  0
   47.0990   30.0280   44.2850 C   0  0  0  0  0  2  0  0  0  0  0  0
   48.0320   29.6910   45.3400 C   0  0  0  0  0  2  0  0  0  0  0  0
   44.4000   35.1970   41.9360 C   0  0  0  0  0  0  0  0  0  0  0  0
   43.4510   34.3060   42.3560 F   0  0  0  0  0  0  0  0  0  0  0  0
   43.7240   36.3590   41.5600 F   0  0  0  0  0  0  0  0  0  0  0  0
   45.1370   34.7740   40.8360 F   0  0  0  0  0  0  0  0  0  0  0  0
  1  2  1  0  0  0  0
  1  7  1  1  0  0  0
  1 16  1  0  0  0  0
  2  8  1  0  0  0  0
  3  9  1  0  0  0  0
  3  2  2  0  0  0  0
  4 10  1  6  0  0  0
  4  5  1  0  0  0  0
  4  3  1  0  0  0  0
  5 12  1  0  0  0  0
  5  6  1  0  0  0  0
  6  1  1  0  0  0  0
 11  5  1  0  0  0  0
 13  6  1  0  0  0  0
 14  6  1  0  0  0  0
 15 22  1  0  0  0  0
 15 20  1  0  0  0  0
 16 15  2  0  0  0  0
 17 16  1  0  0  0  0
 17 18  2  0  0  0  0
 18 19  1  0  0  0  0
 19 20  2  0  0  0  0
 19 21  1  0  0  0  0
 21 24  1  0  0  0  0
 21 23  1  0  0  0  0
 25 27  1  0  0  0  0
 25 17  1  0  0  0  0
 26 25  1  0  0  0  0
 26 27  1  0  0  0  0
 28 29  1  0  0  0  0
 28  4  1  0  0  0  0
 30 28  1  0  0  0  0
 31 28  1  0  0  0  0
M  END
>  <minimizedAffinity>
-5.59774065

>  <minimizedRMSD>
0.402116299

$$$$
