
 OpenBabel03232520303D

 39 43  0  0  1  0  0  0  0  0999 V2000
   46.9430   34.5020   41.3110 C   0  0  0  0  0  0  0  0  0  0  0  0
   48.2110   34.9460   40.9730 C   0  0  0  0  0  0  0  0  0  0  0  0
   48.4700   34.6460   39.7000 N   0  0  0  0  0  0  0  0  0  0  0  0
   47.3890   34.0150   39.2090 C   0  0  0  0  0  0  0  0  0  0  0  0
   47.1460   33.4980   37.9430 C   0  0  0  0  0  0  0  0  0  0  0  0
   45.9400   32.8960   37.7090 C   0  0  0  0  0  0  0  0  0  0  0  0
   44.9330   32.7570   38.6350 C   0  0  0  0  0  0  0  0  0  0  0  0
   45.2220   33.2880   39.8840 C   0  0  0  0  0  0  0  0  0  0  0  0
   46.4040   33.9050   40.1960 C   0  0  0  0  0  0  0  0  0  0  0  0
   49.3560   34.8560   39.1580 H   0  0  0  0  0  0  0  0  0  0  0  0
   47.8970   33.5760   37.1700 H   0  0  0  0  0  0  0  0  0  0  0  0
   45.7980   32.5070   36.6970 H   0  0  0  0  0  0  0  0  0  0  0  0
   43.9880   32.2740   38.4160 H   0  0  0  0  0  0  0  0  0  0  0  0
   44.4990   33.2340   40.6890 H   0  0  0  0  0  0  0  0  0  0  0  0
   44.7900   35.8490   44.0540 C   0  0  0  0  0  0  0  0  0  0  0  0
   45.4260   35.7350   42.8040 C   0  0  0  0  0  0  0  0  0  0  0  0
   46.2740   34.6330   42.6150 C   0  0  0  0  0  0  0  0  0  0  0  0
   46.4550   33.7240   43.6210 N   0  0  0  0  0  0  0  0  0  0  0  0
   45.8040   33.9030   44.8060 C   0  0  0  0  0  0  0  0  0  0  0  0
   44.9860   34.9410   45.0300 N   0  0  0  0  0  0  0  0  0  0  0  0
   44.1390   36.6860   44.2170 H   0  0  0  0  0  0  0  0  0  0  0  0
   45.2940   36.4340   42.0100 H   0  0  0  0  0  0  0  0  0  0  0  0
   46.0670   33.0850   45.4860 H   0  0  0  0  0  0  0  0  0  0  0  0
   49.1240   35.6470   41.9060 C   0  0  0  0  0  0  0  0  0  0  0  0
   48.5040   36.1700   42.6740 H   0  0  0  0  0  0  0  0  0  0  0  0
   49.6570   36.4630   41.3830 H   0  0  0  0  0  0  0  0  0  0  0  0
   50.0170   34.6860   42.6210 C   0  0  0  0  0  0  0  0  0  0  0  0
   49.6440   34.5210   43.6740 H   0  0  0  0  0  0  0  0  0  0  0  0
   51.0190   35.1700   42.7620 H   0  0  0  0  0  0  0  0  0  0  0  0
   50.2570   33.4000   41.9110 C   0  0  1  0  0  0  0  0  0  0  0  0
   50.9980   32.2770   42.5040 C   0  0  0  0  0  0  0  0  0  0  0  0
   49.5370   32.1790   42.5630 C   0  0  2  0  0  0  0  0  0  0  0  0
   50.2060   33.3840   40.7980 H   0  0  0  0  0  0  0  0  0  0  0  0
   51.6560   31.6240   41.9070 H   0  0  0  0  0  0  0  0  0  0  0  0
   51.5550   32.5750   43.4540 H   0  0  0  0  0  0  0  0  0  0  0  0
   49.0860   32.3760   43.5670 H   0  0  0  0  0  0  0  0  0  0  0  0
   48.8530   31.2290   41.6340 C   0  0  0  0  0  0  0  0  0  0  0  0
   49.3860   31.1000   40.2440 C   0  0  0  0  0  0  0  0  0  0  0  0
   49.6440   30.0340   41.2520 C   0  0  0  0  0  0  0  0  0  0  0  0
  1 17  1  0  0  0  0
  2  1  2  0  0  0  0
  2 24  1  0  0  0  0
  3  2  1  0  0  0  0
  4  3  1  0  0  0  0
  4  9  1  0  0  0  0
  5  4  2  0  0  0  0
  6  5  1  0  0  0  0
  6  7  2  0  0  0  0
  7  8  1  0  0  0  0
  8  9  2  0  0  0  0
  8 14  1  0  0  0  0
  9  1  1  0  0  0  0
 10  3  1  0  0  0  0
 11  5  1  0  0  0  0
 12  6  1  0  0  0  0
 13  7  1  0  0  0  0
 15 21  1  0  0  0  0
 15 20  1  0  0  0  0
 16 15  2  0  0  0  0
 17 16  1  0  0  0  0
 17 18  2  0  0  0  0
 18 19  1  0  0  0  0
 19 20  2  0  0  0  0
 19 23  1  0  0  0  0
 22 16  1  0  0  0  0
 24 27  1  0  0  0  0
 24 25  1  0  0  0  0
 26 24  1  0  0  0  0
 27 29  1  0  0  0  0
 27 28  1  0  0  0  0
 30 33  1  6  0  0  0
 30 31  1  0  0  0  0
 30 32  1  0  0  0  0
 30 27  1  0  0  0  0
 31 32  1  0  0  0  0
 31 35  1  0  0  0  0
 32 36  1  1  0  0  0
 34 31  1  0  0  0  0
 37 32  1  0  0  0  0
 38 39  1  0  0  0  0
 38 37  1  0  0  0  0
 39 37  1  0  0  0  0
M  END
>  <minimizedAffinity>
-5.67798471

>  <minimizedRMSD>
0.146051109

$$$$
