
 OpenBabel03232520533D

 29 31  0  0  1  0  0  0  0  0999 V2000
   46.4650   33.6730   44.7750 C   0  0  2  0  0  0  0  0  0  0  0  0
   45.1930   34.3780   45.1640 C   0  0  0  0  0  0  0  0  0  0  0  0
   44.6570   35.3400   44.2300 C   0  0  0  0  0  0  0  0  0  0  0  0
   45.3230   35.6070   42.9700 C   0  0  1  0  0  0  0  0  0  0  0  0
   46.6090   34.9110   42.7210 C   0  0  0  0  0  0  0  0  0  0  0  0
   46.5510   33.5260   43.2980 C   0  0  0  0  0  0  0  0  0  0  0  0
   47.2800   34.3740   45.1160 H   0  0  0  0  0  0  0  0  0  0  0  0
   44.5140   34.3680   46.0070 H   0  0  0  0  0  0  0  0  0  0  0  0
   43.7680   35.8910   44.4050 H   0  0  0  0  0  0  0  0  0  0  0  0
   45.5070   36.7000   42.8810 H   0  0  0  0  0  0  0  0  0  0  0  0
   46.8130   34.9010   41.6400 H   0  0  0  0  0  0  0  0  0  0  0  0
   47.4130   35.4630   43.2680 H   0  0  0  0  0  0  0  0  0  0  0  0
   47.4090   32.9530   42.9730 H   0  0  0  0  0  0  0  0  0  0  0  0
   45.5700   33.0900   42.9580 H   0  0  0  0  0  0  0  0  0  0  0  0
   47.0140   32.5270   46.8670 C   0  0  0  0  0  0  0  0  0  0  0  0
   46.6070   32.4500   45.5490 C   0  0  0  0  0  0  0  0  0  0  0  0
   46.3680   31.1780   45.0380 C   0  0  0  0  0  0  0  0  0  0  0  0
   46.5300   30.0860   45.8060 N   0  0  0  0  0  0  0  0  0  0  0  0
   46.9320   30.1830   47.1040 C   0  0  0  0  0  0  0  0  0  0  0  0
   47.1740   31.4100   47.6330 N   0  0  0  0  0  0  0  0  0  0  0  0
   47.2440   33.4270   47.4200 H   0  0  0  0  0  0  0  0  0  0  0  0
   46.0520   31.0570   44.0320 H   0  0  0  0  0  0  0  0  0  0  0  0
   47.1030   28.9580   47.9280 C   0  0  0  0  0  3  0  0  0  0  0  0
   48.2400   28.0180   47.6350 C   0  0  0  0  0  2  0  0  0  0  0  0
   46.8500   27.6420   47.2550 C   0  0  0  0  0  2  0  0  0  0  0  0
   44.3450   35.2700   41.8330 C   0  0  0  0  0  0  0  0  0  0  0  0
   43.3600   34.3900   42.2230 F   0  0  0  0  0  0  0  0  0  0  0  0
   43.6780   36.4480   41.4920 F   0  0  0  0  0  0  0  0  0  0  0  0
   45.0340   34.8630   40.7130 F   0  0  0  0  0  0  0  0  0  0  0  0
  1  7  1  1  0  0  0
  1  2  1  0  0  0  0
  1 16  1  0  0  0  0
  2  8  1  0  0  0  0
  3  9  1  0  0  0  0
  3  2  2  0  0  0  0
  4 10  1  6  0  0  0
  4  3  1  0  0  0  0
  5  4  1  0  0  0  0
  5 12  1  0  0  0  0
  5  6  1  0  0  0  0
  6  1  1  0  0  0  0
 11  5  1  0  0  0  0
 13  6  1  0  0  0  0
 14  6  1  0  0  0  0
 15 21  1  0  0  0  0
 15 20  1  0  0  0  0
 16 15  2  0  0  0  0
 17 16  1  0  0  0  0
 17 18  2  0  0  0  0
 18 19  1  0  0  0  0
 19 20  2  0  0  0  0
 19 23  1  0  0  0  0
 22 17  1  0  0  0  0
 24 23  1  0  0  0  0
 25 24  1  0  0  0  0
 25 23  1  0  0  0  0
 26 27  1  0  0  0  0
 26  4  1  0  0  0  0
 28 26  1  0  0  0  0
 29 26  1  0  0  0  0
M  END
>  <minimizedAffinity>
-4.60906315

>  <minimizedRMSD>
1.55264413

$$$$
