REMARK  Name = 
REMARK  3 active torsions:
REMARK  status: ('A' for Active; 'I' for Inactive)
REMARK    1  A    between atoms: C_1  and  C_8
REMARK    2  A    between atoms: C_4  and  C_13
REMARK    3  A    between atoms: C_11  and  C_27
REMARK                            x       y       z     vdW  Elec       q    Type
REMARK                         _______ _______ _______ _____ _____    ______ ____
ROOT
ATOM      1  C   UNL     1      46.132  33.705  45.420  0.00  0.00    +0.000 C 
ATOM      2  C   UNL     1      44.977  34.663  45.540  0.00  0.00    +0.000 C 
ATOM      3  C   UNL     1      44.715  35.528  44.414  0.00  0.00    +0.000 C 
ATOM      4  C   UNL     1      45.536  35.467  43.220  0.00  0.00    +0.000 C 
ATOM      5  C   UNL     1      46.693  34.539  43.238  0.00  0.00    +0.000 C 
ATOM      6  C   UNL     1      46.331  33.299  44.004  0.00  0.00    +0.000 C 
ATOM      7  H   UNL     1      47.024  34.312  45.750  0.00  0.00    +0.000 HD
ATOM      8  H   UNL     1      44.230  34.906  46.285  0.00  0.00    +0.000 HD
ATOM      9  H   UNL     1      43.928  36.238  44.394  0.00  0.00    +0.000 HD
ATOM     10  H   UNL     1      45.922  36.485  42.991  0.00  0.00    +0.000 HD
ATOM     11  H   UNL     1      46.993  34.314  42.204  0.00  0.00    +0.000 HD
ATOM     12  H   UNL     1      47.527  35.037  43.791  0.00  0.00    +0.000 HD
ATOM     13  H   UNL     1      47.098  32.548  43.876  0.00  0.00    +0.000 HD
ATOM     14  H   UNL     1      45.324  32.978  43.614  0.00  0.00    +0.000 HD
ENDROOT
BRANCH   1  16
ATOM     15  C   UNL     1      45.282  32.853  47.552  0.00  0.00    +0.000 A 
ATOM     16  C   UNL     1      45.977  32.624  46.380  0.00  0.00    +0.000 A 
ATOM     17  C   UNL     1      46.504  31.348  46.201  0.00  0.00    +0.000 A 
ATOM     18  N   UNL     1      46.334  30.396  47.135  0.00  0.00    +0.000 NA
ATOM     19  C   UNL     1      45.645  30.642  48.284  0.00  0.00    +0.000 A 
ATOM     20  N   UNL     1      45.118  31.877  48.489  0.00  0.00    +0.000 NA
ATOM     21  H   UNL     1      44.812  33.779  47.852  0.00  0.00    +0.000 HD
ATOM     22  H   UNL     1      47.047  31.114  45.320  0.00  0.00    +0.000 HD
BRANCH  19  23
ATOM     23  C   UNL     1      45.474  29.570  49.298  0.00  0.00    +0.000 C 
ATOM     24  C   UNL     1      46.230  29.647  50.596  0.00  0.00    +0.000 C 
ATOM     25  C   UNL     1      46.650  28.674  49.550  0.00  0.00    +0.000 C 
ENDBRANCH  19  23
ENDBRANCH   1  16
BRANCH   4  26
ATOM     26  C   UNL     1      44.626  35.107  42.034  0.00  0.00    +0.000 C 
ATOM     27  F   UNL     1      43.667  34.175  42.364  0.00  0.00    +0.000 F 
ATOM     28  F   UNL     1      43.919  36.259  41.684  0.00  0.00    +0.000 F 
ATOM     29  F   UNL     1      45.382  34.754  40.939  0.00  0.00    +0.000 F 
ENDBRANCH   4  26
TORSDOF 3
