
 OpenBabel03232518293D

 24 27  0  0  0  0  0  0  0  0999 V2000
   45.4800   33.1040   47.2260 S   0  0  0  0  0  0  0  0  0  0  0  0
   48.5550   29.5680   48.5850 N   0  0  0  0  0  0  0  0  0  0  0  0
   48.5460   30.6650   49.3770 C   0  0  0  0  0  0  0  0  0  0  0  0
   47.6710   31.5460   48.8970 N   0  0  0  0  0  0  0  0  0  0  0  0
   47.0870   31.0450   47.7830 C   0  0  0  0  0  0  0  0  0  0  0  0
   46.1270   31.4670   46.8610 C   0  0  0  0  0  0  0  0  0  0  0  0
   45.7760   30.6890   45.8410 N   0  0  0  0  0  0  0  0  0  0  0  0
   46.3870   29.4670   45.7330 C   0  0  0  0  0  0  0  0  0  0  0  0
   47.3270   28.9950   46.5940 N   0  0  0  0  0  0  0  0  0  0  0  0
   47.6660   29.8010   47.6170 C   0  0  0  0  0  0  0  0  0  0  0  0
   49.1720   28.7380   48.7700 H   0  0  0  0  0  0  0  0  0  0  0  0
   49.0980   30.9250   50.2730 H   0  0  0  0  0  0  0  0  0  0  0  0
   46.1010   28.8380   44.9070 H   0  0  0  0  0  0  0  0  0  0  0  0
   44.6980   35.7320   44.3680 C   0  0  0  0  0  0  0  0  0  0  0  0
   45.5830   35.4220   43.3470 C   0  0  0  0  0  0  0  0  0  0  0  0
   46.4810   34.3360   43.5440 C   0  0  0  0  0  0  0  0  0  0  0  0
   46.4190   33.6560   44.7350 N   0  0  0  0  0  0  0  0  0  0  0  0
   45.5270   34.0160   45.6860 C   0  0  0  0  0  0  0  0  0  0  0  0
   44.6660   35.0490   45.5140 N   0  0  0  0  0  0  0  0  0  0  0  0
   44.0560   36.5590   44.1470 H   0  0  0  0  0  0  0  0  0  0  0  0
   45.6860   35.9020   42.4040 H   0  0  0  0  0  0  0  0  0  0  0  0
   47.4680   33.9320   42.4990 C   0  0  0  0  0  0  0  0  0  0  0  0
   48.8500   34.6310   42.6230 C   0  0  0  0  0  0  0  0  0  0  0  0
   47.9210   34.9080   41.4860 C   0  0  0  0  0  0  0  0  0  0  0  0
  2 11  1  0  0  0  0
  2  3  1  0  0  0  0
  3 12  1  0  0  0  0
  4  3  2  0  0  0  0
  5  4  1  0  0  0  0
  6  1  1  0  0  0  0
  6  5  2  0  0  0  0
  7  6  1  0  0  0  0
  8  7  2  0  0  0  0
  8  9  1  0  0  0  0
  9 10  2  0  0  0  0
 10  5  1  0  0  0  0
 10  2  1  0  0  0  0
 13  8  1  0  0  0  0
 14 19  1  0  0  0  0
 15 16  1  0  0  0  0
 15 14  2  0  0  0  0
 16 17  2  0  0  0  0
 17 18  1  0  0  0  0
 18  1  1  0  0  0  0
 19 18  2  0  0  0  0
 20 14  1  0  0  0  0
 21 15  1  0  0  0  0
 22 23  1  0  0  0  0
 22 16  1  0  0  0  0
 24 22  1  0  0  0  0
 24 23  1  0  0  0  0
M  END
>  <minimizedAffinity>
-5.24323654

>  <minimizedRMSD>
0.674375951

$$$$
