
 OpenBabel03232520473D

 38 41  0  0  0  0  0  0  0  0999 V2000
   46.4820   34.5250   42.4310 C   0  0  0  0  0  0  0  0  0  0  0  0
   47.7920   34.9000   42.3160 C   0  0  0  0  0  0  0  0  0  0  0  0
   48.4790   34.8230   41.1040 C   0  0  0  0  0  0  0  0  0  0  0  0
   47.8180   34.3490   39.9610 C   0  0  0  0  0  0  0  0  0  0  0  0
   46.5100   33.9760   40.0790 C   0  0  0  0  0  0  0  0  0  0  0  0
   45.8550   34.0660   41.3040 C   0  0  0  0  0  0  0  0  0  0  0  0
   48.3390   35.2720   43.1750 H   0  0  0  0  0  0  0  0  0  0  0  0
   49.5110   35.1270   41.0520 H   0  0  0  0  0  0  0  0  0  0  0  0
   48.3190   34.2770   39.0060 H   0  0  0  0  0  0  0  0  0  0  0  0
   45.9680   33.6060   39.2190 H   0  0  0  0  0  0  0  0  0  0  0  0
   44.4940   33.6670   41.3840 N   0  0  0  0  0  0  0  0  0  0  0  0
   43.6780   34.6720   40.9340 C   0  0  0  0  0  0  0  0  0  0  0  0
   42.2880   34.4960   40.9230 C   0  0  0  0  0  0  0  0  0  0  0  0
   41.7880   33.2790   41.3800 C   0  0  0  0  0  0  0  0  0  0  0  0
   40.5500   33.0610   41.3960 O   0  0  0  0  0  0  0  0  0  0  0  0
   42.6350   32.3320   41.8090 N   0  0  0  0  0  0  0  0  0  0  0  0
   43.9630   32.5130   41.8140 C   0  0  0  0  0  0  0  0  0  0  0  0
   44.8260   31.6940   42.1930 O   0  0  0  0  0  0  0  0  0  0  0  0
   43.9750   35.6210   40.5700 H   0  0  0  0  0  0  0  0  0  0  0  0
   42.2930   31.4050   42.1600 H   0  0  0  0  0  0  0  0  0  0  0  0
   41.3540   35.5520   40.4450 C   0  0  0  0  0  0  0  0  0  0  0  0
   40.9090   35.3320   39.4710 H   0  0  0  0  0  0  0  0  0  0  0  0
   40.4950   35.5510   41.1680 H   0  0  0  0  0  0  0  0  0  0  0  0
   41.8190   36.5620   40.5310 H   0  0  0  0  0  0  0  0  0  0  0  0
   44.4650   35.6830   45.3870 C   0  0  0  0  0  0  0  0  0  0  0  0
   45.0150   35.6840   44.1060 C   0  0  0  0  0  0  0  0  0  0  0  0
   45.8480   34.6390   43.7300 C   0  0  0  0  0  0  0  0  0  0  0  0
   46.0870   33.6700   44.6240 N   0  0  0  0  0  0  0  0  0  0  0  0
   45.5360   33.6930   45.8690 C   0  0  0  0  0  0  0  0  0  0  0  0
   44.7310   34.6950   46.2430 N   0  0  0  0  0  0  0  0  0  0  0  0
   43.8180   36.5070   45.6580 H   0  0  0  0  0  0  0  0  0  0  0  0
   44.8220   36.4620   43.3950 H   0  0  0  0  0  0  0  0  0  0  0  0
   45.8690   32.5630   46.7790 C   0  0  0  0  0  3  0  0  0  0  0  0
   47.3230   32.5050   47.1640 C   0  0  0  0  0  2  0  0  0  0  0  0
   47.5220   31.1700   47.8530 C   0  0  0  0  0  2  0  0  0  0  0  0
   46.2680   30.7380   48.5870 C   0  0  0  0  0  2  0  0  0  0  0  0
   45.5780   31.9690   49.1330 C   0  0  0  0  0  2  0  0  0  0  0  0
   44.9640   32.7140   47.9810 C   0  0  0  0  0  2  0  0  0  0  0  0
  1 27  1  0  0  0  0
  2  1  1  0  0  0  0
  2  7  1  0  0  0  0
  3  2  2  0  0  0  0
  4  5  2  0  0  0  0
  4  3  1  0  0  0  0
  5  6  1  0  0  0  0
  6 11  1  0  0  0  0
  6  1  2  0  0  0  0
  8  3  1  0  0  0  0
  9  4  1  0  0  0  0
 10  5  1  0  0  0  0
 11 17  1  0  0  0  0
 12 11  1  0  0  0  0
 13 12  2  0  0  0  0
 13 14  1  0  0  0  0
 14 15  2  0  0  0  0
 14 16  1  0  0  0  0
 16 17  1  0  0  0  0
 16 20  1  0  0  0  0
 17 18  2  0  0  0  0
 19 12  1  0  0  0  0
 21 24  1  0  0  0  0
 21 13  1  0  0  0  0
 21 23  1  0  0  0  0
 22 21  1  0  0  0  0
 25 31  1  0  0  0  0
 25 30  1  0  0  0  0
 26 25  2  0  0  0  0
 27 26  1  0  0  0  0
 27 28  2  0  0  0  0
 28 29  1  0  0  0  0
 29 30  2  0  0  0  0
 29 33  1  0  0  0  0
 32 26  1  0  0  0  0
 33 34  1  0  0  0  0
 33 38  1  0  0  0  0
 34 35  1  0  0  0  0
 35 36  1  0  0  0  0
 36 37  1  0  0  0  0
 38 37  1  0  0  0  0
M  END
>  <minimizedAffinity>
-7.63138103

>  <minimizedRMSD>
0.450691521

$$$$
