
     RDKit          3D

 49 52  0  0  0  0  0  0  0  0999 V2000
   46.4110   34.6644   42.1799 C   0  0  0  0  0  0  0  0  0  0  0  0
   47.7228   35.0223   42.0414 C   0  0  0  0  0  0  0  0  0  0  0  0
   48.4208   34.8252   40.8492 C   0  0  0  0  0  0  0  0  0  0  0  0
   47.7692   34.2434   39.7519 C   0  0  0  0  0  0  0  0  0  0  0  0
   46.4593   33.8870   39.8929 C   0  0  0  0  0  0  0  0  0  0  0  0
   45.7930   34.0980   41.0971 C   0  0  0  0  0  0  0  0  0  0  0  0
   44.4303   33.7133   41.2026 N   0  0  0  0  0  0  0  0  0  0  0  0
   43.6202   34.6796   40.6672 C   0  0  0  0  0  0  0  0  0  0  0  0
   42.2294   34.5086   40.6640 C   0  0  0  0  0  0  0  0  0  0  0  0
   41.3022   35.5255   40.0962 C   0  0  0  0  0  0  0  0  0  0  0  0
   41.7216   33.3370   41.2180 C   0  0  0  0  0  0  0  0  0  0  0  0
   40.4829   33.1258   41.2446 O   0  0  0  0  0  0  0  0  0  0  0  0
   42.5626   32.4248   41.7282 N   0  0  0  0  0  0  0  0  0  0  0  0
   43.8915   32.6005   41.7251 C   0  0  0  0  0  0  0  0  0  0  0  0
   44.7492   31.8124   42.1744 O   0  0  0  0  0  0  0  0  0  0  0  0
   44.4197   36.1426   45.0071 C   0  0  0  0  0  0  0  0  0  0  0  0
   44.9882   36.0214   43.7397 C   0  0  0  0  0  0  0  0  0  0  0  0
   45.7663   34.9075   43.4554 C   0  0  0  0  0  0  0  0  0  0  0  0
   45.9361   33.9931   44.4201 N   0  0  0  0  0  0  0  0  0  0  0  0
   45.3689   34.1370   45.6495 C   0  0  0  0  0  0  0  0  0  0  0  0
   44.6169   35.2055   45.9364 N   0  0  0  0  0  0  0  0  0  0  0  0
   48.2636   35.4747   42.8642 H   0  0  0  0  0  0  0  0  0  0  0  0
   49.4551   35.1203   40.7774 H   0  0  0  0  0  0  0  0  0  0  0  0
   48.2781   34.0757   38.8135 H   0  0  0  0  0  0  0  0  0  0  0  0
   45.9226   33.4355   39.0691 H   0  0  0  0  0  0  0  0  0  0  0  0
   43.9235   35.5953   40.2283 H   0  0  0  0  0  0  0  0  0  0  0  0
   40.8605   35.2282   39.1410 H   0  0  0  0  0  0  0  0  0  0  0  0
   40.4397   35.5880   40.8121 H   0  0  0  0  0  0  0  0  0  0  0  0
   41.7709   36.5382   40.1000 H   0  0  0  0  0  0  0  0  0  0  0  0
   42.2154   31.5315   42.1531 H   0  0  0  0  0  0  0  0  0  0  0  0
   43.8171   37.0192   45.2060 H   0  0  0  0  0  0  0  0  0  0  0  0
   44.8494   36.7552   42.9719 H   0  0  0  0  0  0  0  0  0  0  0  0
   45.6245   33.0593   46.6449 C   0  0  0  0  0  0  0  0  0  0  0  0
   46.2812   33.5458   47.9083 C   0  0  0  0  0  0  0  0  0  0  0  0
   46.7019   32.3048   48.6691 C   0  0  0  0  0  0  0  0  0  0  0  0
   45.7524   31.1524   48.4067 C   0  0  0  0  0  0  0  0  0  0  0  0
   44.3547   31.7057   48.2351 C   0  0  0  0  0  0  0  0  0  0  0  0
   44.2861   32.4078   46.9092 C   0  0  0  0  0  0  0  0  0  0  0  0
   46.2684   32.2594   46.2229 H   0  0  0  0  0  0  0  0  0  0  0  0
   47.2098   34.0777   47.6158 H   0  0  0  0  0  0  0  0  0  0  0  0
   45.6150   34.1525   48.5473 H   0  0  0  0  0  0  0  0  0  0  0  0
   46.8108   32.5105   49.7567 H   0  0  0  0  0  0  0  0  0  0  0  0
   47.6937   31.9815   48.2906 H   0  0  0  0  0  0  0  0  0  0  0  0
   46.0132   30.6244   47.4659 H   0  0  0  0  0  0  0  0  0  0  0  0
   45.8282   30.3988   49.2181 H   0  0  0  0  0  0  0  0  0  0  0  0
   44.0530   32.3921   49.0398 H   0  0  0  0  0  0  0  0  0  0  0  0
   43.6500   30.8478   48.1966 H   0  0  0  0  0  0  0  0  0  0  0  0
   44.0085   31.6900   46.1117 H   0  0  0  0  0  0  0  0  0  0  0  0
   43.4678   33.1561   46.9885 H   0  0  0  0  0  0  0  0  0  0  0  0
  1 18  1  0
  2  1  2  0
  3  2  1  0
  4  5  1  0
  4  3  2  0
  5  6  2  0
  6  7  1  0
  6  1  1  0
  7 14  1  0
  8  7  1  0
  9  8  2  0
  9 11  1  0
 10  9  1  0
 11 12  2  0
 11 13  1  0
 14 13  1  0
 14 15  2  0
 16 21  2  0
 17 16  1  0
 18 17  2  0
 18 19  1  0
 19 20  2  0
 20 21  1  0
  2 22  1  0
  3 23  1  0
  4 24  1  0
  5 25  1  0
  8 26  1  0
 10 27  1  0
 10 28  1  0
 10 29  1  0
 13 30  1  0
 16 31  1  0
 17 32  1  0
 33 34  1  0
 34 35  1  0
 35 36  1  0
 36 37  1  0
 37 38  1  0
 38 33  1  0
 33 39  1  0
 34 40  1  0
 34 41  1  0
 35 42  1  0
 35 43  1  0
 36 44  1  0
 36 45  1  0
 37 46  1  0
 37 47  1  0
 38 48  1  0
 38 49  1  0
 20 33  1  0
M  ISO  8  22  14  23  14  24  14  25  14  26  14  27   8  28   8  29   8
M  ISO  3  30   9  31  14  32  14
M  END
>  <DihAtoms>  (1) 
18,19,32,33

>  <DihDeg>  (1) 
-58.37977423573717

$$$$
