
     RDKit          3D

 45 47  0  0  0  0  0  0  0  0999 V2000
   46.1704   33.6377   45.3090 C   0  0  2  0  0  0  0  0  0  0  0  0
   44.9375   34.6669   45.4707 C   0  0  0  0  0  0  0  0  0  0  0  0
   44.6998   35.5771   44.3788 C   0  0  0  0  0  0  0  0  0  0  0  0
   45.5208   35.5195   43.1797 C   0  0  1  0  0  0  0  0  0  0  0  0
   46.6431   34.5785   43.1977 C   0  0  0  0  0  0  0  0  0  0  0  0
   46.2039   33.3181   43.9327 C   0  0  0  0  0  0  0  0  0  0  0  0
   45.3134   32.9246   47.5318 C   0  0  0  0  0  0  0  0  0  0  0  0
   45.9498   32.6569   46.3307 C   0  0  0  0  0  0  0  0  0  0  0  0
   46.3154   31.3110   46.0942 C   0  0  0  0  0  0  0  0  0  0  0  0
   46.0269   30.4077   47.0244 N   0  0  0  0  0  0  0  0  0  0  0  0
   45.4041   30.6882   48.1907 C   0  0  0  0  0  0  0  0  0  0  0  0
   45.0458   31.9358   48.4523 N   0  0  0  0  0  0  0  0  0  0  0  0
   45.1750   29.6103   49.1172 N   0  0  0  0  0  0  0  0  0  0  0  0
   44.5734   35.1820   41.9999 C   0  0  0  0  0  0  0  0  0  0  0  0
   43.5843   34.2838   42.3472 F   0  0  0  0  0  0  0  0  0  0  0  0
   43.9261   36.3678   41.6629 F   0  0  0  0  0  0  0  0  0  0  0  0
   45.3072   34.7860   40.8982 F   0  0  0  0  0  0  0  0  0  0  0  0
   46.8563   34.5054   45.5998 H   0  0  0  0  0  0  0  0  0  0  0  0
   44.1726   34.8929   46.2186 H   0  0  0  0  0  0  0  0  0  0  0  0
   43.9220   36.2972   44.3758 H   0  0  0  0  0  0  0  0  0  0  0  0
   45.8975   36.5427   42.9552 H   0  0  0  0  0  0  0  0  0  0  0  0
   47.5574   34.9884   43.7096 H   0  0  0  0  0  0  0  0  0  0  0  0
   46.9505   34.3228   42.1672 H   0  0  0  0  0  0  0  0  0  0  0  0
   46.7803   32.5826   43.4230 H   0  0  0  0  0  0  0  0  0  0  0  0
   45.1424   33.1628   43.5510 H   0  0  0  0  0  0  0  0  0  0  0  0
   45.0128   33.9303   47.7751 H   0  0  0  0  0  0  0  0  0  0  0  0
   45.1730   29.7852   50.1561 H   0  0  0  0  0  0  0  0  0  0  0  0
   45.0131   28.6655   48.7456 H   0  0  0  0  0  0  0  0  0  0  0  0
   46.9967   30.7119   44.9241 C   0  0  0  0  0  0  0  0  0  0  0  0
   48.4785   30.6077   45.0330 C   0  0  0  0  0  0  0  0  0  0  0  0
   49.0915   29.4813   44.2226 C   0  0  0  0  0  0  0  0  0  0  0  0
   48.2327   29.3365   42.9759 C   0  0  0  0  0  0  0  0  0  0  0  0
   46.9735   28.6366   43.5088 C   0  0  0  0  0  0  0  0  0  0  0  0
   46.6435   29.1750   44.8649 C   0  0  0  0  0  0  0  0  0  0  0  0
   46.5352   30.8921   43.9502 H   0  0  0  0  0  0  0  0  0  0  0  0
   48.6846   30.2921   46.0858 H   0  0  0  0  0  0  0  0  0  0  0  0
   49.0528   31.4919   44.7310 H   0  0  0  0  0  0  0  0  0  0  0  0
   50.1436   29.6789   43.9830 H   0  0  0  0  0  0  0  0  0  0  0  0
   49.0851   28.5150   44.7643 H   0  0  0  0  0  0  0  0  0  0  0  0
   47.9697   30.3511   42.6196 H   0  0  0  0  0  0  0  0  0  0  0  0
   48.7321   28.7551   42.1859 H   0  0  0  0  0  0  0  0  0  0  0  0
   46.1519   28.6693   42.7828 H   0  0  0  0  0  0  0  0  0  0  0  0
   47.2823   27.5846   43.6432 H   0  0  0  0  0  0  0  0  0  0  0  0
   47.0814   28.6491   45.7070 H   0  0  0  0  0  0  0  0  0  0  0  0
   45.5400   29.1527   44.9794 H   0  0  0  0  0  0  0  0  0  0  0  0
  1  2  1  0
  1  8  1  0
  3  2  2  0
  4  5  1  0
  4  3  1  0
  5  6  1  0
  6  1  1  0
  7 12  2  0
  8  7  1  0
  9  8  2  0
  9 10  1  0
 10 11  2  0
 11 12  1  0
 11 13  1  0
 14 15  1  0
 14  4  1  0
 16 14  1  0
 17 14  1  0
  1 18  1  1
  2 19  1  0
  3 20  1  0
  4 21  1  6
  5 22  1  0
  5 23  1  0
  6 24  1  0
  6 25  1  0
  7 26  1  0
 13 27  1  0
 13 28  1  0
 29 30  1  0
 30 31  1  0
 31 32  1  0
 32 33  1  0
 33 34  1  0
 34 29  1  0
 29 35  1  0
 30 36  1  0
 30 37  1  0
 31 38  1  0
 31 39  1  0
 32 40  1  0
 32 41  1  0
 33 42  1  0
 33 43  1  0
 34 44  1  0
 34 45  1  0
  9 29  1  0
M  ISO  8  18  13  19  13  20  13  21  13  22  13  23  13  24  13  25  13
M  ISO  1  26  14
M  END
>  <DihAtoms>  (1) 
7,8,28,29

>  <DihDeg>  (1) 
78.2090395120037

$$$$
