
 OpenBabel03232518383D

 44 47  0  0  1  0  0  0  0  0999 V2000
   43.6140   34.4700   41.1810 C   0  0  0  0  0  0  0  0  0  0  0  0
   44.8990   33.9990   40.9800 C   0  0  0  0  0  0  0  0  0  0  0  0
   45.8930   34.5300   41.8210 C   0  0  0  0  0  0  0  0  0  0  0  0
   45.5600   35.4630   42.7770 N   0  0  0  0  0  0  0  0  0  0  0  0
   44.2640   35.8910   42.9290 C   0  0  0  0  0  0  0  0  0  0  0  0
   43.3140   35.3830   42.1240 N   0  0  0  0  0  0  0  0  0  0  0  0
   45.1550   33.2790   40.2430 H   0  0  0  0  0  0  0  0  0  0  0  0
   44.0580   36.6230   43.6930 H   0  0  0  0  0  0  0  0  0  0  0  0
   47.3240   34.0870   41.7150 C   0  0  0  0  0  0  0  0  0  0  0  0
   48.1230   35.1140   40.8950 C   0  0  0  0  0  0  0  0  0  0  0  0
   49.1590   35.8110   41.6970 C   0  0  0  0  0  0  0  0  0  0  0  0
   50.0840   34.8930   42.4420 C   0  0  0  0  0  0  0  0  0  0  0  0
   49.4370   33.5550   42.7260 C   0  0  0  0  0  0  0  0  0  0  0  0
   47.9790   33.8410   43.0250 C   0  0  0  0  0  0  0  0  0  0  0  0
   47.2910   33.1560   41.1250 H   0  0  0  0  0  0  0  0  0  0  0  0
   48.6220   34.5990   40.0520 H   0  0  0  0  0  0  0  0  0  0  0  0
   47.4660   35.8830   40.4460 H   0  0  0  0  0  0  0  0  0  0  0  0
   49.7350   36.4510   41.0330 H   0  0  0  0  0  0  0  0  0  0  0  0
   48.6180   36.5110   42.3940 H   0  0  0  0  0  0  0  0  0  0  0  0
   50.3120   35.3420   43.4440 H   0  0  0  0  0  0  0  0  0  0  0  0
   51.0410   34.7200   41.8770 H   0  0  0  0  0  0  0  0  0  0  0  0
   49.5450   32.8460   41.8770 H   0  0  0  0  0  0  0  0  0  0  0  0
   49.8750   33.1280   43.6710 H   0  0  0  0  0  0  0  0  0  0  0  0
   47.9510   34.7730   43.6530 H   0  0  0  0  0  0  0  0  0  0  0  0
   47.4900   33.0420   43.5790 H   0  0  0  0  0  0  0  0  0  0  0  0
   42.5030   33.9690   40.3230 C   0  0  1  0  0  0  0  0  0  0  0  0
   42.7960   32.6140   39.7140 C   0  0  0  0  0  0  0  0  0  0  0  0
   41.6300   31.7320   40.0940 C   0  0  0  0  0  0  0  0  0  0  0  0
   41.2340   32.3240   41.4220 C   0  0  0  0  0  0  0  0  0  0  0  0
   41.2400   33.7930   41.1690 C   0  0  2  0  0  0  0  0  0  0  0  0
   42.3650   34.6460   39.4680 H   0  0  0  0  0  0  0  0  0  0  0  0
   42.9230   32.6290   38.6250 H   0  0  0  0  0  0  0  0  0  0  0  0
   43.6950   32.2350   40.2700 H   0  0  0  0  0  0  0  0  0  0  0  0
   41.9030   30.6630   40.1650 H   0  0  0  0  0  0  0  0  0  0  0  0
   40.8020   31.9130   39.3780 H   0  0  0  0  0  0  0  0  0  0  0  0
   40.3300   31.8960   41.8420 H   0  0  0  0  0  0  0  0  0  0  0  0
   42.0940   32.1130   42.1190 H   0  0  0  0  0  0  0  0  0  0  0  0
   41.3400   34.3290   42.1300 H   0  0  0  0  0  0  0  0  0  0  0  0
   40.0200   34.2840   40.4440 C   0  0  0  0  0  0  0  0  0  0  0  0
   40.4720   35.1700   39.3090 C   0  0  0  0  0  0  0  0  0  0  0  0
   40.3570   34.3750   38.0040 C   0  0  0  0  0  0  0  0  0  0  0  0
   38.8820   34.3060   37.6750 C   0  0  0  0  0  0  0  0  0  0  0  0
   38.2060   33.6730   38.8510 C   0  0  0  0  0  0  0  0  0  0  0  0
   39.1860   33.1650   39.8970 C   0  0  0  0  0  0  0  0  0  0  0  0
  1  6  1  0  0  0  0
  2  1  2  0  0  0  0
  2  3  1  0  0  0  0
  3  4  2  0  0  0  0
  4  5  1  0  0  0  0
  5  8  1  0  0  0  0
  6  5  2  0  0  0  0
  7  2  1  0  0  0  0
  9  3  1  0  0  0  0
  9 14  1  0  0  0  0
 10 11  1  0  0  0  0
 10  9  1  0  0  0  0
 11 19  1  0  0  0  0
 11 12  1  0  0  0  0
 12 13  1  0  0  0  0
 12 20  1  0  0  0  0
 13 14  1  0  0  0  0
 13 23  1  0  0  0  0
 14 25  1  0  0  0  0
 14 24  1  0  0  0  0
 15  9  1  0  0  0  0
 16 10  1  0  0  0  0
 17 10  1  0  0  0  0
 18 11  1  0  0  0  0
 21 12  1  0  0  0  0
 22 13  1  0  0  0  0
 26 31  1  6  0  0  0
 26 30  1  0  0  0  0
 26  1  1  0  0  0  0
 27 28  1  0  0  0  0
 27 33  1  0  0  0  0
 27 26  1  0  0  0  0
 28 34  1  0  0  0  0
 28 29  1  0  0  0  0
 29 36  1  0  0  0  0
 29 37  1  0  0  0  0
 30 29  1  0  0  0  0
 30 38  1  1  0  0  0
 32 27  1  0  0  0  0
 35 28  1  0  0  0  0
 39 30  1  0  0  0  0
 40 39  1  0  0  0  0
 41 40  1  0  0  0  0
 42 41  1  0  0  0  0
 42 43  1  0  0  0  0
 43 44  1  0  0  0  0
 44 39  1  0  0  0  0
M  END
>  <minimizedAffinity>
-7.17129707

>  <minimizedRMSD>
1.83995342

$$$$
