
     RDKit          3D

 40 42  0  0  0  0  0  0  0  0999 V2000
   45.2871   32.9643   47.4644 C   0  0  0  0  0  0  0  0  0  0  0  0
   45.7726   32.7551   46.1733 C   0  0  0  0  0  0  0  0  0  0  0  0
   46.0861   31.4303   45.8130 C   0  0  0  0  0  0  0  0  0  0  0  0
   45.9081   30.4312   46.7160 N   0  0  0  0  0  0  0  0  0  0  0  0
   45.4356   30.6768   47.9573 C   0  0  0  0  0  0  0  0  0  0  0  0
   45.1264   31.9408   48.3282 N   0  0  0  0  0  0  0  0  0  0  0  0
   45.9464   33.8996   45.2741 C   0  0  2  0  0  0  0  0  0  0  0  0
   44.8133   34.8757   45.4810 C   0  0  0  0  0  0  0  0  0  0  0  0
   44.5222   35.7945   44.3960 C   0  0  0  0  0  0  0  0  0  0  0  0
   45.3078   35.7591   43.1606 C   0  0  2  0  0  0  0  0  0  0  0  0
   46.4683   34.8265   43.1286 C   0  0  0  0  0  0  0  0  0  0  0  0
   46.0679   33.5470   43.8224 C   0  0  0  0  0  0  0  0  0  0  0  0
   45.0120   33.9347   47.8560 H   0  0  0  0  0  0  0  0  0  0  0  0
   46.4616   31.2307   44.8275 H   0  0  0  0  0  0  0  0  0  0  0  0
   45.3309   29.8122   48.5997 H   0  0  0  0  0  0  0  0  0  0  0  0
   46.9073   34.4185   45.5668 H   0  0  0  0  0  0  0  0  0  0  0  0
   44.1608   35.0239   46.3055 H   0  0  0  0  0  0  0  0  0  0  0  0
   43.7328   36.5010   44.4949 H   0  0  0  0  0  0  0  0  0  0  0  0
   44.6651   35.5737   42.2748 H   0  0  0  0  0  0  0  0  0  0  0  0
   46.7075   34.6327   42.0499 H   0  0  0  0  0  0  0  0  0  0  0  0
   47.3502   35.2359   43.6626 H   0  0  0  0  0  0  0  0  0  0  0  0
   45.0804   33.2415   43.4258 H   0  0  0  0  0  0  0  0  0  0  0  0
   46.8639   32.8301   43.6421 H   0  0  0  0  0  0  0  0  0  0  0  0
   45.8545   37.1824   42.9828 C   0  0  0  0  0  0  0  0  0  0  0  0
   47.1823   37.3716   43.6411 C   0  0  0  0  0  0  0  0  0  0  0  0
   47.3592   38.7936   44.1410 C   0  0  0  0  0  0  0  0  0  0  0  0
   46.8015   39.8045   43.1683 C   0  0  0  0  0  0  0  0  0  0  0  0
   45.3857   39.5470   42.7723 C   0  0  0  0  0  0  0  0  0  0  0  0
   44.8802   38.2362   43.3889 C   0  0  0  0  0  0  0  0  0  0  0  0
   46.0179   37.2599   41.8687 H   0  0  0  0  0  0  0  0  0  0  0  0
   48.0242   37.1379   42.9436 H   0  0  0  0  0  0  0  0  0  0  0  0
   47.3145   36.7015   44.5172 H   0  0  0  0  0  0  0  0  0  0  0  0
   48.4410   38.9963   44.2093 H   0  0  0  0  0  0  0  0  0  0  0  0
   46.9013   38.9581   45.1415 H   0  0  0  0  0  0  0  0  0  0  0  0
   47.4729   39.7964   42.2721 H   0  0  0  0  0  0  0  0  0  0  0  0
   46.8573   40.7889   43.6696 H   0  0  0  0  0  0  0  0  0  0  0  0
   44.6790   40.3468   42.9999 H   0  0  0  0  0  0  0  0  0  0  0  0
   45.3383   39.3911   41.6597 H   0  0  0  0  0  0  0  0  0  0  0  0
   43.8624   38.0458   43.0500 H   0  0  0  0  0  0  0  0  0  0  0  0
   44.9136   38.4135   44.4861 H   0  0  0  0  0  0  0  0  0  0  0  0
  1  6  2  0
  2  1  1  0
  3  2  2  0
  3  4  1  0
  4  5  2  0
  5  6  1  0
  7  8  1  0
  7  2  1  0
  9  8  2  0
 10  9  1  0
 11 10  1  0
 11 12  1  0
 12  7  1  0
  1 13  1  0
  3 14  1  0
  5 15  1  0
  7 16  1  1
  8 17  1  0
  9 18  1  0
 10 19  1  6
 11 20  1  0
 11 21  1  0
 12 22  1  0
 12 23  1  0
 24 25  1  0
 25 26  1  0
 26 27  1  0
 27 28  1  0
 28 29  1  0
 29 24  1  0
 24 30  1  0
 25 31  1  0
 25 32  1  0
 26 33  1  0
 26 34  1  0
 27 35  1  0
 27 36  1  0
 28 37  1  0
 28 38  1  0
 29 39  1  0
 29 40  1  0
 10 24  1  0
M  ISO  8  13  14  14  14  15  14  16  13  17  13  18  13  19  13  20  13
M  ISO  3  21  13  22  13  23  13
M  END
>  <DihAtoms>  (1) 
8,9,23,24

>  <DihDeg>  (1) 
-60.000246421854044

$$$$
