
 OpenBabel03232519403D

 35 38  0  0  0  0  0  0  0  0999 V2000
   46.5280   34.4370   42.0320 N   0  0  0  0  0  0  0  0  0  0  0  0
   47.6470   35.2300   41.9150 C   0  0  0  0  0  0  0  0  0  0  0  0
   48.4050   35.2290   40.7720 C   0  0  0  0  0  0  0  0  0  0  0  0
   47.9950   34.3880   39.7260 C   0  0  0  0  0  0  0  0  0  0  0  0
   48.6620   34.3600   38.6640 O   0  0  0  0  0  0  0  0  0  0  0  0
   46.8960   33.6440   39.9080 N   0  0  0  0  0  0  0  0  0  0  0  0
   46.1740   33.6640   41.0330 C   0  0  0  0  0  0  0  0  0  0  0  0
   45.1630   33.0080   41.2560 O   0  0  0  0  0  0  0  0  0  0  0  0
   48.0220   35.9010   42.6760 H   0  0  0  0  0  0  0  0  0  0  0  0
   49.2920   35.8360   40.6370 H   0  0  0  0  0  0  0  0  0  0  0  0
   46.4430   32.7740   38.8810 C   0  0  0  0  0  0  0  0  0  0  0  0
   45.5680   33.1790   37.8830 C   0  0  0  0  0  0  0  0  0  0  0  0
   45.1700   32.2720   36.9150 C   0  0  0  0  0  0  0  0  0  0  0  0
   45.6320   30.9580   36.9250 C   0  0  0  0  0  0  0  0  0  0  0  0
   46.5000   30.5920   37.9310 C   0  0  0  0  0  0  0  0  0  0  0  0
   46.9310   31.4650   38.9300 C   0  0  0  0  0  0  0  0  0  0  0  0
   45.2270   34.1940   37.8980 H   0  0  0  0  0  0  0  0  0  0  0  0
   44.4890   32.5900   36.1400 H   0  0  0  0  0  0  0  0  0  0  0  0
   45.3030   30.2880   36.1630 H   0  0  0  0  0  0  0  0  0  0  0  0
   46.8220   29.5600   37.8830 H   0  0  0  0  0  0  0  0  0  0  0  0
   47.8660   30.9960   39.9800 C   0  0  0  0  0  0  0  0  0  0  0  0
   49.3160   31.2560   39.6380 C   0  0  0  0  0  0  0  0  0  0  0  0
   50.0520   32.0600   40.6680 C   0  0  0  0  0  0  0  0  0  0  0  0
   50.0380   31.2760   41.9600 C   0  0  0  0  0  0  0  0  0  0  0  0
   48.6110   30.9700   42.2840 C   0  0  0  0  0  0  0  0  0  0  0  0
   47.6150   31.6050   41.3310 C   0  0  0  0  0  0  0  0  0  0  0  0
   44.4990   35.9070   44.7560 C   0  0  0  0  0  0  0  0  0  0  0  0
   45.0960   35.7260   43.4790 C   0  0  0  0  0  0  0  0  0  0  0  0
   45.9190   34.6240   43.3180 C   0  0  0  0  0  0  0  0  0  0  0  0
   46.1310   33.7620   44.3580 N   0  0  0  0  0  0  0  0  0  0  0  0
   45.5400   33.9710   45.5630 C   0  0  0  0  0  0  0  0  0  0  0  0
   44.7340   35.0280   45.7620 N   0  0  0  0  0  0  0  0  0  0  0  0
   43.8490   36.7540   44.9250 H   0  0  0  0  0  0  0  0  0  0  0  0
   44.9220   36.4090   42.6720 H   0  0  0  0  0  0  0  0  0  0  0  0
   45.8030   33.2030   46.2870 H   0  0  0  0  0  0  0  0  0  0  0  0
  1 29  1  0  0  0  0
  2  1  1  0  0  0  0
  2  9  1  0  0  0  0
  3  2  2  0  0  0  0
  4  6  1  0  0  0  0
  4  3  1  0  0  0  0
  5  4  2  0  0  0  0
  6  7  1  0  0  0  0
  7  8  2  0  0  0  0
  7  1  1  0  0  0  0
 10  3  1  0  0  0  0
 11 16  1  0  0  0  0
 11  6  1  0  0  0  0
 12 17  1  0  0  0  0
 12 11  2  0  0  0  0
 13 14  2  0  0  0  0
 13 12  1  0  0  0  0
 14 15  1  0  0  0  0
 15 16  2  0  0  0  0
 16 21  1  0  0  0  0
 18 13  1  0  0  0  0
 19 14  1  0  0  0  0
 20 15  1  0  0  0  0
 21 26  1  0  0  0  0
 22 21  1  0  0  0  0
 22 23  1  0  0  0  0
 23 24  1  0  0  0  0
 24 25  1  0  0  0  0
 26 25  1  0  0  0  0
 27 33  1  0  0  0  0
 27 32  1  0  0  0  0
 28 27  2  0  0  0  0
 29 28  1  0  0  0  0
 29 30  2  0  0  0  0
 30 31  1  0  0  0  0
 31 32  2  0  0  0  0
 31 35  1  0  0  0  0
 34 28  1  0  0  0  0
M  END
>  <minimizedAffinity>
-5.54666805

>  <minimizedRMSD>
0.240257159

$$$$
