
 OpenBabel03232520473D

 38 41  0  0  0  0  0  0  0  0999 V2000
   46.4830   34.5240   42.4420 C   0  0  0  0  0  0  0  0  0  0  0  0
   47.7930   34.8980   42.3270 C   0  0  0  0  0  0  0  0  0  0  0  0
   48.4810   34.8220   41.1150 C   0  0  0  0  0  0  0  0  0  0  0  0
   47.8200   34.3490   39.9720 C   0  0  0  0  0  0  0  0  0  0  0  0
   46.5120   33.9770   40.0890 C   0  0  0  0  0  0  0  0  0  0  0  0
   45.8570   34.0660   41.3140 C   0  0  0  0  0  0  0  0  0  0  0  0
   48.3410   35.2690   43.1860 H   0  0  0  0  0  0  0  0  0  0  0  0
   49.5130   35.1260   41.0640 H   0  0  0  0  0  0  0  0  0  0  0  0
   48.3210   34.2780   39.0170 H   0  0  0  0  0  0  0  0  0  0  0  0
   45.9700   33.6070   39.2290 H   0  0  0  0  0  0  0  0  0  0  0  0
   44.4960   33.6680   41.3930 N   0  0  0  0  0  0  0  0  0  0  0  0
   43.6800   34.6710   40.9380 C   0  0  0  0  0  0  0  0  0  0  0  0
   42.2900   34.4950   40.9260 C   0  0  0  0  0  0  0  0  0  0  0  0
   41.7890   33.2810   41.3870 C   0  0  0  0  0  0  0  0  0  0  0  0
   40.5510   33.0630   41.4010 O   0  0  0  0  0  0  0  0  0  0  0  0
   42.6360   32.3340   41.8200 N   0  0  0  0  0  0  0  0  0  0  0  0
   43.9640   32.5150   41.8270 C   0  0  0  0  0  0  0  0  0  0  0  0
   44.8260   31.6970   42.2090 O   0  0  0  0  0  0  0  0  0  0  0  0
   43.9780   35.6190   40.5730 H   0  0  0  0  0  0  0  0  0  0  0  0
   42.2930   31.4090   42.1740 H   0  0  0  0  0  0  0  0  0  0  0  0
   41.3570   35.5500   40.4440 C   0  0  0  0  0  0  0  0  0  0  0  0
   40.9130   35.3270   39.4700 H   0  0  0  0  0  0  0  0  0  0  0  0
   40.4970   35.5510   41.1660 H   0  0  0  0  0  0  0  0  0  0  0  0
   41.8220   36.5610   40.5270 H   0  0  0  0  0  0  0  0  0  0  0  0
   44.4590   35.6760   45.3940 C   0  0  0  0  0  0  0  0  0  0  0  0
   45.0080   35.6770   44.1130 C   0  0  0  0  0  0  0  0  0  0  0  0
   45.8500   34.6380   43.7400 C   0  0  0  0  0  0  0  0  0  0  0  0
   46.0960   33.6730   44.6370 N   0  0  0  0  0  0  0  0  0  0  0  0
   45.5450   33.6960   45.8830 C   0  0  0  0  0  0  0  0  0  0  0  0
   44.7330   34.6930   46.2530 N   0  0  0  0  0  0  0  0  0  0  0  0
   43.8050   36.4960   45.6620 H   0  0  0  0  0  0  0  0  0  0  0  0
   44.8080   36.4510   43.4000 H   0  0  0  0  0  0  0  0  0  0  0  0
   45.8880   32.5720   46.7970 C   0  0  0  0  0  3  0  0  0  0  0  0
   47.3320   32.5550   47.2180 C   0  0  0  0  0  2  0  0  0  0  0  0
   47.5540   31.2230   47.9060 C   0  0  0  0  0  2  0  0  0  0  0  0
   46.2940   30.7510   48.6060 C   0  0  0  0  0  2  0  0  0  0  0  0
   45.5540   31.9580   49.1380 C   0  0  0  0  0  2  0  0  0  0  0  0
   44.9490   32.6900   47.9750 C   0  0  0  0  0  2  0  0  0  0  0  0
  1 27  1  0  0  0  0
  2  1  1  0  0  0  0
  2  7  1  0  0  0  0
  3  2  2  0  0  0  0
  4  5  2  0  0  0  0
  4  3  1  0  0  0  0
  5  6  1  0  0  0  0
  6 11  1  0  0  0  0
  6  1  2  0  0  0  0
  8  3  1  0  0  0  0
  9  4  1  0  0  0  0
 10  5  1  0  0  0  0
 11 17  1  0  0  0  0
 12 11  1  0  0  0  0
 13 12  2  0  0  0  0
 13 14  1  0  0  0  0
 14 15  2  0  0  0  0
 14 16  1  0  0  0  0
 16 17  1  0  0  0  0
 16 20  1  0  0  0  0
 17 18  2  0  0  0  0
 19 12  1  0  0  0  0
 21 24  1  0  0  0  0
 21 13  1  0  0  0  0
 21 23  1  0  0  0  0
 22 21  1  0  0  0  0
 25 31  1  0  0  0  0
 25 30  1  0  0  0  0
 26 25  2  0  0  0  0
 27 26  1  0  0  0  0
 27 28  2  0  0  0  0
 28 29  1  0  0  0  0
 29 30  2  0  0  0  0
 29 33  1  0  0  0  0
 32 26  1  0  0  0  0
 33 34  1  0  0  0  0
 33 38  1  0  0  0  0
 34 35  1  0  0  0  0
 35 36  1  0  0  0  0
 36 37  1  0  0  0  0
 38 37  1  0  0  0  0
M  END
>  <minimizedAffinity>
-7.64254189

>  <minimizedRMSD>
0.585852504

$$$$
