
 OpenBabel03232518333D

 34 38  0  0  1  0  0  0  0  0999 V2000
   44.5920   35.8110   44.4890 C   0  0  0  0  0  0  0  0  0  0  0  0
   45.3860   35.4730   43.4020 C   0  0  0  0  0  0  0  0  0  0  0  0
   46.2600   34.3440   43.5240 C   0  0  0  0  0  0  0  0  0  0  0  0
   46.2570   33.6670   44.7070 N   0  0  0  0  0  0  0  0  0  0  0  0
   45.4540   34.0590   45.7210 C   0  0  0  0  0  0  0  0  0  0  0  0
   44.6220   35.1220   45.6250 N   0  0  0  0  0  0  0  0  0  0  0  0
   43.9400   36.6730   44.3640 H   0  0  0  0  0  0  0  0  0  0  0  0
   45.3700   36.0210   42.4790 H   0  0  0  0  0  0  0  0  0  0  0  0
   47.1560   33.9270   42.4010 C   0  0  2  0  0  0  0  0  0  0  0  0
   47.9870   35.1100   41.7970 C   0  0  0  0  0  0  0  0  0  0  0  0
   46.9160   34.3860   41.0320 C   0  0  1  0  0  0  0  0  0  0  0  0
   47.8230   33.0720   42.6740 H   0  0  0  0  0  0  0  0  0  0  0  0
   49.0430   34.9070   41.5570 H   0  0  0  0  0  0  0  0  0  0  0  0
   47.7700   36.1200   42.2150 H   0  0  0  0  0  0  0  0  0  0  0  0
   46.0010   34.9920   40.8670 H   0  0  0  0  0  0  0  0  0  0  0  0
   47.3010   33.5020   39.8670 C   0  0  0  0  0  0  0  0  0  0  0  0
   46.1120   33.2140   38.9500 C   0  0  0  0  0  0  0  0  0  0  0  0
   46.6800   32.2920   37.8630 C   0  0  0  0  0  0  0  0  0  0  0  0
   47.4290   33.2100   36.9320 C   0  0  0  0  0  0  0  0  0  0  0  0
   48.0510   34.3860   37.6400 C   0  0  0  0  0  0  0  0  0  0  0  0
   48.4310   34.0900   39.0620 C   0  0  0  0  0  0  0  0  0  0  0  0
   45.4950   33.1460   47.2710 S   0  0  0  0  0  0  0  0  0  0  0  0
   48.5540   29.5600   48.5540 N   0  0  0  0  0  0  0  0  0  0  0  0
   48.5590   30.6470   49.3730 C   0  0  0  0  0  0  0  0  0  0  0  0
   47.6840   31.5390   48.9030 N   0  0  0  0  0  0  0  0  0  0  0  0
   47.0960   31.0650   47.7890 C   0  0  0  0  0  0  0  0  0  0  0  0
   46.1330   31.5220   46.8820 C   0  0  0  0  0  0  0  0  0  0  0  0
   45.7700   30.7710   45.8500 N   0  0  0  0  0  0  0  0  0  0  0  0
   46.3690   29.5420   45.7110 C   0  0  0  0  0  0  0  0  0  0  0  0
   47.3160   29.0410   46.5630 N   0  0  0  0  0  0  0  0  0  0  0  0
   47.6610   29.8240   47.5950 C   0  0  0  0  0  0  0  0  0  0  0  0
   49.1440   28.6830   48.6670 H   0  0  0  0  0  0  0  0  0  0  0  0
   49.2120   30.6750   50.2390 H   0  0  0  0  0  0  0  0  0  0  0  0
   46.0070   28.9940   44.8320 H   0  0  0  0  0  0  0  0  0  0  0  0
  1  6  1  0  0  0  0
  2  3  1  0  0  0  0
  2  1  2  0  0  0  0
  3  4  2  0  0  0  0
  4  5  1  0  0  0  0
  5 22  1  0  0  0  0
  6  5  2  0  0  0  0
  7  1  1  0  0  0  0
  8  2  1  0  0  0  0
  9 12  1  1  0  0  0
  9  3  1  0  0  0  0
 10 14  1  0  0  0  0
 10  9  1  0  0  0  0
 11 15  1  6  0  0  0
 11 10  1  0  0  0  0
 11  9  1  0  0  0  0
 13 10  1  0  0  0  0
 16 11  1  0  0  0  0
 17 16  1  0  0  0  0
 18 17  1  0  0  0  0
 19 20  1  0  0  0  0
 19 18  1  0  0  0  0
 20 21  1  0  0  0  0
 21 16  1  0  0  0  0
 23 32  1  0  0  0  0
 23 24  1  0  0  0  0
 24 33  1  0  0  0  0
 25 24  2  0  0  0  0
 26 25  1  0  0  0  0
 27 22  1  0  0  0  0
 27 26  2  0  0  0  0
 28 27  1  0  0  0  0
 29 28  2  0  0  0  0
 29 30  1  0  0  0  0
 30 31  2  0  0  0  0
 31 26  1  0  0  0  0
 31 23  1  0  0  0  0
 34 29  1  0  0  0  0
M  END
>  <minimizedAffinity>
-6.26324224

>  <minimizedRMSD>
1.02495253

$$$$
