REMARK  Name = 
REMARK  2 active torsions:
REMARK  status: ('A' for Active; 'I' for Inactive)
REMARK    1  A    between atoms: C_2  and  C_7
REMARK    2  A    between atoms: C_10  and  C_24
REMARK                            x       y       z     vdW  Elec       q    Type
REMARK                         _______ _______ _______ _____ _____    ______ ____
ROOT
ATOM      1  C   UNL     1      45.946  33.900  45.274  0.00  0.00    +0.000 C 
ATOM      2  C   UNL     1      44.813  34.876  45.481  0.00  0.00    +0.000 C 
ATOM      3  C   UNL     1      44.522  35.794  44.396  0.00  0.00    +0.000 C 
ATOM      4  C   UNL     1      45.308  35.759  43.161  0.00  0.00    +0.000 C 
ATOM      5  C   UNL     1      46.468  34.827  43.129  0.00  0.00    +0.000 C 
ATOM      6  C   UNL     1      46.068  33.547  43.822  0.00  0.00    +0.000 C 
ATOM      7  H   UNL     1      46.907  34.419  45.567  0.00  0.00    +0.000 HD
ATOM      8  H   UNL     1      44.161  35.024  46.306  0.00  0.00    +0.000 HD
ATOM      9  H   UNL     1      43.733  36.501  44.495  0.00  0.00    +0.000 HD
ATOM     10  H   UNL     1      44.665  35.574  42.275  0.00  0.00    +0.000 HD
ATOM     11  H   UNL     1      46.708  34.633  42.050  0.00  0.00    +0.000 HD
ATOM     12  H   UNL     1      47.350  35.236  43.663  0.00  0.00    +0.000 HD
ATOM     13  H   UNL     1      45.080  33.242  43.426  0.00  0.00    +0.000 HD
ATOM     14  H   UNL     1      46.864  32.830  43.642  0.00  0.00    +0.000 HD
ENDROOT
BRANCH   1  16
ATOM     15  C   UNL     1      45.287  32.964  47.464  0.00  0.00    +0.000 A 
ATOM     16  C   UNL     1      45.773  32.755  46.173  0.00  0.00    +0.000 A 
ATOM     17  C   UNL     1      46.086  31.430  45.813  0.00  0.00    +0.000 A 
ATOM     18  N   UNL     1      45.908  30.431  46.716  0.00  0.00    +0.000 NA
ATOM     19  C   UNL     1      45.436  30.677  47.957  0.00  0.00    +0.000 A 
ATOM     20  N   UNL     1      45.126  31.941  48.328  0.00  0.00    +0.000 NA
ATOM     21  H   UNL     1      45.012  33.935  47.856  0.00  0.00    +0.000 HD
ATOM     22  H   UNL     1      46.462  31.231  44.828  0.00  0.00    +0.000 HD
ATOM     23  H   UNL     1      45.331  29.812  48.600  0.00  0.00    +0.000 HD
ENDBRANCH   1  16
BRANCH   4  24
ATOM     24  C   UNL     1      45.855  37.182  42.983  0.00  0.00    +0.000 C 
ATOM     25  C   UNL     1      47.182  37.372  43.641  0.00  0.00    +0.000 C 
ATOM     26  C   UNL     1      47.359  38.794  44.141  0.00  0.00    +0.000 C 
ATOM     27  C   UNL     1      46.801  39.804  43.168  0.00  0.00    +0.000 C 
ATOM     28  C   UNL     1      45.386  39.547  42.772  0.00  0.00    +0.000 C 
ATOM     29  C   UNL     1      44.880  38.236  43.389  0.00  0.00    +0.000 C 
ENDBRANCH   4  24
TORSDOF 2
