
 OpenBabel03232520163D

 31 33  0  0  0  0  0  0  0  0999 V2000
   47.3950   34.1240   42.3750 C   0  0  0  0  0  0  0  0  0  0  0  0
   48.0740   35.2690   41.7030 C   0  0  0  0  0  0  0  0  0  0  0  0
   49.4700   35.5540   42.1780 C   0  0  0  0  0  0  0  0  0  0  0  0
   50.3230   34.3600   42.4030 C   0  0  0  0  0  0  0  0  0  0  0  0
   49.5950   33.0630   42.2570 C   0  0  0  0  0  0  0  0  0  0  0  0
   48.3150   33.1470   43.0300 C   0  0  0  0  0  0  0  0  0  0  0  0
   47.4960   36.2110   41.9430 H   0  0  0  0  0  0  0  0  0  0  0  0
   48.0640   35.2430   40.5960 H   0  0  0  0  0  0  0  0  0  0  0  0
   49.4440   36.2240   43.0870 H   0  0  0  0  0  0  0  0  0  0  0  0
   49.9510   36.1830   41.3930 H   0  0  0  0  0  0  0  0  0  0  0  0
   50.7120   34.3780   43.4560 H   0  0  0  0  0  0  0  0  0  0  0  0
   51.2610   34.3460   41.7890 H   0  0  0  0  0  0  0  0  0  0  0  0
   49.5270   32.8450   41.2000 H   0  0  0  0  0  0  0  0  0  0  0  0
   50.2580   32.2820   42.7310 H   0  0  0  0  0  0  0  0  0  0  0  0
   48.5840   33.5420   44.0400 H   0  0  0  0  0  0  0  0  0  0  0  0
   47.8730   32.1410   43.1060 H   0  0  0  0  0  0  0  0  0  0  0  0
   45.2400   34.3020   45.3670 C   0  0  0  0  0  0  0  0  0  0  0  0
   44.5230   35.4910   45.2030 C   0  0  0  0  0  0  0  0  0  0  0  0
   44.7950   36.2310   44.0620 C   0  0  0  0  0  0  0  0  0  0  0  0
   45.7280   35.7480   43.2020 N   0  0  0  0  0  0  0  0  0  0  0  0
   46.4040   34.6160   43.3660 C   0  0  0  0  0  0  0  0  0  0  0  0
   46.1530   33.8960   44.4580 N   0  0  0  0  0  0  0  0  0  0  0  0
   45.1160   33.6410   46.2130 H   0  0  0  0  0  0  0  0  0  0  0  0
   43.8040   35.7690   45.9600 H   0  0  0  0  0  0  0  0  0  0  0  0
   44.2720   37.1430   43.8980 H   0  0  0  0  0  0  0  0  0  0  0  0
   46.4740   33.4520   41.3670 C   0  0  0  0  0  0  0  0  0  0  0  0
   47.2060   32.8540   40.1910 C   0  0  0  0  0  0  0  0  0  0  0  0
   46.5930   33.1950   38.8640 C   0  0  0  0  0  0  0  0  0  0  0  0
   45.1080   32.9150   38.8180 C   0  0  0  0  0  0  0  0  0  0  0  0
   44.4460   33.2720   40.1250 C   0  0  0  0  0  0  0  0  0  0  0  0
   45.3760   34.2860   40.8210 C   0  0  0  0  0  0  0  0  0  0  0  0
  1  6  1  0  0  0  0
  1 21  1  0  0  0  0
  2  7  1  0  0  0  0
  2  3  1  0  0  0  0
  2  1  1  0  0  0  0
  3  4  1  0  0  0  0
  3  9  1  0  0  0  0
  4 11  1  0  0  0  0
  5  4  1  0  0  0  0
  5 14  1  0  0  0  0
  5  6  1  0  0  0  0
  6 16  1  0  0  0  0
  6 15  1  0  0  0  0
  8  2  1  0  0  0  0
 10  3  1  0  0  0  0
 12  4  1  0  0  0  0
 13  5  1  0  0  0  0
 17 23  1  0  0  0  0
 18 17  1  0  0  0  0
 18 24  1  0  0  0  0
 19 18  2  0  0  0  0
 20 21  2  0  0  0  0
 20 19  1  0  0  0  0
 21 22  1  0  0  0  0
 22 17  2  0  0  0  0
 25 19  1  0  0  0  0
 26  1  1  0  0  0  0
 27 26  1  0  0  0  0
 28 27  1  0  0  0  0
 29 28  1  0  0  0  0
 29 30  1  0  0  0  0
 30 31  1  0  0  0  0
 31 26  1  0  0  0  0
M  END
>  <minimizedAffinity>
-5.61124086

>  <minimizedRMSD>
0.146730632

$$$$
