
     RDKit          3D

 45 47  0  0  0  0  0  0  0  0999 V2000
   46.1704   33.6377   45.3090 C   0  0  2  0  0  0  0  0  0  0  0  0
   44.9375   34.6669   45.4707 C   0  0  0  0  0  0  0  0  0  0  0  0
   44.6998   35.5771   44.3788 C   0  0  0  0  0  0  0  0  0  0  0  0
   45.5208   35.5195   43.1797 C   0  0  1  0  0  0  0  0  0  0  0  0
   46.6431   34.5785   43.1977 C   0  0  0  0  0  0  0  0  0  0  0  0
   46.2039   33.3181   43.9327 C   0  0  0  0  0  0  0  0  0  0  0  0
   45.3134   32.9246   47.5318 C   0  0  0  0  0  0  0  0  0  0  0  0
   45.9498   32.6569   46.3307 C   0  0  0  0  0  0  0  0  0  0  0  0
   46.3154   31.3110   46.0942 C   0  0  0  0  0  0  0  0  0  0  0  0
   46.0269   30.4077   47.0244 N   0  0  0  0  0  0  0  0  0  0  0  0
   45.4041   30.6882   48.1907 C   0  0  0  0  0  0  0  0  0  0  0  0
   45.0458   31.9358   48.4523 N   0  0  0  0  0  0  0  0  0  0  0  0
   45.1750   29.6103   49.1172 N   0  0  0  0  0  0  0  0  0  0  0  0
   44.5734   35.1820   41.9999 C   0  0  0  0  0  0  0  0  0  0  0  0
   43.5843   34.2838   42.3472 F   0  0  0  0  0  0  0  0  0  0  0  0
   43.9261   36.3678   41.6629 F   0  0  0  0  0  0  0  0  0  0  0  0
   45.3072   34.7860   40.8982 F   0  0  0  0  0  0  0  0  0  0  0  0
   46.8563   34.5054   45.5998 H   0  0  0  0  0  0  0  0  0  0  0  0
   44.1726   34.8929   46.2186 H   0  0  0  0  0  0  0  0  0  0  0  0
   43.9220   36.2972   44.3758 H   0  0  0  0  0  0  0  0  0  0  0  0
   45.8975   36.5427   42.9552 H   0  0  0  0  0  0  0  0  0  0  0  0
   47.5574   34.9884   43.7096 H   0  0  0  0  0  0  0  0  0  0  0  0
   46.9505   34.3228   42.1672 H   0  0  0  0  0  0  0  0  0  0  0  0
   46.7803   32.5826   43.4230 H   0  0  0  0  0  0  0  0  0  0  0  0
   45.1424   33.1628   43.5510 H   0  0  0  0  0  0  0  0  0  0  0  0
   45.0128   33.9303   47.7751 H   0  0  0  0  0  0  0  0  0  0  0  0
   45.1730   29.7852   50.1561 H   0  0  0  0  0  0  0  0  0  0  0  0
   45.0131   28.6655   48.7456 H   0  0  0  0  0  0  0  0  0  0  0  0
   46.9967   30.7119   44.9241 C   0  0  0  0  0  0  0  0  0  0  0  0
   46.3244   30.9310   43.6133 C   0  0  0  0  0  0  0  0  0  0  0  0
   47.2581   30.9216   42.4176 C   0  0  0  0  0  0  0  0  0  0  0  0
   48.3638   29.9311   42.7478 C   0  0  0  0  0  0  0  0  0  0  0  0
   49.2227   30.7038   43.7600 C   0  0  0  0  0  0  0  0  0  0  0  0
   48.3325   31.5076   44.6540 C   0  0  0  0  0  0  0  0  0  0  0  0
   47.5441   29.7837   45.1051 H   0  0  0  0  0  0  0  0  0  0  0  0
   45.9603   31.9882   43.6311 H   0  0  0  0  0  0  0  0  0  0  0  0
   45.5412   30.2131   43.3411 H   0  0  0  0  0  0  0  0  0  0  0  0
   46.7301   30.6630   41.4916 H   0  0  0  0  0  0  0  0  0  0  0  0
   47.7206   31.9108   42.2312 H   0  0  0  0  0  0  0  0  0  0  0  0
   47.9039   29.0553   43.2448 H   0  0  0  0  0  0  0  0  0  0  0  0
   48.9366   29.6276   41.8582 H   0  0  0  0  0  0  0  0  0  0  0  0
   49.9311   30.0461   44.2783 H   0  0  0  0  0  0  0  0  0  0  0  0
   49.7945   31.4194   43.1425 H   0  0  0  0  0  0  0  0  0  0  0  0
   48.1158   32.5194   44.3276 H   0  0  0  0  0  0  0  0  0  0  0  0
   48.8142   31.5621   45.6522 H   0  0  0  0  0  0  0  0  0  0  0  0
  1  2  1  0
  1  8  1  0
  3  2  2  0
  4  5  1  0
  4  3  1  0
  5  6  1  0
  6  1  1  0
  7 12  2  0
  8  7  1  0
  9  8  2  0
  9 10  1  0
 10 11  2  0
 11 12  1  0
 11 13  1  0
 14 15  1  0
 14  4  1  0
 16 14  1  0
 17 14  1  0
  1 18  1  1
  2 19  1  0
  3 20  1  0
  4 21  1  6
  5 22  1  0
  5 23  1  0
  6 24  1  0
  6 25  1  0
  7 26  1  0
 13 27  1  0
 13 28  1  0
 29 30  1  0
 30 31  1  0
 31 32  1  0
 32 33  1  0
 33 34  1  0
 34 29  1  0
 29 35  1  0
 30 36  1  0
 30 37  1  0
 31 38  1  0
 31 39  1  0
 32 40  1  0
 32 41  1  0
 33 42  1  0
 33 43  1  0
 34 44  1  0
 34 45  1  0
  9 29  1  0
M  ISO  8  18  13  19  13  20  13  21  13  22  13  23  13  24  13  25  13
M  ISO  1  26  14
M  END
>  <DihAtoms>  (1) 
7,8,28,29

>  <DihDeg>  (1) 
78.2090395120037

$$$$
