
     RDKit          3D

 49 52  0  0  0  0  0  0  0  0999 V2000
   46.4110   34.6644   42.1799 C   0  0  0  0  0  0  0  0  0  0  0  0
   47.7228   35.0223   42.0414 C   0  0  0  0  0  0  0  0  0  0  0  0
   48.4208   34.8252   40.8492 C   0  0  0  0  0  0  0  0  0  0  0  0
   47.7692   34.2434   39.7519 C   0  0  0  0  0  0  0  0  0  0  0  0
   46.4593   33.8870   39.8929 C   0  0  0  0  0  0  0  0  0  0  0  0
   45.7930   34.0980   41.0971 C   0  0  0  0  0  0  0  0  0  0  0  0
   44.4303   33.7133   41.2026 N   0  0  0  0  0  0  0  0  0  0  0  0
   43.6202   34.6796   40.6672 C   0  0  0  0  0  0  0  0  0  0  0  0
   42.2294   34.5086   40.6640 C   0  0  0  0  0  0  0  0  0  0  0  0
   41.3022   35.5255   40.0962 C   0  0  0  0  0  0  0  0  0  0  0  0
   41.7216   33.3370   41.2180 C   0  0  0  0  0  0  0  0  0  0  0  0
   40.4829   33.1258   41.2446 O   0  0  0  0  0  0  0  0  0  0  0  0
   42.5626   32.4248   41.7282 N   0  0  0  0  0  0  0  0  0  0  0  0
   43.8915   32.6005   41.7251 C   0  0  0  0  0  0  0  0  0  0  0  0
   44.7492   31.8124   42.1744 O   0  0  0  0  0  0  0  0  0  0  0  0
   44.4197   36.1426   45.0071 C   0  0  0  0  0  0  0  0  0  0  0  0
   44.9882   36.0214   43.7397 C   0  0  0  0  0  0  0  0  0  0  0  0
   45.7663   34.9075   43.4554 C   0  0  0  0  0  0  0  0  0  0  0  0
   45.9361   33.9931   44.4201 N   0  0  0  0  0  0  0  0  0  0  0  0
   45.3689   34.1370   45.6495 C   0  0  0  0  0  0  0  0  0  0  0  0
   44.6169   35.2055   45.9364 N   0  0  0  0  0  0  0  0  0  0  0  0
   48.2636   35.4747   42.8642 H   0  0  0  0  0  0  0  0  0  0  0  0
   49.4551   35.1203   40.7774 H   0  0  0  0  0  0  0  0  0  0  0  0
   48.2781   34.0757   38.8135 H   0  0  0  0  0  0  0  0  0  0  0  0
   45.9226   33.4355   39.0691 H   0  0  0  0  0  0  0  0  0  0  0  0
   43.9235   35.5953   40.2283 H   0  0  0  0  0  0  0  0  0  0  0  0
   40.8605   35.2282   39.1410 H   0  0  0  0  0  0  0  0  0  0  0  0
   40.4397   35.5880   40.8121 H   0  0  0  0  0  0  0  0  0  0  0  0
   41.7709   36.5382   40.1000 H   0  0  0  0  0  0  0  0  0  0  0  0
   42.2154   31.5315   42.1531 H   0  0  0  0  0  0  0  0  0  0  0  0
   43.8171   37.0192   45.2060 H   0  0  0  0  0  0  0  0  0  0  0  0
   44.8494   36.7552   42.9719 H   0  0  0  0  0  0  0  0  0  0  0  0
   45.6245   33.0593   46.6449 C   0  0  0  0  0  0  0  0  0  0  0  0
   44.6741   33.0751   47.8114 C   0  0  0  0  0  0  0  0  0  0  0  0
   45.2407   32.1062   48.8293 C   0  0  0  0  0  0  0  0  0  0  0  0
   45.9854   30.9726   48.1522 C   0  0  0  0  0  0  0  0  0  0  0  0
   45.2903   30.6468   46.8484 C   0  0  0  0  0  0  0  0  0  0  0  0
   45.5672   31.7583   45.8770 C   0  0  0  0  0  0  0  0  0  0  0  0
   46.6544   33.1195   47.0550 H   0  0  0  0  0  0  0  0  0  0  0  0
   44.7220   34.0868   48.2644 H   0  0  0  0  0  0  0  0  0  0  0  0
   43.6473   32.7639   47.5491 H   0  0  0  0  0  0  0  0  0  0  0  0
   44.4517   31.7294   49.5167 H   0  0  0  0  0  0  0  0  0  0  0  0
   45.9899   32.6446   49.4460 H   0  0  0  0  0  0  0  0  0  0  0  0
   47.0258   31.2686   47.9034 H   0  0  0  0  0  0  0  0  0  0  0  0
   46.0645   30.1015   48.8356 H   0  0  0  0  0  0  0  0  0  0  0  0
   44.2051   30.5019   46.9543 H   0  0  0  0  0  0  0  0  0  0  0  0
   45.7490   29.7218   46.4385 H   0  0  0  0  0  0  0  0  0  0  0  0
   46.5085   31.5583   45.3272 H   0  0  0  0  0  0  0  0  0  0  0  0
   44.7368   31.7478   45.1379 H   0  0  0  0  0  0  0  0  0  0  0  0
  1 18  1  0
  2  1  2  0
  3  2  1  0
  4  5  1  0
  4  3  2  0
  5  6  2  0
  6  7  1  0
  6  1  1  0
  7 14  1  0
  8  7  1  0
  9  8  2  0
  9 11  1  0
 10  9  1  0
 11 12  2  0
 11 13  1  0
 14 13  1  0
 14 15  2  0
 16 21  2  0
 17 16  1  0
 18 17  2  0
 18 19  1  0
 19 20  2  0
 20 21  1  0
  2 22  1  0
  3 23  1  0
  4 24  1  0
  5 25  1  0
  8 26  1  0
 10 27  1  0
 10 28  1  0
 10 29  1  0
 13 30  1  0
 16 31  1  0
 17 32  1  0
 33 34  1  0
 34 35  1  0
 35 36  1  0
 36 37  1  0
 37 38  1  0
 38 33  1  0
 33 39  1  0
 34 40  1  0
 34 41  1  0
 35 42  1  0
 35 43  1  0
 36 44  1  0
 36 45  1  0
 37 46  1  0
 37 47  1  0
 38 48  1  0
 38 49  1  0
 20 33  1  0
M  ISO  8  22  14  23  14  24  14  25  14  26  14  27   8  28   8  29   8
M  ISO  3  30   9  31  14  32  14
M  END
>  <DihAtoms>  (1) 
18,19,32,33

>  <DihDeg>  (1) 
-58.37977423573717

$$$$
