
 OpenBabel03232519463D

 44 47  0  0  0  0  0  0  0  0999 V2000
   46.6030   34.3820   41.9980 N   0  0  0  0  0  0  0  0  0  0  0  0
   47.7150   35.1710   41.8740 C   0  0  0  0  0  0  0  0  0  0  0  0
   48.4160   35.2190   40.7070 C   0  0  0  0  0  0  0  0  0  0  0  0
   47.9680   34.4360   39.6400 C   0  0  0  0  0  0  0  0  0  0  0  0
   48.5950   34.4700   38.5650 O   0  0  0  0  0  0  0  0  0  0  0  0
   46.8720   33.6810   39.8270 N   0  0  0  0  0  0  0  0  0  0  0  0
   46.1980   33.6540   40.9840 C   0  0  0  0  0  0  0  0  0  0  0  0
   45.2020   33.0020   41.2120 O   0  0  0  0  0  0  0  0  0  0  0  0
   48.1180   35.8010   42.6570 H   0  0  0  0  0  0  0  0  0  0  0  0
   49.3030   35.8270   40.5510 H   0  0  0  0  0  0  0  0  0  0  0  0
   46.3810   32.8610   38.7890 C   0  0  0  0  0  0  0  0  0  0  0  0
   45.4140   33.2610   37.8860 C   0  0  0  0  0  0  0  0  0  0  0  0
   44.9860   32.4020   36.8990 C   0  0  0  0  0  0  0  0  0  0  0  0
   45.5100   31.1290   36.7890 C   0  0  0  0  0  0  0  0  0  0  0  0
   46.4590   30.7640   37.6890 C   0  0  0  0  0  0  0  0  0  0  0  0
   46.9410   31.5880   38.7200 C   0  0  0  0  0  0  0  0  0  0  0  0
   45.0010   34.2730   37.9780 H   0  0  0  0  0  0  0  0  0  0  0  0
   44.2270   32.7200   36.1930 H   0  0  0  0  0  0  0  0  0  0  0  0
   45.1670   30.4630   36.0100 H   0  0  0  0  0  0  0  0  0  0  0  0
   46.8480   29.7490   37.5680 H   0  0  0  0  0  0  0  0  0  0  0  0
   47.9880   31.0870   39.6530 C   0  0  0  0  0  0  0  0  0  0  0  0
   48.1630   30.0170   39.3120 H   0  0  0  0  0  0  0  0  0  0  0  0
   49.2850   31.8130   39.6010 C   0  0  0  0  0  0  0  0  0  0  0  0
   49.6940   32.0570   38.6310 H   0  0  0  0  0  0  0  0  0  0  0  0
   50.0360   30.9480   39.8230 H   0  0  0  0  0  0  0  0  0  0  0  0
   49.5990   32.3780   40.4930 H   0  0  0  0  0  0  0  0  0  0  0  0
   47.5550   31.0600   41.0850 C   0  0  0  0  0  0  0  0  0  0  0  0
   46.5620   30.7210   41.3080 H   0  0  0  0  0  0  0  0  0  0  0  0
   48.0740   31.7580   41.7660 H   0  0  0  0  0  0  0  0  0  0  0  0
   48.1160   30.1260   41.4900 H   0  0  0  0  0  0  0  0  0  0  0  0
   44.5350   35.6250   44.8090 C   0  0  0  0  0  0  0  0  0  0  0  0
   45.0860   35.5140   43.5090 C   0  0  0  0  0  0  0  0  0  0  0  0
   46.0370   34.5030   43.3260 C   0  0  0  0  0  0  0  0  0  0  0  0
   46.3980   33.6870   44.3490 N   0  0  0  0  0  0  0  0  0  0  0  0
   45.8260   33.8530   45.5770 C   0  0  0  0  0  0  0  0  0  0  0  0
   44.9200   34.7920   45.8070 N   0  0  0  0  0  0  0  0  0  0  0  0
   43.7950   36.3980   44.9850 H   0  0  0  0  0  0  0  0  0  0  0  0
   44.7640   36.1850   42.7400 H   0  0  0  0  0  0  0  0  0  0  0  0
   46.2800   32.9120   46.6470 C   0  0  0  0  0  0  0  0  0  0  0  0
   46.7460   31.5880   46.0960 C   0  0  0  0  0  0  0  0  0  0  0  0
   47.0120   30.6760   47.2560 C   0  0  0  0  0  0  0  0  0  0  0  0
   47.2200   31.4070   48.5660 C   0  0  0  0  0  0  0  0  0  0  0  0
   45.9630   32.1720   48.9460 C   0  0  0  0  0  0  0  0  0  0  0  0
   45.2340   32.6560   47.6910 C   0  0  0  0  0  0  0  0  0  0  0  0
  1 33  1  0  0  0  0
  2  1  1  0  0  0  0
  2  9  1  0  0  0  0
  3  2  2  0  0  0  0
  4  6  1  0  0  0  0
  4  3  1  0  0  0  0
  5  4  2  0  0  0  0
  6  7  1  0  0  0  0
  7  8  2  0  0  0  0
  7  1  1  0  0  0  0
 10  3  1  0  0  0  0
 11  6  1  0  0  0  0
 12 17  1  0  0  0  0
 12 11  2  0  0  0  0
 13 12  1  0  0  0  0
 14 13  2  0  0  0  0
 14 15  1  0  0  0  0
 15 16  2  0  0  0  0
 16 11  1  0  0  0  0
 16 21  1  0  0  0  0
 18 13  1  0  0  0  0
 19 14  1  0  0  0  0
 20 15  1  0  0  0  0
 21 27  1  0  0  0  0
 22 21  1  0  0  0  0
 23 21  1  0  0  0  0
 23 25  1  0  0  0  0
 23 26  1  0  0  0  0
 24 23  1  0  0  0  0
 27 28  1  0  0  0  0
 27 30  1  0  0  0  0
 27 29  1  0  0  0  0
 31 37  1  0  0  0  0
 31 36  1  0  0  0  0
 32 31  2  0  0  0  0
 33 32  1  0  0  0  0
 33 34  2  0  0  0  0
 34 35  1  0  0  0  0
 35 36  2  0  0  0  0
 35 39  1  0  0  0  0
 38 32  1  0  0  0  0
 39 44  1  0  0  0  0
 40 39  1  0  0  0  0
 40 41  1  0  0  0  0
 41 42  1  0  0  0  0
 42 43  1  0  0  0  0
 44 43  1  0  0  0  0
M  END
>  <minimizedAffinity>
-6.71787071

>  <minimizedRMSD>
0.276346475

$$$$
