
 OpenBabel03232518523D

 31 33  0  0  0  0  0  0  0  0999 V2000
   44.7210   35.4200   45.0290 C   0  0  0  0  0  0  0  0  0  0  0  0
   45.5420   34.9010   44.0360 C   0  0  0  0  0  0  0  0  0  0  0  0
   46.2150   33.7340   44.3330 C   0  0  0  0  0  0  0  0  0  0  0  0
   46.0470   33.1560   45.5580 N   0  0  0  0  0  0  0  0  0  0  0  0
   45.2620   33.6650   46.4910 C   0  0  0  0  0  0  0  0  0  0  0  0
   44.6170   34.7820   46.2070 N   0  0  0  0  0  0  0  0  0  0  0  0
   44.1990   36.3260   44.8010 H   0  0  0  0  0  0  0  0  0  0  0  0
   45.6980   35.5490   42.7280 C   0  0  0  0  0  0  0  0  0  0  0  0
   44.9000   36.7010   42.7450 F   0  0  0  0  0  0  0  0  0  0  0  0
   45.1370   34.7850   41.7240 F   0  0  0  0  0  0  0  0  0  0  0  0
   46.9860   35.8720   42.4240 F   0  0  0  0  0  0  0  0  0  0  0  0
   47.0990   33.0320   43.4720 C   0  0  0  0  0  0  0  0  0  0  0  0
   46.9490   31.8570   43.0380 O   0  0  0  0  0  0  0  0  0  0  0  0
   48.3000   33.1920   42.8040 O   0  0  0  0  0  0  0  0  0  0  0  0
   48.5150   32.9670   41.4810 C   0  0  0  0  0  0  0  0  0  0  0  0
   47.6990   33.5220   40.3560 C   0  0  0  0  0  0  0  0  0  0  0  0
   48.5430   32.8130   38.9230 S   0  0  0  0  0  0  0  0  0  0  0  0
   49.8170   31.9160   39.9910 C   0  0  0  0  0  0  0  0  0  0  0  0
   49.5180   32.1990   41.1130 N   0  0  0  0  0  0  0  0  0  0  0  0
   46.7600   34.2320   40.2650 H   0  0  0  0  0  0  0  0  0  0  0  0
   50.8640   31.1000   39.3160 C   0  0  0  0  0  0  0  0  0  0  0  0
   52.1830   31.1680   40.0470 C   0  0  0  0  0  0  0  0  0  0  0  0
   53.3440   31.3750   39.1070 C   0  0  0  0  0  0  0  0  0  0  0  0
   53.1710   30.4660   37.9080 C   0  0  0  0  0  0  0  0  0  0  0  0
   51.9080   30.7560   37.1400 C   0  0  0  0  0  0  0  0  0  0  0  0
   51.0670   31.7070   37.9700 C   0  0  0  0  0  0  0  0  0  0  0  0
   45.0550   33.1290   47.7390 O   0  0  0  0  0  0  0  0  0  0  0  0
   45.8840   32.1420   48.3010 C   0  0  0  0  0  0  0  0  0  0  0  0
   47.2020   32.5900   48.3420 F   0  0  0  0  0  0  0  0  0  0  0  0
   45.7600   30.9190   47.7110 F   0  0  0  0  0  0  0  0  0  0  0  0
   45.5190   32.0510   49.6580 F   0  0  0  0  0  0  0  0  0  0  0  0
  1  6  1  0  0  0  0
  2  3  1  0  0  0  0
  2  1  2  0  0  0  0
  3  4  2  0  0  0  0
  4  5  1  0  0  0  0
  5 27  1  0  0  0  0
  6  5  2  0  0  0  0
  7  1  1  0  0  0  0
  8  9  1  0  0  0  0
  8  2  1  0  0  0  0
 10  8  1  0  0  0  0
 11  8  1  0  0  0  0
 12  3  1  0  0  0  0
 13 12  2  0  0  0  0
 14 12  1  0  0  0  0
 15 14  1  0  0  0  0
 16 15  2  0  0  0  0
 17 18  1  0  0  0  0
 17 16  1  0  0  0  0
 18 19  2  0  0  0  0
 19 15  1  0  0  0  0
 20 16  1  0  0  0  0
 21 18  1  0  0  0  0
 21 22  1  0  0  0  0
 23 22  1  0  0  0  0
 24 23  1  0  0  0  0
 25 24  1  0  0  0  0
 25 26  1  0  0  0  0
 26 21  1  0  0  0  0
 27 28  1  0  0  0  0
 28 29  1  0  0  0  0
 28 31  1  0  0  0  0
 30 28  1  0  0  0  0
M  END
>  <minimizedAffinity>
-5.92654514

>  <minimizedRMSD>
0.647544086

$$$$
