
 OpenBabel03232520543D

 32 34  0  0  1  0  0  0  0  0999 V2000
   46.5320   33.9470   44.4150 C   0  0  2  0  0  0  0  0  0  0  0  0
   45.2110   34.5150   44.8900 C   0  0  0  0  0  0  0  0  0  0  0  0
   44.4710   35.3310   43.9610 C   0  0  0  0  0  0  0  0  0  0  0  0
   44.9790   35.5910   42.6270 C   0  0  1  0  0  0  0  0  0  0  0  0
   46.3070   35.0450   42.2910 C   0  0  0  0  0  0  0  0  0  0  0  0
   46.5080   33.7120   42.9470 C   0  0  0  0  0  0  0  0  0  0  0  0
   47.2930   34.7540   44.6290 H   0  0  0  0  0  0  0  0  0  0  0  0
   44.6310   34.4700   45.8010 H   0  0  0  0  0  0  0  0  0  0  0  0
   43.5360   35.7720   44.2040 H   0  0  0  0  0  0  0  0  0  0  0  0
   44.9940   36.6990   42.4740 H   0  0  0  0  0  0  0  0  0  0  0  0
   46.3980   34.9970   41.1860 H   0  0  0  0  0  0  0  0  0  0  0  0
   47.0780   35.7580   42.6900 H   0  0  0  0  0  0  0  0  0  0  0  0
   45.6370   33.0750   42.6870 H   0  0  0  0  0  0  0  0  0  0  0  0
   47.4630   33.2840   42.6250 H   0  0  0  0  0  0  0  0  0  0  0  0
   47.3740   31.6560   44.6430 C   0  0  0  0  0  0  0  0  0  0  0  0
   46.8990   32.8080   45.2390 C   0  0  0  0  0  0  0  0  0  0  0  0
   46.7960   32.7880   46.6280 C   0  0  0  0  0  0  0  0  0  0  0  0
   47.1410   31.7020   47.3480 N   0  0  0  0  0  0  0  0  0  0  0  0
   47.6050   30.5810   46.7260 C   0  0  0  0  0  0  0  0  0  0  0  0
   47.7180   30.5660   45.3740 N   0  0  0  0  0  0  0  0  0  0  0  0
   47.5140   31.4980   43.5840 H   0  0  0  0  0  0  0  0  0  0  0  0
   46.4380   33.6430   47.1530 H   0  0  0  0  0  0  0  0  0  0  0  0
   47.9780   29.3990   47.5320 C   0  0  0  0  0  0  0  0  0  0  0  0
   48.9580   29.7360   48.6280 C   0  0  0  0  0  0  0  0  0  0  0  0
   50.0740   28.7170   48.7160 C   0  0  0  0  0  0  0  0  0  0  0  0
   49.4250   27.3310   48.7370 C   0  0  0  0  0  0  0  0  0  0  0  0
   48.8670   27.0780   47.3690 C   0  0  0  0  0  0  0  0  0  0  0  0
   48.5100   28.3250   46.6110 C   0  0  0  0  0  0  0  0  0  0  0  0
   43.9430   35.0700   41.6220 C   0  0  0  0  0  0  0  0  0  0  0  0
   43.2060   34.0130   42.1190 F   0  0  0  0  0  0  0  0  0  0  0  0
   43.0380   36.1000   41.3780 F   0  0  0  0  0  0  0  0  0  0  0  0
   44.5490   34.7620   40.4210 F   0  0  0  0  0  0  0  0  0  0  0  0
  1  7  1  1  0  0  0
  1  2  1  0  0  0  0
  1 16  1  0  0  0  0
  2  8  1  0  0  0  0
  3  9  1  0  0  0  0
  3  2  2  0  0  0  0
  4 10  1  6  0  0  0
  4  3  1  0  0  0  0
  5  4  1  0  0  0  0
  5 12  1  0  0  0  0
  5  6  1  0  0  0  0
  6  1  1  0  0  0  0
 11  5  1  0  0  0  0
 13  6  1  0  0  0  0
 14  6  1  0  0  0  0
 15 16  2  0  0  0  0
 15 20  1  0  0  0  0
 16 17  1  0  0  0  0
 17 22  1  0  0  0  0
 17 18  2  0  0  0  0
 19 18  1  0  0  0  0
 19 23  1  0  0  0  0
 20 19  2  0  0  0  0
 21 15  1  0  0  0  0
 23 24  1  0  0  0  0
 24 25  1  0  0  0  0
 25 26  1  0  0  0  0
 27 26  1  0  0  0  0
 28 27  1  0  0  0  0
 28 23  1  0  0  0  0
 29 30  1  0  0  0  0
 29  4  1  0  0  0  0
 31 29  1  0  0  0  0
 32 29  1  0  0  0  0
M  END
>  <minimizedAffinity>
-5.08966064

>  <minimizedRMSD>
2.75201464

$$$$
