REMARK  Name = 
REMARK  3 active torsions:
REMARK  status: ('A' for Active; 'I' for Inactive)
REMARK    1  A    between atoms: C_1  and  C_8
REMARK    2  A    between atoms: C_4  and  C_14
REMARK    3  A    between atoms: C_9  and  C_29
REMARK                            x       y       z     vdW  Elec       q    Type
REMARK                         _______ _______ _______ _____ _____    ______ ____
ROOT
ATOM      1  C   UNL     1      46.170  33.638  45.309  0.00  0.00    +0.000 C 
ATOM      2  C   UNL     1      44.938  34.667  45.471  0.00  0.00    +0.000 C 
ATOM      3  C   UNL     1      44.700  35.577  44.379  0.00  0.00    +0.000 C 
ATOM      4  C   UNL     1      45.521  35.520  43.180  0.00  0.00    +0.000 C 
ATOM      5  C   UNL     1      46.643  34.578  43.198  0.00  0.00    +0.000 C 
ATOM      6  C   UNL     1      46.204  33.318  43.933  0.00  0.00    +0.000 C 
ATOM      7  H   UNL     1      46.856  34.505  45.600  0.00  0.00    +0.000 HD
ATOM      8  H   UNL     1      44.173  34.893  46.219  0.00  0.00    +0.000 HD
ATOM      9  H   UNL     1      43.922  36.297  44.376  0.00  0.00    +0.000 HD
ATOM     10  H   UNL     1      45.898  36.543  42.955  0.00  0.00    +0.000 HD
ATOM     11  H   UNL     1      47.557  34.988  43.710  0.00  0.00    +0.000 HD
ATOM     12  H   UNL     1      46.950  34.323  42.167  0.00  0.00    +0.000 HD
ATOM     13  H   UNL     1      46.780  32.583  43.423  0.00  0.00    +0.000 HD
ATOM     14  H   UNL     1      45.142  33.163  43.551  0.00  0.00    +0.000 HD
ENDROOT
BRANCH   1  16
ATOM     15  C   UNL     1      45.313  32.925  47.532  0.00  0.00    +0.000 A 
ATOM     16  C   UNL     1      45.950  32.657  46.331  0.00  0.00    +0.000 A 
ATOM     17  C   UNL     1      46.315  31.311  46.094  0.00  0.00    +0.000 A 
ATOM     18  N   UNL     1      46.027  30.408  47.024  0.00  0.00    +0.000 NA
ATOM     19  C   UNL     1      45.404  30.688  48.191  0.00  0.00    +0.000 A 
ATOM     20  N   UNL     1      45.046  31.936  48.452  0.00  0.00    +0.000 NA
ATOM     21  N   UNL     1      45.175  29.610  49.117  0.00  0.00    +0.000 N 
ATOM     22  H   UNL     1      45.013  33.930  47.775  0.00  0.00    +0.000 HD
ATOM     23  H   UNL     1      45.173  29.785  50.156  0.00  0.00    +0.000 HD
ATOM     24  H   UNL     1      45.013  28.666  48.746  0.00  0.00    +0.000 HD
BRANCH  17  25
ATOM     25  C   UNL     1      46.997  30.712  44.924  0.00  0.00    +0.000 C 
ATOM     26  C   UNL     1      48.041  29.699  45.243  0.00  0.00    +0.000 C 
ATOM     27  C   UNL     1      48.263  28.660  44.160  0.00  0.00    +0.000 C 
ATOM     28  C   UNL     1      48.019  29.367  42.836  0.00  0.00    +0.000 C 
ATOM     29  C   UNL     1      46.488  29.487  42.791  0.00  0.00    +0.000 C 
ATOM     30  C   UNL     1      45.973  29.782  44.164  0.00  0.00    +0.000 C 
ENDBRANCH  17  25
ENDBRANCH   1  16
BRANCH   4  31
ATOM     31  C   UNL     1      44.573  35.182  42.000  0.00  0.00    +0.000 C 
ATOM     32  F   UNL     1      43.584  34.284  42.347  0.00  0.00    +0.000 F 
ATOM     33  F   UNL     1      43.926  36.368  41.663  0.00  0.00    +0.000 F 
ATOM     34  F   UNL     1      45.307  34.786  40.898  0.00  0.00    +0.000 F 
ENDBRANCH   4  31
TORSDOF 3
