
 OpenBabel03232520513D

 28 30  0  0  1  0  0  0  0  0999 V2000
   46.0510   33.9580   45.1440 C   0  0  2  0  0  0  0  0  0  0  0  0
   44.9340   34.9630   45.3180 C   0  0  0  0  0  0  0  0  0  0  0  0
   44.6750   35.8760   44.2090 C   0  0  0  0  0  0  0  0  0  0  0  0
   45.4720   35.7910   42.9930 C   0  0  1  0  0  0  0  0  0  0  0  0
   46.6470   34.9100   43.0200 C   0  0  0  0  0  0  0  0  0  0  0  0
   46.2730   33.6190   43.7050 C   0  0  0  0  0  0  0  0  0  0  0  0
   46.9460   34.5220   45.5380 H   0  0  0  0  0  0  0  0  0  0  0  0
   44.2790   35.1250   46.1390 H   0  0  0  0  0  0  0  0  0  0  0  0
   43.8980   36.5890   44.3090 H   0  0  0  0  0  0  0  0  0  0  0  0
   45.8220   36.8330   42.7630 H   0  0  0  0  0  0  0  0  0  0  0  0
   46.9820   34.6830   41.9900 H   0  0  0  0  0  0  0  0  0  0  0  0
   47.4540   35.4230   43.5860 H   0  0  0  0  0  0  0  0  0  0  0  0
   45.3640   33.1860   43.2740 H   0  0  0  0  0  0  0  0  0  0  0  0
   47.1490   32.9450   43.6530 H   0  0  0  0  0  0  0  0  0  0  0  0
   45.3170   33.0160   47.2990 C   0  0  0  0  0  0  0  0  0  0  0  0
   45.8030   32.7970   46.0100 C   0  0  0  0  0  0  0  0  0  0  0  0
   46.0510   31.4560   45.6060 C   0  0  0  0  0  0  0  0  0  0  0  0
   45.8010   30.4680   46.5010 N   0  0  0  0  0  0  0  0  0  0  0  0
   45.3280   30.7120   47.7490 C   0  0  0  0  0  0  0  0  0  0  0  0
   45.0870   31.9830   48.1460 N   0  0  0  0  0  0  0  0  0  0  0  0
   45.0920   33.9870   47.7190 H   0  0  0  0  0  0  0  0  0  0  0  0
   46.4200   31.2830   44.6260 H   0  0  0  0  0  0  0  0  0  0  0  0
   45.1830   29.8130   48.3340 H   0  0  0  0  0  0  0  0  0  0  0  0
   44.5000   35.4550   41.8760 C   0  0  0  0  0  3  0  0  0  0  0  0
   43.2350   34.8120   42.3390 C   0  0  0  0  0  2  0  0  0  0  0  0
   42.7370   34.1900   41.0350 C   0  0  0  0  0  2  0  0  0  0  0  0
   43.9910   33.7290   40.3040 C   0  0  0  0  0  2  0  0  0  0  0  0
   45.1490   34.4080   41.0090 C   0  0  0  0  0  2  0  0  0  0  0  0
  1  2  1  0  0  0  0
  1  7  1  1  0  0  0
  1 16  1  0  0  0  0
  2  8  1  0  0  0  0
  3  9  1  0  0  0  0
  3  2  2  0  0  0  0
  4 10  1  6  0  0  0
  4  5  1  0  0  0  0
  4  3  1  0  0  0  0
  5 12  1  0  0  0  0
  5  6  1  0  0  0  0
  6  1  1  0  0  0  0
 11  5  1  0  0  0  0
 13  6  1  0  0  0  0
 14  6  1  0  0  0  0
 15 21  1  0  0  0  0
 15 20  1  0  0  0  0
 16 15  2  0  0  0  0
 17 16  1  0  0  0  0
 17 18  2  0  0  0  0
 18 19  1  0  0  0  0
 19 20  2  0  0  0  0
 19 23  1  0  0  0  0
 22 17  1  0  0  0  0
 24 25  1  0  0  0  0
 24  4  1  0  0  0  0
 26 25  1  0  0  0  0
 27 28  1  0  0  0  0
 27 26  1  0  0  0  0
 28 24  1  0  0  0  0
M  END
>  <minimizedAffinity>
-4.96228123

>  <minimizedRMSD>
0.323757797

$$$$
