
 OpenBabel03232519303D

 36 38  0  0  1  0  0  0  0  0999 V2000
   47.2130   34.2120   40.1730 C   0  0  1  0  0  0  0  0  0  0  0  0
   48.2120   34.3350   39.0240 C   0  0  0  0  0  0  0  0  0  0  0  0
   47.5400   33.7810   37.7920 C   0  0  0  0  0  0  0  0  0  0  0  0
   47.3990   32.2890   37.9600 C   0  0  0  0  0  0  0  0  0  0  0  0
   47.5650   31.8890   39.3960 C   0  0  0  0  0  0  0  0  0  0  0  0
   46.7730   32.8160   40.3570 C   0  0  2  0  0  0  0  0  0  0  0  0
   46.4040   34.9210   39.8870 H   0  0  0  0  0  0  0  0  0  0  0  0
   48.3610   35.4530   38.9020 H   0  0  0  0  0  0  0  0  0  0  0  0
   49.1970   33.9310   39.2440 H   0  0  0  0  0  0  0  0  0  0  0  0
   46.6100   34.3180   37.6230 H   0  0  0  0  0  0  0  0  0  0  0  0
   48.2430   34.0250   36.9470 H   0  0  0  0  0  0  0  0  0  0  0  0
   46.5360   31.8490   37.4440 H   0  0  0  0  0  0  0  0  0  0  0  0
   48.2880   31.8340   37.4270 H   0  0  0  0  0  0  0  0  0  0  0  0
   47.3780   30.8390   39.5660 H   0  0  0  0  0  0  0  0  0  0  0  0
   48.6540   32.0310   39.6700 H   0  0  0  0  0  0  0  0  0  0  0  0
   47.0750   32.3170   41.3140 H   0  0  0  0  0  0  0  0  0  0  0  0
   45.3630   32.5390   39.9350 C   0  0  0  0  0  0  0  0  0  0  0  0
   44.6100   31.5430   40.7260 C   0  0  0  0  0  0  0  0  0  0  0  0
   43.9890   32.3470   41.8530 C   0  0  0  0  0  0  0  0  0  0  0  0
   43.5320   33.5890   41.1040 C   0  0  0  0  0  0  0  0  0  0  0  0
   44.3990   33.6640   39.8540 C   0  0  0  0  0  0  0  0  0  0  0  0
   47.8520   34.8200   41.4320 C   0  0  0  0  0  0  0  0  0  0  0  0
   48.9680   34.6710   41.2240 H   0  0  0  0  0  0  0  0  0  0  0  0
   47.7390   35.8870   41.5090 H   0  0  0  0  0  0  0  0  0  0  0  0
   47.5390   33.9610   42.5890 C   0  0  0  0  0  0  0  0  0  0  0  0
   47.1260   32.9580   42.4190 H   0  0  0  0  0  0  0  0  0  0  0  0
   48.4340   33.7790   43.2580 H   0  0  0  0  0  0  0  0  0  0  0  0
   46.1620   33.9120   44.5970 C   0  0  0  0  0  0  0  0  0  0  0  0
   46.4920   34.5730   43.3950 C   0  0  0  0  0  0  0  0  0  0  0  0
   45.8250   35.7150   43.0270 C   0  0  0  0  0  0  0  0  0  0  0  0
   44.8570   36.1560   43.8710 N   0  0  0  0  0  0  0  0  0  0  0  0
   44.5300   35.5320   45.0290 C   0  0  0  0  0  0  0  0  0  0  0  0
   45.1910   34.4030   45.3860 N   0  0  0  0  0  0  0  0  0  0  0  0
   46.6850   33.0130   44.8870 H   0  0  0  0  0  0  0  0  0  0  0  0
   45.9810   36.2980   42.1370 H   0  0  0  0  0  0  0  0  0  0  0  0
   43.7480   35.9250   45.6700 H   0  0  0  0  0  0  0  0  0  0  0  0
  1  7  1  6  0  0  0
  1  6  1  0  0  0  0
  1 22  1  0  0  0  0
  2  9  1  0  0  0  0
  2  1  1  0  0  0  0
  3  4  1  0  0  0  0
  3  2  1  0  0  0  0
  4  5  1  0  0  0  0
  5 14  1  0  0  0  0
  5 15  1  0  0  0  0
  5  6  1  0  0  0  0
  6 16  1  1  0  0  0
  8  2  1  0  0  0  0
 10  3  1  0  0  0  0
 11  3  1  0  0  0  0
 12  4  1  0  0  0  0
 13  4  1  0  0  0  0
 17  6  1  0  0  0  0
 17 18  1  0  0  0  0
 18 19  1  0  0  0  0
 20 19  1  0  0  0  0
 21 17  1  0  0  0  0
 21 20  1  0  0  0  0
 22 24  1  0  0  0  0
 22 25  1  0  0  0  0
 23 22  1  0  0  0  0
 25 27  1  0  0  0  0
 25 29  1  0  0  0  0
 26 25  1  0  0  0  0
 28 34  1  0  0  0  0
 28 33  1  0  0  0  0
 29 28  2  0  0  0  0
 30 29  1  0  0  0  0
 30 31  2  0  0  0  0
 31 32  1  0  0  0  0
 32 33  2  0  0  0  0
 32 36  1  0  0  0  0
 35 30  1  0  0  0  0
M  END
>  <minimizedAffinity>
-4.47434378

>  <minimizedRMSD>
2.00114679

$$$$
