
 OpenBabel03232519203D

 29 31  0  0  1  0  0  0  0  0999 V2000
   46.4220   32.7200   47.7810 N   0  0  0  0  0  0  0  0  0  0  0  0
   46.0080   32.2950   49.1000 C   0  0  0  0  0  0  0  0  0  0  0  0
   44.8400   31.3940   48.7460 C   0  0  0  0  0  0  0  0  0  0  0  0
   45.3050   30.6240   47.5580 C   0  0  0  0  0  0  0  0  0  0  0  0
   46.2780   31.6560   46.9010 C   0  0  2  0  0  0  0  0  0  0  0  0
   47.2920   33.2620   47.7680 H   0  0  0  0  0  0  0  0  0  0  0  0
   46.7710   31.8040   49.6980 H   0  0  0  0  0  0  0  0  0  0  0  0
   45.5870   33.1510   49.6790 H   0  0  0  0  0  0  0  0  0  0  0  0
   43.9980   32.0890   48.4910 H   0  0  0  0  0  0  0  0  0  0  0  0
   44.5730   30.7450   49.6080 H   0  0  0  0  0  0  0  0  0  0  0  0
   45.8120   29.7230   47.8790 H   0  0  0  0  0  0  0  0  0  0  0  0
   44.5080   30.3920   46.8350 H   0  0  0  0  0  0  0  0  0  0  0  0
   47.5070   30.8060   46.6040 C   0  0  0  0  0  0  0  0  0  0  0  0
   47.4830   30.0150   45.3660 C   0  0  0  0  0  0  0  0  0  0  0  0
   48.7630   29.1720   45.5560 C   0  0  0  0  0  0  0  0  0  0  0  0
   48.9600   29.0790   47.0550 C   0  0  0  0  0  0  0  0  0  0  0  0
   47.7070   29.7150   47.6310 C   0  0  0  0  0  0  0  0  0  0  0  0
   45.9000   32.0590   45.6460 O   0  0  0  0  0  0  0  0  0  0  0  0
   45.8230   33.4340   45.2390 C   0  0  0  0  0  0  0  0  0  0  0  0
   45.0970   34.2140   45.8800 O   0  0  0  0  0  0  0  0  0  0  0  0
   48.5510   33.6370   42.8310 C   0  0  0  0  0  0  0  0  0  0  0  0
   48.1530   34.6640   41.9560 C   0  0  0  0  0  0  0  0  0  0  0  0
   46.9220   35.2730   42.1980 C   0  0  0  0  0  0  0  0  0  0  0  0
   46.1820   34.8340   43.2680 N   0  0  0  0  0  0  0  0  0  0  0  0
   46.6330   33.8290   44.0800 C   0  0  0  0  0  0  0  0  0  0  0  0
   47.7910   33.2420   43.8670 N   0  0  0  0  0  0  0  0  0  0  0  0
   49.5080   33.1720   42.6350 H   0  0  0  0  0  0  0  0  0  0  0  0
   48.7450   34.9970   41.1220 H   0  0  0  0  0  0  0  0  0  0  0  0
   46.5120   36.0640   41.6020 H   0  0  0  0  0  0  0  0  0  0  0  0
  1  2  1  0  0  0  0
  2  8  1  0  0  0  0
  2  7  1  0  0  0  0
  3  2  1  0  0  0  0
  3 10  1  0  0  0  0
  4 11  1  0  0  0  0
  4  3  1  0  0  0  0
  5 18  1  6  0  0  0
  5  4  1  0  0  0  0
  5  1  1  0  0  0  0
  6  1  1  0  0  0  0
  9  3  1  0  0  0  0
 12  4  1  0  0  0  0
 13  5  1  0  0  0  0
 13 17  1  0  0  0  0
 14 15  1  0  0  0  0
 14 13  1  0  0  0  0
 15 16  1  0  0  0  0
 16 17  1  0  0  0  0
 19 18  1  0  0  0  0
 19 20  2  0  0  0  0
 21 26  1  0  0  0  0
 22 23  1  0  0  0  0
 22 21  2  0  0  0  0
 23 24  2  0  0  0  0
 24 25  1  0  0  0  0
 25 19  1  0  0  0  0
 26 25  2  0  0  0  0
 27 21  1  0  0  0  0
 28 22  1  0  0  0  0
 29 23  1  0  0  0  0
M  END
>  <minimizedAffinity>
-4.77477503

>  <minimizedRMSD>
4.32568026

$$$$
