
     RDKit          3D

 37 39  0  0  0  0  0  0  0  0999 V2000
   45.2880   32.9708   47.4602 C   0  0  0  0  0  0  0  0  0  0  0  0
   45.7807   32.7507   46.1733 C   0  0  0  0  0  0  0  0  0  0  0  0
   46.0937   31.4169   45.7938 C   0  0  0  0  0  0  0  0  0  0  0  0
   45.8945   30.4352   46.7085 N   0  0  0  0  0  0  0  0  0  0  0  0
   45.4142   30.6786   47.9534 C   0  0  0  0  0  0  0  0  0  0  0  0
   45.1121   31.9441   48.3266 N   0  0  0  0  0  0  0  0  0  0  0  0
   45.9676   33.9060   45.2842 C   0  0  2  0  0  0  0  0  0  0  0  0
   44.8473   34.8967   45.5035 C   0  0  0  0  0  0  0  0  0  0  0  0
   44.5196   35.7953   44.4004 C   0  0  0  0  0  0  0  0  0  0  0  0
   45.2573   35.7079   43.1467 C   0  0  1  0  0  0  0  0  0  0  0  0
   46.4444   34.8435   43.1243 C   0  0  0  0  0  0  0  0  0  0  0  0
   46.1227   33.5552   43.8401 C   0  0  0  0  0  0  0  0  0  0  0  0
   45.0156   33.9370   47.8621 H   0  0  0  0  0  0  0  0  0  0  0  0
   46.4685   31.2429   44.8156 H   0  0  0  0  0  0  0  0  0  0  0  0
   45.3159   29.7846   48.5562 H   0  0  0  0  0  0  0  0  0  0  0  0
   46.8745   34.4867   45.6283 H   0  0  0  0  0  0  0  0  0  0  0  0
   44.2317   35.0587   46.3550 H   0  0  0  0  0  0  0  0  0  0  0  0
   43.7386   36.4985   44.5311 H   0  0  0  0  0  0  0  0  0  0  0  0
   45.5804   36.7518   42.8886 H   0  0  0  0  0  0  0  0  0  0  0  0
   46.7314   34.6104   42.0812 H   0  0  0  0  0  0  0  0  0  0  0  0
   47.2713   35.3741   43.6444 H   0  0  0  0  0  0  0  0  0  0  0  0
   45.1995   33.1048   43.4591 H   0  0  0  0  0  0  0  0  0  0  0  0
   47.0050   32.8928   43.7507 H   0  0  0  0  0  0  0  0  0  0  0  0
   44.2351   35.3457   42.0825 C   0  0  0  0  0  0  0  0  0  0  0  0
   43.1334   36.3407   41.9289 C   0  0  0  0  0  0  0  0  0  0  0  0
   42.0878   35.4989   41.1973 C   0  0  0  0  0  0  0  0  0  0  0  0
   42.2196   34.0980   41.7805 C   0  0  0  0  0  0  0  0  0  0  0  0
   43.5369   34.0888   42.5336 C   0  0  0  0  0  0  0  0  0  0  0  0
   44.7046   35.1596   41.1044 H   0  0  0  0  0  0  0  0  0  0  0  0
   42.7659   36.7600   42.8714 H   0  0  0  0  0  0  0  0  0  0  0  0
   43.4847   37.1374   41.2300 H   0  0  0  0  0  0  0  0  0  0  0  0
   41.0805   35.9094   41.2441 H   0  0  0  0  0  0  0  0  0  0  0  0
   42.4581   35.4390   40.1345 H   0  0  0  0  0  0  0  0  0  0  0  0
   41.4209   33.8689   42.5153 H   0  0  0  0  0  0  0  0  0  0  0  0
   42.3048   33.3356   40.9716 H   0  0  0  0  0  0  0  0  0  0  0  0
   44.1782   33.2251   42.2520 H   0  0  0  0  0  0  0  0  0  0  0  0
   43.4136   34.0951   43.6246 H   0  0  0  0  0  0  0  0  0  0  0  0
  1  6  2  0
  2  1  1  0
  3  2  2  0
  3  4  1  0
  4  5  2  0
  5  6  1  0
  7  8  1  0
  7  2  1  0
  9  8  2  0
 10  9  1  0
 11 10  1  0
 11 12  1  0
 12  7  1  0
  1 13  1  0
  3 14  1  0
  5 15  1  0
  7 16  1  1
  8 17  1  0
  9 18  1  0
 10 19  1  6
 11 20  1  0
 11 21  1  0
 12 22  1  0
 12 23  1  0
 24 25  1  0
 25 26  1  0
 26 27  1  0
 27 28  1  0
 28 24  1  0
 24 29  1  0
 25 30  1  0
 25 31  1  0
 26 32  1  0
 26 33  1  0
 27 34  1  0
 27 35  1  0
 28 36  1  0
 28 37  1  0
 10 24  1  0
M  ISO  8  13  14  14  14  15  14  16  13  17  13  18  13  19  13  20  13
M  ISO  3  21  13  22  13  23  13
M  END
>  <DihAtoms>  (1) 
8,9,23,24

>  <DihDeg>  (1) 
179.99917317049872

$$$$
