
 OpenBabel03232520303D

 41 45  0  0  1  0  0  0  0  0999 V2000
   46.9360   34.5160   41.3120 C   0  0  0  0  0  0  0  0  0  0  0  0
   48.1960   34.9650   40.9550 C   0  0  0  0  0  0  0  0  0  0  0  0
   48.4640   34.6640   39.6950 N   0  0  0  0  0  0  0  0  0  0  0  0
   47.3790   34.0140   39.2090 C   0  0  0  0  0  0  0  0  0  0  0  0
   47.1360   33.4850   37.9500 C   0  0  0  0  0  0  0  0  0  0  0  0
   45.9520   32.8700   37.7070 C   0  0  0  0  0  0  0  0  0  0  0  0
   44.9370   32.7250   38.6440 C   0  0  0  0  0  0  0  0  0  0  0  0
   45.2250   33.2680   39.8820 C   0  0  0  0  0  0  0  0  0  0  0  0
   46.4030   33.9030   40.1940 C   0  0  0  0  0  0  0  0  0  0  0  0
   49.3300   34.8690   39.1370 H   0  0  0  0  0  0  0  0  0  0  0  0
   47.8730   33.5480   37.1490 H   0  0  0  0  0  0  0  0  0  0  0  0
   45.7720   32.4590   36.7170 H   0  0  0  0  0  0  0  0  0  0  0  0
   43.9880   32.2300   38.4400 H   0  0  0  0  0  0  0  0  0  0  0  0
   44.4970   33.2070   40.6810 H   0  0  0  0  0  0  0  0  0  0  0  0
   44.7780   35.8530   44.0470 C   0  0  0  0  0  0  0  0  0  0  0  0
   45.4160   35.7390   42.7970 C   0  0  0  0  0  0  0  0  0  0  0  0
   46.2660   34.6460   42.6050 C   0  0  0  0  0  0  0  0  0  0  0  0
   46.4530   33.7330   43.6150 N   0  0  0  0  0  0  0  0  0  0  0  0
   45.8040   33.9020   44.8000 C   0  0  0  0  0  0  0  0  0  0  0  0
   44.9790   34.9370   45.0260 N   0  0  0  0  0  0  0  0  0  0  0  0
   44.1320   36.7030   44.1580 H   0  0  0  0  0  0  0  0  0  0  0  0
   45.2840   36.4330   42.0060 H   0  0  0  0  0  0  0  0  0  0  0  0
   45.9690   33.1640   45.5850 H   0  0  0  0  0  0  0  0  0  0  0  0
   49.1020   35.6810   41.8820 C   0  0  0  0  0  0  0  0  0  0  0  0
   49.7360   36.3650   41.2960 H   0  0  0  0  0  0  0  0  0  0  0  0
   48.4820   36.2830   42.5680 H   0  0  0  0  0  0  0  0  0  0  0  0
   49.9920   34.7360   42.6360 C   0  0  0  0  0  0  0  0  0  0  0  0
   49.5550   34.5630   43.6420 H   0  0  0  0  0  0  0  0  0  0  0  0
   50.9610   35.2640   42.8300 H   0  0  0  0  0  0  0  0  0  0  0  0
   50.2990   33.4520   41.9120 C   0  0  1  0  0  0  0  0  0  0  0  0
   51.0630   32.3750   42.5150 C   0  0  0  0  0  0  0  0  0  0  0  0
   49.5820   32.2310   42.5210 C   0  0  2  0  0  0  0  0  0  0  0  0
   50.2860   33.5040   40.7980 H   0  0  0  0  0  0  0  0  0  0  0  0
   51.7280   31.7630   41.9000 H   0  0  0  0  0  0  0  0  0  0  0  0
   51.5140   32.5810   43.5200 H   0  0  0  0  0  0  0  0  0  0  0  0
   49.0360   32.3700   43.4830 H   0  0  0  0  0  0  0  0  0  0  0  0
   48.8840   31.3130   41.5720 C   0  0  0  0  0  0  0  0  0  0  0  0
   48.9370   29.9220   42.1700 C   0  0  0  0  0  0  0  0  0  0  0  0
   49.5730   29.0170   41.1610 C   0  0  0  0  0  0  0  0  0  0  0  0
   50.4790   29.9900   40.3990 C   0  0  0  0  0  0  0  0  0  0  0  0
   49.5730   31.1680   40.2440 C   0  0  0  0  0  0  0  0  0  0  0  0
  1 17  1  0  0  0  0
  2  1  2  0  0  0  0
  2 24  1  0  0  0  0
  3  2  1  0  0  0  0
  4  3  1  0  0  0  0
  4  9  1  0  0  0  0
  5  4  2  0  0  0  0
  6  5  1  0  0  0  0
  6  7  2  0  0  0  0
  7  8  1  0  0  0  0
  8  9  2  0  0  0  0
  8 14  1  0  0  0  0
  9  1  1  0  0  0  0
 10  3  1  0  0  0  0
 11  5  1  0  0  0  0
 12  6  1  0  0  0  0
 13  7  1  0  0  0  0
 15 21  1  0  0  0  0
 15 20  1  0  0  0  0
 16 15  2  0  0  0  0
 17 16  1  0  0  0  0
 17 18  2  0  0  0  0
 18 19  1  0  0  0  0
 19 20  2  0  0  0  0
 19 23  1  0  0  0  0
 22 16  1  0  0  0  0
 24 26  1  0  0  0  0
 24 27  1  0  0  0  0
 25 24  1  0  0  0  0
 27 29  1  0  0  0  0
 27 28  1  0  0  0  0
 30 33  1  6  0  0  0
 30 31  1  0  0  0  0
 30 32  1  0  0  0  0
 30 27  1  0  0  0  0
 31 32  1  0  0  0  0
 31 35  1  0  0  0  0
 32 36  1  1  0  0  0
 34 31  1  0  0  0  0
 37 38  1  0  0  0  0
 37 32  1  0  0  0  0
 39 38  1  0  0  0  0
 40 39  1  0  0  0  0
 41 40  1  0  0  0  0
 41 37  1  0  0  0  0
M  END
>  <minimizedAffinity>
-5.78835011

>  <minimizedRMSD>
0.515653312

$$$$
