
     RDKit          3D

 40 42  0  0  0  0  0  0  0  0999 V2000
   46.1304   33.7094   45.4221 C   0  0  2  0  0  0  0  0  0  0  0  0
   44.9703   34.6674   45.5403 C   0  0  0  0  0  0  0  0  0  0  0  0
   44.7121   35.5251   44.4094 C   0  0  0  0  0  0  0  0  0  0  0  0
   45.5365   35.4610   43.2145 C   0  0  1  0  0  0  0  0  0  0  0  0
   46.7018   34.5477   43.2446 C   0  0  0  0  0  0  0  0  0  0  0  0
   46.3514   33.3029   44.0072 C   0  0  0  0  0  0  0  0  0  0  0  0
   45.2858   32.8568   47.5561 C   0  0  0  0  0  0  0  0  0  0  0  0
   45.9761   32.6277   46.3801 C   0  0  0  0  0  0  0  0  0  0  0  0
   46.4968   31.3461   46.1980 C   0  0  0  0  0  0  0  0  0  0  0  0
   46.3270   30.3857   47.1342 N   0  0  0  0  0  0  0  0  0  0  0  0
   45.6413   30.6435   48.2837 C   0  0  0  0  0  0  0  0  0  0  0  0
   45.1267   31.8748   48.4856 N   0  0  0  0  0  0  0  0  0  0  0  0
   44.6191   35.1078   42.0323 C   0  0  0  0  0  0  0  0  0  0  0  0
   43.6701   34.1670   42.3584 F   0  0  0  0  0  0  0  0  0  0  0  0
   43.9191   36.2728   41.6930 F   0  0  0  0  0  0  0  0  0  0  0  0
   45.3743   34.7404   40.9395 F   0  0  0  0  0  0  0  0  0  0  0  0
   47.0250   34.3140   45.7551 H   0  0  0  0  0  0  0  0  0  0  0  0
   44.2271   34.9037   46.2898 H   0  0  0  0  0  0  0  0  0  0  0  0
   43.9224   36.2315   44.3924 H   0  0  0  0  0  0  0  0  0  0  0  0
   45.8928   36.4917   42.9977 H   0  0  0  0  0  0  0  0  0  0  0  0
   47.0483   34.3597   42.2101 H   0  0  0  0  0  0  0  0  0  0  0  0
   47.5075   35.0672   43.8399 H   0  0  0  0  0  0  0  0  0  0  0  0
   45.4756   32.8566   43.5260 H   0  0  0  0  0  0  0  0  0  0  0  0
   47.2440   32.6453   43.9847 H   0  0  0  0  0  0  0  0  0  0  0  0
   44.8219   33.7840   47.8588 H   0  0  0  0  0  0  0  0  0  0  0  0
   47.0365   31.1150   45.3108 H   0  0  0  0  0  0  0  0  0  0  0  0
   45.4767   29.5689   49.2835 C   0  0  0  0  0  0  0  0  0  0  0  0
   44.4364   29.9278   50.3321 C   0  0  0  0  0  0  0  0  0  0  0  0
   44.3409   28.5957   51.0709 C   0  0  0  0  0  0  0  0  0  0  0  0
   44.4954   27.5458   49.9793 C   0  0  0  0  0  0  0  0  0  0  0  0
   44.9577   28.2797   48.7380 C   0  0  0  0  0  0  0  0  0  0  0  0
   46.4089   29.3678   49.8614 H   0  0  0  0  0  0  0  0  0  0  0  0
   44.7914   30.7402   50.9884 H   0  0  0  0  0  0  0  0  0  0  0  0
   43.4480   30.1423   49.9137 H   0  0  0  0  0  0  0  0  0  0  0  0
   45.2476   28.5190   51.7219 H   0  0  0  0  0  0  0  0  0  0  0  0
   43.3888   28.5062   51.6262 H   0  0  0  0  0  0  0  0  0  0  0  0
   45.2969   26.8070   50.2519 H   0  0  0  0  0  0  0  0  0  0  0  0
   43.5387   27.0295   49.7513 H   0  0  0  0  0  0  0  0  0  0  0  0
   45.6880   27.6940   48.1484 H   0  0  0  0  0  0  0  0  0  0  0  0
   44.0398   28.5201   48.1337 H   0  0  0  0  0  0  0  0  0  0  0  0
  1  2  1  0
  1  8  1  0
  3  2  2  0
  4  5  1  0
  4  3  1  0
  5  6  1  0
  6  1  1  0
  7 12  2  0
  8  7  1  0
  9  8  2  0
  9 10  1  0
 10 11  2  0
 11 12  1  0
 13 14  1  0
 13  4  1  0
 15 13  1  0
 16 13  1  0
  1 17  1  1
  2 18  1  0
  3 19  1  0
  4 20  1  6
  5 21  1  0
  5 22  1  0
  6 23  1  0
  6 24  1  0
  7 25  1  0
  9 26  1  0
 27 28  1  0
 28 29  1  0
 29 30  1  0
 30 31  1  0
 31 27  1  0
 27 32  1  0
 28 33  1  0
 28 34  1  0
 29 35  1  0
 29 36  1  0
 30 37  1  0
 30 38  1  0
 31 39  1  0
 31 40  1  0
 11 27  1  0
M  ISO  8  17  13  18  13  19  13  20  13  21  13  22  13  23  13  24  13
M  ISO  2  25  14  26  14
M  END
>  <DihAtoms>  (1) 
9,10,26,27

>  <DihDeg>  (1) 
-61.98815910418899

$$$$
