REMARK  Name = 
REMARK  3 active torsions:
REMARK  status: ('A' for Active; 'I' for Inactive)
REMARK    1  A    between atoms: C_1  and  C_8
REMARK    2  A    between atoms: C_4  and  C_13
REMARK    3  A    between atoms: C_11  and  C_27
REMARK                            x       y       z     vdW  Elec       q    Type
REMARK                         _______ _______ _______ _____ _____    ______ ____
ROOT
ATOM      1  C   UNL     1      46.130  33.709  45.422  0.00  0.00    +0.000 C 
ATOM      2  C   UNL     1      44.970  34.667  45.540  0.00  0.00    +0.000 C 
ATOM      3  C   UNL     1      44.712  35.525  44.409  0.00  0.00    +0.000 C 
ATOM      4  C   UNL     1      45.536  35.461  43.215  0.00  0.00    +0.000 C 
ATOM      5  C   UNL     1      46.702  34.548  43.245  0.00  0.00    +0.000 C 
ATOM      6  C   UNL     1      46.351  33.303  44.007  0.00  0.00    +0.000 C 
ATOM      7  H   UNL     1      47.025  34.314  45.755  0.00  0.00    +0.000 HD
ATOM      8  H   UNL     1      44.227  34.904  46.290  0.00  0.00    +0.000 HD
ATOM      9  H   UNL     1      43.922  36.231  44.392  0.00  0.00    +0.000 HD
ATOM     10  H   UNL     1      45.893  36.492  42.998  0.00  0.00    +0.000 HD
ATOM     11  H   UNL     1      47.048  34.360  42.210  0.00  0.00    +0.000 HD
ATOM     12  H   UNL     1      47.508  35.067  43.840  0.00  0.00    +0.000 HD
ATOM     13  H   UNL     1      45.476  32.857  43.526  0.00  0.00    +0.000 HD
ATOM     14  H   UNL     1      47.244  32.645  43.985  0.00  0.00    +0.000 HD
ENDROOT
BRANCH   1  16
ATOM     15  C   UNL     1      45.286  32.857  47.556  0.00  0.00    +0.000 A 
ATOM     16  C   UNL     1      45.976  32.628  46.380  0.00  0.00    +0.000 A 
ATOM     17  C   UNL     1      46.497  31.346  46.198  0.00  0.00    +0.000 A 
ATOM     18  N   UNL     1      46.327  30.386  47.134  0.00  0.00    +0.000 NA
ATOM     19  C   UNL     1      45.641  30.643  48.284  0.00  0.00    +0.000 A 
ATOM     20  N   UNL     1      45.127  31.875  48.486  0.00  0.00    +0.000 NA
ATOM     21  H   UNL     1      44.822  33.784  47.859  0.00  0.00    +0.000 HD
ATOM     22  H   UNL     1      47.036  31.115  45.311  0.00  0.00    +0.000 HD
BRANCH  19  23
ATOM     23  C   UNL     1      45.477  29.569  49.283  0.00  0.00    +0.000 C 
ATOM     24  C   UNL     1      44.436  29.928  50.332  0.00  0.00    +0.000 C 
ATOM     25  C   UNL     1      44.341  28.596  51.071  0.00  0.00    +0.000 C 
ATOM     26  C   UNL     1      44.495  27.546  49.979  0.00  0.00    +0.000 C 
ATOM     27  C   UNL     1      44.958  28.280  48.738  0.00  0.00    +0.000 C 
ENDBRANCH  19  23
ENDBRANCH   1  16
BRANCH   4  28
ATOM     28  C   UNL     1      44.619  35.108  42.032  0.00  0.00    +0.000 C 
ATOM     29  F   UNL     1      43.670  34.167  42.358  0.00  0.00    +0.000 F 
ATOM     30  F   UNL     1      43.919  36.273  41.693  0.00  0.00    +0.000 F 
ATOM     31  F   UNL     1      45.374  34.740  40.940  0.00  0.00    +0.000 F 
ENDBRANCH   4  28
TORSDOF 3
