
 OpenBabel03232520543D

 31 33  0  0  1  0  0  0  0  0999 V2000
   46.3850   33.4150   44.7940 C   0  0  2  0  0  0  0  0  0  0  0  0
   45.2340   34.2760   45.2530 C   0  0  0  0  0  0  0  0  0  0  0  0
   44.8300   35.3500   44.3780 C   0  0  0  0  0  0  0  0  0  0  0  0
   45.5070   35.5840   43.1150 C   0  0  1  0  0  0  0  0  0  0  0  0
   46.6810   34.7350   42.8090 C   0  0  0  0  0  0  0  0  0  0  0  0
   46.4420   33.3400   43.3080 C   0  0  0  0  0  0  0  0  0  0  0  0
   47.3050   33.9680   45.1500 H   0  0  0  0  0  0  0  0  0  0  0  0
   44.5820   34.3120   46.1160 H   0  0  0  0  0  0  0  0  0  0  0  0
   44.0340   36.0100   44.6090 H   0  0  0  0  0  0  0  0  0  0  0  0
   45.8200   36.6510   43.0950 H   0  0  0  0  0  0  0  0  0  0  0  0
   46.9040   34.7940   41.7250 H   0  0  0  0  0  0  0  0  0  0  0  0
   47.5450   35.1430   43.4090 H   0  0  0  0  0  0  0  0  0  0  0  0
   45.5230   32.9750   42.8420 H   0  0  0  0  0  0  0  0  0  0  0  0
   47.3360   32.7400   43.0390 H   0  0  0  0  0  0  0  0  0  0  0  0
   45.8990   32.0990   46.7990 C   0  0  0  0  0  0  0  0  0  0  0  0
   46.3630   32.1450   45.4970 C   0  0  0  0  0  0  0  0  0  0  0  0
   46.7960   30.9400   44.9430 C   0  0  0  0  0  0  0  0  0  0  0  0
   46.7580   29.7920   45.6560 N   0  0  0  0  0  0  0  0  0  0  0  0
   46.2950   29.7790   46.9380 C   0  0  0  0  0  0  0  0  0  0  0  0
   45.8700   30.9310   47.4990 N   0  0  0  0  0  0  0  0  0  0  0  0
   45.5300   32.9310   47.3800 H   0  0  0  0  0  0  0  0  0  0  0  0
   47.1620   30.9180   43.9450 H   0  0  0  0  0  0  0  0  0  0  0  0
   46.2700   28.5060   47.6840 C   0  0  0  0  0  0  0  0  0  0  0  0
   44.9180   27.8170   47.5810 C   0  0  0  0  0  0  0  0  0  0  0  0
   45.2520   26.4850   48.2480 C   0  0  0  0  0  0  0  0  0  0  0  0
   46.6800   26.1920   47.8100 C   0  0  0  0  0  0  0  0  0  0  0  0
   47.2070   27.4620   47.1750 C   0  0  0  0  0  0  0  0  0  0  0  0
   44.4610   35.4630   41.9940 C   0  0  0  0  0  0  0  0  0  0  0  0
   43.3540   34.7410   42.3770 F   0  0  0  0  0  0  0  0  0  0  0  0
   44.0090   36.7580   41.7120 F   0  0  0  0  0  0  0  0  0  0  0  0
   45.0460   34.9650   40.8510 F   0  0  0  0  0  0  0  0  0  0  0  0
  1  7  1  1  0  0  0
  1  2  1  0  0  0  0
  1 16  1  0  0  0  0
  2  8  1  0  0  0  0
  3  9  1  0  0  0  0
  3  2  2  0  0  0  0
  4 10  1  1  0  0  0
  4  3  1  0  0  0  0
  5  4  1  0  0  0  0
  5  6  1  0  0  0  0
  5 12  1  0  0  0  0
  6  1  1  0  0  0  0
 11  5  1  0  0  0  0
 13  6  1  0  0  0  0
 14  6  1  0  0  0  0
 15 21  1  0  0  0  0
 15 20  1  0  0  0  0
 16 15  2  0  0  0  0
 17 16  1  0  0  0  0
 17 18  2  0  0  0  0
 18 19  1  0  0  0  0
 19 20  2  0  0  0  0
 19 23  1  0  0  0  0
 22 17  1  0  0  0  0
 24 23  1  0  0  0  0
 24 25  1  0  0  0  0
 26 25  1  0  0  0  0
 27 23  1  0  0  0  0
 27 26  1  0  0  0  0
 28 29  1  0  0  0  0
 28  4  1  0  0  0  0
 30 28  1  0  0  0  0
 31 28  1  0  0  0  0
M  END
>  <minimizedAffinity>
-4.87155962

>  <minimizedRMSD>
1.4385227

$$$$
