REMARK  Name = 
REMARK  3 active torsions:
REMARK  status: ('A' for Active; 'I' for Inactive)
REMARK    1  A    between atoms: C_1  and  C_8
REMARK    2  A    between atoms: C_4  and  C_14
REMARK    3  A    between atoms: C_9  and  C_29
REMARK                            x       y       z     vdW  Elec       q    Type
REMARK                         _______ _______ _______ _____ _____    ______ ____
ROOT
ATOM      1  C   UNL     1      46.184  33.649  45.314  0.00  0.00    +0.000 C 
ATOM      2  C   UNL     1      44.959  34.681  45.483  0.00  0.00    +0.000 C 
ATOM      3  C   UNL     1      44.707  35.578  44.379  0.00  0.00    +0.000 C 
ATOM      4  C   UNL     1      45.521  35.516  43.177  0.00  0.00    +0.000 C 
ATOM      5  C   UNL     1      46.641  34.564  43.192  0.00  0.00    +0.000 C 
ATOM      6  C   UNL     1      46.163  33.315  43.929  0.00  0.00    +0.000 C 
ATOM      7  H   UNL     1      46.904  34.488  45.574  0.00  0.00    +0.000 HD
ATOM      8  H   UNL     1      44.215  34.913  46.239  0.00  0.00    +0.000 HD
ATOM      9  H   UNL     1      43.908  36.305  44.405  0.00  0.00    +0.000 HD
ATOM     10  H   UNL     1      45.874  36.550  42.961  0.00  0.00    +0.000 HD
ATOM     11  H   UNL     1      47.476  35.021  43.777  0.00  0.00    +0.000 HD
ATOM     12  H   UNL     1      47.019  34.370  42.191  0.00  0.00    +0.000 HD
ATOM     13  H   UNL     1      45.055  33.221  43.619  0.00  0.00    +0.000 HD
ATOM     14  H   UNL     1      46.631  32.539  43.398  0.00  0.00    +0.000 HD
ENDROOT
BRANCH   1  16
ATOM     15  C   UNL     1      45.306  32.928  47.546  0.00  0.00    +0.000 A 
ATOM     16  C   UNL     1      45.968  32.678  46.346  0.00  0.00    +0.000 A 
ATOM     17  C   UNL     1      46.345  31.330  46.103  0.00  0.00    +0.000 A 
ATOM     18  N   UNL     1      46.041  30.412  47.018  0.00  0.00    +0.000 NA
ATOM     19  C   UNL     1      45.395  30.681  48.176  0.00  0.00    +0.000 A 
ATOM     20  N   UNL     1      45.029  31.924  48.447  0.00  0.00    +0.000 NA
ATOM     21  N   UNL     1      45.156  29.602  49.101  0.00  0.00    +0.000 N 
ATOM     22  H   UNL     1      45.003  33.920  47.794  0.00  0.00    +0.000 HD
ATOM     23  H   UNL     1      45.866  29.367  49.849  0.00  0.00    +0.000 HD
ATOM     24  H   UNL     1      44.269  29.084  48.989  0.00  0.00    +0.000 HD
BRANCH  17  25
ATOM     25  C   UNL     1      47.142  30.788  44.985  0.00  0.00    +0.000 C 
ATOM     26  C   UNL     1      48.415  30.057  45.582  0.00  0.00    +0.000 C 
ATOM     27  C   UNL     1      49.231  29.744  44.372  0.00  0.00    +0.000 C 
ATOM     28  C   UNL     1      49.110  31.036  43.597  0.00  0.00    +0.000 C 
ATOM     29  C   UNL     1      47.944  31.782  44.217  0.00  0.00    +0.000 C 
ENDBRANCH  17  25
ENDBRANCH   1  16
BRANCH   4  30
ATOM     30  C   UNL     1      44.571  35.175  42.001  0.00  0.00    +0.000 C 
ATOM     31  F   UNL     1      43.585  34.278  42.349  0.00  0.00    +0.000 F 
ATOM     32  F   UNL     1      43.924  36.361  41.661  0.00  0.00    +0.000 F 
ATOM     33  F   UNL     1      45.300  34.781  40.897  0.00  0.00    +0.000 F 
ENDBRANCH   4  30
TORSDOF 3
