
 OpenBabel03232520573D

 33 35  0  0  1  0  0  0  0  0999 V2000
   46.2040   33.6230   45.3310 C   0  0  2  0  0  0  0  0  0  0  0  0
   45.0000   34.6750   45.5230 C   0  0  0  0  0  0  0  0  0  0  0  0
   44.7440   35.5780   44.4250 C   0  0  0  0  0  0  0  0  0  0  0  0
   45.5360   35.5050   43.2090 C   0  0  1  0  0  0  0  0  0  0  0  0
   46.6400   34.5340   43.2030 C   0  0  0  0  0  0  0  0  0  0  0  0
   46.1540   33.2920   43.9460 C   0  0  0  0  0  0  0  0  0  0  0  0
   46.9430   34.4490   45.5800 H   0  0  0  0  0  0  0  0  0  0  0  0
   44.2730   34.9170   46.2920 H   0  0  0  0  0  0  0  0  0  0  0  0
   43.9580   36.3180   44.4660 H   0  0  0  0  0  0  0  0  0  0  0  0
   45.9020   36.5330   42.9890 H   0  0  0  0  0  0  0  0  0  0  0  0
   47.4920   34.9760   43.7740 H   0  0  0  0  0  0  0  0  0  0  0  0
   46.9970   34.3360   42.1950 H   0  0  0  0  0  0  0  0  0  0  0  0
   45.0390   33.2170   43.6550 H   0  0  0  0  0  0  0  0  0  0  0  0
   46.6000   32.5090   43.4060 H   0  0  0  0  0  0  0  0  0  0  0  0
   45.2040   32.8600   47.4970 C   0  0  0  0  0  0  0  0  0  0  0  0
   45.9900   32.6530   46.3650 C   0  0  0  0  0  0  0  0  0  0  0  0
   46.5110   31.3430   46.1900 C   0  0  0  0  0  0  0  0  0  0  0  0
   46.2150   30.4160   47.0980 N   0  0  0  0  0  0  0  0  0  0  0  0
   45.4470   30.6430   48.1890 C   0  0  0  0  0  0  0  0  0  0  0  0
   44.9440   31.8490   48.3960 N   0  0  0  0  0  0  0  0  0  0  0  0
   45.2290   29.5620   49.1170 N   0  0  0  0  0  0  0  0  0  0  0  0
   44.7900   33.8220   47.6930 H   0  0  0  0  0  0  0  0  0  0  0  0
   45.8900   29.4080   49.9290 H   0  0  0  0  0  0  0  0  0  0  0  0
   44.4080   28.9600   48.9420 H   0  0  0  0  0  0  0  0  0  0  0  0
   47.4500   30.8610   45.1580 C   0  0  0  0  0  3  0  0  0  0  0  0
   46.6920   29.8180   44.2350 C   0  0  0  0  0  2  0  0  0  0  0  0
   47.7800   29.2550   43.3840 C   0  0  0  0  0  2  0  0  0  0  0  0
   48.8740   29.0510   44.4070 C   0  0  0  0  0  2  0  0  0  0  0  0
   48.4650   29.8710   45.6170 C   0  0  0  0  0  2  0  0  0  0  0  0
   44.5600   35.1820   42.0490 C   0  0  0  0  0  0  0  0  0  0  0  0
   43.5510   34.3200   42.4190 F   0  0  0  0  0  0  0  0  0  0  0  0
   43.9470   36.3840   41.7050 F   0  0  0  0  0  0  0  0  0  0  0  0
   45.2620   34.7540   40.9400 F   0  0  0  0  0  0  0  0  0  0  0  0
  1  2  1  0  0  0  0
  1  7  1  1  0  0  0
  1 16  1  0  0  0  0
  2  8  1  0  0  0  0
  3  9  1  0  0  0  0
  3  2  2  0  0  0  0
  4 10  1  6  0  0  0
  4  3  1  0  0  0  0
  5  4  1  0  0  0  0
  5 11  1  0  0  0  0
  5  6  1  0  0  0  0
  6  1  1  0  0  0  0
 12  5  1  0  0  0  0
 13  6  1  0  0  0  0
 14  6  1  0  0  0  0
 15 22  1  0  0  0  0
 15 20  1  0  0  0  0
 16 15  2  0  0  0  0
 17 16  1  0  0  0  0
 17 18  2  0  0  0  0
 18 19  1  0  0  0  0
 19 20  2  0  0  0  0
 19 21  1  0  0  0  0
 21 23  1  0  0  0  0
 24 21  1  0  0  0  0
 25 29  1  0  0  0  0
 25 17  1  0  0  0  0
 26 25  1  0  0  0  0
 27 26  1  0  0  0  0
 27 28  1  0  0  0  0
 28 29  1  0  0  0  0
 30 31  1  0  0  0  0
 30  4  1  0  0  0  0
 32 30  1  0  0  0  0
 33 30  1  0  0  0  0
M  END
>  <minimizedAffinity>
-5.7472353

>  <minimizedRMSD>
0.352792978

$$$$
