
 OpenBabel03232520583D

 37 39  0  0  1  0  0  0  0  0999 V2000
   45.3930   32.8860   47.5790 C   0  0  0  0  0  0  0  0  0  0  0  0
   45.8750   32.6260   46.3290 C   0  0  0  0  0  0  0  0  0  0  0  0
   46.0740   31.2670   46.0420 C   0  0  0  0  0  0  0  0  0  0  0  0
   45.8110   30.2860   46.9220 N   0  0  0  0  0  0  0  0  0  0  0  0
   45.3250   30.5960   48.1760 C   0  0  0  0  0  0  0  0  0  0  0  0
   45.1300   31.8760   48.4710 N   0  0  0  0  0  0  0  0  0  0  0  0
   45.0680   29.5770   49.1340 N   0  0  0  0  0  0  0  0  0  0  0  0
   45.2140   33.9040   47.8860 H   0  0  0  0  0  0  0  0  0  0  0  0
   44.4470   29.7940   49.9260 H   0  0  0  0  0  0  0  0  0  0  0  0
   45.5070   28.6280   49.0250 H   0  0  0  0  0  0  0  0  0  0  0  0
   46.1040   33.5910   45.3050 C   0  0  2  0  0  0  0  0  0  0  0  0
   44.9640   34.6860   45.5230 C   0  0  0  0  0  0  0  0  0  0  0  0
   44.7330   35.6180   44.4490 C   0  0  0  0  0  0  0  0  0  0  0  0
   45.5050   35.5390   43.2300 C   0  0  1  0  0  0  0  0  0  0  0  0
   46.5860   34.5200   43.1810 C   0  0  0  0  0  0  0  0  0  0  0  0
   46.0850   33.2840   43.9150 C   0  0  0  0  0  0  0  0  0  0  0  0
   46.9370   34.2930   45.6170 H   0  0  0  0  0  0  0  0  0  0  0  0
   44.2750   34.9240   46.3180 H   0  0  0  0  0  0  0  0  0  0  0  0
   43.9800   36.3870   44.5230 H   0  0  0  0  0  0  0  0  0  0  0  0
   45.9490   36.5320   43.0070 H   0  0  0  0  0  0  0  0  0  0  0  0
   46.8660   34.2930   42.1560 H   0  0  0  0  0  0  0  0  0  0  0  0
   47.4640   34.8790   43.7590 H   0  0  0  0  0  0  0  0  0  0  0  0
   46.4990   32.4820   43.3780 H   0  0  0  0  0  0  0  0  0  0  0  0
   44.9650   33.2510   43.6000 H   0  0  0  0  0  0  0  0  0  0  0  0
   44.5140   35.2740   42.0680 C   0  0  0  0  0  0  0  0  0  0  0  0
   43.4540   34.4740   42.4420 F   0  0  0  0  0  0  0  0  0  0  0  0
   43.9790   36.5090   41.7200 F   0  0  0  0  0  0  0  0  0  0  0  0
   45.2020   34.8100   40.9590 F   0  0  0  0  0  0  0  0  0  0  0  0
   46.6270   30.5800   44.8830 C   0  0  0  0  0  0  0  0  0  0  0  0
   48.0070   30.5130   44.9560 C   0  0  0  0  0  0  0  0  0  0  0  0
   48.6370   30.8970   45.7370 H   0  0  0  0  0  0  0  0  0  0  0  0
   48.7360   29.8920   43.9390 C   0  0  0  0  0  3  0  0  0  0  0  0
   48.0150   29.3580   42.8750 C   0  0  0  0  0  0  0  0  0  0  0  0
   48.5640   28.8730   42.0780 H   0  0  0  0  0  0  0  0  0  0  0  0
   46.6540   29.4390   42.8290 C   0  0  0  0  0  0  0  0  0  0  0  0
   46.0830   29.0290   42.0090 H   0  0  0  0  0  0  0  0  0  0  0  0
   45.9100   30.0510   43.8300 C   0  0  0  0  0  3  0  0  0  0  0  0
  1  8  1  0  0  0  0
  1  6  1  0  0  0  0
  2  1  2  0  0  0  0
  3  2  1  0  0  0  0
  3  4  2  0  0  0  0
  4  5  1  0  0  0  0
  5  6  2  0  0  0  0
  5  7  1  0  0  0  0
  7  9  1  0  0  0  0
 10  7  1  0  0  0  0
 11 12  1  0  0  0  0
 11 17  1  1  0  0  0
 11  2  1  0  0  0  0
 12 18  1  0  0  0  0
 13 19  1  0  0  0  0
 13 12  2  0  0  0  0
 14 20  1  6  0  0  0
 14 13  1  0  0  0  0
 15 14  1  0  0  0  0
 15 22  1  0  0  0  0
 15 16  1  0  0  0  0
 16 11  1  0  0  0  0
 21 15  1  0  0  0  0
 23 16  1  0  0  0  0
 24 16  1  0  0  0  0
 25 26  1  0  0  0  0
 25 14  1  0  0  0  0
 27 25  1  0  0  0  0
 28 25  1  0  0  0  0
 29 30  1  0  0  0  0
 29  3  1  0  0  0  0
 30 31  1  0  0  0  0
 32 30  2  0  0  0  0
 33 32  1  0  0  0  0
 34 33  1  0  0  0  0
 35 33  2  0  0  0  0
 35 37  1  0  0  0  0
 36 35  1  0  0  0  0
 37 29  2  0  0  0  0
M  END
>  <minimizedAffinity>
-5.71246099

>  <minimizedRMSD>
0.387691617

$$$$
