
 OpenBabel03232520583D

 37 39  0  0  1  0  0  0  0  0999 V2000
   45.3940   32.8970   47.5800 C   0  0  0  0  0  0  0  0  0  0  0  0
   45.8730   32.6350   46.3300 C   0  0  0  0  0  0  0  0  0  0  0  0
   46.0720   31.2750   46.0440 C   0  0  0  0  0  0  0  0  0  0  0  0
   45.8090   30.2960   46.9250 N   0  0  0  0  0  0  0  0  0  0  0  0
   45.3250   30.6080   48.1800 C   0  0  0  0  0  0  0  0  0  0  0  0
   45.1310   31.8880   48.4740 N   0  0  0  0  0  0  0  0  0  0  0  0
   45.0690   29.5900   49.1390 N   0  0  0  0  0  0  0  0  0  0  0  0
   45.2160   33.9160   47.8860 H   0  0  0  0  0  0  0  0  0  0  0  0
   44.4490   29.8080   49.9320 H   0  0  0  0  0  0  0  0  0  0  0  0
   45.5070   28.6410   49.0310 H   0  0  0  0  0  0  0  0  0  0  0  0
   46.1010   33.5990   45.3040 C   0  0  2  0  0  0  0  0  0  0  0  0
   44.9600   34.6930   45.5200 C   0  0  0  0  0  0  0  0  0  0  0  0
   44.7290   35.6230   44.4450 C   0  0  0  0  0  0  0  0  0  0  0  0
   45.5010   35.5430   43.2260 C   0  0  1  0  0  0  0  0  0  0  0  0
   46.5830   34.5240   43.1780 C   0  0  0  0  0  0  0  0  0  0  0  0
   46.0830   33.2900   43.9150 C   0  0  0  0  0  0  0  0  0  0  0  0
   46.9330   34.3020   45.6140 H   0  0  0  0  0  0  0  0  0  0  0  0
   44.2710   34.9320   46.3140 H   0  0  0  0  0  0  0  0  0  0  0  0
   43.9750   36.3920   44.5170 H   0  0  0  0  0  0  0  0  0  0  0  0
   45.9440   36.5360   43.0000 H   0  0  0  0  0  0  0  0  0  0  0  0
   46.8630   34.2960   42.1530 H   0  0  0  0  0  0  0  0  0  0  0  0
   47.4600   34.8850   43.7550 H   0  0  0  0  0  0  0  0  0  0  0  0
   46.4980   32.4870   43.3790 H   0  0  0  0  0  0  0  0  0  0  0  0
   44.9630   33.2550   43.6000 H   0  0  0  0  0  0  0  0  0  0  0  0
   44.5100   35.2750   42.0640 C   0  0  0  0  0  0  0  0  0  0  0  0
   43.4520   34.4730   42.4380 F   0  0  0  0  0  0  0  0  0  0  0  0
   43.9720   36.5080   41.7160 F   0  0  0  0  0  0  0  0  0  0  0  0
   45.1990   34.8120   40.9550 F   0  0  0  0  0  0  0  0  0  0  0  0
   46.6220   30.5870   44.8850 C   0  0  0  0  0  0  0  0  0  0  0  0
   48.0020   30.5190   44.9560 C   0  0  0  0  0  0  0  0  0  0  0  0
   48.6330   30.9030   45.7360 H   0  0  0  0  0  0  0  0  0  0  0  0
   48.7300   29.8960   43.9390 C   0  0  0  0  0  3  0  0  0  0  0  0
   48.0060   29.3620   42.8760 C   0  0  0  0  0  0  0  0  0  0  0  0
   48.5530   28.8750   42.0790 H   0  0  0  0  0  0  0  0  0  0  0  0
   46.6450   29.4430   42.8310 C   0  0  0  0  0  0  0  0  0  0  0  0
   46.0720   29.0330   42.0140 H   0  0  0  0  0  0  0  0  0  0  0  0
   45.9030   30.0580   43.8330 C   0  0  0  0  0  3  0  0  0  0  0  0
  1  8  1  0  0  0  0
  1  6  1  0  0  0  0
  2  1  2  0  0  0  0
  3  2  1  0  0  0  0
  3  4  2  0  0  0  0
  4  5  1  0  0  0  0
  5  6  2  0  0  0  0
  5  7  1  0  0  0  0
  7  9  1  0  0  0  0
 10  7  1  0  0  0  0
 11 12  1  0  0  0  0
 11 17  1  1  0  0  0
 11  2  1  0  0  0  0
 12 18  1  0  0  0  0
 13 19  1  0  0  0  0
 13 12  2  0  0  0  0
 14 20  1  6  0  0  0
 14 13  1  0  0  0  0
 15 14  1  0  0  0  0
 15 22  1  0  0  0  0
 15 16  1  0  0  0  0
 16 11  1  0  0  0  0
 21 15  1  0  0  0  0
 23 16  1  0  0  0  0
 24 16  1  0  0  0  0
 25 26  1  0  0  0  0
 25 14  1  0  0  0  0
 27 25  1  0  0  0  0
 28 25  1  0  0  0  0
 29 30  1  0  0  0  0
 29  3  1  0  0  0  0
 30 31  1  0  0  0  0
 32 30  2  0  0  0  0
 33 32  1  0  0  0  0
 34 33  1  0  0  0  0
 35 33  2  0  0  0  0
 35 37  1  0  0  0  0
 36 35  1  0  0  0  0
 37 29  2  0  0  0  0
M  END
>  <minimizedAffinity>
-5.70927048

>  <minimizedRMSD>
0.330222994

$$$$
