
 OpenBabel03232520583D

 37 39  0  0  1  0  0  0  0  0999 V2000
   45.3070   32.9250   47.5140 C   0  0  0  0  0  0  0  0  0  0  0  0
   45.8640   32.6560   46.2980 C   0  0  0  0  0  0  0  0  0  0  0  0
   46.1540   31.3020   46.0650 C   0  0  0  0  0  0  0  0  0  0  0  0
   45.9030   30.3350   46.9630 N   0  0  0  0  0  0  0  0  0  0  0  0
   45.3400   30.6540   48.1820 C   0  0  0  0  0  0  0  0  0  0  0  0
   45.0580   31.9280   48.4250 N   0  0  0  0  0  0  0  0  0  0  0  0
   45.0940   29.6510   49.1590 N   0  0  0  0  0  0  0  0  0  0  0  0
   45.0560   33.9400   47.7780 H   0  0  0  0  0  0  0  0  0  0  0  0
   44.4230   29.8550   49.9140 H   0  0  0  0  0  0  0  0  0  0  0  0
   45.5910   28.7260   49.1030 H   0  0  0  0  0  0  0  0  0  0  0  0
   46.0880   33.6010   45.2540 C   0  0  2  0  0  0  0  0  0  0  0  0
   44.9760   34.7230   45.4830 C   0  0  0  0  0  0  0  0  0  0  0  0
   44.7390   35.6440   44.4010 C   0  0  0  0  0  0  0  0  0  0  0  0
   45.4800   35.5310   43.1660 C   0  0  1  0  0  0  0  0  0  0  0  0
   46.5380   34.4890   43.1060 C   0  0  0  0  0  0  0  0  0  0  0  0
   46.0290   33.2750   43.8700 C   0  0  0  0  0  0  0  0  0  0  0  0
   46.9420   34.2900   45.5350 H   0  0  0  0  0  0  0  0  0  0  0  0
   44.3120   34.9860   46.2900 H   0  0  0  0  0  0  0  0  0  0  0  0
   44.0040   36.4300   44.4820 H   0  0  0  0  0  0  0  0  0  0  0  0
   45.9390   36.5120   42.9170 H   0  0  0  0  0  0  0  0  0  0  0  0
   46.7890   34.2420   42.0770 H   0  0  0  0  0  0  0  0  0  0  0  0
   47.4360   34.8380   43.6570 H   0  0  0  0  0  0  0  0  0  0  0  0
   46.4140   32.4570   43.3350 H   0  0  0  0  0  0  0  0  0  0  0  0
   44.9020   33.2610   43.5820 H   0  0  0  0  0  0  0  0  0  0  0  0
   44.4550   35.2710   42.0310 C   0  0  0  0  0  0  0  0  0  0  0  0
   43.4030   34.4750   42.4340 F   0  0  0  0  0  0  0  0  0  0  0  0
   43.9160   36.5080   41.6990 F   0  0  0  0  0  0  0  0  0  0  0  0
   45.1110   34.8050   40.9030 F   0  0  0  0  0  0  0  0  0  0  0  0
   46.8010   30.6140   44.9560 C   0  0  0  0  0  0  0  0  0  0  0  0
   45.8770   29.9250   44.1930 C   0  0  0  0  0  0  0  0  0  0  0  0
   44.8150   29.8690   44.3470 H   0  0  0  0  0  0  0  0  0  0  0  0
   46.2920   29.1940   43.0760 C   0  0  0  0  0  3  0  0  0  0  0  0
   47.6530   29.1990   42.7830 C   0  0  0  0  0  0  0  0  0  0  0  0
   47.9920   28.6380   41.9220 H   0  0  0  0  0  0  0  0  0  0  0  0
   48.5420   29.8880   43.5550 C   0  0  0  0  0  0  0  0  0  0  0  0
   49.6000   29.9010   43.3390 H   0  0  0  0  0  0  0  0  0  0  0  0
   48.1500   30.6210   44.6680 C   0  0  0  0  0  3  0  0  0  0  0  0
  1  8  1  0  0  0  0
  1  6  1  0  0  0  0
  2  1  2  0  0  0  0
  3  2  1  0  0  0  0
  3  4  2  0  0  0  0
  4  5  1  0  0  0  0
  5  6  2  0  0  0  0
  5  7  1  0  0  0  0
  7  9  1  0  0  0  0
 10  7  1  0  0  0  0
 11 12  1  0  0  0  0
 11 17  1  1  0  0  0
 11  2  1  0  0  0  0
 12 18  1  0  0  0  0
 13 19  1  0  0  0  0
 13 12  2  0  0  0  0
 14 20  1  6  0  0  0
 14 13  1  0  0  0  0
 15 14  1  0  0  0  0
 15 22  1  0  0  0  0
 15 16  1  0  0  0  0
 16 11  1  0  0  0  0
 21 15  1  0  0  0  0
 23 16  1  0  0  0  0
 24 16  1  0  0  0  0
 25 26  1  0  0  0  0
 25 14  1  0  0  0  0
 27 25  1  0  0  0  0
 28 25  1  0  0  0  0
 29  3  1  0  0  0  0
 30 31  1  0  0  0  0
 30 29  2  0  0  0  0
 32 30  1  0  0  0  0
 33 32  2  0  0  0  0
 33 35  1  0  0  0  0
 34 33  1  0  0  0  0
 35 37  2  0  0  0  0
 36 35  1  0  0  0  0
 37 29  1  0  0  0  0
M  END
>  <minimizedAffinity>
-5.65048695

>  <minimizedRMSD>
0.548460543

$$$$
