
 OpenBabel03232520473D

 41 44  0  0  0  0  0  0  0  0999 V2000
   46.5580   34.4580   42.4760 C   0  0  0  0  0  0  0  0  0  0  0  0
   47.8640   34.8280   42.3410 C   0  0  0  0  0  0  0  0  0  0  0  0
   48.5330   34.8200   41.1230 C   0  0  0  0  0  0  0  0  0  0  0  0
   47.8380   34.4120   39.9700 C   0  0  0  0  0  0  0  0  0  0  0  0
   46.5230   34.0380   40.0890 C   0  0  0  0  0  0  0  0  0  0  0  0
   45.9070   34.0670   41.3370 C   0  0  0  0  0  0  0  0  0  0  0  0
   48.4880   35.1590   43.1710 H   0  0  0  0  0  0  0  0  0  0  0  0
   49.5690   35.1150   41.0260 H   0  0  0  0  0  0  0  0  0  0  0  0
   48.2870   34.3780   38.9870 H   0  0  0  0  0  0  0  0  0  0  0  0
   45.9670   33.7210   39.2190 H   0  0  0  0  0  0  0  0  0  0  0  0
   44.5450   33.6730   41.4220 N   0  0  0  0  0  0  0  0  0  0  0  0
   43.7160   34.6740   40.9860 C   0  0  0  0  0  0  0  0  0  0  0  0
   42.3340   34.5070   40.9810 C   0  0  0  0  0  0  0  0  0  0  0  0
   41.8380   33.2950   41.4330 C   0  0  0  0  0  0  0  0  0  0  0  0
   40.5980   33.0790   41.4540 O   0  0  0  0  0  0  0  0  0  0  0  0
   42.6840   32.3450   41.8500 N   0  0  0  0  0  0  0  0  0  0  0  0
   44.0150   32.5180   41.8510 C   0  0  0  0  0  0  0  0  0  0  0  0
   44.8730   31.6890   42.2210 O   0  0  0  0  0  0  0  0  0  0  0  0
   44.0310   35.6340   40.6250 H   0  0  0  0  0  0  0  0  0  0  0  0
   42.3600   31.4030   42.2040 H   0  0  0  0  0  0  0  0  0  0  0  0
   41.4090   35.5740   40.5130 C   0  0  0  0  0  0  0  0  0  0  0  0
   41.8530   36.2640   39.7960 H   0  0  0  0  0  0  0  0  0  0  0  0
   40.4860   35.0990   40.1350 H   0  0  0  0  0  0  0  0  0  0  0  0
   41.1720   36.1810   41.4330 H   0  0  0  0  0  0  0  0  0  0  0  0
   44.5320   35.4010   45.4970 C   0  0  0  0  0  0  0  0  0  0  0  0
   45.0440   35.4660   44.2000 C   0  0  0  0  0  0  0  0  0  0  0  0
   45.9550   34.5040   43.7880 C   0  0  0  0  0  0  0  0  0  0  0  0
   46.2970   33.5530   44.6720 N   0  0  0  0  0  0  0  0  0  0  0  0
   45.7870   33.5090   45.9280 C   0  0  0  0  0  0  0  0  0  0  0  0
   44.9090   34.4310   46.3310 N   0  0  0  0  0  0  0  0  0  0  0  0
   43.8260   36.1840   45.7490 H   0  0  0  0  0  0  0  0  0  0  0  0
   44.8090   36.2030   43.4440 H   0  0  0  0  0  0  0  0  0  0  0  0
   46.2290   32.4290   46.8090 C   0  0  0  0  0  0  0  0  0  0  0  0
   45.6390   31.1820   46.7320 C   0  0  0  0  0  0  0  0  0  0  0  0
   44.8450   30.9660   46.0300 H   0  0  0  0  0  0  0  0  0  0  0  0
   46.0570   30.1600   47.5650 C   0  0  0  0  0  3  0  0  0  0  0  0
   47.0700   30.4740   48.4450 C   0  0  0  0  0  0  0  0  0  0  0  0
   47.4020   29.6840   49.0990 H   0  0  0  0  0  0  0  0  0  0  0  0
   47.7100   31.6990   48.5810 C   0  0  0  0  0  0  0  0  0  0  0  0
   48.4910   31.8230   49.3080 H   0  0  0  0  0  0  0  0  0  0  0  0
   47.2440   32.6910   47.7120 C   0  0  0  0  0  3  0  0  0  0  0  0
  1 27  1  0  0  0  0
  2  1  1  0  0  0  0
  2  7  1  0  0  0  0
  3  2  2  0  0  0  0
  4  5  2  0  0  0  0
  4  3  1  0  0  0  0
  5  6  1  0  0  0  0
  6 11  1  0  0  0  0
  6  1  2  0  0  0  0
  8  3  1  0  0  0  0
  9  4  1  0  0  0  0
 10  5  1  0  0  0  0
 11 17  1  0  0  0  0
 12 11  1  0  0  0  0
 13 12  2  0  0  0  0
 13 14  1  0  0  0  0
 14 15  2  0  0  0  0
 14 16  1  0  0  0  0
 16 17  1  0  0  0  0
 16 20  1  0  0  0  0
 17 18  2  0  0  0  0
 19 12  1  0  0  0  0
 21 13  1  0  0  0  0
 21 24  1  0  0  0  0
 22 21  1  0  0  0  0
 23 21  1  0  0  0  0
 25 31  1  0  0  0  0
 25 30  1  0  0  0  0
 26 25  2  0  0  0  0
 27 26  1  0  0  0  0
 27 28  2  0  0  0  0
 28 29  1  0  0  0  0
 29 30  2  0  0  0  0
 29 33  1  0  0  0  0
 32 26  1  0  0  0  0
 33 41  1  0  0  0  0
 34 33  2  0  0  0  0
 34 36  1  0  0  0  0
 35 34  1  0  0  0  0
 36 37  2  0  0  0  0
 37 39  1  0  0  0  0
 37 38  1  0  0  0  0
 39 40  1  0  0  0  0
 41 39  2  0  0  0  0
M  END
>  <minimizedAffinity>
-7.37724018

>  <minimizedRMSD>
0.65577215

$$$$
