
 OpenBabel03232515583D

 36 38  0  0  0  0  0  0  0  0999 V2000
   47.3210   34.4340   41.9620 C   0  0  0  0  0  0  0  0  0  0  0  0
   44.6890   35.9480   44.2400 C   0  0  0  0  0  0  0  0  0  0  0  0
   45.5110   35.7830   43.1080 C   0  0  0  0  0  0  0  0  0  0  0  0
   46.4190   34.7080   43.0760 C   0  0  0  0  0  0  0  0  0  0  0  0
   46.4440   33.8870   44.1560 N   0  0  0  0  0  0  0  0  0  0  0  0
   45.6390   34.0710   45.2330 C   0  0  0  0  0  0  0  0  0  0  0  0
   44.7640   35.1000   45.2730 N   0  0  0  0  0  0  0  0  0  0  0  0
   44.0240   36.8160   44.1530 H   0  0  0  0  0  0  0  0  0  0  0  0
   45.5020   36.4310   42.2390 H   0  0  0  0  0  0  0  0  0  0  0  0
   45.7040   33.3840   46.0620 H   0  0  0  0  0  0  0  0  0  0  0  0
   46.4460   34.2080   40.7320 C   0  0  0  0  0  0  0  0  0  0  0  0
   45.6880   33.4500   41.0450 H   0  0  0  0  0  0  0  0  0  0  0  0
   47.0660   33.7860   39.9070 H   0  0  0  0  0  0  0  0  0  0  0  0
   45.9170   35.1320   40.4640 H   0  0  0  0  0  0  0  0  0  0  0  0
   48.3510   35.4680   41.6930 C   0  0  0  0  0  0  0  0  0  0  0  0
   48.9750   35.0990   40.8480 H   0  0  0  0  0  0  0  0  0  0  0  0
   48.9670   35.6350   42.5810 H   0  0  0  0  0  0  0  0  0  0  0  0
   47.8540   36.3810   41.3030 H   0  0  0  0  0  0  0  0  0  0  0  0
   48.0250   33.1190   42.2230 C   0  0  0  0  0  0  0  0  0  0  0  0
   47.3270   32.4410   42.7930 H   0  0  0  0  0  0  0  0  0  0  0  0
   48.8500   33.3160   42.9530 H   0  0  0  0  0  0  0  0  0  0  0  0
   48.4710   32.5120   41.0540 O   0  0  0  0  0  0  0  0  0  0  0  0
   49.8210   32.2460   40.8970 C   0  0  0  0  0  0  0  0  0  0  0  0
   50.7150   32.6210   41.8290 N   0  0  0  0  0  0  0  0  0  0  0  0
   51.9120   32.2640   41.4630 O   0  0  0  0  0  0  0  0  0  0  0  0
   51.8590   31.6500   40.2980 C   0  0  0  0  0  0  0  0  0  0  0  0
   50.5650   31.6410   39.9520 N   0  0  0  0  0  0  0  0  0  0  0  0
   52.9840   31.1000   39.5500 C   0  0  0  0  0  0  0  0  0  0  0  0
   53.2630   31.5900   38.2940 C   0  0  0  0  0  0  0  0  0  0  0  0
   52.6780   32.3820   37.8230 H   0  0  0  0  0  0  0  0  0  0  0  0
   54.3070   31.1140   37.5430 C   0  0  0  0  0  0  0  0  0  0  0  0
   55.0720   30.1150   38.0980 C   0  0  0  0  0  0  0  0  0  0  0  0
   55.9170   29.6970   37.5430 H   0  0  0  0  0  0  0  0  0  0  0  0
   54.7970   29.6220   39.3500 C   0  0  0  0  0  0  0  0  0  0  0  0
   55.4310   28.8280   39.7510 H   0  0  0  0  0  0  0  0  0  0  0  0
   53.7400   30.1010   40.1190 C   0  0  0  0  0  0  0  0  0  0  0  0
  1 19  1  0  0  0  0
  1  4  1  0  0  0  0
  2  7  1  0  0  0  0
  3  2  2  0  0  0  0
  4  3  1  0  0  0  0
  4  5  2  0  0  0  0
  5  6  1  0  0  0  0
  6  7  2  0  0  0  0
  6 10  1  0  0  0  0
  8  2  1  0  0  0  0
  9  3  1  0  0  0  0
 11 12  1  0  0  0  0
 11  1  1  0  0  0  0
 13 11  1  0  0  0  0
 14 11  1  0  0  0  0
 15  1  1  0  0  0  0
 15 17  1  0  0  0  0
 16 15  1  0  0  0  0
 18 15  1  0  0  0  0
 19 20  1  0  0  0  0
 19 21  1  0  0  0  0
 22 19  1  0  0  0  0
 23 22  1  0  0  0  0
 23 24  2  0  0  0  0
 25 24  1  0  0  0  0
 26 25  1  0  0  0  0
 27 26  2  0  0  0  0
 27 23  1  0  0  0  0
 28 36  1  0  0  0  0
 28 26  1  0  0  0  0
 29 28  2  0  0  0  0
 30 29  1  0  0  0  0
 31 32  2  0  0  0  0
 31 29  1  0  0  0  0
 32 34  1  0  0  0  0
 33 32  1  0  0  0  0
 34 35  1  0  0  0  0
 34 36  2  0  0  0  0
M  END
>  <minimizedAffinity>
-5.24072456

>  <minimizedRMSD>
0.610475838

$$$$
