
 OpenBabel03232520543D

 35 37  0  0  1  0  0  0  0  0999 V2000
   46.0780   32.5990   44.5050 C   0  0  2  0  0  0  0  0  0  0  0  0
   45.5280   33.7540   45.3020 C   0  0  0  0  0  0  0  0  0  0  0  0
   45.4570   35.0350   44.6470 C   0  0  0  0  0  0  0  0  0  0  0  0
   45.9010   35.1920   43.2700 C   0  0  1  0  0  0  0  0  0  0  0  0
   46.5090   34.0130   42.6110 C   0  0  0  0  0  0  0  0  0  0  0  0
   45.8040   32.7650   43.0520 C   0  0  0  0  0  0  0  0  0  0  0  0
   47.1990   32.6620   44.6470 H   0  0  0  0  0  0  0  0  0  0  0  0
   45.1420   33.9040   46.3010 H   0  0  0  0  0  0  0  0  0  0  0  0
   45.0870   35.9130   45.1160 H   0  0  0  0  0  0  0  0  0  0  0  0
   46.6380   36.0270   43.2510 H   0  0  0  0  0  0  0  0  0  0  0  0
   46.4410   34.1470   41.5090 H   0  0  0  0  0  0  0  0  0  0  0  0
   47.5820   33.9050   42.8510 H   0  0  0  0  0  0  0  0  0  0  0  0
   46.2960   31.9250   42.5210 H   0  0  0  0  0  0  0  0  0  0  0  0
   44.7500   32.7290   42.7760 H   0  0  0  0  0  0  0  0  0  0  0  0
   45.6820   31.2000   46.4750 C   0  0  0  0  0  0  0  0  0  0  0  0
   45.6520   31.3430   45.1010 C   0  0  0  0  0  0  0  0  0  0  0  0
   45.2170   30.2430   44.3600 C   0  0  0  0  0  0  0  0  0  0  0  0
   44.8470   29.1040   44.9760 N   0  0  0  0  0  0  0  0  0  0  0  0
   44.8840   28.9860   46.3350 C   0  0  0  0  0  0  0  0  0  0  0  0
   45.3020   30.0370   47.0750 N   0  0  0  0  0  0  0  0  0  0  0  0
   45.9910   31.9440   47.1940 H   0  0  0  0  0  0  0  0  0  0  0  0
   45.1770   30.3080   43.2820 H   0  0  0  0  0  0  0  0  0  0  0  0
   44.4840   27.7510   47.0030 C   0  0  0  0  0  0  0  0  0  0  0  0
   43.5800   26.9170   46.3680 C   0  0  0  0  0  0  0  0  0  0  0  0
   43.1640   27.1540   45.3940 H   0  0  0  0  0  0  0  0  0  0  0  0
   43.1630   25.7410   46.9420 C   0  0  0  0  0  0  0  0  0  0  0  0
   43.6610   25.3950   48.1760 C   0  0  0  0  0  0  0  0  0  0  0  0
   43.4210   24.4980   48.7500 H   0  0  0  0  0  0  0  0  0  0  0  0
   44.5550   26.2280   48.7970 C   0  0  0  0  0  0  0  0  0  0  0  0
   44.9830   26.0090   49.7710 H   0  0  0  0  0  0  0  0  0  0  0  0
   45.0120   27.4350   48.2560 C   0  0  0  0  0  0  0  0  0  0  0  0
   44.7130   35.6950   42.4430 C   0  0  0  0  0  0  0  0  0  0  0  0
   43.4960   35.3730   43.0100 F   0  0  0  0  0  0  0  0  0  0  0  0
   44.7790   37.0840   42.4180 F   0  0  0  0  0  0  0  0  0  0  0  0
   44.8300   35.2590   41.1370 F   0  0  0  0  0  0  0  0  0  0  0  0
  1  7  1  1  0  0  0
  1 16  1  0  0  0  0
  1  2  1  0  0  0  0
  2  8  1  0  0  0  0
  3  9  1  0  0  0  0
  3  2  2  0  0  0  0
  4 10  1  6  0  0  0
  4  3  1  0  0  0  0
  5 12  1  0  0  0  0
  5  6  1  0  0  0  0
  5  4  1  0  0  0  0
  6  1  1  0  0  0  0
 11  5  1  0  0  0  0
 13  6  1  0  0  0  0
 14  6  1  0  0  0  0
 15 20  1  0  0  0  0
 15 21  1  0  0  0  0
 16 15  2  0  0  0  0
 17 18  2  0  0  0  0
 17 16  1  0  0  0  0
 18 19  1  0  0  0  0
 19 23  1  0  0  0  0
 19 20  2  0  0  0  0
 22 17  1  0  0  0  0
 23 31  1  0  0  0  0
 24 26  1  0  0  0  0
 24 23  2  0  0  0  0
 25 24  1  0  0  0  0
 26 27  2  0  0  0  0
 27 28  1  0  0  0  0
 27 29  1  0  0  0  0
 29 30  1  0  0  0  0
 31 29  2  0  0  0  0
 32 33  1  0  0  0  0
 32  4  1  0  0  0  0
 34 32  1  0  0  0  0
 35 32  1  0  0  0  0
M  END
>  <minimizedAffinity>
-4.66285372

>  <minimizedRMSD>
2.36934185

$$$$
