
 OpenBabel03232520483D

 41 44  0  0  0  0  0  0  0  0999 V2000
   46.4560   34.6360   42.2180 C   0  0  0  0  0  0  0  0  0  0  0  0
   47.7610   35.0060   42.0700 C   0  0  0  0  0  0  0  0  0  0  0  0
   48.4610   34.8580   40.8780 C   0  0  0  0  0  0  0  0  0  0  0  0
   47.8000   34.2990   39.7680 C   0  0  0  0  0  0  0  0  0  0  0  0
   46.4880   33.9230   39.9020 C   0  0  0  0  0  0  0  0  0  0  0  0
   45.8400   34.0970   41.1210 C   0  0  0  0  0  0  0  0  0  0  0  0
   48.3600   35.4460   42.8660 H   0  0  0  0  0  0  0  0  0  0  0  0
   49.4950   35.1540   40.7700 H   0  0  0  0  0  0  0  0  0  0  0  0
   48.2750   34.1510   38.8080 H   0  0  0  0  0  0  0  0  0  0  0  0
   45.9580   33.4930   39.0650 H   0  0  0  0  0  0  0  0  0  0  0  0
   44.4810   33.6960   41.2220 N   0  0  0  0  0  0  0  0  0  0  0  0
   43.6480   34.6470   40.6920 C   0  0  0  0  0  0  0  0  0  0  0  0
   42.2670   34.4640   40.6840 C   0  0  0  0  0  0  0  0  0  0  0  0
   41.7780   33.2890   41.2300 C   0  0  0  0  0  0  0  0  0  0  0  0
   40.5400   33.0610   41.2540 O   0  0  0  0  0  0  0  0  0  0  0  0
   42.6280   32.3880   41.7370 N   0  0  0  0  0  0  0  0  0  0  0  0
   43.9570   32.5750   41.7400 C   0  0  0  0  0  0  0  0  0  0  0  0
   44.8190   31.7900   42.1910 O   0  0  0  0  0  0  0  0  0  0  0  0
   43.9570   35.5760   40.2550 H   0  0  0  0  0  0  0  0  0  0  0  0
   42.3090   31.4750   42.1660 H   0  0  0  0  0  0  0  0  0  0  0  0
   41.3370   35.4770   40.1150 C   0  0  0  0  0  0  0  0  0  0  0  0
   41.7840   36.1090   39.3480 H   0  0  0  0  0  0  0  0  0  0  0  0
   40.4240   34.9610   39.7670 H   0  0  0  0  0  0  0  0  0  0  0  0
   41.0820   36.1570   40.9780 H   0  0  0  0  0  0  0  0  0  0  0  0
   44.4130   35.9680   45.0760 C   0  0  0  0  0  0  0  0  0  0  0  0
   44.9660   35.8870   43.7970 C   0  0  0  0  0  0  0  0  0  0  0  0
   45.8200   34.8340   43.5000 C   0  0  0  0  0  0  0  0  0  0  0  0
   46.0690   33.9420   44.4710 N   0  0  0  0  0  0  0  0  0  0  0  0
   45.5200   34.0400   45.7080 C   0  0  0  0  0  0  0  0  0  0  0  0
   44.6970   35.0510   46.0010 N   0  0  0  0  0  0  0  0  0  0  0  0
   43.7560   36.8150   45.2370 H   0  0  0  0  0  0  0  0  0  0  0  0
   44.8060   36.5700   42.9740 H   0  0  0  0  0  0  0  0  0  0  0  0
   45.8600   33.0130   46.6910 C   0  0  0  0  0  0  0  0  0  0  0  0
   45.0820   32.8460   47.8200 C   0  0  0  0  0  0  0  0  0  0  0  0
   44.2110   33.4590   48.0140 H   0  0  0  0  0  0  0  0  0  0  0  0
   45.4020   31.8750   48.7520 C   0  0  0  0  0  0  0  0  0  0  0  0
   46.5190   31.1140   48.4710 C   0  0  0  0  0  0  0  0  0  0  0  0
   46.7760   30.3540   49.1920 H   0  0  0  0  0  0  0  0  0  0  0  0
   47.3460   31.2220   47.3630 C   0  0  0  0  0  0  0  0  0  0  0  0
   48.1920   30.5690   47.2540 H   0  0  0  0  0  0  0  0  0  0  0  0
   46.9700   32.2220   46.4580 C   0  0  0  0  0  0  0  0  0  0  0  0
  1 27  1  0  0  0  0
  2  1  1  0  0  0  0
  2  7  1  0  0  0  0
  3  2  2  0  0  0  0
  4  5  2  0  0  0  0
  4  3  1  0  0  0  0
  5  6  1  0  0  0  0
  6 11  1  0  0  0  0
  6  1  2  0  0  0  0
  8  3  1  0  0  0  0
  9  4  1  0  0  0  0
 10  5  1  0  0  0  0
 11 17  1  0  0  0  0
 12 11  1  0  0  0  0
 13 12  2  0  0  0  0
 13 14  1  0  0  0  0
 14 15  2  0  0  0  0
 14 16  1  0  0  0  0
 16 17  1  0  0  0  0
 16 20  1  0  0  0  0
 17 18  2  0  0  0  0
 19 12  1  0  0  0  0
 21 13  1  0  0  0  0
 21 24  1  0  0  0  0
 22 21  1  0  0  0  0
 23 21  1  0  0  0  0
 25 31  1  0  0  0  0
 25 30  1  0  0  0  0
 26 25  2  0  0  0  0
 27 26  1  0  0  0  0
 27 28  2  0  0  0  0
 28 29  1  0  0  0  0
 29 30  2  0  0  0  0
 29 33  1  0  0  0  0
 32 26  1  0  0  0  0
 33 34  1  0  0  0  0
 34 35  1  0  0  0  0
 34 36  2  0  0  0  0
 37 36  1  0  0  0  0
 37 38  1  0  0  0  0
 39 37  2  0  0  0  0
 40 39  1  0  0  0  0
 41 33  2  0  0  0  0
 41 39  1  0  0  0  0
M  END
>  <minimizedAffinity>
-7.89999533

>  <minimizedRMSD>
0.375772506

$$$$
