
     RDKit          3D

 43 46  0  0  0  0  0  0  0  0999 V2000
   46.4099   34.6661   42.1828 C   0  0  0  0  0  0  0  0  0  0  0  0
   47.7195   35.0193   42.0316 C   0  0  0  0  0  0  0  0  0  0  0  0
   48.4247   34.8286   40.8505 C   0  0  0  0  0  0  0  0  0  0  0  0
   47.7657   34.2444   39.7528 C   0  0  0  0  0  0  0  0  0  0  0  0
   46.4493   33.8841   39.8895 C   0  0  0  0  0  0  0  0  0  0  0  0
   45.7952   34.1005   41.0993 C   0  0  0  0  0  0  0  0  0  0  0  0
   44.4324   33.7151   41.2034 N   0  0  0  0  0  0  0  0  0  0  0  0
   43.6093   34.6730   40.6683 C   0  0  0  0  0  0  0  0  0  0  0  0
   42.2275   34.5059   40.6618 C   0  0  0  0  0  0  0  0  0  0  0  0
   41.3079   35.5261   40.0894 C   0  0  0  0  0  0  0  0  0  0  0  0
   41.7246   33.3387   41.2152 C   0  0  0  0  0  0  0  0  0  0  0  0
   40.4838   33.1253   41.2411 O   0  0  0  0  0  0  0  0  0  0  0  0
   42.5646   32.4306   41.7263 N   0  0  0  0  0  0  0  0  0  0  0  0
   43.8961   32.6029   41.7269 C   0  0  0  0  0  0  0  0  0  0  0  0
   44.7493   31.8109   42.1806 O   0  0  0  0  0  0  0  0  0  0  0  0
   44.4233   36.1408   45.0103 C   0  0  0  0  0  0  0  0  0  0  0  0
   44.9911   36.0220   43.7414 C   0  0  0  0  0  0  0  0  0  0  0  0
   45.7678   34.9082   43.4541 C   0  0  0  0  0  0  0  0  0  0  0  0
   45.9306   33.9971   44.4262 N   0  0  0  0  0  0  0  0  0  0  0  0
   45.3690   34.1330   45.6531 C   0  0  0  0  0  0  0  0  0  0  0  0
   44.6203   35.2024   45.9362 N   0  0  0  0  0  0  0  0  0  0  0  0
   48.3167   35.4770   42.8192 H   0  0  0  0  0  0  0  0  0  0  0  0
   49.4631   35.1120   40.7403 H   0  0  0  0  0  0  0  0  0  0  0  0
   48.2450   34.0631   38.8007 H   0  0  0  0  0  0  0  0  0  0  0  0
   45.9201   33.4336   39.0619 H   0  0  0  0  0  0  0  0  0  0  0  0
   43.9290   35.5957   40.2258 H   0  0  0  0  0  0  0  0  0  0  0  0
   41.7606   36.1489   39.3179 H   0  0  0  0  0  0  0  0  0  0  0  0
   40.3888   35.0191   39.7436 H   0  0  0  0  0  0  0  0  0  0  0  0
   41.0606   36.2131   40.9484 H   0  0  0  0  0  0  0  0  0  0  0  0
   42.2360   31.5237   42.1603 H   0  0  0  0  0  0  0  0  0  0  0  0
   43.8303   37.0351   45.1626 H   0  0  0  0  0  0  0  0  0  0  0  0
   44.8985   36.7175   42.9184 H   0  0  0  0  0  0  0  0  0  0  0  0
   45.6116   33.0800   46.6376 C   0  0  0  0  0  0  0  0  0  0  0  0
   44.7570   31.9992   46.7269 C   0  0  0  0  0  0  0  0  0  0  0  0
   43.8935   31.8957   46.0831 H   0  0  0  0  0  0  0  0  0  0  0  0
   44.9854   31.0018   47.6582 C   0  0  0  0  0  0  0  0  0  0  0  0
   46.0950   31.1687   48.4604 C   0  0  0  0  0  0  0  0  0  0  0  0
   46.2817   30.3966   49.1895 H   0  0  0  0  0  0  0  0  0  0  0  0
   46.9969   32.2226   48.4304 C   0  0  0  0  0  0  0  0  0  0  0  0
   47.8289   32.2416   49.1105 H   0  0  0  0  0  0  0  0  0  0  0  0
   46.7122   33.1978   47.4686 C   0  0  0  0  0  0  0  0  0  0  0  0
   44.3563   30.1438   47.7703 H   0  0  0  0  0  0  0  0  0  0  0  0
   47.3916   34.0400   47.4101 H   0  0  0  0  0  0  0  0  0  0  0  0
  1 18  1  0
  2  1  2  0
  3  2  1  0
  4  5  1  0
  4  3  2  0
  5  6  2  0
  6  7  1  0
  6  1  1  0
  7 14  1  0
  8  7  1  0
  9  8  2  0
  9 11  1  0
 10  9  1  0
 11 12  2  0
 11 13  1  0
 14 13  1  0
 14 15  2  0
 16 21  2  0
 17 16  1  0
 18 17  2  0
 18 19  1  0
 19 20  2  0
 20 21  1  0
  2 22  1  0
  3 23  1  0
  4 24  1  0
  5 25  1  0
  8 26  1  0
 10 27  1  0
 10 28  1  0
 10 29  1  0
 13 30  1  0
 16 31  1  0
 17 32  1  0
 33 34  2  0
 34 35  1  0
 34 36  1  0
 36 37  2  0
 37 38  1  0
 37 39  1  0
 39 40  1  0
 39 41  2  0
 41 33  1  0
 36 42  1  0
 41 43  1  0
 20 33  1  0
M  ISO  8  22  14  23  14  24  14  25  14  26  14  27   8  28   8  29   8
M  ISO  6  30   9  31  14  32  14  35  16  38  16  40  16
M  END
>  <DihAtoms>  (1) 
18,19,32,33

>  <DihDeg>  (1) 
-179.9997857702311

$$$$
