
 OpenBabel03232513523D

 25 27  0  0  0  0  0  0  0  0999 V2000
   43.9670   35.1190   42.0420 C   0  0  0  0  0  0  0  0  0  0  0  0
   42.9550   34.2700   41.5290 C   0  0  0  0  0  0  0  0  0  0  0  0
   43.0230   32.8890   41.7250 C   0  0  0  0  0  0  0  0  0  0  0  0
   44.1000   32.4130   42.4190 N   0  0  0  0  0  0  0  0  0  0  0  0
   45.0670   33.2380   42.9050 C   0  0  0  0  0  0  0  0  0  0  0  0
   44.9930   34.5780   42.7130 N   0  0  0  0  0  0  0  0  0  0  0  0
   43.8670   36.1780   41.8660 H   0  0  0  0  0  0  0  0  0  0  0  0
   45.8940   32.7870   43.4480 H   0  0  0  0  0  0  0  0  0  0  0  0
   41.8970   34.8900   40.7920 N   0  0  0  0  0  0  0  0  0  0  0  0
   40.7060   35.3990   41.2540 C   0  0  0  0  0  0  0  0  0  0  0  0
   40.0250   35.8910   40.2040 N   0  0  0  0  0  0  0  0  0  0  0  0
   40.7890   35.6910   39.0880 C   0  0  0  0  0  0  0  0  0  0  0  0
   41.9410   35.0730   39.4700 N   0  0  0  0  0  0  0  0  0  0  0  0
   40.4290   35.3710   42.3110 H   0  0  0  0  0  0  0  0  0  0  0  0
   40.6010   35.9430   38.0450 H   0  0  0  0  0  0  0  0  0  0  0  0
   39.8690   30.2250   40.7350 C   0  0  0  0  0  0  0  0  0  0  0  0
   40.0600   30.7520   41.9950 C   0  0  0  0  0  0  0  0  0  0  0  0
   41.1310   31.6130   42.2220 C   0  0  0  0  0  0  0  0  0  0  0  0
   42.0200   31.9660   41.2300 C   0  0  0  0  0  0  0  0  0  0  0  0
   41.8230   31.4370   39.9740 C   0  0  0  0  0  0  0  0  0  0  0  0
   40.7650   30.5860   39.7530 C   0  0  0  0  0  0  0  0  0  0  0  0
   37.3720   29.7740   40.4260 H   0  0  0  0  0  0  0  0  0  0  0  0
   38.5640   29.1300   40.3110 S   0  0  0  0  0  0  0  0  0  0  0  0
   38.5700   27.9700   41.2580 O   0  0  0  0  0  0  0  0  0  0  0  0
   38.7090   28.6500   38.8840 O   0  0  0  0  0  0  0  0  0  0  0  0
  1  6  1  0  0  0  0
  2  3  1  0  0  0  0
  2  1  2  0  0  0  0
  3  4  2  0  0  0  0
  4  5  1  0  0  0  0
  5  8  1  0  0  0  0
  6  5  2  0  0  0  0
  7  1  1  0  0  0  0
  9 10  1  0  0  0  0
  9  2  1  0  0  0  0
 10 14  1  0  0  0  0
 11 10  2  0  0  0  0
 12 13  2  0  0  0  0
 12 11  1  0  0  0  0
 13  9  1  0  0  0  0
 15 12  1  0  0  0  0
 16 17  1  0  0  0  0
 17 18  2  0  0  0  0
 19  3  1  0  0  0  0
 19 18  1  0  0  0  0
 20 19  2  0  0  0  0
 21 20  1  0  0  0  0
 21 16  2  0  0  0  0
 23 22  1  0  0  0  0
 23 16  1  0  0  0  0
 23 24  2  0  0  0  0
 25 23  2  0  0  0  0
M  END
>  <minimizedAffinity>
-3.90451241

>  <minimizedRMSD>
3.85036397

$$$$
