
 OpenBabel03232518443D

 26 27  0  0  0  0  0  0  0  0999 V2000
   45.1330   34.9380   44.5760 C   0  0  0  0  0  0  0  0  0  0  0  0
   46.0820   34.5830   43.6180 C   0  0  0  0  0  0  0  0  0  0  0  0
   46.9550   33.5800   43.9300 C   0  0  0  0  0  0  0  0  0  0  0  0
   46.8380   32.9850   45.1680 N   0  0  0  0  0  0  0  0  0  0  0  0
   45.9220   33.3380   46.0720 C   0  0  0  0  0  0  0  0  0  0  0  0
   45.0720   34.3180   45.7660 N   0  0  0  0  0  0  0  0  0  0  0  0
   44.4350   35.7330   44.3420 H   0  0  0  0  0  0  0  0  0  0  0  0
   50.3150   32.2110   41.6910 C   0  0  0  0  0  0  0  0  0  0  0  0
   50.2890   33.4270   42.2990 C   0  0  0  0  0  0  0  0  0  0  0  0
   49.1530   33.7630   43.0130 C   0  0  0  0  0  0  0  0  0  0  0  0
   48.0070   32.9680   43.1770 C   0  0  0  0  0  0  0  0  0  0  0  0
   48.1400   31.7670   42.5230 C   0  0  0  0  0  0  0  0  0  0  0  0
   49.2340   31.3720   41.8020 C   0  0  0  0  0  0  0  0  0  0  0  0
   52.6720   32.6460   40.9060 H   0  0  0  0  0  0  0  0  0  0  0  0
   51.7010   31.6840   40.7640 S   0  0  0  0  0  0  0  0  0  0  0  0
   52.2270   30.4030   41.2880 O   0  0  0  0  0  0  0  0  0  0  0  0
   51.2910   31.5200   39.3290 O   0  0  0  0  0  0  0  0  0  0  0  0
   46.1090   35.2470   42.3080 C   0  0  0  0  0  0  0  0  0  0  0  0
   44.9930   36.0890   42.2450 F   0  0  0  0  0  0  0  0  0  0  0  0
   45.9140   34.3600   41.2610 F   0  0  0  0  0  0  0  0  0  0  0  0
   47.2440   35.9460   42.0900 F   0  0  0  0  0  0  0  0  0  0  0  0
   45.8060   32.7430   47.3120 O   0  0  0  0  0  0  0  0  0  0  0  0
   46.8720   32.1060   47.9790 C   0  0  0  0  0  0  0  0  0  0  0  0
   47.9590   32.9210   48.1470 F   0  0  0  0  0  0  0  0  0  0  0  0
   47.1650   30.9140   47.3820 F   0  0  0  0  0  0  0  0  0  0  0  0
   46.4270   31.8570   49.2940 F   0  0  0  0  0  0  0  0  0  0  0  0
  1  6  1  0  0  0  0
  2  3  1  0  0  0  0
  2  1  2  0  0  0  0
  3  4  2  0  0  0  0
  4  5  1  0  0  0  0
  5 22  1  0  0  0  0
  6  5  2  0  0  0  0
  7  1  1  0  0  0  0
  8 13  2  0  0  0  0
  8  9  1  0  0  0  0
  9 10  2  0  0  0  0
 10 11  1  0  0  0  0
 11  3  1  0  0  0  0
 12 11  2  0  0  0  0
 13 12  1  0  0  0  0
 15 14  1  0  0  0  0
 15 16  2  0  0  0  0
 15  8  1  0  0  0  0
 17 15  2  0  0  0  0
 18  2  1  0  0  0  0
 19 18  1  0  0  0  0
 20 18  1  0  0  0  0
 21 18  1  0  0  0  0
 22 23  1  0  0  0  0
 23 24  1  0  0  0  0
 23 26  1  0  0  0  0
 25 23  1  0  0  0  0
M  END
>  <minimizedAffinity>
-5.75136614

>  <minimizedRMSD>
1.22892022

$$$$
