
 OpenBabel03232520583D

 38 40  0  0  1  0  0  0  0  0999 V2000
   45.3780   32.8830   47.6030 C   0  0  0  0  0  0  0  0  0  0  0  0
   45.8940   32.6180   46.3680 C   0  0  0  0  0  0  0  0  0  0  0  0
   46.1280   31.2610   46.1050 C   0  0  0  0  0  0  0  0  0  0  0  0
   45.8640   30.2890   46.9930 N   0  0  0  0  0  0  0  0  0  0  0  0
   45.3420   30.6040   48.2300 C   0  0  0  0  0  0  0  0  0  0  0  0
   45.1120   31.8810   48.5100 N   0  0  0  0  0  0  0  0  0  0  0  0
   45.0700   29.5930   49.1890 N   0  0  0  0  0  0  0  0  0  0  0  0
   45.1690   33.8990   47.8950 H   0  0  0  0  0  0  0  0  0  0  0  0
   45.9780   29.6690   49.7290 H   0  0  0  0  0  0  0  0  0  0  0  0
   44.1200   29.3350   48.8260 H   0  0  0  0  0  0  0  0  0  0  0  0
   46.1220   33.5800   45.3400 C   0  0  2  0  0  0  0  0  0  0  0  0
   44.9710   34.6670   45.5380 C   0  0  0  0  0  0  0  0  0  0  0  0
   44.7430   35.5800   44.4480 C   0  0  0  0  0  0  0  0  0  0  0  0
   45.5180   35.4940   43.2330 C   0  0  1  0  0  0  0  0  0  0  0  0
   46.6090   34.4920   43.2100 C   0  0  0  0  0  0  0  0  0  0  0  0
   46.1190   33.2580   43.9550 C   0  0  0  0  0  0  0  0  0  0  0  0
   46.9460   34.2910   45.6530 H   0  0  0  0  0  0  0  0  0  0  0  0
   44.2760   34.9140   46.3190 H   0  0  0  0  0  0  0  0  0  0  0  0
   44.0060   36.3350   44.4800 H   0  0  0  0  0  0  0  0  0  0  0  0
   45.9470   36.4900   42.9860 H   0  0  0  0  0  0  0  0  0  0  0  0
   47.4680   34.8870   43.7930 H   0  0  0  0  0  0  0  0  0  0  0  0
   46.9500   34.2940   42.1970 H   0  0  0  0  0  0  0  0  0  0  0  0
   45.0060   33.2070   43.6260 H   0  0  0  0  0  0  0  0  0  0  0  0
   46.5580   32.4550   43.4390 H   0  0  0  0  0  0  0  0  0  0  0  0
   44.5390   35.2000   42.0690 C   0  0  0  0  0  0  0  0  0  0  0  0
   43.5120   34.3550   42.4330 F   0  0  0  0  0  0  0  0  0  0  0  0
   43.9480   36.4180   41.7400 F   0  0  0  0  0  0  0  0  0  0  0  0
   45.2430   34.7830   40.9540 F   0  0  0  0  0  0  0  0  0  0  0  0
   48.0070   29.1200   42.9380 C   0  0  0  0  0  0  0  0  0  0  0  0
   46.6370   29.1320   43.0290 C   0  0  0  0  0  3  0  0  0  0  0  0
   46.0050   29.8430   44.0270 C   0  0  0  0  0  3  0  0  0  0  0  0
   46.7180   30.5670   44.9660 C   0  0  0  0  0  0  0  0  0  0  0  0
   48.1190   30.4990   44.7960 C   0  0  0  0  0  3  0  0  0  0  0  0
   48.8050   29.8070   43.8240 C   0  0  0  0  0  3  0  0  0  0  0  0
   50.0240   28.8230   41.3420 H   0  0  0  0  0  0  0  0  0  0  0  0
   48.8410   28.2150   41.6680 S   0  0  0  0  0  0  0  0  0  0  0  0
   49.1250   26.8570   42.2210 O   0  0  0  0  0  0  0  0  0  0  0  0
   48.0080   28.1610   40.4340 O   0  0  0  0  0  0  0  0  0  0  0  0
  1  8  1  0  0  0  0
  1  6  1  0  0  0  0
  2  1  2  0  0  0  0
  3  2  1  0  0  0  0
  3  4  2  0  0  0  0
  4  5  1  0  0  0  0
  5  6  2  0  0  0  0
  5  7  1  0  0  0  0
  7  9  1  0  0  0  0
 10  7  1  0  0  0  0
 11 12  1  0  0  0  0
 11 17  1  1  0  0  0
 11  2  1  0  0  0  0
 12 18  1  0  0  0  0
 13 19  1  0  0  0  0
 13 12  2  0  0  0  0
 14 20  1  6  0  0  0
 14 13  1  0  0  0  0
 15 14  1  0  0  0  0
 15 21  1  0  0  0  0
 15 16  1  0  0  0  0
 16 11  1  0  0  0  0
 22 15  1  0  0  0  0
 23 16  1  0  0  0  0
 24 16  1  0  0  0  0
 25 26  1  0  0  0  0
 25 14  1  0  0  0  0
 27 25  1  0  0  0  0
 28 25  1  0  0  0  0
 29 30  2  0  0  0  0
 29 34  1  0  0  0  0
 30 31  1  0  0  0  0
 31 32  2  0  0  0  0
 32  3  1  0  0  0  0
 33 32  1  0  0  0  0
 34 33  2  0  0  0  0
 35 36  1  0  0  0  0
 36 37  2  0  0  0  0
 36 29  1  0  0  0  0
 38 36  2  0  0  0  0
M  END
>  <minimizedAffinity>
-5.45900774

>  <minimizedRMSD>
0.344300061

$$$$
