REMARK  Name = 
REMARK  4 active torsions:
REMARK  status: ('A' for Active; 'I' for Inactive)
REMARK    1  A    between atoms: C_1  and  C_8
REMARK    2  A    between atoms: C_4  and  C_14
REMARK    3  A    between atoms: C_9  and  C_36
REMARK    4  A    between atoms: S_30  and  C_33
REMARK                            x       y       z     vdW  Elec       q    Type
REMARK                         _______ _______ _______ _____ _____    ______ ____
ROOT
ATOM      1  C   UNL     1      45.324  32.919  47.541  0.00  0.00    +0.000 A 
ATOM      2  C   UNL     1      45.928  32.681  46.341  0.00  0.00    +0.000 A 
ATOM      3  C   UNL     1      46.278  31.343  46.111  0.00  0.00    +0.000 A 
ATOM      4  N   UNL     1      46.037  30.363  46.997  0.00  0.00    +0.000 NA
ATOM      5  C   UNL     1      45.423  30.650  48.198  0.00  0.00    +0.000 A 
ATOM      6  N   UNL     1      45.082  31.909  48.446  0.00  0.00    +0.000 NA
ATOM      7  N   UNL     1      45.174  29.631  49.155  0.00  0.00    +0.000 N 
ATOM      8  H   UNL     1      45.023  33.919  47.806  0.00  0.00    +0.000 HD
ATOM      9  H   UNL     1      46.041  29.781  49.744  0.00  0.00    +0.000 HD
ATOM     10  H   UNL     1      44.268  29.299  48.743  0.00  0.00    +0.000 HD
ENDROOT
BRANCH   2  11
ATOM     11  C   UNL     1      46.141  33.647  45.313  0.00  0.00    +0.000 C 
ATOM     12  C   UNL     1      44.940  34.684  45.474  0.00  0.00    +0.000 C 
ATOM     13  C   UNL     1      44.701  35.581  44.373  0.00  0.00    +0.000 C 
ATOM     14  C   UNL     1      45.511  35.523  43.180  0.00  0.00    +0.000 C 
ATOM     15  C   UNL     1      46.645  34.569  43.192  0.00  0.00    +0.000 C 
ATOM     16  C   UNL     1      46.189  33.319  43.931  0.00  0.00    +0.000 C 
ATOM     17  H   UNL     1      46.925  34.395  45.644  0.00  0.00    +0.000 HD
ATOM     18  H   UNL     1      44.214  34.905  46.235  0.00  0.00    +0.000 HD
ATOM     19  H   UNL     1      43.932  36.303  44.381  0.00  0.00    +0.000 HD
ATOM     20  H   UNL     1      45.903  36.535  42.938  0.00  0.00    +0.000 HD
ATOM     21  H   UNL     1      47.470  35.004  43.795  0.00  0.00    +0.000 HD
ATOM     22  H   UNL     1      47.021  34.381  42.189  0.00  0.00    +0.000 HD
ATOM     23  H   UNL     1      45.089  33.218  43.573  0.00  0.00    +0.000 HD
ATOM     24  H   UNL     1      46.676  32.533  43.431  0.00  0.00    +0.000 HD
BRANCH  14  25
ATOM     25  C   UNL     1      44.577  35.181  41.992  0.00  0.00    +0.000 C 
ATOM     26  F   UNL     1      43.586  34.284  42.331  0.00  0.00    +0.000 F 
ATOM     27  F   UNL     1      43.933  36.368  41.649  0.00  0.00    +0.000 F 
ATOM     28  F   UNL     1      45.329  34.802  40.894  0.00  0.00    +0.000 F 
ENDBRANCH  14  25
ENDBRANCH   2  11
BRANCH   3  32
ATOM     29  C   UNL     1      48.134  29.460  42.770  0.00  0.00    +0.000 A 
ATOM     30  C   UNL     1      48.820  30.415  43.479  0.00  0.00    +0.000 A 
ATOM     31  C   UNL     1      48.254  31.016  44.583  0.00  0.00    +0.000 A 
ATOM     32  C   UNL     1      46.982  30.684  45.017  0.00  0.00    +0.000 A 
ATOM     33  C   UNL     1      46.350  29.695  44.231  0.00  0.00    +0.000 A 
ATOM     34  C   UNL     1      46.864  29.061  43.123  0.00  0.00    +0.000 A 
BRANCH  29  36
ATOM     35  H   UNL     1      48.250  27.458  41.133  0.00  0.00    +0.000 HD
ATOM     36  S   UNL     1      48.838  28.675  41.352  0.00  0.00    +0.000 S 
ATOM     37  O   UNL     1      48.567  29.566  40.185  0.00  0.00    +0.000 OA
ATOM     38  O   UNL     1      50.296  28.440  41.558  0.00  0.00    +0.000 OA
ENDBRANCH  29  36
ENDBRANCH   3  32
TORSDOF 4
