
 OpenBabel03232519313D

 41 43  0  0  1  0  0  0  0  0999 V2000
   47.0540   34.5250   40.8180 C   0  0  1  0  0  0  0  0  0  0  0  0
   48.3200   34.2730   39.9740 C   0  0  0  0  0  0  0  0  0  0  0  0
   47.8700   34.1900   38.5380 C   0  0  0  0  0  0  0  0  0  0  0  0
   47.0010   32.9840   38.3450 C   0  0  0  0  0  0  0  0  0  0  0  0
   46.6560   32.3410   39.6570 C   0  0  0  0  0  0  0  0  0  0  0  0
   46.1600   33.3570   40.6900 C   0  0  2  0  0  0  0  0  0  0  0  0
   46.5680   35.4470   40.4720 H   0  0  0  0  0  0  0  0  0  0  0  0
   49.0420   35.1040   40.1160 H   0  0  0  0  0  0  0  0  0  0  0  0
   48.7600   33.3250   40.2870 H   0  0  0  0  0  0  0  0  0  0  0  0
   48.8230   34.0290   37.9520 H   0  0  0  0  0  0  0  0  0  0  0  0
   47.4720   35.1320   38.1520 H   0  0  0  0  0  0  0  0  0  0  0  0
   46.0690   33.2220   37.7830 H   0  0  0  0  0  0  0  0  0  0  0  0
   47.5130   32.2140   37.7300 H   0  0  0  0  0  0  0  0  0  0  0  0
   45.8280   31.6280   39.4780 H   0  0  0  0  0  0  0  0  0  0  0  0
   47.5090   31.7320   40.0580 H   0  0  0  0  0  0  0  0  0  0  0  0
   46.1970   32.7520   41.6460 H   0  0  0  0  0  0  0  0  0  0  0  0
   42.0950   34.1900   39.4720 C   0  0  0  0  0  0  0  0  0  0  0  0
   42.6980   32.9940   39.1490 C   0  0  0  0  0  0  0  0  0  0  0  0
   43.9880   32.7580   39.5430 C   0  0  0  0  0  0  0  0  0  0  0  0
   44.7660   33.6370   40.2580 C   0  0  0  0  0  0  0  0  0  0  0  0
   44.0950   34.8340   40.5550 C   0  0  0  0  0  0  0  0  0  0  0  0
   42.8010   35.1240   40.1840 C   0  0  0  0  0  0  0  0  0  0  0  0
   39.7370   33.3370   39.0170 H   0  0  0  0  0  0  0  0  0  0  0  0
   40.4590   34.5230   38.9880 S   0  0  0  0  0  0  0  0  0  0  0  0
   39.7840   35.4510   39.9610 O   0  0  0  0  0  0  0  0  0  0  0  0
   40.4210   35.1370   37.6300 O   0  0  0  0  0  0  0  0  0  0  0  0
   47.5090   34.7730   42.2690 C   0  0  0  0  0  0  0  0  0  0  0  0
   47.2990   35.7700   42.6120 H   0  0  0  0  0  0  0  0  0  0  0  0
   48.6460   34.7070   42.2360 H   0  0  0  0  0  0  0  0  0  0  0  0
   46.9580   33.6270   43.0740 C   0  0  0  0  0  0  0  0  0  0  0  0
   46.2770   32.9750   42.4550 H   0  0  0  0  0  0  0  0  0  0  0  0
   47.7910   33.0200   43.5050 H   0  0  0  0  0  0  0  0  0  0  0  0
   46.1120   33.4390   45.3510 C   0  0  0  0  0  0  0  0  0  0  0  0
   46.1160   34.1250   44.1220 C   0  0  0  0  0  0  0  0  0  0  0  0
   45.3080   35.2250   43.9620 C   0  0  0  0  0  0  0  0  0  0  0  0
   44.5320   35.5980   45.0250 N   0  0  0  0  0  0  0  0  0  0  0  0
   44.5340   34.9320   46.2050 C   0  0  0  0  0  0  0  0  0  0  0  0
   45.3290   33.8460   46.3660 N   0  0  0  0  0  0  0  0  0  0  0  0
   46.7490   32.5750   45.4720 H   0  0  0  0  0  0  0  0  0  0  0  0
   45.1950   35.8430   43.0890 H   0  0  0  0  0  0  0  0  0  0  0  0
   43.8770   35.3090   46.9920 H   0  0  0  0  0  0  0  0  0  0  0  0
  1  7  1  6  0  0  0
  1 27  1  0  0  0  0
  2  8  1  0  0  0  0
  2  9  1  0  0  0  0
  2  1  1  0  0  0  0
  3  2  1  0  0  0  0
  4  3  1  0  0  0  0
  4  5  1  0  0  0  0
  5 15  1  0  0  0  0
  5  6  1  0  0  0  0
  6  1  1  0  0  0  0
  6 16  1  1  0  0  0
 10  3  1  0  0  0  0
 11  3  1  0  0  0  0
 12  4  1  0  0  0  0
 13  4  1  0  0  0  0
 14  5  1  0  0  0  0
 17 22  1  0  0  0  0
 18 17  2  0  0  0  0
 18 19  1  0  0  0  0
 19 20  2  0  0  0  0
 20 21  1  0  0  0  0
 20  6  1  0  0  0  0
 22 21  2  0  0  0  0
 24 23  1  0  0  0  0
 24 17  1  0  0  0  0
 24 25  2  0  0  0  0
 26 24  2  0  0  0  0
 27 28  1  0  0  0  0
 27 30  1  0  0  0  0
 29 27  1  0  0  0  0
 30 32  1  0  0  0  0
 30 34  1  0  0  0  0
 31 30  1  0  0  0  0
 33 39  1  0  0  0  0
 33 38  1  0  0  0  0
 34 33  2  0  0  0  0
 35 34  1  0  0  0  0
 35 36  2  0  0  0  0
 36 37  1  0  0  0  0
 37 38  2  0  0  0  0
 37 41  1  0  0  0  0
 40 35  1  0  0  0  0
M  END
>  <minimizedAffinity>
-5.38711977

>  <minimizedRMSD>
3.18067002

$$$$
