
 OpenBabel03232520583D

 38 40  0  0  1  0  0  0  0  0999 V2000
   45.3050   32.8620   47.5310 C   0  0  0  0  0  0  0  0  0  0  0  0
   45.8950   32.6240   46.3240 C   0  0  0  0  0  0  0  0  0  0  0  0
   46.2170   31.2820   46.0790 C   0  0  0  0  0  0  0  0  0  0  0  0
   45.9640   30.2980   46.9580 N   0  0  0  0  0  0  0  0  0  0  0  0
   45.3650   30.5860   48.1670 C   0  0  0  0  0  0  0  0  0  0  0  0
   45.0510   31.8490   48.4290 N   0  0  0  0  0  0  0  0  0  0  0  0
   45.1040   29.5630   49.1170 N   0  0  0  0  0  0  0  0  0  0  0  0
   45.0260   33.8650   47.8080 H   0  0  0  0  0  0  0  0  0  0  0  0
   45.9790   29.6910   49.7000 H   0  0  0  0  0  0  0  0  0  0  0  0
   44.1890   29.2520   48.7090 H   0  0  0  0  0  0  0  0  0  0  0  0
   46.1180   33.5950   45.3040 C   0  0  2  0  0  0  0  0  0  0  0  0
   44.9770   34.6870   45.5240 C   0  0  0  0  0  0  0  0  0  0  0  0
   44.7430   35.6120   44.4450 C   0  0  0  0  0  0  0  0  0  0  0  0
   45.5060   35.5340   43.2230 C   0  0  1  0  0  0  0  0  0  0  0  0
   46.5910   34.5260   43.1790 C   0  0  0  0  0  0  0  0  0  0  0  0
   46.1000   33.2880   43.9160 C   0  0  0  0  0  0  0  0  0  0  0  0
   46.9500   34.2980   45.6170 H   0  0  0  0  0  0  0  0  0  0  0  0
   44.2900   34.9300   46.3140 H   0  0  0  0  0  0  0  0  0  0  0  0
   44.0110   36.3710   44.4920 H   0  0  0  0  0  0  0  0  0  0  0  0
   45.9380   36.5300   42.9820 H   0  0  0  0  0  0  0  0  0  0  0  0
   47.4580   34.9100   43.7580 H   0  0  0  0  0  0  0  0  0  0  0  0
   46.9210   34.3360   42.1610 H   0  0  0  0  0  0  0  0  0  0  0  0
   44.9850   33.2470   43.5970 H   0  0  0  0  0  0  0  0  0  0  0  0
   46.5300   32.4870   43.3870 H   0  0  0  0  0  0  0  0  0  0  0  0
   44.5140   35.2580   42.0650 C   0  0  0  0  0  0  0  0  0  0  0  0
   43.4640   34.4470   42.4410 F   0  0  0  0  0  0  0  0  0  0  0  0
   43.9580   36.4900   41.7270 F   0  0  0  0  0  0  0  0  0  0  0  0
   45.2020   34.8100   40.9510 F   0  0  0  0  0  0  0  0  0  0  0  0
   48.0550   29.4660   42.6920 C   0  0  0  0  0  0  0  0  0  0  0  0
   48.8370   30.0650   43.6490 C   0  0  0  0  0  3  0  0  0  0  0  0
   48.2690   30.6310   44.7700 C   0  0  0  0  0  3  0  0  0  0  0  0
   46.9000   30.6190   44.9740 C   0  0  0  0  0  0  0  0  0  0  0  0
   46.1730   29.9850   43.9410 C   0  0  0  0  0  3  0  0  0  0  0  0
   46.6850   29.4040   42.8030 C   0  0  0  0  0  3  0  0  0  0  0  0
   47.9410   27.7540   40.7540 H   0  0  0  0  0  0  0  0  0  0  0  0
   48.7610   28.7330   41.2470 S   0  0  0  0  0  0  0  0  0  0  0  0
   48.8900   29.8200   40.2300 O   0  0  0  0  0  0  0  0  0  0  0  0
   50.0730   28.1020   41.5700 O   0  0  0  0  0  0  0  0  0  0  0  0
  1  8  1  0  0  0  0
  1  6  1  0  0  0  0
  2  1  2  0  0  0  0
  3  2  1  0  0  0  0
  3  4  2  0  0  0  0
  4  5  1  0  0  0  0
  5  6  2  0  0  0  0
  5  7  1  0  0  0  0
  7  9  1  0  0  0  0
 10  7  1  0  0  0  0
 11 12  1  0  0  0  0
 11 17  1  1  0  0  0
 11  2  1  0  0  0  0
 12 18  1  0  0  0  0
 13 19  1  0  0  0  0
 13 12  2  0  0  0  0
 14 20  1  6  0  0  0
 14 13  1  0  0  0  0
 15 14  1  0  0  0  0
 15 21  1  0  0  0  0
 15 16  1  0  0  0  0
 16 11  1  0  0  0  0
 22 15  1  0  0  0  0
 23 16  1  0  0  0  0
 24 16  1  0  0  0  0
 25 26  1  0  0  0  0
 25 14  1  0  0  0  0
 27 25  1  0  0  0  0
 28 25  1  0  0  0  0
 29 34  2  0  0  0  0
 29 30  1  0  0  0  0
 30 31  2  0  0  0  0
 31 32  1  0  0  0  0
 32  3  1  0  0  0  0
 33 32  2  0  0  0  0
 34 33  1  0  0  0  0
 35 36  1  0  0  0  0
 36 38  2  0  0  0  0
 36 29  1  0  0  0  0
 37 36  2  0  0  0  0
M  END
>  <minimizedAffinity>
-5.45354795

>  <minimizedRMSD>
0.462547332

$$$$
