
 OpenBabel03232514033D

 34 37  0  0  0  0  0  0  0  0999 V2000
   44.8220   34.8340   45.2130 C   0  0  0  0  0  0  0  0  0  0  0  0
   45.3110   35.0210   43.9210 C   0  0  0  0  0  0  0  0  0  0  0  0
   46.3940   34.3000   43.4780 C   0  0  0  0  0  0  0  0  0  0  0  0
   46.9570   33.4130   44.3350 N   0  0  0  0  0  0  0  0  0  0  0  0
   46.4790   33.2370   45.5810 C   0  0  0  0  0  0  0  0  0  0  0  0
   45.4320   33.9260   46.0270 N   0  0  0  0  0  0  0  0  0  0  0  0
   43.9730   35.4140   45.5300 H   0  0  0  0  0  0  0  0  0  0  0  0
   44.8970   35.7080   43.2180 H   0  0  0  0  0  0  0  0  0  0  0  0
   46.9880   34.4140   42.1520 C   0  0  0  0  0  0  0  0  0  0  0  0
   48.0670   35.1950   41.8610 C   0  0  0  0  0  0  0  0  0  0  0  0
   48.6380   35.3160   40.6210 C   0  0  0  0  0  0  0  0  0  0  0  0
   48.0860   34.6020   39.6150 N   0  0  0  0  0  0  0  0  0  0  0  0
   47.0340   33.8280   39.8570 C   0  0  0  0  0  0  0  0  0  0  0  0
   46.4760   33.7150   41.0830 N   0  0  0  0  0  0  0  0  0  0  0  0
   46.5010   33.1060   38.7610 N   0  0  0  0  0  0  0  0  0  0  0  0
   45.7310   32.0340   38.6320 N   0  0  0  0  0  0  0  0  0  0  0  0
   45.5100   31.7480   37.3520 C   0  0  0  0  0  0  0  0  0  0  0  0
   46.1880   32.7090   36.6130 C   0  0  0  0  0  0  0  0  0  0  0  0
   46.8050   33.5540   37.5130 C   0  0  0  0  0  0  0  0  0  0  0  0
   48.4720   35.7480   42.7030 H   0  0  0  0  0  0  0  0  0  0  0  0
   49.4850   35.9560   40.4920 H   0  0  0  0  0  0  0  0  0  0  0  0
   44.9120   30.9220   36.9860 H   0  0  0  0  0  0  0  0  0  0  0  0
   46.1650   32.6980   35.5330 H   0  0  0  0  0  0  0  0  0  0  0  0
   47.3890   34.3760   37.0780 H   0  0  0  0  0  0  0  0  0  0  0  0
   48.3650   30.4990   48.2010 C   0  0  0  0  0  0  0  0  0  0  0  0
   48.0320   31.7530   48.6860 C   0  0  0  0  0  0  0  0  0  0  0  0
   47.4220   32.5810   47.7660 C   0  0  0  0  0  0  0  0  0  0  0  0
   47.1300   32.2670   46.4550 C   0  0  0  0  0  0  0  0  0  0  0  0
   47.4860   31.0090   46.0370 C   0  0  0  0  0  0  0  0  0  0  0  0
   48.1070   30.1060   46.8960 C   0  0  0  0  0  0  0  0  0  0  0  0
   48.3060   28.3570   49.6800 H   0  0  0  0  0  0  0  0  0  0  0  0
   49.1460   29.3570   49.2740 S   0  0  0  0  0  0  0  0  0  0  0  0
   49.6060   30.0550   50.5400 O   0  0  0  0  0  0  0  0  0  0  0  0
   50.4120   28.8130   48.6440 O   0  0  0  0  0  0  0  0  0  0  0  0
  1  7  1  0  0  0  0
  1  6  1  0  0  0  0
  2  1  2  0  0  0  0
  3  2  1  0  0  0  0
  3  4  2  0  0  0  0
  4  5  1  0  0  0  0
  5  6  2  0  0  0  0
  5 28  1  0  0  0  0
  8  2  1  0  0  0  0
  9  3  1  0  0  0  0
 10  9  1  0  0  0  0
 10 20  1  0  0  0  0
 11 10  2  0  0  0  0
 12 13  2  0  0  0  0
 12 11  1  0  0  0  0
 13 14  1  0  0  0  0
 14  9  2  0  0  0  0
 15 13  1  0  0  0  0
 16 15  1  0  0  0  0
 17 16  2  0  0  0  0
 18 17  1  0  0  0  0
 18 19  2  0  0  0  0
 19 15  1  0  0  0  0
 21 11  1  0  0  0  0
 22 17  1  0  0  0  0
 23 18  1  0  0  0  0
 24 19  1  0  0  0  0
 25 26  1  0  0  0  0
 25 32  1  0  0  0  0
 27 26  2  0  0  0  0
 28 27  1  0  0  0  0
 29 28  2  0  0  0  0
 29 30  1  0  0  0  0
 30 25  2  0  0  0  0
 32 31  1  0  0  0  0
 32 33  2  0  0  0  0
 34 32  2  0  0  0  0
M  END
>  <minimizedAffinity>
-6.0453434

>  <minimizedRMSD>
1.47416019

$$$$
