
 OpenBabel03232517523D

 21 22  0  0  0  0  0  0  0  0999 V2000
   44.9320   34.9730   44.4780 C   0  0  0  0  0  0  0  0  0  0  0  0
   45.4930   34.7820   43.2200 C   0  0  0  0  0  0  0  0  0  0  0  0
   46.5200   33.8470   43.0740 C   0  0  0  0  0  0  0  0  0  0  0  0
   46.9120   33.1720   44.1890 N   0  0  0  0  0  0  0  0  0  0  0  0
   46.3500   33.3810   45.3820 C   0  0  0  0  0  0  0  0  0  0  0  0
   45.3650   34.2720   45.5460 N   0  0  0  0  0  0  0  0  0  0  0  0
   43.8900   35.8870   44.7500 N   0  0  0  0  0  0  0  0  0  0  0  0
   45.1270   35.3470   42.4120 H   0  0  0  0  0  0  0  0  0  0  0  0
   46.7030   32.8150   46.2380 H   0  0  0  0  0  0  0  0  0  0  0  0
   43.0160   35.7520   45.2740 H   0  0  0  0  0  0  0  0  0  0  0  0
   44.1520   36.8120   44.3050 H   0  0  0  0  0  0  0  0  0  0  0  0
   48.3590   33.0100   39.3040 C   0  0  0  0  0  0  0  0  0  0  0  0
   48.0470   34.3100   39.6440 C   0  0  0  0  0  0  0  0  0  0  0  0
   47.4600   34.5660   40.8530 C   0  0  0  0  0  0  0  0  0  0  0  0
   47.1410   33.6050   41.7900 C   0  0  0  0  0  0  0  0  0  0  0  0
   47.4560   32.3110   41.4400 C   0  0  0  0  0  0  0  0  0  0  0  0
   48.0560   32.0180   40.2140 C   0  0  0  0  0  0  0  0  0  0  0  0
   50.4520   32.5190   37.9120 H   0  0  0  0  0  0  0  0  0  0  0  0
   49.1080   32.7000   37.7620 S   0  0  0  0  0  0  0  0  0  0  0  0
   48.9360   33.9110   36.8720 O   0  0  0  0  0  0  0  0  0  0  0  0
   48.4250   31.5740   37.0700 O   0  0  0  0  0  0  0  0  0  0  0  0
  1  7  1  0  0  0  0
  1  6  1  0  0  0  0
  2  1  2  0  0  0  0
  3  2  1  0  0  0  0
  3  4  2  0  0  0  0
  4  5  1  0  0  0  0
  5  6  2  0  0  0  0
  5  9  1  0  0  0  0
  7 10  1  0  0  0  0
  8  2  1  0  0  0  0
 11  7  1  0  0  0  0
 12 13  2  0  0  0  0
 12 17  1  0  0  0  0
 13 14  1  0  0  0  0
 14 15  2  0  0  0  0
 15  3  1  0  0  0  0
 16 15  1  0  0  0  0
 17 16  2  0  0  0  0
 19 18  1  0  0  0  0
 19 12  1  0  0  0  0
 20 19  2  0  0  0  0
 21 19  2  0  0  0  0
M  END
>  <minimizedAffinity>
-4.60734558

>  <minimizedRMSD>
1.65770519

$$$$
