
 OpenBabel03232520583D

 38 40  0  0  1  0  0  0  0  0999 V2000
   45.3710   32.8850   47.5980 C   0  0  0  0  0  0  0  0  0  0  0  0
   45.8910   32.6190   46.3650 C   0  0  0  0  0  0  0  0  0  0  0  0
   46.1290   31.2620   46.1040 C   0  0  0  0  0  0  0  0  0  0  0  0
   45.8640   30.2910   46.9930 N   0  0  0  0  0  0  0  0  0  0  0  0
   45.3380   30.6060   48.2280 C   0  0  0  0  0  0  0  0  0  0  0  0
   45.1040   31.8830   48.5060 N   0  0  0  0  0  0  0  0  0  0  0  0
   45.0660   29.5960   49.1880 N   0  0  0  0  0  0  0  0  0  0  0  0
   45.1590   33.9010   47.8880 H   0  0  0  0  0  0  0  0  0  0  0  0
   45.9720   29.6740   49.7310 H   0  0  0  0  0  0  0  0  0  0  0  0
   44.1180   29.3360   48.8230 H   0  0  0  0  0  0  0  0  0  0  0  0
   46.1200   33.5800   45.3360 C   0  0  2  0  0  0  0  0  0  0  0  0
   44.9730   34.6710   45.5360 C   0  0  0  0  0  0  0  0  0  0  0  0
   44.7450   35.5850   44.4470 C   0  0  0  0  0  0  0  0  0  0  0  0
   45.5170   35.4960   43.2310 C   0  0  1  0  0  0  0  0  0  0  0  0
   46.6050   34.4900   43.2060 C   0  0  0  0  0  0  0  0  0  0  0  0
   46.1130   33.2590   43.9520 C   0  0  0  0  0  0  0  0  0  0  0  0
   46.9470   34.2890   45.6480 H   0  0  0  0  0  0  0  0  0  0  0  0
   44.2800   34.9210   46.3190 H   0  0  0  0  0  0  0  0  0  0  0  0
   44.0110   36.3410   44.4800 H   0  0  0  0  0  0  0  0  0  0  0  0
   45.9490   36.4900   42.9820 H   0  0  0  0  0  0  0  0  0  0  0  0
   47.4660   34.8830   43.7870 H   0  0  0  0  0  0  0  0  0  0  0  0
   46.9430   34.2910   42.1910 H   0  0  0  0  0  0  0  0  0  0  0  0
   45.0000   33.2110   43.6250 H   0  0  0  0  0  0  0  0  0  0  0  0
   46.5480   32.4540   43.4340 H   0  0  0  0  0  0  0  0  0  0  0  0
   44.5350   35.2050   42.0690 C   0  0  0  0  0  0  0  0  0  0  0  0
   43.5020   34.3680   42.4370 F   0  0  0  0  0  0  0  0  0  0  0  0
   43.9520   36.4260   41.7360 F   0  0  0  0  0  0  0  0  0  0  0  0
   45.2350   34.7790   40.9540 F   0  0  0  0  0  0  0  0  0  0  0  0
   48.0200   29.1190   42.9440 C   0  0  0  0  0  0  0  0  0  0  0  0
   46.6500   29.1350   43.0290 C   0  0  0  0  0  3  0  0  0  0  0  0
   46.0130   29.8470   44.0240 C   0  0  0  0  0  3  0  0  0  0  0  0
   46.7230   30.5680   44.9680 C   0  0  0  0  0  0  0  0  0  0  0  0
   48.1250   30.4960   44.8070 C   0  0  0  0  0  3  0  0  0  0  0  0
   48.8150   29.8040   43.8370 C   0  0  0  0  0  3  0  0  0  0  0  0
   50.1710   28.5970   41.6030 H   0  0  0  0  0  0  0  0  0  0  0  0
   48.8590   28.2140   41.6800 S   0  0  0  0  0  0  0  0  0  0  0  0
   48.7910   26.7730   42.0630 O   0  0  0  0  0  0  0  0  0  0  0  0
   48.2340   28.4770   40.3500 O   0  0  0  0  0  0  0  0  0  0  0  0
  1  8  1  0  0  0  0
  1  6  1  0  0  0  0
  2  1  2  0  0  0  0
  3  2  1  0  0  0  0
  3  4  2  0  0  0  0
  4  5  1  0  0  0  0
  5  6  2  0  0  0  0
  5  7  1  0  0  0  0
  7  9  1  0  0  0  0
 10  7  1  0  0  0  0
 11 12  1  0  0  0  0
 11 17  1  1  0  0  0
 11  2  1  0  0  0  0
 12 18  1  0  0  0  0
 13 19  1  0  0  0  0
 13 12  2  0  0  0  0
 14 20  1  6  0  0  0
 14 13  1  0  0  0  0
 15 14  1  0  0  0  0
 15 21  1  0  0  0  0
 15 16  1  0  0  0  0
 16 11  1  0  0  0  0
 22 15  1  0  0  0  0
 23 16  1  0  0  0  0
 24 16  1  0  0  0  0
 25 26  1  0  0  0  0
 25 14  1  0  0  0  0
 27 25  1  0  0  0  0
 28 25  1  0  0  0  0
 29 30  2  0  0  0  0
 29 34  1  0  0  0  0
 30 31  1  0  0  0  0
 31 32  2  0  0  0  0
 32  3  1  0  0  0  0
 33 32  1  0  0  0  0
 34 33  2  0  0  0  0
 35 36  1  0  0  0  0
 36 37  2  0  0  0  0
 36 29  1  0  0  0  0
 38 36  2  0  0  0  0
M  END
>  <minimizedAffinity>
-5.45330667

>  <minimizedRMSD>
0.686744452

$$$$
