
 OpenBabel03232520433D

 39 42  0  0  0  0  0  0  0  0999 V2000
   46.4640   34.6530   42.2000 C   0  0  0  0  0  0  0  0  0  0  0  0
   47.7660   35.0310   42.0590 C   0  0  0  0  0  0  0  0  0  0  0  0
   48.4670   34.8890   40.8630 C   0  0  0  0  0  0  0  0  0  0  0  0
   47.8110   34.3340   39.7490 C   0  0  0  0  0  0  0  0  0  0  0  0
   46.5090   33.9550   39.8850 C   0  0  0  0  0  0  0  0  0  0  0  0
   45.8490   34.1160   41.1010 C   0  0  0  0  0  0  0  0  0  0  0  0
   48.3390   35.4660   42.8760 H   0  0  0  0  0  0  0  0  0  0  0  0
   49.5010   35.1970   40.7780 H   0  0  0  0  0  0  0  0  0  0  0  0
   48.3170   34.2060   38.8000 H   0  0  0  0  0  0  0  0  0  0  0  0
   45.9570   33.5240   39.0650 H   0  0  0  0  0  0  0  0  0  0  0  0
   44.4580   35.9920   45.0860 C   0  0  0  0  0  0  0  0  0  0  0  0
   45.0220   35.9210   43.8130 C   0  0  0  0  0  0  0  0  0  0  0  0
   45.8240   34.8400   43.4810 C   0  0  0  0  0  0  0  0  0  0  0  0
   46.0180   33.9040   44.4190 N   0  0  0  0  0  0  0  0  0  0  0  0
   45.4610   33.9870   45.6590 C   0  0  0  0  0  0  0  0  0  0  0  0
   44.6880   35.0250   45.9840 N   0  0  0  0  0  0  0  0  0  0  0  0
   43.8460   36.8850   45.2360 H   0  0  0  0  0  0  0  0  0  0  0  0
   44.8700   36.6740   43.0480 H   0  0  0  0  0  0  0  0  0  0  0  0
   45.7110   32.9550   46.6060 N   0  0  0  0  0  0  0  0  0  0  0  0
   45.1320   33.0140   47.9350 C   0  0  0  0  0  0  0  0  0  0  0  0
   45.2270   31.5810   48.4680 C   0  0  0  0  0  0  0  0  0  0  0  0
   44.7390   30.6670   47.4410 N   0  0  0  0  0  0  0  0  0  0  0  0
   44.6920   29.7230   47.9160 H   0  0  0  0  0  0  0  0  0  0  0  0
   45.7570   30.5290   46.4210 C   0  0  0  0  0  0  0  0  0  0  0  0
   46.5500   31.8210   46.2640 C   0  0  0  0  0  0  0  0  0  0  0  0
   44.4920   33.7080   41.1990 N   0  0  0  0  0  0  0  0  0  0  0  0
   43.6650   34.6740   40.6900 C   0  0  0  0  0  0  0  0  0  0  0  0
   42.2780   34.4830   40.6840 C   0  0  0  0  0  0  0  0  0  0  0  0
   41.7900   33.2920   41.2090 C   0  0  0  0  0  0  0  0  0  0  0  0
   40.5540   33.0550   41.2350 O   0  0  0  0  0  0  0  0  0  0  0  0
   42.6460   32.3800   41.6940 N   0  0  0  0  0  0  0  0  0  0  0  0
   43.9750   32.5750   41.6940 C   0  0  0  0  0  0  0  0  0  0  0  0
   44.8410   31.7870   42.1230 O   0  0  0  0  0  0  0  0  0  0  0  0
   43.9590   35.6060   40.2740 H   0  0  0  0  0  0  0  0  0  0  0  0
   42.3100   31.4750   42.0960 H   0  0  0  0  0  0  0  0  0  0  0  0
   41.3410   35.5020   40.1440 C   0  0  0  0  0  0  0  0  0  0  0  0
   41.5980   36.4410   40.7130 H   0  0  0  0  0  0  0  0  0  0  0  0
   40.3290   35.2290   40.4250 H   0  0  0  0  0  0  0  0  0  0  0  0
   41.4330   35.6760   39.0640 H   0  0  0  0  0  0  0  0  0  0  0  0
  1 13  1  0  0  0  0
  2  1  1  0  0  0  0
  2  7  1  0  0  0  0
  3  2  2  0  0  0  0
  4  5  2  0  0  0  0
  4  3  1  0  0  0  0
  5  6  1  0  0  0  0
  6 26  1  0  0  0  0
  6  1  2  0  0  0  0
  8  3  1  0  0  0  0
  9  4  1  0  0  0  0
 10  5  1  0  0  0  0
 11 17  1  0  0  0  0
 11 16  1  0  0  0  0
 12 11  2  0  0  0  0
 13 12  1  0  0  0  0
 13 14  2  0  0  0  0
 14 15  1  0  0  0  0
 15 16  2  0  0  0  0
 15 19  1  0  0  0  0
 18 12  1  0  0  0  0
 19 20  1  0  0  0  0
 20 21  1  0  0  0  0
 22 23  1  0  0  0  0
 22 21  1  0  0  0  0
 24 22  1  0  0  0  0
 25 24  1  0  0  0  0
 25 19  1  0  0  0  0
 26 32  1  0  0  0  0
 27 26  1  0  0  0  0
 28 27  2  0  0  0  0
 28 29  1  0  0  0  0
 29 30  2  0  0  0  0
 29 31  1  0  0  0  0
 31 35  1  0  0  0  0
 32 31  1  0  0  0  0
 32 33  2  0  0  0  0
 34 27  1  0  0  0  0
 36 38  1  0  0  0  0
 36 28  1  0  0  0  0
 36 37  1  0  0  0  0
 39 36  1  0  0  0  0
M  END
>  <minimizedAffinity>
-8.04723549

>  <minimizedRMSD>
0.155898139

$$$$
