
 OpenBabel03232520593D

 39 41  0  0  1  0  0  0  0  0999 V2000
   45.3430   32.9010   47.5170 C   0  0  0  0  0  0  0  0  0  0  0  0
   45.9040   32.6390   46.3100 C   0  0  0  0  0  0  0  0  0  0  0  0
   46.1860   31.2920   46.0740 C   0  0  0  0  0  0  0  0  0  0  0  0
   45.9270   30.3050   46.9660 N   0  0  0  0  0  0  0  0  0  0  0  0
   45.3540   30.6310   48.1860 C   0  0  0  0  0  0  0  0  0  0  0  0
   45.0780   31.9020   48.4290 N   0  0  0  0  0  0  0  0  0  0  0  0
   45.1080   29.6180   49.1540 N   0  0  0  0  0  0  0  0  0  0  0  0
   45.0880   33.9090   47.8040 H   0  0  0  0  0  0  0  0  0  0  0  0
   44.8770   28.6360   48.8590 H   0  0  0  0  0  0  0  0  0  0  0  0
   45.1730   29.9140   50.1670 H   0  0  0  0  0  0  0  0  0  0  0  0
   46.1570   33.5880   45.2810 C   0  0  2  0  0  0  0  0  0  0  0  0
   44.9500   34.6870   45.5060 C   0  0  0  0  0  0  0  0  0  0  0  0
   44.7260   35.6160   44.4350 C   0  0  0  0  0  0  0  0  0  0  0  0
   45.5340   35.5410   43.2140 C   0  0  1  0  0  0  0  0  0  0  0  0
   46.5910   34.5370   43.1700 C   0  0  0  0  0  0  0  0  0  0  0  0
   46.1330   33.3050   43.9180 C   0  0  0  0  0  0  0  0  0  0  0  0
   46.9780   34.2940   45.6190 H   0  0  0  0  0  0  0  0  0  0  0  0
   44.2710   34.8400   46.3370 H   0  0  0  0  0  0  0  0  0  0  0  0
   43.9590   36.3390   44.5430 H   0  0  0  0  0  0  0  0  0  0  0  0
   45.9610   36.5550   43.0270 H   0  0  0  0  0  0  0  0  0  0  0  0
   46.8580   34.3300   42.1000 H   0  0  0  0  0  0  0  0  0  0  0  0
   47.5090   34.8910   43.6920 H   0  0  0  0  0  0  0  0  0  0  0  0
   45.1500   33.0260   43.4880 H   0  0  0  0  0  0  0  0  0  0  0  0
   46.9490   32.6380   43.5720 H   0  0  0  0  0  0  0  0  0  0  0  0
   44.5250   35.2780   42.0560 C   0  0  0  0  0  0  0  0  0  0  0  0
   43.4680   34.4740   42.4450 F   0  0  0  0  0  0  0  0  0  0  0  0
   43.9830   36.5190   41.7260 F   0  0  0  0  0  0  0  0  0  0  0  0
   45.2040   34.8250   40.9420 F   0  0  0  0  0  0  0  0  0  0  0  0
   46.8290   30.5950   44.9730 C   0  0  0  0  0  0  0  0  0  0  0  0
   46.4820   29.8250   43.9100 C   0  0  0  0  0  0  0  0  0  0  0  0
   47.6670   29.4330   43.2580 C   0  0  0  0  0  0  0  0  0  0  0  0
   48.6580   29.9870   43.9570 N   0  0  0  0  0  0  0  0  0  0  0  0
   48.1920   30.6770   44.9710 N   0  0  0  0  0  0  0  0  0  0  0  0
   45.4340   29.6460   43.7480 H   0  0  0  0  0  0  0  0  0  0  0  0
   47.6220   28.8160   42.3880 H   0  0  0  0  0  0  0  0  0  0  0  0
   50.0690   29.8100   43.5860 C   0  0  0  0  0  0  0  0  0  0  0  0
   50.8040   29.4720   44.6910 F   0  0  0  0  0  0  0  0  0  0  0  0
   50.5540   30.8810   42.8910 F   0  0  0  0  0  0  0  0  0  0  0  0
   50.1450   28.7200   42.7080 F   0  0  0  0  0  0  0  0  0  0  0  0
  1  8  1  0  0  0  0
  1  6  1  0  0  0  0
  2  1  2  0  0  0  0
  3  2  1  0  0  0  0
  3  4  2  0  0  0  0
  4  5  1  0  0  0  0
  5  6  2  0  0  0  0
  5  7  1  0  0  0  0
  7 10  1  0  0  0  0
  9  7  1  0  0  0  0
 11 12  1  0  0  0  0
 11 17  1  1  0  0  0
 11  2  1  0  0  0  0
 12 18  1  0  0  0  0
 13 19  1  0  0  0  0
 13 12  2  0  0  0  0
 14 20  1  6  0  0  0
 14 13  1  0  0  0  0
 15 14  1  0  0  0  0
 15 22  1  0  0  0  0
 15 16  1  0  0  0  0
 16 11  1  0  0  0  0
 21 15  1  0  0  0  0
 23 16  1  0  0  0  0
 24 16  1  0  0  0  0
 25 26  1  0  0  0  0
 25 14  1  0  0  0  0
 27 25  1  0  0  0  0
 28 25  1  0  0  0  0
 29  3  1  0  0  0  0
 30 29  1  0  0  0  0
 31 30  2  0  0  0  0
 31 32  1  0  0  0  0
 32 33  1  0  0  0  0
 33 29  2  0  0  0  0
 34 30  1  0  0  0  0
 35 31  1  0  0  0  0
 36 32  1  0  0  0  0
 36 37  1  0  0  0  0
 38 36  1  0  0  0  0
 39 36  1  0  0  0  0
M  END
>  <minimizedAffinity>
-5.65636206

>  <minimizedRMSD>
0.35009557

$$$$
