
 OpenBabel03232520593D

 39 41  0  0  1  0  0  0  0  0999 V2000
   45.3380   32.8970   47.5100 C   0  0  0  0  0  0  0  0  0  0  0  0
   45.9030   32.6380   46.3050 C   0  0  0  0  0  0  0  0  0  0  0  0
   46.1890   31.2930   46.0670 C   0  0  0  0  0  0  0  0  0  0  0  0
   45.9310   30.3040   46.9590 N   0  0  0  0  0  0  0  0  0  0  0  0
   45.3540   30.6270   48.1770 C   0  0  0  0  0  0  0  0  0  0  0  0
   45.0740   31.8970   48.4210 N   0  0  0  0  0  0  0  0  0  0  0  0
   45.1090   29.6130   49.1430 N   0  0  0  0  0  0  0  0  0  0  0  0
   45.0800   33.9050   47.7970 H   0  0  0  0  0  0  0  0  0  0  0  0
   44.8810   28.6300   48.8470 H   0  0  0  0  0  0  0  0  0  0  0  0
   45.1700   29.9080   50.1570 H   0  0  0  0  0  0  0  0  0  0  0  0
   46.1560   33.5890   45.2770 C   0  0  2  0  0  0  0  0  0  0  0  0
   44.9500   34.6890   45.5060 C   0  0  0  0  0  0  0  0  0  0  0  0
   44.7260   35.6210   44.4370 C   0  0  0  0  0  0  0  0  0  0  0  0
   45.5320   35.5480   43.2140 C   0  0  1  0  0  0  0  0  0  0  0  0
   46.5880   34.5420   43.1670 C   0  0  0  0  0  0  0  0  0  0  0  0
   46.1300   33.3090   43.9130 C   0  0  0  0  0  0  0  0  0  0  0  0
   46.9780   34.2940   45.6150 H   0  0  0  0  0  0  0  0  0  0  0  0
   44.2730   34.8420   46.3380 H   0  0  0  0  0  0  0  0  0  0  0  0
   43.9600   36.3440   44.5470 H   0  0  0  0  0  0  0  0  0  0  0  0
   45.9600   36.5610   43.0290 H   0  0  0  0  0  0  0  0  0  0  0  0
   46.8540   34.3360   42.0970 H   0  0  0  0  0  0  0  0  0  0  0  0
   47.5070   34.8930   43.6880 H   0  0  0  0  0  0  0  0  0  0  0  0
   45.1450   33.0320   43.4850 H   0  0  0  0  0  0  0  0  0  0  0  0
   46.9440   32.6420   43.5650 H   0  0  0  0  0  0  0  0  0  0  0  0
   44.5220   35.2870   42.0570 C   0  0  0  0  0  0  0  0  0  0  0  0
   43.4560   34.4960   42.4510 F   0  0  0  0  0  0  0  0  0  0  0  0
   43.9910   36.5330   41.7200 F   0  0  0  0  0  0  0  0  0  0  0  0
   45.1960   34.8220   40.9470 F   0  0  0  0  0  0  0  0  0  0  0  0
   46.8370   30.5990   44.9670 C   0  0  0  0  0  0  0  0  0  0  0  0
   46.4940   29.8350   43.8990 C   0  0  0  0  0  0  0  0  0  0  0  0
   47.6820   29.4420   43.2530 C   0  0  0  0  0  0  0  0  0  0  0  0
   48.6700   29.9880   43.9610 N   0  0  0  0  0  0  0  0  0  0  0  0
   48.2010   30.6740   44.9760 N   0  0  0  0  0  0  0  0  0  0  0  0
   45.4470   29.6630   43.7280 H   0  0  0  0  0  0  0  0  0  0  0  0
   47.6410   28.8290   42.3790 H   0  0  0  0  0  0  0  0  0  0  0  0
   50.0830   29.8060   43.6000 C   0  0  0  0  0  0  0  0  0  0  0  0
   50.8110   29.4740   44.7120 F   0  0  0  0  0  0  0  0  0  0  0  0
   50.5740   30.8720   42.9020 F   0  0  0  0  0  0  0  0  0  0  0  0
   50.1630   28.7120   42.7290 F   0  0  0  0  0  0  0  0  0  0  0  0
  1  8  1  0  0  0  0
  1  6  1  0  0  0  0
  2  1  2  0  0  0  0
  3  2  1  0  0  0  0
  3  4  2  0  0  0  0
  4  5  1  0  0  0  0
  5  6  2  0  0  0  0
  5  7  1  0  0  0  0
  7 10  1  0  0  0  0
  9  7  1  0  0  0  0
 11 12  1  0  0  0  0
 11 17  1  1  0  0  0
 11  2  1  0  0  0  0
 12 18  1  0  0  0  0
 13 19  1  0  0  0  0
 13 12  2  0  0  0  0
 14 20  1  6  0  0  0
 14 13  1  0  0  0  0
 15 14  1  0  0  0  0
 15 22  1  0  0  0  0
 15 16  1  0  0  0  0
 16 11  1  0  0  0  0
 21 15  1  0  0  0  0
 23 16  1  0  0  0  0
 24 16  1  0  0  0  0
 25 26  1  0  0  0  0
 25 14  1  0  0  0  0
 27 25  1  0  0  0  0
 28 25  1  0  0  0  0
 29 33  2  0  0  0  0
 29  3  1  0  0  0  0
 30 29  1  0  0  0  0
 31 30  2  0  0  0  0
 31 32  1  0  0  0  0
 32 33  1  0  0  0  0
 34 30  1  0  0  0  0
 35 31  1  0  0  0  0
 36 32  1  0  0  0  0
 36 37  1  0  0  0  0
 38 36  1  0  0  0  0
 39 36  1  0  0  0  0
M  END
>  <minimizedAffinity>
-5.64255476

>  <minimizedRMSD>
0.145096079

$$$$
