
 OpenBabel03232519063D

 32 33  0  0  0  0  0  0  0  0999 V2000
   46.5220   34.1300   42.2560 C   0  0  0  0  0  0  0  0  0  0  0  0
   45.6630   33.7670   45.8220 C   0  0  0  0  0  0  0  0  0  0  0  0
   44.7770   34.7680   45.9350 C   0  0  0  0  0  0  0  0  0  0  0  0
   44.7160   35.4810   44.2680 S   0  0  0  0  0  0  0  0  0  0  0  0
   45.9930   34.2140   43.6560 C   0  0  0  0  0  0  0  0  0  0  0  0
   46.1580   33.6410   44.6340 N   0  0  0  0  0  0  0  0  0  0  0  0
   44.1980   35.0800   46.8950 H   0  0  0  0  0  0  0  0  0  0  0  0
   45.4680   31.7160   49.0140 C   0  0  0  0  0  0  0  0  0  0  0  0
   45.0750   32.5240   47.9530 C   0  0  0  0  0  0  0  0  0  0  0  0
   46.0170   32.9090   46.9740 C   0  0  0  0  0  0  0  0  0  0  0  0
   47.2350   32.4240   47.1980 N   0  0  0  0  0  0  0  0  0  0  0  0
   47.6320   31.6530   48.2010 C   0  0  0  0  0  0  0  0  0  0  0  0
   46.7200   31.3070   49.1070 N   0  0  0  0  0  0  0  0  0  0  0  0
   44.7010   31.4510   49.7360 H   0  0  0  0  0  0  0  0  0  0  0  0
   44.0580   32.8750   47.8460 H   0  0  0  0  0  0  0  0  0  0  0  0
   48.6820   31.3780   48.1780 H   0  0  0  0  0  0  0  0  0  0  0  0
   45.4250   34.5680   41.3440 C   0  0  0  0  0  0  0  0  0  0  0  0
   45.5350   35.6700   41.2160 H   0  0  0  0  0  0  0  0  0  0  0  0
   45.5260   34.0630   40.3770 H   0  0  0  0  0  0  0  0  0  0  0  0
   44.4260   34.3160   41.8030 H   0  0  0  0  0  0  0  0  0  0  0  0
   46.9350   32.7180   42.0280 C   0  0  0  0  0  0  0  0  0  0  0  0
   45.9910   32.1550   41.7710 H   0  0  0  0  0  0  0  0  0  0  0  0
   47.3490   32.1860   42.8880 H   0  0  0  0  0  0  0  0  0  0  0  0
   47.5670   32.6140   41.1030 H   0  0  0  0  0  0  0  0  0  0  0  0
   47.7190   35.0610   42.0990 C   0  0  0  0  0  0  0  0  0  0  0  0
   47.4360   36.1040   42.2900 H   0  0  0  0  0  0  0  0  0  0  0  0
   48.0760   34.9030   41.0470 H   0  0  0  0  0  0  0  0  0  0  0  0
   48.7770   34.5680   42.9630 N   0  0  0  0  0  0  0  0  0  0  0  0
   48.6280   34.1670   43.9160 H   0  0  0  0  0  0  0  0  0  0  0  0
   50.1610   34.5970   42.5540 C   0  0  0  0  0  0  0  0  0  0  0  0
   50.6540   35.5260   42.3120 H   0  0  0  0  0  0  0  0  0  0  0  0
   50.7710   33.4930   42.4910 O   0  0  0  0  0  0  0  0  0  0  0  0
  1  5  1  0  0  0  0
  2  3  2  0  0  0  0
  2 10  1  0  0  0  0
  3  7  1  0  0  0  0
  4  3  1  0  0  0  0
  5  4  1  0  0  0  0
  5  6  2  0  0  0  0
  6  2  1  0  0  0  0
  8 13  1  0  0  0  0
  8 14  1  0  0  0  0
  9  8  2  0  0  0  0
 10 11  2  0  0  0  0
 10  9  1  0  0  0  0
 11 12  1  0  0  0  0
 12 13  2  0  0  0  0
 15  9  1  0  0  0  0
 16 12  1  0  0  0  0
 17 20  1  0  0  0  0
 17  1  1  0  0  0  0
 18 17  1  0  0  0  0
 19 17  1  0  0  0  0
 21  1  1  0  0  0  0
 21 23  1  0  0  0  0
 22 21  1  0  0  0  0
 24 21  1  0  0  0  0
 25  1  1  0  0  0  0
 25 26  1  0  0  0  0
 25 28  1  0  0  0  0
 27 25  1  0  0  0  0
 28 29  1  0  0  0  0
 30 28  1  0  0  0  0
 31 30  1  0  0  0  0
 32 30  2  0  0  0  0
M  END
>  <minimizedAffinity>
-5.23889351

>  <minimizedRMSD>
1.66363525

$$$$
