REMARK  Name = 
REMARK  4 active torsions:
REMARK  status: ('A' for Active; 'I' for Inactive)
REMARK    1  A    between atoms: C_1  and  C_8
REMARK    2  A    between atoms: C_4  and  C_19
REMARK    3  A    between atoms: C_9  and  C_14
REMARK    4  A    between atoms: N_17  and  C_36
REMARK                            x       y       z     vdW  Elec       q    Type
REMARK                         _______ _______ _______ _____ _____    ______ ____
ROOT
ATOM      1  C   UNL     1      45.384  32.879  47.527  0.00  0.00    +0.000 A 
ATOM      2  C   UNL     1      45.905  32.631  46.300  0.00  0.00    +0.000 A 
ATOM      3  C   UNL     1      46.151  31.284  46.028  0.00  0.00    +0.000 A 
ATOM      4  N   UNL     1      45.898  30.284  46.908  0.00  0.00    +0.000 NA
ATOM      5  C   UNL     1      45.367  30.596  48.150  0.00  0.00    +0.000 A 
ATOM      6  N   UNL     1      45.125  31.867  48.427  0.00  0.00    +0.000 NA
ATOM      7  N   UNL     1      45.128  29.569  49.104  0.00  0.00    +0.000 N 
ATOM      8  H   UNL     1      45.159  33.886  47.842  0.00  0.00    +0.000 HD
ATOM      9  H   UNL     1      44.868  28.598  48.796  0.00  0.00    +0.000 HD
ATOM     10  H   UNL     1      45.228  29.842  50.121  0.00  0.00    +0.000 HD
ENDROOT
BRANCH   2  11
ATOM     11  C   UNL     1      46.148  33.596  45.283  0.00  0.00    +0.000 C 
ATOM     12  C   UNL     1      44.906  34.658  45.497  0.00  0.00    +0.000 C 
ATOM     13  C   UNL     1      44.674  35.590  44.430  0.00  0.00    +0.000 C 
ATOM     14  C   UNL     1      45.504  35.549  43.222  0.00  0.00    +0.000 C 
ATOM     15  C   UNL     1      46.590  34.575  43.188  0.00  0.00    +0.000 C 
ATOM     16  C   UNL     1      46.155  33.324  43.917  0.00  0.00    +0.000 C 
ATOM     17  H   UNL     1      46.943  34.322  45.641  0.00  0.00    +0.000 HD
ATOM     18  H   UNL     1      44.210  34.785  46.317  0.00  0.00    +0.000 HD
ATOM     19  H   UNL     1      43.885  36.290  44.531  0.00  0.00    +0.000 HD
ATOM     20  H   UNL     1      45.905  36.576  43.051  0.00  0.00    +0.000 HD
ATOM     21  H   UNL     1      46.881  34.385  42.121  0.00  0.00    +0.000 HD
ATOM     22  H   UNL     1      47.489  34.950  43.728  0.00  0.00    +0.000 HD
ATOM     23  H   UNL     1      45.187  33.021  43.469  0.00  0.00    +0.000 HD
ATOM     24  H   UNL     1      46.995  32.684  43.580  0.00  0.00    +0.000 HD
BRANCH  14  25
ATOM     25  C   UNL     1      44.523  35.267  42.045  0.00  0.00    +0.000 C 
ATOM     26  F   UNL     1      43.469  34.450  42.416  0.00  0.00    +0.000 F 
ATOM     27  F   UNL     1      43.970  36.500  41.699  0.00  0.00    +0.000 F 
ATOM     28  F   UNL     1      45.230  34.820  40.947  0.00  0.00    +0.000 F 
ENDBRANCH  14  25
ENDBRANCH   2  11
BRANCH   3  29
ATOM     29  C   UNL     1      46.748  30.597  44.895  0.00  0.00    +0.000 A 
ATOM     30  C   UNL     1      46.351  29.919  43.788  0.00  0.00    +0.000 A 
ATOM     31  C   UNL     1      47.507  29.465  43.125  0.00  0.00    +0.000 A 
ATOM     32  N   UNL     1      48.532  29.893  43.862  0.00  0.00    +0.000 N 
ATOM     33  N   UNL     1      48.113  30.562  44.910  0.00  0.00    +0.000 NA
ATOM     34  H   UNL     1      45.294  29.840  43.607  0.00  0.00    +0.000 HD
ATOM     35  H   UNL     1      47.422  28.903  42.221  0.00  0.00    +0.000 HD
BRANCH  32  36
ATOM     36  C   UNL     1      49.928  29.617  43.494  0.00  0.00    +0.000 C 
ATOM     37  F   UNL     1      49.995  29.196  42.193  0.00  0.00    +0.000 F 
ATOM     38  F   UNL     1      50.538  28.783  44.389  0.00  0.00    +0.000 F 
ATOM     39  F   UNL     1      50.634  30.826  43.560  0.00  0.00    +0.000 F 
ENDBRANCH  32  36
ENDBRANCH   3  29
TORSDOF 4
