
 OpenBabel03232520263D

 43 47  0  0  1  0  0  0  0  0999 V2000
   46.9290   34.5130   41.2980 C   0  0  0  0  0  0  0  0  0  0  0  0
   48.1900   34.9630   40.9350 C   0  0  0  0  0  0  0  0  0  0  0  0
   48.4510   34.6540   39.6740 N   0  0  0  0  0  0  0  0  0  0  0  0
   47.3760   34.0010   39.1940 C   0  0  0  0  0  0  0  0  0  0  0  0
   47.1270   33.4590   37.9340 C   0  0  0  0  0  0  0  0  0  0  0  0
   45.9300   32.8370   37.7080 C   0  0  0  0  0  0  0  0  0  0  0  0
   44.9200   32.6970   38.6500 C   0  0  0  0  0  0  0  0  0  0  0  0
   45.2240   33.2550   39.8840 C   0  0  0  0  0  0  0  0  0  0  0  0
   46.4000   33.8920   40.1830 C   0  0  0  0  0  0  0  0  0  0  0  0
   49.3110   34.8450   39.0830 H   0  0  0  0  0  0  0  0  0  0  0  0
   47.8650   33.5260   37.1410 H   0  0  0  0  0  0  0  0  0  0  0  0
   45.7520   32.4210   36.7230 H   0  0  0  0  0  0  0  0  0  0  0  0
   43.9880   32.2010   38.4380 H   0  0  0  0  0  0  0  0  0  0  0  0
   44.4640   33.1740   40.6640 H   0  0  0  0  0  0  0  0  0  0  0  0
   44.7770   35.8570   44.0350 C   0  0  0  0  0  0  0  0  0  0  0  0
   45.4110   35.7470   42.7790 C   0  0  0  0  0  0  0  0  0  0  0  0
   46.2640   34.6470   42.5860 C   0  0  0  0  0  0  0  0  0  0  0  0
   46.4500   33.7430   43.5940 N   0  0  0  0  0  0  0  0  0  0  0  0
   45.8010   33.9170   44.7830 C   0  0  0  0  0  0  0  0  0  0  0  0
   44.9770   34.9490   45.0140 N   0  0  0  0  0  0  0  0  0  0  0  0
   44.1170   36.7190   44.1650 H   0  0  0  0  0  0  0  0  0  0  0  0
   45.2370   36.4800   42.0120 H   0  0  0  0  0  0  0  0  0  0  0  0
   45.9430   33.2030   45.5880 H   0  0  0  0  0  0  0  0  0  0  0  0
   49.0940   35.6910   41.8610 C   0  0  0  0  0  0  0  0  0  0  0  0
   48.5000   36.3330   42.5520 H   0  0  0  0  0  0  0  0  0  0  0  0
   49.7990   36.3680   41.3240 H   0  0  0  0  0  0  0  0  0  0  0  0
   49.9510   34.7440   42.6590 C   0  0  0  0  0  0  0  0  0  0  0  0
   50.9160   35.2400   42.9310 H   0  0  0  0  0  0  0  0  0  0  0  0
   49.3960   34.5520   43.6210 H   0  0  0  0  0  0  0  0  0  0  0  0
   50.3110   33.4910   41.9340 C   0  0  1  0  0  0  0  0  0  0  0  0
   51.0600   32.3940   42.5570 C   0  0  0  0  0  0  0  0  0  0  0  0
   49.5960   32.2370   42.4960 C   0  0  2  0  0  0  0  0  0  0  0  0
   50.3240   33.5660   40.8440 H   0  0  0  0  0  0  0  0  0  0  0  0
   51.5170   32.6680   43.5530 H   0  0  0  0  0  0  0  0  0  0  0  0
   51.7720   31.7620   41.9890 H   0  0  0  0  0  0  0  0  0  0  0  0
   49.0540   32.3340   43.4550 H   0  0  0  0  0  0  0  0  0  0  0  0
   49.0450   31.2940   41.6040 N   0  0  0  0  0  0  0  0  0  0  0  0
   48.9520   30.0100   42.2740 C   0  0  0  0  0  0  0  0  0  0  0  0
   48.4660   28.9990   41.2810 C   0  0  0  0  0  0  0  0  0  0  0  0
   49.5610   28.7130   40.3720 N   0  0  0  0  0  0  0  0  0  0  0  0
   50.1150   27.9050   40.6710 H   0  0  0  0  0  0  0  0  0  0  0  0
   50.4450   29.8560   40.2280 C   0  0  0  0  0  0  0  0  0  0  0  0
   49.6230   31.1500   40.3220 C   0  0  0  0  0  0  0  0  0  0  0  0
  1 17  1  0  0  0  0
  2  1  2  0  0  0  0
  2 24  1  0  0  0  0
  3  2  1  0  0  0  0
  4  3  1  0  0  0  0
  4  9  1  0  0  0  0
  5  4  2  0  0  0  0
  6  5  1  0  0  0  0
  6  7  2  0  0  0  0
  7  8  1  0  0  0  0
  8  9  2  0  0  0  0
  8 14  1  0  0  0  0
  9  1  1  0  0  0  0
 10  3  1  0  0  0  0
 11  5  1  0  0  0  0
 12  6  1  0  0  0  0
 13  7  1  0  0  0  0
 15 21  1  0  0  0  0
 15 20  1  0  0  0  0
 16 15  2  0  0  0  0
 17 16  1  0  0  0  0
 17 18  2  0  0  0  0
 18 19  1  0  0  0  0
 19 20  2  0  0  0  0
 19 23  1  0  0  0  0
 22 16  1  0  0  0  0
 24 25  1  0  0  0  0
 24 27  1  0  0  0  0
 26 24  1  0  0  0  0
 27 28  1  0  0  0  0
 27 29  1  0  0  0  0
 30 33  1  6  0  0  0
 30 32  1  0  0  0  0
 30 31  1  0  0  0  0
 30 27  1  0  0  0  0
 31 34  1  0  0  0  0
 32 31  1  0  0  0  0
 32 36  1  1  0  0  0
 35 31  1  0  0  0  0
 37 38  1  0  0  0  0
 37 32  1  0  0  0  0
 39 38  1  0  0  0  0
 40 41  1  0  0  0  0
 40 39  1  0  0  0  0
 42 43  1  0  0  0  0
 42 40  1  0  0  0  0
 43 37  1  0  0  0  0
M  END
>  <minimizedAffinity>
-5.72857714

>  <minimizedRMSD>
0.242015868

$$$$
