
     RDKit          3D

 39 41  0  0  0  0  0  0  0  0999 V2000
   46.1485   33.5960   45.2827 C   0  0  2  0  0  0  0  0  0  0  0  0
   44.9063   34.6584   45.4969 C   0  0  0  0  0  0  0  0  0  0  0  0
   44.6738   35.5900   44.4296 C   0  0  0  0  0  0  0  0  0  0  0  0
   45.5038   35.5492   43.2218 C   0  0  1  0  0  0  0  0  0  0  0  0
   46.5895   34.5746   43.1883 C   0  0  0  0  0  0  0  0  0  0  0  0
   46.1552   33.3240   43.9168 C   0  0  0  0  0  0  0  0  0  0  0  0
   45.3844   32.8790   47.5272 C   0  0  0  0  0  0  0  0  0  0  0  0
   45.9048   32.6311   46.2995 C   0  0  0  0  0  0  0  0  0  0  0  0
   46.1514   31.2840   46.0279 C   0  0  0  0  0  0  0  0  0  0  0  0
   45.8977   30.2837   46.9082 N   0  0  0  0  0  0  0  0  0  0  0  0
   45.3665   30.5963   48.1497 C   0  0  0  0  0  0  0  0  0  0  0  0
   45.1247   31.8667   48.4271 N   0  0  0  0  0  0  0  0  0  0  0  0
   45.1278   29.5685   49.1042 N   0  0  0  0  0  0  0  0  0  0  0  0
   46.7484   30.5974   44.8955 C   0  0  0  0  0  0  0  0  0  0  0  0
   46.3510   29.9187   43.7884 C   0  0  0  0  0  0  0  0  0  0  0  0
   47.5065   29.4655   43.1247 C   0  0  0  0  0  0  0  0  0  0  0  0
   48.5315   29.8927   43.8622 N   0  0  0  0  0  0  0  0  0  0  0  0
   48.1130   30.5616   44.9101 N   0  0  0  0  0  0  0  0  0  0  0  0
   44.5230   35.2671   42.0453 C   0  0  0  0  0  0  0  0  0  0  0  0
   43.4694   34.4504   42.4157 F   0  0  0  0  0  0  0  0  0  0  0  0
   43.9703   36.4998   41.6994 F   0  0  0  0  0  0  0  0  0  0  0  0
   45.2305   34.8204   40.9468 F   0  0  0  0  0  0  0  0  0  0  0  0
   46.9430   34.3225   45.6412 H   0  0  0  0  0  0  0  0  0  0  0  0
   44.2104   34.7851   46.3169 H   0  0  0  0  0  0  0  0  0  0  0  0
   43.8852   36.2900   44.5310 H   0  0  0  0  0  0  0  0  0  0  0  0
   45.9048   36.5761   43.0507 H   0  0  0  0  0  0  0  0  0  0  0  0
   46.8813   34.3845   42.1211 H   0  0  0  0  0  0  0  0  0  0  0  0
   47.4892   34.9497   43.7279 H   0  0  0  0  0  0  0  0  0  0  0  0
   45.1872   33.0214   43.4692 H   0  0  0  0  0  0  0  0  0  0  0  0
   46.9954   32.6836   43.5797 H   0  0  0  0  0  0  0  0  0  0  0  0
   45.1592   33.8858   47.8424 H   0  0  0  0  0  0  0  0  0  0  0  0
   44.8679   28.5983   48.7956 H   0  0  0  0  0  0  0  0  0  0  0  0
   45.2277   29.8417   50.1211 H   0  0  0  0  0  0  0  0  0  0  0  0
   45.2935   29.8404   43.6066 H   0  0  0  0  0  0  0  0  0  0  0  0
   47.4218   28.9030   42.2207 H   0  0  0  0  0  0  0  0  0  0  0  0
   49.9283   29.6166   43.4943 C   0  0  0  0  0  0  0  0  0  0  0  0
   50.6817   30.7516   43.6342 F   0  0  0  0  0  0  0  0  0  0  0  0
   50.0265   29.0216   42.2687 F   0  0  0  0  0  0  0  0  0  0  0  0
   50.4345   28.6851   44.4106 F   0  0  0  0  0  0  0  0  0  0  0  0
  1  2  1  0
  1  8  1  0
  3  2  2  0
  4  3  1  0
  5  4  1  0
  5  6  1  0
  6  1  1  0
  7 12  2  0
  8  7  1  0
  9  8  2  0
  9 10  1  0
 10 11  2  0
 11 12  1  0
 11 13  1  0
 14 18  2  0
 14  9  1  0
 15 14  1  0
 16 15  2  0
 16 17  1  0
 17 18  1  0
 19 20  1  0
 19  4  1  0
 21 19  1  0
 22 19  1  0
  1 23  1  1
  2 24  1  0
  3 25  1  0
  4 26  1  6
  5 27  1  0
  5 28  1  0
  6 29  1  0
  6 30  1  0
  7 31  1  0
 13 32  1  0
 13 33  1  0
 15 34  1  0
 16 35  1  0
 36 37  1  0
 36 38  1  0
 36 39  1  0
 17 36  1  0
M  ISO  8  23  13  24  13  25  13  26  13  27  13  28  13  29  13  30  13
M  ISO  3  31  14  34  14  35  14
M  END
>  <DihAtoms>  (1) 
15,16,35,36

>  <DihDeg>  (1) 
60.073787262550226

$$$$
