
 OpenBabel03232519503D

 44 48  0  0  1  0  0  0  0  0999 V2000
   46.2180   33.8290   41.9160 N   0  0  0  0  0  0  0  0  0  0  0  0
   47.5320   34.0030   41.3110 C   0  0  0  0  0  0  0  0  0  0  0  0
   47.1320   34.1710   39.8670 C   0  0  0  0  0  0  0  0  0  0  0  0
   46.2130   32.9790   39.7000 C   0  0  0  0  0  0  0  0  0  0  0  0
   45.4590   32.9750   40.9880 C   0  0  2  0  0  0  0  0  0  0  0  0
   48.1080   33.0390   41.4080 H   0  0  0  0  0  0  0  0  0  0  0  0
   48.0820   34.8580   41.7290 H   0  0  0  0  0  0  0  0  0  0  0  0
   46.5620   35.1300   39.7970 H   0  0  0  0  0  0  0  0  0  0  0  0
   48.0020   34.1390   39.1830 H   0  0  0  0  0  0  0  0  0  0  0  0
   45.5790   33.0590   38.7950 H   0  0  0  0  0  0  0  0  0  0  0  0
   46.8830   32.1080   39.5450 H   0  0  0  0  0  0  0  0  0  0  0  0
   45.6210   31.9470   41.4070 H   0  0  0  0  0  0  0  0  0  0  0  0
   44.0770   33.2760   40.9180 N   0  0  0  0  0  0  0  0  0  0  0  0
   43.4800   34.2070   40.1790 C   0  0  0  0  0  0  0  0  0  0  0  0
   42.1110   34.4220   40.1830 C   0  0  0  0  0  0  0  0  0  0  0  0
   41.3050   33.6380   40.9930 C   0  0  0  0  0  0  0  0  0  0  0  0
   40.0370   33.7870   41.0410 O   0  0  0  0  0  0  0  0  0  0  0  0
   41.9110   32.7030   41.7360 N   0  0  0  0  0  0  0  0  0  0  0  0
   43.2270   32.5390   41.6930 C   0  0  0  0  0  0  0  0  0  0  0  0
   43.6960   31.6210   42.4390 O   0  0  0  0  0  0  0  0  0  0  0  0
   44.1310   34.8140   39.5470 H   0  0  0  0  0  0  0  0  0  0  0  0
   41.2930   32.1250   42.3350 H   0  0  0  0  0  0  0  0  0  0  0  0
   41.4800   35.4590   39.3530 C   0  0  0  0  0  0  0  0  0  0  0  0
   40.5700   35.8970   39.7760 H   0  0  0  0  0  0  0  0  0  0  0  0
   42.1910   36.3040   39.1690 H   0  0  0  0  0  0  0  0  0  0  0  0
   41.2450   35.0200   38.3610 H   0  0  0  0  0  0  0  0  0  0  0  0
   44.6410   36.0230   44.4570 C   0  0  0  0  0  0  0  0  0  0  0  0
   45.1070   35.5850   43.2170 C   0  0  0  0  0  0  0  0  0  0  0  0
   45.7250   34.3410   43.1180 C   0  0  0  0  0  0  0  0  0  0  0  0
   45.8350   33.6160   44.2650 N   0  0  0  0  0  0  0  0  0  0  0  0
   45.3820   34.0410   45.4670 C   0  0  0  0  0  0  0  0  0  0  0  0
   44.7900   35.2400   45.5470 N   0  0  0  0  0  0  0  0  0  0  0  0
   44.1710   36.9870   44.4880 H   0  0  0  0  0  0  0  0  0  0  0  0
   45.0250   36.1530   42.3000 H   0  0  0  0  0  0  0  0  0  0  0  0
   45.5630   33.1640   46.6210 C   0  0  0  0  0  0  0  0  0  0  0  0
   44.9350   33.3740   47.8310 C   0  0  0  0  0  0  0  0  0  0  0  0
   45.3250   32.3860   48.6610 N   0  0  0  0  0  0  0  0  0  0  0  0
   46.1710   31.5810   47.9930 C   0  0  0  0  0  0  0  0  0  0  0  0
   46.8400   30.4410   48.3930 C   0  0  0  0  0  0  0  0  0  0  0  0
   47.6630   29.8000   47.4810 C   0  0  0  0  0  0  0  0  0  0  0  0
   47.8530   30.2410   46.1880 C   0  0  0  0  0  0  0  0  0  0  0  0
   47.1810   31.3870   45.7860 C   0  0  0  0  0  0  0  0  0  0  0  0
   46.3580   32.0350   46.6820 C   0  0  0  0  0  0  0  0  0  0  0  0
   45.0110   32.2820   49.6500 H   0  0  0  0  0  0  0  0  0  0  0  0
  1 29  1  0  0  0  0
  2  6  1  0  0  0  0
  2  7  1  0  0  0  0
  2  1  1  0  0  0  0
  3  2  1  0  0  0  0
  4  3  1  0  0  0  0
  4  5  1  0  0  0  0
  5 12  1  1  0  0  0
  5  1  1  0  0  0  0
  8  3  1  0  0  0  0
  9  3  1  0  0  0  0
 10  4  1  0  0  0  0
 11  4  1  0  0  0  0
 13  5  1  0  0  0  0
 13 19  1  0  0  0  0
 14 15  2  0  0  0  0
 14 13  1  0  0  0  0
 15 16  1  0  0  0  0
 16 17  2  0  0  0  0
 16 18  1  0  0  0  0
 18 22  1  0  0  0  0
 19 18  1  0  0  0  0
 19 20  2  0  0  0  0
 21 14  1  0  0  0  0
 23 24  1  0  0  0  0
 23 15  1  0  0  0  0
 25 23  1  0  0  0  0
 26 23  1  0  0  0  0
 27 33  1  0  0  0  0
 27 32  1  0  0  0  0
 28 27  2  0  0  0  0
 29 28  1  0  0  0  0
 29 30  2  0  0  0  0
 30 31  1  0  0  0  0
 31 32  2  0  0  0  0
 31 35  1  0  0  0  0
 34 28  1  0  0  0  0
 35 43  1  0  0  0  0
 35 36  2  0  0  0  0
 36 37  1  0  0  0  0
 37 44  1  0  0  0  0
 38 39  1  0  0  0  0
 38 37  1  0  0  0  0
 40 39  2  0  0  0  0
 41 40  1  0  0  0  0
 42 41  2  0  0  0  0
 42 43  1  0  0  0  0
 43 38  2  0  0  0  0
M  END
>  <minimizedAffinity>
-7.09147644

>  <minimizedRMSD>
0.620544851

$$$$
