
 OpenBabel03232520573D

 38 41  0  0  1  0  0  0  0  0999 V2000
   45.2810   32.9240   47.5230 C   0  0  0  0  0  0  0  0  0  0  0  0
   45.8980   32.6250   46.3380 C   0  0  0  0  0  0  0  0  0  0  0  0
   46.2900   31.3000   46.1450 C   0  0  0  0  0  0  0  0  0  0  0  0
   46.0670   30.3880   47.0910 N   0  0  0  0  0  0  0  0  0  0  0  0
   45.4540   30.6880   48.2670 C   0  0  0  0  0  0  0  0  0  0  0  0
   45.0690   31.9440   48.4700 N   0  0  0  0  0  0  0  0  0  0  0  0
   45.2380   29.6720   49.2330 N   0  0  0  0  0  0  0  0  0  0  0  0
   44.9580   33.9070   47.7390 H   0  0  0  0  0  0  0  0  0  0  0  0
   44.5930   28.9580   48.8130 H   0  0  0  0  0  0  0  0  0  0  0  0
   45.6850   29.7150   50.1730 H   0  0  0  0  0  0  0  0  0  0  0  0
   46.0920   33.6400   45.3470 C   0  0  2  0  0  0  0  0  0  0  0  0
   44.9530   34.6980   45.4960 C   0  0  0  0  0  0  0  0  0  0  0  0
   44.7480   35.5850   44.3870 C   0  0  0  0  0  0  0  0  0  0  0  0
   45.5570   35.4920   43.1760 C   0  0  1  0  0  0  0  0  0  0  0  0
   46.6570   34.5240   43.1990 C   0  0  0  0  0  0  0  0  0  0  0  0
   46.2590   33.2970   43.9630 C   0  0  0  0  0  0  0  0  0  0  0  0
   46.9200   34.3260   45.7320 H   0  0  0  0  0  0  0  0  0  0  0  0
   44.2470   34.9250   46.2840 H   0  0  0  0  0  0  0  0  0  0  0  0
   43.9910   36.3280   44.4290 H   0  0  0  0  0  0  0  0  0  0  0  0
   45.9560   36.5140   42.9390 H   0  0  0  0  0  0  0  0  0  0  0  0
   47.5980   34.9050   43.6830 H   0  0  0  0  0  0  0  0  0  0  0  0
   46.9310   34.2270   42.1510 H   0  0  0  0  0  0  0  0  0  0  0  0
   47.0940   32.6110   43.7120 H   0  0  0  0  0  0  0  0  0  0  0  0
   45.3450   32.9030   43.4980 H   0  0  0  0  0  0  0  0  0  0  0  0
   44.6100   35.1680   42.0070 C   0  0  0  0  0  0  0  0  0  0  0  0
   43.6170   34.2670   42.3540 F   0  0  0  0  0  0  0  0  0  0  0  0
   43.9420   36.3590   41.6890 F   0  0  0  0  0  0  0  0  0  0  0  0
   45.3180   34.7830   40.8930 F   0  0  0  0  0  0  0  0  0  0  0  0
   46.9250   30.5910   45.0400 C   0  0  0  0  0  0  0  0  0  0  0  0
   48.2250   30.3250   44.5570 C   0  0  0  0  0  3  0  0  0  0  0  0
   48.1540   29.6600   43.3980 N   0  0  0  0  0  0  0  0  0  0  0  0
   46.8980   29.4350   43.0210 C   0  0  0  0  0  0  0  0  0  0  0  0
   46.3410   28.8180   41.9480 C   0  0  0  0  0  3  0  0  0  0  0  0
   44.9580   28.7320   41.8140 C   0  0  0  0  0  3  0  0  0  0  0  0
   44.1620   29.2870   42.7920 C   0  0  0  0  0  3  0  0  0  0  0  0
   44.7600   29.9030   43.8640 C   0  0  0  0  0  3  0  0  0  0  0  0
   46.1480   30.0050   44.0250 C   0  0  0  0  0  0  0  0  0  0  0  0
   49.0260   29.3770   42.8910 H   0  0  0  0  0  0  0  0  0  0  0  0
  1  8  1  0  0  0  0
  1  6  1  0  0  0  0
  2  1  2  0  0  0  0
  3  2  1  0  0  0  0
  3  4  2  0  0  0  0
  4  5  1  0  0  0  0
  5  6  2  0  0  0  0
  5  7  1  0  0  0  0
  7 10  1  0  0  0  0
  9  7  1  0  0  0  0
 11 12  1  0  0  0  0
 11 17  1  1  0  0  0
 11  2  1  0  0  0  0
 12 18  1  0  0  0  0
 13 19  1  0  0  0  0
 13 12  2  0  0  0  0
 14 20  1  6  0  0  0
 14 15  1  0  0  0  0
 14 13  1  0  0  0  0
 15 21  1  0  0  0  0
 15 16  1  0  0  0  0
 16 11  1  0  0  0  0
 22 15  1  0  0  0  0
 23 16  1  0  0  0  0
 24 16  1  0  0  0  0
 25 26  1  0  0  0  0
 25 14  1  0  0  0  0
 27 25  1  0  0  0  0
 28 25  1  0  0  0  0
 29  3  1  0  0  0  0
 30 29  2  0  0  0  0
 31 30  1  0  0  0  0
 32 31  1  0  0  0  0
 32 37  1  0  0  0  0
 33 32  2  0  0  0  0
 34 33  1  0  0  0  0
 34 35  2  0  0  0  0
 35 36  1  0  0  0  0
 36 37  2  0  0  0  0
 37 29  1  0  0  0  0
 38 31  1  0  0  0  0
M  END
>  <minimizedAffinity>
-5.803195

>  <minimizedRMSD>
0.312518626

$$$$
