
 OpenBabel03232520583D

 38 41  0  0  1  0  0  0  0  0999 V2000
   45.7310   32.8960   47.6630 C   0  0  0  0  0  0  0  0  0  0  0  0
   45.8830   32.5750   46.3410 C   0  0  0  0  0  0  0  0  0  0  0  0
   45.7990   31.2240   46.0040 C   0  0  0  0  0  0  0  0  0  0  0  0
   45.5850   30.3070   46.9480 N   0  0  0  0  0  0  0  0  0  0  0  0
   45.4350   30.6290   48.2600 C   0  0  0  0  0  0  0  0  0  0  0  0
   45.5090   31.9120   48.6030 N   0  0  0  0  0  0  0  0  0  0  0  0
   45.2030   29.6090   49.2180 N   0  0  0  0  0  0  0  0  0  0  0  0
   45.7840   33.8990   47.9930 H   0  0  0  0  0  0  0  0  0  0  0  0
   44.2870   29.1510   48.9870 H   0  0  0  0  0  0  0  0  0  0  0  0
   45.8820   29.4220   49.9850 H   0  0  0  0  0  0  0  0  0  0  0  0
   46.0880   33.6030   45.3660 C   0  0  2  0  0  0  0  0  0  0  0  0
   44.9390   34.6520   45.5080 C   0  0  0  0  0  0  0  0  0  0  0  0
   44.7480   35.5520   44.4060 C   0  0  0  0  0  0  0  0  0  0  0  0
   45.5800   35.4790   43.2080 C   0  0  1  0  0  0  0  0  0  0  0  0
   46.6860   34.5180   43.2400 C   0  0  0  0  0  0  0  0  0  0  0  0
   46.2820   33.2790   43.9820 C   0  0  0  0  0  0  0  0  0  0  0  0
   46.9040   34.2900   45.7750 H   0  0  0  0  0  0  0  0  0  0  0  0
   44.2180   34.8650   46.2850 H   0  0  0  0  0  0  0  0  0  0  0  0
   43.9850   36.2890   44.4430 H   0  0  0  0  0  0  0  0  0  0  0  0
   45.9750   36.5060   42.9920 H   0  0  0  0  0  0  0  0  0  0  0  0
   47.6150   34.8990   43.7460 H   0  0  0  0  0  0  0  0  0  0  0  0
   46.9800   34.2350   42.1930 H   0  0  0  0  0  0  0  0  0  0  0  0
   47.1260   32.6010   43.7370 H   0  0  0  0  0  0  0  0  0  0  0  0
   45.3800   32.8850   43.4950 H   0  0  0  0  0  0  0  0  0  0  0  0
   44.6560   35.1630   42.0190 C   0  0  0  0  0  0  0  0  0  0  0  0
   43.6540   34.2640   42.3420 F   0  0  0  0  0  0  0  0  0  0  0  0
   43.9990   36.3570   41.6920 F   0  0  0  0  0  0  0  0  0  0  0  0
   45.3870   34.7800   40.9190 F   0  0  0  0  0  0  0  0  0  0  0  0
   45.8680   30.4980   44.7410 C   0  0  0  0  0  0  0  0  0  0  0  0
   44.9880   29.9890   43.7610 C   0  0  0  0  0  3  0  0  0  0  0  0
   45.6780   29.3130   42.8350 N   0  0  0  0  0  0  0  0  0  0  0  0
   46.9840   29.3030   43.0860 C   0  0  0  0  0  0  0  0  0  0  0  0
   48.0550   28.7600   42.4510 C   0  0  0  0  0  3  0  0  0  0  0  0
   49.3400   28.9160   42.9610 C   0  0  0  0  0  3  0  0  0  0  0  0
   49.5090   29.6320   44.1250 C   0  0  0  0  0  3  0  0  0  0  0  0
   48.4040   30.1680   44.7400 C   0  0  0  0  0  3  0  0  0  0  0  0
   47.1000   30.0280   44.2530 C   0  0  0  0  0  0  0  0  0  0  0  0
   45.1860   28.8630   42.0270 H   0  0  0  0  0  0  0  0  0  0  0  0
  1  8  1  0  0  0  0
  1  6  1  0  0  0  0
  2  1  2  0  0  0  0
  3  2  1  0  0  0  0
  3  4  2  0  0  0  0
  4  5  1  0  0  0  0
  5  6  2  0  0  0  0
  5  7  1  0  0  0  0
  7 10  1  0  0  0  0
  9  7  1  0  0  0  0
 11 12  1  0  0  0  0
 11 17  1  1  0  0  0
 11  2  1  0  0  0  0
 12 18  1  0  0  0  0
 13 19  1  0  0  0  0
 13 12  2  0  0  0  0
 14 20  1  6  0  0  0
 14 15  1  0  0  0  0
 14 13  1  0  0  0  0
 15 21  1  0  0  0  0
 15 16  1  0  0  0  0
 16 11  1  0  0  0  0
 22 15  1  0  0  0  0
 23 16  1  0  0  0  0
 24 16  1  0  0  0  0
 25 26  1  0  0  0  0
 25 14  1  0  0  0  0
 27 25  1  0  0  0  0
 28 25  1  0  0  0  0
 29  3  1  0  0  0  0
 30 29  2  0  0  0  0
 31 32  1  0  0  0  0
 31 30  1  0  0  0  0
 32 37  1  0  0  0  0
 33 34  1  0  0  0  0
 33 32  2  0  0  0  0
 34 35  2  0  0  0  0
 35 36  1  0  0  0  0
 37 36  2  0  0  0  0
 37 29  1  0  0  0  0
 38 31  1  0  0  0  0
M  END
>  <minimizedAffinity>
-5.77362919

>  <minimizedRMSD>
1.03284442

$$$$
