
 OpenBabel03232520543D

 36 39  0  0  1  0  0  0  0  0999 V2000
   46.6680   33.2760   44.6710 C   0  0  2  0  0  0  0  0  0  0  0  0
   45.4450   33.9990   45.1840 C   0  0  0  0  0  0  0  0  0  0  0  0
   44.9410   35.0860   44.3740 C   0  0  0  0  0  0  0  0  0  0  0  0
   45.5840   35.4580   43.1280 C   0  0  1  0  0  0  0  0  0  0  0  0
   46.8260   34.7370   42.7710 C   0  0  0  0  0  0  0  0  0  0  0  0
   46.7270   33.2970   43.1840 C   0  0  0  0  0  0  0  0  0  0  0  0
   47.5190   33.8970   45.0750 H   0  0  0  0  0  0  0  0  0  0  0  0
   44.8040   33.9140   46.0500 H   0  0  0  0  0  0  0  0  0  0  0  0
   44.0730   35.6500   44.6740 H   0  0  0  0  0  0  0  0  0  0  0  0
   45.8090   36.5520   43.1540 H   0  0  0  0  0  0  0  0  0  0  0  0
   47.6660   35.1810   43.3650 H   0  0  0  0  0  0  0  0  0  0  0  0
   47.0420   34.8950   41.7020 H   0  0  0  0  0  0  0  0  0  0  0  0
   47.6410   32.8070   42.8520 H   0  0  0  0  0  0  0  0  0  0  0  0
   45.8060   32.8910   42.7260 H   0  0  0  0  0  0  0  0  0  0  0  0
   46.1700   31.7600   46.5230 C   0  0  0  0  0  0  0  0  0  0  0  0
   46.7680   31.9690   45.2950 C   0  0  0  0  0  0  0  0  0  0  0  0
   47.4560   30.8900   44.7310 C   0  0  0  0  0  0  0  0  0  0  0  0
   47.5180   29.7100   45.3770 N   0  0  0  0  0  0  0  0  0  0  0  0
   46.9200   29.5270   46.5890 C   0  0  0  0  0  0  0  0  0  0  0  0
   46.2560   30.5490   47.1440 N   0  0  0  0  0  0  0  0  0  0  0  0
   45.6050   32.4760   47.0990 H   0  0  0  0  0  0  0  0  0  0  0  0
   47.9340   31.0080   43.7810 H   0  0  0  0  0  0  0  0  0  0  0  0
   47.0200   28.2270   47.2430 C   0  0  0  0  0  0  0  0  0  0  0  0
   48.1820   27.7110   47.7790 C   0  0  0  0  0  0  0  0  0  0  0  0
   47.8010   26.4970   48.2740 N   0  0  0  0  0  0  0  0  0  0  0  0
   46.4910   26.2690   48.0610 C   0  0  0  0  0  0  0  0  0  0  0  0
   45.6420   25.2350   48.3530 C   0  0  0  0  0  0  0  0  0  0  0  0
   44.3070   25.2620   48.0110 C   0  0  0  0  0  0  0  0  0  0  0  0
   43.7630   26.3520   47.3490 C   0  0  0  0  0  0  0  0  0  0  0  0
   44.6260   27.3870   47.0610 C   0  0  0  0  0  0  0  0  0  0  0  0
   45.9600   27.3570   47.4040 C   0  0  0  0  0  0  0  0  0  0  0  0
   48.3880   25.7770   48.7670 H   0  0  0  0  0  0  0  0  0  0  0  0
   44.5540   35.3070   42.0040 C   0  0  0  0  0  0  0  0  0  0  0  0
   43.4980   34.4900   42.3540 F   0  0  0  0  0  0  0  0  0  0  0  0
   44.0000   36.5710   41.7670 F   0  0  0  0  0  0  0  0  0  0  0  0
   45.1760   34.8980   40.8400 F   0  0  0  0  0  0  0  0  0  0  0  0
  1  7  1  1  0  0  0
  1  2  1  0  0  0  0
  1 16  1  0  0  0  0
  2  8  1  0  0  0  0
  3  9  1  0  0  0  0
  3  2  2  0  0  0  0
  4 10  1  1  0  0  0
  4  3  1  0  0  0  0
  5  4  1  0  0  0  0
  5  6  1  0  0  0  0
  5 11  1  0  0  0  0
  6  1  1  0  0  0  0
 12  5  1  0  0  0  0
 13  6  1  0  0  0  0
 14  6  1  0  0  0  0
 15 21  1  0  0  0  0
 15 20  1  0  0  0  0
 16 15  2  0  0  0  0
 17 16  1  0  0  0  0
 17 18  2  0  0  0  0
 18 19  1  0  0  0  0
 19 20  2  0  0  0  0
 19 23  1  0  0  0  0
 22 17  1  0  0  0  0
 23 31  1  0  0  0  0
 23 24  2  0  0  0  0
 24 25  1  0  0  0  0
 25 32  1  0  0  0  0
 26 25  1  0  0  0  0
 26 27  1  0  0  0  0
 28 27  2  0  0  0  0
 29 28  1  0  0  0  0
 30 29  2  0  0  0  0
 30 31  1  0  0  0  0
 31 26  2  0  0  0  0
 33 34  1  0  0  0  0
 33  4  1  0  0  0  0
 35 33  1  0  0  0  0
 36 33  1  0  0  0  0
M  END
>  <minimizedAffinity>
-5.76779938

>  <minimizedRMSD>
1.96493697

$$$$
