
 OpenBabel03232520433D

 44 48  0  0  1  0  0  0  0  0999 V2000
   38.6180   33.3510   38.6670 N   0  0  0  0  0  0  0  0  0  0  0  0
   38.4320   34.2070   39.8000 C   0  0  0  0  0  0  0  0  0  0  0  0
   39.4140   33.9070   40.9100 C   0  0  0  0  0  0  0  0  0  0  0  0
   40.8110   34.0820   40.3610 C   0  0  1  0  0  0  0  0  0  0  0  0
   40.8540   34.3480   38.8870 C   0  0  0  0  0  0  0  0  0  0  0  0
   39.9650   33.3970   38.1230 C   0  0  1  0  0  0  0  0  0  0  0  0
   37.8710   33.5000   37.9830 H   0  0  0  0  0  0  0  0  0  0  0  0
   38.4720   35.2790   39.5470 H   0  0  0  0  0  0  0  0  0  0  0  0
   37.4150   33.9990   40.1880 H   0  0  0  0  0  0  0  0  0  0  0  0
   39.1920   34.6190   41.7420 H   0  0  0  0  0  0  0  0  0  0  0  0
   39.2250   32.9060   41.3300 H   0  0  0  0  0  0  0  0  0  0  0  0
   41.3310   33.1210   40.5310 H   0  0  0  0  0  0  0  0  0  0  0  0
   41.8930   34.1710   38.5450 H   0  0  0  0  0  0  0  0  0  0  0  0
   40.4960   35.3730   38.6760 H   0  0  0  0  0  0  0  0  0  0  0  0
   39.8310   33.8760   37.1100 H   0  0  0  0  0  0  0  0  0  0  0  0
   40.5530   32.0390   37.9700 C   0  0  0  0  0  0  0  0  0  0  0  0
   41.8410   31.7010   37.6140 C   0  0  0  0  0  0  0  0  0  0  0  0
   41.8840   30.3380   37.6140 N   0  0  0  0  0  0  0  0  0  0  0  0
   40.6710   29.8320   37.9560 C   0  0  0  0  0  0  0  0  0  0  0  0
   40.1580   28.5600   38.1090 C   0  0  0  0  0  0  0  0  0  0  0  0
   38.8330   28.3480   38.4800 C   0  0  0  0  0  0  0  0  0  0  0  0
   37.9780   29.4020   38.7090 C   0  0  0  0  0  0  0  0  0  0  0  0
   38.4890   30.6730   38.5560 C   0  0  0  0  0  0  0  0  0  0  0  0
   39.8080   30.8790   38.1870 C   0  0  0  0  0  0  0  0  0  0  0  0
   42.7250   29.7490   37.3850 H   0  0  0  0  0  0  0  0  0  0  0  0
   41.6050   35.3960   41.2800 S   0  0  0  0  0  0  0  0  0  0  0  0
   44.0660   35.5990   42.5660 C   0  0  0  0  0  0  0  0  0  0  0  0
   43.3650   35.0870   41.4770 C   0  0  0  0  0  0  0  0  0  0  0  0
   44.0570   34.3420   40.5670 C   0  0  0  0  0  0  0  0  0  0  0  0
   45.3910   34.1070   40.7160 N   0  0  0  0  0  0  0  0  0  0  0  0
   46.0460   34.6230   41.7920 C   0  0  0  0  0  0  0  0  0  0  0  0
   45.3870   35.3700   42.7180 N   0  0  0  0  0  0  0  0  0  0  0  0
   43.5450   36.1880   43.2950 H   0  0  0  0  0  0  0  0  0  0  0  0
   43.6040   33.9040   39.6900 H   0  0  0  0  0  0  0  0  0  0  0  0
   47.4680   34.4180   42.0230 C   0  0  0  0  0  0  0  0  0  0  0  0
   48.3380   35.4800   41.9570 C   0  0  0  0  0  0  0  0  0  0  0  0
   49.6940   35.3370   42.1690 C   0  0  0  0  0  0  0  0  0  0  0  0
   50.2150   34.1040   42.4580 C   0  0  0  0  0  0  0  0  0  0  0  0
   49.3130   33.0420   42.5200 C   0  0  0  0  0  0  0  0  0  0  0  0
   47.9910   33.2170   42.3080 N   0  0  0  0  0  0  0  0  0  0  0  0
   48.0260   36.4930   41.7350 H   0  0  0  0  0  0  0  0  0  0  0  0
   50.4070   36.1490   42.1250 H   0  0  0  0  0  0  0  0  0  0  0  0
   51.2440   33.8320   42.6490 H   0  0  0  0  0  0  0  0  0  0  0  0
   49.5490   32.0010   42.7370 H   0  0  0  0  0  0  0  0  0  0  0  0
  1  2  1  0  0  0  0
  2  9  1  0  0  0  0
  2  3  1  0  0  0  0
  3 11  1  0  0  0  0
  3 10  1  0  0  0  0
  4 12  1  1  0  0  0
  4  3  1  0  0  0  0
  4 26  1  0  0  0  0
  5  4  1  0  0  0  0
  6 15  1  6  0  0  0
  6  1  1  0  0  0  0
  6  5  1  0  0  0  0
  7  1  1  0  0  0  0
  8  2  1  0  0  0  0
 13  5  1  0  0  0  0
 14  5  1  0  0  0  0
 16  6  1  0  0  0  0
 16 24  1  0  0  0  0
 17 16  2  0  0  0  0
 18 17  1  0  0  0  0
 18 19  1  0  0  0  0
 19 20  2  0  0  0  0
 19 24  1  0  0  0  0
 20 21  1  0  0  0  0
 21 22  2  0  0  0  0
 23 22  1  0  0  0  0
 24 23  2  0  0  0  0
 25 18  1  0  0  0  0
 26 28  1  0  0  0  0
 27 32  1  0  0  0  0
 27 33  1  0  0  0  0
 28 27  2  0  0  0  0
 29 30  2  0  0  0  0
 29 28  1  0  0  0  0
 30 31  1  0  0  0  0
 31 35  1  0  0  0  0
 31 32  2  0  0  0  0
 34 29  1  0  0  0  0
 35 40  1  0  0  0  0
 36 35  2  0  0  0  0
 36 37  1  0  0  0  0
 37 38  2  0  0  0  0
 38 39  1  0  0  0  0
 38 43  1  0  0  0  0
 39 44  1  0  0  0  0
 40 39  2  0  0  0  0
 41 36  1  0  0  0  0
 42 37  1  0  0  0  0
M  END
>  <minimizedAffinity>
-6.4195013

>  <minimizedRMSD>
1.62521827

$$$$
