
 OpenBabel03232520583D

 38 41  0  0  1  0  0  0  0  0999 V2000
   45.7320   32.9020   47.6640 C   0  0  0  0  0  0  0  0  0  0  0  0
   45.8830   32.5800   46.3420 C   0  0  0  0  0  0  0  0  0  0  0  0
   45.7990   31.2290   46.0050 C   0  0  0  0  0  0  0  0  0  0  0  0
   45.5860   30.3130   46.9500 N   0  0  0  0  0  0  0  0  0  0  0  0
   45.4370   30.6360   48.2630 C   0  0  0  0  0  0  0  0  0  0  0  0
   45.5110   31.9180   48.6040 N   0  0  0  0  0  0  0  0  0  0  0  0
   45.2060   29.6160   49.2210 N   0  0  0  0  0  0  0  0  0  0  0  0
   45.7850   33.9050   47.9930 H   0  0  0  0  0  0  0  0  0  0  0  0
   44.2900   29.1570   48.9910 H   0  0  0  0  0  0  0  0  0  0  0  0
   45.8860   29.4300   49.9880 H   0  0  0  0  0  0  0  0  0  0  0  0
   46.0860   33.6080   45.3660 C   0  0  2  0  0  0  0  0  0  0  0  0
   44.9370   34.6560   45.5070 C   0  0  0  0  0  0  0  0  0  0  0  0
   44.7450   35.5540   44.4040 C   0  0  0  0  0  0  0  0  0  0  0  0
   45.5770   35.4810   43.2070 C   0  0  1  0  0  0  0  0  0  0  0  0
   46.6840   34.5210   43.2390 C   0  0  0  0  0  0  0  0  0  0  0  0
   46.2810   33.2830   43.9820 C   0  0  0  0  0  0  0  0  0  0  0  0
   46.9030   34.2960   45.7740 H   0  0  0  0  0  0  0  0  0  0  0  0
   44.2150   34.8690   46.2840 H   0  0  0  0  0  0  0  0  0  0  0  0
   43.9810   36.2900   44.4400 H   0  0  0  0  0  0  0  0  0  0  0  0
   45.9710   36.5080   42.9890 H   0  0  0  0  0  0  0  0  0  0  0  0
   47.6120   34.9040   43.7440 H   0  0  0  0  0  0  0  0  0  0  0  0
   46.9780   34.2380   42.1920 H   0  0  0  0  0  0  0  0  0  0  0  0
   47.1260   32.6050   43.7380 H   0  0  0  0  0  0  0  0  0  0  0  0
   45.3790   32.8870   43.4960 H   0  0  0  0  0  0  0  0  0  0  0  0
   44.6530   35.1630   42.0170 C   0  0  0  0  0  0  0  0  0  0  0  0
   43.6520   34.2630   42.3410 F   0  0  0  0  0  0  0  0  0  0  0  0
   43.9940   36.3560   41.6900 F   0  0  0  0  0  0  0  0  0  0  0  0
   45.3840   34.7800   40.9170 F   0  0  0  0  0  0  0  0  0  0  0  0
   45.8680   30.5020   44.7430 C   0  0  0  0  0  0  0  0  0  0  0  0
   44.9870   29.9950   43.7620 C   0  0  0  0  0  3  0  0  0  0  0  0
   45.6760   29.3180   42.8370 N   0  0  0  0  0  0  0  0  0  0  0  0
   46.9820   29.3070   43.0870 C   0  0  0  0  0  0  0  0  0  0  0  0
   48.0520   28.7640   42.4510 C   0  0  0  0  0  3  0  0  0  0  0  0
   49.3380   28.9190   42.9620 C   0  0  0  0  0  3  0  0  0  0  0  0
   49.5080   29.6340   44.1250 C   0  0  0  0  0  3  0  0  0  0  0  0
   48.4030   30.1700   44.7420 C   0  0  0  0  0  3  0  0  0  0  0  0
   47.0990   30.0310   44.2540 C   0  0  0  0  0  0  0  0  0  0  0  0
   45.1830   28.8690   42.0280 H   0  0  0  0  0  0  0  0  0  0  0  0
  1  8  1  0  0  0  0
  1  6  1  0  0  0  0
  2  1  2  0  0  0  0
  3  2  1  0  0  0  0
  3  4  2  0  0  0  0
  4  5  1  0  0  0  0
  5  6  2  0  0  0  0
  5  7  1  0  0  0  0
  7 10  1  0  0  0  0
  9  7  1  0  0  0  0
 11 12  1  0  0  0  0
 11 17  1  1  0  0  0
 11  2  1  0  0  0  0
 12 18  1  0  0  0  0
 13 19  1  0  0  0  0
 13 12  2  0  0  0  0
 14 20  1  6  0  0  0
 14 15  1  0  0  0  0
 14 13  1  0  0  0  0
 15 21  1  0  0  0  0
 15 16  1  0  0  0  0
 16 11  1  0  0  0  0
 22 15  1  0  0  0  0
 23 16  1  0  0  0  0
 24 16  1  0  0  0  0
 25 26  1  0  0  0  0
 25 14  1  0  0  0  0
 27 25  1  0  0  0  0
 28 25  1  0  0  0  0
 29  3  1  0  0  0  0
 30 29  2  0  0  0  0
 31 32  1  0  0  0  0
 31 30  1  0  0  0  0
 32 37  1  0  0  0  0
 33 34  1  0  0  0  0
 33 32  2  0  0  0  0
 34 35  2  0  0  0  0
 35 36  1  0  0  0  0
 37 36  2  0  0  0  0
 37 29  1  0  0  0  0
 38 31  1  0  0  0  0
M  END
>  <minimizedAffinity>
-5.77461433

>  <minimizedRMSD>
1.29708195

$$$$
