
     RDKit          3D

 38 41  0  0  0  0  0  0  0  0999 V2000
   45.2586   32.9565   47.4529 C   0  0  0  0  0  0  0  0  0  0  0  0
   45.7794   32.7612   46.1745 C   0  0  0  0  0  0  0  0  0  0  0  0
   46.1209   31.4358   45.8232 C   0  0  0  0  0  0  0  0  0  0  0  0
   45.9331   30.4375   46.7203 N   0  0  0  0  0  0  0  0  0  0  0  0
   45.4230   30.6743   47.9545 C   0  0  0  0  0  0  0  0  0  0  0  0
   45.0893   31.9363   48.3102 N   0  0  0  0  0  0  0  0  0  0  0  0
   45.9599   33.9000   45.2711 C   0  0  2  0  0  0  0  0  0  0  0  0
   44.8505   34.8997   45.5027 C   0  0  0  0  0  0  0  0  0  0  0  0
   44.5401   35.8086   44.4190 C   0  0  0  0  0  0  0  0  0  0  0  0
   45.2831   35.7463   43.1556 C   0  0  1  0  0  0  0  0  0  0  0  0
   46.4411   34.8107   43.1099 C   0  0  0  0  0  0  0  0  0  0  0  0
   46.0631   33.5341   43.8211 C   0  0  0  0  0  0  0  0  0  0  0  0
   44.9621   33.9250   47.8325 H   0  0  0  0  0  0  0  0  0  0  0  0
   46.5282   31.2101   44.8509 H   0  0  0  0  0  0  0  0  0  0  0  0
   45.2777   29.8685   48.6623 H   0  0  0  0  0  0  0  0  0  0  0  0
   46.9164   34.4097   45.5911 H   0  0  0  0  0  0  0  0  0  0  0  0
   44.2148   35.0873   46.3367 H   0  0  0  0  0  0  0  0  0  0  0  0
   43.7704   36.5313   44.5265 H   0  0  0  0  0  0  0  0  0  0  0  0
   45.6929   36.7774   42.9835 H   0  0  0  0  0  0  0  0  0  0  0  0
   46.6739   34.5900   42.0529 H   0  0  0  0  0  0  0  0  0  0  0  0
   47.2910   35.2626   43.6637 H   0  0  0  0  0  0  0  0  0  0  0  0
   45.0887   33.1265   43.4773 H   0  0  0  0  0  0  0  0  0  0  0  0
   46.8885   32.8074   43.6946 H   0  0  0  0  0  0  0  0  0  0  0  0
   44.3245   35.4663   42.0548 C   0  0  0  0  0  0  0  0  0  0  0  0
   44.5317   34.9496   40.7762 C   0  0  0  0  0  0  0  0  0  0  0  0
   43.3583   34.8692   40.1179 N   0  0  0  0  0  0  0  0  0  0  0  0
   42.3440   35.3185   40.9118 C   0  0  0  0  0  0  0  0  0  0  0  0
   40.9747   35.4698   40.7875 C   0  0  0  0  0  0  0  0  0  0  0  0
   40.1955   35.9713   41.8082 C   0  0  0  0  0  0  0  0  0  0  0  0
   40.8217   36.3281   42.9845 C   0  0  0  0  0  0  0  0  0  0  0  0
   42.1943   36.1903   43.1452 C   0  0  0  0  0  0  0  0  0  0  0  0
   42.9536   35.6831   42.1021 C   0  0  0  0  0  0  0  0  0  0  0  0
   45.5197   34.6643   40.4032 H   0  0  0  0  0  0  0  0  0  0  0  0
   43.1877   34.5232   39.1436 H   0  0  0  0  0  0  0  0  0  0  0  0
   40.5264   35.1718   39.8337 H   0  0  0  0  0  0  0  0  0  0  0  0
   39.1239   36.0902   41.7123 H   0  0  0  0  0  0  0  0  0  0  0  0
   40.2594   36.7349   43.8389 H   0  0  0  0  0  0  0  0  0  0  0  0
   42.6510   36.4841   44.0913 H   0  0  0  0  0  0  0  0  0  0  0  0
  1  6  2  0
  2  1  1  0
  3  2  2  0
  3  4  1  0
  4  5  2  0
  5  6  1  0
  7  8  1  0
  7  2  1  0
  9  8  2  0
 10  9  1  0
 11 10  1  0
 11 12  1  0
 12  7  1  0
  1 13  1  0
  3 14  1  0
  5 15  1  0
  7 16  1  1
  8 17  1  0
  9 18  1  0
 10 19  1  6
 11 20  1  0
 11 21  1  0
 12 22  1  0
 12 23  1  0
 24 25  2  0
 25 26  1  0
 26 27  1  0
 27 28  2  0
 28 29  1  0
 29 30  2  0
 30 31  1  0
 31 32  2  0
 32 24  1  0
 32 27  1  0
 25 33  1  0
 26 34  1  0
 28 35  1  0
 29 36  1  0
 30 37  1  0
 31 38  1  0
 10 24  1  0
M  ISO  8  13  14  14  14  15  14  16  13  17  13  18  13  19  13  20  13
M  ISO  3  21  13  22  13  23  13
M  END
>  <DihAtoms>  (1) 
8,9,23,24

>  <DihDeg>  (1) 
-39.474194074635356

$$$$
