REMARK  Name = 
REMARK  2 active torsions:
REMARK  status: ('A' for Active; 'I' for Inactive)
REMARK    1  A    between atoms: C_2  and  C_7
REMARK    2  A    between atoms: C_10  and  C_24
REMARK                            x       y       z     vdW  Elec       q    Type
REMARK                         _______ _______ _______ _____ _____    ______ ____
ROOT
ATOM      1  C   UNL     1      45.960  33.900  45.271  0.00  0.00    +0.000 C 
ATOM      2  C   UNL     1      44.850  34.900  45.503  0.00  0.00    +0.000 C 
ATOM      3  C   UNL     1      44.540  35.809  44.419  0.00  0.00    +0.000 C 
ATOM      4  C   UNL     1      45.283  35.746  43.156  0.00  0.00    +0.000 C 
ATOM      5  C   UNL     1      46.441  34.811  43.110  0.00  0.00    +0.000 C 
ATOM      6  C   UNL     1      46.063  33.534  43.821  0.00  0.00    +0.000 C 
ATOM      7  H   UNL     1      46.916  34.410  45.591  0.00  0.00    +0.000 HD
ATOM      8  H   UNL     1      44.215  35.087  46.337  0.00  0.00    +0.000 HD
ATOM      9  H   UNL     1      43.770  36.531  44.526  0.00  0.00    +0.000 HD
ATOM     10  H   UNL     1      45.693  36.777  42.983  0.00  0.00    +0.000 HD
ATOM     11  H   UNL     1      46.674  34.590  42.053  0.00  0.00    +0.000 HD
ATOM     12  H   UNL     1      47.291  35.263  43.664  0.00  0.00    +0.000 HD
ATOM     13  H   UNL     1      45.089  33.127  43.477  0.00  0.00    +0.000 HD
ATOM     14  H   UNL     1      46.889  32.807  43.695  0.00  0.00    +0.000 HD
ENDROOT
BRANCH   4  15
ATOM     15  C   UNL     1      44.325  35.466  42.055  0.00  0.00    +0.000 A 
ATOM     16  C   UNL     1      44.532  34.950  40.776  0.00  0.00    +0.000 A 
ATOM     17  N   UNL     1      43.358  34.869  40.118  0.00  0.00    +0.000 N 
ATOM     18  C   UNL     1      42.344  35.319  40.912  0.00  0.00    +0.000 A 
ATOM     19  C   UNL     1      40.975  35.470  40.788  0.00  0.00    +0.000 A 
ATOM     20  C   UNL     1      40.196  35.971  41.808  0.00  0.00    +0.000 A 
ATOM     21  C   UNL     1      40.822  36.328  42.984  0.00  0.00    +0.000 A 
ATOM     22  C   UNL     1      42.194  36.190  43.145  0.00  0.00    +0.000 A 
ATOM     23  C   UNL     1      42.954  35.683  42.102  0.00  0.00    +0.000 A 
ATOM     24  H   UNL     1      43.188  34.523  39.144  0.00  0.00    +0.000 HD
ENDBRANCH   4  15
BRANCH   1  26
ATOM     25  C   UNL     1      45.259  32.956  47.453  0.00  0.00    +0.000 A 
ATOM     26  C   UNL     1      45.779  32.761  46.175  0.00  0.00    +0.000 A 
ATOM     27  C   UNL     1      46.121  31.436  45.823  0.00  0.00    +0.000 A 
ATOM     28  N   UNL     1      45.933  30.438  46.720  0.00  0.00    +0.000 NA
ATOM     29  C   UNL     1      45.423  30.674  47.955  0.00  0.00    +0.000 A 
ATOM     30  N   UNL     1      45.089  31.936  48.310  0.00  0.00    +0.000 NA
ATOM     31  H   UNL     1      44.962  33.925  47.833  0.00  0.00    +0.000 HD
ATOM     32  H   UNL     1      46.528  31.210  44.851  0.00  0.00    +0.000 HD
ATOM     33  H   UNL     1      45.278  29.869  48.662  0.00  0.00    +0.000 HD
ENDBRANCH   1  26
TORSDOF 2
