
 OpenBabel03232518303D

 31 35  0  0  0  0  0  0  0  0999 V2000
   45.1660   35.0990   43.5530 C   0  0  0  0  0  0  0  0  0  0  0  0
   46.3670   34.8990   42.8880 C   0  0  0  0  0  0  0  0  0  0  0  0
   47.3540   34.0860   43.4770 C   0  0  0  0  0  0  0  0  0  0  0  0
   47.0280   33.5350   44.7130 N   0  0  0  0  0  0  0  0  0  0  0  0
   45.8610   33.7590   45.3100 C   0  0  0  0  0  0  0  0  0  0  0  0
   44.9300   34.5350   44.7410 N   0  0  0  0  0  0  0  0  0  0  0  0
   44.4330   35.7200   43.0900 H   0  0  0  0  0  0  0  0  0  0  0  0
   46.5230   35.3370   41.9510 H   0  0  0  0  0  0  0  0  0  0  0  0
   48.6330   33.7320   42.9460 C   0  0  0  0  0  0  0  0  0  0  0  0
   49.6560   34.6810   42.8160 C   0  0  0  0  0  0  0  0  0  0  0  0
   50.7540   34.1390   42.2840 N   0  0  0  0  0  0  0  0  0  0  0  0
   50.5490   32.8510   42.0310 C   0  0  0  0  0  0  0  0  0  0  0  0
   51.2960   31.8250   41.4900 C   0  0  0  0  0  0  0  0  0  0  0  0
   50.7770   30.5350   41.3390 C   0  0  0  0  0  0  0  0  0  0  0  0
   49.4600   30.3320   41.7600 C   0  0  0  0  0  0  0  0  0  0  0  0
   48.7540   31.3730   42.2900 C   0  0  0  0  0  0  0  0  0  0  0  0
   49.2590   32.6210   42.4380 C   0  0  0  0  0  0  0  0  0  0  0  0
   51.6700   34.5920   42.0680 H   0  0  0  0  0  0  0  0  0  0  0  0
   45.5570   33.0020   46.8990 S   0  0  0  0  0  0  0  0  0  0  0  0
   48.5450   29.6270   48.7830 N   0  0  0  0  0  0  0  0  0  0  0  0
   48.5710   30.8310   49.3750 C   0  0  0  0  0  0  0  0  0  0  0  0
   47.7200   31.6610   48.7790 N   0  0  0  0  0  0  0  0  0  0  0  0
   47.1060   31.0070   47.7620 C   0  0  0  0  0  0  0  0  0  0  0  0
   46.1420   31.3110   46.7850 C   0  0  0  0  0  0  0  0  0  0  0  0
   45.7640   30.3820   45.9110 N   0  0  0  0  0  0  0  0  0  0  0  0
   46.3290   29.1500   45.9920 C   0  0  0  0  0  0  0  0  0  0  0  0
   47.2740   28.7870   46.9190 N   0  0  0  0  0  0  0  0  0  0  0  0
   47.6390   29.7460   47.7910 C   0  0  0  0  0  0  0  0  0  0  0  0
   49.1420   28.8290   49.1020 H   0  0  0  0  0  0  0  0  0  0  0  0
   49.1300   31.2320   50.2080 H   0  0  0  0  0  0  0  0  0  0  0  0
   45.9950   28.4180   45.2630 H   0  0  0  0  0  0  0  0  0  0  0  0
  1  6  1  0  0  0  0
  2  3  1  0  0  0  0
  2  1  2  0  0  0  0
  3  4  2  0  0  0  0
  4  5  1  0  0  0  0
  5 19  1  0  0  0  0
  6  5  2  0  0  0  0
  7  1  1  0  0  0  0
  8  2  1  0  0  0  0
  9  3  1  0  0  0  0
 10  9  2  0  0  0  0
 11 10  1  0  0  0  0
 12 11  1  0  0  0  0
 12 17  1  0  0  0  0
 13 12  2  0  0  0  0
 14 13  1  0  0  0  0
 14 15  2  0  0  0  0
 15 16  1  0  0  0  0
 16 17  2  0  0  0  0
 17  9  1  0  0  0  0
 18 11  1  0  0  0  0
 20 29  1  0  0  0  0
 20 21  1  0  0  0  0
 21 30  1  0  0  0  0
 22 21  2  0  0  0  0
 23 28  1  0  0  0  0
 23 22  1  0  0  0  0
 24 19  1  0  0  0  0
 24 23  2  0  0  0  0
 25 26  2  0  0  0  0
 25 24  1  0  0  0  0
 26 27  1  0  0  0  0
 27 28  2  0  0  0  0
 28 20  1  0  0  0  0
 31 26  1  0  0  0  0
M  END
>  <minimizedAffinity>
-6.16658735

>  <minimizedRMSD>
1.34420478

$$$$
