
 OpenBabel03232520103D

 26 29  0  0  0  0  0  0  0  0999 V2000
   45.8640   33.1020   46.3090 C   0  0  0  0  0  0  0  0  0  0  0  0
   45.3690   32.8960   47.5800 C   0  0  0  0  0  0  0  0  0  0  0  0
   45.9850   31.9880   48.3770 C   0  0  0  0  0  0  0  0  0  0  0  0
   47.0820   31.3180   47.8600 C   0  0  0  0  0  0  0  0  0  0  0  0
   47.2340   31.9880   46.2290 S   0  0  0  0  0  0  0  0  0  0  0  0
   44.4980   33.4980   47.8470 H   0  0  0  0  0  0  0  0  0  0  0  0
   45.6090   31.8200   49.3680 H   0  0  0  0  0  0  0  0  0  0  0  0
   47.9870   30.3290   48.3270 C   0  0  0  0  0  0  0  0  0  0  0  0
   47.9720   28.9930   47.9070 C   0  0  0  0  0  0  0  0  0  0  0  0
   48.9450   28.2950   48.5190 N   0  0  0  0  0  0  0  0  0  0  0  0
   49.6400   29.0910   49.3500 C   0  0  0  0  0  0  0  0  0  0  0  0
   50.7100   28.8750   50.1920 C   0  0  0  0  0  0  0  0  0  0  0  0
   51.2100   29.9140   50.9320 C   0  0  0  0  0  0  0  0  0  0  0  0
   50.6280   31.1560   50.8170 C   0  0  0  0  0  0  0  0  0  0  0  0
   49.5600   31.3310   49.9650 C   0  0  0  0  0  0  0  0  0  0  0  0
   49.0380   30.3070   49.2110 C   0  0  0  0  0  0  0  0  0  0  0  0
   49.1850   27.2720   48.4110 H   0  0  0  0  0  0  0  0  0  0  0  0
   44.3770   35.9650   44.6040 C   0  0  0  0  0  0  0  0  0  0  0  0
   44.5950   35.6290   43.2380 C   0  0  0  0  0  0  0  0  0  0  0  0
   45.2540   34.4160   42.9410 C   0  0  0  0  0  0  0  0  0  0  0  0
   45.6430   33.6350   43.9830 N   0  0  0  0  0  0  0  0  0  0  0  0
   45.4140   33.9930   45.2640 C   0  0  0  0  0  0  0  0  0  0  0  0
   44.7860   35.1480   45.5810 N   0  0  0  0  0  0  0  0  0  0  0  0
   43.8670   36.9090   44.7340 H   0  0  0  0  0  0  0  0  0  0  0  0
   44.2890   36.2440   42.4090 H   0  0  0  0  0  0  0  0  0  0  0  0
   45.4580   34.0880   41.9510 H   0  0  0  0  0  0  0  0  0  0  0  0
  1  2  2  0  0  0  0
  2  6  1  0  0  0  0
  2  3  1  0  0  0  0
  3  7  1  0  0  0  0
  4  8  1  0  0  0  0
  4  3  2  0  0  0  0
  5  1  1  0  0  0  0
  5  4  1  0  0  0  0
  8 16  1  0  0  0  0
  9  8  2  0  0  0  0
  9 10  1  0  0  0  0
 10 11  1  0  0  0  0
 11 12  1  0  0  0  0
 12 13  2  0  0  0  0
 14 13  1  0  0  0  0
 15 14  2  0  0  0  0
 16 11  2  0  0  0  0
 16 15  1  0  0  0  0
 17 10  1  0  0  0  0
 18 24  1  0  0  0  0
 18 23  1  0  0  0  0
 19 18  2  0  0  0  0
 20 19  1  0  0  0  0
 20 21  2  0  0  0  0
 21 22  1  0  0  0  0
 22 23  2  0  0  0  0
 22  1  1  0  0  0  0
 25 19  1  0  0  0  0
 26 20  1  0  0  0  0
M  END
>  <minimizedAffinity>
-5.56453228

>  <minimizedRMSD>
1.0025686

$$$$
