
 OpenBabel03232520583D

 38 41  0  0  1  0  0  0  0  0999 V2000
   45.7310   32.8970   47.6640 C   0  0  0  0  0  0  0  0  0  0  0  0
   45.8830   32.5760   46.3410 C   0  0  0  0  0  0  0  0  0  0  0  0
   45.7990   31.2250   46.0040 C   0  0  0  0  0  0  0  0  0  0  0  0
   45.5850   30.3080   46.9480 N   0  0  0  0  0  0  0  0  0  0  0  0
   45.4360   30.6300   48.2610 C   0  0  0  0  0  0  0  0  0  0  0  0
   45.5090   31.9130   48.6030 N   0  0  0  0  0  0  0  0  0  0  0  0
   45.2030   29.6100   49.2190 N   0  0  0  0  0  0  0  0  0  0  0  0
   45.7840   33.9000   47.9930 H   0  0  0  0  0  0  0  0  0  0  0  0
   44.2880   29.1520   48.9870 H   0  0  0  0  0  0  0  0  0  0  0  0
   45.8830   29.4240   49.9860 H   0  0  0  0  0  0  0  0  0  0  0  0
   46.0870   33.6040   45.3660 C   0  0  2  0  0  0  0  0  0  0  0  0
   44.9390   34.6530   45.5080 C   0  0  0  0  0  0  0  0  0  0  0  0
   44.7470   35.5520   44.4050 C   0  0  0  0  0  0  0  0  0  0  0  0
   45.5790   35.4790   43.2080 C   0  0  1  0  0  0  0  0  0  0  0  0
   46.6860   34.5190   43.2400 C   0  0  0  0  0  0  0  0  0  0  0  0
   46.2820   33.2800   43.9820 C   0  0  0  0  0  0  0  0  0  0  0  0
   46.9040   34.2910   45.7750 H   0  0  0  0  0  0  0  0  0  0  0  0
   44.2170   34.8660   46.2850 H   0  0  0  0  0  0  0  0  0  0  0  0
   43.9840   36.2890   44.4420 H   0  0  0  0  0  0  0  0  0  0  0  0
   45.9740   36.5060   42.9920 H   0  0  0  0  0  0  0  0  0  0  0  0
   47.6140   34.9000   43.7450 H   0  0  0  0  0  0  0  0  0  0  0  0
   46.9800   34.2360   42.1930 H   0  0  0  0  0  0  0  0  0  0  0  0
   47.1260   32.6020   43.7370 H   0  0  0  0  0  0  0  0  0  0  0  0
   45.3800   32.8850   43.4950 H   0  0  0  0  0  0  0  0  0  0  0  0
   44.6550   35.1630   42.0190 C   0  0  0  0  0  0  0  0  0  0  0  0
   43.6530   34.2640   42.3420 F   0  0  0  0  0  0  0  0  0  0  0  0
   43.9980   36.3570   41.6920 F   0  0  0  0  0  0  0  0  0  0  0  0
   45.3860   34.7800   40.9190 F   0  0  0  0  0  0  0  0  0  0  0  0
   45.8680   30.4990   44.7410 C   0  0  0  0  0  0  0  0  0  0  0  0
   44.9870   29.9920   43.7610 C   0  0  0  0  0  3  0  0  0  0  0  0
   45.6770   29.3150   42.8350 N   0  0  0  0  0  0  0  0  0  0  0  0
   46.9840   29.3050   43.0860 C   0  0  0  0  0  0  0  0  0  0  0  0
   48.0540   28.7630   42.4500 C   0  0  0  0  0  3  0  0  0  0  0  0
   49.3400   28.9180   42.9590 C   0  0  0  0  0  3  0  0  0  0  0  0
   49.5090   29.6340   44.1240 C   0  0  0  0  0  3  0  0  0  0  0  0
   48.4040   30.1680   44.7400 C   0  0  0  0  0  3  0  0  0  0  0  0
   47.0990   30.0290   44.2520 C   0  0  0  0  0  0  0  0  0  0  0  0
   45.1860   28.8650   42.0260 H   0  0  0  0  0  0  0  0  0  0  0  0
  1  8  1  0  0  0  0
  1  6  1  0  0  0  0
  2  1  2  0  0  0  0
  3  2  1  0  0  0  0
  3  4  2  0  0  0  0
  4  5  1  0  0  0  0
  5  6  2  0  0  0  0
  5  7  1  0  0  0  0
  7 10  1  0  0  0  0
  9  7  1  0  0  0  0
 11 12  1  0  0  0  0
 11 17  1  1  0  0  0
 11  2  1  0  0  0  0
 12 18  1  0  0  0  0
 13 19  1  0  0  0  0
 13 12  2  0  0  0  0
 14 20  1  6  0  0  0
 14 15  1  0  0  0  0
 14 13  1  0  0  0  0
 15 21  1  0  0  0  0
 15 16  1  0  0  0  0
 16 11  1  0  0  0  0
 22 15  1  0  0  0  0
 23 16  1  0  0  0  0
 24 16  1  0  0  0  0
 25 26  1  0  0  0  0
 25 14  1  0  0  0  0
 27 25  1  0  0  0  0
 28 25  1  0  0  0  0
 29  3  1  0  0  0  0
 30 29  2  0  0  0  0
 31 32  1  0  0  0  0
 31 30  1  0  0  0  0
 32 37  1  0  0  0  0
 33 34  1  0  0  0  0
 33 32  2  0  0  0  0
 34 35  2  0  0  0  0
 35 36  1  0  0  0  0
 37 36  2  0  0  0  0
 37 29  1  0  0  0  0
 38 31  1  0  0  0  0
M  END
>  <minimizedAffinity>
-5.7733798

>  <minimizedRMSD>
1.0655582

$$$$
