
     RDKit          3D

 43 46  0  0  0  0  0  0  0  0999 V2000
   46.0652   33.6566   45.3325 C   0  0  2  0  0  0  0  0  0  0  0  0
   44.9007   34.6880   45.4763 C   0  0  0  0  0  0  0  0  0  0  0  0
   44.6930   35.5833   44.3735 C   0  0  0  0  0  0  0  0  0  0  0  0
   45.5233   35.5212   43.1737 C   0  0  1  0  0  0  0  0  0  0  0  0
   46.6443   34.5778   43.2039 C   0  0  0  0  0  0  0  0  0  0  0  0
   46.2610   33.3341   43.9494 C   0  0  0  0  0  0  0  0  0  0  0  0
   45.3320   32.9217   47.5298 C   0  0  0  0  0  0  0  0  0  0  0  0
   45.8790   32.6275   46.3097 C   0  0  0  0  0  0  0  0  0  0  0  0
   46.2084   31.2934   46.0694 C   0  0  0  0  0  0  0  0  0  0  0  0
   45.9938   30.3680   47.0055 N   0  0  0  0  0  0  0  0  0  0  0  0
   45.4514   30.6641   48.2158 C   0  0  0  0  0  0  0  0  0  0  0  0
   45.1268   31.9287   48.4648 N   0  0  0  0  0  0  0  0  0  0  0  0
   45.2409   29.6338   49.1694 N   0  0  0  0  0  0  0  0  0  0  0  0
   44.6011   35.1889   41.9868 C   0  0  0  0  0  0  0  0  0  0  0  0
   43.6007   34.2909   42.3195 F   0  0  0  0  0  0  0  0  0  0  0  0
   43.9412   36.3776   41.6460 F   0  0  0  0  0  0  0  0  0  0  0  0
   45.3342   34.7964   40.8919 F   0  0  0  0  0  0  0  0  0  0  0  0
   46.8719   34.3574   45.7392 H   0  0  0  0  0  0  0  0  0  0  0  0
   44.1776   34.8910   46.2554 H   0  0  0  0  0  0  0  0  0  0  0  0
   43.9187   36.3076   44.4108 H   0  0  0  0  0  0  0  0  0  0  0  0
   45.9020   36.5542   42.9553 H   0  0  0  0  0  0  0  0  0  0  0  0
   47.5680   34.9745   43.7069 H   0  0  0  0  0  0  0  0  0  0  0  0
   46.9395   34.2984   42.1566 H   0  0  0  0  0  0  0  0  0  0  0  0
   47.1148   32.6686   43.7027 H   0  0  0  0  0  0  0  0  0  0  0  0
   45.3640   32.9248   43.4645 H   0  0  0  0  0  0  0  0  0  0  0  0
   45.0589   33.9112   47.7834 H   0  0  0  0  0  0  0  0  0  0  0  0
   44.5493   28.9555   48.7650 H   0  0  0  0  0  0  0  0  0  0  0  0
   45.7344   29.6376   50.0873 H   0  0  0  0  0  0  0  0  0  0  0  0
   46.7598   30.5867   44.9187 C   0  0  0  0  0  0  0  0  0  0  0  0
   46.8364   30.7404   43.5172 C   0  0  0  0  0  0  0  0  0  0  0  0
   47.4233   29.6677   42.9726 N   0  0  0  0  0  0  0  0  0  0  0  0
   47.7690   28.7632   43.8846 C   0  0  0  0  0  0  0  0  0  0  0  0
   48.3728   27.5492   43.8156 C   0  0  0  0  0  0  0  0  0  0  0  0
   48.6115   26.8061   44.9679 C   0  0  0  0  0  0  0  0  0  0  0  0
   48.2239   27.3243   46.1835 C   0  0  0  0  0  0  0  0  0  0  0  0
   47.6159   28.5555   46.2154 C   0  0  0  0  0  0  0  0  0  0  0  0
   47.3623   29.3262   45.0747 C   0  0  0  0  0  0  0  0  0  0  0  0
   46.4226   31.6593   43.1214 H   0  0  0  0  0  0  0  0  0  0  0  0
   47.5655   29.6071   41.9360 H   0  0  0  0  0  0  0  0  0  0  0  0
   48.6782   27.1379   42.8726 H   0  0  0  0  0  0  0  0  0  0  0  0
   49.0867   25.8358   44.9790 H   0  0  0  0  0  0  0  0  0  0  0  0
   48.3993   26.7613   47.1051 H   0  0  0  0  0  0  0  0  0  0  0  0
   47.3338   28.9067   47.2153 H   0  0  0  0  0  0  0  0  0  0  0  0
  1  2  1  0
  1  8  1  0
  3  2  2  0
  4  5  1  0
  4  3  1  0
  5  6  1  0
  6  1  1  0
  7 12  2  0
  8  7  1  0
  9  8  2  0
  9 10  1  0
 10 11  2  0
 11 12  1  0
 11 13  1  0
 14 15  1  0
 14  4  1  0
 16 14  1  0
 17 14  1  0
  1 18  1  1
  2 19  1  0
  3 20  1  0
  4 21  1  6
  5 22  1  0
  5 23  1  0
  6 24  1  0
  6 25  1  0
  7 26  1  0
 13 27  1  0
 13 28  1  0
 29 30  2  0
 30 31  1  0
 31 32  1  0
 32 33  2  0
 33 34  1  0
 34 35  2  0
 35 36  1  0
 36 37  2  0
 37 29  1  0
 37 32  1  0
 30 38  1  0
 31 39  1  0
 33 40  1  0
 34 41  1  0
 35 42  1  0
 36 43  1  0
  9 29  1  0
M  ISO  8  18  13  19  13  20  13  21  13  22  13  23  13  24  13  25  13
M  ISO  1  26  14
M  END
>  <DihAtoms>  (1) 
7,8,28,29

>  <DihDeg>  (1) 
-69.1121190160032

$$$$
