REMARK  Name = 
REMARK  3 active torsions:
REMARK  status: ('A' for Active; 'I' for Inactive)
REMARK    1  A    between atoms: C_1  and  C_8
REMARK    2  A    between atoms: C_4  and  C_14
REMARK    3  A    between atoms: C_9  and  C_29
REMARK                            x       y       z     vdW  Elec       q    Type
REMARK                         _______ _______ _______ _____ _____    ______ ____
ROOT
ATOM      1  C   UNL     1      45.332  32.922  47.530  0.00  0.00    +0.000 A 
ATOM      2  C   UNL     1      45.879  32.627  46.310  0.00  0.00    +0.000 A 
ATOM      3  C   UNL     1      46.208  31.293  46.069  0.00  0.00    +0.000 A 
ATOM      4  N   UNL     1      45.994  30.368  47.005  0.00  0.00    +0.000 NA
ATOM      5  C   UNL     1      45.451  30.664  48.216  0.00  0.00    +0.000 A 
ATOM      6  N   UNL     1      45.127  31.929  48.465  0.00  0.00    +0.000 NA
ATOM      7  N   UNL     1      45.241  29.634  49.169  0.00  0.00    +0.000 N 
ATOM      8  H   UNL     1      45.059  33.911  47.783  0.00  0.00    +0.000 HD
ATOM      9  H   UNL     1      44.549  28.956  48.765  0.00  0.00    +0.000 HD
ATOM     10  H   UNL     1      45.734  29.638  50.087  0.00  0.00    +0.000 HD
ENDROOT
BRANCH   2  11
ATOM     11  C   UNL     1      46.065  33.657  45.333  0.00  0.00    +0.000 C 
ATOM     12  C   UNL     1      44.901  34.688  45.476  0.00  0.00    +0.000 C 
ATOM     13  C   UNL     1      44.693  35.583  44.373  0.00  0.00    +0.000 C 
ATOM     14  C   UNL     1      45.523  35.521  43.174  0.00  0.00    +0.000 C 
ATOM     15  C   UNL     1      46.644  34.578  43.204  0.00  0.00    +0.000 C 
ATOM     16  C   UNL     1      46.261  33.334  43.949  0.00  0.00    +0.000 C 
ATOM     17  H   UNL     1      46.872  34.357  45.739  0.00  0.00    +0.000 HD
ATOM     18  H   UNL     1      44.178  34.891  46.255  0.00  0.00    +0.000 HD
ATOM     19  H   UNL     1      43.919  36.308  44.411  0.00  0.00    +0.000 HD
ATOM     20  H   UNL     1      45.902  36.554  42.955  0.00  0.00    +0.000 HD
ATOM     21  H   UNL     1      47.568  34.974  43.707  0.00  0.00    +0.000 HD
ATOM     22  H   UNL     1      46.940  34.298  42.157  0.00  0.00    +0.000 HD
ATOM     23  H   UNL     1      47.115  32.669  43.703  0.00  0.00    +0.000 HD
ATOM     24  H   UNL     1      45.364  32.925  43.465  0.00  0.00    +0.000 HD
BRANCH  14  25
ATOM     25  C   UNL     1      44.601  35.189  41.987  0.00  0.00    +0.000 C 
ATOM     26  F   UNL     1      43.601  34.291  42.319  0.00  0.00    +0.000 F 
ATOM     27  F   UNL     1      43.941  36.378  41.646  0.00  0.00    +0.000 F 
ATOM     28  F   UNL     1      45.334  34.796  40.892  0.00  0.00    +0.000 F 
ENDBRANCH  14  25
ENDBRANCH   2  11
BRANCH   3  29
ATOM     29  C   UNL     1      46.760  30.587  44.919  0.00  0.00    +0.000 A 
ATOM     30  C   UNL     1      46.836  30.740  43.517  0.00  0.00    +0.000 A 
ATOM     31  N   UNL     1      47.423  29.668  42.973  0.00  0.00    +0.000 N 
ATOM     32  C   UNL     1      47.769  28.763  43.885  0.00  0.00    +0.000 A 
ATOM     33  C   UNL     1      48.373  27.549  43.816  0.00  0.00    +0.000 A 
ATOM     34  C   UNL     1      48.611  26.806  44.968  0.00  0.00    +0.000 A 
ATOM     35  C   UNL     1      48.224  27.324  46.184  0.00  0.00    +0.000 A 
ATOM     36  C   UNL     1      47.616  28.555  46.215  0.00  0.00    +0.000 A 
ATOM     37  C   UNL     1      47.362  29.326  45.075  0.00  0.00    +0.000 A 
ATOM     38  H   UNL     1      47.566  29.607  41.936  0.00  0.00    +0.000 HD
ENDBRANCH   3  29
TORSDOF 3
