
 OpenBabel03232520583D

 38 41  0  0  1  0  0  0  0  0999 V2000
   45.2420   32.8530   47.4190 C   0  0  0  0  0  0  0  0  0  0  0  0
   45.8710   32.5320   46.2590 C   0  0  0  0  0  0  0  0  0  0  0  0
   46.2840   31.2040   46.0970 C   0  0  0  0  0  0  0  0  0  0  0  0
   46.0690   30.3090   47.0570 N   0  0  0  0  0  0  0  0  0  0  0  0
   45.4350   30.6580   48.2270 C   0  0  0  0  0  0  0  0  0  0  0  0
   45.0250   31.9180   48.3990 N   0  0  0  0  0  0  0  0  0  0  0  0
   45.2650   29.6880   49.2650 N   0  0  0  0  0  0  0  0  0  0  0  0
   44.8720   33.8150   47.6700 H   0  0  0  0  0  0  0  0  0  0  0  0
   45.9630   29.6110   50.0280 H   0  0  0  0  0  0  0  0  0  0  0  0
   44.4350   29.0550   49.2540 H   0  0  0  0  0  0  0  0  0  0  0  0
   46.1160   33.5270   45.2510 C   0  0  2  0  0  0  0  0  0  0  0  0
   45.0420   34.6400   45.4340 C   0  0  0  0  0  0  0  0  0  0  0  0
   44.8430   35.5400   44.3340 C   0  0  0  0  0  0  0  0  0  0  0  0
   45.5960   35.4180   43.1090 C   0  0  1  0  0  0  0  0  0  0  0  0
   46.6820   34.4200   43.1100 C   0  0  0  0  0  0  0  0  0  0  0  0
   46.2510   33.1890   43.8710 C   0  0  0  0  0  0  0  0  0  0  0  0
   46.9830   34.1610   45.6470 H   0  0  0  0  0  0  0  0  0  0  0  0
   44.3860   34.8840   46.2600 H   0  0  0  0  0  0  0  0  0  0  0  0
   44.0990   36.3210   44.4440 H   0  0  0  0  0  0  0  0  0  0  0  0
   46.0350   36.4090   42.8610 H   0  0  0  0  0  0  0  0  0  0  0  0
   46.9260   34.1520   42.0380 H   0  0  0  0  0  0  0  0  0  0  0  0
   47.6380   34.7710   43.5720 H   0  0  0  0  0  0  0  0  0  0  0  0
   45.3160   32.8420   43.4080 H   0  0  0  0  0  0  0  0  0  0  0  0
   47.0700   32.5250   43.5600 H   0  0  0  0  0  0  0  0  0  0  0  0
   44.6000   35.1180   41.9580 C   0  0  0  0  0  0  0  0  0  0  0  0
   43.6180   34.2480   42.3250 F   0  0  0  0  0  0  0  0  0  0  0  0
   43.9680   36.3360   41.6800 F   0  0  0  0  0  0  0  0  0  0  0  0
   45.2980   34.7470   40.8220 F   0  0  0  0  0  0  0  0  0  0  0  0
   46.9610   30.5080   45.0220 C   0  0  0  0  0  0  0  0  0  0  0  0
   48.3310   30.4600   44.6680 C   0  0  0  0  0  3  0  0  0  0  0  0
   48.7370   29.7780   43.5340 C   0  0  0  0  0  3  0  0  0  0  0  0
   47.8230   29.1400   42.7390 C   0  0  0  0  0  3  0  0  0  0  0  0
   46.4930   29.1430   43.0120 C   0  0  0  0  0  0  0  0  0  0  0  0
   45.5890   28.4880   42.2030 C   0  0  0  0  0  3  0  0  0  0  0  0
   44.2480   28.4960   42.5060 C   0  0  0  0  0  3  0  0  0  0  0  0
   43.7800   29.1560   43.6190 C   0  0  0  0  0  3  0  0  0  0  0  0
   44.7200   29.7940   44.3940 C   0  0  0  0  0  3  0  0  0  0  0  0
   46.0810   29.8340   44.1600 C   0  0  0  0  0  0  0  0  0  0  0  0
  1  8  1  0  0  0  0
  1  6  1  0  0  0  0
  2  1  2  0  0  0  0
  3  2  1  0  0  0  0
  3  4  2  0  0  0  0
  4  5  1  0  0  0  0
  5  6  2  0  0  0  0
  5  7  1  0  0  0  0
  7  9  1  0  0  0  0
 10  7  1  0  0  0  0
 11 12  1  0  0  0  0
 11 17  1  1  0  0  0
 11  2  1  0  0  0  0
 12 18  1  0  0  0  0
 13 19  1  0  0  0  0
 13 12  2  0  0  0  0
 14 20  1  6  0  0  0
 14 15  1  0  0  0  0
 14 13  1  0  0  0  0
 15 22  1  0  0  0  0
 15 16  1  0  0  0  0
 16 11  1  0  0  0  0
 21 15  1  0  0  0  0
 23 16  1  0  0  0  0
 24 16  1  0  0  0  0
 25 26  1  0  0  0  0
 25 14  1  0  0  0  0
 27 25  1  0  0  0  0
 28 25  1  0  0  0  0
 29  3  1  0  0  0  0
 30 29  1  0  0  0  0
 31 30  2  0  0  0  0
 32 33  2  0  0  0  0
 32 31  1  0  0  0  0
 33 38  1  0  0  0  0
 34 35  2  0  0  0  0
 34 33  1  0  0  0  0
 35 36  1  0  0  0  0
 36 37  2  0  0  0  0
 38 37  1  0  0  0  0
 38 29  2  0  0  0  0
M  END
>  <minimizedAffinity>
-5.75259924

>  <minimizedRMSD>
0.449803174

$$$$
