
 OpenBabel03232514293D

 36 40  0  0  0  0  0  0  0  0999 V2000
   44.3060   35.6720   44.6330 C   0  0  0  0  0  0  0  0  0  0  0  0
   44.9540   35.3670   43.4300 C   0  0  0  0  0  0  0  0  0  0  0  0
   45.9480   34.3830   43.4670 C   0  0  0  0  0  0  0  0  0  0  0  0
   46.2110   33.7940   44.6680 N   0  0  0  0  0  0  0  0  0  0  0  0
   45.5700   34.1110   45.7900 C   0  0  0  0  0  0  0  0  0  0  0  0
   44.6240   35.0430   45.7790 N   0  0  0  0  0  0  0  0  0  0  0  0
   43.5590   36.4260   44.5580 H   0  0  0  0  0  0  0  0  0  0  0  0
   45.7880   33.6350   46.7430 H   0  0  0  0  0  0  0  0  0  0  0  0
   44.6160   36.0500   42.1530 C   0  0  0  0  0  0  0  0  0  0  0  0
   44.3920   37.1050   42.4200 H   0  0  0  0  0  0  0  0  0  0  0  0
   45.4780   36.0790   41.4900 H   0  0  0  0  0  0  0  0  0  0  0  0
   43.4160   35.3850   41.4960 C   0  0  0  0  0  0  0  0  0  0  0  0
   43.5780   34.5860   40.3920 C   0  0  0  0  0  0  0  0  0  0  0  0
   41.8710   34.0530   40.0120 S   0  0  0  0  0  0  0  0  0  0  0  0
   41.2210   35.0730   41.5080 C   0  0  0  0  0  0  0  0  0  0  0  0
   42.1890   35.5130   41.9080 N   0  0  0  0  0  0  0  0  0  0  0  0
   44.4940   34.3210   39.8580 H   0  0  0  0  0  0  0  0  0  0  0  0
   40.1640   35.1380   41.8040 H   0  0  0  0  0  0  0  0  0  0  0  0
   46.8290   33.9260   42.0150 S   0  0  0  0  0  0  0  0  0  0  0  0
   48.4450   33.6230   42.1330 C   0  0  0  0  0  0  0  0  0  0  0  0
   49.7010   34.1800   42.3330 C   0  0  0  0  0  0  0  0  0  0  0  0
   50.8760   33.4800   42.3540 C   0  0  0  0  0  0  0  0  0  0  0  0
   50.7940   32.0980   42.1590 C   0  0  0  0  0  0  0  0  0  0  0  0
   48.9570   31.8490   41.9410 S   0  0  0  0  0  0  0  0  0  0  0  0
   49.5410   35.2390   42.4620 H   0  0  0  0  0  0  0  0  0  0  0  0
   51.7710   34.0290   42.4810 H   0  0  0  0  0  0  0  0  0  0  0  0
   51.6100   30.9950   42.0350 C   0  0  0  0  0  0  0  0  0  0  0  0
   51.6420   30.0840   43.0810 C   0  0  0  0  0  0  0  0  0  0  0  0
   52.4400   28.9380   43.0790 C   0  0  0  0  0  0  0  0  0  0  0  0
   53.2450   28.6760   41.9980 C   0  0  0  0  0  0  0  0  0  0  0  0
   53.2670   29.5370   40.9250 C   0  0  0  0  0  0  0  0  0  0  0  0
   54.1080   29.2640   39.8700 C   0  0  0  0  0  0  0  0  0  0  0  0
   54.1670   30.1380   38.8040 C   0  0  0  0  0  0  0  0  0  0  0  0
   53.3430   31.2680   38.8830 C   0  0  0  0  0  0  0  0  0  0  0  0
   52.5340   31.4790   39.9510 C   0  0  0  0  0  0  0  0  0  0  0  0
   52.4500   30.6340   41.0200 C   0  0  0  0  0  0  0  0  0  0  0  0
  1  6  1  0  0  0  0
  2  3  1  0  0  0  0
  2  1  2  0  0  0  0
  3  4  2  0  0  0  0
  4  5  1  0  0  0  0
  5  8  1  0  0  0  0
  6  5  2  0  0  0  0
  7  1  1  0  0  0  0
  9 10  1  0  0  0  0
  9  2  1  0  0  0  0
 11  9  1  0  0  0  0
 12 16  1  0  0  0  0
 12  9  1  0  0  0  0
 13 12  2  0  0  0  0
 14 13  1  0  0  0  0
 14 15  1  0  0  0  0
 15 18  1  0  0  0  0
 15 16  2  0  0  0  0
 17 13  1  0  0  0  0
 19 20  1  0  0  0  0
 19  3  1  0  0  0  0
 20 21  2  0  0  0  0
 21 22  1  0  0  0  0
 21 25  1  0  0  0  0
 22 26  1  0  0  0  0
 23 22  2  0  0  0  0
 24 20  1  0  0  0  0
 24 23  1  0  0  0  0
 27 23  1  0  0  0  0
 27 28  1  0  0  0  0
 29 28  2  0  0  0  0
 30 29  1  0  0  0  0
 31 36  1  0  0  0  0
 31 30  2  0  0  0  0
 32 31  1  0  0  0  0
 33 34  1  0  0  0  0
 33 32  2  0  0  0  0
 34 35  2  0  0  0  0
 35 36  1  0  0  0  0
 36 27  2  0  0  0  0
M  END
>  <minimizedAffinity>
-5.70331383

>  <minimizedRMSD>
1.49216282

$$$$
