
 OpenBabel03232520513D

 33 36  0  0  1  0  0  0  0  0999 V2000
   46.3600   33.7610   45.0830 C   0  0  2  0  0  0  0  0  0  0  0  0
   45.0810   34.5270   44.8250 C   0  0  0  0  0  0  0  0  0  0  0  0
   44.9500   35.2290   43.5530 C   0  0  0  0  0  0  0  0  0  0  0  0
   46.0450   35.1700   42.5620 C   0  0  1  0  0  0  0  0  0  0  0  0
   47.2760   34.5010   42.9990 C   0  0  0  0  0  0  0  0  0  0  0  0
   46.9520   33.2710   43.8010 C   0  0  0  0  0  0  0  0  0  0  0  0
   47.0350   34.5510   45.5040 H   0  0  0  0  0  0  0  0  0  0  0  0
   44.2000   34.6540   45.4390 H   0  0  0  0  0  0  0  0  0  0  0  0
   44.0560   35.7670   43.3680 H   0  0  0  0  0  0  0  0  0  0  0  0
   46.2700   36.2500   42.3590 H   0  0  0  0  0  0  0  0  0  0  0  0
   47.8360   35.1990   43.6540 H   0  0  0  0  0  0  0  0  0  0  0  0
   47.9040   34.1640   42.1710 H   0  0  0  0  0  0  0  0  0  0  0  0
   47.9550   32.8190   44.0520 H   0  0  0  0  0  0  0  0  0  0  0  0
   46.3190   32.5650   43.2540 H   0  0  0  0  0  0  0  0  0  0  0  0
   45.4290   34.5280   41.3450 C   0  0  0  0  0  0  0  0  0  0  0  0
   46.2280   33.7080   40.5460 C   0  0  0  0  0  3  0  0  0  0  0  0
   45.8320   33.0390   39.4070 C   0  0  0  0  0  3  0  0  0  0  0  0
   44.5160   33.2080   39.0340 C   0  0  0  0  0  3  0  0  0  0  0  0
   43.6860   34.0070   39.7860 C   0  0  0  0  0  0  0  0  0  0  0  0
   42.3650   34.1770   39.4090 C   0  0  0  0  0  3  0  0  0  0  0  0
   41.4960   34.9840   40.1510 C   0  0  0  0  0  3  0  0  0  0  0  0
   42.0010   35.6180   41.2910 C   0  0  0  0  0  3  0  0  0  0  0  0
   43.3140   35.4630   41.6870 C   0  0  0  0  0  3  0  0  0  0  0  0
   44.1250   34.6570   40.9190 C   0  0  0  0  0  0  0  0  0  0  0  0
   45.3830   33.0140   47.2330 C   0  0  0  0  0  0  0  0  0  0  0  0
   46.0910   32.6770   46.0640 C   0  0  0  0  0  0  0  0  0  0  0  0
   46.5260   31.3350   45.8810 C   0  0  0  0  0  0  0  0  0  0  0  0
   46.2280   30.4470   46.8530 N   0  0  0  0  0  0  0  0  0  0  0  0
   45.5440   30.7930   47.9720 C   0  0  0  0  0  0  0  0  0  0  0  0
   45.1280   32.0610   48.1560 N   0  0  0  0  0  0  0  0  0  0  0  0
   45.0230   34.0090   47.4430 H   0  0  0  0  0  0  0  0  0  0  0  0
   47.0580   31.1090   44.9900 H   0  0  0  0  0  0  0  0  0  0  0  0
   45.3640   29.9910   48.6840 H   0  0  0  0  0  0  0  0  0  0  0  0
  1  7  1  1  0  0  0
  1 26  1  0  0  0  0
  2  1  1  0  0  0  0
  2  8  1  0  0  0  0
  3  2  2  0  0  0  0
  4 10  1  6  0  0  0
  4  5  1  0  0  0  0
  4  3  1  0  0  0  0
  5 11  1  0  0  0  0
  5  6  1  0  0  0  0
  6 13  1  0  0  0  0
  6  1  1  0  0  0  0
  9  3  1  0  0  0  0
 12  5  1  0  0  0  0
 14  6  1  0  0  0  0
 15  4  1  0  0  0  0
 16 15  2  0  0  0  0
 17 16  1  0  0  0  0
 18 17  2  0  0  0  0
 18 19  1  0  0  0  0
 19 24  1  0  0  0  0
 20 19  2  0  0  0  0
 20 21  1  0  0  0  0
 21 22  2  0  0  0  0
 22 23  1  0  0  0  0
 24 15  1  0  0  0  0
 24 23  2  0  0  0  0
 25 31  1  0  0  0  0
 25 30  1  0  0  0  0
 26 25  2  0  0  0  0
 27 26  1  0  0  0  0
 27 28  2  0  0  0  0
 28 29  1  0  0  0  0
 29 30  2  0  0  0  0
 29 33  1  0  0  0  0
 32 27  1  0  0  0  0
M  END
>  <minimizedAffinity>
-6.31682301

>  <minimizedRMSD>
1.66685796

$$$$
