REMARK  Name = 
REMARK  2 active torsions:
REMARK  status: ('A' for Active; 'I' for Inactive)
REMARK    1  A    between atoms: C_2  and  C_7
REMARK    2  A    between atoms: C_10  and  C_24
REMARK                            x       y       z     vdW  Elec       q    Type
REMARK                         _______ _______ _______ _____ _____    ______ ____
ROOT
ATOM      1  C   UNL     1      45.981  33.917  45.291  0.00  0.00    +0.000 C 
ATOM      2  C   UNL     1      44.838  34.887  45.494  0.00  0.00    +0.000 C 
ATOM      3  C   UNL     1      44.506  35.790  44.397  0.00  0.00    +0.000 C 
ATOM      4  C   UNL     1      45.272  35.730  43.135  0.00  0.00    +0.000 C 
ATOM      5  C   UNL     1      46.434  34.833  43.127  0.00  0.00    +0.000 C 
ATOM      6  C   UNL     1      46.117  33.552  43.848  0.00  0.00    +0.000 C 
ATOM      7  H   UNL     1      46.874  34.528  45.586  0.00  0.00    +0.000 HD
ATOM      8  H   UNL     1      44.188  35.041  46.344  0.00  0.00    +0.000 HD
ATOM      9  H   UNL     1      43.706  36.472  44.535  0.00  0.00    +0.000 HD
ATOM     10  H   UNL     1      45.626  36.786  42.996  0.00  0.00    +0.000 HD
ATOM     11  H   UNL     1      47.262  35.335  43.667  0.00  0.00    +0.000 HD
ATOM     12  H   UNL     1      46.751  34.543  42.122  0.00  0.00    +0.000 HD
ATOM     13  H   UNL     1      47.052  32.929  43.751  0.00  0.00    +0.000 HD
ATOM     14  H   UNL     1      45.246  33.037  43.430  0.00  0.00    +0.000 HD
ENDROOT
BRANCH   4  15
ATOM     15  C   UNL     1      44.253  35.379  42.081  0.00  0.00    +0.000 A 
ATOM     16  C   UNL     1      44.601  34.450  41.099  0.00  0.00    +0.000 A 
ATOM     17  C   UNL     1      43.796  34.009  40.069  0.00  0.00    +0.000 A 
ATOM     18  C   UNL     1      42.530  34.549  40.018  0.00  0.00    +0.000 A 
ATOM     19  C   UNL     1      42.137  35.470  40.962  0.00  0.00    +0.000 A 
ATOM     20  C   UNL     1      40.864  36.013  40.908  0.00  0.00    +0.000 A 
ATOM     21  C   UNL     1      40.435  36.952  41.851  0.00  0.00    +0.000 A 
ATOM     22  C   UNL     1      41.331  37.331  42.856  0.00  0.00    +0.000 A 
ATOM     23  C   UNL     1      42.605  36.804  42.931  0.00  0.00    +0.000 A 
ATOM     24  C   UNL     1      42.974  35.882  41.975  0.00  0.00    +0.000 A 
ENDBRANCH   4  15
BRANCH   1  26
ATOM     25  C   UNL     1      45.293  32.980  47.478  0.00  0.00    +0.000 A 
ATOM     26  C   UNL     1      45.790  32.743  46.183  0.00  0.00    +0.000 A 
ATOM     27  C   UNL     1      46.097  31.410  45.793  0.00  0.00    +0.000 A 
ATOM     28  N   UNL     1      45.889  30.433  46.701  0.00  0.00    +0.000 NA
ATOM     29  C   UNL     1      45.409  30.684  47.944  0.00  0.00    +0.000 A 
ATOM     30  N   UNL     1      45.115  31.942  48.325  0.00  0.00    +0.000 NA
ATOM     31  H   UNL     1      45.039  33.962  47.846  0.00  0.00    +0.000 HD
ATOM     32  H   UNL     1      46.470  31.260  44.810  0.00  0.00    +0.000 HD
ATOM     33  H   UNL     1      45.284  29.816  48.588  0.00  0.00    +0.000 HD
ENDBRANCH   1  26
TORSDOF 2
