
     RDKit          3D

 40 43  0  0  0  0  0  0  0  0999 V2000
   45.2928   32.9802   47.4780 C   0  0  0  0  0  0  0  0  0  0  0  0
   45.7902   32.7426   46.1834 C   0  0  0  0  0  0  0  0  0  0  0  0
   46.0966   31.4100   45.7926 C   0  0  0  0  0  0  0  0  0  0  0  0
   45.8893   30.4329   46.7014 N   0  0  0  0  0  0  0  0  0  0  0  0
   45.4092   30.6837   47.9436 C   0  0  0  0  0  0  0  0  0  0  0  0
   45.1154   31.9419   48.3248 N   0  0  0  0  0  0  0  0  0  0  0  0
   45.9810   33.9175   45.2905 C   0  0  2  0  0  0  0  0  0  0  0  0
   44.8379   34.8870   45.4938 C   0  0  0  0  0  0  0  0  0  0  0  0
   44.5064   35.7902   44.3966 C   0  0  0  0  0  0  0  0  0  0  0  0
   45.2716   35.7303   43.1350 C   0  0  1  0  0  0  0  0  0  0  0  0
   46.4345   34.8327   43.1274 C   0  0  0  0  0  0  0  0  0  0  0  0
   46.1170   33.5519   43.8480 C   0  0  0  0  0  0  0  0  0  0  0  0
   45.0386   33.9621   47.8462 H   0  0  0  0  0  0  0  0  0  0  0  0
   46.4703   31.2602   44.8100 H   0  0  0  0  0  0  0  0  0  0  0  0
   45.2838   29.8164   48.5880 H   0  0  0  0  0  0  0  0  0  0  0  0
   46.8743   34.5284   45.5855 H   0  0  0  0  0  0  0  0  0  0  0  0
   44.1882   35.0413   46.3444 H   0  0  0  0  0  0  0  0  0  0  0  0
   43.7065   36.4720   44.5348 H   0  0  0  0  0  0  0  0  0  0  0  0
   45.6258   36.7863   42.9959 H   0  0  0  0  0  0  0  0  0  0  0  0
   47.2619   35.3349   43.6673 H   0  0  0  0  0  0  0  0  0  0  0  0
   46.7508   34.5430   42.1217 H   0  0  0  0  0  0  0  0  0  0  0  0
   47.0518   32.9293   43.7514 H   0  0  0  0  0  0  0  0  0  0  0  0
   45.2460   33.0373   43.4300 H   0  0  0  0  0  0  0  0  0  0  0  0
   44.2528   35.3792   42.0806 C   0  0  0  0  0  0  0  0  0  0  0  0
   44.7043   35.0067   40.8138 C   0  0  0  0  0  0  0  0  0  0  0  0
   43.9178   34.6492   39.7376 C   0  0  0  0  0  0  0  0  0  0  0  0
   42.5572   34.6672   39.9516 C   0  0  0  0  0  0  0  0  0  0  0  0
   42.0602   35.0275   41.1833 C   0  0  0  0  0  0  0  0  0  0  0  0
   40.6918   35.0469   41.3960 C   0  0  0  0  0  0  0  0  0  0  0  0
   40.1549   35.4103   42.6351 C   0  0  0  0  0  0  0  0  0  0  0  0
   41.0419   35.7559   43.6601 C   0  0  0  0  0  0  0  0  0  0  0  0
   42.4094   35.7441   43.4725 C   0  0  0  0  0  0  0  0  0  0  0  0
   42.8831   35.3777   42.2315 C   0  0  0  0  0  0  0  0  0  0  0  0
   45.7901   34.9885   40.6312 H   0  0  0  0  0  0  0  0  0  0  0  0
   44.3627   34.3777   38.8011 H   0  0  0  0  0  0  0  0  0  0  0  0
   41.8803   34.3955   39.1428 H   0  0  0  0  0  0  0  0  0  0  0  0
   39.9920   34.7851   40.6222 H   0  0  0  0  0  0  0  0  0  0  0  0
   39.0755   35.4318   42.8228 H   0  0  0  0  0  0  0  0  0  0  0  0
   40.6416   36.0357   44.6123 H   0  0  0  0  0  0  0  0  0  0  0  0
   43.0349   36.0175   44.2842 H   0  0  0  0  0  0  0  0  0  0  0  0
  1  6  2  0
  2  1  1  0
  3  2  2  0
  3  4  1  0
  4  5  2  0
  5  6  1  0
  7  8  1  0
  7  2  1  0
  9  8  2  0
 10  9  1  0
 11 10  1  0
 11 12  1  0
 12  7  1  0
  1 13  1  0
  3 14  1  0
  5 15  1  0
  7 16  1  1
  8 17  1  0
  9 18  1  0
 10 19  1  6
 11 20  1  0
 11 21  1  0
 12 22  1  0
 12 23  1  0
 24 25  2  0
 25 26  1  0
 26 27  2  0
 27 28  1  0
 28 29  2  0
 29 30  1  0
 30 31  2  0
 31 32  1  0
 32 33  2  0
 33 24  1  0
 33 28  1  0
 25 34  1  0
 26 35  1  0
 27 36  1  0
 29 37  1  0
 30 38  1  0
 31 39  1  0
 32 40  1  0
 10 24  1  0
M  ISO  8  13  14  14  14  15  14  16  13  17  13  18  13  19  13  20  13
M  ISO  3  21  13  22  13  23  13
M  END
>  <DihAtoms>  (1) 
8,9,23,24

>  <DihDeg>  (1) 
-33.33508604176454

$$$$
