
 OpenBabel03232520473D

 42 46  0  0  0  0  0  0  0  0999 V2000
   46.7910   34.3670   42.5210 C   0  0  0  0  0  0  0  0  0  0  0  0
   48.0810   34.8120   42.4750 C   0  0  0  0  0  0  0  0  0  0  0  0
   48.7710   34.9600   41.2680 C   0  0  0  0  0  0  0  0  0  0  0  0
   48.1320   34.6490   40.0700 C   0  0  0  0  0  0  0  0  0  0  0  0
   46.8410   34.2040   40.1220 C   0  0  0  0  0  0  0  0  0  0  0  0
   46.1880   34.0680   41.3330 C   0  0  0  0  0  0  0  0  0  0  0  0
   48.6170   35.0660   43.3880 H   0  0  0  0  0  0  0  0  0  0  0  0
   49.7960   35.3180   41.2960 H   0  0  0  0  0  0  0  0  0  0  0  0
   48.7310   34.7900   39.1900 H   0  0  0  0  0  0  0  0  0  0  0  0
   46.3710   33.9690   39.1720 H   0  0  0  0  0  0  0  0  0  0  0  0
   44.8550   33.6050   41.3410 N   0  0  0  0  0  0  0  0  0  0  0  0
   43.9740   34.6230   41.1440 C   0  0  0  0  0  0  0  0  0  0  0  0
   42.5950   34.3950   41.1160 C   0  0  0  0  0  0  0  0  0  0  0  0
   42.1630   33.0880   41.2960 C   0  0  0  0  0  0  0  0  0  0  0  0
   40.9300   32.8280   41.2800 O   0  0  0  0  0  0  0  0  0  0  0  0
   43.0560   32.1150   41.4860 N   0  0  0  0  0  0  0  0  0  0  0  0
   44.3710   32.3520   41.5100 C   0  0  0  0  0  0  0  0  0  0  0  0
   45.2840   31.4960   41.6830 O   0  0  0  0  0  0  0  0  0  0  0  0
   44.2320   35.6530   40.9990 H   0  0  0  0  0  0  0  0  0  0  0  0
   42.7530   31.1100   41.6250 H   0  0  0  0  0  0  0  0  0  0  0  0
   41.6170   35.5040   40.9040 C   0  0  0  0  0  0  0  0  0  0  0  0
   40.6170   35.1010   41.0490 H   0  0  0  0  0  0  0  0  0  0  0  0
   41.7070   35.9600   39.9090 H   0  0  0  0  0  0  0  0  0  0  0  0
   41.7920   36.2460   41.7240 H   0  0  0  0  0  0  0  0  0  0  0  0
   44.8260   34.9550   45.6710 C   0  0  0  0  0  0  0  0  0  0  0  0
   45.3700   35.2020   44.4230 C   0  0  0  0  0  0  0  0  0  0  0  0
   46.1530   34.2480   43.8280 C   0  0  0  0  0  0  0  0  0  0  0  0
   46.3360   33.1180   44.5190 N   0  0  0  0  0  0  0  0  0  0  0  0
   45.8130   32.8590   45.7340 C   0  0  0  0  0  0  0  0  0  0  0  0
   45.0550   33.8040   46.2910 N   0  0  0  0  0  0  0  0  0  0  0  0
   44.2040   35.6930   46.1600 H   0  0  0  0  0  0  0  0  0  0  0  0
   45.2060   36.1220   43.8870 H   0  0  0  0  0  0  0  0  0  0  0  0
   46.1950   31.5320   46.2330 C   0  0  0  0  0  0  0  0  0  0  0  0
   45.6720   30.3820   45.6820 C   0  0  0  0  0  3  0  0  0  0  0  0
   45.9930   29.1140   46.1070 C   0  0  0  0  0  3  0  0  0  0  0  0
   46.8730   28.9260   47.1290 C   0  0  0  0  0  3  0  0  0  0  0  0
   47.4260   30.0350   47.7170 C   0  0  0  0  0  0  0  0  0  0  0  0
   48.3100   29.8510   48.7430 C   0  0  0  0  0  3  0  0  0  0  0  0
   48.9110   30.9280   49.3870 C   0  0  0  0  0  3  0  0  0  0  0  0
   48.5580   32.2000   48.9240 C   0  0  0  0  0  3  0  0  0  0  0  0
   47.6630   32.3330   47.8880 C   0  0  0  0  0  3  0  0  0  0  0  0
   47.0740   31.2800   47.2570 C   0  0  0  0  0  0  0  0  0  0  0  0
  1 27  1  0  0  0  0
  2  1  1  0  0  0  0
  2  7  1  0  0  0  0
  3  8  1  0  0  0  0
  3  2  2  0  0  0  0
  4  5  2  0  0  0  0
  4  3  1  0  0  0  0
  5  6  1  0  0  0  0
  6 11  1  0  0  0  0
  6  1  2  0  0  0  0
  9  4  1  0  0  0  0
 10  5  1  0  0  0  0
 11 17  1  0  0  0  0
 12 11  1  0  0  0  0
 13 12  2  0  0  0  0
 13 14  1  0  0  0  0
 14 16  1  0  0  0  0
 15 14  2  0  0  0  0
 16 17  1  0  0  0  0
 16 20  1  0  0  0  0
 17 18  2  0  0  0  0
 19 12  1  0  0  0  0
 21 22  1  0  0  0  0
 21 13  1  0  0  0  0
 21 24  1  0  0  0  0
 23 21  1  0  0  0  0
 25 31  1  0  0  0  0
 25 30  1  0  0  0  0
 26 25  2  0  0  0  0
 27 26  1  0  0  0  0
 27 28  2  0  0  0  0
 28 29  1  0  0  0  0
 29 33  1  0  0  0  0
 29 30  2  0  0  0  0
 32 26  1  0  0  0  0
 33 42  1  0  0  0  0
 34 35  1  0  0  0  0
 34 33  2  0  0  0  0
 35 36  2  0  0  0  0
 36 37  1  0  0  0  0
 37 38  1  0  0  0  0
 38 39  2  0  0  0  0
 40 39  1  0  0  0  0
 41 40  2  0  0  0  0
 42 37  2  0  0  0  0
 42 41  1  0  0  0  0
M  END
>  <minimizedAffinity>
-6.99758053

>  <minimizedRMSD>
1.27072823

$$$$
