
     RDKit          3D

 40 43  0  0  0  0  0  0  0  0999 V2000
   45.2928   32.9802   47.4780 C   0  0  0  0  0  0  0  0  0  0  0  0
   45.7902   32.7426   46.1834 C   0  0  0  0  0  0  0  0  0  0  0  0
   46.0966   31.4100   45.7926 C   0  0  0  0  0  0  0  0  0  0  0  0
   45.8893   30.4329   46.7014 N   0  0  0  0  0  0  0  0  0  0  0  0
   45.4092   30.6837   47.9436 C   0  0  0  0  0  0  0  0  0  0  0  0
   45.1154   31.9419   48.3248 N   0  0  0  0  0  0  0  0  0  0  0  0
   45.9810   33.9175   45.2905 C   0  0  2  0  0  0  0  0  0  0  0  0
   44.8379   34.8870   45.4938 C   0  0  0  0  0  0  0  0  0  0  0  0
   44.5064   35.7902   44.3966 C   0  0  0  0  0  0  0  0  0  0  0  0
   45.2716   35.7303   43.1350 C   0  0  1  0  0  0  0  0  0  0  0  0
   46.4345   34.8327   43.1274 C   0  0  0  0  0  0  0  0  0  0  0  0
   46.1170   33.5519   43.8480 C   0  0  0  0  0  0  0  0  0  0  0  0
   45.0386   33.9621   47.8462 H   0  0  0  0  0  0  0  0  0  0  0  0
   46.4703   31.2602   44.8100 H   0  0  0  0  0  0  0  0  0  0  0  0
   45.2838   29.8164   48.5880 H   0  0  0  0  0  0  0  0  0  0  0  0
   46.8743   34.5284   45.5855 H   0  0  0  0  0  0  0  0  0  0  0  0
   44.1882   35.0413   46.3444 H   0  0  0  0  0  0  0  0  0  0  0  0
   43.7065   36.4720   44.5348 H   0  0  0  0  0  0  0  0  0  0  0  0
   45.6258   36.7863   42.9959 H   0  0  0  0  0  0  0  0  0  0  0  0
   47.2619   35.3349   43.6673 H   0  0  0  0  0  0  0  0  0  0  0  0
   46.7508   34.5430   42.1217 H   0  0  0  0  0  0  0  0  0  0  0  0
   47.0518   32.9293   43.7514 H   0  0  0  0  0  0  0  0  0  0  0  0
   45.2460   33.0373   43.4300 H   0  0  0  0  0  0  0  0  0  0  0  0
   44.2528   35.3792   42.0806 C   0  0  0  0  0  0  0  0  0  0  0  0
   44.6646   35.3174   40.7486 C   0  0  0  0  0  0  0  0  0  0  0  0
   43.8733   35.0071   39.6615 C   0  0  0  0  0  0  0  0  0  0  0  0
   42.5510   34.7346   39.9351 C   0  0  0  0  0  0  0  0  0  0  0  0
   42.0940   34.7822   41.2323 C   0  0  0  0  0  0  0  0  0  0  0  0
   40.7638   34.5099   41.5053 C   0  0  0  0  0  0  0  0  0  0  0  0
   40.2676   34.5517   42.8120 C   0  0  0  0  0  0  0  0  0  0  0  0
   41.1558   34.8778   43.8424 C   0  0  0  0  0  0  0  0  0  0  0  0
   42.4857   35.1530   43.5955 C   0  0  0  0  0  0  0  0  0  0  0  0
   42.9202   35.0970   42.2891 C   0  0  0  0  0  0  0  0  0  0  0  0
   45.7196   35.5330   40.5181 H   0  0  0  0  0  0  0  0  0  0  0  0
   44.2861   34.9858   38.6726 H   0  0  0  0  0  0  0  0  0  0  0  0
   41.8726   34.4825   39.1212 H   0  0  0  0  0  0  0  0  0  0  0  0
   40.0639   34.2571   40.7286 H   0  0  0  0  0  0  0  0  0  0  0  0
   39.2189   34.3395   43.0481 H   0  0  0  0  0  0  0  0  0  0  0  0
   40.7865   34.9127   44.8462 H   0  0  0  0  0  0  0  0  0  0  0  0
   43.1136   35.3968   44.4148 H   0  0  0  0  0  0  0  0  0  0  0  0
  1  6  2  0
  2  1  1  0
  3  2  2  0
  3  4  1  0
  4  5  2  0
  5  6  1  0
  7  8  1  0
  7  2  1  0
  9  8  2  0
 10  9  1  0
 11 10  1  0
 11 12  1  0
 12  7  1  0
  1 13  1  0
  3 14  1  0
  5 15  1  0
  7 16  1  1
  8 17  1  0
  9 18  1  0
 10 19  1  6
 11 20  1  0
 11 21  1  0
 12 22  1  0
 12 23  1  0
 24 25  2  0
 25 26  1  0
 26 27  2  0
 27 28  1  0
 28 29  2  0
 29 30  1  0
 30 31  2  0
 31 32  1  0
 32 33  2  0
 33 24  1  0
 33 28  1  0
 25 34  1  0
 26 35  1  0
 27 36  1  0
 29 37  1  0
 30 38  1  0
 31 39  1  0
 32 40  1  0
 10 24  1  0
M  ISO  8  13  14  14  14  15  14  16  13  17  13  18  13  19  13  20  13
M  ISO  3  21  13  22  13  23  13
M  END
>  <DihAtoms>  (1) 
8,9,23,24

>  <DihDeg>  (1) 
-33.33508604176454

$$$$
