
     RDKit          3D

 43 46  0  0  0  0  0  0  0  0999 V2000
   46.1439   33.7063   45.4187 C   0  0  2  0  0  0  0  0  0  0  0  0
   44.9674   34.6694   45.5319 C   0  0  0  0  0  0  0  0  0  0  0  0
   44.7010   35.5296   44.4081 C   0  0  0  0  0  0  0  0  0  0  0  0
   45.5401   35.4537   43.2152 C   0  0  1  0  0  0  0  0  0  0  0  0
   46.6854   34.5447   43.2414 C   0  0  0  0  0  0  0  0  0  0  0  0
   46.3457   33.2971   44.0034 C   0  0  0  0  0  0  0  0  0  0  0  0
   45.2901   32.8542   47.5665 C   0  0  0  0  0  0  0  0  0  0  0  0
   45.9778   32.6367   46.3890 C   0  0  0  0  0  0  0  0  0  0  0  0
   46.4908   31.3551   46.2111 C   0  0  0  0  0  0  0  0  0  0  0  0
   46.3102   30.4084   47.1485 N   0  0  0  0  0  0  0  0  0  0  0  0
   45.6455   30.6290   48.2795 C   0  0  0  0  0  0  0  0  0  0  0  0
   45.1461   31.8534   48.4673 N   0  0  0  0  0  0  0  0  0  0  0  0
   44.6156   35.1085   42.0339 C   0  0  0  0  0  0  0  0  0  0  0  0
   43.6649   34.1706   42.3586 F   0  0  0  0  0  0  0  0  0  0  0  0
   43.9259   36.2744   41.6885 F   0  0  0  0  0  0  0  0  0  0  0  0
   45.3884   34.7450   40.9375 F   0  0  0  0  0  0  0  0  0  0  0  0
   47.0159   34.3593   45.7186 H   0  0  0  0  0  0  0  0  0  0  0  0
   44.2106   34.9178   46.2639 H   0  0  0  0  0  0  0  0  0  0  0  0
   43.9092   36.2388   44.3761 H   0  0  0  0  0  0  0  0  0  0  0  0
   45.8910   36.4854   42.9789 H   0  0  0  0  0  0  0  0  0  0  0  0
   47.6046   35.0066   43.6806 H   0  0  0  0  0  0  0  0  0  0  0  0
   46.9548   34.2788   42.1792 H   0  0  0  0  0  0  0  0  0  0  0  0
   45.3822   32.8857   43.6052 H   0  0  0  0  0  0  0  0  0  0  0  0
   47.1604   32.5717   43.9455 H   0  0  0  0  0  0  0  0  0  0  0  0
   44.8415   33.8298   47.8215 H   0  0  0  0  0  0  0  0  0  0  0  0
   47.0428   31.0901   45.3229 H   0  0  0  0  0  0  0  0  0  0  0  0
   45.3439   29.7477   49.4004 C   0  0  0  0  0  0  0  0  0  0  0  0
   45.1965   30.1925   50.7182 C   0  0  0  0  0  0  0  0  0  0  0  0
   44.9122   29.3833   51.7845 C   0  0  0  0  0  0  0  0  0  0  0  0
   44.7527   28.0360   51.5926 C   0  0  0  0  0  0  0  0  0  0  0  0
   44.8830   27.5309   50.3293 C   0  0  0  0  0  0  0  0  0  0  0  0
   44.7125   26.1718   50.1951 C   0  0  0  0  0  0  0  0  0  0  0  0
   44.8276   25.5855   48.9543 C   0  0  0  0  0  0  0  0  0  0  0  0
   45.1144   26.4089   47.8844 C   0  0  0  0  0  0  0  0  0  0  0  0
   45.2737   27.7595   48.0814 C   0  0  0  0  0  0  0  0  0  0  0  0
   45.1690   28.3898   49.2960 C   0  0  0  0  0  0  0  0  0  0  0  0
   45.3161   31.2668   50.9181 H   0  0  0  0  0  0  0  0  0  0  0  0
   44.8203   29.8295   52.7557 H   0  0  0  0  0  0  0  0  0  0  0  0
   44.5316   27.4633   52.4729 H   0  0  0  0  0  0  0  0  0  0  0  0
   44.4860   25.5418   51.0584 H   0  0  0  0  0  0  0  0  0  0  0  0
   44.6887   24.5187   48.8813 H   0  0  0  0  0  0  0  0  0  0  0  0
   45.1946   25.9020   46.9326 H   0  0  0  0  0  0  0  0  0  0  0  0
   45.4904   28.2711   47.1739 H   0  0  0  0  0  0  0  0  0  0  0  0
  1  2  1  0
  1  8  1  0
  3  2  2  0
  4  5  1  0
  4  3  1  0
  5  6  1  0
  6  1  1  0
  7 12  2  0
  8  7  1  0
  9  8  2  0
  9 10  1  0
 10 11  2  0
 11 12  1  0
 13 14  1  0
 13  4  1  0
 15 13  1  0
 16 13  1  0
  1 17  1  1
  2 18  1  0
  3 19  1  0
  4 20  1  6
  5 21  1  0
  5 22  1  0
  6 23  1  0
  6 24  1  0
  7 25  1  0
  9 26  1  0
 27 28  2  0
 28 29  1  0
 29 30  2  0
 30 31  1  0
 31 32  2  0
 32 33  1  0
 33 34  2  0
 34 35  1  0
 35 36  2  0
 36 27  1  0
 36 31  1  0
 28 37  1  0
 29 38  1  0
 30 39  1  0
 32 40  1  0
 33 41  1  0
 34 42  1  0
 35 43  1  0
 11 27  1  0
M  ISO  8  17  13  18  13  19  13  20  13  21  13  22  13  23  13  24  13
M  ISO  2  25  14  26  14
M  END
>  <DihAtoms>  (1) 
9,10,26,27

>  <DihDeg>  (1) 
179.8023080231464

$$$$
