
 OpenBabel03232510463D

 22 24  0  0  0  0  0  0  0  0999 V2000
   44.4130   36.0130   44.8850 C   0  0  0  0  0  0  0  0  0  0  0  0
   45.0040   36.0000   43.6130 C   0  0  0  0  0  0  0  0  0  0  0  0
   45.8810   34.9670   43.3120 C   0  0  0  0  0  0  0  0  0  0  0  0
   46.0940   34.0470   44.2930 N   0  0  0  0  0  0  0  0  0  0  0  0
   45.5290   34.0660   45.4990 C   0  0  0  0  0  0  0  0  0  0  0  0
   44.6920   35.0590   45.7700 N   0  0  0  0  0  0  0  0  0  0  0  0
   43.7240   36.7990   45.1580 H   0  0  0  0  0  0  0  0  0  0  0  0
   44.7580   36.8150   42.9940 H   0  0  0  0  0  0  0  0  0  0  0  0
   46.6470   34.8140   42.0950 C   0  0  0  0  0  0  0  0  0  0  0  0
   47.9130   35.4210   42.1150 C   0  0  0  0  0  0  0  0  0  0  0  0
   48.8040   35.3870   41.0680 C   0  0  0  0  0  0  0  0  0  0  0  0
   48.4820   34.7270   39.9040 C   0  0  0  0  0  0  0  0  0  0  0  0
   47.2560   34.1110   39.8330 C   0  0  0  0  0  0  0  0  0  0  0  0
   46.8670   33.3970   38.7200 C   0  0  0  0  0  0  0  0  0  0  0  0
   45.6450   32.7260   38.6230 C   0  0  0  0  0  0  0  0  0  0  0  0
   44.8090   32.8120   39.7390 C   0  0  0  0  0  0  0  0  0  0  0  0
   45.2120   33.5240   40.8320 C   0  0  0  0  0  0  0  0  0  0  0  0
   46.4120   34.1800   40.9090 C   0  0  0  0  0  0  0  0  0  0  0  0
   45.9170   32.9570   46.3900 C   0  0  0  0  0  0  0  0  0  0  0  0
   47.1930   33.0540   46.8780 F   0  0  0  0  0  0  0  0  0  0  0  0
   45.7520   31.7630   45.6790 F   0  0  0  0  0  0  0  0  0  0  0  0
   45.0390   32.9200   47.4480 F   0  0  0  0  0  0  0  0  0  0  0  0
  1  7  1  0  0  0  0
  1  6  1  0  0  0  0
  2  1  2  0  0  0  0
  3  2  1  0  0  0  0
  3  4  2  0  0  0  0
  4  5  1  0  0  0  0
  5  6  2  0  0  0  0
  5 19  1  0  0  0  0
  8  2  1  0  0  0  0
  9 10  1  0  0  0  0
  9  3  1  0  0  0  0
 11 10  2  0  0  0  0
 12 11  1  0  0  0  0
 13 12  2  0  0  0  0
 13 18  1  0  0  0  0
 14 13  1  0  0  0  0
 15 14  2  0  0  0  0
 15 16  1  0  0  0  0
 16 17  2  0  0  0  0
 17 18  1  0  0  0  0
 18  9  2  0  0  0  0
 19 20  1  0  0  0  0
 19 22  1  0  0  0  0
 21 19  1  0  0  0  0
M  END
>  <minimizedAffinity>
-6.57291508

>  <minimizedRMSD>
0.559141338

$$$$
