
 OpenBabel03232520513D

 33 36  0  0  1  0  0  0  0  0999 V2000
   46.1320   33.6770   45.4140 C   0  0  2  0  0  0  0  0  0  0  0  0
   45.0310   34.7130   45.4850 C   0  0  0  0  0  0  0  0  0  0  0  0
   44.7980   35.5430   44.3080 C   0  0  0  0  0  0  0  0  0  0  0  0
   45.6190   35.3490   43.0950 C   0  0  1  0  0  0  0  0  0  0  0  0
   46.7320   34.4000   43.2140 C   0  0  0  0  0  0  0  0  0  0  0  0
   46.3170   33.1950   44.0120 C   0  0  0  0  0  0  0  0  0  0  0  0
   47.0400   34.2660   45.7080 H   0  0  0  0  0  0  0  0  0  0  0  0
   44.3510   34.9630   46.2870 H   0  0  0  0  0  0  0  0  0  0  0  0
   44.0280   36.2710   44.3530 H   0  0  0  0  0  0  0  0  0  0  0  0
   46.0320   36.3730   42.8950 H   0  0  0  0  0  0  0  0  0  0  0  0
   47.5590   34.9030   43.7560 H   0  0  0  0  0  0  0  0  0  0  0  0
   47.0810   34.0180   42.2510 H   0  0  0  0  0  0  0  0  0  0  0  0
   47.2220   32.5230   44.0090 H   0  0  0  0  0  0  0  0  0  0  0  0
   45.4410   32.6910   43.5890 H   0  0  0  0  0  0  0  0  0  0  0  0
   44.6340   34.9660   42.0200 C   0  0  0  0  0  0  0  0  0  0  0  0
   43.2880   35.2860   42.2020 C   0  0  0  0  0  3  0  0  0  0  0  0
   42.2570   35.0180   41.3240 C   0  0  0  0  0  3  0  0  0  0  0  0
   42.6090   34.3730   40.1580 C   0  0  0  0  0  3  0  0  0  0  0  0
   43.9230   34.0360   39.9300 C   0  0  0  0  0  0  0  0  0  0  0  0
   44.2750   33.3860   38.7590 C   0  0  0  0  0  3  0  0  0  0  0  0
   45.6010   33.0270   38.4970 C   0  0  0  0  0  3  0  0  0  0  0  0
   46.5690   33.3450   39.4550 C   0  0  0  0  0  3  0  0  0  0  0  0
   46.2440   33.9930   40.6300 C   0  0  0  0  0  3  0  0  0  0  0  0
   44.9220   34.3220   40.8350 C   0  0  0  0  0  0  0  0  0  0  0  0
   45.2730   32.9440   47.6190 C   0  0  0  0  0  0  0  0  0  0  0  0
   45.8390   32.5860   46.3810 C   0  0  0  0  0  0  0  0  0  0  0  0
   46.1150   31.2160   46.1170 C   0  0  0  0  0  0  0  0  0  0  0  0
   45.8120   30.3230   47.0830 N   0  0  0  0  0  0  0  0  0  0  0  0
   45.2680   30.6900   48.2690 C   0  0  0  0  0  0  0  0  0  0  0  0
   45.0020   31.9840   48.5310 N   0  0  0  0  0  0  0  0  0  0  0  0
   45.0370   33.9610   47.8920 H   0  0  0  0  0  0  0  0  0  0  0  0
   46.5410   30.9740   45.1740 H   0  0  0  0  0  0  0  0  0  0  0  0
   45.0680   29.8820   48.9690 H   0  0  0  0  0  0  0  0  0  0  0  0
  1  2  1  0  0  0  0
  1  7  1  1  0  0  0
  1 26  1  0  0  0  0
  2  8  1  0  0  0  0
  3  9  1  0  0  0  0
  3  2  2  0  0  0  0
  4 10  1  6  0  0  0
  4  5  1  0  0  0  0
  4  3  1  0  0  0  0
  5 11  1  0  0  0  0
  5  6  1  0  0  0  0
  6  1  1  0  0  0  0
 12  5  1  0  0  0  0
 13  6  1  0  0  0  0
 14  6  1  0  0  0  0
 15 16  1  0  0  0  0
 15  4  1  0  0  0  0
 17 16  2  0  0  0  0
 18 17  1  0  0  0  0
 19 18  2  0  0  0  0
 19 24  1  0  0  0  0
 20 19  1  0  0  0  0
 21 20  2  0  0  0  0
 21 22  1  0  0  0  0
 22 23  2  0  0  0  0
 23 24  1  0  0  0  0
 24 15  2  0  0  0  0
 25 31  1  0  0  0  0
 25 30  1  0  0  0  0
 26 25  2  0  0  0  0
 27 26  1  0  0  0  0
 27 28  2  0  0  0  0
 28 29  1  0  0  0  0
 29 30  2  0  0  0  0
 29 33  1  0  0  0  0
 32 27  1  0  0  0  0
M  END
>  <minimizedAffinity>
-6.3382988

>  <minimizedRMSD>
0.572238147

$$$$
