
 OpenBabel03232520073D

 32 35  0  0  0  0  0  0  0  0999 V2000
   46.1770   30.3810   49.1370 N   0  0  0  0  0  0  0  0  0  0  0  0
   45.3130   31.3850   49.4270 C   0  0  0  0  0  0  0  0  0  0  0  0
   45.2330   32.2170   48.3660 N   0  0  0  0  0  0  0  0  0  0  0  0
   46.0640   31.6920   47.4380 C   0  0  0  0  0  0  0  0  0  0  0  0
   46.3130   32.2030   46.1740 C   0  0  0  0  0  0  0  0  0  0  0  0
   47.1910   31.5130   45.3910 N   0  0  0  0  0  0  0  0  0  0  0  0
   47.7920   30.3900   45.8170 C   0  0  0  0  0  0  0  0  0  0  0  0
   47.5170   29.9360   47.0490 N   0  0  0  0  0  0  0  0  0  0  0  0
   46.6780   30.5380   47.8810 C   0  0  0  0  0  0  0  0  0  0  0  0
   46.4760   29.5600   49.7350 H   0  0  0  0  0  0  0  0  0  0  0  0
   44.7810   31.4970   50.3520 H   0  0  0  0  0  0  0  0  0  0  0  0
   48.7260   29.6790   44.9480 C   0  0  0  0  0  0  0  0  0  0  0  0
   49.3300   28.5230   45.4170 C   0  0  0  0  0  0  0  0  0  0  0  0
   50.2110   27.8680   44.5760 C   0  0  0  0  0  0  0  0  0  0  0  0
   50.6960   26.9530   44.9330 H   0  0  0  0  0  0  0  0  0  0  0  0
   50.4640   28.3640   43.3270 C   0  0  0  0  0  0  0  0  0  0  0  0
   49.8680   29.5240   42.8370 C   0  0  0  0  0  0  0  0  0  0  0  0
   50.1040   29.8770   41.8330 H   0  0  0  0  0  0  0  0  0  0  0  0
   48.9890   30.1680   43.6890 C   0  0  0  0  0  0  0  0  0  0  0  0
   45.6300   33.6520   45.4410 S   0  0  0  0  0  0  0  0  0  0  0  0
   47.7860   34.7150   42.3490 C   0  0  0  0  0  0  0  0  0  0  0  0
   47.0680   34.3360   41.2110 C   0  0  0  0  0  0  0  0  0  0  0  0
   45.8490   33.7180   41.4250 C   0  0  0  0  0  0  0  0  0  0  0  0
   45.4150   33.5110   42.7040 N   0  0  0  0  0  0  0  0  0  0  0  0
   46.1550   33.9000   43.7620 C   0  0  0  0  0  0  0  0  0  0  0  0
   47.3300   34.4970   43.5810 N   0  0  0  0  0  0  0  0  0  0  0  0
   47.4020   34.4950   40.1900 H   0  0  0  0  0  0  0  0  0  0  0  0
   45.2420   33.4000   40.5870 H   0  0  0  0  0  0  0  0  0  0  0  0
   49.0860   35.3740   42.1480 C   0  0  0  0  0  0  0  0  0  0  0  0
   49.2490   36.1530   41.1800 O   0  0  0  0  0  0  0  0  0  0  0  0
   50.1120   35.1300   43.0290 O   0  0  0  0  0  0  0  0  0  0  0  0
   51.0700   35.2310   42.7120 H   0  0  0  0  0  0  0  0  0  0  0  0
  1  2  1  0  0  0  0
  1 10  1  0  0  0  0
  2 11  1  0  0  0  0
  3  2  2  0  0  0  0
  4  9  1  0  0  0  0
  4  3  1  0  0  0  0
  5  4  2  0  0  0  0
  6  7  2  0  0  0  0
  6  5  1  0  0  0  0
  7  8  1  0  0  0  0
  8  9  2  0  0  0  0
  9  1  1  0  0  0  0
 12 13  1  0  0  0  0
 12  7  1  0  0  0  0
 14 15  1  0  0  0  0
 14 13  2  0  0  0  0
 16 14  1  0  0  0  0
 17 16  2  0  0  0  0
 17 19  1  0  0  0  0
 18 17  1  0  0  0  0
 19 12  2  0  0  0  0
 20  5  1  0  0  0  0
 21 26  1  0  0  0  0
 22 23  1  0  0  0  0
 22 21  2  0  0  0  0
 23 24  2  0  0  0  0
 24 25  1  0  0  0  0
 25 20  1  0  0  0  0
 26 25  2  0  0  0  0
 27 22  1  0  0  0  0
 28 23  1  0  0  0  0
 29 21  1  0  0  0  0
 29 31  1  0  0  0  0
 30 29  2  0  0  0  0
 32 31  1  0  0  0  0
M  END
>  <minimizedAffinity>
-5.85104609

>  <minimizedRMSD>
0.155101255

$$$$
