
 OpenBabel03232515103D

 36 39  0  0  0  0  0  0  0  0999 V2000
   48.1220   30.9130   48.3820 C   0  0  0  0  0  0  0  0  0  0  0  0
   48.9790   31.4160   49.3500 C   0  0  0  0  0  0  0  0  0  0  0  0
   50.0020   30.6590   49.8640 C   0  0  0  0  0  0  0  0  0  0  0  0
   50.1580   29.3680   49.3840 C   0  0  0  0  0  0  0  0  0  0  0  0
   49.3130   28.8640   48.4240 C   0  0  0  0  0  0  0  0  0  0  0  0
   48.2850   29.6400   47.9170 C   0  0  0  0  0  0  0  0  0  0  0  0
   48.8200   32.4330   49.6980 H   0  0  0  0  0  0  0  0  0  0  0  0
   50.6450   31.0850   50.6150 H   0  0  0  0  0  0  0  0  0  0  0  0
   50.9710   28.7720   49.7950 H   0  0  0  0  0  0  0  0  0  0  0  0
   44.4890   35.7910   44.6380 C   0  0  0  0  0  0  0  0  0  0  0  0
   45.1980   35.6900   43.4460 C   0  0  0  0  0  0  0  0  0  0  0  0
   46.1770   34.7020   43.3240 C   0  0  0  0  0  0  0  0  0  0  0  0
   46.3930   33.8820   44.3830 N   0  0  0  0  0  0  0  0  0  0  0  0
   45.6800   34.0120   45.5320 C   0  0  0  0  0  0  0  0  0  0  0  0
   44.7280   34.9570   45.6780 N   0  0  0  0  0  0  0  0  0  0  0  0
   45.8860   33.1620   46.6650 N   0  0  0  0  0  0  0  0  0  0  0  0
   47.0850   32.5260   46.7220 C   0  0  0  0  0  0  0  0  0  0  0  0
   47.0600   31.7710   47.8840 C   0  0  0  0  0  0  0  0  0  0  0  0
   45.8780   31.9560   48.4970 N   0  0  0  0  0  0  0  0  0  0  0  0
   45.1630   32.7960   47.7650 C   0  0  0  0  0  0  0  0  0  0  0  0
   43.7210   36.5410   44.7780 H   0  0  0  0  0  0  0  0  0  0  0  0
   44.9680   36.3770   42.6520 H   0  0  0  0  0  0  0  0  0  0  0  0
   46.7420   34.6030   42.4070 H   0  0  0  0  0  0  0  0  0  0  0  0
   47.9560   32.5250   46.0650 H   0  0  0  0  0  0  0  0  0  0  0  0
   44.1760   33.2310   47.8510 H   0  0  0  0  0  0  0  0  0  0  0  0
   49.5730   27.4970   47.9980 C   0  0  0  0  0  0  0  0  0  0  0  0
   50.3740   27.2720   46.8950 C   0  0  0  0  0  0  0  0  0  0  0  0
   50.6330   25.9720   46.4730 C   0  0  0  0  0  0  0  0  0  0  0  0
   51.2610   25.7590   45.6050 H   0  0  0  0  0  0  0  0  0  0  0  0
   50.0500   24.9400   47.2120 C   0  0  0  0  0  0  0  0  0  0  0  0
   49.2480   25.1610   48.3160 C   0  0  0  0  0  0  0  0  0  0  0  0
   48.8390   24.2960   48.8280 H   0  0  0  0  0  0  0  0  0  0  0  0
   49.0050   26.4750   48.7170 C   0  0  0  0  0  0  0  0  0  0  0  0
   47.4340   29.0970   46.9330 N   0  0  0  0  0  0  0  0  0  0  0  0
   46.4430   28.7670   46.9620 H   0  0  0  0  0  0  0  0  0  0  0  0
   47.9490   29.0320   46.0090 H   0  0  0  0  0  0  0  0  0  0  0  0
  1  2  1  0  0  0  0
  2  7  1  0  0  0  0
  2  3  2  0  0  0  0
  3  8  1  0  0  0  0
  4  9  1  0  0  0  0
  4  3  1  0  0  0  0
  5  4  2  0  0  0  0
  6  1  2  0  0  0  0
  6  5  1  0  0  0  0
 10 21  1  0  0  0  0
 10 15  1  0  0  0  0
 11 10  2  0  0  0  0
 12 11  1  0  0  0  0
 12 13  2  0  0  0  0
 13 14  1  0  0  0  0
 14 15  2  0  0  0  0
 14 16  1  0  0  0  0
 16 17  1  0  0  0  0
 16 20  1  0  0  0  0
 17 18  2  0  0  0  0
 18  1  1  0  0  0  0
 18 19  1  0  0  0  0
 20 25  1  0  0  0  0
 20 19  2  0  0  0  0
 22 11  1  0  0  0  0
 23 12  1  0  0  0  0
 24 17  1  0  0  0  0
 26  5  1  0  0  0  0
 26 33  1  0  0  0  0
 27 26  2  0  0  0  0
 28 27  1  0  0  0  0
 28 30  2  0  0  0  0
 29 28  1  0  0  0  0
 30 31  1  0  0  0  0
 31 33  2  0  0  0  0
 31 32  1  0  0  0  0
 34 35  1  0  0  0  0
 34  6  1  0  0  0  0
 36 34  1  0  0  0  0
M  END
>  <minimizedAffinity>
-5.79618216

>  <minimizedRMSD>
0.561390102

$$$$
