
 OpenBabel03232520003D

 31 34  0  0  1  0  0  0  0  0999 V2000
   45.7120   34.0380   42.2670 N   0  0  0  0  0  0  0  0  0  0  0  0
   46.7120   34.5040   41.5600 C   0  0  0  0  0  0  0  0  0  0  0  0
   46.6090   34.0550   40.2500 C   0  0  0  0  0  0  0  0  0  0  0  0
   45.5040   33.2930   40.1870 N   0  0  0  0  0  0  0  0  0  0  0  0
   44.9450   33.2780   41.4270 C   0  0  0  0  0  0  0  0  0  0  0  0
   47.0900   34.1080   39.2930 H   0  0  0  0  0  0  0  0  0  0  0  0
   44.0280   32.7530   41.7360 H   0  0  0  0  0  0  0  0  0  0  0  0
   44.7280   35.4520   43.9160 C   0  0  0  0  0  0  0  0  0  0  0  0
   45.4150   34.2310   43.6180 C   0  0  0  0  0  0  0  0  0  0  0  0
   45.6980   33.4010   44.6800 C   0  0  0  0  0  0  0  0  0  0  0  0
   45.3210   33.7740   45.9230 N   0  0  0  0  0  0  0  0  0  0  0  0
   44.6720   34.9370   46.1640 C   0  0  0  0  0  0  0  0  0  0  0  0
   44.3780   35.7700   45.1660 N   0  0  0  0  0  0  0  0  0  0  0  0
   44.4530   36.1800   43.1670 H   0  0  0  0  0  0  0  0  0  0  0  0
   46.2070   32.5100   44.4010 H   0  0  0  0  0  0  0  0  0  0  0  0
   44.4680   35.0370   47.2070 H   0  0  0  0  0  0  0  0  0  0  0  0
   47.8480   35.3850   41.8670 C   0  0  2  0  0  0  0  0  0  0  0  0
   48.9530   35.5640   40.8600 C   0  0  0  0  0  0  0  0  0  0  0  0
   49.2410   34.7830   42.0570 C   0  0  2  0  0  0  0  0  0  0  0  0
   47.5830   36.2540   42.5010 H   0  0  0  0  0  0  0  0  0  0  0  0
   48.9130   35.1280   39.8580 H   0  0  0  0  0  0  0  0  0  0  0  0
   49.4400   36.5840   40.8300 H   0  0  0  0  0  0  0  0  0  0  0  0
   49.7280   35.3030   42.9480 H   0  0  0  0  0  0  0  0  0  0  0  0
   49.2260   33.3260   42.1770 C   0  0  0  0  0  0  0  0  0  0  0  0
   49.8220   32.6640   41.0930 C   0  0  0  0  0  0  0  0  0  0  0  0
   49.8980   31.2730   41.0080 C   0  0  0  0  0  0  0  0  0  0  0  0
   50.3650   30.7950   40.1590 H   0  0  0  0  0  0  0  0  0  0  0  0
   49.3760   30.4980   42.0090 C   0  0  0  0  0  0  0  0  0  0  0  0
   48.7850   31.1260   43.0850 C   0  0  0  0  0  0  0  0  0  0  0  0
   48.3670   30.5500   43.8850 H   0  0  0  0  0  0  0  0  0  0  0  0
   48.7230   32.5020   43.1440 C   0  0  0  0  0  0  0  0  0  0  0  0
  1  9  1  0  0  0  0
  2 17  1  0  0  0  0
  2  1  1  0  0  0  0
  3  2  2  0  0  0  0
  4  3  1  0  0  0  0
  4  5  2  0  0  0  0
  5  7  1  0  0  0  0
  5  1  1  0  0  0  0
  6  3  1  0  0  0  0
  8 13  1  0  0  0  0
  9  8  2  0  0  0  0
  9 10  1  0  0  0  0
 10 11  2  0  0  0  0
 11 12  1  0  0  0  0
 12 16  1  0  0  0  0
 13 12  2  0  0  0  0
 14  8  1  0  0  0  0
 15 10  1  0  0  0  0
 17 19  1  0  0  0  0
 17 20  1  1  0  0  0
 18 17  1  0  0  0  0
 18 19  1  0  0  0  0
 19 24  1  0  0  0  0
 19 23  1  1  0  0  0
 21 18  1  0  0  0  0
 22 18  1  0  0  0  0
 24 31  1  0  0  0  0
 25 24  2  0  0  0  0
 26 25  1  0  0  0  0
 26 28  2  0  0  0  0
 27 26  1  0  0  0  0
 28 29  1  0  0  0  0
 29 31  2  0  0  0  0
 29 30  1  0  0  0  0
M  END
>  <minimizedAffinity>
-4.94457245

>  <minimizedRMSD>
0.651781857

$$$$
