
 OpenBabel03232518303D

 29 32  0  0  0  0  0  0  0  0999 V2000
   45.1460   35.1850   44.1070 C   0  0  0  0  0  0  0  0  0  0  0  0
   46.2480   34.8220   43.3190 C   0  0  0  0  0  0  0  0  0  0  0  0
   47.1140   33.8310   43.8320 C   0  0  0  0  0  0  0  0  0  0  0  0
   46.8260   33.2850   45.0590 N   0  0  0  0  0  0  0  0  0  0  0  0
   45.7430   33.6850   45.7640 C   0  0  0  0  0  0  0  0  0  0  0  0
   44.9010   34.6230   45.3070 N   0  0  0  0  0  0  0  0  0  0  0  0
   44.4670   35.9480   43.7290 H   0  0  0  0  0  0  0  0  0  0  0  0
   46.4700   35.2430   42.3720 H   0  0  0  0  0  0  0  0  0  0  0  0
   48.2960   33.3490   43.1350 C   0  0  0  0  0  0  0  0  0  0  0  0
   49.3040   34.2430   42.9040 C   0  0  0  0  0  0  0  0  0  0  0  0
   50.4540   33.8460   42.2470 C   0  0  0  0  0  0  0  0  0  0  0  0
   51.2850   34.5180   42.0380 H   0  0  0  0  0  0  0  0  0  0  0  0
   50.6180   32.5420   41.8060 C   0  0  0  0  0  0  0  0  0  0  0  0
   49.5830   31.6810   42.0600 C   0  0  0  0  0  0  0  0  0  0  0  0
   49.6730   30.6610   41.7340 H   0  0  0  0  0  0  0  0  0  0  0  0
   48.4340   32.0590   42.7110 C   0  0  0  0  0  0  0  0  0  0  0  0
   45.4280   32.9340   47.3510 S   0  0  0  0  0  0  0  0  0  0  0  0
   48.6880   29.6320   48.8440 N   0  0  0  0  0  0  0  0  0  0  0  0
   48.8430   30.8550   49.3760 C   0  0  0  0  0  0  0  0  0  0  0  0
   47.8880   31.6660   48.8870 N   0  0  0  0  0  0  0  0  0  0  0  0
   47.1120   30.9700   48.0360 C   0  0  0  0  0  0  0  0  0  0  0  0
   45.9880   31.2340   47.2290 C   0  0  0  0  0  0  0  0  0  0  0  0
   45.4570   30.2610   46.4810 N   0  0  0  0  0  0  0  0  0  0  0  0
   46.0360   29.0210   46.5270 C   0  0  0  0  0  0  0  0  0  0  0  0
   47.1140   28.7060   47.2800 N   0  0  0  0  0  0  0  0  0  0  0  0
   47.6340   29.6860   48.0220 C   0  0  0  0  0  0  0  0  0  0  0  0
   49.2870   28.8090   49.0460 H   0  0  0  0  0  0  0  0  0  0  0  0
   49.6280   31.0970   50.0830 H   0  0  0  0  0  0  0  0  0  0  0  0
   45.5350   28.3040   45.8880 H   0  0  0  0  0  0  0  0  0  0  0  0
  1  6  1  0  0  0  0
  2  3  1  0  0  0  0
  2  1  2  0  0  0  0
  3  4  2  0  0  0  0
  4  5  1  0  0  0  0
  5 17  1  0  0  0  0
  6  5  2  0  0  0  0
  7  1  1  0  0  0  0
  8  2  1  0  0  0  0
  9  3  1  0  0  0  0
 10  9  1  0  0  0  0
 11 10  2  0  0  0  0
 12 11  1  0  0  0  0
 13 14  2  0  0  0  0
 13 11  1  0  0  0  0
 14 16  1  0  0  0  0
 15 14  1  0  0  0  0
 16  9  2  0  0  0  0
 18 27  1  0  0  0  0
 18 19  1  0  0  0  0
 19 28  1  0  0  0  0
 20 19  2  0  0  0  0
 21 20  1  0  0  0  0
 22 17  1  0  0  0  0
 22 21  2  0  0  0  0
 23 24  2  0  0  0  0
 23 22  1  0  0  0  0
 24 25  1  0  0  0  0
 25 26  2  0  0  0  0
 26 21  1  0  0  0  0
 26 18  1  0  0  0  0
 29 24  1  0  0  0  0
M  END
>  <minimizedAffinity>
-5.74905014

>  <minimizedRMSD>
0.561537027

$$$$
