
     RDKit          3D

 43 46  0  0  0  0  0  0  0  0999 V2000
   46.4116   34.6672   42.1797 C   0  0  0  0  0  0  0  0  0  0  0  0
   47.7189   35.0241   42.0428 C   0  0  0  0  0  0  0  0  0  0  0  0
   48.4231   34.8241   40.8442 C   0  0  0  0  0  0  0  0  0  0  0  0
   47.7715   34.2431   39.7561 C   0  0  0  0  0  0  0  0  0  0  0  0
   46.4558   33.8845   39.8956 C   0  0  0  0  0  0  0  0  0  0  0  0
   45.7910   34.0989   41.1005 C   0  0  0  0  0  0  0  0  0  0  0  0
   44.4276   33.7141   41.2038 N   0  0  0  0  0  0  0  0  0  0  0  0
   43.6172   34.6799   40.6650 C   0  0  0  0  0  0  0  0  0  0  0  0
   42.2256   34.5071   40.6600 C   0  0  0  0  0  0  0  0  0  0  0  0
   41.3050   35.5249   40.0878 C   0  0  0  0  0  0  0  0  0  0  0  0
   41.7196   33.3370   41.2145 C   0  0  0  0  0  0  0  0  0  0  0  0
   40.4822   33.1255   41.2392 O   0  0  0  0  0  0  0  0  0  0  0  0
   42.5641   32.4200   41.7311 N   0  0  0  0  0  0  0  0  0  0  0  0
   43.8901   32.6030   41.7266 C   0  0  0  0  0  0  0  0  0  0  0  0
   44.7452   31.8148   42.1792 O   0  0  0  0  0  0  0  0  0  0  0  0
   44.4236   36.1399   45.0104 C   0  0  0  0  0  0  0  0  0  0  0  0
   44.9883   36.0237   43.7436 C   0  0  0  0  0  0  0  0  0  0  0  0
   45.7695   34.9109   43.4488 C   0  0  0  0  0  0  0  0  0  0  0  0
   45.9340   34.0022   44.4190 N   0  0  0  0  0  0  0  0  0  0  0  0
   45.3741   34.1319   45.6528 C   0  0  0  0  0  0  0  0  0  0  0  0
   44.6237   35.1980   45.9402 N   0  0  0  0  0  0  0  0  0  0  0  0
   48.2873   35.4775   42.8388 H   0  0  0  0  0  0  0  0  0  0  0  0
   49.4516   35.1030   40.7310 H   0  0  0  0  0  0  0  0  0  0  0  0
   48.2632   34.0630   38.8029 H   0  0  0  0  0  0  0  0  0  0  0  0
   45.9276   33.4322   39.0670 H   0  0  0  0  0  0  0  0  0  0  0  0
   43.9246   35.5951   40.2254 H   0  0  0  0  0  0  0  0  0  0  0  0
   40.3975   35.6978   40.6849 H   0  0  0  0  0  0  0  0  0  0  0  0
   40.9872   35.2076   39.0668 H   0  0  0  0  0  0  0  0  0  0  0  0
   41.9071   36.4583   39.9050 H   0  0  0  0  0  0  0  0  0  0  0  0
   42.1960   31.5582   42.1398 H   0  0  0  0  0  0  0  0  0  0  0  0
   43.8248   37.0331   45.1749 H   0  0  0  0  0  0  0  0  0  0  0  0
   44.8546   36.7557   42.9654 H   0  0  0  0  0  0  0  0  0  0  0  0
   45.5959   33.0989   46.6667 C   0  0  0  0  0  0  0  0  0  0  0  0
   44.9233   31.8868   46.5638 C   0  0  0  0  0  0  0  0  0  0  0  0
   45.0902   30.8798   47.4836 C   0  0  0  0  0  0  0  0  0  0  0  0
   44.5417   29.9364   47.3689 H   0  0  0  0  0  0  0  0  0  0  0  0
   45.9550   31.0904   48.5381 C   0  0  0  0  0  0  0  0  0  0  0  0
   46.6293   32.2910   48.6512 C   0  0  0  0  0  0  0  0  0  0  0  0
   47.3136   32.4748   49.4738 H   0  0  0  0  0  0  0  0  0  0  0  0
   46.4518   33.3083   47.7095 C   0  0  0  0  0  0  0  0  0  0  0  0
   44.2250   31.6772   45.7393 H   0  0  0  0  0  0  0  0  0  0  0  0
   46.0811   30.2869   49.2624 H   0  0  0  0  0  0  0  0  0  0  0  0
   46.9771   34.2447   47.7971 H   0  0  0  0  0  0  0  0  0  0  0  0
  1 18  1  0
  2  1  2  0
  3  2  1  0
  4  5  1  0
  4  3  2  0
  5  6  2  0
  6  7  1  0
  6  1  1  0
  7 14  1  0
  8  7  1  0
  9  8  2  0
  9 11  1  0
 10  9  1  0
 11 12  2  0
 11 13  1  0
 14 13  1  0
 14 15  2  0
 16 21  2  0
 17 16  1  0
 18 17  2  0
 18 19  1  0
 19 20  2  0
 20 21  1  0
  2 22  1  0
  3 23  1  0
  4 24  1  0
  5 25  1  0
  8 26  1  0
 10 27  1  0
 10 28  1  0
 10 29  1  0
 13 30  1  0
 16 31  1  0
 17 32  1  0
 33 34  2  0
 34 35  1  0
 35 36  1  0
 35 37  2  0
 37 38  1  0
 38 39  1  0
 38 40  2  0
 40 33  1  0
 34 41  1  0
 37 42  1  0
 40 43  1  0
 20 33  1  0
M  ISO  8  22  14  23  14  24  14  25  14  26  14  27   8  28   8  29   8
M  ISO  5  30   9  31  14  32  14  36  16  39  16
M  END
>  <DihAtoms>  (1) 
18,19,32,33

>  <DihDeg>  (1) 
-0.0010632477452821511

$$$$
