
 OpenBabel03232520473D

 40 43  0  0  0  0  0  0  0  0999 V2000
   46.5560   34.4610   42.4570 C   0  0  0  0  0  0  0  0  0  0  0  0
   47.8610   34.8300   42.3330 C   0  0  0  0  0  0  0  0  0  0  0  0
   48.5250   34.8110   41.0960 C   0  0  0  0  0  0  0  0  0  0  0  0
   47.8360   34.4020   39.9550 C   0  0  0  0  0  0  0  0  0  0  0  0
   46.5220   34.0310   40.0820 C   0  0  0  0  0  0  0  0  0  0  0  0
   45.8970   34.0640   41.3250 C   0  0  0  0  0  0  0  0  0  0  0  0
   48.4570   35.1560   43.1700 H   0  0  0  0  0  0  0  0  0  0  0  0
   49.5530   35.1000   40.9930 H   0  0  0  0  0  0  0  0  0  0  0  0
   48.2950   34.3660   38.9700 H   0  0  0  0  0  0  0  0  0  0  0  0
   45.9650   33.7100   39.2110 H   0  0  0  0  0  0  0  0  0  0  0  0
   44.5350   33.6720   41.4140 N   0  0  0  0  0  0  0  0  0  0  0  0
   43.7190   34.6790   40.9670 C   0  0  0  0  0  0  0  0  0  0  0  0
   42.3270   34.5080   40.9650 C   0  0  0  0  0  0  0  0  0  0  0  0
   41.8270   33.2960   41.4270 C   0  0  0  0  0  0  0  0  0  0  0  0
   40.5890   33.0840   41.4490 O   0  0  0  0  0  0  0  0  0  0  0  0
   42.6760   32.3390   41.8550 N   0  0  0  0  0  0  0  0  0  0  0  0
   44.0020   32.5220   41.8500 C   0  0  0  0  0  0  0  0  0  0  0  0
   44.8620   31.6990   42.2250 O   0  0  0  0  0  0  0  0  0  0  0  0
   44.0220   35.6270   40.6000 H   0  0  0  0  0  0  0  0  0  0  0  0
   42.3120   31.4470   42.1960 H   0  0  0  0  0  0  0  0  0  0  0  0
   41.4010   35.5700   40.4900 C   0  0  0  0  0  0  0  0  0  0  0  0
   40.5010   35.6930   41.1110 H   0  0  0  0  0  0  0  0  0  0  0  0
   41.0700   35.3380   39.4510 H   0  0  0  0  0  0  0  0  0  0  0  0
   42.0020   36.5140   40.3770 H   0  0  0  0  0  0  0  0  0  0  0  0
   44.5260   35.4040   45.4770 C   0  0  0  0  0  0  0  0  0  0  0  0
   45.0290   35.4650   44.1820 C   0  0  0  0  0  0  0  0  0  0  0  0
   45.9560   34.5130   43.7690 C   0  0  0  0  0  0  0  0  0  0  0  0
   46.3130   33.5780   44.6590 N   0  0  0  0  0  0  0  0  0  0  0  0
   45.8100   33.5330   45.9230 C   0  0  0  0  0  0  0  0  0  0  0  0
   44.9210   34.4450   46.3230 N   0  0  0  0  0  0  0  0  0  0  0  0
   43.8060   36.1780   45.7360 H   0  0  0  0  0  0  0  0  0  0  0  0
   44.7410   36.2180   43.4680 H   0  0  0  0  0  0  0  0  0  0  0  0
   46.2460   32.4820   46.8440 C   0  0  0  0  0  0  0  0  0  0  0  0
   45.6110   31.2460   46.8170 C   0  0  0  0  0  3  0  0  0  0  0  0
   45.9750   30.2210   47.6570 C   0  0  0  0  0  0  0  0  0  0  0  0
   45.4510   29.2580   47.6060 H   0  0  0  0  0  0  0  0  0  0  0  0
   47.0040   30.4370   48.5500 C   0  0  0  0  0  3  0  0  0  0  0  0
   47.6430   31.6620   48.5860 C   0  0  0  0  0  0  0  0  0  0  0  0
   48.4550   31.8520   49.2820 H   0  0  0  0  0  0  0  0  0  0  0  0
   47.2640   32.6970   47.7270 C   0  0  0  0  0  3  0  0  0  0  0  0
  1 27  1  0  0  0  0
  2  1  1  0  0  0  0
  2  7  1  0  0  0  0
  3  2  2  0  0  0  0
  4  5  2  0  0  0  0
  4  3  1  0  0  0  0
  5  6  1  0  0  0  0
  6 11  1  0  0  0  0
  6  1  2  0  0  0  0
  8  3  1  0  0  0  0
  9  4  1  0  0  0  0
 10  5  1  0  0  0  0
 11 17  1  0  0  0  0
 12 11  1  0  0  0  0
 13 12  2  0  0  0  0
 13 14  1  0  0  0  0
 14 15  2  0  0  0  0
 14 16  1  0  0  0  0
 16 20  1  0  0  0  0
 17 16  1  0  0  0  0
 17 18  2  0  0  0  0
 19 12  1  0  0  0  0
 21 13  1  0  0  0  0
 21 22  1  0  0  0  0
 23 21  1  0  0  0  0
 24 21  1  0  0  0  0
 25 31  1  0  0  0  0
 25 30  1  0  0  0  0
 26 25  2  0  0  0  0
 27 26  1  0  0  0  0
 27 28  2  0  0  0  0
 28 29  1  0  0  0  0
 29 30  2  0  0  0  0
 29 33  1  0  0  0  0
 32 26  1  0  0  0  0
 33 40  1  0  0  0  0
 34 33  2  0  0  0  0
 34 35  1  0  0  0  0
 35 37  2  0  0  0  0
 36 35  1  0  0  0  0
 37 38  1  0  0  0  0
 38 39  1  0  0  0  0
 40 38  2  0  0  0  0
M  END
>  <minimizedAffinity>
-7.36798573

>  <minimizedRMSD>
0.655265927

$$$$
