
 OpenBabel03232517183D

 45 50  0  0  1  0  0  0  0  0999 V2000
   46.2600   32.8420   46.7720 C   0  0  0  0  0  0  0  0  0  0  0  0
   45.4230   32.7390   47.8650 C   0  0  0  0  0  0  0  0  0  0  0  0
   46.1050   31.9250   48.7640 C   0  0  0  0  0  0  0  0  0  0  0  0
   47.2950   31.5820   48.1860 C   0  0  0  0  0  0  0  0  0  0  0  0
   47.3260   32.1520   47.0180 O   0  0  0  0  0  0  0  0  0  0  0  0
   44.4850   33.2290   47.8840 H   0  0  0  0  0  0  0  0  0  0  0  0
   45.6960   31.6600   49.7280 H   0  0  0  0  0  0  0  0  0  0  0  0
   46.6410   34.1510   43.4720 C   0  0  0  0  0  0  0  0  0  0  0  0
   45.5120   34.8220   43.9160 C   0  0  0  0  0  0  0  0  0  0  0  0
   45.2280   34.4080   45.2240 C   0  0  0  0  0  0  0  0  0  0  0  0
   46.1900   33.5040   45.5280 N   0  0  0  0  0  0  0  0  0  0  0  0
   47.0270   33.3420   44.5120 N   0  0  0  0  0  0  0  0  0  0  0  0
   44.9210   35.5530   43.3690 H   0  0  0  0  0  0  0  0  0  0  0  0
   44.4040   34.7600   45.8270 H   0  0  0  0  0  0  0  0  0  0  0  0
   48.6970   35.4470   40.7220 C   0  0  0  0  0  0  0  0  0  0  0  0
   48.1770   34.7660   39.6260 C   0  0  0  0  0  0  0  0  0  0  0  0
   47.1230   33.8670   39.8370 C   0  0  0  0  0  0  0  0  0  0  0  0
   46.6390   33.6840   41.1130 N   0  0  0  0  0  0  0  0  0  0  0  0
   47.1870   34.3750   42.1340 C   0  0  0  0  0  0  0  0  0  0  0  0
   48.1950   35.2440   41.9710 N   0  0  0  0  0  0  0  0  0  0  0  0
   49.5070   36.1580   40.6500 H   0  0  0  0  0  0  0  0  0  0  0  0
   48.5930   34.9440   38.6390 H   0  0  0  0  0  0  0  0  0  0  0  0
   46.6990   33.3240   39.0020 H   0  0  0  0  0  0  0  0  0  0  0  0
   48.2820   30.7510   48.7960 N   0  0  0  0  0  0  0  0  0  0  0  0
   49.1760   30.9710   49.8250 C   0  0  0  0  0  0  0  0  0  0  0  0
   49.9000   29.8080   49.9940 C   0  0  0  0  0  0  0  0  0  0  0  0
   49.4440   28.9120   49.0800 N   0  0  0  0  0  0  0  0  0  0  0  0
   48.4670   29.4870   48.3600 C   0  0  0  0  0  0  0  0  0  0  0  0
   49.1760   31.9480   50.3100 H   0  0  0  0  0  0  0  0  0  0  0  0
   50.6690   29.7740   50.7690 H   0  0  0  0  0  0  0  0  0  0  0  0
   47.7320   28.7720   47.2580 C   0  0  1  0  0  0  0  0  0  0  0  0
   47.4670   27.2540   47.5720 C   0  0  0  0  0  0  0  0  0  0  0  0
   46.3860   28.2680   47.4530 C   0  0  2  0  0  0  0  0  0  0  0  0
   48.1310   28.9390   46.2250 H   0  0  0  0  0  0  0  0  0  0  0  0
   47.6870   26.9430   48.6140 H   0  0  0  0  0  0  0  0  0  0  0  0
   47.6770   26.5490   46.7470 H   0  0  0  0  0  0  0  0  0  0  0  0
   45.8140   28.5710   48.3530 H   0  0  0  0  0  0  0  0  0  0  0  0
   45.5280   28.0860   46.2480 C   0  0  0  0  0  0  0  0  0  0  0  0
   45.9890   27.4150   45.1310 C   0  0  0  0  0  0  0  0  0  0  0  0
   45.1970   27.2430   44.0060 C   0  0  0  0  0  0  0  0  0  0  0  0
   45.5530   26.7130   43.1170 H   0  0  0  0  0  0  0  0  0  0  0  0
   43.9080   27.7410   43.9660 C   0  0  0  0  0  0  0  0  0  0  0  0
   43.4110   28.4240   45.0810 C   0  0  0  0  0  0  0  0  0  0  0  0
   42.4190   28.8540   45.1570 H   0  0  0  0  0  0  0  0  0  0  0  0
   44.2330   28.5740   46.1810 C   0  0  0  0  0  0  0  0  0  0  0  0
  1  5  1  0  0  0  0
  1  2  2  0  0  0  0
  2  6  1  0  0  0  0
  2  3  1  0  0  0  0
  3  7  1  0  0  0  0
  4  3  2  0  0  0  0
  4 24  1  0  0  0  0
  5  4  1  0  0  0  0
  8  9  1  0  0  0  0
  8 12  2  0  0  0  0
  9 10  2  0  0  0  0
 10 11  1  0  0  0  0
 10 14  1  0  0  0  0
 11  1  1  0  0  0  0
 12 11  1  0  0  0  0
 13  9  1  0  0  0  0
 15 20  1  0  0  0  0
 16 17  1  0  0  0  0
 16 15  2  0  0  0  0
 17 18  2  0  0  0  0
 18 19  1  0  0  0  0
 19  8  1  0  0  0  0
 20 19  2  0  0  0  0
 21 15  1  0  0  0  0
 22 16  1  0  0  0  0
 23 17  1  0  0  0  0
 24 25  1  0  0  0  0
 25 26  2  0  0  0  0
 25 29  1  0  0  0  0
 26 30  1  0  0  0  0
 27 26  1  0  0  0  0
 28 24  1  0  0  0  0
 28 27  2  0  0  0  0
 31 34  1  6  0  0  0
 31 33  1  0  0  0  0
 31 32  1  0  0  0  0
 31 28  1  0  0  0  0
 32 35  1  0  0  0  0
 33 32  1  0  0  0  0
 33 37  1  1  0  0  0
 36 32  1  0  0  0  0
 38 33  1  0  0  0  0
 39 38  2  0  0  0  0
 40 39  1  0  0  0  0
 41 40  1  0  0  0  0
 42 40  2  0  0  0  0
 42 43  1  0  0  0  0
 43 44  1  0  0  0  0
 43 45  2  0  0  0  0
 45 38  1  0  0  0  0
M  END
>  <minimizedAffinity>
-6.13640165

>  <minimizedRMSD>
0.619868398

$$$$
