
 OpenBabel03232520583D

 38 40  0  0  1  0  0  0  0  0999 V2000
   45.3660   32.8980   47.5110 C   0  0  0  0  0  0  0  0  0  0  0  0
   45.9230   32.6460   46.2970 C   0  0  0  0  0  0  0  0  0  0  0  0
   46.1920   31.2970   46.0500 C   0  0  0  0  0  0  0  0  0  0  0  0
   45.9270   30.3010   46.9340 N   0  0  0  0  0  0  0  0  0  0  0  0
   45.3570   30.6080   48.1610 C   0  0  0  0  0  0  0  0  0  0  0  0
   45.0940   31.8850   48.4170 N   0  0  0  0  0  0  0  0  0  0  0  0
   45.0760   29.5940   49.1050 N   0  0  0  0  0  0  0  0  0  0  0  0
   45.1210   33.9060   47.8090 H   0  0  0  0  0  0  0  0  0  0  0  0
   45.3940   29.6350   50.1160 H   0  0  0  0  0  0  0  0  0  0  0  0
   44.5310   28.7410   48.8390 H   0  0  0  0  0  0  0  0  0  0  0  0
   46.1730   33.6010   45.2720 C   0  0  2  0  0  0  0  0  0  0  0  0
   44.9540   34.6860   45.5000 C   0  0  0  0  0  0  0  0  0  0  0  0
   44.7150   35.6140   44.4320 C   0  0  0  0  0  0  0  0  0  0  0  0
   45.5200   35.5510   43.2110 C   0  0  1  0  0  0  0  0  0  0  0  0
   46.5880   34.5530   43.1580 C   0  0  0  0  0  0  0  0  0  0  0  0
   46.1470   33.3170   43.9090 C   0  0  0  0  0  0  0  0  0  0  0  0
   46.9940   34.3060   45.6050 H   0  0  0  0  0  0  0  0  0  0  0  0
   44.2710   34.8380   46.3260 H   0  0  0  0  0  0  0  0  0  0  0  0
   43.9410   36.3300   44.5360 H   0  0  0  0  0  0  0  0  0  0  0  0
   45.9470   36.5550   42.9980 H   0  0  0  0  0  0  0  0  0  0  0  0
   46.7520   34.3080   42.0670 H   0  0  0  0  0  0  0  0  0  0  0  0
   47.5960   34.8770   43.5020 H   0  0  0  0  0  0  0  0  0  0  0  0
   45.1960   32.9690   43.4550 H   0  0  0  0  0  0  0  0  0  0  0  0
   47.0090   32.6750   43.5840 H   0  0  0  0  0  0  0  0  0  0  0  0
   44.5130   35.2740   42.0520 C   0  0  0  0  0  0  0  0  0  0  0  0
   43.4590   34.4710   42.4440 F   0  0  0  0  0  0  0  0  0  0  0  0
   43.9580   36.5070   41.7140 F   0  0  0  0  0  0  0  0  0  0  0  0
   45.1950   34.8180   40.9400 F   0  0  0  0  0  0  0  0  0  0  0  0
   46.8310   30.6100   44.9440 C   0  0  0  0  0  0  0  0  0  0  0  0
   46.4910   29.8690   43.8580 C   0  0  0  0  0  0  0  0  0  0  0  0
   47.6640   29.4670   43.2110 C   0  0  0  0  0  0  0  0  0  0  0  0
   48.6610   29.9830   43.9340 N   0  0  0  0  0  0  0  0  0  0  0  0
   48.1950   30.6590   44.9580 N   0  0  0  0  0  0  0  0  0  0  0  0
   45.4440   29.7140   43.6750 H   0  0  0  0  0  0  0  0  0  0  0  0
   47.6260   28.8630   42.3150 H   0  0  0  0  0  0  0  0  0  0  0  0
   50.0760   29.7870   43.5790 C   0  0  0  0  0  3  0  0  0  0  0  0
   50.1880   28.8810   42.3800 C   0  0  0  0  0  1  0  0  0  0  0  0
   50.7630   29.0550   44.7390 C   0  0  0  0  0  1  0  0  0  0  0  0
  1  8  1  0  0  0  0
  1  6  1  0  0  0  0
  2  1  2  0  0  0  0
  3  2  1  0  0  0  0
  3  4  2  0  0  0  0
  4  5  1  0  0  0  0
  5  6  2  0  0  0  0
  5  7  1  0  0  0  0
  7  9  1  0  0  0  0
 10  7  1  0  0  0  0
 11 12  1  0  0  0  0
 11 17  1  1  0  0  0
 11  2  1  0  0  0  0
 12 18  1  0  0  0  0
 13 19  1  0  0  0  0
 13 12  2  0  0  0  0
 14 20  1  6  0  0  0
 14 13  1  0  0  0  0
 15 14  1  0  0  0  0
 15 22  1  0  0  0  0
 15 16  1  0  0  0  0
 16 11  1  0  0  0  0
 21 15  1  0  0  0  0
 23 16  1  0  0  0  0
 24 16  1  0  0  0  0
 25 26  1  0  0  0  0
 25 14  1  0  0  0  0
 27 25  1  0  0  0  0
 28 25  1  0  0  0  0
 29 33  2  0  0  0  0
 29  3  1  0  0  0  0
 30 29  1  0  0  0  0
 31 30  2  0  0  0  0
 31 32  1  0  0  0  0
 32 33  1  0  0  0  0
 34 30  1  0  0  0  0
 35 31  1  0  0  0  0
 36 32  1  0  0  0  0
 36 38  1  0  0  0  0
 37 36  1  0  0  0  0
M  END
>  <minimizedAffinity>
-5.53669882

>  <minimizedRMSD>
0.466560155

$$$$
