
 OpenBabel03232520593D

 38 40  0  0  1  0  0  0  0  0999 V2000
   45.3950   32.8810   47.5080 C   0  0  0  0  0  0  0  0  0  0  0  0
   45.9300   32.6310   46.2840 C   0  0  0  0  0  0  0  0  0  0  0  0
   46.1760   31.2810   46.0210 C   0  0  0  0  0  0  0  0  0  0  0  0
   45.9100   30.2810   46.9010 N   0  0  0  0  0  0  0  0  0  0  0  0
   45.3630   30.5860   48.1390 C   0  0  0  0  0  0  0  0  0  0  0  0
   45.1220   31.8640   48.4100 N   0  0  0  0  0  0  0  0  0  0  0  0
   45.0820   29.5680   49.0780 N   0  0  0  0  0  0  0  0  0  0  0  0
   45.1690   33.8900   47.8190 H   0  0  0  0  0  0  0  0  0  0  0  0
   45.4150   29.5950   50.0850 H   0  0  0  0  0  0  0  0  0  0  0  0
   44.5210   28.7250   48.8140 H   0  0  0  0  0  0  0  0  0  0  0  0
   46.1780   33.5920   45.2640 C   0  0  2  0  0  0  0  0  0  0  0  0
   44.9580   34.6740   45.4970 C   0  0  0  0  0  0  0  0  0  0  0  0
   44.7170   35.6070   44.4330 C   0  0  0  0  0  0  0  0  0  0  0  0
   45.5220   35.5510   43.2120 C   0  0  1  0  0  0  0  0  0  0  0  0
   46.5920   34.5540   43.1540 C   0  0  0  0  0  0  0  0  0  0  0  0
   46.1520   33.3140   43.8990 C   0  0  0  0  0  0  0  0  0  0  0  0
   46.9990   34.2960   45.6000 H   0  0  0  0  0  0  0  0  0  0  0  0
   44.2750   34.8210   46.3250 H   0  0  0  0  0  0  0  0  0  0  0  0
   43.9430   36.3210   44.5410 H   0  0  0  0  0  0  0  0  0  0  0  0
   45.9480   36.5560   43.0040 H   0  0  0  0  0  0  0  0  0  0  0  0
   46.7550   34.3150   42.0620 H   0  0  0  0  0  0  0  0  0  0  0  0
   47.5990   34.8780   43.4990 H   0  0  0  0  0  0  0  0  0  0  0  0
   45.2020   32.9670   43.4440 H   0  0  0  0  0  0  0  0  0  0  0  0
   47.0160   32.6750   43.5710 H   0  0  0  0  0  0  0  0  0  0  0  0
   44.5150   35.2770   42.0520 C   0  0  0  0  0  0  0  0  0  0  0  0
   43.4620   34.4720   42.4410 F   0  0  0  0  0  0  0  0  0  0  0  0
   43.9600   36.5110   41.7200 F   0  0  0  0  0  0  0  0  0  0  0  0
   45.1970   34.8260   40.9380 F   0  0  0  0  0  0  0  0  0  0  0  0
   46.7880   30.5950   44.9010 C   0  0  0  0  0  0  0  0  0  0  0  0
   46.4220   29.8660   43.8150 C   0  0  0  0  0  0  0  0  0  0  0  0
   47.5790   29.4550   43.1460 C   0  0  0  0  0  0  0  0  0  0  0  0
   48.5930   29.9540   43.8560 N   0  0  0  0  0  0  0  0  0  0  0  0
   48.1530   30.6270   44.8930 N   0  0  0  0  0  0  0  0  0  0  0  0
   45.3700   29.7250   43.6480 H   0  0  0  0  0  0  0  0  0  0  0  0
   47.5190   28.8580   42.2470 H   0  0  0  0  0  0  0  0  0  0  0  0
   50.0000   29.7430   43.4760 C   0  0  0  0  0  3  0  0  0  0  0  0
   50.4990   30.9090   42.6640 C   0  0  0  0  0  1  0  0  0  0  0  0
   50.0690   28.5160   42.5580 C   0  0  0  0  0  1  0  0  0  0  0  0
  1  8  1  0  0  0  0
  1  6  1  0  0  0  0
  2  1  2  0  0  0  0
  3  2  1  0  0  0  0
  3  4  2  0  0  0  0
  4  5  1  0  0  0  0
  5  6  2  0  0  0  0
  5  7  1  0  0  0  0
  7  9  1  0  0  0  0
 10  7  1  0  0  0  0
 11 12  1  0  0  0  0
 11 17  1  1  0  0  0
 11  2  1  0  0  0  0
 12 18  1  0  0  0  0
 13 19  1  0  0  0  0
 13 12  2  0  0  0  0
 14 20  1  6  0  0  0
 14 13  1  0  0  0  0
 15 14  1  0  0  0  0
 15 22  1  0  0  0  0
 15 16  1  0  0  0  0
 16 11  1  0  0  0  0
 21 15  1  0  0  0  0
 23 16  1  0  0  0  0
 24 16  1  0  0  0  0
 25 26  1  0  0  0  0
 25 14  1  0  0  0  0
 27 25  1  0  0  0  0
 28 25  1  0  0  0  0
 29  3  1  0  0  0  0
 30 29  1  0  0  0  0
 31 30  2  0  0  0  0
 31 32  1  0  0  0  0
 32 33  1  0  0  0  0
 33 29  2  0  0  0  0
 34 30  1  0  0  0  0
 35 31  1  0  0  0  0
 36 32  1  0  0  0  0
 37 36  1  0  0  0  0
 38 36  1  0  0  0  0
M  END
>  <minimizedAffinity>
-5.58392811

>  <minimizedRMSD>
0.291417271

$$$$
