
 OpenBabel03232520083D

 23 25  0  0  0  0  0  0  0  0999 V2000
   45.8060   33.1990   45.9880 C   0  0  0  0  0  0  0  0  0  0  0  0
   45.4040   33.1000   47.3030 C   0  0  0  0  0  0  0  0  0  0  0  0
   46.0530   32.2560   48.1420 C   0  0  0  0  0  0  0  0  0  0  0  0
   47.1080   31.5350   47.5830 C   0  0  0  0  0  0  0  0  0  0  0  0
   47.1610   32.0650   45.8790 S   0  0  0  0  0  0  0  0  0  0  0  0
   44.5620   33.7190   47.6210 H   0  0  0  0  0  0  0  0  0  0  0  0
   45.8240   32.1060   49.1660 H   0  0  0  0  0  0  0  0  0  0  0  0
   44.4210   36.0380   44.1270 C   0  0  0  0  0  0  0  0  0  0  0  0
   44.2990   35.4840   42.8270 C   0  0  0  0  0  0  0  0  0  0  0  0
   44.6970   34.1450   42.6280 C   0  0  0  0  0  0  0  0  0  0  0  0
   45.1860   33.4430   43.7020 N   0  0  0  0  0  0  0  0  0  0  0  0
   45.2840   34.0120   44.9210 C   0  0  0  0  0  0  0  0  0  0  0  0
   44.9070   35.2910   45.1330 N   0  0  0  0  0  0  0  0  0  0  0  0
   44.1020   37.0540   44.2120 H   0  0  0  0  0  0  0  0  0  0  0  0
   43.9210   36.0010   41.9580 H   0  0  0  0  0  0  0  0  0  0  0  0
   44.6560   33.6190   41.7060 H   0  0  0  0  0  0  0  0  0  0  0  0
   47.9640   30.5810   48.2190 N   0  0  0  0  0  0  0  0  0  0  0  0
   48.2050   29.2060   47.8580 C   0  0  0  0  0  0  0  0  0  0  0  0
   49.6870   28.8880   47.7860 C   0  0  0  0  0  0  0  0  0  0  0  0
   50.4690   29.6160   48.8540 C   0  0  0  0  0  0  0  0  0  0  0  0
   51.3210   29.0140   49.2410 H   0  0  0  0  0  0  0  0  0  0  0  0
   49.5480   30.1010   49.9710 C   0  0  0  0  0  0  0  0  0  0  0  0
   48.6480   31.1370   49.3690 C   0  0  0  0  0  0  0  0  0  0  0  0
  1  2  2  0  0  0  0
  2  6  1  0  0  0  0
  2  3  1  0  0  0  0
  3  7  1  0  0  0  0
  4  3  2  0  0  0  0
  4 17  1  0  0  0  0
  5  1  1  0  0  0  0
  5  4  1  0  0  0  0
  8 14  1  0  0  0  0
  8 13  1  0  0  0  0
  9  8  2  0  0  0  0
 10  9  1  0  0  0  0
 10 11  2  0  0  0  0
 11 12  1  0  0  0  0
 12 13  2  0  0  0  0
 12  1  1  0  0  0  0
 15  9  1  0  0  0  0
 16 10  1  0  0  0  0
 17 23  1  0  0  0  0
 18 17  1  0  0  0  0
 19 18  1  0  0  0  0
 19 20  1  0  0  0  0
 20 21  1  0  0  0  0
 20 22  1  0  0  0  0
 23 22  1  0  0  0  0
M  END
>  <minimizedAffinity>
-4.57045221

>  <minimizedRMSD>
1.2388016

$$$$
