
 OpenBabel03232520393D

 22 23  0  0  0  0  0  0  0  0999 V2000
   43.9430   35.6850   42.4490 C   0  0  0  0  0  0  0  0  0  0  0  0
   43.2290   35.1460   41.3680 C   0  0  0  0  0  0  0  0  0  0  0  0
   43.9180   34.3500   40.4830 C   0  0  0  0  0  0  0  0  0  0  0  0
   45.2560   34.0880   40.6470 N   0  0  0  0  0  0  0  0  0  0  0  0
   45.8920   34.6440   41.7230 C   0  0  0  0  0  0  0  0  0  0  0  0
   45.2440   35.4210   42.5960 N   0  0  0  0  0  0  0  0  0  0  0  0
   43.3760   36.3120   43.1350 H   0  0  0  0  0  0  0  0  0  0  0  0
   43.4770   33.8840   39.6190 H   0  0  0  0  0  0  0  0  0  0  0  0
   47.3170   34.4190   41.9760 C   0  0  0  0  0  0  0  0  0  0  0  0
   48.2090   35.4480   41.8760 C   0  0  0  0  0  0  0  0  0  0  0  0
   49.5670   35.2970   42.1020 C   0  0  0  0  0  0  0  0  0  0  0  0
   50.0570   34.0380   42.4500 C   0  0  0  0  0  0  0  0  0  0  0  0
   49.1280   33.0220   42.5420 C   0  0  0  0  0  0  0  0  0  0  0  0
   47.8090   33.2100   42.3140 N   0  0  0  0  0  0  0  0  0  0  0  0
   47.8260   36.4340   41.6040 H   0  0  0  0  0  0  0  0  0  0  0  0
   50.2530   36.1300   42.0160 H   0  0  0  0  0  0  0  0  0  0  0  0
   51.0920   33.8440   42.6400 H   0  0  0  0  0  0  0  0  0  0  0  0
   49.4650   32.0120   42.8130 H   0  0  0  0  0  0  0  0  0  0  0  0
   41.4740   35.4560   41.0950 S   0  0  0  0  0  0  0  0  0  0  0  0
   40.9600   34.7690   39.5140 C   0  0  0  0  0  0  0  0  0  0  0  0
   39.4800   34.4570   39.5800 C   0  0  0  0  0  0  0  0  0  0  0  0
   41.2540   35.7380   38.3900 C   0  0  0  0  0  0  0  0  0  0  0  0
  1  6  1  0  0  0  0
  1  7  1  0  0  0  0
  2  1  2  0  0  0  0
  3  4  2  0  0  0  0
  3  2  1  0  0  0  0
  4  5  1  0  0  0  0
  5  9  1  0  0  0  0
  5  6  2  0  0  0  0
  8  3  1  0  0  0  0
  9 14  1  0  0  0  0
 10  9  2  0  0  0  0
 10 11  1  0  0  0  0
 11 12  2  0  0  0  0
 12 13  1  0  0  0  0
 12 17  1  0  0  0  0
 13 18  1  0  0  0  0
 14 13  2  0  0  0  0
 15 10  1  0  0  0  0
 16 11  1  0  0  0  0
 19  2  1  0  0  0  0
 20 21  1  0  0  0  0
 20 19  1  0  0  0  0
 22 20  1  0  0  0  0
M  END
>  <minimizedAffinity>
-4.87971735

>  <minimizedRMSD>
0.540939867

$$$$
