
 OpenBabel03232520443D

 39 42  0  0  0  0  0  0  0  0999 V2000
   46.4920   34.5150   42.3970 C   0  0  0  0  0  0  0  0  0  0  0  0
   47.7950   34.8920   42.2750 C   0  0  0  0  0  0  0  0  0  0  0  0
   48.4740   34.8290   41.0510 C   0  0  0  0  0  0  0  0  0  0  0  0
   47.8020   34.3640   39.9080 C   0  0  0  0  0  0  0  0  0  0  0  0
   46.4910   33.9870   40.0400 C   0  0  0  0  0  0  0  0  0  0  0  0
   45.8600   34.0670   41.2730 C   0  0  0  0  0  0  0  0  0  0  0  0
   48.3900   35.2610   43.1010 H   0  0  0  0  0  0  0  0  0  0  0  0
   49.5060   35.1320   40.9770 H   0  0  0  0  0  0  0  0  0  0  0  0
   48.2960   34.3030   38.9510 H   0  0  0  0  0  0  0  0  0  0  0  0
   45.9650   33.6280   39.1650 H   0  0  0  0  0  0  0  0  0  0  0  0
   44.4820   35.6220   45.3820 C   0  0  0  0  0  0  0  0  0  0  0  0
   45.0180   35.6390   44.0930 C   0  0  0  0  0  0  0  0  0  0  0  0
   45.8680   34.6150   43.7070 C   0  0  0  0  0  0  0  0  0  0  0  0
   46.1340   33.6500   44.6020 N   0  0  0  0  0  0  0  0  0  0  0  0
   45.6030   33.6530   45.8500 C   0  0  0  0  0  0  0  0  0  0  0  0
   44.7830   34.6350   46.2310 N   0  0  0  0  0  0  0  0  0  0  0  0
   43.8180   36.4520   45.6350 H   0  0  0  0  0  0  0  0  0  0  0  0
   44.8040   36.4170   43.3690 H   0  0  0  0  0  0  0  0  0  0  0  0
   45.9620   32.5820   46.6970 N   0  0  0  0  0  0  0  0  0  0  0  0
   45.7190   32.6580   48.1130 C   0  0  0  0  0  0  0  0  0  0  0  0
   44.7460   31.5420   48.4570 C   0  0  0  0  0  0  0  0  0  0  0  0
   45.4200   30.2470   48.0520 C   0  0  0  0  0  0  0  0  0  0  0  0
   44.8200   29.3540   48.3160 H   0  0  0  0  0  0  0  0  0  0  0  0
   45.5850   30.2500   46.5410 C   0  0  0  0  0  0  0  0  0  0  0  0
   46.5820   31.3620   46.2180 C   0  0  0  0  0  0  0  0  0  0  0  0
   44.5010   33.6660   41.3600 N   0  0  0  0  0  0  0  0  0  0  0  0
   43.6600   34.6570   40.9200 C   0  0  0  0  0  0  0  0  0  0  0  0
   42.2830   34.4800   40.9160 C   0  0  0  0  0  0  0  0  0  0  0  0
   41.7950   33.2740   41.3690 C   0  0  0  0  0  0  0  0  0  0  0  0
   40.5580   33.0360   41.3970 O   0  0  0  0  0  0  0  0  0  0  0  0
   42.6470   32.3200   41.7950 N   0  0  0  0  0  0  0  0  0  0  0  0
   43.9750   32.5060   41.7920 C   0  0  0  0  0  0  0  0  0  0  0  0
   44.8390   31.6850   42.1660 O   0  0  0  0  0  0  0  0  0  0  0  0
   43.9790   35.6230   40.5530 H   0  0  0  0  0  0  0  0  0  0  0  0
   42.3240   31.3890   42.1470 H   0  0  0  0  0  0  0  0  0  0  0  0
   41.3480   35.5420   40.4430 C   0  0  0  0  0  0  0  0  0  0  0  0
   41.9230   36.4910   40.4630 H   0  0  0  0  0  0  0  0  0  0  0  0
   40.4210   35.5780   41.0250 H   0  0  0  0  0  0  0  0  0  0  0  0
   41.1800   35.3180   39.3570 H   0  0  0  0  0  0  0  0  0  0  0  0
  1 13  1  0  0  0  0
  2  1  1  0  0  0  0
  2  7  1  0  0  0  0
  3  2  2  0  0  0  0
  4  5  2  0  0  0  0
  4  3  1  0  0  0  0
  5  6  1  0  0  0  0
  6 26  1  0  0  0  0
  6  1  2  0  0  0  0
  8  3  1  0  0  0  0
  9  4  1  0  0  0  0
 10  5  1  0  0  0  0
 11 17  1  0  0  0  0
 11 16  1  0  0  0  0
 12 11  2  0  0  0  0
 13 12  1  0  0  0  0
 13 14  2  0  0  0  0
 14 15  1  0  0  0  0
 15 16  2  0  0  0  0
 15 19  1  0  0  0  0
 18 12  1  0  0  0  0
 19 20  1  0  0  0  0
 20 21  1  0  0  0  0
 22 23  1  0  0  0  0
 22 21  1  0  0  0  0
 24 22  1  0  0  0  0
 25 24  1  0  0  0  0
 25 19  1  0  0  0  0
 26 32  1  0  0  0  0
 27 26  1  0  0  0  0
 28 27  2  0  0  0  0
 28 29  1  0  0  0  0
 29 30  2  0  0  0  0
 29 31  1  0  0  0  0
 31 35  1  0  0  0  0
 32 31  1  0  0  0  0
 32 33  2  0  0  0  0
 34 27  1  0  0  0  0
 36 37  1  0  0  0  0
 36 28  1  0  0  0  0
 36 38  1  0  0  0  0
 39 36  1  0  0  0  0
M  END
>  <minimizedAffinity>
-7.85964441

>  <minimizedRMSD>
0.471427798

$$$$
