
 OpenBabel03232519243D

 22 23  0  0  0  0  0  0  0  0999 V2000
   47.0590   34.7810   42.0020 C   0  0  0  0  0  0  0  0  0  0  0  0
   47.0410   35.7170   41.4230 H   0  0  0  0  0  0  0  0  0  0  0  0
   46.7900   33.8930   41.3960 H   0  0  0  0  0  0  0  0  0  0  0  0
   45.3720   36.0210   43.2760 C   0  0  0  0  0  0  0  0  0  0  0  0
   46.2110   34.9040   43.1920 C   0  0  0  0  0  0  0  0  0  0  0  0
   46.1790   34.0120   44.2560 C   0  0  0  0  0  0  0  0  0  0  0  0
   45.3550   34.2570   45.3010 N   0  0  0  0  0  0  0  0  0  0  0  0
   44.5600   35.3530   45.3370 C   0  0  0  0  0  0  0  0  0  0  0  0
   44.5600   36.2300   44.3430 N   0  0  0  0  0  0  0  0  0  0  0  0
   45.3070   36.7880   42.5200 H   0  0  0  0  0  0  0  0  0  0  0  0
   46.7990   33.1340   44.2380 H   0  0  0  0  0  0  0  0  0  0  0  0
   43.9260   35.4610   46.2320 H   0  0  0  0  0  0  0  0  0  0  0  0
   48.5070   34.6300   42.5010 C   0  0  0  0  0  0  0  0  0  0  0  0
   48.4750   34.2850   43.5290 H   0  0  0  0  0  0  0  0  0  0  0  0
   48.9660   35.6740   42.4860 H   0  0  0  0  0  0  0  0  0  0  0  0
   49.2300   33.7560   41.5870 N   0  0  0  0  0  0  0  0  0  0  0  0
   48.4950   32.5170   41.4970 C   0  0  0  0  0  0  0  0  0  0  0  0
   48.7270   31.7110   42.7500 C   0  0  0  0  0  0  0  0  0  0  0  0
   50.1070   31.0780   42.6100 C   0  0  0  0  0  0  0  0  0  0  0  0
   50.0470   30.2340   41.8920 H   0  0  0  0  0  0  0  0  0  0  0  0
   51.0350   32.1100   42.0050 C   0  0  0  0  0  0  0  0  0  0  0  0
   50.5230   33.5100   42.2050 C   0  0  0  0  0  0  0  0  0  0  0  0
  1 13  1  0  0  0  0
  1  5  1  0  0  0  0
  2  1  1  0  0  0  0
  3  1  1  0  0  0  0
  4  9  1  0  0  0  0
  5  4  2  0  0  0  0
  5  6  1  0  0  0  0
  6  7  2  0  0  0  0
  7  8  1  0  0  0  0
  8 12  1  0  0  0  0
  9  8  2  0  0  0  0
 10  4  1  0  0  0  0
 11  6  1  0  0  0  0
 13 14  1  0  0  0  0
 15 13  1  0  0  0  0
 16 22  1  0  0  0  0
 16 13  1  0  0  0  0
 17 16  1  0  0  0  0
 17 18  1  0  0  0  0
 19 18  1  0  0  0  0
 20 19  1  0  0  0  0
 21 22  1  0  0  0  0
 21 19  1  0  0  0  0
M  END
>  <minimizedAffinity>
-4.03901243

>  <minimizedRMSD>
3.02966666

$$$$
