
 OpenBabel03232520243D

 36 39  0  0  0  0  0  0  0  0999 V2000
   46.7670   34.3870   41.4800 C   0  0  0  0  0  0  0  0  0  0  0  0
   48.1130   34.5410   41.1770 C   0  0  0  0  0  0  0  0  0  0  0  0
   48.3450   34.1920   39.9160 N   0  0  0  0  0  0  0  0  0  0  0  0
   47.1730   33.8060   39.3730 C   0  0  0  0  0  0  0  0  0  0  0  0
   46.8690   33.3550   38.1030 C   0  0  0  0  0  0  0  0  0  0  0  0
   45.5780   33.0240   37.8110 C   0  0  0  0  0  0  0  0  0  0  0  0
   44.5080   33.1080   38.7130 C   0  0  0  0  0  0  0  0  0  0  0  0
   44.8750   33.5690   39.9760 C   0  0  0  0  0  0  0  0  0  0  0  0
   46.1510   33.9140   40.3290 C   0  0  0  0  0  0  0  0  0  0  0  0
   49.2690   34.2060   39.4130 H   0  0  0  0  0  0  0  0  0  0  0  0
   47.6390   33.2620   37.3450 H   0  0  0  0  0  0  0  0  0  0  0  0
   45.3680   32.6740   36.8070 H   0  0  0  0  0  0  0  0  0  0  0  0
   43.4960   32.8390   38.4530 H   0  0  0  0  0  0  0  0  0  0  0  0
   44.1100   33.6670   40.7420 H   0  0  0  0  0  0  0  0  0  0  0  0
   44.7370   36.0870   44.1030 C   0  0  0  0  0  0  0  0  0  0  0  0
   45.3780   35.8360   42.8780 C   0  0  0  0  0  0  0  0  0  0  0  0
   46.1020   34.6580   42.7440 C   0  0  0  0  0  0  0  0  0  0  0  0
   46.1640   33.7900   43.8000 N   0  0  0  0  0  0  0  0  0  0  0  0
   45.5250   34.0780   44.9700 C   0  0  0  0  0  0  0  0  0  0  0  0
   44.8140   35.2230   45.1180 N   0  0  0  0  0  0  0  0  0  0  0  0
   44.1540   36.9910   44.2740 H   0  0  0  0  0  0  0  0  0  0  0  0
   45.2820   36.5750   42.0850 H   0  0  0  0  0  0  0  0  0  0  0  0
   45.6960   33.2750   45.6640 H   0  0  0  0  0  0  0  0  0  0  0  0
   49.1320   35.0280   42.1480 C   0  0  0  0  0  0  0  0  0  0  0  0
   48.6780   35.5090   43.0200 H   0  0  0  0  0  0  0  0  0  0  0  0
   49.7600   35.7620   41.6060 H   0  0  0  0  0  0  0  0  0  0  0  0
   50.0190   33.9070   42.5990 C   0  0  0  0  0  0  0  0  0  0  0  0
   49.8930   33.7820   43.7070 H   0  0  0  0  0  0  0  0  0  0  0  0
   51.0760   34.2720   42.4520 H   0  0  0  0  0  0  0  0  0  0  0  0
   49.7910   32.6470   42.0070 N   0  0  0  0  0  0  0  0  0  0  0  0
   50.8210   32.1210   41.2030 C   0  0  0  0  0  0  0  0  0  0  0  0
   51.6520   31.1390   41.9490 C   0  0  0  0  0  0  0  0  0  0  0  0
   50.8010   30.0910   42.5650 C   0  0  0  0  0  0  0  0  0  0  0  0
   51.4540   29.4970   43.2700 H   0  0  0  0  0  0  0  0  0  0  0  0
   49.5790   30.5530   43.2830 C   0  0  0  0  0  0  0  0  0  0  0  0
   48.9360   31.7720   42.7000 C   0  0  0  0  0  0  0  0  0  0  0  0
  1 17  1  0  0  0  0
  2  1  2  0  0  0  0
  2 24  1  0  0  0  0
  3  2  1  0  0  0  0
  4  3  1  0  0  0  0
  4  9  1  0  0  0  0
  5  4  2  0  0  0  0
  6  5  1  0  0  0  0
  6  7  2  0  0  0  0
  7  8  1  0  0  0  0
  8  9  2  0  0  0  0
  8 14  1  0  0  0  0
  9  1  1  0  0  0  0
 10  3  1  0  0  0  0
 11  5  1  0  0  0  0
 12  6  1  0  0  0  0
 13  7  1  0  0  0  0
 15 21  1  0  0  0  0
 15 20  1  0  0  0  0
 16 15  2  0  0  0  0
 17 16  1  0  0  0  0
 17 18  2  0  0  0  0
 18 19  1  0  0  0  0
 19 20  2  0  0  0  0
 19 23  1  0  0  0  0
 22 16  1  0  0  0  0
 24 27  1  0  0  0  0
 24 25  1  0  0  0  0
 26 24  1  0  0  0  0
 27 28  1  0  0  0  0
 29 27  1  0  0  0  0
 30 27  1  0  0  0  0
 30 36  1  0  0  0  0
 31 32  1  0  0  0  0
 31 30  1  0  0  0  0
 32 33  1  0  0  0  0
 33 34  1  0  0  0  0
 33 35  1  0  0  0  0
 36 35  1  0  0  0  0
M  END
>  <minimizedAffinity>
-5.47655582

>  <minimizedRMSD>
1.3999505

$$$$
