
 OpenBabel03232519073D

 35 36  0  0  0  0  0  0  0  0999 V2000
   45.7400   33.6080   42.2000 C   0  0  0  0  0  0  0  0  0  0  0  0
   45.5200   33.6620   45.8600 C   0  0  0  0  0  0  0  0  0  0  0  0
   44.8310   34.8250   46.0320 C   0  0  0  0  0  0  0  0  0  0  0  0
   44.5780   35.4030   44.3430 S   0  0  0  0  0  0  0  0  0  0  0  0
   45.5010   33.8890   43.6520 C   0  0  0  0  0  0  0  0  0  0  0  0
   45.7590   33.3610   44.6430 N   0  0  0  0  0  0  0  0  0  0  0  0
   44.4660   35.3720   46.9030 H   0  0  0  0  0  0  0  0  0  0  0  0
   45.4710   31.6150   49.0740 C   0  0  0  0  0  0  0  0  0  0  0  0
   45.0210   32.3720   48.0000 C   0  0  0  0  0  0  0  0  0  0  0  0
   45.9250   32.8540   47.0350 C   0  0  0  0  0  0  0  0  0  0  0  0
   47.2080   32.5080   47.2730 N   0  0  0  0  0  0  0  0  0  0  0  0
   47.6420   31.7870   48.2960 C   0  0  0  0  0  0  0  0  0  0  0  0
   46.7680   31.3480   49.1860 N   0  0  0  0  0  0  0  0  0  0  0  0
   44.6160   31.3380   49.7080 H   0  0  0  0  0  0  0  0  0  0  0  0
   43.9780   32.6530   47.8070 H   0  0  0  0  0  0  0  0  0  0  0  0
   48.6920   31.5270   48.4470 H   0  0  0  0  0  0  0  0  0  0  0  0
   44.3930   33.5910   41.5370 C   0  0  0  0  0  0  0  0  0  0  0  0
   44.0020   34.6400   41.5200 H   0  0  0  0  0  0  0  0  0  0  0  0
   43.7200   32.9210   42.0880 H   0  0  0  0  0  0  0  0  0  0  0  0
   44.4470   33.2890   40.4740 H   0  0  0  0  0  0  0  0  0  0  0  0
   46.4130   32.2880   42.1070 C   0  0  0  0  0  0  0  0  0  0  0  0
   47.3310   32.1970   42.6990 H   0  0  0  0  0  0  0  0  0  0  0  0
   46.6060   31.9630   41.0510 H   0  0  0  0  0  0  0  0  0  0  0  0
   45.6660   31.5280   42.4760 H   0  0  0  0  0  0  0  0  0  0  0  0
   46.5960   34.6860   41.5770 C   0  0  0  0  0  0  0  0  0  0  0  0
   46.0080   35.0560   40.7200 H   0  0  0  0  0  0  0  0  0  0  0  0
   46.6700   35.5030   42.2950 H   0  0  0  0  0  0  0  0  0  0  0  0
   47.8920   34.1160   41.1670 N   0  0  0  0  0  0  0  0  0  0  0  0
   48.0360   34.1830   39.6810 C   0  0  0  0  0  0  0  0  0  0  0  0
   48.6080   35.4140   39.3970 F   0  0  0  0  0  0  0  0  0  0  0  0
   46.8550   34.0220   39.0670 F   0  0  0  0  0  0  0  0  0  0  0  0
   48.9360   33.2170   39.2450 F   0  0  0  0  0  0  0  0  0  0  0  0
   48.7520   35.3590   41.4580 C   0  0  0  0  0  0  0  0  0  0  0  0
   49.7600   35.0570   42.5020 C   0  0  0  0  0  0  0  0  0  0  0  0
   50.8210   35.2030   42.2410 H   0  0  0  0  0  0  0  0  0  0  0  0
  1  5  1  0  0  0  0
  2  3  2  0  0  0  0
  2 10  1  0  0  0  0
  3  7  1  0  0  0  0
  4  3  1  0  0  0  0
  5  4  1  0  0  0  0
  5  6  2  0  0  0  0
  6  2  1  0  0  0  0
  8 13  1  0  0  0  0
  8 14  1  0  0  0  0
  9  8  2  0  0  0  0
 10 11  2  0  0  0  0
 10  9  1  0  0  0  0
 11 12  1  0  0  0  0
 12 16  1  0  0  0  0
 12 13  2  0  0  0  0
 15  9  1  0  0  0  0
 17 19  1  0  0  0  0
 17  1  1  0  0  0  0
 18 17  1  0  0  0  0
 20 17  1  0  0  0  0
 21  1  1  0  0  0  0
 21 24  1  0  0  0  0
 21 22  1  0  0  0  0
 23 21  1  0  0  0  0
 25  1  1  0  0  0  0
 25 27  1  0  0  0  0
 26 25  1  0  0  0  0
 28 33  1  0  0  0  0
 28 25  1  0  0  0  0
 29 28  1  0  0  0  0
 30 29  1  0  0  0  0
 31 29  1  0  0  0  0
 32 29  1  0  0  0  0
 33 34  1  0  0  0  0
 35 34  1  0  0  0  0
M  END
>  <minimizedAffinity>
-5.45326567

>  <minimizedRMSD>
2.0428822

$$$$
