
 OpenBabel03232520593D

 39 41  0  0  1  0  0  0  0  0999 V2000
   45.4350   32.8500   47.4970 C   0  0  0  0  0  0  0  0  0  0  0  0
   45.9270   32.5990   46.2570 C   0  0  0  0  0  0  0  0  0  0  0  0
   46.1360   31.2490   45.9700 C   0  0  0  0  0  0  0  0  0  0  0  0
   45.8740   30.2470   46.8470 N   0  0  0  0  0  0  0  0  0  0  0  0
   45.3730   30.5570   48.1010 C   0  0  0  0  0  0  0  0  0  0  0  0
   45.1680   31.8330   48.3930 N   0  0  0  0  0  0  0  0  0  0  0  0
   45.1230   29.5250   49.0450 N   0  0  0  0  0  0  0  0  0  0  0  0
   45.2410   33.8590   47.8250 H   0  0  0  0  0  0  0  0  0  0  0  0
   44.2170   29.5080   49.5830 H   0  0  0  0  0  0  0  0  0  0  0  0
   45.8350   28.7630   49.2240 H   0  0  0  0  0  0  0  0  0  0  0  0
   46.1750   33.5660   45.2420 C   0  0  2  0  0  0  0  0  0  0  0  0
   44.9690   34.6580   45.4920 C   0  0  0  0  0  0  0  0  0  0  0  0
   44.7350   35.6040   44.4370 C   0  0  0  0  0  0  0  0  0  0  0  0
   45.5320   35.5470   43.2080 C   0  0  1  0  0  0  0  0  0  0  0  0
   46.5890   34.5470   43.1430 C   0  0  0  0  0  0  0  0  0  0  0  0
   46.1420   33.3020   43.8740 C   0  0  0  0  0  0  0  0  0  0  0  0
   46.9910   34.2730   45.5840 H   0  0  0  0  0  0  0  0  0  0  0  0
   44.2940   34.8040   46.3250 H   0  0  0  0  0  0  0  0  0  0  0  0
   43.9680   36.3240   44.5600 H   0  0  0  0  0  0  0  0  0  0  0  0
   45.9550   36.5560   43.0140 H   0  0  0  0  0  0  0  0  0  0  0  0
   46.8280   34.3500   42.0590 H   0  0  0  0  0  0  0  0  0  0  0  0
   47.5500   34.8550   43.5960 H   0  0  0  0  0  0  0  0  0  0  0  0
   46.9950   32.6590   43.5310 H   0  0  0  0  0  0  0  0  0  0  0  0
   45.1870   32.9210   43.4480 H   0  0  0  0  0  0  0  0  0  0  0  0
   44.5110   35.2970   42.0570 C   0  0  0  0  0  0  0  0  0  0  0  0
   43.4410   34.5130   42.4510 F   0  0  0  0  0  0  0  0  0  0  0  0
   43.9860   36.5420   41.7210 F   0  0  0  0  0  0  0  0  0  0  0  0
   45.1780   34.8270   40.9420 F   0  0  0  0  0  0  0  0  0  0  0  0
   46.6970   30.5590   44.8220 C   0  0  0  0  0  0  0  0  0  0  0  0
   46.2760   29.8250   43.7590 C   0  0  0  0  0  0  0  0  0  0  0  0
   47.4120   29.4170   43.0380 C   0  0  0  0  0  0  0  0  0  0  0  0
   48.4530   29.9230   43.6980 N   0  0  0  0  0  0  0  0  0  0  0  0
   48.0600   30.5990   44.7510 N   0  0  0  0  0  0  0  0  0  0  0  0
   45.2090   29.6860   43.6510 H   0  0  0  0  0  0  0  0  0  0  0  0
   47.2960   28.8280   42.1630 H   0  0  0  0  0  0  0  0  0  0  0  0
   49.8390   29.7140   43.2510 C   0  0  0  0  0  0  0  0  0  0  0  0
   50.6560   29.3060   44.4780 C   0  0  0  0  0  1  0  0  0  0  0  0
   50.4440   30.9780   42.7310 C   0  0  0  0  0  1  0  0  0  0  0  0
   49.8230   28.5730   42.2860 C   0  0  0  0  0  1  0  0  0  0  0  0
  1  8  1  0  0  0  0
  1  6  1  0  0  0  0
  2  1  2  0  0  0  0
  3  2  1  0  0  0  0
  3  4  2  0  0  0  0
  4  5  1  0  0  0  0
  5  6  2  0  0  0  0
  5  7  1  0  0  0  0
  7 10  1  0  0  0  0
  7  9  1  0  0  0  0
 11 12  1  0  0  0  0
 11 17  1  1  0  0  0
 11  2  1  0  0  0  0
 12 18  1  0  0  0  0
 13 19  1  0  0  0  0
 13 12  2  0  0  0  0
 14 20  1  6  0  0  0
 14 13  1  0  0  0  0
 15 14  1  0  0  0  0
 15 22  1  0  0  0  0
 15 16  1  0  0  0  0
 16 11  1  0  0  0  0
 21 15  1  0  0  0  0
 23 16  1  0  0  0  0
 24 16  1  0  0  0  0
 25 26  1  0  0  0  0
 25 14  1  0  0  0  0
 27 25  1  0  0  0  0
 28 25  1  0  0  0  0
 29  3  1  0  0  0  0
 30 29  1  0  0  0  0
 31 32  1  0  0  0  0
 31 30  2  0  0  0  0
 32 33  1  0  0  0  0
 33 29  2  0  0  0  0
 34 30  1  0  0  0  0
 35 31  1  0  0  0  0
 36 32  1  0  0  0  0
 36 37  1  0  0  0  0
 38 36  1  0  0  0  0
 39 36  1  0  0  0  0
M  END
>  <minimizedAffinity>
-5.67255211

>  <minimizedRMSD>
0.384810269

$$$$
