
 OpenBabel03232516593D

 28 30  0  0  0  0  0  0  0  0999 V2000
   47.5970   34.7130   42.1180 N   0  0  0  0  0  0  0  0  0  0  0  0
   48.5240   35.6390   41.9190 C   0  0  0  0  0  0  0  0  0  0  0  0
   48.8690   35.6230   40.6020 N   0  0  0  0  0  0  0  0  0  0  0  0
   48.1580   34.6850   39.9800 C   0  0  0  0  0  0  0  0  0  0  0  0
   48.0810   34.2250   38.6770 C   0  0  0  0  0  0  0  0  0  0  0  0
   47.2370   33.2360   38.3590 N   0  0  0  0  0  0  0  0  0  0  0  0
   46.4310   32.6470   39.2790 C   0  0  0  0  0  0  0  0  0  0  0  0
   46.5240   33.1130   40.5370 N   0  0  0  0  0  0  0  0  0  0  0  0
   47.3400   34.0910   40.9240 C   0  0  0  0  0  0  0  0  0  0  0  0
   48.8970   34.7940   37.6560 N   0  0  0  0  0  0  0  0  0  0  0  0
   48.9120   36.2780   42.7020 H   0  0  0  0  0  0  0  0  0  0  0  0
   45.7480   31.8480   39.0250 H   0  0  0  0  0  0  0  0  0  0  0  0
   48.7470   35.8090   37.4430 H   0  0  0  0  0  0  0  0  0  0  0  0
   49.5600   34.0700   37.2510 H   0  0  0  0  0  0  0  0  0  0  0  0
   45.7010   34.8570   43.7790 C   0  0  0  0  0  0  0  0  0  0  0  0
   46.8900   34.3050   43.3000 C   0  0  0  0  0  0  0  0  0  0  0  0
   47.4690   33.2510   44.0180 C   0  0  0  0  0  0  0  0  0  0  0  0
   46.8420   32.8240   45.1470 N   0  0  0  0  0  0  0  0  0  0  0  0
   45.6950   33.3750   45.5860 C   0  0  0  0  0  0  0  0  0  0  0  0
   45.1460   34.3770   44.9000 N   0  0  0  0  0  0  0  0  0  0  0  0
   48.3950   32.7830   43.6910 H   0  0  0  0  0  0  0  0  0  0  0  0
   45.2890   32.9580   46.4880 H   0  0  0  0  0  0  0  0  0  0  0  0
   45.1690   35.9250   42.9950 C   0  0  0  0  0  0  0  0  0  0  0  0
   45.2780   37.1670   43.2700 O   0  0  0  0  0  0  0  0  0  0  0  0
   44.4710   35.6650   41.8320 O   0  0  0  0  0  0  0  0  0  0  0  0
   43.1570   35.1780   41.7830 C   0  0  0  0  0  0  0  0  0  0  0  0
   42.6070   35.1100   40.3790 C   0  0  0  0  0  0  0  0  0  0  0  0
   42.5070   34.0630   40.0390 H   0  0  0  0  0  0  0  0  0  0  0  0
  1 16  1  0  0  0  0
  2  1  1  0  0  0  0
  2 11  1  0  0  0  0
  3  2  2  0  0  0  0
  4  3  1  0  0  0  0
  4  9  1  0  0  0  0
  5  4  2  0  0  0  0
  6  5  1  0  0  0  0
  6  7  2  0  0  0  0
  7  8  1  0  0  0  0
  8  9  2  0  0  0  0
  9  1  1  0  0  0  0
 10  5  1  0  0  0  0
 12  7  1  0  0  0  0
 13 10  1  0  0  0  0
 14 10  1  0  0  0  0
 15 20  1  0  0  0  0
 16 15  2  0  0  0  0
 16 17  1  0  0  0  0
 17 18  2  0  0  0  0
 18 19  1  0  0  0  0
 19 22  1  0  0  0  0
 20 19  2  0  0  0  0
 21 17  1  0  0  0  0
 23 24  2  0  0  0  0
 23 15  1  0  0  0  0
 25 23  1  0  0  0  0
 26 25  1  0  0  0  0
 27 26  1  0  0  0  0
 28 27  1  0  0  0  0
M  END
>  <minimizedAffinity>
-5.54061651

>  <minimizedRMSD>
0.724719942

$$$$
