
 OpenBabel03232519543D

 22 24  0  0  0  0  0  0  0  0999 V2000
   45.4800   33.9510   41.6310 N   0  0  0  0  0  0  0  0  0  0  0  0
   46.5950   33.7960   40.9600 C   0  0  0  0  0  0  0  0  0  0  0  0
   46.3310   33.4530   39.6410 C   0  0  0  0  0  0  0  0  0  0  0  0
   45.0020   33.4070   39.5360 N   0  0  0  0  0  0  0  0  0  0  0  0
   44.4760   33.7090   40.7420 C   0  0  0  0  0  0  0  0  0  0  0  0
   47.0130   33.2530   38.8230 H   0  0  0  0  0  0  0  0  0  0  0  0
   43.3950   33.7250   40.8760 H   0  0  0  0  0  0  0  0  0  0  0  0
   44.7110   35.5900   43.1900 C   0  0  0  0  0  0  0  0  0  0  0  0
   45.2680   34.2970   42.9600 C   0  0  0  0  0  0  0  0  0  0  0  0
   45.5360   33.5370   44.0750 C   0  0  0  0  0  0  0  0  0  0  0  0
   45.2700   34.0250   45.3120 N   0  0  0  0  0  0  0  0  0  0  0  0
   44.7360   35.2670   45.4840 C   0  0  0  0  0  0  0  0  0  0  0  0
   44.4590   36.0460   44.4130 N   0  0  0  0  0  0  0  0  0  0  0  0
   44.4390   36.3230   42.4230 H   0  0  0  0  0  0  0  0  0  0  0  0
   45.9580   32.5570   43.9350 H   0  0  0  0  0  0  0  0  0  0  0  0
   44.5620   35.5560   46.5060 H   0  0  0  0  0  0  0  0  0  0  0  0
   47.9480   33.9090   41.3750 N   0  0  0  0  0  0  0  0  0  0  0  0
   48.5910   35.1960   41.2470 C   0  0  0  0  0  0  0  0  0  0  0  0
   49.6440   35.3570   42.2800 C   0  0  0  0  0  0  0  0  0  0  0  0
   50.4770   34.3120   42.5120 O   0  0  0  0  0  0  0  0  0  0  0  0
   50.1740   33.1240   41.9160 C   0  0  0  0  0  0  0  0  0  0  0  0
   48.7120   32.7930   41.8970 C   0  0  0  0  0  0  0  0  0  0  0  0
  1  9  1  0  0  0  0
  2 17  1  0  0  0  0
  2  1  1  0  0  0  0
  3  2  2  0  0  0  0
  4  3  1  0  0  0  0
  4  5  2  0  0  0  0
  5  7  1  0  0  0  0
  5  1  1  0  0  0  0
  6  3  1  0  0  0  0
  8 13  1  0  0  0  0
  9  8  2  0  0  0  0
  9 10  1  0  0  0  0
 10 11  2  0  0  0  0
 11 12  1  0  0  0  0
 12 16  1  0  0  0  0
 13 12  2  0  0  0  0
 14  8  1  0  0  0  0
 15 10  1  0  0  0  0
 17 22  1  0  0  0  0
 18 17  1  0  0  0  0
 18 19  1  0  0  0  0
 19 20  1  0  0  0  0
 21 20  1  0  0  0  0
 22 21  1  0  0  0  0
M  END
>  <minimizedAffinity>
-4.65070343

>  <minimizedRMSD>
3.25318289

$$$$
