REMARK  Name = 
REMARK  7 active torsions:
REMARK  status: ('A' for Active; 'I' for Inactive)
REMARK    1  A    between atoms: C_1  and  C_8
REMARK    2  A    between atoms: C_4  and  C_19
REMARK    3  A    between atoms: C_9  and  C_14
REMARK    4  A    between atoms: N_17  and  C_36
REMARK    5  A    between atoms: C_36  and  C_37
REMARK    6  A    between atoms: C_36  and  C_38
REMARK    7  A    between atoms: C_36  and  C_39
REMARK                            x       y       z     vdW  Elec       q    Type
REMARK                         _______ _______ _______ _____ _____    ______ ____
ROOT
ATOM      1  C   UNL     1      45.385  32.882  47.525  0.00  0.00    +0.000 A 
ATOM      2  C   UNL     1      45.907  32.632  46.298  0.00  0.00    +0.000 A 
ATOM      3  C   UNL     1      46.150  31.284  46.027  0.00  0.00    +0.000 A 
ATOM      4  N   UNL     1      45.892  30.284  46.907  0.00  0.00    +0.000 NA
ATOM      5  C   UNL     1      45.359  30.594  48.148  0.00  0.00    +0.000 A 
ATOM      6  N   UNL     1      45.121  31.868  48.425  0.00  0.00    +0.000 NA
ATOM      7  N   UNL     1      45.113  29.565  49.096  0.00  0.00    +0.000 N 
ATOM      8  H   UNL     1      45.163  33.890  47.840  0.00  0.00    +0.000 HD
ATOM      9  H   UNL     1      44.196  29.533  49.616  0.00  0.00    +0.000 HD
ATOM     10  H   UNL     1      45.837  28.820  49.296  0.00  0.00    +0.000 HD
ENDROOT
BRANCH   2  11
ATOM     11  C   UNL     1      46.154  33.595  45.279  0.00  0.00    +0.000 C 
ATOM     12  C   UNL     1      44.923  34.665  45.498  0.00  0.00    +0.000 C 
ATOM     13  C   UNL     1      44.690  35.598  44.431  0.00  0.00    +0.000 C 
ATOM     14  C   UNL     1      45.510  35.547  43.217  0.00  0.00    +0.000 C 
ATOM     15  C   UNL     1      46.588  34.567  43.180  0.00  0.00    +0.000 C 
ATOM     16  C   UNL     1      46.151  33.320  43.913  0.00  0.00    +0.000 C 
ATOM     17  H   UNL     1      46.950  34.321  45.630  0.00  0.00    +0.000 HD
ATOM     18  H   UNL     1      44.230  34.805  46.318  0.00  0.00    +0.000 HD
ATOM     19  H   UNL     1      43.907  36.304  44.534  0.00  0.00    +0.000 HD
ATOM     20  H   UNL     1      45.917  36.562  43.023  0.00  0.00    +0.000 HD
ATOM     21  H   UNL     1      46.850  34.366  42.102  0.00  0.00    +0.000 HD
ATOM     22  H   UNL     1      47.534  34.897  43.648  0.00  0.00    +0.000 HD
ATOM     23  H   UNL     1      47.023  32.691  43.591  0.00  0.00    +0.000 HD
ATOM     24  H   UNL     1      45.212  32.917  43.473  0.00  0.00    +0.000 HD
BRANCH  14  25
ATOM     25  C   UNL     1      44.516  35.268  42.050  0.00  0.00    +0.000 C 
ATOM     26  F   UNL     1      43.461  34.455  42.428  0.00  0.00    +0.000 F 
ATOM     27  F   UNL     1      43.962  36.497  41.704  0.00  0.00    +0.000 F 
ATOM     28  F   UNL     1      45.213  34.815  40.947  0.00  0.00    +0.000 F 
ENDBRANCH  14  25
ENDBRANCH   2  11
BRANCH   3  29
ATOM     29  C   UNL     1      46.749  30.597  44.896  0.00  0.00    +0.000 A 
ATOM     30  C   UNL     1      46.361  29.919  43.785  0.00  0.00    +0.000 A 
ATOM     31  C   UNL     1      47.519  29.468  43.127  0.00  0.00    +0.000 A 
ATOM     32  N   UNL     1      48.539  29.894  43.870  0.00  0.00    +0.000 N 
ATOM     33  N   UNL     1      48.114  30.561  44.917  0.00  0.00    +0.000 NA
ATOM     34  H   UNL     1      45.298  29.844  43.602  0.00  0.00    +0.000 HD
ATOM     35  H   UNL     1      47.430  28.912  42.228  0.00  0.00    +0.000 HD
BRANCH  32  36
ATOM     36  C   UNL     1      49.939  29.620  43.509  0.00  0.00    +0.000 C 
ATOM     37  C   UNL     1      50.505  30.894  42.879  0.00  0.00    +0.000 C 
ATOM     38  C   UNL     1      50.038  28.546  42.474  0.00  0.00    +0.000 C 
ATOM     39  C   UNL     1      50.675  29.347  44.781  0.00  0.00    +0.000 C 
ENDBRANCH  32  36
ENDBRANCH   3  29
TORSDOF 4
