
 OpenBabel03232520593D

 39 41  0  0  1  0  0  0  0  0999 V2000
   45.4380   32.8570   47.5040 C   0  0  0  0  0  0  0  0  0  0  0  0
   45.9250   32.6030   46.2640 C   0  0  0  0  0  0  0  0  0  0  0  0
   46.1260   31.2510   45.9780 C   0  0  0  0  0  0  0  0  0  0  0  0
   45.8620   30.2520   46.8570 N   0  0  0  0  0  0  0  0  0  0  0  0
   45.3660   30.5660   48.1120 C   0  0  0  0  0  0  0  0  0  0  0  0
   45.1680   31.8440   48.4030 N   0  0  0  0  0  0  0  0  0  0  0  0
   45.1150   29.5360   49.0580 N   0  0  0  0  0  0  0  0  0  0  0  0
   45.2490   33.8680   47.8310 H   0  0  0  0  0  0  0  0  0  0  0  0
   44.2100   29.5240   49.5990 H   0  0  0  0  0  0  0  0  0  0  0  0
   45.8240   28.7710   49.2360 H   0  0  0  0  0  0  0  0  0  0  0  0
   46.1730   33.5670   45.2460 C   0  0  2  0  0  0  0  0  0  0  0  0
   44.9680   34.6600   45.4930 C   0  0  0  0  0  0  0  0  0  0  0  0
   44.7360   35.6040   44.4360 C   0  0  0  0  0  0  0  0  0  0  0  0
   45.5330   35.5440   43.2070 C   0  0  1  0  0  0  0  0  0  0  0  0
   46.5900   34.5430   43.1450 C   0  0  0  0  0  0  0  0  0  0  0  0
   46.1400   33.3000   43.8790 C   0  0  0  0  0  0  0  0  0  0  0  0
   46.9900   34.2740   45.5870 H   0  0  0  0  0  0  0  0  0  0  0  0
   44.2930   34.8090   46.3260 H   0  0  0  0  0  0  0  0  0  0  0  0
   43.9690   36.3260   44.5570 H   0  0  0  0  0  0  0  0  0  0  0  0
   45.9570   36.5520   43.0120 H   0  0  0  0  0  0  0  0  0  0  0  0
   46.8290   34.3430   42.0620 H   0  0  0  0  0  0  0  0  0  0  0  0
   47.5510   34.8500   43.5980 H   0  0  0  0  0  0  0  0  0  0  0  0
   46.9940   32.6560   43.5380 H   0  0  0  0  0  0  0  0  0  0  0  0
   45.1860   32.9190   43.4530 H   0  0  0  0  0  0  0  0  0  0  0  0
   44.5130   35.2930   42.0560 C   0  0  0  0  0  0  0  0  0  0  0  0
   43.4470   34.5020   42.4490 F   0  0  0  0  0  0  0  0  0  0  0  0
   43.9810   36.5350   41.7250 F   0  0  0  0  0  0  0  0  0  0  0  0
   45.1810   34.8290   40.9400 F   0  0  0  0  0  0  0  0  0  0  0  0
   46.6810   30.5570   44.8280 C   0  0  0  0  0  0  0  0  0  0  0  0
   46.2510   29.8400   43.7580 C   0  0  0  0  0  0  0  0  0  0  0  0
   47.3840   29.4120   43.0420 C   0  0  0  0  0  0  0  0  0  0  0  0
   48.4300   29.8910   43.7130 N   0  0  0  0  0  0  0  0  0  0  0  0
   48.0450   30.5680   44.7680 N   0  0  0  0  0  0  0  0  0  0  0  0
   45.1830   29.7240   43.6410 H   0  0  0  0  0  0  0  0  0  0  0  0
   47.2610   28.8320   42.1630 H   0  0  0  0  0  0  0  0  0  0  0  0
   49.8150   29.6560   43.2740 C   0  0  0  0  0  0  0  0  0  0  0  0
   50.3400   30.9720   42.6970 C   0  0  0  0  0  1  0  0  0  0  0  0
   49.8780   28.6470   42.1730 C   0  0  0  0  0  1  0  0  0  0  0  0
   50.6110   29.3170   44.4940 C   0  0  0  0  0  1  0  0  0  0  0  0
  1  8  1  0  0  0  0
  1  6  1  0  0  0  0
  2  1  2  0  0  0  0
  3  2  1  0  0  0  0
  3  4  2  0  0  0  0
  4  5  1  0  0  0  0
  5  6  2  0  0  0  0
  5  7  1  0  0  0  0
  7 10  1  0  0  0  0
  7  9  1  0  0  0  0
 11 12  1  0  0  0  0
 11 17  1  1  0  0  0
 11  2  1  0  0  0  0
 12 18  1  0  0  0  0
 13 19  1  0  0  0  0
 13 12  2  0  0  0  0
 14 20  1  6  0  0  0
 14 13  1  0  0  0  0
 15 14  1  0  0  0  0
 15 22  1  0  0  0  0
 15 16  1  0  0  0  0
 16 11  1  0  0  0  0
 21 15  1  0  0  0  0
 23 16  1  0  0  0  0
 24 16  1  0  0  0  0
 25 26  1  0  0  0  0
 25 14  1  0  0  0  0
 27 25  1  0  0  0  0
 28 25  1  0  0  0  0
 29  3  1  0  0  0  0
 30 29  1  0  0  0  0
 31 32  1  0  0  0  0
 31 30  2  0  0  0  0
 32 33  1  0  0  0  0
 33 29  2  0  0  0  0
 34 30  1  0  0  0  0
 35 31  1  0  0  0  0
 36 32  1  0  0  0  0
 36 39  1  0  0  0  0
 37 36  1  0  0  0  0
 38 36  1  0  0  0  0
M  END
>  <minimizedAffinity>
-5.68344402

>  <minimizedRMSD>
0.271884859

$$$$
