
 OpenBabel03232520343D

 45 49  0  0  1  0  0  0  0  0999 V2000
   46.8670   34.5410   41.3610 C   0  0  0  0  0  0  0  0  0  0  0  0
   48.1480   34.9440   40.9740 C   0  0  0  0  0  0  0  0  0  0  0  0
   48.3920   34.6080   39.7330 N   0  0  0  0  0  0  0  0  0  0  0  0
   47.2930   33.9830   39.2710 C   0  0  0  0  0  0  0  0  0  0  0  0
   47.0470   33.4360   38.0040 C   0  0  0  0  0  0  0  0  0  0  0  0
   45.8270   32.8560   37.8010 C   0  0  0  0  0  0  0  0  0  0  0  0
   44.8100   32.7610   38.7420 C   0  0  0  0  0  0  0  0  0  0  0  0
   45.1210   33.3160   39.9580 C   0  0  0  0  0  0  0  0  0  0  0  0
   46.3060   33.9160   40.2580 C   0  0  0  0  0  0  0  0  0  0  0  0
   49.2590   34.7650   39.1370 H   0  0  0  0  0  0  0  0  0  0  0  0
   47.7870   33.4700   37.2160 H   0  0  0  0  0  0  0  0  0  0  0  0
   45.6540   32.4370   36.8100 H   0  0  0  0  0  0  0  0  0  0  0  0
   43.8700   32.2850   38.5070 H   0  0  0  0  0  0  0  0  0  0  0  0
   44.3930   33.2910   40.7570 H   0  0  0  0  0  0  0  0  0  0  0  0
   44.7410   35.9810   44.0650 C   0  0  0  0  0  0  0  0  0  0  0  0
   45.3680   35.8290   42.8000 C   0  0  0  0  0  0  0  0  0  0  0  0
   46.2110   34.7210   42.6490 C   0  0  0  0  0  0  0  0  0  0  0  0
   46.3950   33.8470   43.6950 N   0  0  0  0  0  0  0  0  0  0  0  0
   45.7650   34.0510   44.8780 C   0  0  0  0  0  0  0  0  0  0  0  0
   44.9420   35.1090   45.0650 N   0  0  0  0  0  0  0  0  0  0  0  0
   44.1090   36.8480   44.1140 H   0  0  0  0  0  0  0  0  0  0  0  0
   45.2240   36.5070   41.9940 H   0  0  0  0  0  0  0  0  0  0  0  0
   45.9280   33.3510   45.6790 H   0  0  0  0  0  0  0  0  0  0  0  0
   49.0840   35.6640   41.8830 C   0  0  0  0  0  0  0  0  0  0  0  0
   48.5200   36.2660   42.6280 H   0  0  0  0  0  0  0  0  0  0  0  0
   49.7020   36.3480   41.2770 H   0  0  0  0  0  0  0  0  0  0  0  0
   50.0060   34.7190   42.5780 C   0  0  0  0  0  0  0  0  0  0  0  0
   49.6920   34.6290   43.6450 H   0  0  0  0  0  0  0  0  0  0  0  0
   51.0320   35.1810   42.6300 H   0  0  0  0  0  0  0  0  0  0  0  0
   50.1530   33.3720   41.9300 C   0  0  1  0  0  0  0  0  0  0  0  0
   50.9980   32.2920   42.4390 C   0  0  0  0  0  0  0  0  0  0  0  0
   49.5380   32.2360   42.7480 C   0  0  2  0  0  0  0  0  0  0  0  0
   49.9350   33.3820   40.8460 H   0  0  0  0  0  0  0  0  0  0  0  0
   51.4180   31.5740   41.6840 H   0  0  0  0  0  0  0  0  0  0  0  0
   51.7130   32.4260   43.2750 H   0  0  0  0  0  0  0  0  0  0  0  0
   49.3010   32.5090   43.8190 H   0  0  0  0  0  0  0  0  0  0  0  0
   48.8350   31.2390   42.1060 O   0  0  0  0  0  0  0  0  0  0  0  0
   47.5940   30.7630   42.4320 C   0  0  0  0  0  0  0  0  0  0  0  0
   46.6910   30.5670   41.5900 O   0  0  0  0  0  0  0  0  0  0  0  0
   47.0870   30.3880   43.8080 C   0  0  0  0  0  0  0  0  0  0  0  0
   45.7500   30.2580   44.0280 C   0  0  0  0  0  0  0  0  0  0  0  0
   45.5980   29.8010   45.7530 S   0  0  0  0  0  0  0  0  0  0  0  0
   47.4870   29.8510   45.9620 C   0  0  0  0  0  0  0  0  0  0  0  0
   48.4360   29.7030   46.7300 H   0  0  0  0  0  0  0  0  0  0  0  0
   47.7340   30.1350   44.9190 N   0  0  0  0  0  0  0  0  0  0  0  0
  1 17  1  0  0  0  0
  2  1  2  0  0  0  0
  2 24  1  0  0  0  0
  3  2  1  0  0  0  0
  4  3  1  0  0  0  0
  4  9  1  0  0  0  0
  5  4  2  0  0  0  0
  6  5  1  0  0  0  0
  6  7  2  0  0  0  0
  7  8  1  0  0  0  0
  8  9  2  0  0  0  0
  8 14  1  0  0  0  0
  9  1  1  0  0  0  0
 10  3  1  0  0  0  0
 11  5  1  0  0  0  0
 12  6  1  0  0  0  0
 13  7  1  0  0  0  0
 15 21  1  0  0  0  0
 15 20  1  0  0  0  0
 16 15  2  0  0  0  0
 17 16  1  0  0  0  0
 17 18  2  0  0  0  0
 18 19  1  0  0  0  0
 19 20  2  0  0  0  0
 19 23  1  0  0  0  0
 22 16  1  0  0  0  0
 24 27  1  0  0  0  0
 24 25  1  0  0  0  0
 26 24  1  0  0  0  0
 27 29  1  0  0  0  0
 27 28  1  0  0  0  0
 30 33  1  6  0  0  0
 30 31  1  0  0  0  0
 30 27  1  0  0  0  0
 30 32  1  0  0  0  0
 31 32  1  0  0  0  0
 31 35  1  0  0  0  0
 32 36  1  1  0  0  0
 34 31  1  0  0  0  0
 37 38  1  0  0  0  0
 37 32  1  0  0  0  0
 38 40  1  0  0  0  0
 39 38  2  0  0  0  0
 40 41  2  0  0  0  0
 40 45  1  0  0  0  0
 41 42  1  0  0  0  0
 42 43  1  0  0  0  0
 43 44  1  0  0  0  0
 45 43  2  0  0  0  0
M  END
>  <minimizedAffinity>
-5.58464956

>  <minimizedRMSD>
1.62325966

$$$$
