
 OpenBabel03232520593D

 39 41  0  0  1  0  0  0  0  0999 V2000
   45.4070   32.8990   47.5550 C   0  0  0  0  0  0  0  0  0  0  0  0
   45.9220   32.6240   46.3310 C   0  0  0  0  0  0  0  0  0  0  0  0
   46.1470   31.2690   46.0800 C   0  0  0  0  0  0  0  0  0  0  0  0
   45.8780   30.2860   46.9750 N   0  0  0  0  0  0  0  0  0  0  0  0
   45.3520   30.6210   48.2130 C   0  0  0  0  0  0  0  0  0  0  0  0
   45.1320   31.9020   48.4710 N   0  0  0  0  0  0  0  0  0  0  0  0
   45.0950   29.6100   49.1770 N   0  0  0  0  0  0  0  0  0  0  0  0
   45.1990   33.9150   47.8560 H   0  0  0  0  0  0  0  0  0  0  0  0
   44.1800   29.5980   49.7000 H   0  0  0  0  0  0  0  0  0  0  0  0
   45.8100   28.8580   49.3860 H   0  0  0  0  0  0  0  0  0  0  0  0
   46.1790   33.5680   45.2970 C   0  0  2  0  0  0  0  0  0  0  0  0
   44.9690   34.6630   45.5090 C   0  0  0  0  0  0  0  0  0  0  0  0
   44.7450   35.5850   44.4310 C   0  0  0  0  0  0  0  0  0  0  0  0
   45.5550   35.5020   43.2120 C   0  0  1  0  0  0  0  0  0  0  0  0
   46.6160   34.5030   43.1820 C   0  0  0  0  0  0  0  0  0  0  0  0
   46.1620   33.2740   43.9350 C   0  0  0  0  0  0  0  0  0  0  0  0
   46.9900   34.2840   45.6320 H   0  0  0  0  0  0  0  0  0  0  0  0
   44.2840   34.8260   46.3320 H   0  0  0  0  0  0  0  0  0  0  0  0
   43.9750   36.3060   44.5290 H   0  0  0  0  0  0  0  0  0  0  0  0
   45.9790   36.5070   43.0010 H   0  0  0  0  0  0  0  0  0  0  0  0
   46.8660   34.2820   42.1050 H   0  0  0  0  0  0  0  0  0  0  0  0
   47.5710   34.8220   43.6380 H   0  0  0  0  0  0  0  0  0  0  0  0
   47.0200   32.6250   43.6160 H   0  0  0  0  0  0  0  0  0  0  0  0
   45.2130   32.8820   43.5070 H   0  0  0  0  0  0  0  0  0  0  0  0
   44.5480   35.2250   42.0560 C   0  0  0  0  0  0  0  0  0  0  0  0
   43.5140   34.3870   42.4360 F   0  0  0  0  0  0  0  0  0  0  0  0
   43.9670   36.4490   41.7390 F   0  0  0  0  0  0  0  0  0  0  0  0
   45.2360   34.8030   40.9350 F   0  0  0  0  0  0  0  0  0  0  0  0
   46.7330   30.5570   44.9570 C   0  0  0  0  0  0  0  0  0  0  0  0
   46.3360   29.9230   43.8240 C   0  0  0  0  0  0  0  0  0  0  0  0
   47.4800   29.4010   43.1960 C   0  0  0  0  0  0  0  0  0  0  0  0
   48.5030   29.7440   43.9780 N   0  0  0  0  0  0  0  0  0  0  0  0
   48.0910   30.4250   45.0210 N   0  0  0  0  0  0  0  0  0  0  0  0
   45.2760   29.9250   43.6060 H   0  0  0  0  0  0  0  0  0  0  0  0
   47.3820   28.8650   42.2860 H   0  0  0  0  0  0  0  0  0  0  0  0
   49.8910   29.3780   43.6570 C   0  0  0  0  0  0  0  0  0  0  0  0
   50.6090   29.1130   44.9810 C   0  0  0  0  0  1  0  0  0  0  0  0
   50.6160   30.5050   42.9930 C   0  0  0  0  0  1  0  0  0  0  0  0
   49.8400   28.1050   42.8750 C   0  0  0  0  0  1  0  0  0  0  0  0
  1  8  1  0  0  0  0
  1  6  1  0  0  0  0
  2  1  2  0  0  0  0
  3  2  1  0  0  0  0
  3  4  2  0  0  0  0
  4  5  1  0  0  0  0
  5  6  2  0  0  0  0
  5  7  1  0  0  0  0
  7 10  1  0  0  0  0
  7  9  1  0  0  0  0
 11 12  1  0  0  0  0
 11 17  1  1  0  0  0
 11  2  1  0  0  0  0
 12 18  1  0  0  0  0
 13 19  1  0  0  0  0
 13 12  2  0  0  0  0
 14 20  1  6  0  0  0
 14 13  1  0  0  0  0
 15 14  1  0  0  0  0
 15 22  1  0  0  0  0
 15 16  1  0  0  0  0
 16 11  1  0  0  0  0
 21 15  1  0  0  0  0
 23 16  1  0  0  0  0
 24 16  1  0  0  0  0
 25 26  1  0  0  0  0
 25 14  1  0  0  0  0
 27 25  1  0  0  0  0
 28 25  1  0  0  0  0
 29 33  2  0  0  0  0
 29  3  1  0  0  0  0
 30 29  1  0  0  0  0
 31 30  2  0  0  0  0
 31 32  1  0  0  0  0
 32 33  1  0  0  0  0
 34 30  1  0  0  0  0
 35 31  1  0  0  0  0
 36 32  1  0  0  0  0
 36 37  1  0  0  0  0
 38 36  1  0  0  0  0
 39 36  1  0  0  0  0
M  END
>  <minimizedAffinity>
-5.69063091

>  <minimizedRMSD>
0.171414778

$$$$
