
 OpenBabel03232520553D

 34 36  0  0  1  0  0  0  0  0999 V2000
   46.1620   33.6610   45.3300 C   0  0  2  0  0  0  0  0  0  0  0  0
   45.0180   34.7290   45.4880 C   0  0  0  0  0  0  0  0  0  0  0  0
   44.7860   35.6060   44.3750 C   0  0  0  0  0  0  0  0  0  0  0  0
   45.5750   35.4940   43.1480 C   0  0  1  0  0  0  0  0  0  0  0  0
   46.6690   34.5220   43.1610 C   0  0  0  0  0  0  0  0  0  0  0  0
   46.2710   33.2990   43.9450 C   0  0  0  0  0  0  0  0  0  0  0  0
   46.9900   34.3690   45.6720 H   0  0  0  0  0  0  0  0  0  0  0  0
   44.3160   34.9840   46.2750 H   0  0  0  0  0  0  0  0  0  0  0  0
   44.0390   36.3520   44.3950 H   0  0  0  0  0  0  0  0  0  0  0  0
   45.9790   36.4980   42.8910 H   0  0  0  0  0  0  0  0  0  0  0  0
   47.6390   34.9460   43.5360 H   0  0  0  0  0  0  0  0  0  0  0  0
   46.8640   34.1990   42.1050 H   0  0  0  0  0  0  0  0  0  0  0  0
   45.3110   32.9530   43.5070 H   0  0  0  0  0  0  0  0  0  0  0  0
   47.0480   32.5760   43.6600 H   0  0  0  0  0  0  0  0  0  0  0  0
   45.1270   32.8880   47.4060 C   0  0  0  0  0  0  0  0  0  0  0  0
   45.9600   32.6800   46.3470 C   0  0  0  0  0  0  0  0  0  0  0  0
   46.5820   31.4190   46.2800 C   0  0  0  0  0  0  0  0  0  0  0  0
   46.3700   30.4800   47.2050 N   0  0  0  0  0  0  0  0  0  0  0  0
   45.5230   30.7150   48.2680 C   0  0  0  0  0  0  0  0  0  0  0  0
   44.9240   31.9000   48.3460 N   0  0  0  0  0  0  0  0  0  0  0  0
   45.3010   29.7050   49.2340 N   0  0  0  0  0  0  0  0  0  0  0  0
   44.6370   33.8250   47.4960 H   0  0  0  0  0  0  0  0  0  0  0  0
   44.3430   29.2490   49.1810 H   0  0  0  0  0  0  0  0  0  0  0  0
   46.0870   29.5190   49.8880 H   0  0  0  0  0  0  0  0  0  0  0  0
   47.4380   30.7830   45.3350 N   0  0  0  0  0  0  0  0  0  0  0  0
   47.5720   30.7690   43.8630 C   0  0  0  0  0  0  0  0  0  0  0  0
   48.9510   30.2860   43.5060 C   0  0  0  0  0  0  0  0  0  0  0  0
   48.9550   28.8880   43.7120 O   0  0  0  0  0  0  0  0  0  0  0  0
   48.6860   28.6690   45.0350 C   0  0  0  0  0  0  0  0  0  0  0  0
   48.4620   29.9060   45.8650 C   0  0  0  0  0  0  0  0  0  0  0  0
   44.5870   35.1660   42.0030 C   0  0  0  0  0  0  0  0  0  0  0  0
   43.6040   34.2740   42.3810 F   0  0  0  0  0  0  0  0  0  0  0  0
   43.9320   36.3590   41.6890 F   0  0  0  0  0  0  0  0  0  0  0  0
   45.2820   34.7670   40.8790 F   0  0  0  0  0  0  0  0  0  0  0  0
  1  2  1  0  0  0  0
  1  7  1  1  0  0  0
  1 16  1  0  0  0  0
  2  8  1  0  0  0  0
  3  9  1  0  0  0  0
  3  2  2  0  0  0  0
  4 10  1  6  0  0  0
  4  5  1  0  0  0  0
  4  3  1  0  0  0  0
  5 11  1  0  0  0  0
  5  6  1  0  0  0  0
  6  1  1  0  0  0  0
 12  5  1  0  0  0  0
 13  6  1  0  0  0  0
 14  6  1  0  0  0  0
 15 22  1  0  0  0  0
 15 20  1  0  0  0  0
 16 15  2  0  0  0  0
 17 16  1  0  0  0  0
 17 18  2  0  0  0  0
 18 19  1  0  0  0  0
 19 20  2  0  0  0  0
 19 21  1  0  0  0  0
 21 24  1  0  0  0  0
 23 21  1  0  0  0  0
 25 30  1  0  0  0  0
 25 17  1  0  0  0  0
 26 25  1  0  0  0  0
 27 28  1  0  0  0  0
 27 26  1  0  0  0  0
 28 29  1  0  0  0  0
 29 30  1  0  0  0  0
 31 32  1  0  0  0  0
 31  4  1  0  0  0  0
 33 31  1  0  0  0  0
 34 31  1  0  0  0  0
M  END
>  <minimizedAffinity>
-5.72108078

>  <minimizedRMSD>
0.738046706

$$$$
