
 OpenBabel03232520583D

 41 44  0  0  1  0  0  0  0  0999 V2000
   45.3640   32.8570   47.4850 C   0  0  0  0  0  0  0  0  0  0  0  0
   45.9210   32.6160   46.2710 C   0  0  0  0  0  0  0  0  0  0  0  0
   46.1960   31.2710   46.0130 C   0  0  0  0  0  0  0  0  0  0  0  0
   45.9350   30.2660   46.8870 N   0  0  0  0  0  0  0  0  0  0  0  0
   45.3650   30.5650   48.1150 C   0  0  0  0  0  0  0  0  0  0  0  0
   45.0970   31.8380   48.3810 N   0  0  0  0  0  0  0  0  0  0  0  0
   45.0970   29.5410   49.0580 N   0  0  0  0  0  0  0  0  0  0  0  0
   45.1160   33.8620   47.7900 H   0  0  0  0  0  0  0  0  0  0  0  0
   45.9490   28.9100   49.1410 H   0  0  0  0  0  0  0  0  0  0  0  0
   44.2660   29.3420   49.6220 H   0  0  0  0  0  0  0  0  0  0  0  0
   46.1680   33.5800   45.2530 C   0  0  2  0  0  0  0  0  0  0  0  0
   44.9590   34.6710   45.5010 C   0  0  0  0  0  0  0  0  0  0  0  0
   44.7240   35.6130   44.4430 C   0  0  0  0  0  0  0  0  0  0  0  0
   45.5210   35.5570   43.2160 C   0  0  1  0  0  0  0  0  0  0  0  0
   46.5810   34.5530   43.1510 C   0  0  0  0  0  0  0  0  0  0  0  0
   46.1320   33.3110   43.8860 C   0  0  0  0  0  0  0  0  0  0  0  0
   46.9850   34.2870   45.5910 H   0  0  0  0  0  0  0  0  0  0  0  0
   44.2850   34.8130   46.3380 H   0  0  0  0  0  0  0  0  0  0  0  0
   43.9560   36.3340   44.5640 H   0  0  0  0  0  0  0  0  0  0  0  0
   45.9500   36.5680   43.0310 H   0  0  0  0  0  0  0  0  0  0  0  0
   46.7580   34.3280   42.0570 H   0  0  0  0  0  0  0  0  0  0  0  0
   47.5860   34.8720   43.5200 H   0  0  0  0  0  0  0  0  0  0  0  0
   46.9860   32.6660   43.5480 H   0  0  0  0  0  0  0  0  0  0  0  0
   45.1780   32.9810   43.4240 H   0  0  0  0  0  0  0  0  0  0  0  0
   44.5070   35.3060   42.0620 C   0  0  0  0  0  0  0  0  0  0  0  0
   43.4350   34.5220   42.4570 F   0  0  0  0  0  0  0  0  0  0  0  0
   43.9780   36.5500   41.7270 F   0  0  0  0  0  0  0  0  0  0  0  0
   45.1780   34.8370   40.9480 F   0  0  0  0  0  0  0  0  0  0  0  0
   46.8400   30.5930   44.9020 C   0  0  0  0  0  0  0  0  0  0  0  0
   46.5050   29.8160   43.8400 C   0  0  0  0  0  0  0  0  0  0  0  0
   47.6840   29.4590   43.1710 C   0  0  0  0  0  0  0  0  0  0  0  0
   48.6720   30.0350   43.8570 N   0  0  0  0  0  0  0  0  0  0  0  0
   48.1990   30.7080   44.8800 N   0  0  0  0  0  0  0  0  0  0  0  0
   45.4590   29.6100   43.6890 H   0  0  0  0  0  0  0  0  0  0  0  0
   47.6490   28.8390   42.2920 H   0  0  0  0  0  0  0  0  0  0  0  0
   51.6580   29.8400   44.8160 H   0  0  0  0  0  0  0  0  0  0  0  0
   50.7980   29.3200   44.5830 N   0  0  0  0  0  0  0  0  0  0  0  0
   51.0320   27.9380   44.2080 C   0  0  0  0  0  2  0  0  0  0  0  0
   51.3620   28.0870   42.7280 C   0  0  0  0  0  2  0  0  0  0  0  0
   50.2810   29.0420   42.2700 C   0  0  0  0  0  2  0  0  0  0  0  0
   50.0860   29.9000   43.4730 C   0  0  1  0  0  3  0  0  0  0  0  0
  1  8  1  0  0  0  0
  1  6  1  0  0  0  0
  2  1  2  0  0  0  0
  3  2  1  0  0  0  0
  3  4  2  0  0  0  0
  4  5  1  0  0  0  0
  5  6  2  0  0  0  0
  5  7  1  0  0  0  0
  7  9  1  0  0  0  0
  7 10  1  0  0  0  0
 11 12  1  0  0  0  0
 11 17  1  1  0  0  0
 11  2  1  0  0  0  0
 12 18  1  0  0  0  0
 13 19  1  0  0  0  0
 13 12  2  0  0  0  0
 14 20  1  6  0  0  0
 14 13  1  0  0  0  0
 15 14  1  0  0  0  0
 15 22  1  0  0  0  0
 15 16  1  0  0  0  0
 16 11  1  0  0  0  0
 21 15  1  0  0  0  0
 23 16  1  0  0  0  0
 24 16  1  0  0  0  0
 25 26  1  0  0  0  0
 25 14  1  0  0  0  0
 27 25  1  0  0  0  0
 28 25  1  0  0  0  0
 29  3  1  0  0  0  0
 30 29  1  0  0  0  0
 31 30  2  0  0  0  0
 31 32  1  0  0  0  0
 32 33  1  0  0  0  0
 33 29  2  0  0  0  0
 34 30  1  0  0  0  0
 35 31  1  0  0  0  0
 37 36  1  0  0  0  0
 38 37  1  0  0  0  0
 39 38  1  0  0  0  0
 40 39  1  0  0  0  0
 41 40  1  6  0  0  0
 41 32  1  0  0  0  0
 41 37  1  0  0  0  0
M  END
>  <minimizedAffinity>
-5.58234549

>  <minimizedRMSD>
0.509591162

$$$$
