
 OpenBabel03232520593D

 41 44  0  0  1  0  0  0  0  0999 V2000
   45.5720   32.8960   47.4510 C   0  0  0  0  0  0  0  0  0  0  0  0
   45.9820   32.6420   46.1830 C   0  0  0  0  0  0  0  0  0  0  0  0
   46.1240   31.2870   45.8770 C   0  0  0  0  0  0  0  0  0  0  0  0
   45.8750   30.2840   46.7570 N   0  0  0  0  0  0  0  0  0  0  0  0
   45.4580   30.5960   48.0420 C   0  0  0  0  0  0  0  0  0  0  0  0
   45.3180   31.8800   48.3540 N   0  0  0  0  0  0  0  0  0  0  0  0
   45.2080   29.5740   48.9910 N   0  0  0  0  0  0  0  0  0  0  0  0
   45.4350   33.9100   47.7960 H   0  0  0  0  0  0  0  0  0  0  0  0
   46.0130   28.8790   48.9770 H   0  0  0  0  0  0  0  0  0  0  0  0
   44.4260   29.4250   49.6350 H   0  0  0  0  0  0  0  0  0  0  0  0
   46.1990   33.6080   45.1600 C   0  0  2  0  0  0  0  0  0  0  0  0
   44.9740   34.6780   45.4220 C   0  0  0  0  0  0  0  0  0  0  0  0
   44.7080   35.6140   44.3650 C   0  0  0  0  0  0  0  0  0  0  0  0
   45.4910   35.5690   43.1270 C   0  0  1  0  0  0  0  0  0  0  0  0
   46.5670   34.5840   43.0500 C   0  0  0  0  0  0  0  0  0  0  0  0
   46.1500   33.3360   43.7930 C   0  0  0  0  0  0  0  0  0  0  0  0
   47.0070   34.3300   45.4850 H   0  0  0  0  0  0  0  0  0  0  0  0
   44.3080   34.8100   46.2670 H   0  0  0  0  0  0  0  0  0  0  0  0
   43.9300   36.3210   44.4950 H   0  0  0  0  0  0  0  0  0  0  0  0
   45.8990   36.5870   42.9350 H   0  0  0  0  0  0  0  0  0  0  0  0
   46.7340   34.3600   41.9550 H   0  0  0  0  0  0  0  0  0  0  0  0
   47.5710   34.9210   43.4050 H   0  0  0  0  0  0  0  0  0  0  0  0
   47.0100   32.7050   43.4450 H   0  0  0  0  0  0  0  0  0  0  0  0
   45.1960   32.9880   43.3450 H   0  0  0  0  0  0  0  0  0  0  0  0
   44.4660   35.2980   41.9880 C   0  0  0  0  0  0  0  0  0  0  0  0
   43.4110   34.5000   42.3990 F   0  0  0  0  0  0  0  0  0  0  0  0
   43.9150   36.5320   41.6540 F   0  0  0  0  0  0  0  0  0  0  0  0
   45.1290   34.8340   40.8670 F   0  0  0  0  0  0  0  0  0  0  0  0
   46.5970   30.5870   44.6950 C   0  0  0  0  0  0  0  0  0  0  0  0
   46.0930   29.9870   43.5870 C   0  0  0  0  0  0  0  0  0  0  0  0
   47.1620   29.4560   42.8530 C   0  0  0  0  0  0  0  0  0  0  0  0
   48.2580   29.7590   43.5490 N   0  0  0  0  0  0  0  0  0  0  0  0
   47.9510   30.4260   44.6370 N   0  0  0  0  0  0  0  0  0  0  0  0
   45.0240   30.0110   43.4550 H   0  0  0  0  0  0  0  0  0  0  0  0
   46.9870   28.9320   41.9290 H   0  0  0  0  0  0  0  0  0  0  0  0
   50.3460   29.6910   41.2010 H   0  0  0  0  0  0  0  0  0  0  0  0
   49.9780   30.2240   42.0050 N   0  0  0  0  0  0  0  0  0  0  0  0
   50.9220   31.1770   42.5560 C   0  0  0  0  0  2  0  0  0  0  0  0
   51.7260   30.2870   43.4940 C   0  0  0  0  0  2  0  0  0  0  0  0
   50.6300   29.5030   44.1840 C   0  0  0  0  0  2  0  0  0  0  0  0
   49.6080   29.3730   43.1080 C   0  0  1  0  0  3  0  0  0  0  0  0
  1  8  1  0  0  0  0
  1  6  1  0  0  0  0
  2  1  2  0  0  0  0
  3  2  1  0  0  0  0
  3  4  2  0  0  0  0
  4  5  1  0  0  0  0
  5  6  2  0  0  0  0
  5  7  1  0  0  0  0
  7 10  1  0  0  0  0
  9  7  1  0  0  0  0
 11 12  1  0  0  0  0
 11 17  1  1  0  0  0
 11  2  1  0  0  0  0
 12 18  1  0  0  0  0
 13 19  1  0  0  0  0
 13 12  2  0  0  0  0
 14 20  1  6  0  0  0
 14 13  1  0  0  0  0
 15 14  1  0  0  0  0
 15 22  1  0  0  0  0
 15 16  1  0  0  0  0
 16 11  1  0  0  0  0
 21 15  1  0  0  0  0
 23 16  1  0  0  0  0
 24 16  1  0  0  0  0
 25 26  1  0  0  0  0
 25 14  1  0  0  0  0
 27 25  1  0  0  0  0
 28 25  1  0  0  0  0
 29  3  1  0  0  0  0
 30 29  1  0  0  0  0
 31 32  1  0  0  0  0
 31 30  2  0  0  0  0
 32 33  1  0  0  0  0
 33 29  2  0  0  0  0
 34 30  1  0  0  0  0
 35 31  1  0  0  0  0
 36 37  1  0  0  0  0
 37 38  1  0  0  0  0
 37 41  1  0  0  0  0
 38 39  1  0  0  0  0
 39 40  1  0  0  0  0
 41 32  1  1  0  0  0
 41 40  1  0  0  0  0
M  END
>  <minimizedAffinity>
-5.79624462

>  <minimizedRMSD>
0.375892639

$$$$
