
 OpenBabel03232519193D

 30 32  0  0  1  0  0  0  0  0999 V2000
   47.2800   31.9080   47.1150 N   0  0  0  0  0  0  0  0  0  0  0  0
   47.3670   31.9770   48.5660 C   0  0  0  0  0  0  0  0  0  0  0  0
   45.9440   32.3410   48.9390 C   0  0  0  0  0  0  0  0  0  0  0  0
   45.0890   31.5520   48.0090 C   0  0  0  0  0  0  0  0  0  0  0  0
   46.0160   31.4630   46.7660 C   0  0  2  0  0  0  0  0  0  0  0  0
   47.7430   32.6670   46.6290 H   0  0  0  0  0  0  0  0  0  0  0  0
   48.0130   32.8570   48.8420 H   0  0  0  0  0  0  0  0  0  0  0  0
   47.7140   31.0520   49.0220 H   0  0  0  0  0  0  0  0  0  0  0  0
   45.7350   32.0980   50.0090 H   0  0  0  0  0  0  0  0  0  0  0  0
   45.7900   33.4280   48.7450 H   0  0  0  0  0  0  0  0  0  0  0  0
   44.1520   32.0690   47.7180 H   0  0  0  0  0  0  0  0  0  0  0  0
   44.8720   30.5820   48.4550 H   0  0  0  0  0  0  0  0  0  0  0  0
   45.9370   30.0450   46.4410 N   0  0  1  0  0  0  0  0  0  0  0  0
   44.8280   29.3240   46.9020 C   0  0  0  0  0  0  0  0  0  0  0  0
   45.1800   27.9260   46.3460 C   0  0  0  0  0  0  0  0  0  0  0  0
   46.0840   28.1990   45.1410 C   0  0  0  0  0  0  0  0  0  0  0  0
   46.0080   29.7320   45.0570 C   0  0  0  0  0  0  0  0  0  0  0  0
   45.0900   29.9180   44.4660 H   0  0  0  0  0  0  0  0  0  0  0  0
   45.5380   32.0600   45.6250 O   0  0  0  0  0  0  0  0  0  0  0  0
   45.7570   33.4420   45.3010 C   0  0  0  0  0  0  0  0  0  0  0  0
   45.2330   34.3180   46.0110 O   0  0  0  0  0  0  0  0  0  0  0  0
   48.4880   33.2680   42.8930 C   0  0  0  0  0  0  0  0  0  0  0  0
   48.2300   34.3160   42.0070 C   0  0  0  0  0  0  0  0  0  0  0  0
   47.0870   35.0820   42.2350 C   0  0  0  0  0  0  0  0  0  0  0  0
   46.2850   34.7560   43.3230 N   0  0  0  0  0  0  0  0  0  0  0  0
   46.6090   33.7180   44.1400 C   0  0  0  0  0  0  0  0  0  0  0  0
   47.6910   32.9910   43.9230 N   0  0  0  0  0  0  0  0  0  0  0  0
   49.3850   32.6820   42.6970 H   0  0  0  0  0  0  0  0  0  0  0  0
   48.8260   34.5980   41.1560 H   0  0  0  0  0  0  0  0  0  0  0  0
   46.7470   35.9240   41.6440 H   0  0  0  0  0  0  0  0  0  0  0  0
  1  2  1  0  0  0  0
  2  7  1  0  0  0  0
  2  3  1  0  0  0  0
  2  8  1  0  0  0  0
  3  9  1  0  0  0  0
  4 12  1  0  0  0  0
  4  3  1  0  0  0  0
  5 19  1  6  0  0  0
  5  1  1  0  0  0  0
  5  4  1  0  0  0  0
  6  1  1  0  0  0  0
 10  3  1  0  0  0  0
 11  4  1  0  0  0  0
 13  5  1  0  0  0  0
 13 14  1  6  0  0  0
 15 14  1  0  0  0  0
 16 15  1  0  0  0  0
 17 16  1  0  0  0  0
 17 13  1  0  0  0  0
 18 17  1  0  0  0  0
 20 19  1  0  0  0  0
 20 21  2  0  0  0  0
 22 27  1  0  0  0  0
 23 24  1  0  0  0  0
 23 22  2  0  0  0  0
 24 25  2  0  0  0  0
 25 26  1  0  0  0  0
 26 20  1  0  0  0  0
 27 26  2  0  0  0  0
 28 22  1  0  0  0  0
 29 23  1  0  0  0  0
 30 24  1  0  0  0  0
M  END
>  <minimizedAffinity>
-4.32695103

>  <minimizedRMSD>
3.77499437

$$$$
