
 OpenBabel03232520493D

 29 31  0  0  1  0  0  0  0  0999 V2000
   46.3310   33.4960   45.7080 C   0  0  2  0  0  0  0  0  0  0  0  0
   45.1050   34.3860   45.7070 C   0  0  0  0  0  0  0  0  0  0  0  0
   44.8630   35.1610   44.5120 C   0  0  0  0  0  0  0  0  0  0  0  0
   45.7680   35.0850   43.3660 C   0  0  1  0  0  0  0  0  0  0  0  0
   46.9650   34.2090   43.5100 C   0  0  0  0  0  0  0  0  0  0  0  0
   46.6090   33.0040   44.3200 C   0  0  0  0  0  0  0  0  0  0  0  0
   47.1550   34.2040   46.0240 H   0  0  0  0  0  0  0  0  0  0  0  0
   44.3640   34.5500   46.4520 H   0  0  0  0  0  0  0  0  0  0  0  0
   44.0190   35.8010   44.4570 H   0  0  0  0  0  0  0  0  0  0  0  0
   46.1620   36.1150   43.2010 H   0  0  0  0  0  0  0  0  0  0  0  0
   47.8280   34.7020   44.0180 H   0  0  0  0  0  0  0  0  0  0  0  0
   47.3360   33.8820   42.5340 H   0  0  0  0  0  0  0  0  0  0  0  0
   47.4590   32.2920   44.3310 H   0  0  0  0  0  0  0  0  0  0  0  0
   45.6890   32.4970   43.9880 H   0  0  0  0  0  0  0  0  0  0  0  0
   45.2920   32.6460   47.7780 C   0  0  0  0  0  0  0  0  0  0  0  0
   46.1650   32.4390   46.7080 C   0  0  0  0  0  0  0  0  0  0  0  0
   46.8530   31.2140   46.6640 C   0  0  0  0  0  0  0  0  0  0  0  0
   46.6510   30.2980   47.6400 N   0  0  0  0  0  0  0  0  0  0  0  0
   45.7970   30.5330   48.6660 C   0  0  0  0  0  0  0  0  0  0  0  0
   45.1230   31.7010   48.7310 N   0  0  0  0  0  0  0  0  0  0  0  0
   44.7070   33.5450   47.9220 H   0  0  0  0  0  0  0  0  0  0  0  0
   47.5410   30.9820   45.8700 H   0  0  0  0  0  0  0  0  0  0  0  0
   45.6110   29.8230   49.4650 H   0  0  0  0  0  0  0  0  0  0  0  0
   44.9960   34.7830   42.1780 N   0  0  1  0  0  0  0  0  0  0  0  0
   44.2840   33.5620   42.2370 C   0  0  0  0  0  0  0  0  0  0  0  0
   43.0330   33.7170   41.4010 C   0  0  0  0  0  0  0  0  0  0  0  0
   43.0830   35.1350   40.9060 C   0  0  0  0  0  0  0  0  0  0  0  0
   44.1070   35.8300   41.7800 C   0  0  0  0  0  0  0  0  0  0  0  0
   43.5890   36.3050   42.6430 H   0  0  0  0  0  0  0  0  0  0  0  0
  1  7  1  1  0  0  0
  1 16  1  0  0  0  0
  2  1  1  0  0  0  0
  2  8  1  0  0  0  0
  3  2  2  0  0  0  0
  4 10  1  6  0  0  0
  4  5  1  0  0  0  0
  4  3  1  0  0  0  0
  5 11  1  0  0  0  0
  5  6  1  0  0  0  0
  6 13  1  0  0  0  0
  6  1  1  0  0  0  0
  9  3  1  0  0  0  0
 12  5  1  0  0  0  0
 14  6  1  0  0  0  0
 15 21  1  0  0  0  0
 15 20  1  0  0  0  0
 16 15  2  0  0  0  0
 17 16  1  0  0  0  0
 17 18  2  0  0  0  0
 18 19  1  0  0  0  0
 19 20  2  0  0  0  0
 19 23  1  0  0  0  0
 22 17  1  0  0  0  0
 24 25  1  1  0  0  0
 24  4  1  0  0  0  0
 26 25  1  0  0  0  0
 27 26  1  0  0  0  0
 27 28  1  0  0  0  0
 28 24  1  0  0  0  0
 28 29  1  0  0  0  0
M  END
>  <minimizedAffinity>
-5.0278883

>  <minimizedRMSD>
0.907648683

$$$$
