
 OpenBabel03232520373D

 16 17  0  0  0  0  0  0  0  0999 V2000
   44.6790   35.0870   45.4130 C   0  0  0  0  0  0  0  0  0  0  0  0
   45.3960   34.9050   44.2060 C   0  0  0  0  0  0  0  0  0  0  0  0
   46.3680   33.8950   44.1470 C   0  0  0  0  0  0  0  0  0  0  0  0
   46.5790   33.1270   45.2740 N   0  0  0  0  0  0  0  0  0  0  0  0
   45.8580   33.3490   46.4060 C   0  0  0  0  0  0  0  0  0  0  0  0
   44.9310   34.3080   46.4700 N   0  0  0  0  0  0  0  0  0  0  0  0
   43.9280   35.8660   45.4600 H   0  0  0  0  0  0  0  0  0  0  0  0
   46.9460   33.7140   43.2490 H   0  0  0  0  0  0  0  0  0  0  0  0
   46.1290   32.5280   47.5090 N   0  0  0  0  0  0  0  0  0  0  0  0
   47.4220   31.9350   47.7910 C   0  0  0  0  0  0  0  0  0  0  0  0
   46.9960   30.5640   48.2770 C   0  0  0  0  0  0  0  0  0  0  0  0
   45.9030   30.9430   49.2520 C   0  0  0  0  0  0  0  0  0  0  0  0
   45.2390   32.1000   48.5710 C   0  0  0  0  0  0  0  0  0  0  0  0
   45.0520   32.9590   49.2470 H   0  0  0  0  0  0  0  0  0  0  0  0
   45.0860   35.9310   42.7640 S   0  0  0  0  0  0  0  0  0  0  0  0
   46.1590   36.7780   42.4720 H   0  0  0  0  0  0  0  0  0  0  0  0
  1  7  1  0  0  0  0
  1  6  1  0  0  0  0
  2  1  2  0  0  0  0
  3  2  1  0  0  0  0
  3  4  2  0  0  0  0
  4  5  1  0  0  0  0
  5  6  2  0  0  0  0
  5  9  1  0  0  0  0
  8  3  1  0  0  0  0
  9 10  1  0  0  0  0
  9 13  1  0  0  0  0
 10 11  1  0  0  0  0
 11 12  1  0  0  0  0
 13 14  1  0  0  0  0
 13 12  1  0  0  0  0
 15  2  1  0  0  0  0
 16 15  1  0  0  0  0
M  END
>  <minimizedAffinity>
-4.09908438

>  <minimizedRMSD>
1.56847394

$$$$
