
 OpenBabel03232520403D

 25 27  0  0  1  0  0  0  0  0999 V2000
   43.8320   35.5110   41.9030 C   0  0  0  0  0  0  0  0  0  0  0  0
   43.2320   34.8180   40.8190 C   0  0  0  0  0  0  0  0  0  0  0  0
   44.0090   33.9630   40.0690 C   0  0  0  0  0  0  0  0  0  0  0  0
   45.3190   33.8200   40.4000 N   0  0  0  0  0  0  0  0  0  0  0  0
   45.8730   34.4860   41.4330 C   0  0  0  0  0  0  0  0  0  0  0  0
   45.1310   35.3330   42.1890 N   0  0  0  0  0  0  0  0  0  0  0  0
   43.1900   36.1680   42.4650 H   0  0  0  0  0  0  0  0  0  0  0  0
   43.5540   33.4330   39.2460 H   0  0  0  0  0  0  0  0  0  0  0  0
   47.2770   34.3510   41.8080 C   0  0  0  0  0  0  0  0  0  0  0  0
   48.1170   35.4480   41.7120 C   0  0  0  0  0  0  0  0  0  0  0  0
   49.4610   35.3390   42.0650 C   0  0  0  0  0  0  0  0  0  0  0  0
   49.9830   34.1480   42.5140 C   0  0  0  0  0  0  0  0  0  0  0  0
   49.1050   33.0870   42.5910 C   0  0  0  0  0  0  0  0  0  0  0  0
   47.8130   33.2090   42.2460 N   0  0  0  0  0  0  0  0  0  0  0  0
   47.7320   36.3930   41.3640 H   0  0  0  0  0  0  0  0  0  0  0  0
   50.0580   36.2590   41.9600 H   0  0  0  0  0  0  0  0  0  0  0  0
   51.0240   34.0810   42.7830 H   0  0  0  0  0  0  0  0  0  0  0  0
   49.4470   32.1200   42.9360 H   0  0  0  0  0  0  0  0  0  0  0  0
   41.4720   35.1040   40.4980 S   0  0  0  0  0  0  0  0  0  0  0  0
   40.2800   31.9250   39.4610 H   0  0  0  0  0  0  0  0  0  0  0  0
   40.3960   32.7600   40.0670 N   0  0  0  0  0  0  0  0  0  0  0  0
   39.2010   33.1350   40.7820 C   0  0  0  0  0  0  0  0  0  0  0  0
   38.5310   34.2050   39.9720 C   0  0  0  0  0  0  0  0  0  0  0  0
   39.4550   34.4160   38.7790 C   0  0  0  0  0  0  0  0  0  0  0  0
   40.8030   33.9390   39.3110 C   0  0  1  0  0  0  0  0  0  0  0  0
  1  6  1  0  0  0  0
  1  7  1  0  0  0  0
  2  1  2  0  0  0  0
  3  4  2  0  0  0  0
  3  2  1  0  0  0  0
  4  5  1  0  0  0  0
  5  9  1  0  0  0  0
  5  6  2  0  0  0  0
  8  3  1  0  0  0  0
  9 14  1  0  0  0  0
 10  9  2  0  0  0  0
 10 11  1  0  0  0  0
 11 12  2  0  0  0  0
 12 13  1  0  0  0  0
 12 17  1  0  0  0  0
 13 18  1  0  0  0  0
 14 13  2  0  0  0  0
 15 10  1  0  0  0  0
 16 11  1  0  0  0  0
 19  2  1  0  0  0  0
 20 21  1  0  0  0  0
 21 22  1  0  0  0  0
 23 22  1  0  0  0  0
 24 25  1  0  0  0  0
 24 23  1  0  0  0  0
 25 21  1  0  0  0  0
 25 19  1  1  0  0  0
M  END
>  <minimizedAffinity>
-5.31456947

>  <minimizedRMSD>
0.995758832

$$$$
