
 OpenBabel03232517033D

 24 25  0  0  1  0  0  0  0  0999 V2000
   44.5070   35.5720   43.2680 C   0  0  1  0  0  0  0  0  0  0  0  0
   43.5750   35.7050   43.8680 H   0  0  0  0  0  0  0  0  0  0  0  0
   45.3300   34.6290   44.0770 C   0  0  0  0  0  0  0  0  0  0  0  0
   46.4090   34.0260   43.3990 C   0  0  0  0  0  0  0  0  0  0  0  0
   47.2250   33.1280   44.1040 C   0  0  0  0  0  0  0  0  0  0  0  0
   46.9230   32.8920   45.4180 N   0  0  0  0  0  0  0  0  0  0  0  0
   45.8790   33.4880   46.0360 C   0  0  0  0  0  0  0  0  0  0  0  0
   45.0900   34.3500   45.3660 N   0  0  0  0  0  0  0  0  0  0  0  0
   46.7450   34.1280   42.3970 H   0  0  0  0  0  0  0  0  0  0  0  0
   48.0770   32.6100   43.6920 H   0  0  0  0  0  0  0  0  0  0  0  0
   45.6550   33.2900   47.0750 H   0  0  0  0  0  0  0  0  0  0  0  0
   45.1120   36.9610   43.2320 C   0  0  0  0  0  0  0  0  0  0  0  0
   46.1590   36.8470   42.8590 H   0  0  0  0  0  0  0  0  0  0  0  0
   45.1690   37.3240   44.2750 H   0  0  0  0  0  0  0  0  0  0  0  0
   44.5370   37.5710   42.5410 H   0  0  0  0  0  0  0  0  0  0  0  0
   44.2640   35.0290   41.8790 C   0  0  0  0  0  0  0  0  0  0  0  0
   44.2450   33.9270   41.9000 H   0  0  0  0  0  0  0  0  0  0  0  0
   45.1470   35.3010   41.2610 H   0  0  0  0  0  0  0  0  0  0  0  0
   43.1340   35.5890   41.2070 N   0  0  0  0  0  0  0  0  0  0  0  0
   41.8680   35.3420   41.8150 C   0  0  0  0  0  0  0  0  0  0  0  0
   40.9260   35.8040   40.7070 C   0  0  0  0  0  0  0  0  0  0  0  0
   41.6480   35.3210   39.4660 C   0  0  0  0  0  0  0  0  0  0  0  0
   42.9930   34.8390   39.9620 C   0  0  0  0  0  0  0  0  0  0  0  0
   43.8130   35.0580   39.2550 H   0  0  0  0  0  0  0  0  0  0  0  0
  1  2  1  1  0  0  0
  1  3  1  0  0  0  0
  3  8  1  0  0  0  0
  4  3  2  0  0  0  0
  4  5  1  0  0  0  0
  5  6  2  0  0  0  0
  6  7  1  0  0  0  0
  7 11  1  0  0  0  0
  8  7  2  0  0  0  0
  9  4  1  0  0  0  0
 10  5  1  0  0  0  0
 12  1  1  0  0  0  0
 12 14  1  0  0  0  0
 13 12  1  0  0  0  0
 15 12  1  0  0  0  0
 16 17  1  0  0  0  0
 16  1  1  0  0  0  0
 18 16  1  0  0  0  0
 19 20  1  0  0  0  0
 19 16  1  0  0  0  0
 21 20  1  0  0  0  0
 22 23  1  0  0  0  0
 22 21  1  0  0  0  0
 23 19  1  0  0  0  0
 24 23  1  0  0  0  0
M  END
>  <minimizedAffinity>
-4.09654713

>  <minimizedRMSD>
0.749611795

$$$$
