
 OpenBabel03232520593D

 41 44  0  0  1  0  0  0  0  0999 V2000
   45.4840   32.9330   47.4430 C   0  0  0  0  0  0  0  0  0  0  0  0
   45.9440   32.6600   46.1950 C   0  0  0  0  0  0  0  0  0  0  0  0
   46.1310   31.3020   45.9270 C   0  0  0  0  0  0  0  0  0  0  0  0
   45.8790   30.3140   46.8230 N   0  0  0  0  0  0  0  0  0  0  0  0
   45.4110   30.6450   48.0850 C   0  0  0  0  0  0  0  0  0  0  0  0
   45.2270   31.9310   48.3620 N   0  0  0  0  0  0  0  0  0  0  0  0
   45.1550   29.6380   49.0500 N   0  0  0  0  0  0  0  0  0  0  0  0
   45.3090   33.9500   47.7580 H   0  0  0  0  0  0  0  0  0  0  0  0
   45.9780   28.9650   49.0790 H   0  0  0  0  0  0  0  0  0  0  0  0
   44.3560   29.4840   49.6710 H   0  0  0  0  0  0  0  0  0  0  0  0
   46.1700   33.6080   45.1570 C   0  0  2  0  0  0  0  0  0  0  0  0
   44.9710   34.7070   45.4170 C   0  0  0  0  0  0  0  0  0  0  0  0
   44.7140   35.6340   44.3510 C   0  0  0  0  0  0  0  0  0  0  0  0
   45.4820   35.5560   43.1060 C   0  0  1  0  0  0  0  0  0  0  0  0
   46.5360   34.5470   43.0310 C   0  0  0  0  0  0  0  0  0  0  0  0
   46.1000   33.3190   43.7950 C   0  0  0  0  0  0  0  0  0  0  0  0
   46.9970   34.3160   45.4640 H   0  0  0  0  0  0  0  0  0  0  0  0
   44.3180   34.8650   46.2680 H   0  0  0  0  0  0  0  0  0  0  0  0
   43.9530   36.3600   44.4800 H   0  0  0  0  0  0  0  0  0  0  0  0
   45.9090   36.5620   42.8960 H   0  0  0  0  0  0  0  0  0  0  0  0
   46.6860   34.3050   41.9370 H   0  0  0  0  0  0  0  0  0  0  0  0
   47.5510   34.8670   43.3710 H   0  0  0  0  0  0  0  0  0  0  0  0
   46.9430   32.6650   43.4470 H   0  0  0  0  0  0  0  0  0  0  0  0
   45.1340   32.9850   43.3610 H   0  0  0  0  0  0  0  0  0  0  0  0
   44.4390   35.2920   41.9810 C   0  0  0  0  0  0  0  0  0  0  0  0
   43.3880   34.4970   42.4060 F   0  0  0  0  0  0  0  0  0  0  0  0
   43.8880   36.5290   41.6590 F   0  0  0  0  0  0  0  0  0  0  0  0
   45.0840   34.8290   40.8500 F   0  0  0  0  0  0  0  0  0  0  0  0
   46.6620   30.5890   44.7790 C   0  0  0  0  0  0  0  0  0  0  0  0
   46.2230   29.7900   43.7740 C   0  0  0  0  0  0  0  0  0  0  0  0
   47.3300   29.4020   43.0070 C   0  0  0  0  0  0  0  0  0  0  0  0
   48.3830   29.9850   43.5820 N   0  0  0  0  0  0  0  0  0  0  0  0
   48.0150   30.6890   44.6270 N   0  0  0  0  0  0  0  0  0  0  0  0
   45.1650   29.5910   43.7270 H   0  0  0  0  0  0  0  0  0  0  0  0
   47.2080   28.7610   42.1510 H   0  0  0  0  0  0  0  0  0  0  0  0
   50.3550   28.3010   41.8060 H   0  0  0  0  0  0  0  0  0  0  0  0
   49.6860   29.0870   41.8350 N   0  0  0  0  0  0  0  0  0  0  0  0
   49.8950   30.0710   40.7900 C   0  0  0  0  0  2  0  0  0  0  0  0
   50.9710   30.9440   41.4180 C   0  0  0  0  0  2  0  0  0  0  0  0
   50.4360   31.1260   42.8220 C   0  0  0  0  0  2  0  0  0  0  0  0
   49.7540   29.8240   43.0710 C   0  0  1  0  0  3  0  0  0  0  0  0
  1  8  1  0  0  0  0
  1  6  1  0  0  0  0
  2  1  2  0  0  0  0
  3  2  1  0  0  0  0
  3  4  2  0  0  0  0
  4  5  1  0  0  0  0
  5  6  2  0  0  0  0
  5  7  1  0  0  0  0
  7  9  1  0  0  0  0
  7 10  1  0  0  0  0
 11 12  1  0  0  0  0
 11 17  1  1  0  0  0
 11  2  1  0  0  0  0
 12 18  1  0  0  0  0
 13 19  1  0  0  0  0
 13 12  2  0  0  0  0
 14 20  1  6  0  0  0
 14 13  1  0  0  0  0
 15 14  1  0  0  0  0
 15 22  1  0  0  0  0
 15 16  1  0  0  0  0
 16 11  1  0  0  0  0
 21 15  1  0  0  0  0
 23 16  1  0  0  0  0
 24 16  1  0  0  0  0
 25 26  1  0  0  0  0
 25 14  1  0  0  0  0
 27 25  1  0  0  0  0
 28 25  1  0  0  0  0
 29  3  1  0  0  0  0
 30 29  1  0  0  0  0
 31 32  1  0  0  0  0
 31 30  2  0  0  0  0
 32 33  1  0  0  0  0
 33 29  2  0  0  0  0
 34 30  1  0  0  0  0
 35 31  1  0  0  0  0
 36 37  1  0  0  0  0
 37 41  1  0  0  0  0
 38 39  1  0  0  0  0
 38 37  1  0  0  0  0
 39 40  1  0  0  0  0
 41 40  1  6  0  0  0
 41 32  1  0  0  0  0
M  END
>  <minimizedAffinity>
-5.69912004

>  <minimizedRMSD>
0.522755027

$$$$
