
 OpenBabel03232520593D

 41 44  0  0  1  0  0  0  0  0999 V2000
   45.4830   32.9340   47.4410 C   0  0  0  0  0  0  0  0  0  0  0  0
   45.9430   32.6600   46.1950 C   0  0  0  0  0  0  0  0  0  0  0  0
   46.1320   31.3020   45.9280 C   0  0  0  0  0  0  0  0  0  0  0  0
   45.8800   30.3150   46.8250 N   0  0  0  0  0  0  0  0  0  0  0  0
   45.4100   30.6470   48.0860 C   0  0  0  0  0  0  0  0  0  0  0  0
   45.2250   31.9330   48.3610 N   0  0  0  0  0  0  0  0  0  0  0  0
   45.1550   29.6410   49.0520 N   0  0  0  0  0  0  0  0  0  0  0  0
   45.3070   33.9510   47.7550 H   0  0  0  0  0  0  0  0  0  0  0  0
   45.9780   28.9680   49.0830 H   0  0  0  0  0  0  0  0  0  0  0  0
   44.3550   29.4870   49.6730 H   0  0  0  0  0  0  0  0  0  0  0  0
   46.1690   33.6070   45.1550 C   0  0  2  0  0  0  0  0  0  0  0  0
   44.9730   34.7080   45.4160 C   0  0  0  0  0  0  0  0  0  0  0  0
   44.7150   35.6340   44.3490 C   0  0  0  0  0  0  0  0  0  0  0  0
   45.4820   35.5540   43.1030 C   0  0  1  0  0  0  0  0  0  0  0  0
   46.5350   34.5440   43.0280 C   0  0  0  0  0  0  0  0  0  0  0  0
   46.0980   33.3160   43.7940 C   0  0  0  0  0  0  0  0  0  0  0  0
   46.9980   34.3150   45.4610 H   0  0  0  0  0  0  0  0  0  0  0  0
   44.3200   34.8670   46.2670 H   0  0  0  0  0  0  0  0  0  0  0  0
   43.9550   36.3610   44.4780 H   0  0  0  0  0  0  0  0  0  0  0  0
   45.9100   36.5600   42.8920 H   0  0  0  0  0  0  0  0  0  0  0  0
   46.6830   34.3000   41.9340 H   0  0  0  0  0  0  0  0  0  0  0  0
   47.5500   34.8630   43.3670 H   0  0  0  0  0  0  0  0  0  0  0  0
   46.9400   32.6610   43.4450 H   0  0  0  0  0  0  0  0  0  0  0  0
   45.1310   32.9830   43.3610 H   0  0  0  0  0  0  0  0  0  0  0  0
   44.4380   35.2900   41.9800 C   0  0  0  0  0  0  0  0  0  0  0  0
   43.3880   34.4930   42.4050 F   0  0  0  0  0  0  0  0  0  0  0  0
   43.8840   36.5270   41.6600 F   0  0  0  0  0  0  0  0  0  0  0  0
   45.0810   34.8290   40.8470 F   0  0  0  0  0  0  0  0  0  0  0  0
   46.6640   30.5870   44.7810 C   0  0  0  0  0  0  0  0  0  0  0  0
   46.2260   29.7850   43.7780 C   0  0  0  0  0  0  0  0  0  0  0  0
   47.3340   29.3990   43.0120 C   0  0  0  0  0  0  0  0  0  0  0  0
   48.3860   29.9850   43.5850 N   0  0  0  0  0  0  0  0  0  0  0  0
   48.0160   30.6900   44.6290 N   0  0  0  0  0  0  0  0  0  0  0  0
   45.1690   29.5850   43.7310 H   0  0  0  0  0  0  0  0  0  0  0  0
   47.2130   28.7560   42.1570 H   0  0  0  0  0  0  0  0  0  0  0  0
   50.3610   28.3020   41.8130 H   0  0  0  0  0  0  0  0  0  0  0  0
   49.6900   29.0850   41.8400 N   0  0  0  0  0  0  0  0  0  0  0  0
   49.8960   30.0670   40.7920 C   0  0  0  0  0  2  0  0  0  0  0  0
   50.9710   30.9450   41.4170 C   0  0  0  0  0  2  0  0  0  0  0  0
   50.4370   31.1290   42.8210 C   0  0  0  0  0  2  0  0  0  0  0  0
   49.7570   29.8260   43.0740 C   0  0  1  0  0  3  0  0  0  0  0  0
  1  8  1  0  0  0  0
  1  6  1  0  0  0  0
  2  1  2  0  0  0  0
  3  2  1  0  0  0  0
  3  4  2  0  0  0  0
  4  5  1  0  0  0  0
  5  6  2  0  0  0  0
  5  7  1  0  0  0  0
  7  9  1  0  0  0  0
  7 10  1  0  0  0  0
 11 12  1  0  0  0  0
 11 17  1  1  0  0  0
 11  2  1  0  0  0  0
 12 18  1  0  0  0  0
 13 19  1  0  0  0  0
 13 12  2  0  0  0  0
 14 20  1  6  0  0  0
 14 13  1  0  0  0  0
 15 14  1  0  0  0  0
 15 22  1  0  0  0  0
 15 16  1  0  0  0  0
 16 11  1  0  0  0  0
 21 15  1  0  0  0  0
 23 16  1  0  0  0  0
 24 16  1  0  0  0  0
 25 26  1  0  0  0  0
 25 14  1  0  0  0  0
 27 25  1  0  0  0  0
 28 25  1  0  0  0  0
 29  3  1  0  0  0  0
 30 29  1  0  0  0  0
 31 32  1  0  0  0  0
 31 30  2  0  0  0  0
 32 33  1  0  0  0  0
 33 29  2  0  0  0  0
 34 30  1  0  0  0  0
 35 31  1  0  0  0  0
 36 37  1  0  0  0  0
 37 41  1  0  0  0  0
 38 39  1  0  0  0  0
 38 37  1  0  0  0  0
 39 40  1  0  0  0  0
 41 40  1  6  0  0  0
 41 32  1  0  0  0  0
M  END
>  <minimizedAffinity>
-5.69870186

>  <minimizedRMSD>
0.390069783

$$$$
