
     RDKit          3D

 43 46  0  0  0  0  0  0  0  0999 V2000
   46.1570   33.5997   45.2800 C   0  0  2  0  0  0  0  0  0  0  0  0
   44.9135   34.6597   45.4976 C   0  0  0  0  0  0  0  0  0  0  0  0
   44.6799   35.5890   44.4287 C   0  0  0  0  0  0  0  0  0  0  0  0
   45.5029   35.5469   43.2182 C   0  0  1  0  0  0  0  0  0  0  0  0
   46.5877   34.5715   43.1835 C   0  0  0  0  0  0  0  0  0  0  0  0
   46.1538   33.3224   43.9149 C   0  0  0  0  0  0  0  0  0  0  0  0
   45.4041   32.8839   47.5318 C   0  0  0  0  0  0  0  0  0  0  0  0
   45.9201   32.6357   46.2999 C   0  0  0  0  0  0  0  0  0  0  0  0
   46.1514   31.2844   46.0276 C   0  0  0  0  0  0  0  0  0  0  0  0
   45.8876   30.2835   46.9066 N   0  0  0  0  0  0  0  0  0  0  0  0
   45.3616   30.5869   48.1511 C   0  0  0  0  0  0  0  0  0  0  0  0
   45.1345   31.8709   48.4305 N   0  0  0  0  0  0  0  0  0  0  0  0
   45.0894   29.5670   49.0934 N   0  0  0  0  0  0  0  0  0  0  0  0
   46.7492   30.5976   44.8981 C   0  0  0  0  0  0  0  0  0  0  0  0
   46.3652   29.9225   43.7838 C   0  0  0  0  0  0  0  0  0  0  0  0
   47.5141   29.4711   43.1222 C   0  0  0  0  0  0  0  0  0  0  0  0
   48.5340   29.8947   43.8666 N   0  0  0  0  0  0  0  0  0  0  0  0
   48.1124   30.5589   44.9160 N   0  0  0  0  0  0  0  0  0  0  0  0
   44.5157   35.2655   42.0468 C   0  0  0  0  0  0  0  0  0  0  0  0
   43.4624   34.4503   42.4227 F   0  0  0  0  0  0  0  0  0  0  0  0
   43.9616   36.4949   41.7018 F   0  0  0  0  0  0  0  0  0  0  0  0
   45.2198   34.8180   40.9463 F   0  0  0  0  0  0  0  0  0  0  0  0
   46.9250   34.3517   45.6336 H   0  0  0  0  0  0  0  0  0  0  0  0
   44.2209   34.7831   46.3215 H   0  0  0  0  0  0  0  0  0  0  0  0
   43.8938   36.2874   44.5282 H   0  0  0  0  0  0  0  0  0  0  0  0
   45.9109   36.5634   43.0360 H   0  0  0  0  0  0  0  0  0  0  0  0
   47.4732   34.9920   43.7439 H   0  0  0  0  0  0  0  0  0  0  0  0
   46.8839   34.3926   42.1280 H   0  0  0  0  0  0  0  0  0  0  0  0
   47.0252   32.6930   43.5918 H   0  0  0  0  0  0  0  0  0  0  0  0
   45.2126   32.9748   43.4400 H   0  0  0  0  0  0  0  0  0  0  0  0
   45.1917   33.8943   47.8459 H   0  0  0  0  0  0  0  0  0  0  0  0
   44.1317   29.3255   49.3855 H   0  0  0  0  0  0  0  0  0  0  0  0
   45.8401   28.9957   49.5514 H   0  0  0  0  0  0  0  0  0  0  0  0
   45.3005   29.8463   43.5972 H   0  0  0  0  0  0  0  0  0  0  0  0
   47.4294   28.9065   42.2052 H   0  0  0  0  0  0  0  0  0  0  0  0
   49.9201   29.6133   43.4922 C   0  0  0  0  0  0  0  0  0  0  0  0
   50.8754   28.8524   43.9613 C   0  0  0  0  0  0  0  0  0  0  0  0
   52.0976   28.8256   43.3475 C   0  0  0  0  0  0  0  0  0  0  0  0
   52.2454   29.6342   42.2324 C   0  0  0  0  0  0  0  0  0  0  0  0
   50.5319   30.4426   42.1045 S   0  0  0  0  0  0  0  0  0  0  0  0
   50.5972   28.2827   44.8393 H   0  0  0  0  0  0  0  0  0  0  0  0
   52.9040   28.1905   43.7343 H   0  0  0  0  0  0  0  0  0  0  0  0
   53.2915   29.6418   41.6680 H   0  0  0  0  0  0  0  0  0  0  0  0
  1  2  1  0
  1  8  1  0
  3  2  2  0
  4  3  1  0
  5  4  1  0
  5  6  1  0
  6  1  1  0
  7 12  2  0
  8  7  1  0
  9  8  2  0
  9 10  1  0
 10 11  2  0
 11 12  1  0
 11 13  1  0
 14 18  2  0
 14  9  1  0
 15 14  1  0
 16 15  2  0
 16 17  1  0
 17 18  1  0
 19 20  1  0
 19  4  1  0
 21 19  1  0
 22 19  1  0
  1 23  1  1
  2 24  1  0
  3 25  1  0
  4 26  1  6
  5 27  1  0
  5 28  1  0
  6 29  1  0
  6 30  1  0
  7 31  1  0
 13 32  1  0
 13 33  1  0
 15 34  1  0
 16 35  1  0
 36 37  2  0
 37 38  1  0
 38 39  2  0
 39 40  1  0
 40 36  1  0
 37 41  1  0
 38 42  1  0
 39 43  1  0
 17 36  1  0
M  ISO  8  23  13  24  13  25  13  26  13  27  13  28  13  29  13  30  13
M  ISO  3  31  14  34  14  35  14
M  END
>  <DihAtoms>  (1) 
15,16,35,36

>  <DihDeg>  (1) 
115.14973087854618

$$$$
