
 OpenBabel03232520043D

 32 34  0  0  0  0  0  0  0  0999 V2000
   46.1990   30.3760   49.0820 N   0  0  0  0  0  0  0  0  0  0  0  0
   45.3450   31.3900   49.3990 C   0  0  0  0  0  0  0  0  0  0  0  0
   45.2620   32.2290   48.3470 N   0  0  0  0  0  0  0  0  0  0  0  0
   46.0670   31.7120   47.4020 C   0  0  0  0  0  0  0  0  0  0  0  0
   46.3000   32.2310   46.1470 C   0  0  0  0  0  0  0  0  0  0  0  0
   47.1550   31.5500   45.3390 N   0  0  0  0  0  0  0  0  0  0  0  0
   47.7590   30.4090   45.7380 C   0  0  0  0  0  0  0  0  0  0  0  0
   47.4980   29.9420   46.9750 N   0  0  0  0  0  0  0  0  0  0  0  0
   46.6790   30.5460   47.8200 C   0  0  0  0  0  0  0  0  0  0  0  0
   46.4760   29.5650   49.6870 H   0  0  0  0  0  0  0  0  0  0  0  0
   44.8220   31.5110   50.3310 H   0  0  0  0  0  0  0  0  0  0  0  0
   48.6530   29.7070   44.8790 N   0  0  0  0  0  0  0  0  0  0  0  0
   48.9350   30.1840   43.5830 C   0  0  0  0  0  0  0  0  0  0  0  0
   48.5640   31.3820   43.2700 N   0  0  0  0  0  0  0  0  0  0  0  0
   49.6240   29.2790   42.7050 N   0  0  0  0  0  0  0  0  0  0  0  0
   49.0950   28.8300   45.2300 H   0  0  0  0  0  0  0  0  0  0  0  0
   48.7810   31.7200   42.3060 H   0  0  0  0  0  0  0  0  0  0  0  0
   49.4250   28.7550   41.8210 H   0  0  0  0  0  0  0  0  0  0  0  0
   50.5980   29.0700   43.0150 H   0  0  0  0  0  0  0  0  0  0  0  0
   45.6240   33.6930   45.4310 S   0  0  0  0  0  0  0  0  0  0  0  0
   47.7540   34.7490   42.3250 C   0  0  0  0  0  0  0  0  0  0  0  0
   47.0230   34.4060   41.1950 C   0  0  0  0  0  0  0  0  0  0  0  0
   45.7820   33.8040   41.4010 C   0  0  0  0  0  0  0  0  0  0  0  0
   45.3780   33.5980   42.6900 N   0  0  0  0  0  0  0  0  0  0  0  0
   46.1340   33.9540   43.7470 C   0  0  0  0  0  0  0  0  0  0  0  0
   47.3150   34.5260   43.5620 N   0  0  0  0  0  0  0  0  0  0  0  0
   47.3640   34.5800   40.1770 H   0  0  0  0  0  0  0  0  0  0  0  0
   45.1360   33.5000   40.5880 H   0  0  0  0  0  0  0  0  0  0  0  0
   49.0750   35.3890   42.1200 C   0  0  0  0  0  0  0  0  0  0  0  0
   49.2520   36.1450   41.1460 O   0  0  0  0  0  0  0  0  0  0  0  0
   50.0920   35.1330   43.0160 O   0  0  0  0  0  0  0  0  0  0  0  0
   51.0620   35.0890   42.6730 H   0  0  0  0  0  0  0  0  0  0  0  0
  1  2  1  0  0  0  0
  1 10  1  0  0  0  0
  2 11  1  0  0  0  0
  3  2  2  0  0  0  0
  4  9  1  0  0  0  0
  4  3  1  0  0  0  0
  5  4  2  0  0  0  0
  6  7  2  0  0  0  0
  6  5  1  0  0  0  0
  7  8  1  0  0  0  0
  8  9  2  0  0  0  0
  9  1  1  0  0  0  0
 12 16  1  0  0  0  0
 12  7  1  0  0  0  0
 13 12  1  0  0  0  0
 14 13  2  0  0  0  0
 15 19  1  0  0  0  0
 15 13  1  0  0  0  0
 17 14  1  0  0  0  0
 18 15  1  0  0  0  0
 20  5  1  0  0  0  0
 21 26  1  0  0  0  0
 22 23  1  0  0  0  0
 22 21  2  0  0  0  0
 23 24  2  0  0  0  0
 24 25  1  0  0  0  0
 25 20  1  0  0  0  0
 26 25  2  0  0  0  0
 27 22  1  0  0  0  0
 28 23  1  0  0  0  0
 29 21  1  0  0  0  0
 29 31  1  0  0  0  0
 30 29  2  0  0  0  0
 32 31  1  0  0  0  0
M  END
>  <minimizedAffinity>
-6.02778101

>  <minimizedRMSD>
0.103004679

$$$$
