
 OpenBabel03232520403D

 24 26  0  0  0  0  0  0  0  0999 V2000
   44.0570   33.4250   39.4110 C   0  0  0  0  0  0  0  0  0  0  0  0
   45.2710   33.2350   38.7340 C   0  0  0  0  0  0  0  0  0  0  0  0
   46.4550   33.3970   39.4190 C   0  0  0  0  0  0  0  0  0  0  0  0
   46.4390   33.7420   40.7550 N   0  0  0  0  0  0  0  0  0  0  0  0
   45.2450   33.9150   41.3650 C   0  0  0  0  0  0  0  0  0  0  0  0
   44.0840   33.7570   40.6980 N   0  0  0  0  0  0  0  0  0  0  0  0
   43.1640   33.2830   38.8180 H   0  0  0  0  0  0  0  0  0  0  0  0
   47.4190   33.2620   38.9440 H   0  0  0  0  0  0  0  0  0  0  0  0
   45.1330   34.2820   42.7810 C   0  0  0  0  0  0  0  0  0  0  0  0
   44.6030   35.4890   43.1440 C   0  0  0  0  0  0  0  0  0  0  0  0
   44.4770   35.8810   44.4680 C   0  0  0  0  0  0  0  0  0  0  0  0
   44.9010   35.0250   45.4750 C   0  0  0  0  0  0  0  0  0  0  0  0
   45.4350   33.8050   45.0760 C   0  0  0  0  0  0  0  0  0  0  0  0
   45.5400   33.4620   43.7770 N   0  0  0  0  0  0  0  0  0  0  0  0
   44.2740   36.1500   42.3510 H   0  0  0  0  0  0  0  0  0  0  0  0
   44.0440   36.8570   44.6530 H   0  0  0  0  0  0  0  0  0  0  0  0
   44.8020   35.3310   46.5070 H   0  0  0  0  0  0  0  0  0  0  0  0
   45.7740   33.1200   45.8470 H   0  0  0  0  0  0  0  0  0  0  0  0
   45.3680   32.7780   36.9730 S   0  0  0  0  0  0  0  0  0  0  0  0
   46.9540   32.1270   36.5800 C   0  0  0  0  0  0  0  0  0  0  0  0
   48.0030   32.6840   35.9170 C   0  0  0  0  0  0  0  0  0  0  0  0
   49.1480   31.9450   35.7440 C   0  0  0  0  0  0  0  0  0  0  0  0
   49.2030   30.6650   36.2450 C   0  0  0  0  0  0  0  0  0  0  0  0
   47.5010   30.4210   37.0520 S   0  0  0  0  0  0  0  0  0  0  0  0
  1  6  1  0  0  0  0
  2  1  2  0  0  0  0
  2  3  1  0  0  0  0
  3  4  2  0  0  0  0
  4  5  1  0  0  0  0
  5  9  1  0  0  0  0
  6  5  2  0  0  0  0
  7  1  1  0  0  0  0
  8  3  1  0  0  0  0
  9 10  2  0  0  0  0
  9 14  1  0  0  0  0
 10 11  1  0  0  0  0
 11 16  1  0  0  0  0
 11 12  2  0  0  0  0
 12 17  1  0  0  0  0
 13 12  1  0  0  0  0
 13 18  1  0  0  0  0
 14 13  2  0  0  0  0
 15 10  1  0  0  0  0
 19  2  1  0  0  0  0
 20 19  1  0  0  0  0
 20 24  1  0  0  0  0
 21 20  2  0  0  0  0
 22 21  1  0  0  0  0
 22 23  2  0  0  0  0
 23 24  1  0  0  0  0
M  END
>  <minimizedAffinity>
-3.85075235

>  <minimizedRMSD>
7.33790827

$$$$
