
 OpenBabel03232520083D

 24 25  0  0  0  0  0  0  0  0999 V2000
   45.9850   33.0030   46.7530 C   0  0  0  0  0  0  0  0  0  0  0  0
   45.3430   32.7930   47.9570 C   0  0  0  0  0  0  0  0  0  0  0  0
   45.8580   31.8980   48.8450 C   0  0  0  0  0  0  0  0  0  0  0  0
   47.0320   31.2430   48.4610 C   0  0  0  0  0  0  0  0  0  0  0  0
   47.3780   31.9090   46.8440 S   0  0  0  0  0  0  0  0  0  0  0  0
   44.4360   33.3660   48.1390 H   0  0  0  0  0  0  0  0  0  0  0  0
   45.4060   31.6870   49.8010 H   0  0  0  0  0  0  0  0  0  0  0  0
   44.4570   35.7000   44.8100 C   0  0  0  0  0  0  0  0  0  0  0  0
   45.0670   35.4940   43.5390 C   0  0  0  0  0  0  0  0  0  0  0  0
   45.9930   34.4290   43.3840 C   0  0  0  0  0  0  0  0  0  0  0  0
   46.2500   33.6480   44.4780 N   0  0  0  0  0  0  0  0  0  0  0  0
   45.6490   33.8780   45.6640 C   0  0  0  0  0  0  0  0  0  0  0  0
   44.7670   34.8860   45.8350 N   0  0  0  0  0  0  0  0  0  0  0  0
   43.7710   36.5280   44.8400 H   0  0  0  0  0  0  0  0  0  0  0  0
   44.8570   36.1190   42.6780 H   0  0  0  0  0  0  0  0  0  0  0  0
   46.4640   34.2520   42.4480 H   0  0  0  0  0  0  0  0  0  0  0  0
   47.8320   30.2860   49.0920 N   0  0  0  0  0  0  0  0  0  0  0  0
   49.0150   30.6630   49.7800 C   0  0  0  0  0  0  0  0  0  0  0  0
   49.7120   31.6520   49.2790 N   0  0  0  0  0  0  0  0  0  0  0  0
   49.4030   29.9630   50.9780 N   0  0  0  0  0  0  0  0  0  0  0  0
   47.5620   29.2800   49.0610 H   0  0  0  0  0  0  0  0  0  0  0  0
   50.5860   31.9520   49.7620 H   0  0  0  0  0  0  0  0  0  0  0  0
   48.8790   29.9300   51.8720 H   0  0  0  0  0  0  0  0  0  0  0  0
   50.2610   29.3700   51.1710 H   0  0  0  0  0  0  0  0  0  0  0  0
  1  5  1  0  0  0  0
  1  2  2  0  0  0  0
  2  6  1  0  0  0  0
  2  3  1  0  0  0  0
  3  7  1  0  0  0  0
  4  3  2  0  0  0  0
  4 17  1  0  0  0  0
  5  4  1  0  0  0  0
  8 14  1  0  0  0  0
  8 13  1  0  0  0  0
  9  8  2  0  0  0  0
 10  9  1  0  0  0  0
 10 11  2  0  0  0  0
 11 12  1  0  0  0  0
 12 13  2  0  0  0  0
 12  1  1  0  0  0  0
 15  9  1  0  0  0  0
 16 10  1  0  0  0  0
 17 18  1  0  0  0  0
 18 20  1  0  0  0  0
 19 22  1  0  0  0  0
 19 18  2  0  0  0  0
 20 24  1  0  0  0  0
 20 23  1  0  0  0  0
 21 17  1  0  0  0  0
M  END
>  <minimizedAffinity>
-5.24281216

>  <minimizedRMSD>
0.574555278

$$$$
