
 OpenBabel03232520403D

 26 28  0  0  0  0  0  0  0  0999 V2000
   44.0080   35.5610   42.8250 C   0  0  0  0  0  0  0  0  0  0  0  0
   43.2850   35.1590   41.6840 C   0  0  0  0  0  0  0  0  0  0  0  0
   43.9660   34.5180   40.6730 C   0  0  0  0  0  0  0  0  0  0  0  0
   45.3140   34.2850   40.7870 N   0  0  0  0  0  0  0  0  0  0  0  0
   45.9610   34.6990   41.9180 C   0  0  0  0  0  0  0  0  0  0  0  0
   45.3300   35.3290   42.9300 N   0  0  0  0  0  0  0  0  0  0  0  0
   43.4830   36.0690   43.6320 H   0  0  0  0  0  0  0  0  0  0  0  0
   43.4230   34.2040   39.7920 H   0  0  0  0  0  0  0  0  0  0  0  0
   47.4030   34.4770   42.0970 C   0  0  0  0  0  0  0  0  0  0  0  0
   48.2800   35.5160   41.9620 C   0  0  0  0  0  0  0  0  0  0  0  0
   49.6470   35.3370   42.1260 C   0  0  0  0  0  0  0  0  0  0  0  0
   50.1600   34.0900   42.4330 C   0  0  0  0  0  0  0  0  0  0  0  0
   49.2430   33.0640   42.5610 C   0  0  0  0  0  0  0  0  0  0  0  0
   47.9210   33.2620   42.3980 N   0  0  0  0  0  0  0  0  0  0  0  0
   47.8930   36.4960   41.7230 H   0  0  0  0  0  0  0  0  0  0  0  0
   50.3560   36.1480   42.0230 H   0  0  0  0  0  0  0  0  0  0  0  0
   51.2030   33.8450   42.5800 H   0  0  0  0  0  0  0  0  0  0  0  0
   49.4710   32.0320   42.7960 H   0  0  0  0  0  0  0  0  0  0  0  0
   41.5120   35.4750   41.5540 S   0  0  0  0  0  0  0  0  0  0  0  0
   40.9040   34.6450   40.1090 C   0  0  0  0  0  0  0  0  0  0  0  0
   40.7160   35.3760   38.9710 C   0  0  0  0  0  0  0  0  0  0  0  0
   40.2400   34.7190   37.8450 C   0  0  0  0  0  0  0  0  0  0  0  0
   39.9890   33.4060   37.9330 N   0  0  0  0  0  0  0  0  0  0  0  0
   40.1770   32.6900   39.0610 C   0  0  0  0  0  0  0  0  0  0  0  0
   39.9860   31.6370   39.1610 H   0  0  0  0  0  0  0  0  0  0  0  0
   40.6360   33.3250   40.1460 N   0  0  0  0  0  0  0  0  0  0  0  0
  1  6  1  0  0  0  0
  1  7  1  0  0  0  0
  2  1  2  0  0  0  0
  3  4  2  0  0  0  0
  3  2  1  0  0  0  0
  4  5  1  0  0  0  0
  5  9  1  0  0  0  0
  5  6  2  0  0  0  0
  8  3  1  0  0  0  0
  9 14  1  0  0  0  0
 10  9  2  0  0  0  0
 10 11  1  0  0  0  0
 11 12  2  0  0  0  0
 12 13  1  0  0  0  0
 12 17  1  0  0  0  0
 13 18  1  0  0  0  0
 14 13  2  0  0  0  0
 15 10  1  0  0  0  0
 16 11  1  0  0  0  0
 19  2  1  0  0  0  0
 20 26  1  0  0  0  0
 20 19  1  0  0  0  0
 21 20  2  0  0  0  0
 22 23  2  0  0  0  0
 22 21  1  0  0  0  0
 23 24  1  0  0  0  0
 24 25  1  0  0  0  0
 24 26  2  0  0  0  0
M  END
>  <minimizedAffinity>
-5.37109995

>  <minimizedRMSD>
0.648380041

$$$$
