
 OpenBabel03232520593D

 42 45  0  0  1  0  0  0  0  0999 V2000
   45.3370   32.9020   47.5020 C   0  0  0  0  0  0  0  0  0  0  0  0
   45.8990   32.6440   46.2960 C   0  0  0  0  0  0  0  0  0  0  0  0
   46.1810   31.2970   46.0580 C   0  0  0  0  0  0  0  0  0  0  0  0
   45.9190   30.3050   46.9470 N   0  0  0  0  0  0  0  0  0  0  0  0
   45.3420   30.6300   48.1670 C   0  0  0  0  0  0  0  0  0  0  0  0
   45.0690   31.8990   48.4110 N   0  0  0  0  0  0  0  0  0  0  0  0
   45.0930   29.6130   49.1290 N   0  0  0  0  0  0  0  0  0  0  0  0
   45.0840   33.9110   47.7880 H   0  0  0  0  0  0  0  0  0  0  0  0
   44.1360   29.4290   49.5440 H   0  0  0  0  0  0  0  0  0  0  0  0
   45.8630   28.9940   49.4720 H   0  0  0  0  0  0  0  0  0  0  0  0
   46.1500   33.5920   45.2630 C   0  0  2  0  0  0  0  0  0  0  0  0
   44.9450   34.6940   45.4970 C   0  0  0  0  0  0  0  0  0  0  0  0
   44.7230   35.6300   44.4300 C   0  0  0  0  0  0  0  0  0  0  0  0
   45.5190   35.5500   43.2030 C   0  0  1  0  0  0  0  0  0  0  0  0
   46.5670   34.5420   43.1520 C   0  0  0  0  0  0  0  0  0  0  0  0
   46.1130   33.3080   43.9000 C   0  0  0  0  0  0  0  0  0  0  0  0
   46.9260   34.3450   45.6030 H   0  0  0  0  0  0  0  0  0  0  0  0
   44.2700   34.8450   46.3270 H   0  0  0  0  0  0  0  0  0  0  0  0
   43.9600   36.3540   44.5430 H   0  0  0  0  0  0  0  0  0  0  0  0
   45.9500   36.5540   43.0030 H   0  0  0  0  0  0  0  0  0  0  0  0
   47.5520   34.8830   43.5580 H   0  0  0  0  0  0  0  0  0  0  0  0
   46.7920   34.3260   42.0660 H   0  0  0  0  0  0  0  0  0  0  0  0
   46.9560   32.6530   43.5600 H   0  0  0  0  0  0  0  0  0  0  0  0
   45.1530   32.9720   43.4540 H   0  0  0  0  0  0  0  0  0  0  0  0
   44.4970   35.2890   42.0550 C   0  0  0  0  0  0  0  0  0  0  0  0
   43.4340   34.4960   42.4530 F   0  0  0  0  0  0  0  0  0  0  0  0
   43.9610   36.5310   41.7240 F   0  0  0  0  0  0  0  0  0  0  0  0
   45.1610   34.8260   40.9360 F   0  0  0  0  0  0  0  0  0  0  0  0
   46.8330   30.6030   44.9590 C   0  0  0  0  0  0  0  0  0  0  0  0
   46.5000   29.8080   43.9110 C   0  0  0  0  0  0  0  0  0  0  0  0
   47.6810   29.4450   43.2500 C   0  0  0  0  0  0  0  0  0  0  0  0
   48.6660   30.0360   43.9280 N   0  0  0  0  0  0  0  0  0  0  0  0
   48.1920   30.7240   44.9390 N   0  0  0  0  0  0  0  0  0  0  0  0
   45.4570   29.5950   43.7600 H   0  0  0  0  0  0  0  0  0  0  0  0
   47.6530   28.8160   42.3890 H   0  0  0  0  0  0  0  0  0  0  0  0
   50.0530   29.9030   43.5540 C   0  0  0  0  0  0  0  0  0  0  0  0
   50.9550   29.2470   44.3630 C   0  0  0  0  0  3  0  0  0  0  0  0
   52.2890   29.0960   44.0460 C   0  0  0  0  0  3  0  0  0  0  0  0
   52.7120   29.6240   42.8820 N   0  0  0  0  0  0  0  0  0  0  0  0
   51.8260   30.2720   42.0820 C   0  0  0  0  0  0  0  0  0  0  0  0
   52.2630   30.6500   41.1880 H   0  0  0  0  0  0  0  0  0  0  0  0
   50.5180   30.4170   42.3970 N   0  0  0  0  0  0  0  0  0  0  0  0
  1  8  1  0  0  0  0
  1  6  1  0  0  0  0
  2  1  2  0  0  0  0
  3  2  1  0  0  0  0
  3  4  2  0  0  0  0
  4  5  1  0  0  0  0
  5  6  2  0  0  0  0
  5  7  1  0  0  0  0
  7 10  1  0  0  0  0
  7  9  1  0  0  0  0
 11 12  1  0  0  0  0
 11 17  1  1  0  0  0
 11  2  1  0  0  0  0
 12 18  1  0  0  0  0
 13 19  1  0  0  0  0
 13 12  2  0  0  0  0
 14 20  1  6  0  0  0
 14 13  1  0  0  0  0
 15 14  1  0  0  0  0
 15 21  1  0  0  0  0
 15 16  1  0  0  0  0
 16 11  1  0  0  0  0
 22 15  1  0  0  0  0
 23 16  1  0  0  0  0
 24 16  1  0  0  0  0
 25 26  1  0  0  0  0
 25 14  1  0  0  0  0
 27 25  1  0  0  0  0
 28 25  1  0  0  0  0
 29  3  1  0  0  0  0
 30 29  1  0  0  0  0
 31 30  2  0  0  0  0
 31 32  1  0  0  0  0
 32 33  1  0  0  0  0
 33 29  2  0  0  0  0
 34 30  1  0  0  0  0
 35 31  1  0  0  0  0
 36 32  1  0  0  0  0
 36 37  1  0  0  0  0
 38 37  2  0  0  0  0
 39 38  1  0  0  0  0
 40 42  1  0  0  0  0
 40 39  2  0  0  0  0
 41 40  1  0  0  0  0
 42 36  2  0  0  0  0
M  END
>  <minimizedAffinity>
-5.81693983

>  <minimizedRMSD>
0.459248155

$$$$
