
 OpenBabel03232517373D

 20 21  0  0  0  0  0  0  0  0999 V2000
   45.3450   36.1660   43.2590 C   0  0  0  0  0  0  0  0  0  0  0  0
   46.0650   34.9830   43.1030 C   0  0  0  0  0  0  0  0  0  0  0  0
   46.0050   34.0400   44.1110 C   0  0  0  0  0  0  0  0  0  0  0  0
   45.2570   34.2810   45.2180 N   0  0  0  0  0  0  0  0  0  0  0  0
   44.5780   35.4230   45.3380 C   0  0  0  0  0  0  0  0  0  0  0  0
   44.6240   36.3400   44.3800 N   0  0  0  0  0  0  0  0  0  0  0  0
   45.3160   36.9790   42.5330 H   0  0  0  0  0  0  0  0  0  0  0  0
   43.9820   35.6130   46.2220 H   0  0  0  0  0  0  0  0  0  0  0  0
   46.8220   34.8160   41.9160 N   0  0  0  0  0  0  0  0  0  0  0  0
   48.0110   35.3100   41.7740 N   0  0  0  0  0  0  0  0  0  0  0  0
   48.5000   35.0020   40.5510 C   0  0  0  0  0  0  0  0  0  0  0  0
   47.4630   34.2540   39.9540 C   0  0  0  0  0  0  0  0  0  0  0  0
   46.3920   34.1380   40.8310 C   0  0  0  0  0  0  0  0  0  0  0  0
   49.4460   35.2480   40.1020 H   0  0  0  0  0  0  0  0  0  0  0  0
   47.5320   33.8400   38.9380 H   0  0  0  0  0  0  0  0  0  0  0  0
   45.4700   33.6180   40.6310 H   0  0  0  0  0  0  0  0  0  0  0  0
   46.6950   32.8080   44.0340 C   0  0  0  0  0  0  0  0  0  0  0  0
   47.9470   32.7230   44.0990 O   0  0  0  0  0  0  0  0  0  0  0  0
   46.7980   31.4670   43.9150 O   0  0  0  0  0  0  0  0  0  0  0  0
   46.5260   30.8110   44.6390 H   0  0  0  0  0  0  0  0  0  0  0  0
  1  6  1  0  0  0  0
  2  1  2  0  0  0  0
  2  3  1  0  0  0  0
  3  4  2  0  0  0  0
  4  5  1  0  0  0  0
  5  8  1  0  0  0  0
  6  5  2  0  0  0  0
  7  1  1  0  0  0  0
  9  2  1  0  0  0  0
 10  9  1  0  0  0  0
 11 10  2  0  0  0  0
 12 11  1  0  0  0  0
 12 13  2  0  0  0  0
 13  9  1  0  0  0  0
 14 11  1  0  0  0  0
 15 12  1  0  0  0  0
 16 13  1  0  0  0  0
 17 18  2  0  0  0  0
 17  3  1  0  0  0  0
 19 17  1  0  0  0  0
 19 20  1  0  0  0  0
M  END
>  <minimizedAffinity>
-4.15675402

>  <minimizedRMSD>
3.01984954

$$$$
