
 OpenBabel03232520593D

 42 45  0  0  1  0  0  0  0  0999 V2000
   45.3320   32.8950   47.5070 C   0  0  0  0  0  0  0  0  0  0  0  0
   45.9020   32.6390   46.3040 C   0  0  0  0  0  0  0  0  0  0  0  0
   46.1900   31.2920   46.0680 C   0  0  0  0  0  0  0  0  0  0  0  0
   45.9270   30.3000   46.9550 N   0  0  0  0  0  0  0  0  0  0  0  0
   45.3410   30.6220   48.1710 C   0  0  0  0  0  0  0  0  0  0  0  0
   45.0610   31.8910   48.4140 N   0  0  0  0  0  0  0  0  0  0  0  0
   45.0900   29.6050   49.1310 N   0  0  0  0  0  0  0  0  0  0  0  0
   45.0730   33.9030   47.7910 H   0  0  0  0  0  0  0  0  0  0  0  0
   44.1310   29.4160   49.5410 H   0  0  0  0  0  0  0  0  0  0  0  0
   45.8600   28.9880   49.4790 H   0  0  0  0  0  0  0  0  0  0  0  0
   46.1550   33.5880   45.2730 C   0  0  2  0  0  0  0  0  0  0  0  0
   44.9470   34.6870   45.5020 C   0  0  0  0  0  0  0  0  0  0  0  0
   44.7270   35.6230   44.4340 C   0  0  0  0  0  0  0  0  0  0  0  0
   45.5300   35.5460   43.2110 C   0  0  1  0  0  0  0  0  0  0  0  0
   46.5800   34.5390   43.1640 C   0  0  0  0  0  0  0  0  0  0  0  0
   46.1250   33.3050   43.9100 C   0  0  0  0  0  0  0  0  0  0  0  0
   46.9280   34.3420   45.6160 H   0  0  0  0  0  0  0  0  0  0  0  0
   44.2680   34.8360   46.3290 H   0  0  0  0  0  0  0  0  0  0  0  0
   43.9630   36.3450   44.5450 H   0  0  0  0  0  0  0  0  0  0  0  0
   45.9590   36.5510   43.0130 H   0  0  0  0  0  0  0  0  0  0  0  0
   47.5620   34.8820   43.5750 H   0  0  0  0  0  0  0  0  0  0  0  0
   46.8100   34.3240   42.0790 H   0  0  0  0  0  0  0  0  0  0  0  0
   46.9710   32.6510   43.5720 H   0  0  0  0  0  0  0  0  0  0  0  0
   45.1680   32.9670   43.4590 H   0  0  0  0  0  0  0  0  0  0  0  0
   44.5130   35.2830   42.0580 C   0  0  0  0  0  0  0  0  0  0  0  0
   43.4500   34.4890   42.4520 F   0  0  0  0  0  0  0  0  0  0  0  0
   43.9760   36.5250   41.7250 F   0  0  0  0  0  0  0  0  0  0  0  0
   45.1820   34.8210   40.9420 F   0  0  0  0  0  0  0  0  0  0  0  0
   46.8520   30.6020   44.9730 C   0  0  0  0  0  0  0  0  0  0  0  0
   46.5260   29.8220   43.9110 C   0  0  0  0  0  0  0  0  0  0  0  0
   47.7130   29.4490   43.2660 C   0  0  0  0  0  0  0  0  0  0  0  0
   48.6930   30.0200   43.9660 N   0  0  0  0  0  0  0  0  0  0  0  0
   48.2120   30.7040   44.9760 N   0  0  0  0  0  0  0  0  0  0  0  0
   45.4820   29.6240   43.7410 H   0  0  0  0  0  0  0  0  0  0  0  0
   47.6900   28.8300   42.3980 H   0  0  0  0  0  0  0  0  0  0  0  0
   50.0850   29.8730   43.6140 C   0  0  0  0  0  0  0  0  0  0  0  0
   50.5590   30.2550   42.3790 C   0  0  0  0  0  3  0  0  0  0  0  0
   51.8810   30.1320   42.0020 C   0  0  0  0  0  3  0  0  0  0  0  0
   52.7350   29.6090   42.9020 N   0  0  0  0  0  0  0  0  0  0  0  0
   52.2720   29.2310   44.1200 C   0  0  0  0  0  0  0  0  0  0  0  0
   53.0280   28.8310   44.7550 H   0  0  0  0  0  0  0  0  0  0  0  0
   50.9740   29.3530   44.4880 N   0  0  0  0  0  0  0  0  0  0  0  0
  1  8  1  0  0  0  0
  1  6  1  0  0  0  0
  2  1  2  0  0  0  0
  3  2  1  0  0  0  0
  3  4  2  0  0  0  0
  4  5  1  0  0  0  0
  5  6  2  0  0  0  0
  5  7  1  0  0  0  0
  7 10  1  0  0  0  0
  7  9  1  0  0  0  0
 11 12  1  0  0  0  0
 11 17  1  1  0  0  0
 11  2  1  0  0  0  0
 12 18  1  0  0  0  0
 13 19  1  0  0  0  0
 13 12  2  0  0  0  0
 14 20  1  6  0  0  0
 14 13  1  0  0  0  0
 15 14  1  0  0  0  0
 15 21  1  0  0  0  0
 15 16  1  0  0  0  0
 16 11  1  0  0  0  0
 22 15  1  0  0  0  0
 23 16  1  0  0  0  0
 24 16  1  0  0  0  0
 25 26  1  0  0  0  0
 25 14  1  0  0  0  0
 27 25  1  0  0  0  0
 28 25  1  0  0  0  0
 29 33  2  0  0  0  0
 29  3  1  0  0  0  0
 30 29  1  0  0  0  0
 31 30  2  0  0  0  0
 31 32  1  0  0  0  0
 32 33  1  0  0  0  0
 34 30  1  0  0  0  0
 35 31  1  0  0  0  0
 36 32  1  0  0  0  0
 36 42  1  0  0  0  0
 37 36  2  0  0  0  0
 38 37  1  0  0  0  0
 38 39  2  0  0  0  0
 39 40  1  0  0  0  0
 40 42  2  0  0  0  0
 40 41  1  0  0  0  0
M  END
>  <minimizedAffinity>
-5.80740786

>  <minimizedRMSD>
0.22036244

$$$$
