
 OpenBabel03232517483D

 27 29  0  0  0  0  0  0  0  0999 V2000
   47.6490   31.0720   48.2720 N   0  0  0  0  0  0  0  0  0  0  0  0
   47.6210   31.6670   47.1060 C   0  0  0  0  0  0  0  0  0  0  0  0
   46.5410   32.5160   46.9870 C   0  0  0  0  0  0  0  0  0  0  0  0
   45.8890   32.4240   48.1400 N   0  0  0  0  0  0  0  0  0  0  0  0
   46.5630   31.5500   48.9160 C   0  0  0  0  0  0  0  0  0  0  0  0
   48.3650   31.5130   46.3130 H   0  0  0  0  0  0  0  0  0  0  0  0
   46.2450   31.2820   49.9300 H   0  0  0  0  0  0  0  0  0  0  0  0
   49.1790   30.5190   49.9970 C   0  0  0  0  0  0  0  0  0  0  0  0
   48.5480   30.1560   48.7960 C   0  0  0  0  0  0  0  0  0  0  0  0
   48.8910   28.9220   48.2620 C   0  0  0  0  0  0  0  0  0  0  0  0
   49.7940   28.1530   48.9140 N   0  0  0  0  0  0  0  0  0  0  0  0
   50.3760   28.5290   50.0570 C   0  0  0  0  0  0  0  0  0  0  0  0
   50.0640   29.7250   50.6010 N   0  0  0  0  0  0  0  0  0  0  0  0
   49.0170   31.4590   50.5460 H   0  0  0  0  0  0  0  0  0  0  0  0
   48.3980   28.6470   47.3320 H   0  0  0  0  0  0  0  0  0  0  0  0
   51.0780   27.8090   50.4630 H   0  0  0  0  0  0  0  0  0  0  0  0
   46.2000   33.3340   45.8310 C   0  0  0  0  0  0  0  0  0  0  0  0
   46.6970   33.1760   44.5490 C   0  0  0  0  0  0  0  0  0  0  0  0
   46.0740   34.1930   43.8150 C   0  0  0  0  0  0  0  0  0  0  0  0
   45.2550   34.8910   44.6810 C   0  0  0  0  0  0  0  0  0  0  0  0
   45.3560   34.3560   45.8600 O   0  0  0  0  0  0  0  0  0  0  0  0
   47.4050   32.4010   44.2960 H   0  0  0  0  0  0  0  0  0  0  0  0
   46.2760   34.3190   42.7490 H   0  0  0  0  0  0  0  0  0  0  0  0
   44.4540   36.0230   44.2380 C   0  0  0  0  0  0  0  0  0  0  0  0
   44.9520   37.1680   44.2170 O   0  0  0  0  0  0  0  0  0  0  0  0
   43.1270   35.7840   43.8410 O   0  0  0  0  0  0  0  0  0  0  0  0
   42.5190   36.5660   43.5610 H   0  0  0  0  0  0  0  0  0  0  0  0
  1  9  1  0  0  0  0
  1  5  1  0  0  0  0
  2  1  1  0  0  0  0
  3  2  2  0  0  0  0
  3  4  1  0  0  0  0
  4  5  2  0  0  0  0
  5  7  1  0  0  0  0
  6  2  1  0  0  0  0
  8 14  1  0  0  0  0
  8 13  1  0  0  0  0
  9  8  2  0  0  0  0
 10  9  1  0  0  0  0
 10 11  2  0  0  0  0
 11 12  1  0  0  0  0
 12 16  1  0  0  0  0
 12 13  2  0  0  0  0
 15 10  1  0  0  0  0
 17 21  1  0  0  0  0
 17  3  1  0  0  0  0
 18 17  2  0  0  0  0
 19 18  1  0  0  0  0
 19 20  2  0  0  0  0
 20 21  1  0  0  0  0
 22 18  1  0  0  0  0
 23 19  1  0  0  0  0
 24 20  1  0  0  0  0
 25 24  2  0  0  0  0
 26 24  1  0  0  0  0
 27 26  1  0  0  0  0
M  END
>  <minimizedAffinity>
-5.47540426

>  <minimizedRMSD>
1.2884407

$$$$
