
 OpenBabel03232520593D

 42 45  0  0  1  0  0  0  0  0999 V2000
   45.3330   32.9020   47.5070 C   0  0  0  0  0  0  0  0  0  0  0  0
   45.8990   32.6440   46.3020 C   0  0  0  0  0  0  0  0  0  0  0  0
   46.1830   31.2970   46.0660 C   0  0  0  0  0  0  0  0  0  0  0  0
   45.9210   30.3050   46.9540 N   0  0  0  0  0  0  0  0  0  0  0  0
   45.3400   30.6290   48.1720 C   0  0  0  0  0  0  0  0  0  0  0  0
   45.0630   31.8990   48.4150 N   0  0  0  0  0  0  0  0  0  0  0  0
   45.0890   29.6130   49.1340 N   0  0  0  0  0  0  0  0  0  0  0  0
   45.0770   33.9100   47.7910 H   0  0  0  0  0  0  0  0  0  0  0  0
   44.1310   29.4270   49.5460 H   0  0  0  0  0  0  0  0  0  0  0  0
   45.8590   28.9950   49.4800 H   0  0  0  0  0  0  0  0  0  0  0  0
   46.1510   33.5920   45.2700 C   0  0  2  0  0  0  0  0  0  0  0  0
   44.9460   34.6920   45.5010 C   0  0  0  0  0  0  0  0  0  0  0  0
   44.7250   35.6280   44.4320 C   0  0  0  0  0  0  0  0  0  0  0  0
   45.5240   35.5490   43.2070 C   0  0  1  0  0  0  0  0  0  0  0  0
   46.5730   34.5410   43.1590 C   0  0  0  0  0  0  0  0  0  0  0  0
   46.1180   33.3080   43.9070 C   0  0  0  0  0  0  0  0  0  0  0  0
   46.9260   34.3450   45.6110 H   0  0  0  0  0  0  0  0  0  0  0  0
   44.2680   34.8430   46.3290 H   0  0  0  0  0  0  0  0  0  0  0  0
   43.9610   36.3510   44.5440 H   0  0  0  0  0  0  0  0  0  0  0  0
   45.9540   36.5530   43.0080 H   0  0  0  0  0  0  0  0  0  0  0  0
   47.5560   34.8830   43.5680 H   0  0  0  0  0  0  0  0  0  0  0  0
   46.8010   34.3250   42.0740 H   0  0  0  0  0  0  0  0  0  0  0  0
   46.9630   32.6520   43.5680 H   0  0  0  0  0  0  0  0  0  0  0  0
   45.1600   32.9710   43.4580 H   0  0  0  0  0  0  0  0  0  0  0  0
   44.5050   35.2870   42.0570 C   0  0  0  0  0  0  0  0  0  0  0  0
   43.4410   34.4940   42.4530 F   0  0  0  0  0  0  0  0  0  0  0  0
   43.9690   36.5280   41.7240 F   0  0  0  0  0  0  0  0  0  0  0  0
   45.1710   34.8230   40.9400 F   0  0  0  0  0  0  0  0  0  0  0  0
   46.8410   30.6040   44.9690 C   0  0  0  0  0  0  0  0  0  0  0  0
   46.5110   29.8180   43.9130 C   0  0  0  0  0  0  0  0  0  0  0  0
   47.6950   29.4480   43.2610 C   0  0  0  0  0  0  0  0  0  0  0  0
   48.6780   30.0250   43.9520 N   0  0  0  0  0  0  0  0  0  0  0  0
   48.2010   30.7110   44.9630 N   0  0  0  0  0  0  0  0  0  0  0  0
   45.4670   29.6160   43.7510 H   0  0  0  0  0  0  0  0  0  0  0  0
   47.6690   28.8240   42.3960 H   0  0  0  0  0  0  0  0  0  0  0  0
   50.0680   29.8820   43.5920 C   0  0  0  0  0  0  0  0  0  0  0  0
   50.5620   30.3960   42.4140 C   0  0  0  0  0  3  0  0  0  0  0  0
   51.8830   30.2830   42.0320 C   0  0  0  0  0  3  0  0  0  0  0  0
   52.7150   29.6310   42.8660 N   0  0  0  0  0  0  0  0  0  0  0  0
   52.2320   29.1220   44.0270 C   0  0  0  0  0  0  0  0  0  0  0  0
   52.9710   28.6270   44.6110 H   0  0  0  0  0  0  0  0  0  0  0  0
   50.9350   29.2350   44.4000 N   0  0  0  0  0  0  0  0  0  0  0  0
  1  8  1  0  0  0  0
  1  6  1  0  0  0  0
  2  1  2  0  0  0  0
  3  2  1  0  0  0  0
  3  4  2  0  0  0  0
  4  5  1  0  0  0  0
  5  6  2  0  0  0  0
  5  7  1  0  0  0  0
  7 10  1  0  0  0  0
  7  9  1  0  0  0  0
 11 12  1  0  0  0  0
 11 17  1  1  0  0  0
 11  2  1  0  0  0  0
 12 18  1  0  0  0  0
 13 19  1  0  0  0  0
 13 12  2  0  0  0  0
 14 20  1  6  0  0  0
 14 13  1  0  0  0  0
 15 14  1  0  0  0  0
 15 21  1  0  0  0  0
 15 16  1  0  0  0  0
 16 11  1  0  0  0  0
 22 15  1  0  0  0  0
 23 16  1  0  0  0  0
 24 16  1  0  0  0  0
 25 26  1  0  0  0  0
 25 14  1  0  0  0  0
 27 25  1  0  0  0  0
 28 25  1  0  0  0  0
 29  3  1  0  0  0  0
 30 29  1  0  0  0  0
 31 30  2  0  0  0  0
 31 32  1  0  0  0  0
 32 33  1  0  0  0  0
 33 29  2  0  0  0  0
 34 30  1  0  0  0  0
 35 31  1  0  0  0  0
 36 32  1  0  0  0  0
 36 42  1  0  0  0  0
 37 36  2  0  0  0  0
 38 37  1  0  0  0  0
 38 39  2  0  0  0  0
 39 40  1  0  0  0  0
 40 42  2  0  0  0  0
 40 41  1  0  0  0  0
M  END
>  <minimizedAffinity>
-5.82068539

>  <minimizedRMSD>
0.218135655

$$$$
