
 OpenBabel03232519463D

 37 39  0  0  1  0  0  0  0  0999 V2000
   46.4580   33.9420   42.2820 N   0  0  0  0  0  0  0  0  0  0  0  0
   47.7870   34.2410   41.7610 C   0  0  0  0  0  0  0  0  0  0  0  0
   47.4590   34.4600   40.2970 C   0  0  0  0  0  0  0  0  0  0  0  0
   46.6200   33.2420   40.0190 C   0  0  0  0  0  0  0  0  0  0  0  0
   45.8050   33.1070   41.2610 C   0  0  2  0  0  0  0  0  0  0  0  0
   48.1600   35.1590   42.2230 H   0  0  0  0  0  0  0  0  0  0  0  0
   48.4870   33.4140   41.8570 H   0  0  0  0  0  0  0  0  0  0  0  0
   46.9360   35.4160   40.1130 H   0  0  0  0  0  0  0  0  0  0  0  0
   48.4140   34.3870   39.7370 H   0  0  0  0  0  0  0  0  0  0  0  0
   47.2790   32.3800   39.7920 H   0  0  0  0  0  0  0  0  0  0  0  0
   45.9980   33.4170   39.1100 H   0  0  0  0  0  0  0  0  0  0  0  0
   45.9990   32.0700   41.6250 H   0  0  0  0  0  0  0  0  0  0  0  0
   44.4140   33.3420   41.1270 N   0  0  0  0  0  0  0  0  0  0  0  0
   43.8010   34.2620   40.3850 C   0  0  0  0  0  0  0  0  0  0  0  0
   42.4260   34.4050   40.3280 C   0  0  0  0  0  0  0  0  0  0  0  0
   41.6250   33.5600   41.0730 C   0  0  0  0  0  0  0  0  0  0  0  0
   40.3470   33.6420   41.0630 O   0  0  0  0  0  0  0  0  0  0  0  0
   42.2420   32.6340   41.8200 N   0  0  0  0  0  0  0  0  0  0  0  0
   43.5640   32.5390   41.8400 C   0  0  0  0  0  0  0  0  0  0  0  0
   44.0460   31.6260   42.5830 O   0  0  0  0  0  0  0  0  0  0  0  0
   44.4500   34.9160   39.8060 H   0  0  0  0  0  0  0  0  0  0  0  0
   41.6410   32.0020   42.3790 H   0  0  0  0  0  0  0  0  0  0  0  0
   41.7730   35.4330   39.4970 C   0  0  0  0  0  0  0  0  0  0  0  0
   40.7740   35.0610   39.1850 H   0  0  0  0  0  0  0  0  0  0  0  0
   41.5960   36.3800   40.0210 H   0  0  0  0  0  0  0  0  0  0  0  0
   42.3680   35.5920   38.5540 H   0  0  0  0  0  0  0  0  0  0  0  0
   44.5740   35.8290   44.8580 C   0  0  0  0  0  0  0  0  0  0  0  0
   45.1310   35.5030   43.6150 C   0  0  0  0  0  0  0  0  0  0  0  0
   45.8720   34.3350   43.4840 C   0  0  0  0  0  0  0  0  0  0  0  0
   46.0070   33.5700   44.6030 N   0  0  0  0  0  0  0  0  0  0  0  0
   45.4690   33.8880   45.7950 C   0  0  0  0  0  0  0  0  0  0  0  0
   44.7550   35.0180   45.9120 N   0  0  0  0  0  0  0  0  0  0  0  0
   44.0040   36.7500   44.9150 H   0  0  0  0  0  0  0  0  0  0  0  0
   44.9970   36.1510   42.7400 H   0  0  0  0  0  0  0  0  0  0  0  0
   45.6460   33.0310   46.9620 C   0  0  0  0  0  0  0  0  0  0  0  0
   46.5200   32.3680   47.0100 H   0  0  0  0  0  0  0  0  0  0  0  0
   44.8280   33.0390   47.8980 O   0  0  0  0  0  0  0  0  0  0  0  0
  1 29  1  0  0  0  0
  2  7  1  0  0  0  0
  2  6  1  0  0  0  0
  2  1  1  0  0  0  0
  3  2  1  0  0  0  0
  4  3  1  0  0  0  0
  4  5  1  0  0  0  0
  5 12  1  1  0  0  0
  5  1  1  0  0  0  0
  8  3  1  0  0  0  0
  9  3  1  0  0  0  0
 10  4  1  0  0  0  0
 11  4  1  0  0  0  0
 13  5  1  0  0  0  0
 13 19  1  0  0  0  0
 14 13  1  0  0  0  0
 15 14  2  0  0  0  0
 15 16  1  0  0  0  0
 16 18  1  0  0  0  0
 17 16  2  0  0  0  0
 18 19  1  0  0  0  0
 18 22  1  0  0  0  0
 19 20  2  0  0  0  0
 21 14  1  0  0  0  0
 23 25  1  0  0  0  0
 23 15  1  0  0  0  0
 24 23  1  0  0  0  0
 26 23  1  0  0  0  0
 27 33  1  0  0  0  0
 27 32  1  0  0  0  0
 28 27  2  0  0  0  0
 29 28  1  0  0  0  0
 29 30  2  0  0  0  0
 30 31  1  0  0  0  0
 31 32  2  0  0  0  0
 31 35  1  0  0  0  0
 34 28  1  0  0  0  0
 35 36  1  0  0  0  0
 35 37  2  0  0  0  0
M  END
>  <minimizedAffinity>
-5.69928074

>  <minimizedRMSD>
0.258697271

$$$$
