
 OpenBabel03232520553D

 31 32  0  0  1  0  0  0  0  0999 V2000
   46.0950   33.8300   45.2550 C   0  0  2  0  0  0  0  0  0  0  0  0
   44.9140   34.8430   45.4060 C   0  0  0  0  0  0  0  0  0  0  0  0
   44.6400   35.6890   44.2720 C   0  0  0  0  0  0  0  0  0  0  0  0
   45.4220   35.5920   43.0490 C   0  0  1  0  0  0  0  0  0  0  0  0
   46.5770   34.6840   43.0800 C   0  0  0  0  0  0  0  0  0  0  0  0
   46.2120   33.4460   43.8770 C   0  0  0  0  0  0  0  0  0  0  0  0
   46.9130   34.5640   45.5650 H   0  0  0  0  0  0  0  0  0  0  0  0
   44.2320   35.0420   46.2290 H   0  0  0  0  0  0  0  0  0  0  0  0
   43.8240   36.3790   44.4060 H   0  0  0  0  0  0  0  0  0  0  0  0
   45.7870   36.6180   42.7470 H   0  0  0  0  0  0  0  0  0  0  0  0
   47.4140   35.2190   43.6140 H   0  0  0  0  0  0  0  0  0  0  0  0
   46.8960   34.4180   42.0590 H   0  0  0  0  0  0  0  0  0  0  0  0
   46.9890   32.7350   43.5790 H   0  0  0  0  0  0  0  0  0  0  0  0
   45.2470   33.0860   43.4640 H   0  0  0  0  0  0  0  0  0  0  0  0
   45.1900   33.0630   47.3850 C   0  0  0  0  0  0  0  0  0  0  0  0
   45.9520   32.8470   46.2810 C   0  0  0  0  0  0  0  0  0  0  0  0
   46.5690   31.6200   46.2070 C   0  0  0  0  0  0  0  0  0  0  0  0
   46.4370   30.6930   47.1590 N   0  0  0  0  0  0  0  0  0  0  0  0
   45.6670   30.9200   48.2670 C   0  0  0  0  0  0  0  0  0  0  0  0
   45.0620   32.0920   48.3580 N   0  0  0  0  0  0  0  0  0  0  0  0
   45.5110   29.9430   49.2760 N   0  0  0  0  0  0  0  0  0  0  0  0
   44.6450   33.9640   47.6030 H   0  0  0  0  0  0  0  0  0  0  0  0
   46.1400   29.8110   50.0870 H   0  0  0  0  0  0  0  0  0  0  0  0
   44.7810   29.2150   49.3890 H   0  0  0  0  0  0  0  0  0  0  0  0
   47.4170   30.9500   45.2450 C   0  0  0  0  0  0  0  0  0  0  0  0
   47.3270   31.1960   44.1760 H   0  0  0  0  0  0  0  0  0  0  0  0
   48.3080   30.1250   44.9570 O   0  0  0  0  0  0  0  0  0  0  0  0
   44.4540   35.1970   41.9170 C   0  0  0  0  0  0  0  0  0  0  0  0
   43.5050   34.2870   42.3150 F   0  0  0  0  0  0  0  0  0  0  0  0
   43.7740   36.3540   41.5480 F   0  0  0  0  0  0  0  0  0  0  0  0
   45.1800   34.7750   40.8060 F   0  0  0  0  0  0  0  0  0  0  0  0
  1  2  1  0  0  0  0
  1  7  1  1  0  0  0
  1 16  1  0  0  0  0
  2  8  1  0  0  0  0
  3  9  1  0  0  0  0
  3  2  2  0  0  0  0
  4 10  1  6  0  0  0
  4  5  1  0  0  0  0
  4  3  1  0  0  0  0
  5 11  1  0  0  0  0
  5  6  1  0  0  0  0
  6  1  1  0  0  0  0
 12  5  1  0  0  0  0
 13  6  1  0  0  0  0
 14  6  1  0  0  0  0
 15 22  1  0  0  0  0
 15 20  1  0  0  0  0
 16 15  2  0  0  0  0
 17 16  1  0  0  0  0
 17 18  2  0  0  0  0
 18 19  1  0  0  0  0
 19 20  2  0  0  0  0
 19 21  1  0  0  0  0
 21 24  1  0  0  0  0
 21 23  1  0  0  0  0
 25 17  1  0  0  0  0
 26 25  1  0  0  0  0
 27 25  2  0  0  0  0
 28 29  1  0  0  0  0
 28  4  1  0  0  0  0
 30 28  1  0  0  0  0
 31 28  1  0  0  0  0
M  END
>  <minimizedAffinity>
-5.50406027

>  <minimizedRMSD>
0.455949724

$$$$
