
 OpenBabel03232520363D

 13 13  0  0  0  0  0  0  0  0999 V2000
   44.4520   35.5880   44.2250 C   0  0  0  0  0  0  0  0  0  0  0  0
   44.4130   34.8620   43.0010 C   0  0  0  0  0  0  0  0  0  0  0  0
   44.9240   33.5680   42.9830 C   0  0  0  0  0  0  0  0  0  0  0  0
   45.4390   33.0510   44.1430 N   0  0  0  0  0  0  0  0  0  0  0  0
   45.4530   33.7760   45.2730 C   0  0  0  0  0  0  0  0  0  0  0  0
   44.9730   35.0160   45.3250 N   0  0  0  0  0  0  0  0  0  0  0  0
   44.0530   36.5780   44.2050 H   0  0  0  0  0  0  0  0  0  0  0  0
   44.9120   32.9900   42.0770 H   0  0  0  0  0  0  0  0  0  0  0  0
   46.0000   33.2340   46.5120 C   0  0  0  0  0  0  0  0  0  0  0  0
   47.0450   33.0630   46.7340 H   0  0  0  0  0  0  0  0  0  0  0  0
   45.3110   32.8880   47.5040 O   0  0  0  0  0  0  0  0  0  0  0  0
   43.7250   35.5900   41.5040 S   0  0  0  0  0  0  0  0  0  0  0  0
   43.7630   36.9830   41.6740 H   0  0  0  0  0  0  0  0  0  0  0  0
  1  6  1  0  0  0  0
  2  1  2  0  0  0  0
  3  2  1  0  0  0  0
  3  4  2  0  0  0  0
  4  5  1  0  0  0  0
  5  6  2  0  0  0  0
  5  9  1  0  0  0  0
  7  1  1  0  0  0  0
  8  3  1  0  0  0  0
  9 10  1  0  0  0  0
  9 11  2  0  0  0  0
 12 13  1  0  0  0  0
 12  2  1  0  0  0  0
M  END
>  <minimizedAffinity>
-2.9147265

>  <minimizedRMSD>
0.669097066

$$$$
