
 OpenBabel03232521003D

 42 45  0  0  1  0  0  0  0  0999 V2000
   45.3330   32.9160   47.4960 C   0  0  0  0  0  0  0  0  0  0  0  0
   45.9000   32.6570   46.2920 C   0  0  0  0  0  0  0  0  0  0  0  0
   46.1860   31.3090   46.0600 C   0  0  0  0  0  0  0  0  0  0  0  0
   45.9260   30.3190   46.9510 N   0  0  0  0  0  0  0  0  0  0  0  0
   45.3440   30.6330   48.1690 C   0  0  0  0  0  0  0  0  0  0  0  0
   45.0650   31.9120   48.4080 N   0  0  0  0  0  0  0  0  0  0  0  0
   45.0760   29.6280   49.1270 N   0  0  0  0  0  0  0  0  0  0  0  0
   45.0750   33.9240   47.7800 H   0  0  0  0  0  0  0  0  0  0  0  0
   46.0240   29.2610   49.4110 H   0  0  0  0  0  0  0  0  0  0  0  0
   44.1860   29.2750   49.5140 H   0  0  0  0  0  0  0  0  0  0  0  0
   46.1480   33.6030   45.2570 C   0  0  2  0  0  0  0  0  0  0  0  0
   44.9410   34.7020   45.4910 C   0  0  0  0  0  0  0  0  0  0  0  0
   44.7130   35.6350   44.4220 C   0  0  0  0  0  0  0  0  0  0  0  0
   45.5060   35.5550   43.1930 C   0  0  1  0  0  0  0  0  0  0  0  0
   46.5590   34.5480   43.1440 C   0  0  0  0  0  0  0  0  0  0  0  0
   46.1080   33.3150   43.8950 C   0  0  0  0  0  0  0  0  0  0  0  0
   46.9230   34.3560   45.5840 H   0  0  0  0  0  0  0  0  0  0  0  0
   44.2670   34.8530   46.3240 H   0  0  0  0  0  0  0  0  0  0  0  0
   43.9490   36.3590   44.5360 H   0  0  0  0  0  0  0  0  0  0  0  0
   45.9280   36.5670   42.9870 H   0  0  0  0  0  0  0  0  0  0  0  0
   47.4530   34.9250   43.7000 H   0  0  0  0  0  0  0  0  0  0  0  0
   46.8440   34.3540   42.0910 H   0  0  0  0  0  0  0  0  0  0  0  0
   46.9540   32.6590   43.5570 H   0  0  0  0  0  0  0  0  0  0  0  0
   45.1830   32.8810   43.4650 H   0  0  0  0  0  0  0  0  0  0  0  0
   44.4830   35.2890   42.0480 C   0  0  0  0  0  0  0  0  0  0  0  0
   43.4240   34.4940   42.4490 F   0  0  0  0  0  0  0  0  0  0  0  0
   43.9360   36.5250   41.7150 F   0  0  0  0  0  0  0  0  0  0  0  0
   45.1500   34.8240   40.9290 F   0  0  0  0  0  0  0  0  0  0  0  0
   46.8430   30.6150   44.9640 C   0  0  0  0  0  0  0  0  0  0  0  0
   46.5190   29.8080   43.9210 C   0  0  0  0  0  0  0  0  0  0  0  0
   47.7010   29.4540   43.2630 C   0  0  0  0  0  0  0  0  0  0  0  0
   48.6840   30.0600   43.9310 N   0  0  0  0  0  0  0  0  0  0  0  0
   48.1980   30.7500   44.9370 N   0  0  0  0  0  0  0  0  0  0  0  0
   45.4740   29.5830   43.7780 H   0  0  0  0  0  0  0  0  0  0  0  0
   47.6560   28.8020   42.3880 H   0  0  0  0  0  0  0  0  0  0  0  0
   50.0490   29.9240   43.5380 C   0  0  0  0  0  0  0  0  0  0  0  0
   50.8510   29.2570   44.4600 C   0  0  0  0  0  3  0  0  0  0  0  0
   52.1970   29.0190   44.2740 C   0  0  0  0  0  3  0  0  0  0  0  0
   52.7990   29.4620   43.1140 C   0  0  0  0  0  0  0  0  0  0  0  0
   53.8480   29.3160   42.8910 H   0  0  0  0  0  0  0  0  0  0  0  0
   51.9610   30.1180   42.2310 C   0  0  0  0  0  3  0  0  0  0  0  0
   50.6480   30.3510   42.4090 N   0  0  0  0  0  0  0  0  0  0  0  0
  1  8  1  0  0  0  0
  1  6  1  0  0  0  0
  2  1  2  0  0  0  0
  3  2  1  0  0  0  0
  3  4  2  0  0  0  0
  4  5  1  0  0  0  0
  5  6  2  0  0  0  0
  5  7  1  0  0  0  0
  7  9  1  0  0  0  0
  7 10  1  0  0  0  0
 11 12  1  0  0  0  0
 11 17  1  1  0  0  0
 11  2  1  0  0  0  0
 12 18  1  0  0  0  0
 13 19  1  0  0  0  0
 13 12  2  0  0  0  0
 14 20  1  6  0  0  0
 14 13  1  0  0  0  0
 15 14  1  0  0  0  0
 15 21  1  0  0  0  0
 15 16  1  0  0  0  0
 16 11  1  0  0  0  0
 22 15  1  0  0  0  0
 23 16  1  0  0  0  0
 24 16  1  0  0  0  0
 25 26  1  0  0  0  0
 25 14  1  0  0  0  0
 27 25  1  0  0  0  0
 28 25  1  0  0  0  0
 29  3  1  0  0  0  0
 30 29  1  0  0  0  0
 31 30  2  0  0  0  0
 31 32  1  0  0  0  0
 32 33  1  0  0  0  0
 33 29  2  0  0  0  0
 34 30  1  0  0  0  0
 35 31  1  0  0  0  0
 36 32  1  0  0  0  0
 36 37  1  0  0  0  0
 38 37  2  0  0  0  0
 39 38  1  0  0  0  0
 40 39  1  0  0  0  0
 41 42  1  0  0  0  0
 41 39  2  0  0  0  0
 42 36  2  0  0  0  0
M  END
>  <minimizedAffinity>
-5.83906507

>  <minimizedRMSD>
0.274665445

$$$$
