
 OpenBabel03232519063D

 39 42  0  0  0  0  0  0  0  0999 V2000
   47.1580   32.8310   40.8770 C   0  0  0  0  0  0  0  0  0  0  0  0
   44.4490   30.9830   42.5560 C   0  0  0  0  0  0  0  0  0  0  0  0
   43.3870   31.5820   41.9700 C   0  0  0  0  0  0  0  0  0  0  0  0
   44.1370   32.7900   40.8510 S   0  0  0  0  0  0  0  0  0  0  0  0
   45.8790   32.2480   41.3980 C   0  0  0  0  0  0  0  0  0  0  0  0
   45.5920   31.4300   42.1600 N   0  0  0  0  0  0  0  0  0  0  0  0
   42.2720   31.3380   42.1750 H   0  0  0  0  0  0  0  0  0  0  0  0
   43.0040   28.0680   44.5210 C   0  0  0  0  0  0  0  0  0  0  0  0
   43.1440   29.0660   43.5660 C   0  0  0  0  0  0  0  0  0  0  0  0
   44.2650   29.9010   43.5670 C   0  0  0  0  0  0  0  0  0  0  0  0
   45.1590   29.6680   44.5300 N   0  0  0  0  0  0  0  0  0  0  0  0
   45.0290   28.6980   45.4630 C   0  0  0  0  0  0  0  0  0  0  0  0
   43.9560   27.9190   45.4400 N   0  0  0  0  0  0  0  0  0  0  0  0
   42.1180   27.4730   44.4490 H   0  0  0  0  0  0  0  0  0  0  0  0
   42.4120   29.2500   42.7850 H   0  0  0  0  0  0  0  0  0  0  0  0
   45.8180   28.5970   46.1990 H   0  0  0  0  0  0  0  0  0  0  0  0
   46.8190   33.6150   39.6480 C   0  0  0  0  0  0  0  0  0  0  0  0
   46.5890   32.8960   38.8200 H   0  0  0  0  0  0  0  0  0  0  0  0
   47.6760   34.2250   39.2880 H   0  0  0  0  0  0  0  0  0  0  0  0
   45.9240   34.2220   39.7970 H   0  0  0  0  0  0  0  0  0  0  0  0
   48.0660   31.6580   40.5790 C   0  0  0  0  0  0  0  0  0  0  0  0
   47.7530   31.2740   39.5770 H   0  0  0  0  0  0  0  0  0  0  0  0
   47.9460   30.8190   41.2940 H   0  0  0  0  0  0  0  0  0  0  0  0
   49.1190   31.9900   40.5850 H   0  0  0  0  0  0  0  0  0  0  0  0
   47.7990   33.7250   41.8950 C   0  0  0  0  0  0  0  0  0  0  0  0
   48.6340   33.1760   42.3790 H   0  0  0  0  0  0  0  0  0  0  0  0
   48.3030   34.5780   41.3630 H   0  0  0  0  0  0  0  0  0  0  0  0
   46.8620   34.2160   42.8790 N   0  0  0  0  0  0  0  0  0  0  0  0
   46.0630   35.2950   42.6460 C   0  0  0  0  0  0  0  0  0  0  0  0
   45.2700   35.5600   43.7250 N   0  0  0  0  0  0  0  0  0  0  0  0
   45.5580   34.6500   44.6550 C   0  0  0  0  0  0  0  0  0  0  0  0
   45.1510   34.3380   45.9370 C   0  0  0  0  0  0  0  0  0  0  0  0
   45.6530   33.3070   46.6610 N   0  0  0  0  0  0  0  0  0  0  0  0
   46.6020   32.5460   46.0880 C   0  0  0  0  0  0  0  0  0  0  0  0
   47.0360   32.8150   44.8280 N   0  0  0  0  0  0  0  0  0  0  0  0
   46.5330   33.8370   44.1220 C   0  0  0  0  0  0  0  0  0  0  0  0
   44.1420   35.1650   46.5120 N   0  0  0  0  0  0  0  0  0  0  0  0
   43.2280   34.6820   46.6960 H   0  0  0  0  0  0  0  0  0  0  0  0
   43.9780   36.1530   46.8410 H   0  0  0  0  0  0  0  0  0  0  0  0
  1  5  1  0  0  0  0
  1 25  1  0  0  0  0
  2 10  1  0  0  0  0
  3  7  1  0  0  0  0
  3  2  2  0  0  0  0
  4  5  1  0  0  0  0
  4  3  1  0  0  0  0
  5  6  2  0  0  0  0
  6  2  1  0  0  0  0
  8 13  1  0  0  0  0
  9 10  1  0  0  0  0
  9  8  2  0  0  0  0
 10 11  2  0  0  0  0
 11 12  1  0  0  0  0
 12 16  1  0  0  0  0
 13 12  2  0  0  0  0
 14  8  1  0  0  0  0
 15  9  1  0  0  0  0
 17 20  1  0  0  0  0
 17  1  1  0  0  0  0
 18 17  1  0  0  0  0
 19 17  1  0  0  0  0
 21 24  1  0  0  0  0
 21  1  1  0  0  0  0
 21 23  1  0  0  0  0
 22 21  1  0  0  0  0
 25 26  1  0  0  0  0
 25 28  1  0  0  0  0
 27 25  1  0  0  0  0
 28 36  1  0  0  0  0
 29 28  1  0  0  0  0
 29 30  2  0  0  0  0
 30 31  1  0  0  0  0
 31 32  1  0  0  0  0
 32 37  1  0  0  0  0
 32 33  2  0  0  0  0
 34 33  1  0  0  0  0
 35 34  2  0  0  0  0
 36 31  2  0  0  0  0
 36 35  1  0  0  0  0
 37 38  1  0  0  0  0
 37 39  1  0  0  0  0
M  END
>  <minimizedAffinity>
-4.86011028

>  <minimizedRMSD>
4.90658998

$$$$
