
 OpenBabel03232521003D

 42 45  0  0  1  0  0  0  0  0999 V2000
   45.3440   32.9210   47.4750 C   0  0  0  0  0  0  0  0  0  0  0  0
   45.9010   32.6660   46.2660 C   0  0  0  0  0  0  0  0  0  0  0  0
   46.1840   31.3190   46.0250 C   0  0  0  0  0  0  0  0  0  0  0  0
   45.9290   30.3260   46.9140 N   0  0  0  0  0  0  0  0  0  0  0  0
   45.3570   30.6350   48.1380 C   0  0  0  0  0  0  0  0  0  0  0  0
   45.0820   31.9130   48.3840 N   0  0  0  0  0  0  0  0  0  0  0  0
   45.0960   29.6260   49.0940 N   0  0  0  0  0  0  0  0  0  0  0  0
   45.0890   33.9270   47.7640 H   0  0  0  0  0  0  0  0  0  0  0  0
   46.0450   29.2570   49.3690 H   0  0  0  0  0  0  0  0  0  0  0  0
   44.2080   29.2730   49.4860 H   0  0  0  0  0  0  0  0  0  0  0  0
   46.1420   33.6160   45.2320 C   0  0  2  0  0  0  0  0  0  0  0  0
   44.9350   34.7130   45.4780 C   0  0  0  0  0  0  0  0  0  0  0  0
   44.7010   35.6500   44.4140 C   0  0  0  0  0  0  0  0  0  0  0  0
   45.4860   35.5750   43.1800 C   0  0  1  0  0  0  0  0  0  0  0  0
   46.5390   34.5690   43.1200 C   0  0  0  0  0  0  0  0  0  0  0  0
   46.0940   33.3330   43.8690 C   0  0  0  0  0  0  0  0  0  0  0  0
   46.9180   34.3680   45.5580 H   0  0  0  0  0  0  0  0  0  0  0  0
   44.2660   34.8600   46.3150 H   0  0  0  0  0  0  0  0  0  0  0  0
   43.9360   36.3730   44.5350 H   0  0  0  0  0  0  0  0  0  0  0  0
   45.9060   36.5880   42.9750 H   0  0  0  0  0  0  0  0  0  0  0  0
   47.4360   34.9440   43.6720 H   0  0  0  0  0  0  0  0  0  0  0  0
   46.8170   34.3800   42.0650 H   0  0  0  0  0  0  0  0  0  0  0  0
   46.9380   32.6790   43.5230 H   0  0  0  0  0  0  0  0  0  0  0  0
   45.1660   32.9000   43.4430 H   0  0  0  0  0  0  0  0  0  0  0  0
   44.4560   35.3130   42.0400 C   0  0  0  0  0  0  0  0  0  0  0  0
   43.3930   34.5270   42.4480 F   0  0  0  0  0  0  0  0  0  0  0  0
   43.9160   36.5520   41.7060 F   0  0  0  0  0  0  0  0  0  0  0  0
   45.1150   34.8400   40.9200 F   0  0  0  0  0  0  0  0  0  0  0  0
   46.8310   30.6290   44.9210 C   0  0  0  0  0  0  0  0  0  0  0  0
   46.5020   29.8050   43.8930 C   0  0  0  0  0  0  0  0  0  0  0  0
   47.6770   29.4700   43.2130 C   0  0  0  0  0  0  0  0  0  0  0  0
   48.6610   30.1030   43.8530 N   0  0  0  0  0  0  0  0  0  0  0  0
   48.1820   30.7920   44.8630 N   0  0  0  0  0  0  0  0  0  0  0  0
   45.4590   29.5570   43.7750 H   0  0  0  0  0  0  0  0  0  0  0  0
   47.6270   28.8090   42.3450 H   0  0  0  0  0  0  0  0  0  0  0  0
   50.0190   29.9920   43.4310 C   0  0  0  0  0  0  0  0  0  0  0  0
   50.8460   29.3130   44.3220 C   0  0  0  0  0  3  0  0  0  0  0  0
   52.1910   29.0970   44.1060 C   0  0  0  0  0  3  0  0  0  0  0  0
   52.7650   29.5720   42.9450 C   0  0  0  0  0  0  0  0  0  0  0  0
   53.8120   29.4450   42.6980 H   0  0  0  0  0  0  0  0  0  0  0  0
   51.9040   30.2390   42.0930 C   0  0  0  0  0  3  0  0  0  0  0  0
   50.5920   30.4530   42.3020 N   0  0  0  0  0  0  0  0  0  0  0  0
  1  8  1  0  0  0  0
  1  6  1  0  0  0  0
  2  1  2  0  0  0  0
  3  2  1  0  0  0  0
  3  4  2  0  0  0  0
  4  5  1  0  0  0  0
  5  6  2  0  0  0  0
  5  7  1  0  0  0  0
  7  9  1  0  0  0  0
  7 10  1  0  0  0  0
 11 12  1  0  0  0  0
 11 17  1  1  0  0  0
 11  2  1  0  0  0  0
 12 18  1  0  0  0  0
 13 19  1  0  0  0  0
 13 12  2  0  0  0  0
 14 20  1  6  0  0  0
 14 13  1  0  0  0  0
 15 14  1  0  0  0  0
 15 21  1  0  0  0  0
 15 16  1  0  0  0  0
 16 11  1  0  0  0  0
 22 15  1  0  0  0  0
 23 16  1  0  0  0  0
 24 16  1  0  0  0  0
 25 26  1  0  0  0  0
 25 14  1  0  0  0  0
 27 25  1  0  0  0  0
 28 25  1  0  0  0  0
 29  3  1  0  0  0  0
 30 29  1  0  0  0  0
 31 32  1  0  0  0  0
 31 30  2  0  0  0  0
 32 33  1  0  0  0  0
 33 29  2  0  0  0  0
 34 30  1  0  0  0  0
 35 31  1  0  0  0  0
 36 32  1  0  0  0  0
 36 37  1  0  0  0  0
 38 37  2  0  0  0  0
 39 38  1  0  0  0  0
 40 39  1  0  0  0  0
 41 42  1  0  0  0  0
 41 39  2  0  0  0  0
 42 36  2  0  0  0  0
M  END
>  <minimizedAffinity>
-5.8609705

>  <minimizedRMSD>
0.521437347

$$$$
