
     RDKit          3D

 40 44  0  0  0  0  0  0  0  0999 V2000
   46.7730   32.4440   48.0560 C   0  0  0  0  0  0  0  0  0  0  0  0
   46.7820   31.0450   47.9540 C   0  0  0  0  0  0  0  0  0  0  0  0
   46.5610   30.4770   46.7070 C   0  0  0  0  0  0  0  0  0  0  0  0
   46.3640   31.3380   45.7210 N   0  0  0  0  0  0  0  0  0  0  0  0
   46.3470   32.6440   45.7670 C   0  0  0  0  0  0  0  0  0  0  0  0
   46.5580   33.1610   46.9650 N   0  0  0  0  0  0  0  0  0  0  0  0
   46.1320   33.6740   44.7560 C   0  0  0  0  0  0  0  0  0  0  0  0
   45.0820   34.5350   44.7580 N   0  0  0  0  0  0  0  0  0  0  0  0
   44.8420   35.4880   43.8670 C   0  0  0  0  0  0  0  0  0  0  0  0
   45.7030   35.6550   42.8350 N   0  0  0  0  0  0  0  0  0  0  0  0
   46.7880   34.8670   42.7150 C   0  0  0  0  0  0  0  0  0  0  0  0
   47.6640   35.0450   41.6570 C   0  0  0  0  0  0  0  0  0  0  0  0
   48.7710   34.2480   41.5260 C   0  0  0  0  0  0  0  0  0  0  0  0
   48.9680   33.2840   42.4730 C   0  0  0  0  0  0  0  0  0  0  0  0
   48.0810   33.1340   43.5080 C   0  0  0  0  0  0  0  0  0  0  0  0
   46.9620   33.9010   43.6870 C   0  0  0  0  0  0  0  0  0  0  0  0
   46.5400   29.0490   46.7260 C   0  0  0  0  0  0  0  0  0  0  0  0
   47.5370   28.4000   47.0560 N   0  0  0  0  0  0  0  0  0  0  0  0
   47.9450   27.1680   47.3420 C   0  0  0  0  0  0  0  0  0  0  0  0
   46.8290   26.4220   47.1920 N   0  0  0  0  0  0  0  0  0  0  0  0
   45.6410   26.8890   46.8380 C   0  0  0  0  0  0  0  0  0  0  0  0
   44.4990   26.0880   46.6780 C   0  0  0  0  0  0  0  0  0  0  0  0
   43.2980   26.6580   46.2950 C   0  0  0  0  0  0  0  0  0  0  0  0
   43.0940   28.0210   46.0400 C   0  0  0  0  0  0  0  0  0  0  0  0
   44.2400   28.7590   46.2120 C   0  0  0  0  0  0  0  0  0  0  0  0
   45.4310   28.2490   46.5820 C   0  0  0  0  0  0  0  0  0  0  0  0
   47.0300   30.2980   49.1510 N   0  0  0  0  0  0  0  0  0  0  0  0
   46.9416   32.9360   49.0253 H   0  0  0  0  0  0  0  0  0  0  0  0
   43.9565   36.1333   43.9649 H   0  0  0  0  0  0  0  0  0  0  0  0
   47.4693   35.8334   40.9151 H   0  0  0  0  0  0  0  0  0  0  0  0
   49.4739   34.3797   40.6902 H   0  0  0  0  0  0  0  0  0  0  0  0
   49.8446   32.6230   42.4051 H   0  0  0  0  0  0  0  0  0  0  0  0
   48.2829   32.3427   44.2450 H   0  0  0  0  0  0  0  0  0  0  0  0
   48.9524   26.8348   47.6320 H   0  0  0  0  0  0  0  0  0  0  0  0
   44.5594   25.0044   46.8576 H   0  0  0  0  0  0  0  0  0  0  0  0
   42.4335   25.9874   46.1815 H   0  0  0  0  0  0  0  0  0  0  0  0
   42.1276   28.4504   45.7370 H   0  0  0  0  0  0  0  0  0  0  0  0
   44.1811   29.8431   46.0351 H   0  0  0  0  0  0  0  0  0  0  0  0
   47.0455   29.2685   49.1217 H   0  0  0  0  0  0  0  0  0  0  0  0
   47.1928   30.7904   50.0409 H   0  0  0  0  0  0  0  0  0  0  0  0
  2  1  2  0
  2 27  1  0
  3 17  1  0
  3  2  1  0
  4  5  1  0
  4  3  2  0
  5  6  2  0
  6  1  1  0
  7  8  2  0
  7  5  1  0
  9  8  1  0
 10  9  2  0
 11 10  1  0
 11 16  2  0
 12 11  1  0
 13 12  2  0
 13 14  1  0
 14 15  2  0
 15 16  1  0
 16  7  1  0
 17 18  2  0
 18 19  1  0
 20 19  2  0
 21 20  1  0
 22 21  2  0
 23 22  1  0
 24 25  1  0
 24 23  2  0
 25 26  2  0
 26 17  1  0
 26 21  1  0
  1 28  1  0
  9 29  1  0
 12 30  1  0
 13 31  1  0
 14 32  1  0
 15 33  1  0
 19 34  1  0
 22 35  1  0
 23 36  1  0
 24 37  1  0
 25 38  1  0
 27 39  1  0
 27 40  1  0
M  ISO  8  28  14  29  14  30  14  31  14  32  14  33  14  34  14  35  14
M  ISO  3  36  14  37  14  38  14
M  END
>  <minimizedAffinity>  (1) 
-6.6075182

>  <minimizedRMSD>  (1) 
1.0633564

$$$$
