
     RDKit          3D

 29 31  0  0  0  0  0  0  0  0999 V2000
   45.8920   33.7250   45.4050 C   0  0  0  0  0  0  0  0  0  0  0  0
   44.9140   34.6410   45.6590 N   0  0  0  0  0  0  0  0  0  0  0  0
   44.5430   35.6210   44.8440 C   0  0  0  0  0  0  0  0  0  0  0  0
   45.1630   35.7630   43.6410 N   0  0  0  0  0  0  0  0  0  0  0  0
   46.1450   34.9230   43.2720 C   0  0  0  0  0  0  0  0  0  0  0  0
   46.7670   35.0750   42.0530 C   0  0  0  0  0  0  0  0  0  0  0  0
   47.7700   34.2240   41.6700 C   0  0  0  0  0  0  0  0  0  0  0  0
   48.1280   33.2180   42.5450 C   0  0  0  0  0  0  0  0  0  0  0  0
   47.4780   33.1060   43.7500 C   0  0  0  0  0  0  0  0  0  0  0  0
   46.4740   33.9280   44.1780 C   0  0  0  0  0  0  0  0  0  0  0  0
   47.6730   32.3070   48.1740 C   0  0  0  0  0  0  0  0  0  0  0  0
   47.2570   30.9800   48.2820 C   0  0  0  0  0  0  0  0  0  0  0  0
   46.3310   30.5530   47.3720 C   0  0  0  0  0  0  0  0  0  0  0  0
   45.8780   31.4030   46.4470 N   0  0  0  0  0  0  0  0  0  0  0  0
   46.2690   32.6560   46.3420 C   0  0  0  0  0  0  0  0  0  0  0  0
   47.1710   33.0800   47.2240 N   0  0  0  0  0  0  0  0  0  0  0  0
   47.7970   30.1610   49.2990 N   0  0  0  0  0  0  0  0  0  0  0  0
   45.8370   29.1870   47.4060 C   0  0  0  0  0  0  0  0  0  0  0  0
   43.7404   36.3131   45.1389 H   0  0  0  0  0  0  0  0  0  0  0  0
   46.4556   35.8876   41.3802 H   0  0  0  0  0  0  0  0  0  0  0  0
   48.2729   34.3384   40.6984 H   0  0  0  0  0  0  0  0  0  0  0  0
   48.9279   32.5112   42.2792 H   0  0  0  0  0  0  0  0  0  0  0  0
   47.7896   32.2924   44.4216 H   0  0  0  0  0  0  0  0  0  0  0  0
   48.4168   32.7103   48.8769 H   0  0  0  0  0  0  0  0  0  0  0  0
   47.4948   29.1801   49.3851 H   0  0  0  0  0  0  0  0  0  0  0  0
   48.4929   30.5449   49.9542 H   0  0  0  0  0  0  0  0  0  0  0  0
   45.7206   28.8651   48.4514 H   0  0  0  0  0  0  0  0  0  0  0  0
   44.8636   29.1363   46.8962 H   0  0  0  0  0  0  0  0  0  0  0  0
   46.5528   28.5254   46.8962 H   0  0  0  0  0  0  0  0  0  0  0  0
  1  2  2  0
  1 15  1  0
  3  2  1  0
  4  3  2  0
  5  4  1  0
  5 10  2  0
  6  5  1  0
  7  6  2  0
  7  8  1  0
  8  9  2  0
  9 10  1  0
 10  1  1  0
 11 12  2  0
 12 17  1  0
 13 18  1  0
 13 12  1  0
 14 13  2  0
 15 14  1  0
 15 16  2  0
 16 11  1  0
  3 19  1  0
  6 20  1  0
  7 21  1  0
  8 22  1  0
  9 23  1  0
 11 24  1  0
 17 25  1  0
 17 26  1  0
 18 27  1  0
 18 28  1  0
 18 29  1  0
M  ISO  8  19  14  20  14  21  14  22  14  23  14  24  14  27   8  28   8
M  ISO  1  29   8
M  END
>  <minimizedAffinity>  (1) 
-5.77333927

>  <minimizedRMSD>  (1) 
0.031655021

$$$$
