
     RDKit          3D

 33 36  0  0  0  0  0  0  0  0999 V2000
   45.8250   33.8060   45.3870 C   0  0  0  0  0  0  0  0  0  0  0  0
   44.8800   34.7640   45.5330 N   0  0  0  0  0  0  0  0  0  0  0  0
   44.5730   35.7140   44.6650 C   0  0  0  0  0  0  0  0  0  0  0  0
   45.2530   35.7690   43.4880 N   0  0  0  0  0  0  0  0  0  0  0  0
   46.2210   34.8730   43.2130 C   0  0  0  0  0  0  0  0  0  0  0  0
   46.9060   34.9360   42.0150 C   0  0  0  0  0  0  0  0  0  0  0  0
   47.8980   34.0230   41.7240 C   0  0  0  0  0  0  0  0  0  0  0  0
   48.1690   33.0660   42.6610 C   0  0  0  0  0  0  0  0  0  0  0  0
   47.4620   33.0370   43.8450 C   0  0  0  0  0  0  0  0  0  0  0  0
   46.4730   33.9170   44.1810 C   0  0  0  0  0  0  0  0  0  0  0  0
   47.5880   32.4380   48.1940 C   0  0  0  0  0  0  0  0  0  0  0  0
   47.0440   31.1830   48.4450 C   0  0  0  0  0  0  0  0  0  0  0  0
   46.0310   30.7900   47.6150 C   0  0  0  0  0  0  0  0  0  0  0  0
   45.6160   31.5910   46.6350 N   0  0  0  0  0  0  0  0  0  0  0  0
   46.1220   32.7800   46.3880 C   0  0  0  0  0  0  0  0  0  0  0  0
   47.1200   33.1790   47.1980 N   0  0  0  0  0  0  0  0  0  0  0  0
   47.5500   30.4120   49.5120 N   0  0  0  0  0  0  0  0  0  0  0  0
   45.4020   29.4910   47.8020 C   0  0  0  0  0  0  0  0  0  0  0  0
   45.9770   28.3590   46.9390 C   0  0  0  0  0  0  0  0  0  0  0  0
   44.5800   28.8010   46.7890 C   0  0  0  0  0  0  0  0  0  0  0  0
   43.7830   36.4454   44.8906 H   0  0  0  0  0  0  0  0  0  0  0  0
   46.6579   35.7218   41.2863 H   0  0  0  0  0  0  0  0  0  0  0  0
   48.4502   34.0637   40.7735 H   0  0  0  0  0  0  0  0  0  0  0  0
   48.9523   32.3175   42.4707 H   0  0  0  0  0  0  0  0  0  0  0  0
   47.7126   32.2489   44.5704 H   0  0  0  0  0  0  0  0  0  0  0  0
   48.4076   32.8169   48.8222 H   0  0  0  0  0  0  0  0  0  0  0  0
   47.1549   29.4811   49.7074 H   0  0  0  0  0  0  0  0  0  0  0  0
   48.3146   30.7798   50.0959 H   0  0  0  0  0  0  0  0  0  0  0  0
   45.2104   29.7306   48.8584 H   0  0  0  0  0  0  0  0  0  0  0  0
   46.7152   28.5814   46.1544 H   0  0  0  0  0  0  0  0  0  0  0  0
   46.4808   27.4009   47.1345 H   0  0  0  0  0  0  0  0  0  0  0  0
   44.2763   29.3391   45.8790 H   0  0  0  0  0  0  0  0  0  0  0  0
   43.6101   28.2829   46.8198 H   0  0  0  0  0  0  0  0  0  0  0  0
  1  2  2  0
  1 15  1  0
  3  2  1  0
  4  3  2  0
  5  4  1  0
  5 10  2  0
  6  5  1  0
  7  6  2  0
  7  8  1  0
  8  9  2  0
  9 10  1  0
 10  1  1  0
 11 12  2  0
 12 17  1  0
 13 18  1  0
 13 12  1  0
 14 13  2  0
 15 14  1  0
 15 16  2  0
 16 11  1  0
 19 18  1  0
 20 19  1  0
 20 18  1  0
  3 21  1  0
  6 22  1  0
  7 23  1  0
  8 24  1  0
  9 25  1  0
 11 26  1  0
 17 27  1  0
 17 28  1  0
 18 29  1  0
 19 30  1  0
 19 31  1  0
 20 32  1  0
 20 33  1  0
M  ISO  8  21  14  22  14  23  14  24  14  25  14  26  14  29  13  30  13
M  ISO  3  31  13  32  13  33  13
M  END
>  <minimizedAffinity>  (1) 
-6.10327196

>  <minimizedRMSD>  (1) 
0.733707845

$$$$
