
     RDKit          3D

 36 38  0  0  0  0  0  0  0  0999 V2000
   46.2320   31.8570   47.1160 C   0  0  0  0  0  0  0  0  0  0  0  0
   45.9400   32.4230   48.3480 C   0  0  0  0  0  0  0  0  0  0  0  0
   45.3840   31.7440   49.3900 C   0  0  0  0  0  0  0  0  0  0  0  0
   45.1030   30.4170   49.1900 C   0  0  0  0  0  0  0  0  0  0  0  0
   45.3980   29.8430   47.9490 C   0  0  0  0  0  0  0  0  0  0  0  0
   45.9660   30.5420   46.8930 C   0  0  0  0  0  0  0  0  0  0  0  0
   48.5960   29.3720   45.5430 Cl  0  0  0  0  0  0  0  0  0  0  0  0
   46.9880   28.7550   45.2250 C   0  0  0  0  0  0  0  0  0  0  0  0
   46.0250   29.4620   45.9140 C   0  0  0  0  0  0  0  0  0  0  0  0
   44.6840   29.0880   45.7050 C   0  0  0  0  0  0  0  0  0  0  0  0
   44.3170   28.0450   44.8410 C   0  0  0  0  0  0  0  0  0  0  0  0
   45.3210   27.3680   44.1780 C   0  0  0  0  0  0  0  0  0  0  0  0
   46.6050   27.7410   44.3890 C   0  0  0  0  0  0  0  0  0  0  0  0
   46.8320   32.5070   45.9230 C   0  0  0  0  0  0  0  0  0  0  0  0
   45.8870   32.4590   44.7470 C   0  0  0  0  0  0  0  0  0  0  0  0
   44.6190   35.9210   44.8300 C   0  0  0  0  0  0  0  0  0  0  0  0
   45.0420   36.4150   43.5620 C   0  0  0  0  0  0  0  0  0  0  0  0
   45.7600   35.5420   42.7470 C   0  0  0  0  0  0  0  0  0  0  0  0
   46.0210   34.3010   43.1700 N   0  0  0  0  0  0  0  0  0  0  0  0
   45.5900   33.8840   44.3920 C   0  0  0  0  0  0  0  0  0  0  0  0
   44.9100   34.6620   45.2050 N   0  0  0  0  0  0  0  0  0  0  0  0
   46.1722   33.4884   48.4931 H   0  0  0  0  0  0  0  0  0  0  0  0
   45.1700   32.2384   50.3491 H   0  0  0  0  0  0  0  0  0  0  0  0
   44.6530   29.8137   49.9922 H   0  0  0  0  0  0  0  0  0  0  0  0
   45.1668   28.7777   47.8017 H   0  0  0  0  0  0  0  0  0  0  0  0
   43.8932   29.6346   46.2397 H   0  0  0  0  0  0  0  0  0  0  0  0
   43.2606   27.7748   44.6963 H   0  0  0  0  0  0  0  0  0  0  0  0
   45.0823   26.5419   43.4920 H   0  0  0  0  0  0  0  0  0  0  0  0
   47.3934   27.1925   43.8528 H   0  0  0  0  0  0  0  0  0  0  0  0
   47.0571   33.5572   46.1608 H   0  0  0  0  0  0  0  0  0  0  0  0
   47.7518   31.9663   45.6552 H   0  0  0  0  0  0  0  0  0  0  0  0
   46.3608   31.9451   43.8976 H   0  0  0  0  0  0  0  0  0  0  0  0
   44.9679   31.9070   44.9932 H   0  0  0  0  0  0  0  0  0  0  0  0
   44.0499   36.5743   45.5077 H   0  0  0  0  0  0  0  0  0  0  0  0
   44.8116   37.4414   43.2404 H   0  0  0  0  0  0  0  0  0  0  0  0
   46.1110   35.8731   41.7585 H   0  0  0  0  0  0  0  0  0  0  0  0
  1  2  2  0
  2  3  1  0
  4  3  2  0
  5  4  1  0
  6  1  1  0
  6  5  2  0
  8  7  1  0
  8  9  2  0
  9  6  1  0
 10  9  1  0
 11 10  2  0
 12 13  2  0
 12 11  1  0
 13  8  1  0
 14  1  1  0
 15 14  1  0
 16 21  2  0
 17 16  1  0
 18 19  1  0
 18 17  2  0
 19 20  2  0
 20 15  1  0
 20 21  1  0
  2 22  1  0
  3 23  1  0
  4 24  1  0
  5 25  1  0
 10 26  1  0
 11 27  1  0
 12 28  1  0
 13 29  1  0
 14 30  1  0
 14 31  1  0
 15 32  1  0
 15 33  1  0
 16 34  1  0
 17 35  1  0
 18 36  1  0
M  ISO  8  22  14  23  14  24  14  25  14  26  14  27  14  28  14  29  14
M  ISO  7  30   8  31   8  32   8  33   8  34  14  35  14  36  14
M  END
>  <minimizedAffinity>  (1) 
-5.0273757

>  <minimizedRMSD>  (1) 
1.01956773

$$$$
