
     RDKit          3D

 41 44  0  0  0  0  0  0  0  0999 V2000
   47.4610   32.0330   47.8810 C   0  0  0  0  0  0  0  0  0  0  0  0
   46.9630   30.7520   47.9230 C   0  0  0  0  0  0  0  0  0  0  0  0
   45.9860   30.4620   47.0320 C   0  0  0  0  0  0  0  0  0  0  0  0
   45.5550   31.3810   46.1620 N   0  0  0  0  0  0  0  0  0  0  0  0
   46.0460   32.6340   46.1050 C   0  0  0  0  0  0  0  0  0  0  0  0
   47.0100   32.9080   47.0130 N   0  0  0  0  0  0  0  0  0  0  0  0
   45.3760   29.2090   47.0060 N   0  0  0  0  0  0  0  0  0  0  0  0
   44.1690   28.8580   46.2450 C   0  0  0  0  0  0  0  0  0  0  0  0
   44.0370   27.3630   46.3360 C   0  0  0  0  0  0  0  0  0  0  0  0
   44.7400   27.0350   47.6200 C   0  0  0  0  0  0  0  0  0  0  0  0
   45.8250   28.0500   47.7250 C   0  0  0  0  0  0  0  0  0  0  0  0
   45.7520   33.7820   45.2690 C   0  0  0  0  0  0  0  0  0  0  0  0
   44.8890   34.7430   45.6540 N   0  0  0  0  0  0  0  0  0  0  0  0
   44.5580   35.8100   44.9180 C   0  0  0  0  0  0  0  0  0  0  0  0
   45.1110   35.9680   43.6900 N   0  0  0  0  0  0  0  0  0  0  0  0
   45.9760   35.0680   43.2210 C   0  0  0  0  0  0  0  0  0  0  0  0
   46.5000   35.2140   41.9610 C   0  0  0  0  0  0  0  0  0  0  0  0
   47.3540   34.2870   41.4420 C   0  0  0  0  0  0  0  0  0  0  0  0
   47.6690   33.1980   42.2460 C   0  0  0  0  0  0  0  0  0  0  0  0
   47.1330   33.0830   43.4960 C   0  0  0  0  0  0  0  0  0  0  0  0
   46.2790   33.9910   44.0260 C   0  0  0  0  0  0  0  0  0  0  0  0
   47.5850   31.8270   44.1670 C   0  0  0  0  0  0  0  0  0  0  0  0
   47.5490   29.8030   48.7580 N   0  0  0  0  0  0  0  0  0  0  0  0
   48.2508   32.3294   48.5869 H   0  0  0  0  0  0  0  0  0  0  0  0
   44.2762   29.1683   45.1951 H   0  0  0  0  0  0  0  0  0  0  0  0
   43.2794   29.3646   46.6475 H   0  0  0  0  0  0  0  0  0  0  0  0
   42.9798   27.0620   46.3770 H   0  0  0  0  0  0  0  0  0  0  0  0
   44.4597   26.8386   45.4663 H   0  0  0  0  0  0  0  0  0  0  0  0
   44.0493   27.1155   48.4723 H   0  0  0  0  0  0  0  0  0  0  0  0
   45.1291   26.0062   47.6312 H   0  0  0  0  0  0  0  0  0  0  0  0
   46.7520   27.6618   47.2777 H   0  0  0  0  0  0  0  0  0  0  0  0
   46.0383   28.2942   48.7761 H   0  0  0  0  0  0  0  0  0  0  0  0
   43.8442   36.5520   45.3052 H   0  0  0  0  0  0  0  0  0  0  0  0
   46.2263   36.0937   41.3600 H   0  0  0  0  0  0  0  0  0  0  0  0
   47.7752   34.3960   40.4317 H   0  0  0  0  0  0  0  0  0  0  0  0
   48.3550   32.4235   41.8724 H   0  0  0  0  0  0  0  0  0  0  0  0
   47.5382   31.9570   45.2583 H   0  0  0  0  0  0  0  0  0  0  0  0
   46.9297   30.9955   43.8684 H   0  0  0  0  0  0  0  0  0  0  0  0
   48.6199   31.6037   43.8684 H   0  0  0  0  0  0  0  0  0  0  0  0
   47.1755   28.8436   48.7890 H   0  0  0  0  0  0  0  0  0  0  0  0
   48.3557   30.0608   49.3442 H   0  0  0  0  0  0  0  0  0  0  0  0
  1  2  2  0
  2 23  1  0
  3  2  1  0
  4  3  2  0
  5  4  1  0
  5  6  2  0
  6  1  1  0
  7  3  1  0
  7 11  1  0
  8  9  1  0
  8  7  1  0
  9 10  1  0
 10 11  1  0
 12 13  2  0
 12  5  1  0
 14 13  1  0
 15 14  2  0
 16 15  1  0
 16 21  2  0
 17 16  1  0
 18 17  2  0
 18 19  1  0
 19 20  2  0
 20 21  1  0
 20 22  1  0
 21 12  1  0
  1 24  1  0
  8 25  1  0
  8 26  1  0
  9 27  1  0
  9 28  1  0
 10 29  1  0
 10 30  1  0
 11 31  1  0
 11 32  1  0
 14 33  1  0
 17 34  1  0
 18 35  1  0
 19 36  1  0
 22 37  1  0
 22 38  1  0
 22 39  1  0
 23 40  1  0
 23 41  1  0
M  ISO  8  24  14  25  13  26  13  27  13  28  13  29  13  30  13  31  13
M  ISO  8  32  13  33  14  34  14  35  14  36  14  37   8  38   8  39   8
M  END
>  <minimizedAffinity>  (1) 
-6.52518702

>  <minimizedRMSD>  (1) 
0.380067706

$$$$
