
     RDKit          3D

 49 53  0  0  1  0  0  0  0  0999 V2000
   47.5330   32.0070   47.6870 C   0  0  0  0  0  0  0  0  0  0  0  0
   47.0180   30.7390   47.7720 C   0  0  0  0  0  0  0  0  0  0  0  0
   45.9790   30.4610   46.9530 C   0  0  0  0  0  0  0  0  0  0  0  0
   45.4990   31.3760   46.1140 N   0  0  0  0  0  0  0  0  0  0  0  0
   45.9900   32.6130   46.0040 C   0  0  0  0  0  0  0  0  0  0  0  0
   47.0340   32.8940   46.8400 N   0  0  0  0  0  0  0  0  0  0  0  0
   45.3780   29.1990   46.9300 N   0  0  0  0  0  0  0  0  0  0  0  0
   44.1320   28.8430   46.2490 C   0  0  0  0  0  0  0  0  0  0  0  0
   44.0850   27.3280   46.2520 C   0  0  0  0  0  0  0  0  0  0  0  0
   44.8750   26.9700   47.4790 C   0  0  0  0  0  0  0  0  0  0  0  0
   45.9110   28.0210   47.5930 C   0  0  0  0  0  0  0  0  0  0  0  0
   45.6400   33.7430   45.1670 C   0  0  0  0  0  0  0  0  0  0  0  0
   44.9310   34.7870   45.6570 N   0  0  0  0  0  0  0  0  0  0  0  0
   44.5970   35.8790   44.9640 C   0  0  0  0  0  0  0  0  0  0  0  0
   44.9810   35.9790   43.6770 N   0  0  0  0  0  0  0  0  0  0  0  0
   45.6940   34.9910   43.0910 C   0  0  0  0  0  0  0  0  0  0  0  0
   46.0740   35.1290   41.7930 C   0  0  0  0  0  0  0  0  0  0  0  0
   46.7940   34.1520   41.1830 C   0  0  0  0  0  0  0  0  0  0  0  0
   47.1160   33.0290   41.9280 C   0  0  0  0  0  0  0  0  0  0  0  0
   46.7170   32.9200   43.2440 C   0  0  0  0  0  0  0  0  0  0  0  0
   46.0020   33.8940   43.8620 C   0  0  0  0  0  0  0  0  0  0  0  0
   49.6050   31.7890   42.9800 O   0  0  0  0  0  0  0  0  0  0  0  0
   48.5240   31.2280   43.3310 C   0  0  0  0  0  0  0  0  0  0  0  0
   47.1010   31.6100   43.8030 C   0  0  2  0  0  0  0  0  0  0  0  0
   46.4870   30.4750   43.0330 C   0  0  0  0  0  0  0  0  0  0  0  0
   47.2570   29.2970   43.5200 C   0  0  0  0  0  0  0  0  0  0  0  0
   48.6180   29.8110   43.2920 N   0  0  0  0  0  0  0  0  0  0  0  0
   47.6280   29.7980   48.6070 N   0  0  0  0  0  0  0  0  0  0  0  0
   48.3756   32.2924   48.3339 H   0  0  0  0  0  0  0  0  0  0  0  0
   44.1353   29.2251   45.2175 H   0  0  0  0  0  0  0  0  0  0  0  0
   43.2551   29.2786   46.7503 H   0  0  0  0  0  0  0  0  0  0  0  0
   43.0496   26.9643   46.3279 H   0  0  0  0  0  0  0  0  0  0  0  0
   44.4857   26.8792   45.3311 H   0  0  0  0  0  0  0  0  0  0  0  0
   44.2273   26.9686   48.3681 H   0  0  0  0  0  0  0  0  0  0  0  0
   45.3152   25.9646   47.4060 H   0  0  0  0  0  0  0  0  0  0  0  0
   46.8390   27.6949   47.1005 H   0  0  0  0  0  0  0  0  0  0  0  0
   46.1505   28.2311   48.6459 H   0  0  0  0  0  0  0  0  0  0  0  0
   44.0168   36.6847   45.4375 H   0  0  0  0  0  0  0  0  0  0  0  0
   45.7973   36.0354   41.2346 H   0  0  0  0  0  0  0  0  0  0  0  0
   47.1105   34.2490   40.1340 H   0  0  0  0  0  0  0  0  0  0  0  0
   47.6955   32.2164   41.4655 H   0  0  0  0  0  0  0  0  0  0  0  0
   46.8763   31.7123   44.8749 H   0  0  0  0  0  0  0  0  0  0  0  0
   46.6172   30.6140   41.9496 H   0  0  0  0  0  0  0  0  0  0  0  0
   45.4015   30.3807   43.1843 H   0  0  0  0  0  0  0  0  0  0  0  0
   47.0661   29.0887   44.5831 H   0  0  0  0  0  0  0  0  0  0  0  0
   47.0217   28.3397   43.0320 H   0  0  0  0  0  0  0  0  0  0  0  0
   49.4697   29.2534   43.1352 H   0  0  0  0  0  0  0  0  0  0  0  0
   47.2450   28.8442   48.6743 H   0  0  0  0  0  0  0  0  0  0  0  0
   48.4604   30.0585   49.1548 H   0  0  0  0  0  0  0  0  0  0  0  0
  1  2  2  0
  2 28  1  0
  3  2  1  0
  4  3  2  0
  5  4  1  0
  5  6  2  0
  6  1  1  0
  7  3  1  0
  7 11  1  0
  8  9  1  0
  8  7  1  0
  9 10  1  0
 10 11  1  0
 12 13  2  0
 12  5  1  0
 14 13  1  0
 15 14  2  0
 16 15  1  0
 16 21  2  0
 17 16  1  0
 18 17  2  0
 18 19  1  0
 19 20  2  0
 20 21  1  0
 21 12  1  0
 22 23  2  0
 23 24  1  0
 24 20  1  0
 25 26  1  0
 25 24  1  0
 27 23  1  0
 27 26  1  0
  1 29  1  0
  8 30  1  0
  8 31  1  0
  9 32  1  0
  9 33  1  0
 10 34  1  0
 10 35  1  0
 11 36  1  0
 11 37  1  0
 14 38  1  0
 17 39  1  0
 18 40  1  0
 19 41  1  0
 24 42  1  1
 25 43  1  0
 25 44  1  0
 26 45  1  0
 26 46  1  0
 27 47  1  0
 28 48  1  0
 28 49  1  0
M  ISO  8  29  14  30  13  31  13  32  13  33  13  34  13  35  13  36  13
M  ISO  8  37  13  38  14  39  14  40  14  41  14  42  13  43  13  44  13
M  ISO  3  45  13  46  13  47  10
M  END
>  <minimizedAffinity>  (1) 
-6.22026634

>  <minimizedRMSD>  (1) 
1.57675946

$$$$
