
     RDKit          3D

 47 51  0  0  0  0  0  0  0  0999 V2000
   47.4800   31.8830   47.7690 C   0  0  0  0  0  0  0  0  0  0  0  0
   46.9290   30.6070   47.8060 C   0  0  0  0  0  0  0  0  0  0  0  0
   45.9140   30.3570   46.9480 C   0  0  0  0  0  0  0  0  0  0  0  0
   45.4790   31.3040   46.1040 N   0  0  0  0  0  0  0  0  0  0  0  0
   46.0060   32.5340   46.0560 C   0  0  0  0  0  0  0  0  0  0  0  0
   47.0110   32.7870   46.9130 N   0  0  0  0  0  0  0  0  0  0  0  0
   45.2760   29.1250   46.9280 N   0  0  0  0  0  0  0  0  0  0  0  0
   44.0250   28.8180   46.2020 C   0  0  0  0  0  0  0  0  0  0  0  0
   43.8420   27.3330   46.3030 C   0  0  0  0  0  0  0  0  0  0  0  0
   44.5880   26.9670   47.5560 C   0  0  0  0  0  0  0  0  0  0  0  0
   45.7160   27.9390   47.6140 C   0  0  0  0  0  0  0  0  0  0  0  0
   45.7080   33.6990   45.2180 C   0  0  0  0  0  0  0  0  0  0  0  0
   44.9300   34.7340   45.6480 N   0  0  0  0  0  0  0  0  0  0  0  0
   44.6300   35.8110   44.9330 C   0  0  0  0  0  0  0  0  0  0  0  0
   45.1130   35.9310   43.6790 N   0  0  0  0  0  0  0  0  0  0  0  0
   45.8990   34.9660   43.1400 C   0  0  0  0  0  0  0  0  0  0  0  0
   46.3640   35.0930   41.8620 C   0  0  0  0  0  0  0  0  0  0  0  0
   47.1370   34.1220   41.3010 C   0  0  0  0  0  0  0  0  0  0  0  0
   47.4300   33.0060   42.0760 C   0  0  0  0  0  0  0  0  0  0  0  0
   46.9290   32.9360   43.3650 C   0  0  0  0  0  0  0  0  0  0  0  0
   46.1590   33.8890   43.9440 C   0  0  0  0  0  0  0  0  0  0  0  0
   47.3860   31.6370   43.8380 C   0  0  0  0  0  0  0  0  0  0  0  0
   46.5690   30.5890   43.3500 C   0  0  0  0  0  0  0  0  0  0  0  0
   46.7110   29.2330   43.5850 C   0  0  0  0  0  0  0  0  0  0  0  0
   47.7610   28.8390   44.3800 C   0  0  0  0  0  0  0  0  0  0  0  0
   48.5660   29.8400   44.8630 C   0  0  0  0  0  0  0  0  0  0  0  0
   48.3620   31.1280   44.5910 N   0  0  0  0  0  0  0  0  0  0  0  0
   47.4970   29.6520   48.6400 N   0  0  0  0  0  0  0  0  0  0  0  0
   48.3046   32.1453   48.4482 H   0  0  0  0  0  0  0  0  0  0  0  0
   44.1103   29.1218   45.1482 H   0  0  0  0  0  0  0  0  0  0  0  0
   43.1681   29.3594   46.6292 H   0  0  0  0  0  0  0  0  0  0  0  0
   42.7765   27.0741   46.3909 H   0  0  0  0  0  0  0  0  0  0  0  0
   44.2095   26.7966   45.4157 H   0  0  0  0  0  0  0  0  0  0  0  0
   43.9399   27.0699   48.4388 H   0  0  0  0  0  0  0  0  0  0  0  0
   44.9345   25.9230   47.5475 H   0  0  0  0  0  0  0  0  0  0  0  0
   46.6031   27.5203   47.1163 H   0  0  0  0  0  0  0  0  0  0  0  0
   45.9916   28.1635   48.6550 H   0  0  0  0  0  0  0  0  0  0  0  0
   43.9926   36.5996   45.3594 H   0  0  0  0  0  0  0  0  0  0  0  0
   46.1111   35.9906   41.2786 H   0  0  0  0  0  0  0  0  0  0  0  0
   47.5154   34.2175   40.2726 H   0  0  0  0  0  0  0  0  0  0  0  0
   48.0496   32.1918   41.6720 H   0  0  0  0  0  0  0  0  0  0  0  0
   45.7247   30.8868   42.7109 H   0  0  0  0  0  0  0  0  0  0  0  0
   46.0128   28.5006   43.1536 H   0  0  0  0  0  0  0  0  0  0  0  0
   47.9456   27.7806   44.6158 H   0  0  0  0  0  0  0  0  0  0  0  0
   49.4176   29.5666   45.5033 H   0  0  0  0  0  0  0  0  0  0  0  0
   47.1012   28.7019   48.6795 H   0  0  0  0  0  0  0  0  0  0  0  0
   48.3139   29.8941   49.2188 H   0  0  0  0  0  0  0  0  0  0  0  0
  1  2  2  0
  2 28  1  0
  3  2  1  0
  4  3  2  0
  5  4  1  0
  5  6  2  0
  6  1  1  0
  7  3  1  0
  7 11  1  0
  8  9  1  0
  8  7  1  0
  9 10  1  0
 10 11  1  0
 12 13  2  0
 12  5  1  0
 14 13  1  0
 15 14  2  0
 16 15  1  0
 16 21  2  0
 17 16  1  0
 18 17  2  0
 18 19  1  0
 19 20  2  0
 20 22  1  0
 20 21  1  0
 21 12  1  0
 22 27  2  0
 23 24  2  0
 23 22  1  0
 24 25  1  0
 25 26  2  0
 27 26  1  0
  1 29  1  0
  8 30  1  0
  8 31  1  0
  9 32  1  0
  9 33  1  0
 10 34  1  0
 10 35  1  0
 11 36  1  0
 11 37  1  0
 14 38  1  0
 17 39  1  0
 18 40  1  0
 19 41  1  0
 23 42  1  0
 24 43  1  0
 25 44  1  0
 26 45  1  0
 28 46  1  0
 28 47  1  0
M  ISO  8  29  14  30  13  31  13  32  13  33  13  34  13  35  13  36  13
M  ISO  8  37  13  38  14  39  14  40  14  41  14  42  14  43  14  44  14
M  ISO  1  45  14
M  END
>  <minimizedAffinity>  (1) 
-6.12541819

>  <minimizedRMSD>  (1) 
0.647258699

$$$$
