
     RDKit          3D

 45 49  0  0  0  0  0  0  0  0999 V2000
   47.4790   31.9890   47.8430 C   0  0  0  0  0  0  0  0  0  0  0  0
   46.9480   30.7100   47.8890 C   0  0  0  0  0  0  0  0  0  0  0  0
   45.9500   30.4480   47.0130 C   0  0  0  0  0  0  0  0  0  0  0  0
   45.5290   31.3810   46.1610 N   0  0  0  0  0  0  0  0  0  0  0  0
   46.0370   32.6200   46.0920 C   0  0  0  0  0  0  0  0  0  0  0  0
   47.0270   32.8810   46.9770 N   0  0  0  0  0  0  0  0  0  0  0  0
   45.3380   29.2050   46.9570 N   0  0  0  0  0  0  0  0  0  0  0  0
   44.1290   28.8630   46.1910 C   0  0  0  0  0  0  0  0  0  0  0  0
   43.9950   27.3640   46.2700 C   0  0  0  0  0  0  0  0  0  0  0  0
   44.6660   27.0400   47.5780 C   0  0  0  0  0  0  0  0  0  0  0  0
   45.7880   28.0230   47.6640 C   0  0  0  0  0  0  0  0  0  0  0  0
   45.7300   33.7720   45.2600 C   0  0  0  0  0  0  0  0  0  0  0  0
   44.8990   34.7560   45.6650 N   0  0  0  0  0  0  0  0  0  0  0  0
   44.5760   35.8300   44.9360 C   0  0  0  0  0  0  0  0  0  0  0  0
   45.1000   35.9770   43.7010 N   0  0  0  0  0  0  0  0  0  0  0  0
   45.9460   35.0470   43.1990 C   0  0  0  0  0  0  0  0  0  0  0  0
   46.4990   35.2300   41.9630 C   0  0  0  0  0  0  0  0  0  0  0  0
   47.3900   34.3280   41.4650 C   0  0  0  0  0  0  0  0  0  0  0  0
   47.6940   33.2490   42.2460 C   0  0  0  0  0  0  0  0  0  0  0  0
   47.1250   33.0770   43.4820 C   0  0  0  0  0  0  0  0  0  0  0  0
   46.2370   33.9690   43.9970 C   0  0  0  0  0  0  0  0  0  0  0  0
   47.5700   31.8200   44.1640 C   0  0  0  0  0  0  0  0  0  0  0  0
   47.2660   30.4600   43.4420 C   0  0  0  0  0  0  0  0  0  0  0  0
   48.5800   31.0080   43.5510 C   0  0  0  0  0  0  0  0  0  0  0  0
   47.5260   29.7590   48.7140 N   0  0  0  0  0  0  0  0  0  0  0  0
   48.2872   32.2663   48.5358 H   0  0  0  0  0  0  0  0  0  0  0  0
   44.2374   29.1820   45.1439 H   0  0  0  0  0  0  0  0  0  0  0  0
   43.2399   29.3681   46.5964 H   0  0  0  0  0  0  0  0  0  0  0  0
   42.9378   27.0603   46.2807 H   0  0  0  0  0  0  0  0  0  0  0  0
   44.4387   26.8403   45.4104 H   0  0  0  0  0  0  0  0  0  0  0  0
   43.9677   27.1697   48.4180 H   0  0  0  0  0  0  0  0  0  0  0  0
   45.0128   25.9973   47.6282 H   0  0  0  0  0  0  0  0  0  0  0  0
   46.6918   27.6141   47.1886 H   0  0  0  0  0  0  0  0  0  0  0  0
   46.0444   28.2516   48.7090 H   0  0  0  0  0  0  0  0  0  0  0  0
   43.8885   36.5877   45.3401 H   0  0  0  0  0  0  0  0  0  0  0  0
   46.2228   36.1117   41.3661 H   0  0  0  0  0  0  0  0  0  0  0  0
   47.8466   34.4630   40.4734 H   0  0  0  0  0  0  0  0  0  0  0  0
   48.4110   32.5017   41.8753 H   0  0  0  0  0  0  0  0  0  0  0  0
   47.4116   32.2601   45.1596 H   0  0  0  0  0  0  0  0  0  0  0  0
   46.7453   30.4464   42.4731 H   0  0  0  0  0  0  0  0  0  0  0  0
   46.7752   29.5116   43.7059 H   0  0  0  0  0  0  0  0  0  0  0  0
   49.3154   30.5007   44.1927 H   0  0  0  0  0  0  0  0  0  0  0  0
   49.3501   31.2324   42.7983 H   0  0  0  0  0  0  0  0  0  0  0  0
   47.1366   28.8062   48.7533 H   0  0  0  0  0  0  0  0  0  0  0  0
   48.3451   30.0047   49.2881 H   0  0  0  0  0  0  0  0  0  0  0  0
  1  2  2  0
  2 25  1  0
  3  2  1  0
  4  3  2  0
  5  4  1  0
  5  6  2  0
  6  1  1  0
  7  3  1  0
  7 11  1  0
  8  9  1  0
  8  7  1  0
  9 10  1  0
 10 11  1  0
 12 13  2  0
 12  5  1  0
 14 13  1  0
 15 14  2  0
 16 15  1  0
 16 21  2  0
 17 16  1  0
 18 17  2  0
 18 19  1  0
 19 20  2  0
 20 21  1  0
 20 22  1  0
 21 12  1  0
 23 24  1  0
 23 22  1  0
 24 22  1  0
  1 26  1  0
  8 27  1  0
  8 28  1  0
  9 29  1  0
  9 30  1  0
 10 31  1  0
 10 32  1  0
 11 33  1  0
 11 34  1  0
 14 35  1  0
 17 36  1  0
 18 37  1  0
 19 38  1  0
 22 39  1  0
 23 40  1  0
 23 41  1  0
 24 42  1  0
 24 43  1  0
 25 44  1  0
 25 45  1  0
M  ISO  8  26  14  27  13  28  13  29  13  30  13  31  13  32  13  33  13
M  ISO  8  34  13  35  14  36  14  37  14  38  14  39  13  40  13  41  13
M  ISO  2  42  13  43  13
M  END
>  <minimizedAffinity>  (1) 
-6.40891123

>  <minimizedRMSD>  (1) 
0.452076644

$$$$
