
     RDKit          3D

 39 41  0  0  0  0  0  0  0  0999 V2000
   46.8650   32.5180   45.9570 C   0  0  0  0  0  0  0  0  0  0  0  0
   46.3400   31.7960   47.1360 C   0  0  0  0  0  0  0  0  0  0  0  0
   45.7990   32.3640   48.3000 C   0  0  0  0  0  0  0  0  0  0  0  0
   45.1790   31.6460   49.2880 C   0  0  0  0  0  0  0  0  0  0  0  0
   45.1030   30.3100   49.0840 C   0  0  0  0  0  0  0  0  0  0  0  0
   45.6330   29.7510   47.9550 C   0  0  0  0  0  0  0  0  0  0  0  0
   46.2720   30.4140   46.9400 C   0  0  0  0  0  0  0  0  0  0  0  0
   46.8930   29.4580   46.0110 C   0  0  0  0  0  0  0  0  0  0  0  0
   47.2610   28.0880   46.6490 C   0  0  0  0  0  0  0  0  0  0  0  0
   48.3380   28.3320   47.6290 C   0  0  0  0  0  0  0  0  0  0  0  0
   49.0820   29.5340   47.0670 C   0  0  0  0  0  0  0  0  0  0  0  0
   48.3640   29.7360   45.7440 C   0  0  0  0  0  0  0  0  0  0  0  0
   45.9160   32.4590   44.7990 C   0  0  0  0  0  0  0  0  0  0  0  0
   44.6270   35.8900   44.8410 C   0  0  0  0  0  0  0  0  0  0  0  0
   45.0400   36.3880   43.5760 C   0  0  0  0  0  0  0  0  0  0  0  0
   45.7560   35.5220   42.7730 C   0  0  0  0  0  0  0  0  0  0  0  0
   46.0240   34.2870   43.2030 N   0  0  0  0  0  0  0  0  0  0  0  0
   45.6030   33.8700   44.4180 C   0  0  0  0  0  0  0  0  0  0  0  0
   44.9220   34.6400   45.2280 N   0  0  0  0  0  0  0  0  0  0  0  0
   47.0296   33.5711   46.2289 H   0  0  0  0  0  0  0  0  0  0  0  0
   47.8057   32.0360   45.6524 H   0  0  0  0  0  0  0  0  0  0  0  0
   45.8779   33.4538   48.4267 H   0  0  0  0  0  0  0  0  0  0  0  0
   44.7690   32.1245   50.1896 H   0  0  0  0  0  0  0  0  0  0  0  0
   44.6115   29.6701   49.8317 H   0  0  0  0  0  0  0  0  0  0  0  0
   45.5371   28.6602   47.8506 H   0  0  0  0  0  0  0  0  0  0  0  0
   46.1567   29.5031   45.1950 H   0  0  0  0  0  0  0  0  0  0  0  0
   46.3825   27.6606   47.1545 H   0  0  0  0  0  0  0  0  0  0  0  0
   47.5917   27.3769   45.8777 H   0  0  0  0  0  0  0  0  0  0  0  0
   47.9200   28.5596   48.6207 H   0  0  0  0  0  0  0  0  0  0  0  0
   48.9904   27.4573   47.7675 H   0  0  0  0  0  0  0  0  0  0  0  0
   48.9782   30.4132   47.7199 H   0  0  0  0  0  0  0  0  0  0  0  0
   50.1681   29.3878   46.9725 H   0  0  0  0  0  0  0  0  0  0  0  0
   48.7529   29.0371   44.9888 H   0  0  0  0  0  0  0  0  0  0  0  0
   48.5151   30.7550   45.3582 H   0  0  0  0  0  0  0  0  0  0  0  0
   46.3843   31.9344   43.9532 H   0  0  0  0  0  0  0  0  0  0  0  0
   45.0001   31.9131   45.0695 H   0  0  0  0  0  0  0  0  0  0  0  0
   44.0540   36.5424   45.5163 H   0  0  0  0  0  0  0  0  0  0  0  0
   44.8014   37.4119   43.2525 H   0  0  0  0  0  0  0  0  0  0  0  0
   46.1044   35.8489   41.7822 H   0  0  0  0  0  0  0  0  0  0  0  0
  1  2  1  0
  2  3  2  0
  3  4  1  0
  5  4  2  0
  6  5  1  0
  7  2  1  0
  7  6  2  0
  8  9  1  0
  8  7  1  0
  9 10  1  0
 11 10  1  0
 12  8  1  0
 12 11  1  0
 13  1  1  0
 14 19  2  0
 15 14  1  0
 16 17  1  0
 16 15  2  0
 17 18  2  0
 18 13  1  0
 18 19  1  0
  1 20  1  0
  1 21  1  0
  3 22  1  0
  4 23  1  0
  5 24  1  0
  6 25  1  0
  8 26  1  0
  9 27  1  0
  9 28  1  0
 10 29  1  0
 10 30  1  0
 11 31  1  0
 11 32  1  0
 12 33  1  0
 12 34  1  0
 13 35  1  0
 13 36  1  0
 14 37  1  0
 15 38  1  0
 16 39  1  0
M  ISO  8  20   8  21   8  22  14  23  14  24  14  25  14  26  13  27  13
M  ISO  8  28  13  29  13  30  13  31  13  32  13  33  13  34  13  35   8
M  ISO  4  36   8  37  14  38  14  39  14
M  END
>  <minimizedAffinity>  (1) 
-4.98585558

>  <minimizedRMSD>  (1) 
1.00264609

$$$$
