
     RDKit          3D

 48 52  0  0  0  0  0  0  0  0999 V2000
   47.4910   31.9050   47.7290 C   0  0  0  0  0  0  0  0  0  0  0  0
   46.9430   30.6340   47.7850 C   0  0  0  0  0  0  0  0  0  0  0  0
   45.9110   30.3730   46.9490 C   0  0  0  0  0  0  0  0  0  0  0  0
   45.4670   31.3190   46.1180 N   0  0  0  0  0  0  0  0  0  0  0  0
   45.9790   32.5430   46.0430 C   0  0  0  0  0  0  0  0  0  0  0  0
   47.0050   32.8020   46.8810 N   0  0  0  0  0  0  0  0  0  0  0  0
   45.2820   29.1290   46.9350 N   0  0  0  0  0  0  0  0  0  0  0  0
   44.0290   28.8280   46.2220 C   0  0  0  0  0  0  0  0  0  0  0  0
   43.8500   27.3400   46.3360 C   0  0  0  0  0  0  0  0  0  0  0  0
   44.6620   26.9530   47.5400 C   0  0  0  0  0  0  0  0  0  0  0  0
   45.7470   27.9520   47.6060 C   0  0  0  0  0  0  0  0  0  0  0  0
   45.6440   33.7030   45.2170 C   0  0  0  0  0  0  0  0  0  0  0  0
   44.9190   34.7590   45.6900 N   0  0  0  0  0  0  0  0  0  0  0  0
   44.6020   35.8410   44.9900 C   0  0  0  0  0  0  0  0  0  0  0  0
   45.0120   35.9440   43.7020 N   0  0  0  0  0  0  0  0  0  0  0  0
   45.7360   34.9610   43.1260 C   0  0  0  0  0  0  0  0  0  0  0  0
   46.1290   35.0890   41.8250 C   0  0  0  0  0  0  0  0  0  0  0  0
   46.8580   34.0900   41.2270 C   0  0  0  0  0  0  0  0  0  0  0  0
   47.1690   32.9690   41.9850 C   0  0  0  0  0  0  0  0  0  0  0  0
   46.7380   32.9080   43.3020 C   0  0  0  0  0  0  0  0  0  0  0  0
   46.0190   33.8800   43.9170 C   0  0  0  0  0  0  0  0  0  0  0  0
   47.2290   31.6150   43.7560 C   0  0  0  0  0  0  0  0  0  0  0  0
   46.3450   30.5950   43.3170 C   0  0  0  0  0  0  0  0  0  0  0  0
   46.5640   29.2290   43.5350 C   0  0  0  0  0  0  0  0  0  0  0  0
   47.6950   28.8360   44.2120 C   0  0  0  0  0  0  0  0  0  0  0  0
   48.5690   29.7990   44.6490 C   0  0  0  0  0  0  0  0  0  0  0  0
   48.3350   31.1310   44.4250 C   0  0  0  0  0  0  0  0  0  0  0  0
   47.5070   29.6960   48.6610 N   0  0  0  0  0  0  0  0  0  0  0  0
   48.3302   32.1709   48.3885 H   0  0  0  0  0  0  0  0  0  0  0  0
   44.1063   29.1262   45.1660 H   0  0  0  0  0  0  0  0  0  0  0  0
   43.1753   29.3757   46.6478 H   0  0  0  0  0  0  0  0  0  0  0  0
   42.7900   27.0864   46.4844 H   0  0  0  0  0  0  0  0  0  0  0  0
   44.1714   26.8098   45.4274 H   0  0  0  0  0  0  0  0  0  0  0  0
   44.0458   26.9907   48.4504 H   0  0  0  0  0  0  0  0  0  0  0  0
   45.0496   25.9263   47.4645 H   0  0  0  0  0  0  0  0  0  0  0  0
   46.6469   27.5642   47.1062 H   0  0  0  0  0  0  0  0  0  0  0  0
   46.0077   28.1761   48.6509 H   0  0  0  0  0  0  0  0  0  0  0  0
   44.0119   36.6469   45.4507 H   0  0  0  0  0  0  0  0  0  0  0  0
   45.8621   35.9916   41.2558 H   0  0  0  0  0  0  0  0  0  0  0  0
   47.1852   34.1755   40.1803 H   0  0  0  0  0  0  0  0  0  0  0  0
   47.7481   32.1422   41.5479 H   0  0  0  0  0  0  0  0  0  0  0  0
   45.4361   30.8945   42.7746 H   0  0  0  0  0  0  0  0  0  0  0  0
   45.8431   28.4823   43.1706 H   0  0  0  0  0  0  0  0  0  0  0  0
   47.8948   27.7706   44.3993 H   0  0  0  0  0  0  0  0  0  0  0  0
   49.4770   29.4958   45.1908 H   0  0  0  0  0  0  0  0  0  0  0  0
   49.0717   31.8565   44.8004 H   0  0  0  0  0  0  0  0  0  0  0  0
   47.1156   28.7450   48.7189 H   0  0  0  0  0  0  0  0  0  0  0  0
   48.3128   29.9578   49.2467 H   0  0  0  0  0  0  0  0  0  0  0  0
  1  2  2  0
  2 28  1  0
  3  2  1  0
  4  3  2  0
  5  4  1  0
  5  6  2  0
  6  1  1  0
  7  3  1  0
  7 11  1  0
  8  9  1  0
  8  7  1  0
  9 10  1  0
 10 11  1  0
 12 13  2  0
 12  5  1  0
 14 13  1  0
 15 14  2  0
 16 15  1  0
 16 21  2  0
 17 16  1  0
 18 17  2  0
 18 19  1  0
 19 20  2  0
 20 22  1  0
 20 21  1  0
 21 12  1  0
 22 27  2  0
 23 24  2  0
 23 22  1  0
 24 25  1  0
 25 26  2  0
 27 26  1  0
  1 29  1  0
  8 30  1  0
  8 31  1  0
  9 32  1  0
  9 33  1  0
 10 34  1  0
 10 35  1  0
 11 36  1  0
 11 37  1  0
 14 38  1  0
 17 39  1  0
 18 40  1  0
 19 41  1  0
 23 42  1  0
 24 43  1  0
 25 44  1  0
 26 45  1  0
 27 46  1  0
 28 47  1  0
 28 48  1  0
M  ISO  8  29  14  30  13  31  13  32  13  33  13  34  13  35  13  36  13
M  ISO  8  37  13  38  14  39  14  40  14  41  14  42  14  43  14  44  14
M  ISO  2  45  14  46  14
M  END
>  <minimizedAffinity>  (1) 
-6.08904886

>  <minimizedRMSD>  (1) 
0.803415

$$$$
