
     RDKit          3D

 44 48  0  0  0  0  0  0  0  0999 V2000
   47.4990   31.8780   47.7610 C   0  0  0  0  0  0  0  0  0  0  0  0
   46.9380   30.6080   47.8090 C   0  0  0  0  0  0  0  0  0  0  0  0
   45.9100   30.3700   46.9640 C   0  0  0  0  0  0  0  0  0  0  0  0
   45.4710   31.3200   46.1260 N   0  0  0  0  0  0  0  0  0  0  0  0
   46.0040   32.5380   46.0670 C   0  0  0  0  0  0  0  0  0  0  0  0
   47.0270   32.7890   46.9090 N   0  0  0  0  0  0  0  0  0  0  0  0
   45.2610   29.1440   46.9490 N   0  0  0  0  0  0  0  0  0  0  0  0
   43.9860   28.8460   46.2620 C   0  0  0  0  0  0  0  0  0  0  0  0
   43.8540   27.3480   46.2900 C   0  0  0  0  0  0  0  0  0  0  0  0
   44.6300   26.9540   47.5110 C   0  0  0  0  0  0  0  0  0  0  0  0
   45.7220   27.9480   47.6160 C   0  0  0  0  0  0  0  0  0  0  0  0
   45.6950   33.6990   45.2230 C   0  0  0  0  0  0  0  0  0  0  0  0
   44.9140   34.7310   45.6520 N   0  0  0  0  0  0  0  0  0  0  0  0
   44.6160   35.8090   44.9340 C   0  0  0  0  0  0  0  0  0  0  0  0
   45.1040   35.9320   43.6800 N   0  0  0  0  0  0  0  0  0  0  0  0
   45.8890   34.9750   43.1480 C   0  0  0  0  0  0  0  0  0  0  0  0
   46.3770   35.1140   41.8780 C   0  0  0  0  0  0  0  0  0  0  0  0
   47.1690   34.1580   41.3260 C   0  0  0  0  0  0  0  0  0  0  0  0
   47.4610   33.0440   42.0960 C   0  0  0  0  0  0  0  0  0  0  0  0
   46.9430   32.9480   43.3780 C   0  0  0  0  0  0  0  0  0  0  0  0
   46.1530   33.8860   43.9540 C   0  0  0  0  0  0  0  0  0  0  0  0
   47.3920   31.6490   43.8740 C   0  0  0  0  0  0  0  0  0  0  0  0
   46.4200   30.5200   43.2580 C   0  0  0  0  0  0  0  0  0  0  0  0
   47.0960   28.9690   43.9340 S   0  0  0  0  0  0  0  0  0  0  0  0
   48.4640   29.9180   44.8660 C   0  0  0  0  0  0  0  0  0  0  0  0
   48.2920   31.0700   44.6150 N   0  0  0  0  0  0  0  0  0  0  0  0
   47.5030   29.6560   48.6450 N   0  0  0  0  0  0  0  0  0  0  0  0
   48.3356   32.1331   48.4282 H   0  0  0  0  0  0  0  0  0  0  0  0
   44.0144   29.2099   45.2243 H   0  0  0  0  0  0  0  0  0  0  0  0
   43.1338   29.3396   46.7519 H   0  0  0  0  0  0  0  0  0  0  0  0
   42.7997   27.0473   46.3796 H   0  0  0  0  0  0  0  0  0  0  0  0
   44.2235   26.8669   45.3724 H   0  0  0  0  0  0  0  0  0  0  0  0
   43.9885   26.9903   48.4038 H   0  0  0  0  0  0  0  0  0  0  0  0
   45.0157   25.9264   47.4385 H   0  0  0  0  0  0  0  0  0  0  0  0
   46.6300   27.5667   47.1259 H   0  0  0  0  0  0  0  0  0  0  0  0
   45.9707   28.1527   48.6678 H   0  0  0  0  0  0  0  0  0  0  0  0
   43.9758   36.5965   45.3582 H   0  0  0  0  0  0  0  0  0  0  0  0
   46.1248   36.0123   41.2953 H   0  0  0  0  0  0  0  0  0  0  0  0
   47.5640   34.2647   40.3049 H   0  0  0  0  0  0  0  0  0  0  0  0
   48.0983   32.2428   41.6936 H   0  0  0  0  0  0  0  0  0  0  0  0
   45.5563   30.6539   42.5901 H   0  0  0  0  0  0  0  0  0  0  0  0
   49.2505   29.4893   45.5044 H   0  0  0  0  0  0  0  0  0  0  0  0
   47.1004   28.7092   48.6935 H   0  0  0  0  0  0  0  0  0  0  0  0
   48.3251   29.8960   49.2172 H   0  0  0  0  0  0  0  0  0  0  0  0
  1  2  2  0
  2 27  1  0
  3  2  1  0
  4  3  2  0
  5  4  1  0
  5  6  2  0
  6  1  1  0
  7  3  1  0
  7 11  1  0
  8  9  1  0
  8  7  1  0
  9 10  1  0
 10 11  1  0
 12 13  2  0
 12  5  1  0
 14 13  1  0
 15 14  2  0
 16 15  1  0
 16 21  2  0
 17 16  1  0
 18 17  2  0
 18 19  1  0
 19 20  2  0
 20 22  1  0
 20 21  1  0
 21 12  1  0
 22 26  1  0
 23 22  2  0
 23 24  1  0
 24 25  1  0
 26 25  2  0
  1 28  1  0
  8 29  1  0
  8 30  1  0
  9 31  1  0
  9 32  1  0
 10 33  1  0
 10 34  1  0
 11 35  1  0
 11 36  1  0
 14 37  1  0
 17 38  1  0
 18 39  1  0
 19 40  1  0
 23 41  1  0
 25 42  1  0
 27 43  1  0
 27 44  1  0
M  ISO  8  28  14  29  13  30  13  31  13  32  13  33  13  34  13  35  13
M  ISO  7  36  13  37  14  38  14  39  14  40  14  41  14  42  14
M  END
>  <minimizedAffinity>  (1) 
-6.09132767

>  <minimizedRMSD>  (1) 
0.610525072

$$$$
