
     RDKit          3D

 39 41  0  0  0  0  0  0  0  0999 V2000
   46.2390   31.8310   47.1080 C   0  0  0  0  0  0  0  0  0  0  0  0
   45.9710   32.4230   48.3330 C   0  0  0  0  0  0  0  0  0  0  0  0
   45.4160   31.7550   49.3920 C   0  0  0  0  0  0  0  0  0  0  0  0
   45.1180   30.4210   49.1940 C   0  0  0  0  0  0  0  0  0  0  0  0
   45.3990   29.8460   47.9490 C   0  0  0  0  0  0  0  0  0  0  0  0
   45.9580   30.5220   46.8910 C   0  0  0  0  0  0  0  0  0  0  0  0
   46.9770   28.6920   45.2750 C   0  0  0  0  0  0  0  0  0  0  0  0
   45.9790   29.4260   45.9250 C   0  0  0  0  0  0  0  0  0  0  0  0
   44.6450   29.0670   45.6660 C   0  0  0  0  0  0  0  0  0  0  0  0
   44.2940   28.0410   44.8180 C   0  0  0  0  0  0  0  0  0  0  0  0
   45.2920   27.3410   44.1980 C   0  0  0  0  0  0  0  0  0  0  0  0
   46.5930   27.6800   44.4410 C   0  0  0  0  0  0  0  0  0  0  0  0
   48.5690   29.2650   45.6540 S   0  0  0  0  0  0  0  0  0  0  0  0
   49.3690   28.0200   46.0150 O   0  0  0  0  0  0  0  0  0  0  0  0
   49.2690   29.8520   44.4470 O   0  0  0  0  0  0  0  0  0  0  0  0
   46.8320   32.5040   45.9220 C   0  0  0  0  0  0  0  0  0  0  0  0
   45.9100   32.4570   44.7410 C   0  0  0  0  0  0  0  0  0  0  0  0
   44.6150   35.9180   44.8240 C   0  0  0  0  0  0  0  0  0  0  0  0
   45.0330   36.4100   43.5560 C   0  0  0  0  0  0  0  0  0  0  0  0
   45.7540   35.5350   42.7490 C   0  0  0  0  0  0  0  0  0  0  0  0
   46.0270   34.2960   43.1680 N   0  0  0  0  0  0  0  0  0  0  0  0
   45.5960   33.8880   44.3940 C   0  0  0  0  0  0  0  0  0  0  0  0
   44.9120   34.6650   45.2070 N   0  0  0  0  0  0  0  0  0  0  0  0
   46.2176   33.4873   48.4612 H   0  0  0  0  0  0  0  0  0  0  0  0
   45.2177   32.2554   50.3513 H   0  0  0  0  0  0  0  0  0  0  0  0
   44.6684   29.8217   49.9994 H   0  0  0  0  0  0  0  0  0  0  0  0
   45.1563   28.7824   47.8081 H   0  0  0  0  0  0  0  0  0  0  0  0
   43.8438   29.6325   46.1643 H   0  0  0  0  0  0  0  0  0  0  0  0
   43.2372   27.7904   44.6434 H   0  0  0  0  0  0  0  0  0  0  0  0
   45.0503   26.5155   43.5124 H   0  0  0  0  0  0  0  0  0  0  0  0
   47.3800   27.1026   43.9339 H   0  0  0  0  0  0  0  0  0  0  0  0
   48.4817   30.2198   46.6326 H   0  0  0  0  0  0  0  0  0  0  0  0
   47.0364   33.5552   46.1734 H   0  0  0  0  0  0  0  0  0  0  0  0
   47.7593   31.9758   45.6552 H   0  0  0  0  0  0  0  0  0  0  0  0
   46.4022   31.9585   43.8929 H   0  0  0  0  0  0  0  0  0  0  0  0
   44.9951   31.8907   44.9698 H   0  0  0  0  0  0  0  0  0  0  0  0
   44.0420   36.5712   45.4985 H   0  0  0  0  0  0  0  0  0  0  0  0
   44.7974   37.4335   43.2291 H   0  0  0  0  0  0  0  0  0  0  0  0
   46.1016   35.8658   41.7592 H   0  0  0  0  0  0  0  0  0  0  0  0
  1  2  2  0
  2  3  1  0
  4  3  2  0
  5  4  1  0
  6  1  1  0
  6  5  2  0
  7 13  1  0
  7  8  2  0
  8  6  1  0
  9  8  1  0
 10  9  2  0
 11 12  2  0
 11 10  1  0
 12  7  1  0
 13 14  2  0
 15 13  2  0
 16  1  1  0
 17 16  1  0
 18 23  2  0
 19 18  1  0
 20 21  1  0
 20 19  2  0
 21 22  2  0
 22 17  1  0
 22 23  1  0
  2 24  1  0
  3 25  1  0
  4 26  1  0
  5 27  1  0
  9 28  1  0
 10 29  1  0
 11 30  1  0
 12 31  1  0
 13 32  1  0
 16 33  1  0
 16 34  1  0
 17 35  1  0
 17 36  1  0
 18 37  1  0
 19 38  1  0
 20 39  1  0
M  ISO  8  24  14  25  14  26  14  27  14  28  14  29  14  30  14  31  14
M  ISO  8  32  11  33   8  34   8  35   8  36   8  37  14  38  14  39  14
M  END
>  <minimizedAffinity>  (1) 
-4.91412544

>  <minimizedRMSD>  (1) 
0.943212092

$$$$
