
     RDKit          3D

 50 54  0  0  0  0  0  0  0  0999 V2000
   45.6940   33.8190   45.3550 C   0  0  0  0  0  0  0  0  0  0  0  0
   44.7980   34.7550   45.7020 N   0  0  0  0  0  0  0  0  0  0  0  0
   44.4810   35.8200   44.9750 C   0  0  0  0  0  0  0  0  0  0  0  0
   45.0840   36.0210   43.7780 N   0  0  0  0  0  0  0  0  0  0  0  0
   45.9940   35.1610   43.3240 C   0  0  0  0  0  0  0  0  0  0  0  0
   46.6080   35.3660   42.1090 C   0  0  0  0  0  0  0  0  0  0  0  0
   47.5470   34.4930   41.6220 C   0  0  0  0  0  0  0  0  0  0  0  0
   47.8640   33.3840   42.4000 C   0  0  0  0  0  0  0  0  0  0  0  0
   47.2060   33.2330   43.6220 C   0  0  0  0  0  0  0  0  0  0  0  0
   46.2790   34.0780   44.1220 C   0  0  0  0  0  0  0  0  0  0  0  0
   47.5250   32.0350   47.9170 C   0  0  0  0  0  0  0  0  0  0  0  0
   47.0190   30.7310   47.9230 C   0  0  0  0  0  0  0  0  0  0  0  0
   46.0070   30.4560   47.0380 C   0  0  0  0  0  0  0  0  0  0  0  0
   45.5610   31.4130   46.2250 N   0  0  0  0  0  0  0  0  0  0  0  0
   46.0240   32.6450   46.1990 C   0  0  0  0  0  0  0  0  0  0  0  0
   47.0190   32.9410   47.0660 N   0  0  0  0  0  0  0  0  0  0  0  0
   45.4550   29.1950   47.0090 N   0  0  0  0  0  0  0  0  0  0  0  0
   44.2570   28.8380   46.2090 C   0  0  0  0  0  0  0  0  0  0  0  0
   44.1660   27.3370   46.2460 C   0  0  0  0  0  0  0  0  0  0  0  0
   44.8260   27.0030   47.5440 C   0  0  0  0  0  0  0  0  0  0  0  0
   45.8910   28.0320   47.7100 C   0  0  0  0  0  0  0  0  0  0  0  0
   47.6020   29.8250   48.7660 N   0  0  0  0  0  0  0  0  0  0  0  0
   48.8480   32.5250   41.8050 C   0  0  0  0  0  0  0  0  0  0  0  0
   48.6880   31.3530   41.0950 C   0  0  0  0  0  0  0  0  0  0  0  0
   49.7490   30.6320   40.5900 C   0  0  0  0  0  0  0  0  0  0  0  0
   51.0470   31.0560   40.7760 C   0  0  0  0  0  0  0  0  0  0  0  0
   51.2690   32.2190   41.4740 C   0  0  0  0  0  0  0  0  0  0  0  0
   50.1850   32.9100   41.9620 C   0  0  0  0  0  0  0  0  0  0  0  0
   47.6630   32.0470   44.2830 N   0  0  0  0  0  0  0  0  0  0  0  0
   43.7318   36.5364   45.3429 H   0  0  0  0  0  0  0  0  0  0  0  0
   46.3390   36.2515   41.5144 H   0  0  0  0  0  0  0  0  0  0  0  0
   48.0327   34.6637   40.6499 H   0  0  0  0  0  0  0  0  0  0  0  0
   48.3342   32.3167   48.6068 H   0  0  0  0  0  0  0  0  0  0  0  0
   44.3711   29.1886   45.1726 H   0  0  0  0  0  0  0  0  0  0  0  0
   43.3479   29.3069   46.6136 H   0  0  0  0  0  0  0  0  0  0  0  0
   43.1182   27.0022   46.2355 H   0  0  0  0  0  0  0  0  0  0  0  0
   44.6339   26.8486   45.3786 H   0  0  0  0  0  0  0  0  0  0  0  0
   44.1028   27.0579   48.3710 H   0  0  0  0  0  0  0  0  0  0  0  0
   45.2335   25.9813   47.5499 H   0  0  0  0  0  0  0  0  0  0  0  0
   46.8385   27.6677   47.2863 H   0  0  0  0  0  0  0  0  0  0  0  0
   46.0622   28.2540   48.7737 H   0  0  0  0  0  0  0  0  0  0  0  0
   47.2566   28.8552   48.7983 H   0  0  0  0  0  0  0  0  0  0  0  0
   48.3863   30.1127   49.3685 H   0  0  0  0  0  0  0  0  0  0  0  0
   47.6684   30.9771   40.9242 H   0  0  0  0  0  0  0  0  0  0  0  0
   49.5567   29.7047   40.0304 H   0  0  0  0  0  0  0  0  0  0  0  0
   51.8895   30.4746   40.3734 H   0  0  0  0  0  0  0  0  0  0  0  0
   52.2917   32.5890   41.6387 H   0  0  0  0  0  0  0  0  0  0  0  0
   50.3837   33.8375   42.5191 H   0  0  0  0  0  0  0  0  0  0  0  0
   47.2758   31.7876   45.2015 H   0  0  0  0  0  0  0  0  0  0  0  0
   48.3788   31.4537   43.8397 H   0  0  0  0  0  0  0  0  0  0  0  0
  1  2  2  0
  1 15  1  0
  3  2  1  0
  4  3  2  0
  5  4  1  0
  5 10  2  0
  6  5  1  0
  7  6  2  0
  7  8  1  0
  8  9  2  0
  9 10  1  0
  9 29  1  0
 10  1  1  0
 11 12  2  0
 12 22  1  0
 13 12  1  0
 14 13  2  0
 15 14  1  0
 15 16  2  0
 16 11  1  0
 17 13  1  0
 17 21  1  0
 18 19  1  0
 18 17  1  0
 19 20  1  0
 20 21  1  0
 23 28  1  0
 23  8  1  0
 24 23  2  0
 25 26  2  0
 25 24  1  0
 26 27  1  0
 27 28  2  0
  3 30  1  0
  6 31  1  0
  7 32  1  0
 11 33  1  0
 18 34  1  0
 18 35  1  0
 19 36  1  0
 19 37  1  0
 20 38  1  0
 20 39  1  0
 21 40  1  0
 21 41  1  0
 22 42  1  0
 22 43  1  0
 24 44  1  0
 25 45  1  0
 26 46  1  0
 27 47  1  0
 28 48  1  0
 29 49  1  0
 29 50  1  0
M  ISO  8  30  14  31  14  32  14  33  14  34  13  35  13  36  13  37  13
M  ISO  8  38  13  39  13  40  13  41  13  44  14  45  14  46  14  47  14
M  ISO  1  48  14
M  END
>  <minimizedAffinity>  (1) 
-7.17458153

>  <minimizedRMSD>  (1) 
0.321531326

$$$$
