
     RDKit          3D

 46 49  0  0  0  0  0  0  0  0999 V2000
   47.3110   32.1450   47.8740 C   0  0  0  0  0  0  0  0  0  0  0  0
   46.7860   30.8500   47.8910 C   0  0  0  0  0  0  0  0  0  0  0  0
   45.8790   30.5480   46.9310 C   0  0  0  0  0  0  0  0  0  0  0  0
   45.5280   31.4730   46.0240 N   0  0  0  0  0  0  0  0  0  0  0  0
   46.0150   32.6990   45.9900 C   0  0  0  0  0  0  0  0  0  0  0  0
   46.9160   33.0200   46.9390 N   0  0  0  0  0  0  0  0  0  0  0  0
   45.2980   29.2990   46.8930 N   0  0  0  0  0  0  0  0  0  0  0  0
   44.1590   28.9250   46.0070 C   0  0  0  0  0  0  0  0  0  0  0  0
   44.0570   27.4260   46.0850 C   0  0  0  0  0  0  0  0  0  0  0  0
   44.6240   27.1130   47.4210 C   0  0  0  0  0  0  0  0  0  0  0  0
   45.6550   28.1570   47.6760 C   0  0  0  0  0  0  0  0  0  0  0  0
   45.7870   33.8310   45.0620 C   0  0  0  0  0  0  0  0  0  0  0  0
   44.8620   34.7800   45.2580 N   0  0  0  0  0  0  0  0  0  0  0  0
   44.6330   35.8080   44.4510 C   0  0  0  0  0  0  0  0  0  0  0  0
   45.3690   35.9540   43.3240 N   0  0  0  0  0  0  0  0  0  0  0  0
   46.3190   35.0730   43.0210 C   0  0  0  0  0  0  0  0  0  0  0  0
   47.0840   35.2200   41.8750 C   0  0  0  0  0  0  0  0  0  0  0  0
   48.0690   34.3420   41.5530 C   0  0  0  0  0  0  0  0  0  0  0  0
   48.2840   33.2920   42.4070 C   0  0  0  0  0  0  0  0  0  0  0  0
   47.5090   33.1620   43.5450 C   0  0  0  0  0  0  0  0  0  0  0  0
   46.5180   34.0230   43.8930 C   0  0  0  0  0  0  0  0  0  0  0  0
   47.8600   32.0120   44.3060 N   0  0  0  0  0  0  0  0  0  0  0  0
   49.3730   32.3800   41.9620 C   0  0  0  0  0  0  0  0  0  0  0  0
   50.7500   32.9250   42.1420 C   0  0  0  0  0  0  0  0  0  0  0  0
   47.2600   29.9810   48.8360 N   0  0  0  0  0  0  0  0  0  0  0  0
   48.0506   32.4470   48.6302 H   0  0  0  0  0  0  0  0  0  0  0  0
   44.3575   29.2425   44.9727 H   0  0  0  0  0  0  0  0  0  0  0  0
   43.2240   29.4122   46.3206 H   0  0  0  0  0  0  0  0  0  0  0  0
   43.0092   27.0984   46.0152 H   0  0  0  0  0  0  0  0  0  0  0  0
   44.5829   26.9159   45.2645 H   0  0  0  0  0  0  0  0  0  0  0  0
   43.8386   27.1537   48.1901 H   0  0  0  0  0  0  0  0  0  0  0  0
   45.0544   26.1012   47.4524 H   0  0  0  0  0  0  0  0  0  0  0  0
   46.6473   27.7889   47.3761 H   0  0  0  0  0  0  0  0  0  0  0  0
   45.6980   28.4126   48.7450 H   0  0  0  0  0  0  0  0  0  0  0  0
   43.8483   36.5387   44.6966 H   0  0  0  0  0  0  0  0  0  0  0  0
   46.8880   36.0718   41.2072 H   0  0  0  0  0  0  0  0  0  0  0  0
   48.6713   34.4689   40.6413 H   0  0  0  0  0  0  0  0  0  0  0  0
   47.3574   31.7994   45.1795 H   0  0  0  0  0  0  0  0  0  0  0  0
   48.6167   31.3922   43.9833 H   0  0  0  0  0  0  0  0  0  0  0  0
   49.2257   32.1652   40.8933 H   0  0  0  0  0  0  0  0  0  0  0  0
   49.3070   31.4826   42.5948 H   0  0  0  0  0  0  0  0  0  0  0  0
   50.9721   33.0129   43.2158 H   0  0  0  0  0  0  0  0  0  0  0  0
   51.4771   32.2469   41.6715 H   0  0  0  0  0  0  0  0  0  0  0  0
   50.8161   33.9171   41.6715 H   0  0  0  0  0  0  0  0  0  0  0  0
   46.8964   29.0183   48.8788 H   0  0  0  0  0  0  0  0  0  0  0  0
   47.9803   30.2897   49.5044 H   0  0  0  0  0  0  0  0  0  0  0  0
  1  2  2  0
  2 25  1  0
  3  2  1  0
  4  3  2  0
  5  4  1  0
  5  6  2  0
  6  1  1  0
  7  3  1  0
  7 11  1  0
  8  9  1  0
  8  7  1  0
  9 10  1  0
 10 11  1  0
 12 13  2  0
 12  5  1  0
 14 13  1  0
 15 14  2  0
 16 15  1  0
 16 21  2  0
 17 16  1  0
 18 17  2  0
 18 19  1  0
 19 20  2  0
 20 21  1  0
 20 22  1  0
 21 12  1  0
 23 24  1  0
 23 19  1  0
  1 26  1  0
  8 27  1  0
  8 28  1  0
  9 29  1  0
  9 30  1  0
 10 31  1  0
 10 32  1  0
 11 33  1  0
 11 34  1  0
 14 35  1  0
 17 36  1  0
 18 37  1  0
 22 38  1  0
 22 39  1  0
 23 40  1  0
 23 41  1  0
 24 42  1  0
 24 43  1  0
 24 44  1  0
 25 45  1  0
 25 46  1  0
M  ISO  8  26  14  27  13  28  13  29  13  30  13  31  13  32  13  33  13
M  ISO  8  34  13  35  14  36  14  37  14  40   8  41   8  42   8  43   8
M  ISO  1  44   8
M  END
>  <minimizedAffinity>  (1) 
-6.67138863

>  <minimizedRMSD>  (1) 
0.258715272

$$$$
