
     RDKit          3D

 43 46  0  0  0  0  0  0  0  0999 V2000
   47.4430   32.0610   47.8580 C   0  0  0  0  0  0  0  0  0  0  0  0
   46.9030   30.7710   47.8860 C   0  0  0  0  0  0  0  0  0  0  0  0
   45.9210   30.4910   46.9820 C   0  0  0  0  0  0  0  0  0  0  0  0
   45.5180   31.4310   46.1180 N   0  0  0  0  0  0  0  0  0  0  0  0
   46.0180   32.6540   46.0720 C   0  0  0  0  0  0  0  0  0  0  0  0
   46.9900   32.9540   46.9640 N   0  0  0  0  0  0  0  0  0  0  0  0
   45.3290   29.2500   46.9630 N   0  0  0  0  0  0  0  0  0  0  0  0
   44.1420   28.8970   46.1350 C   0  0  0  0  0  0  0  0  0  0  0  0
   44.0360   27.3950   46.1960 C   0  0  0  0  0  0  0  0  0  0  0  0
   44.6550   27.0740   47.5140 C   0  0  0  0  0  0  0  0  0  0  0  0
   45.7170   28.0980   47.7090 C   0  0  0  0  0  0  0  0  0  0  0  0
   45.7450   33.8120   45.1860 C   0  0  0  0  0  0  0  0  0  0  0  0
   44.8590   34.7760   45.4720 N   0  0  0  0  0  0  0  0  0  0  0  0
   44.5940   35.8260   44.7040 C   0  0  0  0  0  0  0  0  0  0  0  0
   45.2450   35.9810   43.5280 N   0  0  0  0  0  0  0  0  0  0  0  0
   46.1600   35.0840   43.1240 C   0  0  0  0  0  0  0  0  0  0  0  0
   46.8230   35.2410   41.9300 C   0  0  0  0  0  0  0  0  0  0  0  0
   47.7490   34.3420   41.5110 C   0  0  0  0  0  0  0  0  0  0  0  0
   48.0160   33.2470   42.3250 C   0  0  0  0  0  0  0  0  0  0  0  0
   47.3120   33.1420   43.5240 C   0  0  0  0  0  0  0  0  0  0  0  0
   46.3850   34.0170   43.9700 C   0  0  0  0  0  0  0  0  0  0  0  0
   49.0290   32.2560   41.8770 C   0  0  0  0  0  0  0  0  0  0  0  0
   48.3110   31.1100   41.5070 F   0  0  0  0  0  0  0  0  0  0  0  0
   49.6120   32.7160   40.7150 F   0  0  0  0  0  0  0  0  0  0  0  0
   49.9970   31.9860   42.7940 F   0  0  0  0  0  0  0  0  0  0  0  0
   47.7040   31.9620   44.2340 N   0  0  0  0  0  0  0  0  0  0  0  0
   47.4340   29.8760   48.7720 N   0  0  0  0  0  0  0  0  0  0  0  0
   48.2362   32.3427   48.5662 H   0  0  0  0  0  0  0  0  0  0  0  0
   44.2859   29.2297   45.0964 H   0  0  0  0  0  0  0  0  0  0  0  0
   43.2282   29.3844   46.5058 H   0  0  0  0  0  0  0  0  0  0  0  0
   42.9856   27.0701   46.1618 H   0  0  0  0  0  0  0  0  0  0  0  0
   44.5247   26.8890   45.3503 H   0  0  0  0  0  0  0  0  0  0  0  0
   43.9061   27.1379   48.3172 H   0  0  0  0  0  0  0  0  0  0  0  0
   45.0613   26.0521   47.5382 H   0  0  0  0  0  0  0  0  0  0  0  0
   46.6810   27.7169   47.3410 H   0  0  0  0  0  0  0  0  0  0  0  0
   45.8349   28.3426   48.7750 H   0  0  0  0  0  0  0  0  0  0  0  0
   43.8472   36.5680   45.0229 H   0  0  0  0  0  0  0  0  0  0  0  0
   46.5979   36.1145   41.3005 H   0  0  0  0  0  0  0  0  0  0  0  0
   48.2740   34.4759   40.5537 H   0  0  0  0  0  0  0  0  0  0  0  0
   47.2729   31.7407   45.1429 H   0  0  0  0  0  0  0  0  0  0  0  0
   48.4171   31.3344   43.8359 H   0  0  0  0  0  0  0  0  0  0  0  0
   47.0617   28.9169   48.8207 H   0  0  0  0  0  0  0  0  0  0  0  0
   48.2065   30.1606   49.3910 H   0  0  0  0  0  0  0  0  0  0  0  0
  1  2  2  0
  2 27  1  0
  3  2  1  0
  4  3  2  0
  5  4  1  0
  5  6  2  0
  6  1  1  0
  7  3  1  0
  7 11  1  0
  8  9  1  0
  8  7  1  0
  9 10  1  0
 10 11  1  0
 12 13  2  0
 12  5  1  0
 14 13  1  0
 15 14  2  0
 16 15  1  0
 16 21  2  0
 17 16  1  0
 18 17  2  0
 18 19  1  0
 19 20  2  0
 20 21  1  0
 20 26  1  0
 21 12  1  0
 22 19  1  0
 22 25  1  0
 23 22  1  0
 24 22  1  0
  1 28  1  0
  8 29  1  0
  8 30  1  0
  9 31  1  0
  9 32  1  0
 10 33  1  0
 10 34  1  0
 11 35  1  0
 11 36  1  0
 14 37  1  0
 17 38  1  0
 18 39  1  0
 26 40  1  0
 26 41  1  0
 27 42  1  0
 27 43  1  0
M  ISO  8  28  14  29  13  30  13  31  13  32  13  33  13  34  13  35  13
M  ISO  4  36  13  37  14  38  14  39  14
M  END
>  <minimizedAffinity>  (1) 
-6.7393918

>  <minimizedRMSD>  (1) 
0.124377206

$$$$
