
     RDKit          3D

 47 51  0  0  0  0  0  0  0  0999 V2000
   47.2890   32.2040   47.9460 C   0  0  0  0  0  0  0  0  0  0  0  0
   46.7650   30.9070   47.9740 C   0  0  0  0  0  0  0  0  0  0  0  0
   45.8530   30.5880   46.9970 C   0  0  0  0  0  0  0  0  0  0  0  0
   45.5170   31.4980   46.0860 N   0  0  0  0  0  0  0  0  0  0  0  0
   46.0080   32.7310   46.0470 C   0  0  0  0  0  0  0  0  0  0  0  0
   46.8970   33.0600   46.9940 N   0  0  0  0  0  0  0  0  0  0  0  0
   45.2840   29.3350   46.9880 N   0  0  0  0  0  0  0  0  0  0  0  0
   44.1510   28.9490   46.0980 C   0  0  0  0  0  0  0  0  0  0  0  0
   44.0560   27.4480   46.1940 C   0  0  0  0  0  0  0  0  0  0  0  0
   44.5730   27.1770   47.5670 C   0  0  0  0  0  0  0  0  0  0  0  0
   45.6300   28.2050   47.7900 C   0  0  0  0  0  0  0  0  0  0  0  0
   45.7780   33.8480   45.1040 C   0  0  0  0  0  0  0  0  0  0  0  0
   44.8580   34.7980   45.2750 N   0  0  0  0  0  0  0  0  0  0  0  0
   44.6260   35.8050   44.4490 C   0  0  0  0  0  0  0  0  0  0  0  0
   45.3570   35.9270   43.3140 N   0  0  0  0  0  0  0  0  0  0  0  0
   46.3190   35.0370   43.0190 C   0  0  0  0  0  0  0  0  0  0  0  0
   47.0790   35.1610   41.8720 C   0  0  0  0  0  0  0  0  0  0  0  0
   48.0630   34.2760   41.5710 C   0  0  0  0  0  0  0  0  0  0  0  0
   48.2770   33.2490   42.4520 C   0  0  0  0  0  0  0  0  0  0  0  0
   47.4900   33.1560   43.5960 C   0  0  0  0  0  0  0  0  0  0  0  0
   46.4990   34.0190   43.9310 C   0  0  0  0  0  0  0  0  0  0  0  0
   47.8500   32.0150   44.3730 N   0  0  0  0  0  0  0  0  0  0  0  0
   49.3630   32.2820   42.1150 C   0  0  0  0  0  0  0  0  0  0  0  0
   50.0120   32.2580   40.7890 C   0  0  0  0  0  0  0  0  0  0  0  0
   50.7630   32.8020   42.0070 C   0  0  0  0  0  0  0  0  0  0  0  0
   47.2290   30.0500   48.9370 N   0  0  0  0  0  0  0  0  0  0  0  0
   48.0210   32.5196   48.7040 H   0  0  0  0  0  0  0  0  0  0  0  0
   44.3548   29.2557   45.0615 H   0  0  0  0  0  0  0  0  0  0  0  0
   43.2120   29.4371   46.3982 H   0  0  0  0  0  0  0  0  0  0  0  0
   43.0152   27.1082   46.0872 H   0  0  0  0  0  0  0  0  0  0  0  0
   44.6136   26.9227   45.4046 H   0  0  0  0  0  0  0  0  0  0  0  0
   43.7691   27.2811   48.3106 H   0  0  0  0  0  0  0  0  0  0  0  0
   44.9636   26.1536   47.6674 H   0  0  0  0  0  0  0  0  0  0  0  0
   46.6111   27.8112   47.4859 H   0  0  0  0  0  0  0  0  0  0  0  0
   45.6937   28.4807   48.8530 H   0  0  0  0  0  0  0  0  0  0  0  0
   43.8425   36.5409   44.6825 H   0  0  0  0  0  0  0  0  0  0  0  0
   46.8817   35.9977   41.1857 H   0  0  0  0  0  0  0  0  0  0  0  0
   48.6648   34.3793   40.6560 H   0  0  0  0  0  0  0  0  0  0  0  0
   47.3532   31.8132   45.2524 H   0  0  0  0  0  0  0  0  0  0  0  0
   48.6067   31.3930   44.0546 H   0  0  0  0  0  0  0  0  0  0  0  0
   48.8508   31.5071   42.7043 H   0  0  0  0  0  0  0  0  0  0  0  0
   49.6748   32.9442   39.9981 H   0  0  0  0  0  0  0  0  0  0  0  0
   50.2105   31.4850   40.0320 H   0  0  0  0  0  0  0  0  0  0  0  0
   51.6000   32.2353   42.4409 H   0  0  0  0  0  0  0  0  0  0  0  0
   51.2758   33.7415   42.2608 H   0  0  0  0  0  0  0  0  0  0  0  0
   46.8660   29.0874   48.9880 H   0  0  0  0  0  0  0  0  0  0  0  0
   47.9408   30.3683   49.6100 H   0  0  0  0  0  0  0  0  0  0  0  0
  1  2  2  0
  2 26  1  0
  3  2  1  0
  4  3  2  0
  5  4  1  0
  5  6  2  0
  6  1  1  0
  7  3  1  0
  7 11  1  0
  8  9  1  0
  8  7  1  0
  9 10  1  0
 10 11  1  0
 12 13  2  0
 12  5  1  0
 14 13  1  0
 15 14  2  0
 16 15  1  0
 16 21  2  0
 17 16  1  0
 18 17  2  0
 18 19  1  0
 19 20  2  0
 20 21  1  0
 20 22  1  0
 21 12  1  0
 23 19  1  0
 24 25  1  0
 24 23  1  0
 25 23  1  0
  1 27  1  0
  8 28  1  0
  8 29  1  0
  9 30  1  0
  9 31  1  0
 10 32  1  0
 10 33  1  0
 11 34  1  0
 11 35  1  0
 14 36  1  0
 17 37  1  0
 18 38  1  0
 22 39  1  0
 22 40  1  0
 23 41  1  0
 24 42  1  0
 24 43  1  0
 25 44  1  0
 25 45  1  0
 26 46  1  0
 26 47  1  0
M  ISO  8  27  14  28  13  29  13  30  13  31  13  32  13  33  13  34  13
M  ISO  8  35  13  36  14  37  14  38  14  41  13  42  13  43  13  44  13
M  ISO  1  45  13
M  END
>  <minimizedAffinity>  (1) 
-6.86004972

>  <minimizedRMSD>  (1) 
0.468638599

$$$$
