
     RDKit          3D

 37 39  0  0  1  0  0  0  0  0999 V2000
   44.7380   32.9970   41.1660 Br  0  0  0  0  0  0  0  0  0  0  0  0
   46.3740   33.9250   40.9160 C   0  0  0  0  0  0  0  0  0  0  0  0
   46.8720   34.7240   41.9030 C   0  0  0  0  0  0  0  0  0  0  0  0
   48.0880   35.4240   41.7380 C   0  0  0  0  0  0  0  0  0  0  0  0
   48.7500   35.2740   40.5590 C   0  0  0  0  0  0  0  0  0  0  0  0
   48.2110   34.4580   39.5890 C   0  0  0  0  0  0  0  0  0  0  0  0
   47.0460   33.7800   39.7310 C   0  0  0  0  0  0  0  0  0  0  0  0
   46.5970   32.9640   38.6450 N   0  0  0  0  0  0  0  0  0  0  0  0
   45.9060   33.3790   37.4470 C   0  0  0  0  0  0  0  0  0  0  0  0
   44.9220   32.3220   36.9790 C   0  0  0  0  0  0  0  0  0  0  0  0
   45.5960   31.0900   36.6010 N   0  0  0  0  0  0  0  0  0  0  0  0
   46.9240   31.0980   37.1920 C   0  0  0  0  0  0  0  0  0  0  0  0
   46.8150   31.5120   38.6490 C   0  0  1  0  0  0  0  0  0  0  0  0
   48.0370   31.0610   39.3410 C   0  0  0  0  0  0  0  0  0  0  0  0
   45.6260   34.0550   45.2780 C   0  0  0  0  0  0  0  0  0  0  0  0
   44.7110   35.1040   45.5070 C   0  0  0  0  0  0  0  0  0  0  0  0
   44.5410   36.0320   44.4740 C   0  0  0  0  0  0  0  0  0  0  0  0
   45.2420   35.8870   43.3370 N   0  0  0  0  0  0  0  0  0  0  0  0
   46.1230   34.8520   43.1540 C   0  0  0  0  0  0  0  0  0  0  0  0
   46.2890   33.9610   44.1400 N   0  0  0  0  0  0  0  0  0  0  0  0
   48.4860   36.0684   42.5357 H   0  0  0  0  0  0  0  0  0  0  0  0
   49.7017   35.7967   40.3829 H   0  0  0  0  0  0  0  0  0  0  0  0
   48.7594   34.3500   38.6416 H   0  0  0  0  0  0  0  0  0  0  0  0
   45.3586   34.3104   37.6543 H   0  0  0  0  0  0  0  0  0  0  0  0
   46.6520   33.5322   36.6533 H   0  0  0  0  0  0  0  0  0  0  0  0
   44.2158   32.1064   37.7943 H   0  0  0  0  0  0  0  0  0  0  0  0
   44.3959   32.7106   36.0945 H   0  0  0  0  0  0  0  0  0  0  0  0
   45.0639   30.2803   36.9504 H   0  0  0  0  0  0  0  0  0  0  0  0
   47.3627   30.0914   37.1266 H   0  0  0  0  0  0  0  0  0  0  0  0
   47.5668   31.8082   36.6513 H   0  0  0  0  0  0  0  0  0  0  0  0
   45.9783   31.0551   39.1977 H   0  0  0  0  0  0  0  0  0  0  0  0
   47.8843   31.1174   40.4289 H   0  0  0  0  0  0  0  0  0  0  0  0
   48.2580   30.0221   39.0551 H   0  0  0  0  0  0  0  0  0  0  0  0
   48.8800   31.7072   39.0551 H   0  0  0  0  0  0  0  0  0  0  0  0
   45.7902   33.3012   46.0622 H   0  0  0  0  0  0  0  0  0  0  0  0
   44.1571   35.1884   46.4536 H   0  0  0  0  0  0  0  0  0  0  0  0
   43.8405   36.8719   44.5915 H   0  0  0  0  0  0  0  0  0  0  0  0
  2  1  1  0
  2  3  2  0
  3 19  1  0
  4  3  1  0
  5  4  2  0
  6  7  2  0
  6  5  1  0
  7  2  1  0
  8 13  1  0
  8  7  1  0
  9  8  1  0
 10  9  1  0
 11 10  1  0
 11 12  1  0
 12 13  1  0
 13 14  1  0
 15 16  2  0
 17 16  1  0
 18 17  2  0
 19 18  1  0
 19 20  2  0
 20 15  1  0
  4 21  1  0
  5 22  1  0
  6 23  1  0
  9 24  1  0
  9 25  1  0
 10 26  1  0
 10 27  1  0
 11 28  1  0
 12 29  1  0
 12 30  1  0
 13 31  1  1
 14 32  1  0
 14 33  1  0
 14 34  1  0
 15 35  1  0
 16 36  1  0
 17 37  1  0
M  ISO  8  21  14  22  14  23  14  24  13  25  13  26  13  27  13  28   5
M  ISO  8  29  13  30  13  31  13  32   8  33   8  34   8  35  14  36  14
M  ISO  1  37  14
M  END
>  <minimizedAffinity>  (1) 
-5.46887255

>  <minimizedRMSD>  (1) 
0.175891981

$$$$
