
     RDKit          3D

 22 23  0  0  0  0  0  0  0  0999 V2000
   43.9970   33.2070   40.9540 Cl  0  0  0  0  0  0  0  0  0  0  0  0
   45.6270   33.6920   40.5650 C   0  0  0  0  0  0  0  0  0  0  0  0
   46.3980   34.3620   41.4550 C   0  0  0  0  0  0  0  0  0  0  0  0
   47.6660   34.6930   41.0460 C   0  0  0  0  0  0  0  0  0  0  0  0
   48.1570   34.3810   39.8150 C   0  0  0  0  0  0  0  0  0  0  0  0
   47.3790   33.7050   38.9170 C   0  0  0  0  0  0  0  0  0  0  0  0
   46.1020   33.3640   39.3110 C   0  0  0  0  0  0  0  0  0  0  0  0
   44.6530   36.1670   44.2950 C   0  0  0  0  0  0  0  0  0  0  0  0
   45.1750   35.8890   43.0220 C   0  0  0  0  0  0  0  0  0  0  0  0
   45.8450   34.6830   42.7660 C   0  0  0  0  0  0  0  0  0  0  0  0
   45.9560   33.8250   43.7960 N   0  0  0  0  0  0  0  0  0  0  0  0
   45.4480   34.1050   45.0170 C   0  0  0  0  0  0  0  0  0  0  0  0
   44.8030   35.2640   45.2690 N   0  0  0  0  0  0  0  0  0  0  0  0
   48.5300   35.4190   41.9880 C   0  0  0  0  0  0  0  0  0  0  0  0
   49.2830   36.3530   41.6080 O   0  0  0  0  0  0  0  0  0  0  0  0
   49.1818   34.6735   39.5425 H   0  0  0  0  0  0  0  0  0  0  0  0
   47.7572   33.4429   37.9179 H   0  0  0  0  0  0  0  0  0  0  0  0
   45.4493   32.8201   38.6124 H   0  0  0  0  0  0  0  0  0  0  0  0
   44.1281   37.1142   44.4882 H   0  0  0  0  0  0  0  0  0  0  0  0
   45.0573   36.6264   42.2143 H   0  0  0  0  0  0  0  0  0  0  0  0
   45.5632   33.3692   45.8265 H   0  0  0  0  0  0  0  0  0  0  0  0
   48.5180   35.1389   43.0517 H   0  0  0  0  0  0  0  0  0  0  0  0
  2  1  1  0
  2  3  2  0
  3 10  1  0
  4  3  1  0
  4 14  1  0
  5  4  2  0
  6  7  2  0
  6  5  1  0
  7  2  1  0
  8 13  2  0
  9  8  1  0
 10  9  2  0
 10 11  1  0
 11 12  2  0
 12 13  1  0
 15 14  2  0
  5 16  1  0
  6 17  1  0
  7 18  1  0
  8 19  1  0
  9 20  1  0
 12 21  1  0
 14 22  1  0
M  ISO  7  16  14  17  14  18  14  19  14  20  14  21  14  22   6
M  END
>  <minimizedAffinity>  (1) 
-4.94861841

>  <minimizedRMSD>  (1) 
0.923573196

$$$$
