
     RDKit          3D

 39 42  0  0  0  0  0  0  0  0999 V2000
   41.0300   35.5430   41.9950 Cl  0  0  0  0  0  0  0  0  0  0  0  0
   41.6410   34.7780   40.5420 C   0  0  0  0  0  0  0  0  0  0  0  0
   42.9150   34.3280   40.4570 C   0  0  0  0  0  0  0  0  0  0  0  0
   43.2850   33.7480   39.2750 C   0  0  0  0  0  0  0  0  0  0  0  0
   42.4380   33.6130   38.2160 C   0  0  0  0  0  0  0  0  0  0  0  0
   41.1420   34.0720   38.3080 C   0  0  0  0  0  0  0  0  0  0  0  0
   40.7600   34.6540   39.4840 C   0  0  0  0  0  0  0  0  0  0  0  0
   45.2970   35.7650   43.0300 C   0  0  0  0  0  0  0  0  0  0  0  0
   44.4610   35.6510   41.9200 C   0  0  0  0  0  0  0  0  0  0  0  0
   43.7940   34.4870   41.6020 C   0  0  0  0  0  0  0  0  0  0  0  0
   44.0130   33.4370   42.4620 N   0  0  0  0  0  0  0  0  0  0  0  0
   44.8150   33.5410   43.5290 C   0  0  0  0  0  0  0  0  0  0  0  0
   45.4530   34.6740   43.8240 N   0  0  0  0  0  0  0  0  0  0  0  0
   44.6690   33.2440   39.1440 C   0  0  0  0  0  0  0  0  0  0  0  0
   44.9180   32.3550   38.1050 C   0  0  0  0  0  0  0  0  0  0  0  0
   46.2410   31.9600   38.0890 C   0  0  0  0  0  0  0  0  0  0  0  0
   47.2360   32.3500   38.9530 C   0  0  0  0  0  0  0  0  0  0  0  0
   46.8750   33.2410   39.9530 C   0  0  0  0  0  0  0  0  0  0  0  0
   45.5940   33.6420   39.9920 N   0  0  0  0  0  0  0  0  0  0  0  0
   48.3200   35.5670   39.5150 F   0  0  0  0  0  0  0  0  0  0  0  0
   48.5270   34.8950   40.6790 C   0  0  0  0  0  0  0  0  0  0  0  0
   47.8290   33.7360   40.9340 C   0  0  0  0  0  0  0  0  0  0  0  0
   48.1090   33.1290   42.1360 C   0  0  0  0  0  0  0  0  0  0  0  0
   49.0190   33.6240   43.0470 C   0  0  0  0  0  0  0  0  0  0  0  0
   49.7070   34.7840   42.7730 C   0  0  0  0  0  0  0  0  0  0  0  0
   49.4430   35.4080   41.5730 C   0  0  0  0  0  0  0  0  0  0  0  0
   42.7888   33.1378   37.2880 H   0  0  0  0  0  0  0  0  0  0  0  0
   40.4409   33.9736   37.4661 H   0  0  0  0  0  0  0  0  0  0  0  0
   39.7321   35.0309   39.5907 H   0  0  0  0  0  0  0  0  0  0  0  0
   45.8142   36.7092   43.2557 H   0  0  0  0  0  0  0  0  0  0  0  0
   44.3278   36.5280   41.2696 H   0  0  0  0  0  0  0  0  0  0  0  0
   44.9516   32.6660   44.1815 H   0  0  0  0  0  0  0  0  0  0  0  0
   44.1587   32.0104   37.3876 H   0  0  0  0  0  0  0  0  0  0  0  0
   46.5308   31.2545   37.2963 H   0  0  0  0  0  0  0  0  0  0  0  0
   48.2656   31.9750   38.8566 H   0  0  0  0  0  0  0  0  0  0  0  0
   47.5784   32.1980   42.3845 H   0  0  0  0  0  0  0  0  0  0  0  0
   49.1948   33.0911   43.9931 H   0  0  0  0  0  0  0  0  0  0  0  0
   50.4384   35.1966   43.4835 H   0  0  0  0  0  0  0  0  0  0  0  0
   49.9756   36.3373   41.3224 H   0  0  0  0  0  0  0  0  0  0  0  0
  2  1  1  0
  3  2  2  0
  3 10  1  0
  4  3  1  0
  5  6  1  0
  5  4  2  0
  6  7  2  0
  7  2  1  0
  8 13  2  0
  9  8  1  0
 10  9  2  0
 10 11  1  0
 11 12  2  0
 12 13  1  0
 14  4  1  0
 14 19  1  0
 15 14  2  0
 16 15  1  0
 16 17  2  0
 17 18  1  0
 18 19  2  0
 18 22  1  0
 20 21  1  0
 21 22  2  0
 21 26  1  0
 22 23  1  0
 23 24  2  0
 25 24  1  0
 26 25  2  0
  5 27  1  0
  6 28  1  0
  7 29  1  0
  8 30  1  0
  9 31  1  0
 12 32  1  0
 15 33  1  0
 16 34  1  0
 17 35  1  0
 23 36  1  0
 24 37  1  0
 25 38  1  0
 26 39  1  0
M  ISO  8  27  14  28  14  29  14  30  14  31  14  32  14  33  14  34  14
M  ISO  5  35  14  36  14  37  14  38  14  39  14
M  END
>  <minimizedAffinity>  (1) 
-5.88116312

>  <minimizedRMSD>  (1) 
3.87209296

$$$$
