
     RDKit          3D

 39 42  0  0  0  0  0  0  0  0999 V2000
   44.0470   31.9570   37.2780 Cl  0  0  0  0  0  0  0  0  0  0  0  0
   45.6410   32.6310   37.5670 C   0  0  0  0  0  0  0  0  0  0  0  0
   45.9890   33.1130   38.7820 C   0  0  0  0  0  0  0  0  0  0  0  0
   47.2660   33.6220   38.9010 C   0  0  0  0  0  0  0  0  0  0  0  0
   48.1510   33.6500   37.8650 C   0  0  0  0  0  0  0  0  0  0  0  0
   47.7860   33.1580   36.6360 C   0  0  0  0  0  0  0  0  0  0  0  0
   46.5190   32.6490   36.5010 C   0  0  0  0  0  0  0  0  0  0  0  0
   47.6780   34.1550   40.2130 C   0  0  0  0  0  0  0  0  0  0  0  0
   48.6000   35.2210   40.1960 C   0  0  0  0  0  0  0  0  0  0  0  0
   48.9120   35.6360   41.4680 C   0  0  0  0  0  0  0  0  0  0  0  0
   48.4410   35.1420   42.6430 C   0  0  0  0  0  0  0  0  0  0  0  0
   47.5370   34.0920   42.5540 C   0  0  0  0  0  0  0  0  0  0  0  0
   47.1910   33.6410   41.3230 N   0  0  0  0  0  0  0  0  0  0  0  0
   47.0220   33.5500   43.7660 N   0  0  0  0  0  0  0  0  0  0  0  0
   46.1020   34.0990   44.5800 C   0  0  0  0  0  0  0  0  0  0  0  0
   45.7200   33.4240   45.7240 C   0  0  0  0  0  0  0  0  0  0  0  0
   46.2760   32.1950   46.0310 C   0  0  0  0  0  0  0  0  0  0  0  0
   45.8910   31.6140   47.0930 O   0  0  0  0  0  0  0  0  0  0  0  0
   47.2040   31.6560   45.1950 N   0  0  0  0  0  0  0  0  0  0  0  0
   47.5640   32.3380   44.0770 C   0  0  0  0  0  0  0  0  0  0  0  0
   48.4290   31.7450   43.3790 O   0  0  0  0  0  0  0  0  0  0  0  0
   43.2460   34.0320   41.2300 C   0  0  0  0  0  0  0  0  0  0  0  0
   44.1730   34.0980   40.1820 C   0  0  0  0  0  0  0  0  0  0  0  0
   45.0230   33.0670   39.8610 C   0  0  0  0  0  0  0  0  0  0  0  0
   44.9020   31.9450   40.6470 N   0  0  0  0  0  0  0  0  0  0  0  0
   44.0180   31.8730   41.6540 C   0  0  0  0  0  0  0  0  0  0  0  0
   43.1920   32.8960   41.9540 N   0  0  0  0  0  0  0  0  0  0  0  0
   49.1581   34.0669   38.0133 H   0  0  0  0  0  0  0  0  0  0  0  0
   48.4862   33.1715   35.7878 H   0  0  0  0  0  0  0  0  0  0  0  0
   46.1974   32.2488   35.5282 H   0  0  0  0  0  0  0  0  0  0  0  0
   49.0171   35.6647   39.2799 H   0  0  0  0  0  0  0  0  0  0  0  0
   49.6284   36.4672   41.5444 H   0  0  0  0  0  0  0  0  0  0  0  0
   48.7590   35.5521   43.6129 H   0  0  0  0  0  0  0  0  0  0  0  0
   45.6581   35.0758   44.3373 H   0  0  0  0  0  0  0  0  0  0  0  0
   44.9690   33.8669   46.3947 H   0  0  0  0  0  0  0  0  0  0  0  0
   47.6284   30.7418   45.4073 H   0  0  0  0  0  0  0  0  0  0  0  0
   42.5830   34.8803   41.4552 H   0  0  0  0  0  0  0  0  0  0  0  0
   44.2231   35.0213   39.5861 H   0  0  0  0  0  0  0  0  0  0  0  0
   43.9655   30.9518   42.2528 H   0  0  0  0  0  0  0  0  0  0  0  0
  1  2  1  0
  2  3  2  0
  3  4  1  0
  3 24  1  0
  4  8  1  0
  5  4  2  0
  6  5  1  0
  7  6  2  0
  7  2  1  0
  8 13  1  0
  9  8  2  0
  9 10  1  0
 10 11  2  0
 12 11  1  0
 12 14  1  0
 13 12  2  0
 14 20  1  0
 14 15  1  0
 15 16  2  0
 16 17  1  0
 17 18  2  0
 19 17  1  0
 20 19  1  0
 21 20  2  0
 22 27  2  0
 23 22  1  0
 24 23  2  0
 24 25  1  0
 25 26  2  0
 26 27  1  0
  5 28  1  0
  6 29  1  0
  7 30  1  0
  9 31  1  0
 10 32  1  0
 11 33  1  0
 15 34  1  0
 16 35  1  0
 19 36  1  0
 22 37  1  0
 23 38  1  0
 26 39  1  0
M  ISO  8  28  14  29  14  30  14  31  14  32  14  33  14  34  14  35  14
M  ISO  4  36   9  37  14  38  14  39  14
M  END
>  <minimizedAffinity>  (1) 
-6.08618355

>  <minimizedRMSD>  (1) 
5.05814123

$$$$
