
     RDKit          3D

 32 34  0  0  0  0  0  0  0  0999 V2000
   41.3430   34.8290   41.7040 Cl  0  0  0  0  0  0  0  0  0  0  0  0
   42.4640   34.1870   40.5190 C   0  0  0  0  0  0  0  0  0  0  0  0
   43.7830   34.0440   40.8030 C   0  0  0  0  0  0  0  0  0  0  0  0
   44.5700   33.5300   39.8000 C   0  0  0  0  0  0  0  0  0  0  0  0
   44.0920   33.1740   38.5770 C   0  0  0  0  0  0  0  0  0  0  0  0
   42.7450   33.3290   38.3110 C   0  0  0  0  0  0  0  0  0  0  0  0
   41.9480   33.8350   39.2900 C   0  0  0  0  0  0  0  0  0  0  0  0
   44.8560   36.0680   43.8130 C   0  0  0  0  0  0  0  0  0  0  0  0
   44.3840   35.7330   42.5360 C   0  0  0  0  0  0  0  0  0  0  0  0
   44.2650   34.4310   42.1120 C   0  0  0  0  0  0  0  0  0  0  0  0
   44.6430   33.4830   43.0280 N   0  0  0  0  0  0  0  0  0  0  0  0
   45.0940   33.8040   44.2500 C   0  0  0  0  0  0  0  0  0  0  0  0
   45.2050   35.0720   44.6510 N   0  0  0  0  0  0  0  0  0  0  0  0
   46.0130   33.3610   40.0770 C   0  0  0  0  0  0  0  0  0  0  0  0
   46.5570   32.1040   39.8420 C   0  0  0  0  0  0  0  0  0  0  0  0
   47.8980   32.0620   40.1320 C   0  0  0  0  0  0  0  0  0  0  0  0
   48.6860   33.0890   40.6010 C   0  0  0  0  0  0  0  0  0  0  0  0
   48.0390   34.3010   40.7990 C   0  0  0  0  0  0  0  0  0  0  0  0
   46.7290   34.3770   40.5260 N   0  0  0  0  0  0  0  0  0  0  0  0
   48.8320   35.4650   41.3070 C   0  0  0  0  0  0  0  0  0  0  0  0
   48.0900   36.1630   42.2140 F   0  0  0  0  0  0  0  0  0  0  0  0
   49.2320   36.2860   40.2720 F   0  0  0  0  0  0  0  0  0  0  0  0
   50.0010   35.0430   41.9290 F   0  0  0  0  0  0  0  0  0  0  0  0
   44.7686   32.7683   37.8104 H   0  0  0  0  0  0  0  0  0  0  0  0
   42.3278   33.0502   37.3321 H   0  0  0  0  0  0  0  0  0  0  0  0
   40.8728   33.9657   39.0978 H   0  0  0  0  0  0  0  0  0  0  0  0
   44.9395   37.1199   44.1238 H   0  0  0  0  0  0  0  0  0  0  0  0
   44.0983   36.5422   41.8479 H   0  0  0  0  0  0  0  0  0  0  0  0
   45.3808   32.9983   44.9418 H   0  0  0  0  0  0  0  0  0  0  0  0
   45.9812   31.2446   39.4679 H   0  0  0  0  0  0  0  0  0  0  0  0
   48.4008   31.0970   39.9712 H   0  0  0  0  0  0  0  0  0  0  0  0
   49.7588   32.9576   40.8055 H   0  0  0  0  0  0  0  0  0  0  0  0
  2  3  2  0
  2  1  1  0
  3 10  1  0
  4 14  1  0
  4  3  1  0
  5  4  2  0
  6  5  1  0
  6  7  2  0
  7  2  1  0
  8 13  2  0
  9  8  1  0
 10  9  2  0
 10 11  1  0
 11 12  2  0
 12 13  1  0
 14 19  1  0
 15 14  2  0
 15 16  1  0
 16 17  2  0
 17 18  1  0
 18 20  1  0
 19 18  2  0
 20 23  1  0
 20 21  1  0
 22 20  1  0
  5 24  1  0
  6 25  1  0
  7 26  1  0
  8 27  1  0
  9 28  1  0
 12 29  1  0
 15 30  1  0
 16 31  1  0
 17 32  1  0
M  ISO  8  24  14  25  14  26  14  27  14  28  14  29  14  30  14  31  14
M  ISO  1  32  14
M  END
>  <minimizedAffinity>  (1) 
-5.85706139

>  <minimizedRMSD>  (1) 
2.03791022

$$$$
