
     RDKit          3D

 37 40  0  0  0  0  0  0  0  0999 V2000
   41.2240   35.5080   42.0810 Cl  0  0  0  0  0  0  0  0  0  0  0  0
   41.8990   34.7750   40.6350 C   0  0  0  0  0  0  0  0  0  0  0  0
   43.1670   34.3020   40.6020 C   0  0  0  0  0  0  0  0  0  0  0  0
   43.5810   33.7530   39.4180 C   0  0  0  0  0  0  0  0  0  0  0  0
   42.8000   33.6630   38.3110 C   0  0  0  0  0  0  0  0  0  0  0  0
   41.5160   34.1480   38.3620 C   0  0  0  0  0  0  0  0  0  0  0  0
   41.0780   34.7020   39.5360 C   0  0  0  0  0  0  0  0  0  0  0  0
   45.3280   35.6640   43.3950 C   0  0  0  0  0  0  0  0  0  0  0  0
   44.5490   35.5860   42.2440 C   0  0  0  0  0  0  0  0  0  0  0  0
   43.9850   34.4100   41.8010 C   0  0  0  0  0  0  0  0  0  0  0  0
   44.2440   33.3140   42.5720 N   0  0  0  0  0  0  0  0  0  0  0  0
   44.9940   33.3770   43.6830 C   0  0  0  0  0  0  0  0  0  0  0  0
   45.5370   34.5410   44.0990 N   0  0  0  0  0  0  0  0  0  0  0  0
   44.9620   33.2300   39.3560 C   0  0  0  0  0  0  0  0  0  0  0  0
   45.2070   32.1700   38.4760 C   0  0  0  0  0  0  0  0  0  0  0  0
   46.5130   31.7570   38.4900 C   0  0  0  0  0  0  0  0  0  0  0  0
   47.5300   32.2730   39.2550 C   0  0  0  0  0  0  0  0  0  0  0  0
   47.1880   33.3220   40.0970 C   0  0  0  0  0  0  0  0  0  0  0  0
   45.9250   33.7600   40.1160 N   0  0  0  0  0  0  0  0  0  0  0  0
   48.2380   33.9020   40.9280 C   0  0  0  0  0  0  0  0  0  0  0  0
   48.3140   35.2650   41.1310 C   0  0  0  0  0  0  0  0  0  0  0  0
   49.3560   35.6360   41.9340 C   0  0  0  0  0  0  0  0  0  0  0  0
   50.2570   34.8370   42.5060 N   0  0  0  0  0  0  0  0  0  0  0  0
   50.1380   33.5070   42.2740 C   0  0  0  0  0  0  0  0  0  0  0  0
   49.1340   33.0750   41.4930 N   0  0  0  0  0  0  0  0  0  0  0  0
   43.1894   33.2088   37.3879 H   0  0  0  0  0  0  0  0  0  0  0  0
   40.8566   34.0931   37.4833 H   0  0  0  0  0  0  0  0  0  0  0  0
   40.0524   35.0947   39.5996 H   0  0  0  0  0  0  0  0  0  0  0  0
   45.7612   36.6218   43.7191 H   0  0  0  0  0  0  0  0  0  0  0  0
   44.3762   36.5038   41.6627 H   0  0  0  0  0  0  0  0  0  0  0  0
   45.1700   32.4614   44.2668 H   0  0  0  0  0  0  0  0  0  0  0  0
   44.4326   31.7163   37.8401 H   0  0  0  0  0  0  0  0  0  0  0  0
   46.7742   30.9257   37.8187 H   0  0  0  0  0  0  0  0  0  0  0  0
   48.5554   31.8782   39.2035 H   0  0  0  0  0  0  0  0  0  0  0  0
   47.6059   35.9820   40.6901 H   0  0  0  0  0  0  0  0  0  0  0  0
   49.4630   36.7131   42.1300 H   0  0  0  0  0  0  0  0  0  0  0  0
   50.8499   32.7949   42.7168 H   0  0  0  0  0  0  0  0  0  0  0  0
  2  1  1  0
  3  2  2  0
  3 10  1  0
  4  3  1  0
  5  6  1  0
  5  4  2  0
  6  7  2  0
  7  2  1  0
  8 13  2  0
  9  8  1  0
 10  9  2  0
 10 11  1  0
 11 12  2  0
 12 13  1  0
 14  4  1  0
 14 19  2  0
 15 16  2  0
 15 14  1  0
 16 17  1  0
 17 18  2  0
 18 19  1  0
 18 20  1  0
 20 21  2  0
 20 25  1  0
 21 22  1  0
 22 23  2  0
 24 23  1  0
 25 24  2  0
  5 26  1  0
  6 27  1  0
  7 28  1  0
  8 29  1  0
  9 30  1  0
 12 31  1  0
 15 32  1  0
 16 33  1  0
 17 34  1  0
 21 35  1  0
 22 36  1  0
 24 37  1  0
M  ISO  8  26  14  27  14  28  14  29  14  30  14  31  14  32  14  33  14
M  ISO  4  34  14  35  14  36  14  37  14
M  END
>  <minimizedAffinity>  (1) 
-5.87772369

>  <minimizedRMSD>  (1) 
3.58215356

$$$$
