
     RDKit          3D

 36 39  0  0  0  0  0  0  0  0999 V2000
   41.2940   35.3330   41.8710 Cl  0  0  0  0  0  0  0  0  0  0  0  0
   42.2560   34.5780   40.6140 C   0  0  0  0  0  0  0  0  0  0  0  0
   43.5510   34.2460   40.8220 C   0  0  0  0  0  0  0  0  0  0  0  0
   44.2110   33.6580   39.7620 C   0  0  0  0  0  0  0  0  0  0  0  0
   43.6250   33.4110   38.5640 C   0  0  0  0  0  0  0  0  0  0  0  0
   42.3100   33.7530   38.3640 C   0  0  0  0  0  0  0  0  0  0  0  0
   41.6350   34.3410   39.4110 C   0  0  0  0  0  0  0  0  0  0  0  0
   44.9790   36.0380   43.8410 C   0  0  0  0  0  0  0  0  0  0  0  0
   44.3970   35.7960   42.5930 C   0  0  0  0  0  0  0  0  0  0  0  0
   44.1550   34.5220   42.1160 C   0  0  0  0  0  0  0  0  0  0  0  0
   44.5240   33.4960   42.9490 N   0  0  0  0  0  0  0  0  0  0  0  0
   45.0850   33.7340   44.1540 C   0  0  0  0  0  0  0  0  0  0  0  0
   45.3140   34.9830   44.6020 N   0  0  0  0  0  0  0  0  0  0  0  0
   45.6200   33.2830   39.9550 C   0  0  0  0  0  0  0  0  0  0  0  0
   45.9560   31.9440   39.7590 C   0  0  0  0  0  0  0  0  0  0  0  0
   47.2940   31.7150   39.9680 C   0  0  0  0  0  0  0  0  0  0  0  0
   48.2570   32.6130   40.3230 C   0  0  0  0  0  0  0  0  0  0  0  0
   47.8220   33.9230   40.4960 C   0  0  0  0  0  0  0  0  0  0  0  0
   46.5210   34.2020   40.3030 N   0  0  0  0  0  0  0  0  0  0  0  0
   48.7890   34.9630   40.8800 C   0  0  0  0  0  0  0  0  0  0  0  0
   48.3520   35.7320   42.1560 C   0  0  0  0  0  0  0  0  0  0  0  0
   49.6180   34.9070   42.0810 C   0  0  0  0  0  0  0  0  0  0  0  0
   44.2012   32.9382   37.7550 H   0  0  0  0  0  0  0  0  0  0  0  0
   41.8130   33.5639   37.4011 H   0  0  0  0  0  0  0  0  0  0  0  0
   40.5804   34.6259   39.2820 H   0  0  0  0  0  0  0  0  0  0  0  0
   45.1579   37.0655   44.1906 H   0  0  0  0  0  0  0  0  0  0  0  0
   44.1203   36.6555   41.9648 H   0  0  0  0  0  0  0  0  0  0  0  0
   45.3637   32.8806   44.7897 H   0  0  0  0  0  0  0  0  0  0  0  0
   45.2355   31.1642   39.4713 H   0  0  0  0  0  0  0  0  0  0  0  0
   47.6312   30.6768   39.8320 H   0  0  0  0  0  0  0  0  0  0  0  0
   49.3082   32.3208   40.4633 H   0  0  0  0  0  0  0  0  0  0  0  0
   49.0698   35.1522   39.8334 H   0  0  0  0  0  0  0  0  0  0  0  0
   48.4024   36.8303   42.1908 H   0  0  0  0  0  0  0  0  0  0  0  0
   47.4603   35.7643   42.7993 H   0  0  0  0  0  0  0  0  0  0  0  0
   49.6866   33.9672   42.6486 H   0  0  0  0  0  0  0  0  0  0  0  0
   50.6778   35.1208   42.2838 H   0  0  0  0  0  0  0  0  0  0  0  0
  2  3  2  0
  2  1  1  0
  3 10  1  0
  4 14  1  0
  4  3  1  0
  5  4  2  0
  6  5  1  0
  6  7  2  0
  7  2  1  0
  8 13  2  0
  9  8  1  0
 10  9  2  0
 10 11  1  0
 11 12  2  0
 12 13  1  0
 14 19  1  0
 15 14  2  0
 15 16  1  0
 16 17  2  0
 17 18  1  0
 18 20  1  0
 19 18  2  0
 20 22  1  0
 20 21  1  0
 22 21  1  0
  5 23  1  0
  6 24  1  0
  7 25  1  0
  8 26  1  0
  9 27  1  0
 12 28  1  0
 15 29  1  0
 16 30  1  0
 17 31  1  0
 20 32  1  0
 21 33  1  0
 21 34  1  0
 22 35  1  0
 22 36  1  0
M  ISO  8  23  14  24  14  25  14  26  14  27  14  28  14  29  14  30  14
M  ISO  6  31  14  32  13  33  13  34  13  35  13  36  13
M  END
>  <minimizedAffinity>  (1) 
-5.2732563

>  <minimizedRMSD>  (1) 
2.50476909

$$$$
