
     RDKit          3D

 35 38  0  0  0  0  0  0  0  0999 V2000
   41.2360   35.4820   41.9330 Cl  0  0  0  0  0  0  0  0  0  0  0  0
   42.0380   34.6770   40.6140 C   0  0  0  0  0  0  0  0  0  0  0  0
   43.3320   34.2600   40.7080 C   0  0  0  0  0  0  0  0  0  0  0  0
   43.8470   33.6400   39.6010 C   0  0  0  0  0  0  0  0  0  0  0  0
   43.1420   33.4290   38.4520 C   0  0  0  0  0  0  0  0  0  0  0  0
   41.8450   33.8500   38.3690 C   0  0  0  0  0  0  0  0  0  0  0  0
   41.2910   34.4790   39.4610 C   0  0  0  0  0  0  0  0  0  0  0  0
   45.1780   35.9510   43.5430 C   0  0  0  0  0  0  0  0  0  0  0  0
   44.4810   35.7480   42.3450 C   0  0  0  0  0  0  0  0  0  0  0  0
   44.0530   34.4990   41.9400 C   0  0  0  0  0  0  0  0  0  0  0  0
   44.3560   33.4740   42.7910 N   0  0  0  0  0  0  0  0  0  0  0  0
   45.0200   33.6690   43.9330 C   0  0  0  0  0  0  0  0  0  0  0  0
   45.4290   34.8810   44.3140 N   0  0  0  0  0  0  0  0  0  0  0  0
   45.2510   33.1770   39.6720 C   0  0  0  0  0  0  0  0  0  0  0  0
   45.5770   32.0350   38.9270 C   0  0  0  0  0  0  0  0  0  0  0  0
   46.9040   31.7010   39.0700 C   0  0  0  0  0  0  0  0  0  0  0  0
   47.8450   32.3390   39.8150 C   0  0  0  0  0  0  0  0  0  0  0  0
   47.4200   33.4610   40.5170 C   0  0  0  0  0  0  0  0  0  0  0  0
   46.1300   33.8250   40.4080 N   0  0  0  0  0  0  0  0  0  0  0  0
   48.3440   34.2220   41.3490 C   0  0  0  0  0  0  0  0  0  0  0  0
   48.7520   35.4680   41.1600 N   0  0  0  0  0  0  0  0  0  0  0  0
   49.6170   35.8410   42.1470 C   0  0  0  0  0  0  0  0  0  0  0  0
   49.7110   34.7450   42.9500 N   0  0  0  0  0  0  0  0  0  0  0  0
   48.9410   33.7630   42.4700 N   0  0  0  0  0  0  0  0  0  0  0  0
   43.6152   32.9229   37.5976 H   0  0  0  0  0  0  0  0  0  0  0  0
   41.2580   33.6904   37.4525 H   0  0  0  0  0  0  0  0  0  0  0  0
   40.2484   34.8273   39.4195 H   0  0  0  0  0  0  0  0  0  0  0  0
   45.5095   36.9561   43.8428 H   0  0  0  0  0  0  0  0  0  0  0  0
   44.2667   36.6153   41.7032 H   0  0  0  0  0  0  0  0  0  0  0  0
   45.2363   32.8052   44.5788 H   0  0  0  0  0  0  0  0  0  0  0  0
   44.8615   31.4761   38.3060 H   0  0  0  0  0  0  0  0  0  0  0  0
   47.2434   30.8132   38.5163 H   0  0  0  0  0  0  0  0  0  0  0  0
   48.8861   31.9867   39.8599 H   0  0  0  0  0  0  0  0  0  0  0  0
   50.1245   36.8095   42.2672 H   0  0  0  0  0  0  0  0  0  0  0  0
   50.2890   34.6820   43.8002 H   0  0  0  0  0  0  0  0  0  0  0  0
  2  3  2  0
  2  1  1  0
  3 10  1  0
  4 14  1  0
  4  3  1  0
  5  4  2  0
  6  5  1  0
  6  7  2  0
  7  2  1  0
  8 13  2  0
  9  8  1  0
 10  9  2  0
 10 11  1  0
 11 12  2  0
 12 13  1  0
 14 19  2  0
 15 16  2  0
 15 14  1  0
 16 17  1  0
 17 18  2  0
 18 20  1  0
 19 18  1  0
 20 24  2  0
 21 20  1  0
 21 22  2  0
 22 23  1  0
 24 23  1  0
  5 25  1  0
  6 26  1  0
  7 27  1  0
  8 28  1  0
  9 29  1  0
 12 30  1  0
 15 31  1  0
 16 32  1  0
 17 33  1  0
 22 34  1  0
 23 35  1  0
M  ISO  8  25  14  26  14  27  14  28  14  29  14  30  14  31  14  32  14
M  ISO  3  33  14  34  14  35   9
M  END
>  <minimizedAffinity>  (1) 
-5.70931149

>  <minimizedRMSD>  (1) 
3.05872369

$$$$
