
     RDKit          3D

 29 31  0  0  0  0  0  0  0  0999 V2000
   46.7250   34.9660   42.5740 C   0  0  0  0  0  0  0  0  0  0  0  0
   47.1130   33.9710   43.4710 C   0  0  0  0  0  0  0  0  0  0  0  0
   46.3400   33.7560   44.6190 C   0  0  0  0  0  0  0  0  0  0  0  0
   45.2390   34.5350   44.8000 N   0  0  0  0  0  0  0  0  0  0  0  0
   44.8860   35.4840   43.9270 C   0  0  0  0  0  0  0  0  0  0  0  0
   45.6210   35.7000   42.8210 N   0  0  0  0  0  0  0  0  0  0  0  0
   46.9820   31.4590   44.9810 C   0  0  0  0  0  0  0  0  0  0  0  0
   46.7770   32.7070   45.5340 C   0  0  0  0  0  0  0  0  0  0  0  0
   46.9920   32.8930   46.8970 C   0  0  0  0  0  0  0  0  0  0  0  0
   47.4030   31.8570   47.6970 C   0  0  0  0  0  0  0  0  0  0  0  0
   47.6840   31.7450   49.0180 N   0  0  0  0  0  0  0  0  0  0  0  0
   48.0510   30.4590   49.2600 C   0  0  0  0  0  0  0  0  0  0  0  0
   47.9990   29.7680   48.0870 N   0  0  0  0  0  0  0  0  0  0  0  0
   47.6050   30.6160   47.1380 C   0  0  0  0  0  0  0  0  0  0  0  0
   47.4010   30.3880   45.7750 C   0  0  0  0  0  0  0  0  0  0  0  0
   48.2620   33.2470   43.1610 O   0  0  0  0  0  0  0  0  0  0  0  0
   50.7530   33.0580   42.3200 O   0  0  0  0  0  0  0  0  0  0  0  0
   49.5950   33.9990   42.3970 P   0  0  0  0  0  0  0  0  0  0  0  0
   49.2090   34.4710   40.8170 O   0  0  0  0  0  0  0  0  0  0  0  0
   50.0750   35.3800   43.2600 O   0  0  0  0  0  0  0  0  0  0  0  0
   47.3185   35.1517   41.6666 H   0  0  0  0  0  0  0  0  0  0  0  0
   43.9888   36.0922   44.1142 H   0  0  0  0  0  0  0  0  0  0  0  0
   46.8139   31.3060   43.9047 H   0  0  0  0  0  0  0  0  0  0  0  0
   46.8297   33.8868   47.3396 H   0  0  0  0  0  0  0  0  0  0  0  0
   47.6291   32.5010   49.7154 H   0  0  0  0  0  0  0  0  0  0  0  0
   48.3409   30.0460   50.2374 H   0  0  0  0  0  0  0  0  0  0  0  0
   47.5658   29.3919   45.3383 H   0  0  0  0  0  0  0  0  0  0  0  0
   48.5825   35.2371   40.8452 H   0  0  0  0  0  0  0  0  0  0  0  0
   50.0125   35.2003   44.2315 H   0  0  0  0  0  0  0  0  0  0  0  0
  1  6  2  0
  1  2  1  0
  2  3  2  0
  3  4  1  0
  3  8  1  0
  5  4  2  0
  6  5  1  0
  7  8  2  0
  7 15  1  0
  8  9  1  0
  9 10  2  0
 10 11  1  0
 11 12  1  0
 13 12  2  0
 14 10  1  0
 14 13  1  0
 15 14  2  0
 16  2  1  0
 17 18  2  0
 18 16  1  0
 18 20  1  0
 19 18  1  0
  1 21  1  0
  5 22  1  0
  7 23  1  0
  9 24  1  0
 11 25  1  0
 12 26  1  0
 15 27  1  0
 19 28  1  0
 20 29  1  0
M  ISO  8  21  14  22  14  23  14  24  14  25   9  26  14  27  14  28   3
M  ISO  1  29   3
M  END
>  <minimizedAffinity>  (1) 
-6.07891941

>  <minimizedRMSD>  (1) 
0.651797473

$$$$
