
     RDKit          3D

 22 22  0  0  0  0  0  0  0  0999 V2000
   46.3610   35.2130   42.5900 C   0  0  0  0  0  0  0  0  0  0  0  0
   46.8730   34.1140   43.3040 C   0  0  0  0  0  0  0  0  0  0  0  0
   46.2970   33.8210   44.5600 C   0  0  0  0  0  0  0  0  0  0  0  0
   45.2940   34.6020   45.0090 N   0  0  0  0  0  0  0  0  0  0  0  0
   44.8270   35.6420   44.3030 C   0  0  0  0  0  0  0  0  0  0  0  0
   45.3610   35.9490   43.0940 N   0  0  0  0  0  0  0  0  0  0  0  0
   47.9000   33.4000   42.7340 O   0  0  0  0  0  0  0  0  0  0  0  0
   50.3750   33.1570   41.8500 O   0  0  0  0  0  0  0  0  0  0  0  0
   49.3230   34.1730   42.1670 P   0  0  0  0  0  0  0  0  0  0  0  0
   49.0090   35.0550   40.7490 O   0  0  0  0  0  0  0  0  0  0  0  0
   49.9120   35.2360   43.3400 O   0  0  0  0  0  0  0  0  0  0  0  0
   46.9200   32.6550   45.2000 C   0  0  0  0  0  0  0  0  0  0  0  0
   46.7480   32.6680   46.6940 C   0  0  0  0  0  0  0  0  0  0  0  0
   46.7857   35.4705   41.6085 H   0  0  0  0  0  0  0  0  0  0  0  0
   44.0048   36.2509   44.7070 H   0  0  0  0  0  0  0  0  0  0  0  0
   48.6868   35.9601   40.9879 H   0  0  0  0  0  0  0  0  0  0  0  0
   49.7129   34.8767   44.2408 H   0  0  0  0  0  0  0  0  0  0  0  0
   46.4580   31.7412   44.7981 H   0  0  0  0  0  0  0  0  0  0  0  0
   47.9981   32.6867   44.9837 H   0  0  0  0  0  0  0  0  0  0  0  0
   47.7334   32.5935   47.1772 H   0  0  0  0  0  0  0  0  0  0  0  0
   46.2601   33.6056   46.9988 H   0  0  0  0  0  0  0  0  0  0  0  0
   46.1247   31.8144   46.9988 H   0  0  0  0  0  0  0  0  0  0  0  0
  1  6  2  0
  1  2  1  0
  2  3  2  0
  3  4  1  0
  3 12  1  0
  5  4  2  0
  6  5  1  0
  7  2  1  0
  8  9  2  0
  9  7  1  0
  9 11  1  0
 10  9  1  0
 12 13  1  0
  1 14  1  0
  5 15  1  0
 10 16  1  0
 11 17  1  0
 12 18  1  0
 12 19  1  0
 13 20  1  0
 13 21  1  0
 13 22  1  0
M  ISO  8  14  14  15  14  16   3  17   3  18   8  19   8  20   8  21   8
M  ISO  1  22   8
M  END
>  <minimizedAffinity>  (1) 
-4.59285879

>  <minimizedRMSD>  (1) 
0.0837294832

$$$$
