
     RDKit          3D

 28 29  0  0  1  0  0  0  0  0999 V2000
   46.3400   35.2200   42.5860 C   0  0  0  0  0  0  0  0  0  0  0  0
   46.8510   34.1180   43.3000 C   0  0  0  0  0  0  0  0  0  0  0  0
   46.3050   33.8250   44.5500 C   0  0  0  0  0  0  0  0  0  0  0  0
   45.3140   34.6200   45.0010 N   0  0  0  0  0  0  0  0  0  0  0  0
   44.8350   35.6670   44.3120 C   0  0  0  0  0  0  0  0  0  0  0  0
   45.3490   35.9720   43.0970 N   0  0  0  0  0  0  0  0  0  0  0  0
   46.1380   31.3690   44.9450 C   0  0  2  0  0  0  0  0  0  0  0  0
   46.8610   32.6700   45.2660 C   0  0  2  0  0  0  0  0  0  0  0  0
   46.6190   32.7630   46.7560 C   0  0  0  0  0  0  0  0  0  0  0  0
   45.9080   31.6390   47.1450 O   0  0  0  0  0  0  0  0  0  0  0  0
   46.3560   30.6450   46.2770 C   0  0  0  0  0  0  0  0  0  0  0  0
   46.7610   30.6810   43.9060 O   0  0  0  0  0  0  0  0  0  0  0  0
   47.8770   33.4000   42.6870 O   0  0  0  0  0  0  0  0  0  0  0  0
   50.3460   33.1410   41.8290 O   0  0  0  0  0  0  0  0  0  0  0  0
   49.3010   34.1610   42.1400 P   0  0  0  0  0  0  0  0  0  0  0  0
   49.0000   35.0550   40.7360 O   0  0  0  0  0  0  0  0  0  0  0  0
   49.8970   35.2050   43.3410 O   0  0  0  0  0  0  0  0  0  0  0  0
   46.7567   35.4682   41.5987 H   0  0  0  0  0  0  0  0  0  0  0  0
   44.0239   36.2782   44.7346 H   0  0  0  0  0  0  0  0  0  0  0  0
   45.0939   31.4789   44.6167 H   0  0  0  0  0  0  0  0  0  0  0  0
   47.9194   32.6766   44.9666 H   0  0  0  0  0  0  0  0  0  0  0  0
   47.5806   32.7994   47.2889 H   0  0  0  0  0  0  0  0  0  0  0  0
   46.0527   33.6752   46.9951 H   0  0  0  0  0  0  0  0  0  0  0  0
   45.7510   29.7294   46.3520 H   0  0  0  0  0  0  0  0  0  0  0  0
   47.3806   30.2877   46.4576 H   0  0  0  0  0  0  0  0  0  0  0  0
   47.3758   30.0021   44.2817 H   0  0  0  0  0  0  0  0  0  0  0  0
   48.6941   35.9637   40.9826 H   0  0  0  0  0  0  0  0  0  0  0  0
   49.6857   34.8348   44.2345 H   0  0  0  0  0  0  0  0  0  0  0  0
  1  6  2  0
  1  2  1  0
  2  3  2  0
  3  4  1  0
  5  4  2  0
  6  5  1  0
  7 12  1  0
  7  8  1  0
  7 11  1  0
  8  3  1  0
  8  9  1  0
  9 10  1  0
 11 10  1  0
 13  2  1  0
 14 15  2  0
 15 13  1  0
 15 17  1  0
 16 15  1  0
  1 18  1  0
  5 19  1  0
  7 20  1  6
  8 21  1  1
  9 22  1  0
  9 23  1  0
 11 24  1  0
 11 25  1  0
 12 26  1  0
 16 27  1  0
 17 28  1  0
M  ISO  8  18  14  19  14  20  13  21  13  22  13  23  13  24  13  25  13
M  ISO  3  26   3  27   3  28   3
M  END
>  <minimizedAffinity>  (1) 
-5.17924881

>  <minimizedRMSD>  (1) 
0.0853696913

$$$$
