
     RDKit          3D

 34 35  0  0  1  0  0  0  0  0999 V2000
   45.8090   35.3140   42.9350 C   0  0  0  0  0  0  0  0  0  0  0  0
   46.3660   34.1780   43.5360 C   0  0  0  0  0  0  0  0  0  0  0  0
   45.9740   33.8460   44.8220 C   0  0  0  0  0  0  0  0  0  0  0  0
   45.0650   34.6510   45.4230 N   0  0  0  0  0  0  0  0  0  0  0  0
   44.5400   35.7370   44.8340 C   0  0  0  0  0  0  0  0  0  0  0  0
   44.9130   36.0700   43.5860 N   0  0  0  0  0  0  0  0  0  0  0  0
   45.8590   31.3820   45.0910 C   0  0  2  0  0  0  0  0  0  0  0  0
   46.6270   32.6870   45.4730 C   0  0  2  0  0  0  0  0  0  0  0  0
   46.4860   32.6710   46.9460 C   0  0  0  0  0  0  0  0  0  0  0  0
   45.7920   31.5200   47.3250 O   0  0  0  0  0  0  0  0  0  0  0  0
   46.1640   30.5820   46.3540 C   0  0  0  0  0  0  0  0  0  0  0  0
   46.4520   30.7700   43.9860 O   0  0  0  0  0  0  0  0  0  0  0  0
   47.2930   33.4440   42.7810 O   0  0  0  0  0  0  0  0  0  0  0  0
   48.1990   32.6540   40.4600 O   0  0  0  0  0  0  0  0  0  0  0  0
   47.6660   33.8390   41.1770 P   0  0  1  0  0  0  0  0  0  0  0  0
   46.2830   34.3890   40.3550 O   0  0  0  0  0  0  0  0  0  0  0  0
   48.8390   35.0830   41.1670 O   0  0  0  0  0  0  0  0  0  0  0  0
   49.5000   35.1880   42.3760 C   0  0  0  0  0  0  0  0  0  0  0  0
   50.5490   34.0700   42.4110 C   0  0  0  0  0  0  0  0  0  0  0  0
   46.1110   35.5900   41.9139 H   0  0  0  0  0  0  0  0  0  0  0  0
   43.8052   36.3540   45.3720 H   0  0  0  0  0  0  0  0  0  0  0  0
   44.7986   31.5028   44.8246 H   0  0  0  0  0  0  0  0  0  0  0  0
   47.6779   32.7523   45.1548 H   0  0  0  0  0  0  0  0  0  0  0  0
   47.4826   32.6706   47.4117 H   0  0  0  0  0  0  0  0  0  0  0  0
   45.9332   33.5631   47.2756 H   0  0  0  0  0  0  0  0  0  0  0  0
   45.5568   29.6668   46.4153 H   0  0  0  0  0  0  0  0  0  0  0  0
   47.1976   30.2142   46.4339 H   0  0  0  0  0  0  0  0  0  0  0  0
   47.1066   30.0945   44.2947 H   0  0  0  0  0  0  0  0  0  0  0  0
   45.5953   34.6625   41.0125 H   0  0  0  0  0  0  0  0  0  0  0  0
   49.9908   36.1693   42.4544 H   0  0  0  0  0  0  0  0  0  0  0  0
   48.7976   35.0942   43.2173 H   0  0  0  0  0  0  0  0  0  0  0  0
   50.7836   33.8199   43.4562 H   0  0  0  0  0  0  0  0  0  0  0  0
   50.1529   33.1795   41.9010 H   0  0  0  0  0  0  0  0  0  0  0  0
   51.4629   34.4086   41.9010 H   0  0  0  0  0  0  0  0  0  0  0  0
  1  2  2  0
  1  6  1  0
  2  3  1  0
  3  4  2  0
  3  8  1  0
  5  4  1  0
  6  5  2  0
  7  8  1  0
  7 11  1  0
  8  9  1  0
  9 10  1  0
 11 10  1  0
 12  7  1  0
 13  2  1  0
 15 14  2  0
 15 13  1  0
 16 15  1  0
 17 15  1  0
 17 18  1  0
 18 19  1  0
  1 20  1  0
  5 21  1  0
  7 22  1  6
  8 23  1  1
  9 24  1  0
  9 25  1  0
 11 26  1  0
 11 27  1  0
 12 28  1  0
 16 29  1  0
 18 30  1  0
 18 31  1  0
 19 32  1  0
 19 33  1  0
 19 34  1  0
M  ISO  8  20  14  21  14  22  13  23  13  24  13  25  13  26  13  27  13
M  ISO  7  28   3  29   3  30   8  31   8  32   8  33   8  34   8
M  END
>  <minimizedAffinity>  (1) 
-4.76933765

>  <minimizedRMSD>  (1) 
1.3619473

$$$$
