
     RDKit          3D

 35 37  0  0  1  0  0  0  0  0999 V2000
   44.7220   32.9980   41.1700 Br  0  0  0  0  0  0  0  0  0  0  0  0
   46.3690   33.9240   40.9160 C   0  0  0  0  0  0  0  0  0  0  0  0
   46.8700   34.7240   41.9080 C   0  0  0  0  0  0  0  0  0  0  0  0
   48.0770   35.4100   41.7380 C   0  0  0  0  0  0  0  0  0  0  0  0
   48.7400   35.2530   40.5430 C   0  0  0  0  0  0  0  0  0  0  0  0
   48.1990   34.4420   39.5790 C   0  0  0  0  0  0  0  0  0  0  0  0
   47.0280   33.7660   39.7210 C   0  0  0  0  0  0  0  0  0  0  0  0
   46.5730   32.9550   38.6490 N   0  0  0  0  0  0  0  0  0  0  0  0
   45.8890   33.3570   37.4400 C   0  0  0  0  0  0  0  0  0  0  0  0
   44.9000   32.3070   36.9880 C   0  0  0  0  0  0  0  0  0  0  0  0
   45.5580   31.0760   36.6100 N   0  0  0  0  0  0  0  0  0  0  0  0
   46.8790   31.0640   37.2120 C   0  0  0  0  0  0  0  0  0  0  0  0
   46.7760   31.4900   38.6720 C   0  0  1  0  0  0  0  0  0  0  0  0
   47.9660   31.1950   39.3270 O   0  0  0  0  0  0  0  0  0  0  0  0
   45.6230   34.0560   45.2810 C   0  0  0  0  0  0  0  0  0  0  0  0
   44.7070   35.1120   45.5050 C   0  0  0  0  0  0  0  0  0  0  0  0
   44.5420   36.0320   44.4830 C   0  0  0  0  0  0  0  0  0  0  0  0
   45.2460   35.8900   43.3360 N   0  0  0  0  0  0  0  0  0  0  0  0
   46.1250   34.8540   43.1560 C   0  0  0  0  0  0  0  0  0  0  0  0
   46.2900   33.9580   44.1410 N   0  0  0  0  0  0  0  0  0  0  0  0
   48.4823   36.0532   42.5329 H   0  0  0  0  0  0  0  0  0  0  0  0
   49.6930   35.7720   40.3630 H   0  0  0  0  0  0  0  0  0  0  0  0
   48.7466   34.3313   38.6314 H   0  0  0  0  0  0  0  0  0  0  0  0
   45.3505   34.2972   37.6297 H   0  0  0  0  0  0  0  0  0  0  0  0
   46.6393   33.4889   36.6465 H   0  0  0  0  0  0  0  0  0  0  0  0
   44.2009   32.0986   37.8113 H   0  0  0  0  0  0  0  0  0  0  0  0
   44.3687   32.6951   36.1064 H   0  0  0  0  0  0  0  0  0  0  0  0
   45.0128   30.2708   36.9496 H   0  0  0  0  0  0  0  0  0  0  0  0
   47.2987   30.0488   37.1550 H   0  0  0  0  0  0  0  0  0  0  0  0
   47.5346   31.7627   36.6716 H   0  0  0  0  0  0  0  0  0  0  0  0
   45.9583   30.9715   39.1941 H   0  0  0  0  0  0  0  0  0  0  0  0
   47.8216   31.2308   40.3058 H   0  0  0  0  0  0  0  0  0  0  0  0
   45.7835   33.3038   46.0674 H   0  0  0  0  0  0  0  0  0  0  0  0
   44.1504   35.1980   46.4499 H   0  0  0  0  0  0  0  0  0  0  0  0
   43.8431   36.8729   44.6029 H   0  0  0  0  0  0  0  0  0  0  0  0
  2  1  1  0
  2  3  2  0
  3 19  1  0
  4  3  1  0
  5  4  2  0
  6  7  2  0
  6  5  1  0
  7  2  1  0
  8 13  1  0
  8  7  1  0
  9  8  1  0
 10  9  1  0
 11 10  1  0
 11 12  1  0
 12 13  1  0
 13 14  1  0
 15 16  2  0
 17 16  1  0
 18 17  2  0
 19 18  1  0
 19 20  2  0
 20 15  1  0
  4 21  1  0
  5 22  1  0
  6 23  1  0
  9 24  1  0
  9 25  1  0
 10 26  1  0
 10 27  1  0
 11 28  1  0
 12 29  1  0
 12 30  1  0
 13 31  1  1
 14 32  1  0
 15 33  1  0
 16 34  1  0
 17 35  1  0
M  ISO  8  21  14  22  14  23  14  24  13  25  13  26  13  27  13  28   5
M  ISO  7  29  13  30  13  31  13  32   3  33  14  34  14  35  14
M  END
>  <minimizedAffinity>  (1) 
-5.46736288

>  <minimizedRMSD>  (1) 
0.185314208

$$$$
