
     RDKit          3D

 35 37  0  0  1  0  0  0  0  0999 V2000
   46.7560   34.5510   42.3090 N   0  0  0  0  0  0  0  0  0  0  0  0
   48.2160   34.6110   42.3140 C   0  0  0  0  0  0  0  0  0  0  0  0
   48.5700   35.3680   41.0140 C   0  0  0  0  0  0  0  0  0  0  0  0
   48.1770   34.5590   39.8180 C   0  0  0  0  0  0  0  0  0  0  0  0
   46.8930   33.8370   39.9630 C   0  0  0  0  0  0  0  0  0  0  0  0
   46.0430   34.2580   41.1070 C   0  0  1  0  0  0  0  0  0  0  0  0
   43.2280   35.4250   40.6380 Cl  0  0  0  0  0  0  0  0  0  0  0  0
   43.5640   33.7530   41.0450 C   0  0  0  0  0  0  0  0  0  0  0  0
   44.8750   33.3750   41.2420 C   0  0  0  0  0  0  0  0  0  0  0  0
   44.9740   32.0190   41.5780 C   0  0  0  0  0  0  0  0  0  0  0  0
   43.9480   31.1410   41.7060 C   0  0  0  0  0  0  0  0  0  0  0  0
   42.6760   31.6080   41.4900 C   0  0  0  0  0  0  0  0  0  0  0  0
   41.3430   30.4870   41.6520 Cl  0  0  0  0  0  0  0  0  0  0  0  0
   42.4680   32.9240   41.1560 C   0  0  0  0  0  0  0  0  0  0  0  0
   44.4720   36.0200   44.8660 C   0  0  0  0  0  0  0  0  0  0  0  0
   45.1600   35.8850   43.6570 C   0  0  0  0  0  0  0  0  0  0  0  0
   46.0120   34.7860   43.4870 C   0  0  0  0  0  0  0  0  0  0  0  0
   46.0970   33.9290   44.5330 N   0  0  0  0  0  0  0  0  0  0  0  0
   45.4320   34.0640   45.6960 C   0  0  0  0  0  0  0  0  0  0  0  0
   44.6180   35.1180   45.8540 N   0  0  0  0  0  0  0  0  0  0  0  0
   48.5807   35.1584   43.1956 H   0  0  0  0  0  0  0  0  0  0  0  0
   48.6780   33.6138   42.3594 H   0  0  0  0  0  0  0  0  0  0  0  0
   48.0328   36.3277   40.9953 H   0  0  0  0  0  0  0  0  0  0  0  0
   49.6556   35.5430   40.9864 H   0  0  0  0  0  0  0  0  0  0  0  0
   48.9683   33.8189   39.6282 H   0  0  0  0  0  0  0  0  0  0  0  0
   48.0458   35.2690   38.9881 H   0  0  0  0  0  0  0  0  0  0  0  0
   46.3148   33.9867   39.0392 H   0  0  0  0  0  0  0  0  0  0  0  0
   47.1592   32.7875   40.1573 H   0  0  0  0  0  0  0  0  0  0  0  0
   45.6374   35.2519   40.8671 H   0  0  0  0  0  0  0  0  0  0  0  0
   45.9860   31.6263   41.7561 H   0  0  0  0  0  0  0  0  0  0  0  0
   44.1296   30.0897   41.9740 H   0  0  0  0  0  0  0  0  0  0  0  0
   41.4518   33.3071   40.9813 H   0  0  0  0  0  0  0  0  0  0  0  0
   43.7997   36.8782   45.0125 H   0  0  0  0  0  0  0  0  0  0  0  0
   45.0350   36.6271   42.8547 H   0  0  0  0  0  0  0  0  0  0  0  0
   45.5540   33.3242   46.5008 H   0  0  0  0  0  0  0  0  0  0  0  0
  1  2  1  0
  1 17  1  0
  3  2  1  0
  4  5  1  0
  4  3  1  0
  5  6  1  0
  6  9  1  0
  6  1  1  0
  7  8  1  0
  8 14  2  0
  8  9  1  0
  9 10  2  0
 10 11  1  0
 12 13  1  0
 12 11  2  0
 14 12  1  0
 15 20  2  0
 16 15  1  0
 17 16  2  0
 17 18  1  0
 18 19  2  0
 19 20  1  0
  2 21  1  0
  2 22  1  0
  3 23  1  0
  3 24  1  0
  4 25  1  0
  4 26  1  0
  5 27  1  0
  5 28  1  0
  6 29  1  6
 10 30  1  0
 11 31  1  0
 14 32  1  0
 15 33  1  0
 16 34  1  0
 19 35  1  0
M  ISO  8  21  13  22  13  23  13  24  13  25  13  26  13  27  13  28  13
M  ISO  7  29  13  30  14  31  14  32  14  33  14  34  14  35  14
M  END
>  <minimizedAffinity>  (1) 
-5.70877981

>  <minimizedRMSD>  (1) 
0.960909605

$$$$
