
     RDKit          3D

 29 30  0  0  0  0  0  0  0  0999 V2000
   46.8290   32.6650   46.0410 C   0  0  0  0  0  0  0  0  0  0  0  0
   46.2390   31.8530   47.1380 C   0  0  0  0  0  0  0  0  0  0  0  0
   45.4220   32.2800   48.1870 C   0  0  0  0  0  0  0  0  0  0  0  0
   44.8650   31.4500   49.1260 C   0  0  0  0  0  0  0  0  0  0  0  0
   45.1560   30.1350   48.9790 C   0  0  0  0  0  0  0  0  0  0  0  0
   45.9570   29.6910   47.9610 C   0  0  0  0  0  0  0  0  0  0  0  0
   46.5350   30.5120   47.0050 C   0  0  0  0  0  0  0  0  0  0  0  0
   47.4060   29.6470   46.1650 C   0  0  0  0  0  0  0  0  0  0  0  0
   46.0030   32.5650   44.7890 C   0  0  0  0  0  0  0  0  0  0  0  0
   44.5800   35.9630   44.7980 C   0  0  0  0  0  0  0  0  0  0  0  0
   44.9900   36.4610   43.5320 C   0  0  0  0  0  0  0  0  0  0  0  0
   45.7470   35.6170   42.7430 C   0  0  0  0  0  0  0  0  0  0  0  0
   46.0540   34.3980   43.1890 N   0  0  0  0  0  0  0  0  0  0  0  0
   45.6360   33.9720   44.4090 C   0  0  0  0  0  0  0  0  0  0  0  0
   44.9140   34.7300   45.2040 N   0  0  0  0  0  0  0  0  0  0  0  0
   46.8751   33.7174   46.3579 H   0  0  0  0  0  0  0  0  0  0  0  0
   47.8373   32.2814   45.8259 H   0  0  0  0  0  0  0  0  0  0  0  0
   45.2106   33.3566   48.2656 H   0  0  0  0  0  0  0  0  0  0  0  0
   44.2276   31.8251   49.9402 H   0  0  0  0  0  0  0  0  0  0  0  0
   44.7400   29.4086   49.6926 H   0  0  0  0  0  0  0  0  0  0  0  0
   46.1551   28.6108   47.8975 H   0  0  0  0  0  0  0  0  0  0  0  0
   48.0363   29.0211   46.8138 H   0  0  0  0  0  0  0  0  0  0  0  0
   46.7800   29.0028   45.5300 H   0  0  0  0  0  0  0  0  0  0  0  0
   48.0458   30.2774   45.5300 H   0  0  0  0  0  0  0  0  0  0  0  0
   46.5869   32.0938   43.9847 H   0  0  0  0  0  0  0  0  0  0  0  0
   45.1062   31.9490   44.9512 H   0  0  0  0  0  0  0  0  0  0  0  0
   43.9761   36.6025   45.4585 H   0  0  0  0  0  0  0  0  0  0  0  0
   44.7171   37.4722   43.1957 H   0  0  0  0  0  0  0  0  0  0  0  0
   46.0944   35.9480   41.7532 H   0  0  0  0  0  0  0  0  0  0  0  0
  1  2  1  0
  2  3  2  0
  3  4  1  0
  5  4  2  0
  6  5  1  0
  7  2  1  0
  7  6  2  0
  8  7  1  0
  9  1  1  0
 10 15  2  0
 11 10  1  0
 12 13  1  0
 12 11  2  0
 13 14  2  0
 14  9  1  0
 14 15  1  0
  1 16  1  0
  1 17  1  0
  3 18  1  0
  4 19  1  0
  5 20  1  0
  6 21  1  0
  8 22  1  0
  8 23  1  0
  8 24  1  0
  9 25  1  0
  9 26  1  0
 10 27  1  0
 11 28  1  0
 12 29  1  0
M  ISO  8  16   8  17   8  18  14  19  14  20  14  21  14  22   8  23   8
M  ISO  6  24   8  25   8  26   8  27  14  28  14  29  14
M  END
>  <minimizedAffinity>  (1) 
-4.63559771

>  <minimizedRMSD>  (1) 
0.527966261

$$$$
