
     RDKit          3D

 35 37  0  0  1  0  0  0  0  0999 V2000
   46.7540   33.8860   40.8900 N   0  0  0  0  0  0  0  0  0  0  0  0
   47.9230   33.2470   40.2820 C   0  0  0  0  0  0  0  0  0  0  0  0
   48.9370   33.1070   41.4030 C   0  0  0  0  0  0  0  0  0  0  0  0
   49.3570   34.4420   41.9130 C   0  0  0  0  0  0  0  0  0  0  0  0
   48.2880   35.4840   41.9530 C   0  0  0  0  0  0  0  0  0  0  0  0
   46.8900   34.9430   41.8280 C   0  0  2  0  0  0  0  0  0  0  0  0
   43.7950   31.7930   40.0130 C   0  0  0  0  0  0  0  0  0  0  0  0
   45.0950   32.1430   40.3650 C   0  0  0  0  0  0  0  0  0  0  0  0
   45.4550   33.4770   40.5160 C   0  0  0  0  0  0  0  0  0  0  0  0
   44.4600   34.4050   40.2950 N   0  0  0  0  0  0  0  0  0  0  0  0
   43.1930   34.0490   39.9510 C   0  0  0  0  0  0  0  0  0  0  0  0
   42.8810   32.7310   39.8150 N   0  0  0  0  0  0  0  0  0  0  0  0
   44.8940   36.7320   42.7590 F   0  0  0  0  0  0  0  0  0  0  0  0
   45.2550   35.7050   43.5960 C   0  0  0  0  0  0  0  0  0  0  0  0
   46.2280   34.8030   43.1370 C   0  0  0  0  0  0  0  0  0  0  0  0
   46.4760   33.8350   44.0960 C   0  0  0  0  0  0  0  0  0  0  0  0
   45.8680   33.7500   45.3250 C   0  0  0  0  0  0  0  0  0  0  0  0
   44.9290   34.6800   45.6810 C   0  0  0  0  0  0  0  0  0  0  0  0
   44.6070   35.6870   44.8020 C   0  0  0  0  0  0  0  0  0  0  0  0
   47.6554   32.2587   39.8800 H   0  0  0  0  0  0  0  0  0  0  0  0
   48.3207   33.8370   39.4431 H   0  0  0  0  0  0  0  0  0  0  0  0
   48.4863   32.5331   42.2261 H   0  0  0  0  0  0  0  0  0  0  0  0
   49.8234   32.5871   41.0107 H   0  0  0  0  0  0  0  0  0  0  0  0
   49.7378   34.3087   42.9363 H   0  0  0  0  0  0  0  0  0  0  0  0
   50.1106   34.8118   41.2021 H   0  0  0  0  0  0  0  0  0  0  0  0
   48.3654   36.0201   42.9104 H   0  0  0  0  0  0  0  0  0  0  0  0
   48.4519   36.1364   41.0826 H   0  0  0  0  0  0  0  0  0  0  0  0
   46.2763   35.7093   41.3318 H   0  0  0  0  0  0  0  0  0  0  0  0
   43.5252   30.7327   39.8987 H   0  0  0  0  0  0  0  0  0  0  0  0
   45.8459   31.3554   40.5255 H   0  0  0  0  0  0  0  0  0  0  0  0
   42.4265   34.8201   39.7840 H   0  0  0  0  0  0  0  0  0  0  0  0
   47.2251   33.0673   43.8523 H   0  0  0  0  0  0  0  0  0  0  0  0
   46.1343   32.9392   46.0190 H   0  0  0  0  0  0  0  0  0  0  0  0
   44.4359   34.6222   46.6626 H   0  0  0  0  0  0  0  0  0  0  0  0
   43.8568   36.4497   45.0581 H   0  0  0  0  0  0  0  0  0  0  0  0
  1  6  1  0
  2  1  1  0
  2  3  1  0
  3  4  1  0
  4  5  1  0
  6  5  1  0
  6 15  1  0
  7  8  2  0
  8  9  1  0
  9  1  1  0
 10  9  2  0
 11 10  1  0
 12 11  2  0
 12  7  1  0
 13 14  1  0
 14 19  2  0
 15 14  1  0
 15 16  2  0
 16 17  1  0
 17 18  2  0
 19 18  1  0
  2 20  1  0
  2 21  1  0
  3 22  1  0
  3 23  1  0
  4 24  1  0
  4 25  1  0
  5 26  1  0
  5 27  1  0
  6 28  1  6
  7 29  1  0
  8 30  1  0
 11 31  1  0
 16 32  1  0
 17 33  1  0
 18 34  1  0
 19 35  1  0
M  ISO  8  20  13  21  13  22  13  23  13  24  13  25  13  26  13  27  13
M  ISO  8  28  13  29  14  30  14  31  14  32  14  33  14  34  14  35  14
M  END
>  <minimizedAffinity>  (1) 
-5.38611078

>  <minimizedRMSD>  (1) 
4.54473114

$$$$
