
     RDKit          3D

 26 27  0  0  1  0  0  0  0  0999 V2000
   46.8830   34.6110   42.2270 N   0  0  0  0  0  0  0  0  0  0  0  0
   48.3290   34.7820   42.2670 C   0  0  0  0  0  0  0  0  0  0  0  0
   48.6570   35.5170   40.9610 C   0  0  0  0  0  0  0  0  0  0  0  0
   48.3480   34.6350   39.7820 C   0  0  0  0  0  0  0  0  0  0  0  0
   47.0840   33.8550   39.9040 C   0  0  0  0  0  0  0  0  0  0  0  0
   46.1840   34.2540   41.0290 C   0  0  1  0  0  0  0  0  0  0  0  0
   44.5080   35.9810   44.7700 C   0  0  0  0  0  0  0  0  0  0  0  0
   45.2260   35.8950   43.5630 C   0  0  0  0  0  0  0  0  0  0  0  0
   46.1040   34.7990   43.4110 C   0  0  0  0  0  0  0  0  0  0  0  0
   46.1950   33.9060   44.4400 N   0  0  0  0  0  0  0  0  0  0  0  0
   45.4830   34.0330   45.5840 C   0  0  0  0  0  0  0  0  0  0  0  0
   44.6370   35.0810   45.7380 N   0  0  0  0  0  0  0  0  0  0  0  0
   45.3330   33.1670   41.3020 O   0  0  0  0  0  0  0  0  0  0  0  0
   48.6268   35.3834   43.1386 H   0  0  0  0  0  0  0  0  0  0  0  0
   48.8642   33.8253   42.3580 H   0  0  0  0  0  0  0  0  0  0  0  0
   48.0531   36.4343   40.8978 H   0  0  0  0  0  0  0  0  0  0  0  0
   49.7268   35.7728   40.9497 H   0  0  0  0  0  0  0  0  0  0  0  0
   49.1787   33.9247   39.6581 H   0  0  0  0  0  0  0  0  0  0  0  0
   48.2190   35.3038   38.9182 H   0  0  0  0  0  0  0  0  0  0  0  0
   46.5232   33.9706   38.9648 H   0  0  0  0  0  0  0  0  0  0  0  0
   47.3890   32.8196   40.1158 H   0  0  0  0  0  0  0  0  0  0  0  0
   45.6325   35.1518   40.7132 H   0  0  0  0  0  0  0  0  0  0  0  0
   43.8157   36.8231   44.9169 H   0  0  0  0  0  0  0  0  0  0  0  0
   45.1085   36.6495   42.7712 H   0  0  0  0  0  0  0  0  0  0  0  0
   45.5905   33.2882   46.3863 H   0  0  0  0  0  0  0  0  0  0  0  0
   45.2451   33.0547   42.2817 H   0  0  0  0  0  0  0  0  0  0  0  0
  1  2  1  0
  1  9  1  0
  3  2  1  0
  4  5  1  0
  4  3  1  0
  5  6  1  0
  6 13  1  0
  6  1  1  0
  7 12  2  0
  8  7  1  0
  9  8  2  0
  9 10  1  0
 10 11  2  0
 11 12  1  0
  2 14  1  0
  2 15  1  0
  3 16  1  0
  3 17  1  0
  4 18  1  0
  4 19  1  0
  5 20  1  0
  5 21  1  0
  6 22  1  6
  7 23  1  0
  8 24  1  0
 11 25  1  0
 13 26  1  0
M  ISO  8  14  13  15  13  16  13  17  13  18  13  19  13  20  13  21  13
M  ISO  5  22  13  23  14  24  14  25  14  26   3
M  END
>  <minimizedAffinity>  (1) 
-4.81824064

>  <minimizedRMSD>  (1) 
0.0718797669

$$$$
