
     RDKit          3D

 28 29  0  0  1  0  0  0  0  0999 V2000
   46.8770   34.5910   42.2930 N   0  0  0  0  0  0  0  0  0  0  0  0
   48.3340   34.6780   42.3490 C   0  0  0  0  0  0  0  0  0  0  0  0
   48.7280   35.4740   41.1000 C   0  0  0  0  0  0  0  0  0  0  0  0
   48.3550   34.7450   39.8470 C   0  0  0  0  0  0  0  0  0  0  0  0
   47.1120   33.9390   39.9440 C   0  0  0  0  0  0  0  0  0  0  0  0
   46.1850   34.3230   41.0700 C   0  0  1  0  0  0  0  0  0  0  0  0
   44.4670   35.9240   44.8210 C   0  0  0  0  0  0  0  0  0  0  0  0
   45.1830   35.8380   43.6200 C   0  0  0  0  0  0  0  0  0  0  0  0
   46.0920   34.7760   43.4780 C   0  0  0  0  0  0  0  0  0  0  0  0
   46.2160   33.9030   44.5150 N   0  0  0  0  0  0  0  0  0  0  0  0
   45.5130   34.0100   45.6600 C   0  0  0  0  0  0  0  0  0  0  0  0
   44.6400   35.0290   45.7980 N   0  0  0  0  0  0  0  0  0  0  0  0
   45.2620   33.1250   41.2940 C   0  0  0  0  0  0  0  0  0  0  0  0
   48.6559   35.2030   43.2604 H   0  0  0  0  0  0  0  0  0  0  0  0
   48.8081   33.6858   42.3752 H   0  0  0  0  0  0  0  0  0  0  0  0
   48.2110   36.4448   41.1165 H   0  0  0  0  0  0  0  0  0  0  0  0
   49.8192   35.6125   41.1079 H   0  0  0  0  0  0  0  0  0  0  0  0
   49.1821   34.0688   39.5851 H   0  0  0  0  0  0  0  0  0  0  0  0
   48.1669   35.5150   39.0843 H   0  0  0  0  0  0  0  0  0  0  0  0
   46.5614   34.0470   38.9978 H   0  0  0  0  0  0  0  0  0  0  0  0
   47.4322   32.9070   40.1501 H   0  0  0  0  0  0  0  0  0  0  0  0
   45.6498   35.2436   40.7943 H   0  0  0  0  0  0  0  0  0  0  0  0
   43.7482   36.7445   44.9626 H   0  0  0  0  0  0  0  0  0  0  0  0
   45.0387   36.5756   42.8168 H   0  0  0  0  0  0  0  0  0  0  0  0
   45.6491   33.2777   46.4694 H   0  0  0  0  0  0  0  0  0  0  0  0
   45.1334   32.9581   42.3736 H   0  0  0  0  0  0  0  0  0  0  0  0
   44.2828   33.3256   40.8348 H   0  0  0  0  0  0  0  0  0  0  0  0
   45.7057   32.2293   40.8348 H   0  0  0  0  0  0  0  0  0  0  0  0
  1  2  1  0
  1  9  1  0
  3  2  1  0
  4  5  1  0
  4  3  1  0
  5  6  1  0
  6 13  1  0
  6  1  1  0
  7 12  2  0
  8  7  1  0
  9  8  2  0
  9 10  1  0
 10 11  2  0
 11 12  1  0
  2 14  1  0
  2 15  1  0
  3 16  1  0
  3 17  1  0
  4 18  1  0
  4 19  1  0
  5 20  1  0
  5 21  1  0
  6 22  1  6
  7 23  1  0
  8 24  1  0
 11 25  1  0
 13 26  1  0
 13 27  1  0
 13 28  1  0
M  ISO  8  14  13  15  13  16  13  17  13  18  13  19  13  20  13  21  13
M  ISO  7  22  13  23  14  24  14  25  14  26   8  27   8  28   8
M  END
>  <minimizedAffinity>  (1) 
-4.84437037

>  <minimizedRMSD>  (1) 
0.0386855751

$$$$
