
     RDKit          3D

 41 44  0  0  1  0  0  0  0  0999 V2000
   46.8900   34.6230   42.2960 N   0  0  0  0  0  0  0  0  0  0  0  0
   48.3430   34.6950   42.3560 C   0  0  0  0  0  0  0  0  0  0  0  0
   48.7230   35.4970   41.0950 C   0  0  0  0  0  0  0  0  0  0  0  0
   48.3900   34.6850   39.8770 C   0  0  0  0  0  0  0  0  0  0  0  0
   47.0820   33.9840   39.9370 C   0  0  0  0  0  0  0  0  0  0  0  0
   46.1850   34.3940   41.0690 C   0  0  1  0  0  0  0  0  0  0  0  0
   44.4960   35.9290   44.8520 C   0  0  0  0  0  0  0  0  0  0  0  0
   45.2180   35.8620   43.6440 C   0  0  0  0  0  0  0  0  0  0  0  0
   46.1120   34.7840   43.4810 C   0  0  0  0  0  0  0  0  0  0  0  0
   46.2160   33.8820   44.5020 N   0  0  0  0  0  0  0  0  0  0  0  0
   45.5070   33.9810   45.6440 C   0  0  0  0  0  0  0  0  0  0  0  0
   44.6410   35.0170   45.8140 N   0  0  0  0  0  0  0  0  0  0  0  0
   45.2510   33.3720   41.2530 O   0  0  0  0  0  0  0  0  0  0  0  0
   43.9790   33.3120   40.7340 C   0  0  0  0  0  0  0  0  0  0  0  0
   43.3270   32.3460   40.0020 C   0  0  0  0  0  0  0  0  0  0  0  0
   42.0270   32.5430   39.6000 C   0  0  0  0  0  0  0  0  0  0  0  0
   41.3320   33.6900   39.9050 C   0  0  0  0  0  0  0  0  0  0  0  0
   40.0590   33.8240   39.4830 N   0  0  0  0  0  0  0  0  0  0  0  0
   39.3260   34.9260   39.7520 C   0  0  0  0  0  0  0  0  0  0  0  0
   39.9190   35.9340   40.4830 C   0  0  0  0  0  0  0  0  0  0  0  0
   41.2290   35.7960   40.9180 C   0  0  0  0  0  0  0  0  0  0  0  0
   41.9570   34.6720   40.6370 C   0  0  0  0  0  0  0  0  0  0  0  0
   43.2780   34.4820   41.0480 C   0  0  0  0  0  0  0  0  0  0  0  0
   48.6724   35.2169   43.2666 H   0  0  0  0  0  0  0  0  0  0  0  0
   48.8174   33.7031   42.3887 H   0  0  0  0  0  0  0  0  0  0  0  0
   48.1578   36.4405   41.0744 H   0  0  0  0  0  0  0  0  0  0  0  0
   49.8001   35.7199   41.1084 H   0  0  0  0  0  0  0  0  0  0  0  0
   49.1780   33.9292   39.7431 H   0  0  0  0  0  0  0  0  0  0  0  0
   48.3240   35.3946   39.0391 H   0  0  0  0  0  0  0  0  0  0  0  0
   46.5493   34.1775   38.9942 H   0  0  0  0  0  0  0  0  0  0  0  0
   47.3139   32.9215   40.1025 H   0  0  0  0  0  0  0  0  0  0  0  0
   45.7093   35.3499   40.8046 H   0  0  0  0  0  0  0  0  0  0  0  0
   43.7910   36.7592   45.0063 H   0  0  0  0  0  0  0  0  0  0  0  0
   45.0892   36.6212   42.8585 H   0  0  0  0  0  0  0  0  0  0  0  0
   45.6279   33.2271   46.4358 H   0  0  0  0  0  0  0  0  0  0  0  0
   43.8474   31.4136   39.7378 H   0  0  0  0  0  0  0  0  0  0  0  0
   41.5263   31.7574   39.0152 H   0  0  0  0  0  0  0  0  0  0  0  0
   38.2881   35.0168   39.3990 H   0  0  0  0  0  0  0  0  0  0  0  0
   39.3535   36.8470   40.7210 H   0  0  0  0  0  0  0  0  0  0  0  0
   41.6918   36.6063   41.5004 H   0  0  0  0  0  0  0  0  0  0  0  0
   43.7785   35.2690   41.6312 H   0  0  0  0  0  0  0  0  0  0  0  0
  1  2  1  0
  1  9  1  0
  3  2  1  0
  4  5  1  0
  4  3  1  0
  5  6  1  0
  6 13  1  0
  6  1  1  0
  7 12  2  0
  8  7  1  0
  9  8  2  0
  9 10  1  0
 10 11  2  0
 11 12  1  0
 14 23  1  0
 14 13  1  0
 15 14  2  0
 16 17  2  0
 16 15  1  0
 17 22  1  0
 18 19  2  0
 18 17  1  0
 19 20  1  0
 20 21  2  0
 22 21  1  0
 22 23  2  0
  2 24  1  0
  2 25  1  0
  3 26  1  0
  3 27  1  0
  4 28  1  0
  4 29  1  0
  5 30  1  0
  5 31  1  0
  6 32  1  6
  7 33  1  0
  8 34  1  0
 11 35  1  0
 15 36  1  0
 16 37  1  0
 19 38  1  0
 20 39  1  0
 21 40  1  0
 23 41  1  0
M  ISO  8  24  13  25  13  26  13  27  13  28  13  29  13  30  13  31  13
M  ISO  8  32  13  33  14  34  14  35  14  36  14  37  14  38  14  39  14
M  ISO  2  40  14  41  14
M  END
>  <minimizedAffinity>  (1) 
-6.88691568

>  <minimizedRMSD>  (1) 
1.29411697

$$$$
