
     RDKit          3D

 39 41  0  0  1  0  0  0  0  0999 V2000
   46.6040   34.4190   42.2780 N   0  0  0  0  0  0  0  0  0  0  0  0
   48.0240   34.1140   42.3080 C   0  0  0  0  0  0  0  0  0  0  0  0
   48.5890   34.8720   41.0910 C   0  0  0  0  0  0  0  0  0  0  0  0
   48.0520   34.2780   39.8270 C   0  0  0  0  0  0  0  0  0  0  0  0
   46.6070   33.9130   39.8800 C   0  0  0  0  0  0  0  0  0  0  0  0
   45.8520   34.4380   41.0500 C   0  0  1  0  0  0  0  0  0  0  0  0
   44.4770   36.0840   44.8610 C   0  0  0  0  0  0  0  0  0  0  0  0
   45.1260   35.8940   43.6280 C   0  0  0  0  0  0  0  0  0  0  0  0
   45.9020   34.7130   43.4880 C   0  0  0  0  0  0  0  0  0  0  0  0
   45.9660   33.8520   44.5420 N   0  0  0  0  0  0  0  0  0  0  0  0
   45.3110   34.0970   45.7110 C   0  0  0  0  0  0  0  0  0  0  0  0
   44.5690   35.2190   45.8550 N   0  0  0  0  0  0  0  0  0  0  0  0
   44.6990   33.6760   41.2150 O   0  0  0  0  0  0  0  0  0  0  0  0
   42.5210   33.0120   41.3320 C   0  0  0  0  0  0  0  0  0  0  0  0
   43.4060   34.0270   40.9490 C   0  0  0  0  0  0  0  0  0  0  0  0
   42.8920   35.1770   40.3900 C   0  0  0  0  0  0  0  0  0  0  0  0
   41.5390   35.3590   40.1960 C   0  0  0  0  0  0  0  0  0  0  0  0
   40.6760   34.3350   40.5850 C   0  0  0  0  0  0  0  0  0  0  0  0
   41.1410   33.1650   41.1490 C   0  0  0  0  0  0  0  0  0  0  0  0
   42.9990   31.4790   42.0610 S   0  0  0  0  0  0  0  0  0  0  0  0
   41.8310   30.8470   42.7130 O   0  0  0  0  0  0  0  0  0  0  0  0
   43.4420   30.5800   40.9260 O   0  0  0  0  0  0  0  0  0  0  0  0
   48.4824   34.4737   43.2410 H   0  0  0  0  0  0  0  0  0  0  0  0
   48.2278   33.0338   42.2683 H   0  0  0  0  0  0  0  0  0  0  0  0
   48.2938   35.9300   41.1510 H   0  0  0  0  0  0  0  0  0  0  0  0
   49.6861   34.7915   41.0915 H   0  0  0  0  0  0  0  0  0  0  0  0
   48.6282   33.3681   39.6032 H   0  0  0  0  0  0  0  0  0  0  0  0
   48.1509   35.0516   39.0513 H   0  0  0  0  0  0  0  0  0  0  0  0
   46.1274   34.2977   38.9679 H   0  0  0  0  0  0  0  0  0  0  0  0
   46.5774   32.8172   39.9708 H   0  0  0  0  0  0  0  0  0  0  0  0
   45.6199   35.4918   40.8365 H   0  0  0  0  0  0  0  0  0  0  0  0
   43.8684   36.9892   45.0034 H   0  0  0  0  0  0  0  0  0  0  0  0
   45.0368   36.6252   42.8111 H   0  0  0  0  0  0  0  0  0  0  0  0
   45.3857   33.3795   46.5414 H   0  0  0  0  0  0  0  0  0  0  0  0
   43.5844   35.9767   40.0884 H   0  0  0  0  0  0  0  0  0  0  0  0
   41.1515   36.2855   39.7472 H   0  0  0  0  0  0  0  0  0  0  0  0
   39.5935   34.4638   40.4379 H   0  0  0  0  0  0  0  0  0  0  0  0
   40.4429   32.3694   41.4485 H   0  0  0  0  0  0  0  0  0  0  0  0
   43.9868   31.6740   42.9900 H   0  0  0  0  0  0  0  0  0  0  0  0
  1  2  1  0
  1  9  1  0
  3  2  1  0
  4  5  1  0
  4  3  1  0
  5  6  1  0
  6 13  1  0
  6  1  1  0
  7 12  2  0
  8  7  1  0
  9  8  2  0
  9 10  1  0
 10 11  2  0
 11 12  1  0
 14 20  1  0
 15 13  1  0
 15 14  2  0
 16 15  1  0
 17 16  2  0
 17 18  1  0
 18 19  2  0
 19 14  1  0
 20 21  2  0
 22 20  2  0
  2 23  1  0
  2 24  1  0
  3 25  1  0
  3 26  1  0
  4 27  1  0
  4 28  1  0
  5 29  1  0
  5 30  1  0
  6 31  1  6
  7 32  1  0
  8 33  1  0
 11 34  1  0
 16 35  1  0
 17 36  1  0
 18 37  1  0
 19 38  1  0
 20 39  1  0
M  ISO  8  23  13  24  13  25  13  26  13  27  13  28  13  29  13  30  13
M  ISO  8  31  13  32  14  33  14  34  14  35  14  36  14  37  14  38  14
M  ISO  1  39  11
M  END
>  <minimizedAffinity>  (1) 
-5.67279196

>  <minimizedRMSD>  (1) 
1.13384199

$$$$
