
     RDKit          3D

 36 38  0  0  1  0  0  0  0  0999 V2000
   46.7570   34.5580   42.2930 N   0  0  0  0  0  0  0  0  0  0  0  0
   48.2190   34.5420   42.3370 C   0  0  0  0  0  0  0  0  0  0  0  0
   48.6220   35.3140   41.0680 C   0  0  0  0  0  0  0  0  0  0  0  0
   48.2090   34.5400   39.8450 C   0  0  0  0  0  0  0  0  0  0  0  0
   46.8670   33.9120   39.9420 C   0  0  0  0  0  0  0  0  0  0  0  0
   46.0020   34.3730   41.0810 C   0  0  1  0  0  0  0  0  0  0  0  0
   44.4630   36.0120   44.8700 C   0  0  0  0  0  0  0  0  0  0  0  0
   45.1540   35.8810   43.6570 C   0  0  0  0  0  0  0  0  0  0  0  0
   46.0180   34.7640   43.4950 C   0  0  0  0  0  0  0  0  0  0  0  0
   46.1070   33.9050   44.5390 N   0  0  0  0  0  0  0  0  0  0  0  0
   45.4290   34.0590   45.6940 C   0  0  0  0  0  0  0  0  0  0  0  0
   44.6030   35.1260   45.8470 N   0  0  0  0  0  0  0  0  0  0  0  0
   45.0250   33.4210   41.2900 O   0  0  0  0  0  0  0  0  0  0  0  0
   43.3560   35.6980   40.7430 F   0  0  0  0  0  0  0  0  0  0  0  0
   42.7520   34.5170   41.0100 C   0  0  0  0  0  0  0  0  0  0  0  0
   43.6670   33.5200   41.2520 C   0  0  0  0  0  0  0  0  0  0  0  0
   43.1300   32.2550   41.5400 C   0  0  0  0  0  0  0  0  0  0  0  0
   41.7470   32.0290   41.5770 C   0  0  0  0  0  0  0  0  0  0  0  0
   40.8830   33.0650   41.3260 C   0  0  0  0  0  0  0  0  0  0  0  0
   41.3940   34.2940   41.0470 C   0  0  0  0  0  0  0  0  0  0  0  0
   48.5912   35.0475   43.2402 H   0  0  0  0  0  0  0  0  0  0  0  0
   48.6367   33.5250   42.3720 H   0  0  0  0  0  0  0  0  0  0  0  0
   48.1242   36.2949   41.0642 H   0  0  0  0  0  0  0  0  0  0  0  0
   49.7134   35.4510   41.0586 H   0  0  0  0  0  0  0  0  0  0  0  0
   48.9497   33.7448   39.6745 H   0  0  0  0  0  0  0  0  0  0  0  0
   48.1587   35.2630   39.0175 H   0  0  0  0  0  0  0  0  0  0  0  0
   46.3294   34.1217   39.0055 H   0  0  0  0  0  0  0  0  0  0  0  0
   47.0534   32.8437   40.1262 H   0  0  0  0  0  0  0  0  0  0  0  0
   45.5625   35.3463   40.8173 H   0  0  0  0  0  0  0  0  0  0  0  0
   43.7892   36.8694   45.0147 H   0  0  0  0  0  0  0  0  0  0  0  0
   45.0309   36.6219   42.8533 H   0  0  0  0  0  0  0  0  0  0  0  0
   45.5440   33.3261   46.5062 H   0  0  0  0  0  0  0  0  0  0  0  0
   43.8139   31.4176   41.7423 H   0  0  0  0  0  0  0  0  0  0  0  0
   41.3565   31.0265   41.8060 H   0  0  0  0  0  0  0  0  0  0  0  0
   39.7951   32.9041   41.3501 H   0  0  0  0  0  0  0  0  0  0  0  0
   40.7066   35.1290   40.8463 H   0  0  0  0  0  0  0  0  0  0  0  0
  1  2  1  0
  1  9  1  0
  3  2  1  0
  4  5  1  0
  4  3  1  0
  5  6  1  0
  6 13  1  0
  6  1  1  0
  7 12  2  0
  8  7  1  0
  9  8  2  0
  9 10  1  0
 10 11  2  0
 11 12  1  0
 14 15  1  0
 15 20  2  0
 15 16  1  0
 16 13  1  0
 16 17  2  0
 17 18  1  0
 19 18  2  0
 20 19  1  0
  2 21  1  0
  2 22  1  0
  3 23  1  0
  3 24  1  0
  4 25  1  0
  4 26  1  0
  5 27  1  0
  5 28  1  0
  6 29  1  6
  7 30  1  0
  8 31  1  0
 11 32  1  0
 17 33  1  0
 18 34  1  0
 19 35  1  0
 20 36  1  0
M  ISO  8  21  13  22  13  23  13  24  13  25  13  26  13  27  13  28  13
M  ISO  8  29  13  30  14  31  14  32  14  33  14  34  14  35  14  36  14
M  END
>  <minimizedAffinity>  (1) 
-5.86483335

>  <minimizedRMSD>  (1) 
0.508841217

$$$$
