
     RDKit          3D

 30 31  0  0  1  0  0  0  0  0999 V2000
   46.8560   34.6070   42.2960 N   0  0  0  0  0  0  0  0  0  0  0  0
   48.3130   34.6600   42.3530 C   0  0  0  0  0  0  0  0  0  0  0  0
   48.7050   35.4550   41.0990 C   0  0  0  0  0  0  0  0  0  0  0  0
   48.3350   34.7010   39.8620 C   0  0  0  0  0  0  0  0  0  0  0  0
   47.0500   33.9490   39.9520 C   0  0  0  0  0  0  0  0  0  0  0  0
   46.1530   34.3850   41.0790 C   0  0  1  0  0  0  0  0  0  0  0  0
   44.4730   35.9430   44.8470 C   0  0  0  0  0  0  0  0  0  0  0  0
   45.1860   35.8570   43.6450 C   0  0  0  0  0  0  0  0  0  0  0  0
   46.0790   34.7820   43.4920 C   0  0  0  0  0  0  0  0  0  0  0  0
   46.1960   33.8930   44.5200 N   0  0  0  0  0  0  0  0  0  0  0  0
   45.4910   34.0090   45.6660 C   0  0  0  0  0  0  0  0  0  0  0  0
   44.6240   35.0530   45.8140 N   0  0  0  0  0  0  0  0  0  0  0  0
   45.2280   33.3390   41.2780 O   0  0  0  0  0  0  0  0  0  0  0  0
   43.8700   33.4280   41.1020 C   0  0  0  0  0  0  0  0  0  0  0  0
   43.4390   33.7580   39.9850 O   0  0  0  0  0  0  0  0  0  0  0  0
   43.0790   33.1300   42.2340 N   0  0  0  0  0  0  0  0  0  0  0  0
   48.6502   35.1757   43.2642 H   0  0  0  0  0  0  0  0  0  0  0  0
   48.7723   33.6609   42.3817 H   0  0  0  0  0  0  0  0  0  0  0  0
   48.1794   36.4213   41.1044 H   0  0  0  0  0  0  0  0  0  0  0  0
   49.7934   35.6143   41.1055 H   0  0  0  0  0  0  0  0  0  0  0  0
   49.1386   33.9817   39.6458 H   0  0  0  0  0  0  0  0  0  0  0  0
   48.2012   35.4513   39.0688 H   0  0  0  0  0  0  0  0  0  0  0  0
   46.5050   34.0845   39.0062 H   0  0  0  0  0  0  0  0  0  0  0  0
   47.3133   32.8991   40.1481 H   0  0  0  0  0  0  0  0  0  0  0  0
   45.6791   35.3402   40.8089 H   0  0  0  0  0  0  0  0  0  0  0  0
   43.7672   36.7743   44.9913 H   0  0  0  0  0  0  0  0  0  0  0  0
   45.0522   36.6040   42.8487 H   0  0  0  0  0  0  0  0  0  0  0  0
   45.6141   33.2701   46.4716 H   0  0  0  0  0  0  0  0  0  0  0  0
   42.0520   33.1773   42.1715 H   0  0  0  0  0  0  0  0  0  0  0  0
   43.5293   32.8654   43.1218 H   0  0  0  0  0  0  0  0  0  0  0  0
  1  2  1  0
  1  9  1  0
  3  2  1  0
  4  5  1  0
  4  3  1  0
  5  6  1  0
  6 13  1  0
  6  1  1  0
  7 12  2  0
  8  7  1  0
  9  8  2  0
  9 10  1  0
 10 11  2  0
 11 12  1  0
 14 13  1  0
 14 16  1  0
 15 14  2  0
  2 17  1  0
  2 18  1  0
  3 19  1  0
  3 20  1  0
  4 21  1  0
  4 22  1  0
  5 23  1  0
  5 24  1  0
  6 25  1  6
  7 26  1  0
  8 27  1  0
 11 28  1  0
 16 29  1  0
 16 30  1  0
M  ISO  8  17  13  18  13  19  13  20  13  21  13  22  13  23  13  24  13
M  ISO  4  25  13  26  14  27  14  28  14
M  END
>  <minimizedAffinity>  (1) 
-5.06933069

>  <minimizedRMSD>  (1) 
0.355640411

$$$$
