
     RDKit          3D

 38 40  0  0  1  0  0  0  0  0999 V2000
   46.8020   34.5870   42.2270 N   0  0  0  0  0  0  0  0  0  0  0  0
   48.2630   34.6530   42.2500 C   0  0  0  0  0  0  0  0  0  0  0  0
   48.6260   35.4080   40.9730 C   0  0  0  0  0  0  0  0  0  0  0  0
   48.2490   34.6040   39.7690 C   0  0  0  0  0  0  0  0  0  0  0  0
   46.9320   33.8900   39.8780 C   0  0  0  0  0  0  0  0  0  0  0  0
   46.0790   34.3290   41.0310 C   0  0  1  0  0  0  0  0  0  0  0  0
   44.5050   35.9670   44.8190 C   0  0  0  0  0  0  0  0  0  0  0  0
   45.1920   35.8830   43.5940 C   0  0  0  0  0  0  0  0  0  0  0  0
   46.0480   34.7840   43.4270 C   0  0  0  0  0  0  0  0  0  0  0  0
   46.1540   33.8800   44.4490 N   0  0  0  0  0  0  0  0  0  0  0  0
   45.4710   34.0050   45.6100 C   0  0  0  0  0  0  0  0  0  0  0  0
   44.6420   35.0580   45.7900 N   0  0  0  0  0  0  0  0  0  0  0  0
   45.1500   33.2900   41.2610 O   0  0  0  0  0  0  0  0  0  0  0  0
   43.3560   33.8040   39.7430 C   0  0  1  0  0  0  0  0  0  0  0  0
   43.8670   33.7750   41.1880 C   0  0  1  0  0  0  0  0  0  0  0  0
   42.9070   32.8230   41.8240 C   0  0  0  0  0  0  0  0  0  0  0  0
   42.0260   32.3650   40.8480 O   0  0  0  0  0  0  0  0  0  0  0  0
   41.8920   33.4510   40.0020 C   0  0  0  0  0  0  0  0  0  0  0  0
   43.4010   35.0570   39.1820 O   0  0  0  0  0  0  0  0  0  0  0  0
   48.6146   35.1981   43.1384 H   0  0  0  0  0  0  0  0  0  0  0  0
   48.7283   33.6573   42.2966 H   0  0  0  0  0  0  0  0  0  0  0  0
   48.0868   36.3665   40.9525 H   0  0  0  0  0  0  0  0  0  0  0  0
   49.7115   35.5856   40.9589 H   0  0  0  0  0  0  0  0  0  0  0  0
   49.0336   33.8517   39.6000 H   0  0  0  0  0  0  0  0  0  0  0  0
   48.1475   35.3178   38.9382 H   0  0  0  0  0  0  0  0  0  0  0  0
   46.3693   34.0637   38.9489 H   0  0  0  0  0  0  0  0  0  0  0  0
   47.1652   32.8286   40.0482 H   0  0  0  0  0  0  0  0  0  0  0  0
   45.6049   35.2852   40.7648 H   0  0  0  0  0  0  0  0  0  0  0  0
   43.8263   36.8166   44.9850 H   0  0  0  0  0  0  0  0  0  0  0  0
   45.0644   36.6408   42.8069 H   0  0  0  0  0  0  0  0  0  0  0  0
   45.5895   33.2532   46.4042 H   0  0  0  0  0  0  0  0  0  0  0  0
   43.9306   33.1611   39.0599 H   0  0  0  0  0  0  0  0  0  0  0  0
   43.9097   34.7669   41.6616 H   0  0  0  0  0  0  0  0  0  0  0  0
   43.4574   31.9736   42.2549 H   0  0  0  0  0  0  0  0  0  0  0  0
   42.3502   33.3294   42.6262 H   0  0  0  0  0  0  0  0  0  0  0  0
   41.3574   34.2792   40.4900 H   0  0  0  0  0  0  0  0  0  0  0  0
   41.3079   33.2469   39.0925 H   0  0  0  0  0  0  0  0  0  0  0  0
   43.4255   35.7390   39.8992 H   0  0  0  0  0  0  0  0  0  0  0  0
  1  2  1  0
  1  9  1  0
  3  2  1  0
  4  5  1  0
  4  3  1  0
  5  6  1  0
  6 13  1  0
  6  1  1  0
  7 12  2  0
  8  7  1  0
  9  8  2  0
  9 10  1  0
 10 11  2  0
 11 12  1  0
 14 19  1  0
 14 18  1  0
 14 15  1  0
 15 13  1  0
 15 16  1  0
 17 16  1  0
 18 17  1  0
  2 20  1  0
  2 21  1  0
  3 22  1  0
  3 23  1  0
  4 24  1  0
  4 25  1  0
  5 26  1  0
  5 27  1  0
  6 28  1  6
  7 29  1  0
  8 30  1  0
 11 31  1  0
 14 32  1  6
 15 33  1  1
 16 34  1  0
 16 35  1  0
 18 36  1  0
 18 37  1  0
 19 38  1  0
M  ISO  8  20  13  21  13  22  13  23  13  24  13  25  13  26  13  27  13
M  ISO  8  28  13  29  14  30  14  31  14  32  13  33  13  34  13  35  13
M  ISO  3  36  13  37  13  38   3
M  END
>  <minimizedAffinity>  (1) 
-5.54257774

>  <minimizedRMSD>  (1) 
0.37792781

$$$$
