
     RDKit          3D

 34 36  0  0  0  0  0  0  0  0999 V2000
   45.1880   34.4010   41.1130 C   0  0  0  0  0  0  0  0  0  0  0  0
   45.3170   34.9280   42.3980 C   0  0  0  0  0  0  0  0  0  0  0  0
   46.5990   35.1890   42.8800 C   0  0  0  0  0  0  0  0  0  0  0  0
   47.6970   34.9250   42.0860 C   0  0  0  0  0  0  0  0  0  0  0  0
   47.5820   34.4060   40.8190 C   0  0  0  0  0  0  0  0  0  0  0  0
   46.2890   34.1530   40.3600 C   0  0  0  0  0  0  0  0  0  0  0  0
   41.6040   34.7570   40.0170 C   0  0  0  0  0  0  0  0  0  0  0  0
   42.8890   35.1330   40.4410 C   0  0  0  0  0  0  0  0  0  0  0  0
   43.8320   34.1540   40.6750 C   0  0  0  0  0  0  0  0  0  0  0  0
   43.4410   32.8700   40.4740 N   0  0  0  0  0  0  0  0  0  0  0  0
   42.2060   32.5120   40.0670 C   0  0  0  0  0  0  0  0  0  0  0  0
   41.2710   33.4590   39.8330 N   0  0  0  0  0  0  0  0  0  0  0  0
   40.5740   35.8010   39.7600 C   0  0  0  0  0  0  0  0  0  0  0  0
   39.3660   35.1420   39.5230 F   0  0  0  0  0  0  0  0  0  0  0  0
   40.9090   36.3940   38.5530 F   0  0  0  0  0  0  0  0  0  0  0  0
   40.4350   36.6890   40.7870 F   0  0  0  0  0  0  0  0  0  0  0  0
   46.3320   32.3960   38.4220 C   0  0  0  0  0  0  0  0  0  0  0  0
   46.9320   31.4330   38.9260 O   0  0  0  0  0  0  0  0  0  0  0  0
   46.0300   33.6210   39.0780 N   0  0  0  0  0  0  0  0  0  0  0  0
   45.8930   32.2680   37.0290 C   0  0  0  0  0  0  0  0  0  0  0  0
   45.3950   33.3100   36.3040 C   0  0  0  0  0  0  0  0  0  0  0  0
   45.0640   32.9370   35.0540 N   0  0  0  0  0  0  0  0  0  0  0  0
   45.3760   31.6200   35.0280 C   0  0  0  0  0  0  0  0  0  0  0  0
   45.8730   31.2060   36.2030 N   0  0  0  0  0  0  0  0  0  0  0  0
   44.4299   35.1325   43.0154 H   0  0  0  0  0  0  0  0  0  0  0  0
   46.7351   35.6039   43.8896 H   0  0  0  0  0  0  0  0  0  0  0  0
   48.7008   35.1380   42.4822 H   0  0  0  0  0  0  0  0  0  0  0  0
   48.4658   34.2001   40.1972 H   0  0  0  0  0  0  0  0  0  0  0  0
   43.1401   36.1943   40.5846 H   0  0  0  0  0  0  0  0  0  0  0  0
   41.9599   31.4492   39.9256 H   0  0  0  0  0  0  0  0  0  0  0  0
   45.4997   34.2703   38.4796 H   0  0  0  0  0  0  0  0  0  0  0  0
   45.2780   34.3320   36.6937 H   0  0  0  0  0  0  0  0  0  0  0  0
   44.6684   33.5148   34.2986 H   0  0  0  0  0  0  0  0  0  0  0  0
   45.2389   30.9697   34.1515 H   0  0  0  0  0  0  0  0  0  0  0  0
  1  2  2  0
  2  3  1  0
  4  3  2  0
  5  4  1  0
  6  5  2  0
  6  1  1  0
  7  8  2  0
  8  9  1  0
  9  1  1  0
 10  9  2  0
 11 10  1  0
 12  7  1  0
 12 11  2  0
 13  7  1  0
 13 16  1  0
 14 13  1  0
 15 13  1  0
 17 18  2  0
 17 19  1  0
 19  6  1  0
 20 17  1  0
 21 20  2  0
 22 21  1  0
 23 22  1  0
 23 24  2  0
 24 20  1  0
  2 25  1  0
  3 26  1  0
  4 27  1  0
  5 28  1  0
  8 29  1  0
 11 30  1  0
 19 31  1  0
 21 32  1  0
 22 33  1  0
 23 34  1  0
M  ISO  8  25  14  26  14  27  14  28  14  29  14  30  14  32  14  33   9
M  ISO  1  34  14
M  END
>  <minimizedAffinity>  (1) 
-6.16790724

>  <minimizedRMSD>  (1) 
0.84242624

$$$$
