
     RDKit          3D

 34 36  0  0  0  0  0  0  0  0999 V2000
   45.1790   34.3700   41.2090 C   0  0  0  0  0  0  0  0  0  0  0  0
   45.2620   34.7820   42.5350 C   0  0  0  0  0  0  0  0  0  0  0  0
   46.5300   35.0200   43.0760 C   0  0  0  0  0  0  0  0  0  0  0  0
   47.6510   34.8430   42.2940 C   0  0  0  0  0  0  0  0  0  0  0  0
   47.5800   34.4360   40.9820 C   0  0  0  0  0  0  0  0  0  0  0  0
   46.3040   34.2050   40.4670 C   0  0  0  0  0  0  0  0  0  0  0  0
   41.6170   34.7650   40.0200 C   0  0  0  0  0  0  0  0  0  0  0  0
   42.8870   35.1230   40.5090 C   0  0  0  0  0  0  0  0  0  0  0  0
   43.8410   34.1420   40.7120 C   0  0  0  0  0  0  0  0  0  0  0  0
   43.4650   32.8710   40.4150 N   0  0  0  0  0  0  0  0  0  0  0  0
   42.2460   32.5310   39.9460 C   0  0  0  0  0  0  0  0  0  0  0  0
   41.3140   33.4910   39.7480 N   0  0  0  0  0  0  0  0  0  0  0  0
   40.5960   35.8160   39.8030 C   0  0  0  0  0  0  0  0  0  0  0  0
   39.3800   35.1770   39.5820 F   0  0  0  0  0  0  0  0  0  0  0  0
   40.9060   36.4310   38.5930 F   0  0  0  0  0  0  0  0  0  0  0  0
   40.4880   36.6900   40.8500 F   0  0  0  0  0  0  0  0  0  0  0  0
   46.4990   32.6700   38.3450 C   0  0  0  0  0  0  0  0  0  0  0  0
   47.1930   31.7270   38.7580 O   0  0  0  0  0  0  0  0  0  0  0  0
   46.0910   33.7840   39.1360 N   0  0  0  0  0  0  0  0  0  0  0  0
   46.0640   32.6440   36.9500 C   0  0  0  0  0  0  0  0  0  0  0  0
   46.6210   31.8080   36.0280 C   0  0  0  0  0  0  0  0  0  0  0  0
   46.0040   32.0100   34.7880 C   0  0  0  0  0  0  0  0  0  0  0  0
   45.1000   32.9720   35.0480 N   0  0  0  0  0  0  0  0  0  0  0  0
   45.1190   33.3600   36.3130 N   0  0  0  0  0  0  0  0  0  0  0  0
   44.3547   34.9171   43.1421 H   0  0  0  0  0  0  0  0  0  0  0  0
   46.6319   35.3471   44.1213 H   0  0  0  0  0  0  0  0  0  0  0  0
   48.6400   35.0345   42.7358 H   0  0  0  0  0  0  0  0  0  0  0  0
   48.4836   34.2995   40.3697 H   0  0  0  0  0  0  0  0  0  0  0  0
   43.1195   36.1755   40.7283 H   0  0  0  0  0  0  0  0  0  0  0  0
   42.0117   31.4790   39.7260 H   0  0  0  0  0  0  0  0  0  0  0  0
   45.4973   34.4404   38.6091 H   0  0  0  0  0  0  0  0  0  0  0  0
   47.4284   31.0880   36.2274 H   0  0  0  0  0  0  0  0  0  0  0  0
   46.2086   31.5047   33.8326 H   0  0  0  0  0  0  0  0  0  0  0  0
   44.4628   33.3636   34.3398 H   0  0  0  0  0  0  0  0  0  0  0  0
  1  2  2  0
  2  3  1  0
  4  3  2  0
  5  4  1  0
  6  5  2  0
  6  1  1  0
  7  8  2  0
  8  9  1  0
  9  1  1  0
 10  9  2  0
 11 10  1  0
 12 11  2  0
 12  7  1  0
 13  7  1  0
 13 16  1  0
 14 13  1  0
 15 13  1  0
 17 18  2  0
 17 19  1  0
 19  6  1  0
 20 17  1  0
 21 20  1  0
 22 23  1  0
 22 21  2  0
 23 24  1  0
 24 20  2  0
  2 25  1  0
  3 26  1  0
  4 27  1  0
  5 28  1  0
  8 29  1  0
 11 30  1  0
 19 31  1  0
 21 32  1  0
 22 33  1  0
 23 34  1  0
M  ISO  8  25  14  26  14  27  14  28  14  29  14  30  14  32  14  33  14
M  ISO  1  34   9
M  END
>  <minimizedAffinity>  (1) 
-6.20892143

>  <minimizedRMSD>  (1) 
1.04756415

$$$$
