
     RDKit          3D

 26 27  0  0  0  0  0  0  0  0999 V2000
   47.9310   34.4970   42.4340 C   0  0  0  0  0  0  0  0  0  0  0  0
   48.0270   33.4980   43.4120 C   0  0  0  0  0  0  0  0  0  0  0  0
   46.9920   33.3720   44.3460 C   0  0  0  0  0  0  0  0  0  0  0  0
   45.9520   34.2400   44.2350 N   0  0  0  0  0  0  0  0  0  0  0  0
   45.8810   35.1950   43.2830 C   0  0  0  0  0  0  0  0  0  0  0  0
   46.8640   35.3190   42.3930 N   0  0  0  0  0  0  0  0  0  0  0  0
   47.2790   30.4920   44.1440 F   0  0  0  0  0  0  0  0  0  0  0  0
   47.0590   31.0540   45.3390 C   0  0  0  0  0  0  0  0  0  0  0  0
   46.9270   32.4100   45.4090 C   0  0  0  0  0  0  0  0  0  0  0  0
   46.7040   32.8690   46.6920 C   0  0  0  0  0  0  0  0  0  0  0  0
   46.6230   32.0370   47.7900 C   0  0  0  0  0  0  0  0  0  0  0  0
   46.7640   30.6720   47.6590 C   0  0  0  0  0  0  0  0  0  0  0  0
   46.9870   30.1780   46.3930 C   0  0  0  0  0  0  0  0  0  0  0  0
   49.0510   34.6000   41.4600 C   0  0  0  0  0  0  0  0  0  0  0  0
   49.1270   33.5100   40.6340 F   0  0  0  0  0  0  0  0  0  0  0  0
   48.8750   35.7690   40.7020 F   0  0  0  0  0  0  0  0  0  0  0  0
   50.2520   34.7880   42.1580 F   0  0  0  0  0  0  0  0  0  0  0  0
   44.7090   36.1050   43.2300 C   0  0  0  0  0  0  0  0  0  0  0  0
   44.0100   35.9570   42.0530 F   0  0  0  0  0  0  0  0  0  0  0  0
   45.1330   37.4400   43.3640 F   0  0  0  0  0  0  0  0  0  0  0  0
   43.8290   35.8980   44.2690 F   0  0  0  0  0  0  0  0  0  0  0  0
   48.8977   32.8267   43.4451 H   0  0  0  0  0  0  0  0  0  0  0  0
   46.5850   33.9516   46.8466 H   0  0  0  0  0  0  0  0  0  0  0  0
   46.4431   32.4697   48.7852 H   0  0  0  0  0  0  0  0  0  0  0  0
   46.7009   30.0041   48.5308 H   0  0  0  0  0  0  0  0  0  0  0  0
   47.1057   29.0968   46.2289 H   0  0  0  0  0  0  0  0  0  0  0  0
  1  2  2  0
  2  3  1  0
  3  9  1  0
  4  3  2  0
  5  4  1  0
  6  1  1  0
  6  5  2  0
  7  8  1  0
  8  9  2  0
  8 13  1  0
  9 10  1  0
 10 11  2  0
 12 11  1  0
 13 12  2  0
 14 17  1  0
 14  1  1  0
 15 14  1  0
 16 14  1  0
 18  5  1  0
 18 20  1  0
 18 21  1  0
 19 18  1  0
  2 22  1  0
 10 23  1  0
 11 24  1  0
 12 25  1  0
 13 26  1  0
M  ISO  5  22  14  23  14  24  14  25  14  26  14
M  END
>  <minimizedAffinity>  (1) 
-6.09819317

>  <minimizedRMSD>  (1) 
1.27036071

$$$$
