
     RDKit          3D

 24 25  0  0  0  0  0  0  0  0999 V2000
   47.9320   34.5170   42.3910 C   0  0  0  0  0  0  0  0  0  0  0  0
   48.0220   33.5120   43.3820 C   0  0  0  0  0  0  0  0  0  0  0  0
   46.9580   33.4170   44.3060 C   0  0  0  0  0  0  0  0  0  0  0  0
   45.9210   34.2970   44.1800 N   0  0  0  0  0  0  0  0  0  0  0  0
   45.8780   35.2310   43.2270 C   0  0  0  0  0  0  0  0  0  0  0  0
   46.8760   35.3430   42.3370 N   0  0  0  0  0  0  0  0  0  0  0  0
   47.0340   32.3940   45.3290 C   0  0  0  0  0  0  0  0  0  0  0  0
   46.7050   32.6970   46.6320 C   0  0  0  0  0  0  0  0  0  0  0  0
   46.8260   31.6170   47.4970 C   0  0  0  0  0  0  0  0  0  0  0  0
   47.2200   30.3780   47.1550 N   0  0  0  0  0  0  0  0  0  0  0  0
   47.5280   30.1570   45.8470 C   0  0  0  0  0  0  0  0  0  0  0  0
   47.4280   31.1800   44.9500 N   0  0  0  0  0  0  0  0  0  0  0  0
   49.0600   34.6050   41.4280 C   0  0  0  0  0  0  0  0  0  0  0  0
   49.1640   33.5210   40.6220 F   0  0  0  0  0  0  0  0  0  0  0  0
   48.9120   35.7980   40.7020 F   0  0  0  0  0  0  0  0  0  0  0  0
   50.2570   34.7950   42.1490 F   0  0  0  0  0  0  0  0  0  0  0  0
   44.7310   36.1600   43.1320 C   0  0  0  0  0  0  0  0  0  0  0  0
   44.0610   36.0170   41.9380 F   0  0  0  0  0  0  0  0  0  0  0  0
   45.1540   37.4840   43.2880 F   0  0  0  0  0  0  0  0  0  0  0  0
   43.8210   35.9570   44.1510 F   0  0  0  0  0  0  0  0  0  0  0  0
   48.8853   32.8321   43.4311 H   0  0  0  0  0  0  0  0  0  0  0  0
   46.3785   33.6963   46.9557 H   0  0  0  0  0  0  0  0  0  0  0  0
   46.5777   31.7907   48.5544 H   0  0  0  0  0  0  0  0  0  0  0  0
   47.8552   29.1603   45.5160 H   0  0  0  0  0  0  0  0  0  0  0  0
  1  2  2  0
  2  3  1  0
  3  7  1  0
  4  3  2  0
  5  4  1  0
  6  1  1  0
  6  5  2  0
  7  8  2  0
  8  9  1  0
 10  9  2  0
 11 10  1  0
 12  7  1  0
 12 11  2  0
 13 16  1  0
 13  1  1  0
 14 13  1  0
 15 13  1  0
 17  5  1  0
 17 19  1  0
 17 20  1  0
 18 17  1  0
  2 21  1  0
  8 22  1  0
  9 23  1  0
 11 24  1  0
M  ISO  4  21  14  22  14  23  14  24  14
M  END
>  <minimizedAffinity>  (1) 
-5.79394054

>  <minimizedRMSD>  (1) 
1.14001381

$$$$
