
     RDKit          3D

 25 26  0  0  0  0  0  0  0  0999 V2000
   47.9240   34.5040   42.4010 C   0  0  0  0  0  0  0  0  0  0  0  0
   48.0270   33.4980   43.3970 C   0  0  0  0  0  0  0  0  0  0  0  0
   46.9670   33.4200   44.3160 C   0  0  0  0  0  0  0  0  0  0  0  0
   45.9280   34.2830   44.2110 N   0  0  0  0  0  0  0  0  0  0  0  0
   45.8730   35.2240   43.2470 C   0  0  0  0  0  0  0  0  0  0  0  0
   46.8690   35.3330   42.3460 N   0  0  0  0  0  0  0  0  0  0  0  0
   47.0150   32.4060   45.3630 C   0  0  0  0  0  0  0  0  0  0  0  0
   47.3130   31.1080   45.0000 C   0  0  0  0  0  0  0  0  0  0  0  0
   47.3400   30.1920   46.0540 C   0  0  0  0  0  0  0  0  0  0  0  0
   47.0810   30.5890   47.3690 C   0  0  0  0  0  0  0  0  0  0  0  0
   46.7880   31.9200   47.6610 C   0  0  0  0  0  0  0  0  0  0  0  0
   46.7630   32.8030   46.6230 N   0  0  0  0  0  0  0  0  0  0  0  0
   49.0510   34.5900   41.4210 C   0  0  0  0  0  0  0  0  0  0  0  0
   49.1250   33.5080   40.6070 F   0  0  0  0  0  0  0  0  0  0  0  0
   48.8970   35.7770   40.6890 F   0  0  0  0  0  0  0  0  0  0  0  0
   50.2500   34.7710   42.1320 F   0  0  0  0  0  0  0  0  0  0  0  0
   44.7270   36.1610   43.1470 C   0  0  0  0  0  0  0  0  0  0  0  0
   44.0570   36.0020   41.9560 F   0  0  0  0  0  0  0  0  0  0  0  0
   45.1440   37.4780   43.3170 F   0  0  0  0  0  0  0  0  0  0  0  0
   43.8080   35.9360   44.1680 F   0  0  0  0  0  0  0  0  0  0  0  0
   48.8893   32.8168   43.4467 H   0  0  0  0  0  0  0  0  0  0  0  0
   47.5142   30.8168   43.9585 H   0  0  0  0  0  0  0  0  0  0  0  0
   47.5697   29.1367   45.8451 H   0  0  0  0  0  0  0  0  0  0  0  0
   47.1086   29.8456   48.1793 H   0  0  0  0  0  0  0  0  0  0  0  0
   46.5843   32.2460   48.6917 H   0  0  0  0  0  0  0  0  0  0  0  0
  1  2  2  0
  2  3  1  0
  3  7  1  0
  4  3  2  0
  5  4  1  0
  6  1  1  0
  6  5  2  0
  7 12  1  0
  8  7  2  0
  8  9  1  0
  9 10  2  0
 10 11  1  0
 12 11  2  0
 13 16  1  0
 13  1  1  0
 14 13  1  0
 15 13  1  0
 17  5  1  0
 17 19  1  0
 17 20  1  0
 18 17  1  0
  2 21  1  0
  8 22  1  0
  9 23  1  0
 10 24  1  0
 11 25  1  0
M  ISO  5  21  14  22  14  23  14  24  14  25  14
M  END
>  <minimizedAffinity>  (1) 
-5.87145901

>  <minimizedRMSD>  (1) 
1.1464169

$$$$
