
     RDKit          3D

 19 19  0  0  0  0  0  0  0  0999 V2000
   47.8210   34.7730   42.4110 C   0  0  0  0  0  0  0  0  0  0  0  0
   48.0610   33.5280   43.0460 C   0  0  0  0  0  0  0  0  0  0  0  0
   47.0960   33.0880   43.9690 C   0  0  0  0  0  0  0  0  0  0  0  0
   46.0010   33.8660   44.2000 N   0  0  0  0  0  0  0  0  0  0  0  0
   45.8140   35.0370   43.5770 C   0  0  0  0  0  0  0  0  0  0  0  0
   46.7140   35.4740   42.7000 N   0  0  0  0  0  0  0  0  0  0  0  0
   48.8320   35.2520   41.4330 C   0  0  0  0  0  0  0  0  0  0  0  0
   48.3990   35.1370   40.1420 F   0  0  0  0  0  0  0  0  0  0  0  0
   49.1960   36.5500   41.7560 F   0  0  0  0  0  0  0  0  0  0  0  0
   50.0070   34.4930   41.6090 F   0  0  0  0  0  0  0  0  0  0  0  0
   44.6090   35.8670   43.8480 C   0  0  0  0  0  0  0  0  0  0  0  0
   43.6030   35.5990   42.9630 F   0  0  0  0  0  0  0  0  0  0  0  0
   44.9360   37.2240   43.8720 F   0  0  0  0  0  0  0  0  0  0  0  0
   44.1200   35.6190   45.1320 F   0  0  0  0  0  0  0  0  0  0  0  0
   47.2910   31.8040   44.6580 C   0  0  0  0  0  0  0  0  0  0  0  0
   48.9605   32.9340   42.8266 H   0  0  0  0  0  0  0  0  0  0  0  0
   47.2667   31.9643   45.7460 H   0  0  0  0  0  0  0  0  0  0  0  0
   46.4882   31.1086   44.3718 H   0  0  0  0  0  0  0  0  0  0  0  0
   48.2641   31.3784   44.3718 H   0  0  0  0  0  0  0  0  0  0  0  0
  1  6  2  0
  1  2  1  0
  2  3  2  0
  3  4  1  0
  3 15  1  0
  5 11  1  0
  5  4  2  0
  6  5  1  0
  7 10  1  0
  7  9  1  0
  7  1  1  0
  8  7  1  0
 11 13  1  0
 11 14  1  0
 12 11  1  0
  2 16  1  0
 15 17  1  0
 15 18  1  0
 15 19  1  0
M  ISO  4  16  14  17   8  18   8  19   8
M  END
>  <minimizedAffinity>  (1) 
-5.16311836

>  <minimizedRMSD>  (1) 
0.061506059

$$$$
