
     RDKit          3D

 18 18  0  0  0  0  0  0  0  0999 V2000
   47.8440   34.7920   42.4110 C   0  0  0  0  0  0  0  0  0  0  0  0
   48.0980   33.5640   43.0740 C   0  0  0  0  0  0  0  0  0  0  0  0
   47.1400   33.1170   44.0020 C   0  0  0  0  0  0  0  0  0  0  0  0
   46.0310   33.8920   44.2040 N   0  0  0  0  0  0  0  0  0  0  0  0
   45.8230   35.0450   43.5640 C   0  0  0  0  0  0  0  0  0  0  0  0
   46.7280   35.4750   42.6820 N   0  0  0  0  0  0  0  0  0  0  0  0
   48.8660   35.2470   41.4360 C   0  0  0  0  0  0  0  0  0  0  0  0
   48.4170   35.1590   40.1400 F   0  0  0  0  0  0  0  0  0  0  0  0
   49.2190   36.5550   41.7460 F   0  0  0  0  0  0  0  0  0  0  0  0
   50.0300   34.4860   41.6090 F   0  0  0  0  0  0  0  0  0  0  0  0
   44.6060   35.8470   43.8190 C   0  0  0  0  0  0  0  0  0  0  0  0
   43.6220   35.5860   42.9200 F   0  0  0  0  0  0  0  0  0  0  0  0
   44.9210   37.2190   43.8220 F   0  0  0  0  0  0  0  0  0  0  0  0
   44.1130   35.6280   45.0970 F   0  0  0  0  0  0  0  0  0  0  0  0
   47.3530   31.8870   44.6910 N   0  0  0  0  0  0  0  0  0  0  0  0
   49.0097   32.9832   42.8702 H   0  0  0  0  0  0  0  0  0  0  0  0
   46.6574   31.5512   45.3724 H   0  0  0  0  0  0  0  0  0  0  0  0
   48.2025   31.3342   44.5073 H   0  0  0  0  0  0  0  0  0  0  0  0
  1  6  2  0
  1  2  1  0
  2  3  2  0
  3  4  1  0
  3 15  1  0
  5 11  1  0
  5  4  2  0
  6  5  1  0
  7 10  1  0
  7  9  1  0
  7  1  1  0
  8  7  1  0
 11 13  1  0
 11 14  1  0
 12 11  1  0
  2 16  1  0
 15 17  1  0
 15 18  1  0
M  ISO  1  16  14
M  END
>  <minimizedAffinity>  (1) 
-5.14272022

>  <minimizedRMSD>  (1) 
0.0531424209

$$$$
