
     RDKit          3D

 25 26  0  0  1  0  0  0  0  0999 V2000
   47.7560   35.1990   41.7540 C   0  0  2  0  0  0  0  0  0  0  0  0
   45.7390   35.5480   43.1350 C   0  0  0  0  0  0  0  0  0  0  0  0
   46.9270   34.8170   42.8950 C   0  0  0  0  0  0  0  0  0  0  0  0
   47.2430   33.7510   43.7770 C   0  0  0  0  0  0  0  0  0  0  0  0
   46.3780   33.5080   44.7970 N   0  0  0  0  0  0  0  0  0  0  0  0
   45.2710   34.2310   44.9780 C   0  0  0  0  0  0  0  0  0  0  0  0
   44.9530   35.2390   44.1580 N   0  0  0  0  0  0  0  0  0  0  0  0
   47.4790   34.5040   40.4960 C   0  0  0  0  0  0  0  0  0  0  0  0
   48.3140   34.4950   39.3770 C   0  0  0  0  0  0  0  0  0  0  0  0
   47.9290   33.7920   38.2400 C   0  0  0  0  0  0  0  0  0  0  0  0
   46.7060   33.1140   38.2640 C   0  0  0  0  0  0  0  0  0  0  0  0
   45.8970   33.1440   39.3990 C   0  0  0  0  0  0  0  0  0  0  0  0
   46.3100   33.8320   40.4620 N   0  0  0  0  0  0  0  0  0  0  0  0
   49.2030   35.0130   42.1600 C   0  0  0  0  0  0  0  0  0  0  0  0
   47.5134   36.2467   41.5229 H   0  0  0  0  0  0  0  0  0  0  0  0
   45.4653   36.3788   42.4680 H   0  0  0  0  0  0  0  0  0  0  0  0
   48.1514   33.1458   43.6407 H   0  0  0  0  0  0  0  0  0  0  0  0
   44.6050   33.9927   45.8204 H   0  0  0  0  0  0  0  0  0  0  0  0
   49.2694   35.0399   39.3944 H   0  0  0  0  0  0  0  0  0  0  0  0
   48.5694   33.7700   37.3459 H   0  0  0  0  0  0  0  0  0  0  0  0
   46.3788   32.5509   37.3775 H   0  0  0  0  0  0  0  0  0  0  0  0
   44.9357   32.6095   39.4163 H   0  0  0  0  0  0  0  0  0  0  0  0
   49.2776   35.0034   43.2574 H   0  0  0  0  0  0  0  0  0  0  0  0
   49.5767   34.0594   41.7587 H   0  0  0  0  0  0  0  0  0  0  0  0
   49.8058   35.8411   41.7587 H   0  0  0  0  0  0  0  0  0  0  0  0
  1 14  1  0
  1  3  1  0
  2  7  2  0
  3  2  1  0
  3  4  2  0
  4  5  1  0
  5  6  2  0
  7  6  1  0
  8  1  1  0
  9  8  2  0
 10 11  2  0
 10  9  1  0
 11 12  1  0
 12 13  2  0
 13  8  1  0
  1 15  1  6
  2 16  1  0
  4 17  1  0
  6 18  1  0
  9 19  1  0
 10 20  1  0
 11 21  1  0
 12 22  1  0
 14 23  1  0
 14 24  1  0
 14 25  1  0
M  ISO  8  15   8  16  14  17  14  18  14  19  14  20  14  21  14  22  14
M  ISO  3  23   8  24   8  25   8
M  END
>  <minimizedAffinity>  (1) 
-4.36633492

>  <minimizedRMSD>  (1) 
1.53614068

$$$$
