
     RDKit          3D

 46 48  0  0  1  0  0  0  0  0999 V2000
   44.9730   33.3070   38.9140 C   0  0  1  0  0  0  0  0  0  0  0  0
   46.0170   32.9670   37.9630 N   0  0  0  0  0  0  0  0  0  0  0  0
   45.6420   33.1360   36.6150 C   0  0  0  0  0  0  0  0  0  0  0  0
   46.7240   32.3640   35.8170 C   0  0  0  0  0  0  0  0  0  0  0  0
   47.8800   33.2010   35.9230 N   0  0  0  0  0  0  0  0  0  0  0  0
   48.3070   33.5220   37.2440 C   0  0  0  0  0  0  0  0  0  0  0  0
   47.2890   33.4980   38.3270 C   0  0  0  0  0  0  0  0  0  0  0  0
   42.5530   33.1880   38.4550 C   0  0  0  0  0  0  0  0  0  0  0  0
   43.7670   32.5320   38.7660 C   0  0  0  0  0  0  0  0  0  0  0  0
   43.7000   31.1650   38.9160 C   0  0  0  0  0  0  0  0  0  0  0  0
   42.4910   30.5350   38.7580 N   0  0  0  0  0  0  0  0  0  0  0  0
   41.3570   31.1980   38.4600 C   0  0  0  0  0  0  0  0  0  0  0  0
   41.3800   32.5580   38.3050 N   0  0  0  0  0  0  0  0  0  0  0  0
   45.5010   33.0770   40.3410 C   0  0  0  0  0  0  0  0  0  0  0  0
   44.8430   34.0610   41.2950 C   0  0  0  0  0  0  0  0  0  0  0  0
   45.9530   34.9090   41.8860 C   0  0  0  0  0  0  0  0  0  0  0  0
   45.6340   35.4230   43.2630 C   0  0  0  0  0  0  0  0  0  0  0  0
   45.2360   34.3550   44.2360 C   0  0  0  0  0  0  0  0  0  0  0  0
   45.1390   33.0420   43.5020 C   0  0  0  0  0  0  0  0  0  0  0  0
   44.1310   33.2670   42.3690 C   0  0  0  0  0  0  0  0  0  0  0  0
   44.7161   34.3588   38.7200 H   0  0  0  0  0  0  0  0  0  0  0  0
   44.6445   32.7101   36.4316 H   0  0  0  0  0  0  0  0  0  0  0  0
   45.5817   34.1954   36.3251 H   0  0  0  0  0  0  0  0  0  0  0  0
   46.4236   32.2402   34.7661 H   0  0  0  0  0  0  0  0  0  0  0  0
   46.8951   31.3475   36.2011 H   0  0  0  0  0  0  0  0  0  0  0  0
   48.6589   32.7221   35.4489 H   0  0  0  0  0  0  0  0  0  0  0  0
   49.0942   32.8041   37.5178 H   0  0  0  0  0  0  0  0  0  0  0  0
   48.6233   34.5739   37.1847 H   0  0  0  0  0  0  0  0  0  0  0  0
   47.1383   34.5312   38.6732 H   0  0  0  0  0  0  0  0  0  0  0  0
   47.6870   32.8244   39.1002 H   0  0  0  0  0  0  0  0  0  0  0  0
   42.5731   34.2805   38.3288 H   0  0  0  0  0  0  0  0  0  0  0  0
   44.6030   30.5858   39.1591 H   0  0  0  0  0  0  0  0  0  0  0  0
   40.4125   30.6467   38.3412 H   0  0  0  0  0  0  0  0  0  0  0  0
   45.2669   32.0495   40.6564 H   0  0  0  0  0  0  0  0  0  0  0  0
   46.5904   33.2283   40.3554 H   0  0  0  0  0  0  0  0  0  0  0  0
   44.1082   34.7096   40.7957 H   0  0  0  0  0  0  0  0  0  0  0  0
   46.8667   34.2992   41.9430 H   0  0  0  0  0  0  0  0  0  0  0  0
   46.0814   35.7836   41.2313 H   0  0  0  0  0  0  0  0  0  0  0  0
   46.5250   35.9343   43.6562 H   0  0  0  0  0  0  0  0  0  0  0  0
   44.7703   36.0961   43.1589 H   0  0  0  0  0  0  0  0  0  0  0  0
   45.9919   34.2791   45.0315 H   0  0  0  0  0  0  0  0  0  0  0  0
   44.2644   34.6037   44.6877 H   0  0  0  0  0  0  0  0  0  0  0  0
   46.1197   32.7600   43.0912 H   0  0  0  0  0  0  0  0  0  0  0  0
   44.8202   32.2285   44.1703 H   0  0  0  0  0  0  0  0  0  0  0  0
   43.2627   33.8300   42.7420 H   0  0  0  0  0  0  0  0  0  0  0  0
   43.7661   32.3083   41.9718 H   0  0  0  0  0  0  0  0  0  0  0  0
  1 14  1  0
  2  7  1  0
  2  1  1  0
  3  2  1  0
  4  5  1  0
  4  3  1  0
  5  6  1  0
  6  7  1  0
  8  9  2  0
  9  1  1  0
  9 10  1  0
 11 10  2  0
 12 11  1  0
 13  8  1  0
 13 12  2  0
 14 15  1  0
 15 16  1  0
 15 20  1  0
 16 17  1  0
 17 18  1  0
 19 18  1  0
 20 19  1  0
  1 21  1  1
  3 22  1  0
  3 23  1  0
  4 24  1  0
  4 25  1  0
  5 26  1  0
  6 27  1  0
  6 28  1  0
  7 29  1  0
  7 30  1  0
  8 31  1  0
 10 32  1  0
 12 33  1  0
 14 34  1  0
 14 35  1  0
 15 36  1  0
 16 37  1  0
 16 38  1  0
 17 39  1  0
 17 40  1  0
 18 41  1  0
 18 42  1  0
 19 43  1  0
 19 44  1  0
 20 45  1  0
 20 46  1  0
M  ISO  8  21   8  22  13  23  13  24  13  25  13  26   5  27  13  28  13
M  ISO  8  29  13  30  13  31  14  32  14  33  14  34   8  35   8  36  13
M  ISO  8  37  13  38  13  39  13  40  13  41  13  42  13  43  13  44  13
M  ISO  2  45  13  46  13
M  END
>  <minimizedAffinity>  (1) 
-3.7667098

>  <minimizedRMSD>  (1) 
5.45479774

$$$$
