
     RDKit          3D

 31 32  0  0  1  0  0  0  0  0999 V2000
   46.8570   35.0280   41.8000 C   0  0  1  0  0  0  0  0  0  0  0  0
   46.4710   34.0620   40.8220 N   0  0  0  0  0  0  0  0  0  0  0  0
   45.1030   34.0510   40.4900 C   0  0  0  0  0  0  0  0  0  0  0  0
   44.8500   32.6880   39.8260 C   0  0  0  0  0  0  0  0  0  0  0  0
   45.5160   32.8170   38.5510 N   0  0  0  0  0  0  0  0  0  0  0  0
   46.8940   33.0900   38.6030 C   0  0  0  0  0  0  0  0  0  0  0  0
   47.3830   33.9280   39.7570 C   0  0  0  0  0  0  0  0  0  0  0  0
   45.2380   36.0740   43.3660 C   0  0  0  0  0  0  0  0  0  0  0  0
   46.1350   35.0290   43.0480 C   0  0  0  0  0  0  0  0  0  0  0  0
   46.3090   34.0210   43.9690 C   0  0  0  0  0  0  0  0  0  0  0  0
   45.6050   34.0760   45.1440 N   0  0  0  0  0  0  0  0  0  0  0  0
   44.7490   35.0910   45.4260 C   0  0  0  0  0  0  0  0  0  0  0  0
   44.5590   36.0990   44.5350 N   0  0  0  0  0  0  0  0  0  0  0  0
   48.3530   34.9760   42.0890 C   0  0  0  0  0  0  0  0  0  0  0  0
   49.0380   36.0930   41.7390 O   0  0  0  0  0  0  0  0  0  0  0  0
   46.5777   35.9714   41.3081 H   0  0  0  0  0  0  0  0  0  0  0  0
   44.4873   34.1573   41.3953 H   0  0  0  0  0  0  0  0  0  0  0  0
   44.8394   34.8844   39.8222 H   0  0  0  0  0  0  0  0  0  0  0  0
   45.2879   31.8720   40.4196 H   0  0  0  0  0  0  0  0  0  0  0  0
   43.7815   32.4435   39.7333 H   0  0  0  0  0  0  0  0  0  0  0  0
   45.0618   33.5832   38.0338 H   0  0  0  0  0  0  0  0  0  0  0  0
   47.4218   32.1259   38.6460 H   0  0  0  0  0  0  0  0  0  0  0  0
   47.0999   33.6920   37.7056 H   0  0  0  0  0  0  0  0  0  0  0  0
   48.3010   33.4662   40.1495 H   0  0  0  0  0  0  0  0  0  0  0  0
   47.5409   34.9406   39.3573 H   0  0  0  0  0  0  0  0  0  0  0  0
   45.0882   36.8892   42.6427 H   0  0  0  0  0  0  0  0  0  0  0  0
   46.9988   33.1884   43.7664 H   0  0  0  0  0  0  0  0  0  0  0  0
   44.2055   35.0975   46.3823 H   0  0  0  0  0  0  0  0  0  0  0  0
   48.4878   34.8160   43.1689 H   0  0  0  0  0  0  0  0  0  0  0  0
   48.7591   34.1582   41.4757 H   0  0  0  0  0  0  0  0  0  0  0  0
   49.3306   36.5701   42.5556 H   0  0  0  0  0  0  0  0  0  0  0  0
  1 14  1  0
  1  9  1  0
  2  1  1  0
  3  2  1  0
  4  3  1  0
  5  6  1  0
  5  4  1  0
  6  7  1  0
  7  2  1  0
  8 13  2  0
  9  8  1  0
  9 10  2  0
 10 11  1  0
 11 12  2  0
 13 12  1  0
 15 14  1  0
  1 16  1  6
  3 17  1  0
  3 18  1  0
  4 19  1  0
  4 20  1  0
  5 21  1  0
  6 22  1  0
  6 23  1  0
  7 24  1  0
  7 25  1  0
  8 26  1  0
 10 27  1  0
 12 28  1  0
 14 29  1  0
 14 30  1  0
 15 31  1  0
M  ISO  8  16   8  17  13  18  13  19  13  20  13  21   5  22  13  23  13
M  ISO  8  24  13  25  13  26  14  27  14  28  14  29   8  30   8  31   3
M  END
>  <minimizedAffinity>  (1) 
-4.14578056

>  <minimizedRMSD>  (1) 
0.287302911

$$$$
