
     RDKit          3D

 43 45  0  0  0  0  0  0  0  0999 V2000
   46.3590   33.2370   46.2930 C   0  0  0  0  0  0  0  0  0  0  0  0
   45.9460   32.2340   47.2680 C   0  0  0  0  0  0  0  0  0  0  0  0
   45.8900   32.3200   48.6420 C   0  0  0  0  0  0  0  0  0  0  0  0
   45.4760   31.3180   49.4560 C   0  0  0  0  0  0  0  0  0  0  0  0
   45.0860   30.1420   48.8870 C   0  0  0  0  0  0  0  0  0  0  0  0
   45.1310   30.0270   47.5150 C   0  0  0  0  0  0  0  0  0  0  0  0
   45.5570   31.0600   46.6990 C   0  0  0  0  0  0  0  0  0  0  0  0
   46.7160   30.0920   44.8140 C   0  0  0  0  0  0  0  0  0  0  0  0
   47.9580   29.9790   45.1250 O   0  0  0  0  0  0  0  0  0  0  0  0
   45.4820   30.5660   45.3610 N   0  0  0  0  0  0  0  0  0  0  0  0
   45.2390   34.1880   45.9670 C   0  0  0  0  0  0  0  0  0  0  0  0
   44.6210   35.7780   42.7340 C   0  0  0  0  0  0  0  0  0  0  0  0
   45.7280   35.3660   41.9600 C   0  0  0  0  0  0  0  0  0  0  0  0
   46.6580   34.5400   42.6110 C   0  0  0  0  0  0  0  0  0  0  0  0
   46.4710   34.1890   43.8800 N   0  0  0  0  0  0  0  0  0  0  0  0
   45.3820   34.6220   44.5650 C   0  0  0  0  0  0  0  0  0  0  0  0
   44.4790   35.3920   44.0190 N   0  0  0  0  0  0  0  0  0  0  0  0
   47.8770   34.0410   41.8850 C   0  0  0  0  0  0  0  0  0  0  0  0
   49.0860   34.6630   42.5120 C   0  0  0  0  0  0  0  0  0  0  0  0
   50.2020   33.6430   42.4460 C   0  0  0  0  0  0  0  0  0  0  0  0
   49.4530   32.3430   42.6380 C   0  0  0  0  0  0  0  0  0  0  0  0
   48.0590   32.5760   42.1080 C   0  0  0  0  0  0  0  0  0  0  0  0
   47.2038   33.8085   46.7050 H   0  0  0  0  0  0  0  0  0  0  0  0
   46.6494   32.7178   45.3677 H   0  0  0  0  0  0  0  0  0  0  0  0
   46.2022   33.2653   49.1100 H   0  0  0  0  0  0  0  0  0  0  0  0
   45.4553   31.4505   50.5478 H   0  0  0  0  0  0  0  0  0  0  0  0
   44.7428   29.3030   49.5101 H   0  0  0  0  0  0  0  0  0  0  0  0
   44.8170   29.0801   47.0516 H   0  0  0  0  0  0  0  0  0  0  0  0
   46.5477   29.6971   43.8012 H   0  0  0  0  0  0  0  0  0  0  0  0
   44.6012   30.5520   44.8273 H   0  0  0  0  0  0  0  0  0  0  0  0
   44.2719   33.6812   46.1010 H   0  0  0  0  0  0  0  0  0  0  0  0
   45.2805   35.0602   46.6360 H   0  0  0  0  0  0  0  0  0  0  0  0
   43.8583   36.4274   42.2796 H   0  0  0  0  0  0  0  0  0  0  0  0
   45.8539   35.6734   40.9114 H   0  0  0  0  0  0  0  0  0  0  0  0
   47.7563   34.2787   40.8178 H   0  0  0  0  0  0  0  0  0  0  0  0
   49.3720   35.5702   41.9596 H   0  0  0  0  0  0  0  0  0  0  0  0
   48.8808   34.9490   43.5542 H   0  0  0  0  0  0  0  0  0  0  0  0
   50.7112   33.6705   41.4714 H   0  0  0  0  0  0  0  0  0  0  0  0
   50.9984   33.8090   43.1864 H   0  0  0  0  0  0  0  0  0  0  0  0
   49.9437   31.5341   42.0769 H   0  0  0  0  0  0  0  0  0  0  0  0
   49.4340   32.0447   43.6966 H   0  0  0  0  0  0  0  0  0  0  0  0
   47.3192   32.2169   42.8386 H   0  0  0  0  0  0  0  0  0  0  0  0
   47.9182   32.0301   41.1634 H   0  0  0  0  0  0  0  0  0  0  0  0
  1  2  1  0
  2  3  2  0
  3  4  1  0
  5  4  2  0
  6  5  1  0
  7  2  1  0
  7  6  2  0
  8  9  2  0
  8 10  1  0
 10  7  1  0
 11  1  1  0
 12 17  2  0
 13 14  2  0
 13 12  1  0
 14 15  1  0
 15 16  2  0
 16 11  1  0
 17 16  1  0
 18 22  1  0
 18 19  1  0
 18 14  1  0
 20 19  1  0
 20 21  1  0
 22 21  1  0
  1 23  1  0
  1 24  1  0
  3 25  1  0
  4 26  1  0
  5 27  1  0
  6 28  1  0
  8 29  1  0
 10 30  1  0
 11 31  1  0
 11 32  1  0
 12 33  1  0
 13 34  1  0
 18 35  1  0
 19 36  1  0
 19 37  1  0
 20 38  1  0
 20 39  1  0
 21 40  1  0
 21 41  1  0
 22 42  1  0
 22 43  1  0
M  ISO  8  23   8  24   8  25  14  26  14  27  14  28  14  29   6  31   8
M  ISO  8  32   8  33  14  34  14  35  13  36  13  37  13  38  13  39  13
M  ISO  4  40  13  41  13  42  13  43  13
M  END
>  <minimizedAffinity>  (1) 
-5.68358755

>  <minimizedRMSD>  (1) 
2.2294755

$$$$
