
     RDKit          3D

 45 48  0  0  1  0  0  0  0  0999 V2000
   45.6930   33.5560   42.3570 C   0  0  1  0  0  0  0  0  0  0  0  0
   46.9030   33.8870   41.6530 N   0  0  0  0  0  0  0  0  0  0  0  0
   46.7340   33.9440   40.2500 C   0  0  0  0  0  0  0  0  0  0  0  0
   48.1590   33.8960   39.6700 C   0  0  0  0  0  0  0  0  0  0  0  0
   48.6820   35.2010   39.9800 N   0  0  0  0  0  0  0  0  0  0  0  0
   48.7310   35.4730   41.3620 C   0  0  0  0  0  0  0  0  0  0  0  0
   47.5130   35.0420   42.1650 C   0  0  0  0  0  0  0  0  0  0  0  0
   44.0440   35.3440   41.8190 C   0  0  0  0  0  0  0  0  0  0  0  0
   44.4700   34.0320   41.7920 C   0  0  0  0  0  0  0  0  0  0  0  0
   43.6060   33.1240   41.1500 C   0  0  0  0  0  0  0  0  0  0  0  0
   42.4340   33.5720   40.6040 N   0  0  0  0  0  0  0  0  0  0  0  0
   42.0840   34.8830   40.6720 C   0  0  0  0  0  0  0  0  0  0  0  0
   42.8950   35.7690   41.2820 N   0  0  0  0  0  0  0  0  0  0  0  0
   45.5970   32.0300   42.4890 C   0  0  0  0  0  0  0  0  0  0  0  0
   46.4650   31.4210   43.4410 C   0  0  0  0  0  0  0  0  0  0  0  0
   47.6160   30.7060   43.4430 C   0  0  0  0  0  0  0  0  0  0  0  0
   48.2940   30.1910   44.5310 C   0  0  0  0  0  0  0  0  0  0  0  0
   47.7480   30.4280   45.7130 N   0  0  0  0  0  0  0  0  0  0  0  0
   46.6310   31.1140   45.8060 C   0  0  0  0  0  0  0  0  0  0  0  0
   46.0430   31.5740   44.7160 N   0  0  0  0  0  0  0  0  0  0  0  0
   46.1130   31.3190   47.1680 C   0  0  0  0  0  0  0  0  0  0  0  0
   45.2100   30.4670   47.7810 C   0  0  0  0  0  0  0  0  0  0  0  0
   45.0000   31.0360   49.0420 C   0  0  0  0  0  0  0  0  0  0  0  0
   45.7800   32.1860   49.1120 C   0  0  0  0  0  0  0  0  0  0  0  0
   46.3980   32.2780   47.9770 O   0  0  0  0  0  0  0  0  0  0  0  0
   45.7864   34.0765   43.3215 H   0  0  0  0  0  0  0  0  0  0  0  0
   46.1447   33.0848   39.8972 H   0  0  0  0  0  0  0  0  0  0  0  0
   46.1930   34.8493   39.9373 H   0  0  0  0  0  0  0  0  0  0  0  0
   48.1375   33.7272   38.5832 H   0  0  0  0  0  0  0  0  0  0  0  0
   48.7666   33.0774   40.0832 H   0  0  0  0  0  0  0  0  0  0  0  0
   49.6371   35.2681   39.6004 H   0  0  0  0  0  0  0  0  0  0  0  0
   49.6089   34.9561   41.7768 H   0  0  0  0  0  0  0  0  0  0  0  0
   48.7742   36.5687   41.4496 H   0  0  0  0  0  0  0  0  0  0  0  0
   46.7784   35.8607   42.1553 H   0  0  0  0  0  0  0  0  0  0  0  0
   47.8545   34.8109   43.1848 H   0  0  0  0  0  0  0  0  0  0  0  0
   44.6888   36.0861   42.3124 H   0  0  0  0  0  0  0  0  0  0  0  0
   43.8723   32.0585   41.0877 H   0  0  0  0  0  0  0  0  0  0  0  0
   41.1363   35.2217   40.2280 H   0  0  0  0  0  0  0  0  0  0  0  0
   44.5633   31.7829   42.7724 H   0  0  0  0  0  0  0  0  0  0  0  0
   45.9089   31.6318   41.5122 H   0  0  0  0  0  0  0  0  0  0  0  0
   48.0655   30.5119   42.4580 H   0  0  0  0  0  0  0  0  0  0  0  0
   49.2281   29.6204   44.4218 H   0  0  0  0  0  0  0  0  0  0  0  0
   44.7600   29.5512   47.3702 H   0  0  0  0  0  0  0  0  0  0  0  0
   44.3406   30.6464   49.8315 H   0  0  0  0  0  0  0  0  0  0  0  0
   45.8568   32.8796   49.9623 H   0  0  0  0  0  0  0  0  0  0  0  0
  1 14  1  0
  2  7  1  0
  2  1  1  0
  3  2  1  0
  4  5  1  0
  4  3  1  0
  5  6  1  0
  6  7  1  0
  9  8  2  0
  9  1  1  0
 10  9  1  0
 11 12  1  0
 11 10  2  0
 12 13  2  0
 13  8  1  0
 14 15  1  0
 15 16  2  0
 15 20  1  0
 16 17  1  0
 17 18  2  0
 18 19  1  0
 19 21  1  0
 20 19  2  0
 21 22  2  0
 21 25  1  0
 22 23  1  0
 23 24  2  0
 25 24  1  0
  1 26  1  1
  3 27  1  0
  3 28  1  0
  4 29  1  0
  4 30  1  0
  5 31  1  0
  6 32  1  0
  6 33  1  0
  7 34  1  0
  7 35  1  0
  8 36  1  0
 10 37  1  0
 12 38  1  0
 14 39  1  0
 14 40  1  0
 16 41  1  0
 17 42  1  0
 22 43  1  0
 23 44  1  0
 24 45  1  0
M  ISO  8  26   8  27  13  28  13  29  13  30  13  31   5  32  13  33  13
M  ISO  8  34  13  35  13  36  14  37  14  38  14  39   8  40   8  41  14
M  ISO  4  42  14  43  14  44  14  45  14
M  END
>  <minimizedAffinity>  (1) 
-5.42925119

>  <minimizedRMSD>  (1) 
5.80681372

$$$$
