
     RDKit          3D

 51 54  0  0  1  0  0  0  0  0999 V2000
   46.3880   32.6550   40.6440 C   0  0  1  0  0  0  0  0  0  0  0  0
   46.0780   33.5420   41.7340 N   0  0  0  0  0  0  0  0  0  0  0  0
   45.0820   34.4940   41.4080 C   0  0  0  0  0  0  0  0  0  0  0  0
   45.1800   35.5710   42.5020 C   0  0  0  0  0  0  0  0  0  0  0  0
   44.6360   34.9150   43.6620 N   0  0  0  0  0  0  0  0  0  0  0  0
   45.3520   33.7670   44.0460 C   0  0  0  0  0  0  0  0  0  0  0  0
   45.7950   32.8460   42.9190 C   0  0  0  0  0  0  0  0  0  0  0  0
   46.7420   32.8570   38.1830 C   0  0  0  0  0  0  0  0  0  0  0  0
   46.9920   33.2380   39.4890 C   0  0  0  0  0  0  0  0  0  0  0  0
   47.9190   34.2870   39.6520 C   0  0  0  0  0  0  0  0  0  0  0  0
   48.5050   34.8560   38.5530 N   0  0  0  0  0  0  0  0  0  0  0  0
   48.2080   34.4240   37.3000 C   0  0  0  0  0  0  0  0  0  0  0  0
   47.3290   33.4280   37.1210 N   0  0  0  0  0  0  0  0  0  0  0  0
   47.3150   31.5440   41.1570 C   0  0  0  0  0  0  0  0  0  0  0  0
   48.6840   31.8960   41.3410 C   0  0  0  0  0  0  0  0  0  0  0  0
   49.4280   32.6310   42.1990 C   0  0  0  0  0  0  0  0  0  0  0  0
   50.7930   32.8490   42.1770 C   0  0  0  0  0  0  0  0  0  0  0  0
   51.4450   32.2600   41.1880 N   0  0  0  0  0  0  0  0  0  0  0  0
   50.8040   31.5260   40.3070 C   0  0  0  0  0  0  0  0  0  0  0  0
   49.4960   31.3660   40.3980 N   0  0  0  0  0  0  0  0  0  0  0  0
   50.9650   31.2570   37.8620 C   0  0  2  0  0  0  0  0  0  0  0  0
   51.6130   30.8820   39.2020 C   0  0  1  0  0  0  0  0  0  0  0  0
   52.8540   31.4400   39.0470 O   0  0  0  0  0  0  0  0  0  0  0  0
   53.2690   30.8840   37.8430 C   0  0  0  0  0  0  0  0  0  0  0  0
   52.0830   30.8600   36.9190 C   0  0  1  0  0  0  0  0  0  0  0  0
   50.8570   32.6400   37.8170 O   0  0  0  0  0  0  0  0  0  0  0  0
   51.7880   29.5480   36.4830 O   0  0  0  0  0  0  0  0  0  0  0  0
   45.4076   32.2914   40.3025 H   0  0  0  0  0  0  0  0  0  0  0  0
   45.2760   34.9315   40.4176 H   0  0  0  0  0  0  0  0  0  0  0  0
   44.0800   34.0422   41.3644 H   0  0  0  0  0  0  0  0  0  0  0  0
   46.2258   35.8671   42.6709 H   0  0  0  0  0  0  0  0  0  0  0  0
   44.6477   36.4980   42.2424 H   0  0  0  0  0  0  0  0  0  0  0  0
   44.6440   35.5817   44.4471 H   0  0  0  0  0  0  0  0  0  0  0  0
   46.2529   34.0972   44.5839 H   0  0  0  0  0  0  0  0  0  0  0  0
   44.6542   33.1738   44.6552 H   0  0  0  0  0  0  0  0  0  0  0  0
   44.9914   32.1219   42.7191 H   0  0  0  0  0  0  0  0  0  0  0  0
   46.7203   32.3460   43.2412 H   0  0  0  0  0  0  0  0  0  0  0  0
   46.0239   32.0427   38.0062 H   0  0  0  0  0  0  0  0  0  0  0  0
   48.1712   34.6479   40.6600 H   0  0  0  0  0  0  0  0  0  0  0  0
   48.6902   34.8929   36.4296 H   0  0  0  0  0  0  0  0  0  0  0  0
   46.9238   31.2029   42.1268 H   0  0  0  0  0  0  0  0  0  0  0  0
   47.3139   30.7756   40.3699 H   0  0  0  0  0  0  0  0  0  0  0  0
   48.8771   33.1167   43.0179 H   0  0  0  0  0  0  0  0  0  0  0  0
   51.3017   33.4692   42.9297 H   0  0  0  0  0  0  0  0  0  0  0  0
   49.9795   30.8106   37.6632 H   0  0  0  0  0  0  0  0  0  0  0  0
   51.6632   29.8129   39.4560 H   0  0  0  0  0  0  0  0  0  0  0  0
   54.0727   31.4944   37.4055 H   0  0  0  0  0  0  0  0  0  0  0  0
   53.6556   29.8664   38.0010 H   0  0  0  0  0  0  0  0  0  0  0  0
   52.2345   31.4850   36.0266 H   0  0  0  0  0  0  0  0  0  0  0  0
   50.8290   32.9990   38.7392 H   0  0  0  0  0  0  0  0  0  0  0  0
   51.6560   28.9609   37.2691 H   0  0  0  0  0  0  0  0  0  0  0  0
  1 14  1  0
  1  2  1  0
  2  7  1  0
  3  2  1  0
  3  4  1  0
  4  5  1  0
  5  6  1  0
  7  6  1  0
  8  9  2  0
  9 10  1  0
  9  1  1  0
 11 10  2  0
 12 11  1  0
 13 12  2  0
 13  8  1  0
 14 15  1  0
 15 16  2  0
 17 16  1  0
 18 17  2  0
 19 20  2  0
 19 18  1  0
 20 15  1  0
 21 26  1  0
 21 22  1  0
 22 19  1  0
 23 22  1  0
 24 23  1  0
 25 27  1  0
 25 24  1  0
 25 21  1  0
  1 28  1  6
  3 29  1  0
  3 30  1  0
  4 31  1  0
  4 32  1  0
  5 33  1  0
  6 34  1  0
  6 35  1  0
  7 36  1  0
  7 37  1  0
  8 38  1  0
 10 39  1  0
 12 40  1  0
 14 41  1  0
 14 42  1  0
 16 43  1  0
 17 44  1  0
 21 45  1  6
 22 46  1  1
 24 47  1  0
 24 48  1  0
 25 49  1  6
 26 50  1  0
 27 51  1  0
M  ISO  8  28   8  29  13  30  13  31  13  32  13  33   5  34  13  35  13
M  ISO  8  36  13  37  13  38  14  39  14  40  14  41   8  42   8  43  14
M  ISO  8  44  14  45  13  46  13  47  13  48  13  49  13  50   3  51   3
M  END
>  <minimizedAffinity>  (1) 
-5.06021118

>  <minimizedRMSD>  (1) 
4.14176369

$$$$
