
     RDKit          3D

 54 57  0  0  1  0  0  0  0  0999 V2000
   45.9670   32.8100   42.1170 C   0  0  1  0  0  0  0  0  0  0  0  0
   45.2620   34.0330   42.3920 N   0  0  0  0  0  0  0  0  0  0  0  0
   43.9270   34.0240   41.9160 C   0  0  0  0  0  0  0  0  0  0  0  0
   43.4830   35.4980   41.9400 C   0  0  0  0  0  0  0  0  0  0  0  0
   43.3120   35.7580   43.3470 N   0  0  0  0  0  0  0  0  0  0  0  0
   44.4990   35.6100   44.0890 C   0  0  0  0  0  0  0  0  0  0  0  0
   45.3440   34.3920   43.7470 C   0  0  0  0  0  0  0  0  0  0  0  0
   46.9490   31.5310   40.2190 C   0  0  0  0  0  0  0  0  0  0  0  0
   46.6100   32.7160   40.8430 C   0  0  0  0  0  0  0  0  0  0  0  0
   46.9350   33.8940   40.1440 C   0  0  0  0  0  0  0  0  0  0  0  0
   47.5500   33.8090   38.9240 N   0  0  0  0  0  0  0  0  0  0  0  0
   47.8550   32.6180   38.3690 C   0  0  0  0  0  0  0  0  0  0  0  0
   47.5520   31.4670   39.0240 N   0  0  0  0  0  0  0  0  0  0  0  0
   47.0260   32.5900   43.2050 C   0  0  0  0  0  0  0  0  0  0  0  0
   48.3270   33.1120   42.9370 C   0  0  0  0  0  0  0  0  0  0  0  0
   48.9470   34.3160   42.9340 C   0  0  0  0  0  0  0  0  0  0  0  0
   50.2630   34.5920   42.6190 C   0  0  0  0  0  0  0  0  0  0  0  0
   51.0050   33.5470   42.2770 N   0  0  0  0  0  0  0  0  0  0  0  0
   50.4840   32.3410   42.2530 C   0  0  0  0  0  0  0  0  0  0  0  0
   49.2120   32.1570   42.5680 N   0  0  0  0  0  0  0  0  0  0  0  0
   51.4120   31.2350   41.8520 C   0  0  0  0  0  0  0  0  0  0  0  0
   52.0530   31.6870   40.5790 C   0  0  0  0  0  0  0  0  0  0  0  0
   51.3080   31.2990   39.3340 C   0  0  0  0  0  0  0  0  0  0  0  0
   51.2730   29.7660   39.3640 C   0  0  0  0  0  0  0  0  0  0  0  0
   50.3230   29.4130   40.4790 C   0  0  0  0  0  0  0  0  0  0  0  0
   50.7430   29.9220   41.8170 C   0  0  0  0  0  0  0  0  0  0  0  0
   45.1842   32.0373   42.1054 H   0  0  0  0  0  0  0  0  0  0  0  0
   43.2868   33.4170   42.5730 H   0  0  0  0  0  0  0  0  0  0  0  0
   43.8512   33.5869   40.9094 H   0  0  0  0  0  0  0  0  0  0  0  0
   44.2551   36.1513   41.5075 H   0  0  0  0  0  0  0  0  0  0  0  0
   42.5752   35.6887   41.3488 H   0  0  0  0  0  0  0  0  0  0  0  0
   42.9728   36.7237   43.4621 H   0  0  0  0  0  0  0  0  0  0  0  0
   45.1151   36.5060   43.9230 H   0  0  0  0  0  0  0  0  0  0  0  0
   44.1839   35.4722   45.1338 H   0  0  0  0  0  0  0  0  0  0  0  0
   44.9995   33.5435   44.3564 H   0  0  0  0  0  0  0  0  0  0  0  0
   46.3928   34.6482   43.9577 H   0  0  0  0  0  0  0  0  0  0  0  0
   46.7107   30.5874   40.7317 H   0  0  0  0  0  0  0  0  0  0  0  0
   46.6961   34.8771   40.5757 H   0  0  0  0  0  0  0  0  0  0  0  0
   48.3487   32.5787   37.3868 H   0  0  0  0  0  0  0  0  0  0  0  0
   46.6598   33.0612   44.1290 H   0  0  0  0  0  0  0  0  0  0  0  0
   47.1558   31.4997   43.2712 H   0  0  0  0  0  0  0  0  0  0  0  0
   48.3268   35.1793   43.2169 H   0  0  0  0  0  0  0  0  0  0  0  0
   50.6700   35.6135   42.6498 H   0  0  0  0  0  0  0  0  0  0  0  0
   52.2013   31.0517   42.5960 H   0  0  0  0  0  0  0  0  0  0  0  0
   52.1315   32.7839   40.6045 H   0  0  0  0  0  0  0  0  0  0  0  0
   53.0312   31.1866   40.5267 H   0  0  0  0  0  0  0  0  0  0  0  0
   51.8360   31.6576   38.4381 H   0  0  0  0  0  0  0  0  0  0  0  0
   50.3000   31.7380   39.2979 H   0  0  0  0  0  0  0  0  0  0  0  0
   50.9066   29.3699   38.4054 H   0  0  0  0  0  0  0  0  0  0  0  0
   52.2725   29.3355   39.5244 H   0  0  0  0  0  0  0  0  0  0  0  0
   49.3368   29.8382   40.2410 H   0  0  0  0  0  0  0  0  0  0  0  0
   50.3053   28.3152   40.5469 H   0  0  0  0  0  0  0  0  0  0  0  0
   49.8417   29.9916   42.4438 H   0  0  0  0  0  0  0  0  0  0  0  0
   51.4990   29.2059   42.1714 H   0  0  0  0  0  0  0  0  0  0  0  0
  1  2  1  0
  1 14  1  0
  2  7  1  0
  3  4  1  0
  3  2  1  0
  4  5  1  0
  5  6  1  0
  7  6  1  0
  8  9  2  0
  9  1  1  0
 10  9  1  0
 11 10  2  0
 12 11  1  0
 12 13  2  0
 13  8  1  0
 15 14  1  0
 16 15  2  0
 17 16  1  0
 18 17  2  0
 19 18  1  0
 19 20  2  0
 20 15  1  0
 21 19  1  0
 22 21  1  0
 23 24  1  0
 23 22  1  0
 24 25  1  0
 25 26  1  0
 26 21  1  0
  1 27  1  6
  3 28  1  0
  3 29  1  0
  4 30  1  0
  4 31  1  0
  5 32  1  0
  6 33  1  0
  6 34  1  0
  7 35  1  0
  7 36  1  0
  8 37  1  0
 10 38  1  0
 12 39  1  0
 14 40  1  0
 14 41  1  0
 16 42  1  0
 17 43  1  0
 21 44  1  0
 22 45  1  0
 22 46  1  0
 23 47  1  0
 23 48  1  0
 24 49  1  0
 24 50  1  0
 25 51  1  0
 25 52  1  0
 26 53  1  0
 26 54  1  0
M  ISO  8  27   8  28  13  29  13  30  13  31  13  32   5  33  13  34  13
M  ISO  8  35  13  36  13  37  14  38  14  39  14  40   8  41   8  42  14
M  ISO  8  43  14  44  13  45  13  46  13  47  13  48  13  49  13  50  13
M  ISO  4  51  13  52  13  53  13  54  13
M  END
>  <minimizedAffinity>  (1) 
-5.00415993

>  <minimizedRMSD>  (1) 
2.5662868

$$$$
