
     RDKit          3D

 40 42  0  0  1  0  0  0  0  0999 V2000
   46.1610   32.3040   40.0350 C   0  0  1  0  0  0  0  0  0  0  0  0
   45.0050   33.1580   39.9650 N   0  0  0  0  0  0  0  0  0  0  0  0
   44.0880   32.7780   38.9530 C   0  0  0  0  0  0  0  0  0  0  0  0
   43.1600   33.9890   38.7730 C   0  0  0  0  0  0  0  0  0  0  0  0
   42.3500   33.9580   39.9640 N   0  0  0  0  0  0  0  0  0  0  0  0
   43.1000   34.1080   41.1450 C   0  0  0  0  0  0  0  0  0  0  0  0
   44.3960   33.3170   41.2180 C   0  0  0  0  0  0  0  0  0  0  0  0
   48.2180   31.6650   38.7830 C   0  0  0  0  0  0  0  0  0  0  0  0
   47.1910   32.5420   39.0700 C   0  0  0  0  0  0  0  0  0  0  0  0
   47.1880   33.7460   38.3380 C   0  0  0  0  0  0  0  0  0  0  0  0
   48.1700   33.9780   37.4130 N   0  0  0  0  0  0  0  0  0  0  0  0
   49.1470   33.0750   37.1840 C   0  0  0  0  0  0  0  0  0  0  0  0
   49.1720   31.9080   37.8740 N   0  0  0  0  0  0  0  0  0  0  0  0
   46.7810   32.4180   41.4310 C   0  0  0  0  0  0  0  0  0  0  0  0
   47.6760   33.5100   41.6420 C   0  0  0  0  0  0  0  0  0  0  0  0
   47.6440   34.8620   41.5870 C   0  0  0  0  0  0  0  0  0  0  0  0
   48.6790   35.7450   41.8310 C   0  0  0  0  0  0  0  0  0  0  0  0
   49.8410   35.1960   42.1580 N   0  0  0  0  0  0  0  0  0  0  0  0
   49.9590   33.8910   42.2340 C   0  0  0  0  0  0  0  0  0  0  0  0
   48.9200   33.1150   41.9860 N   0  0  0  0  0  0  0  0  0  0  0  0
   51.2600   33.4020   42.5960 N   0  0  0  0  0  0  0  0  0  0  0  0
   45.7745   31.2995   39.8080 H   0  0  0  0  0  0  0  0  0  0  0  0
   44.6187   32.5563   38.0154 H   0  0  0  0  0  0  0  0  0  0  0  0
   43.5299   31.8698   39.2246 H   0  0  0  0  0  0  0  0  0  0  0  0
   43.7371   34.9234   38.7119 H   0  0  0  0  0  0  0  0  0  0  0  0
   42.5689   33.9476   37.8462 H   0  0  0  0  0  0  0  0  0  0  0  0
   41.6623   34.7231   39.9129 H   0  0  0  0  0  0  0  0  0  0  0  0
   43.3501   35.1739   41.2514 H   0  0  0  0  0  0  0  0  0  0  0  0
   42.4653   33.7111   41.9510 H   0  0  0  0  0  0  0  0  0  0  0  0
   44.1777   32.3215   41.6319 H   0  0  0  0  0  0  0  0  0  0  0  0
   45.0928   33.8796   41.8567 H   0  0  0  0  0  0  0  0  0  0  0  0
   48.2552   30.7125   39.3319 H   0  0  0  0  0  0  0  0  0  0  0  0
   46.4010   34.4953   38.5089 H   0  0  0  0  0  0  0  0  0  0  0  0
   49.9249   33.2865   36.4356 H   0  0  0  0  0  0  0  0  0  0  0  0
   45.9587   32.5148   42.1552 H   0  0  0  0  0  0  0  0  0  0  0  0
   47.3925   31.5119   41.5534 H   0  0  0  0  0  0  0  0  0  0  0  0
   46.6779   35.3123   41.3154 H   0  0  0  0  0  0  0  0  0  0  0  0
   48.5471   36.8347   41.7585 H   0  0  0  0  0  0  0  0  0  0  0  0
   51.4257   32.3885   42.6747 H   0  0  0  0  0  0  0  0  0  0  0  0
   52.0273   34.0648   42.7769 H   0  0  0  0  0  0  0  0  0  0  0  0
  1 14  1  0
  2  1  1  0
  2  7  1  0
  3  2  1  0
  4  3  1  0
  4  5  1  0
  5  6  1  0
  6  7  1  0
  8  9  2  0
  9  1  1  0
 10  9  1  0
 11 10  2  0
 12 11  1  0
 12 13  2  0
 13  8  1  0
 14 15  1  0
 15 20  1  0
 16 15  2  0
 16 17  1  0
 17 18  2  0
 18 19  1  0
 19 21  1  0
 20 19  2  0
  1 22  1  6
  3 23  1  0
  3 24  1  0
  4 25  1  0
  4 26  1  0
  5 27  1  0
  6 28  1  0
  6 29  1  0
  7 30  1  0
  7 31  1  0
  8 32  1  0
 10 33  1  0
 12 34  1  0
 14 35  1  0
 14 36  1  0
 16 37  1  0
 17 38  1  0
 21 39  1  0
 21 40  1  0
M  ISO  8  22   8  23  13  24  13  25  13  26  13  27   5  28  13  29  13
M  ISO  8  30  13  31  13  32  14  33  14  34  14  35   8  36   8  37  14
M  ISO  1  38  14
M  END
>  <minimizedAffinity>  (1) 
-4.26660728

>  <minimizedRMSD>  (1) 
0.426541299

$$$$
