
     RDKit          3D

 30 32  0  0  0  0  0  0  0  0999 V2000
   47.4180   34.8070   41.8320 C   0  0  0  0  0  0  0  0  0  0  0  0
   48.3840   34.7790   39.4810 C   0  0  0  0  0  0  0  0  0  0  0  0
   47.4440   34.3870   40.3950 C   0  0  0  0  0  0  0  0  0  0  0  0
   46.4400   33.5390   39.9540 C   0  0  0  0  0  0  0  0  0  0  0  0
   46.3650   33.0890   38.6530 C   0  0  0  0  0  0  0  0  0  0  0  0
   45.5000   32.2790   38.0150 N   0  0  0  0  0  0  0  0  0  0  0  0
   45.8770   32.1530   36.7190 C   0  0  0  0  0  0  0  0  0  0  0  0
   47.0260   32.9270   36.5760 C   0  0  0  0  0  0  0  0  0  0  0  0
   47.3540   33.5240   37.7710 C   0  0  0  0  0  0  0  0  0  0  0  0
   48.3650   34.3650   38.1740 C   0  0  0  0  0  0  0  0  0  0  0  0
   46.0400   35.3100   42.2180 C   0  0  0  0  0  0  0  0  0  0  0  0
   44.5600   35.2070   45.6900 C   0  0  0  0  0  0  0  0  0  0  0  0
   44.8330   35.6050   44.3560 C   0  0  0  0  0  0  0  0  0  0  0  0
   45.7590   34.8930   43.6070 C   0  0  0  0  0  0  0  0  0  0  0  0
   46.3640   33.8310   44.2170 N   0  0  0  0  0  0  0  0  0  0  0  0
   46.0930   33.4700   45.4800 C   0  0  0  0  0  0  0  0  0  0  0  0
   45.1970   34.1530   46.2140 N   0  0  0  0  0  0  0  0  0  0  0  0
   48.1525   35.6111   41.9866 H   0  0  0  0  0  0  0  0  0  0  0  0
   47.6662   33.9381   42.4593 H   0  0  0  0  0  0  0  0  0  0  0  0
   49.1882   35.4543   39.8084 H   0  0  0  0  0  0  0  0  0  0  0  0
   45.6724   33.2120   40.6708 H   0  0  0  0  0  0  0  0  0  0  0  0
   44.6804   31.8261   38.4440 H   0  0  0  0  0  0  0  0  0  0  0  0
   45.3771   31.5600   35.9389 H   0  0  0  0  0  0  0  0  0  0  0  0
   47.5913   33.0443   35.6397 H   0  0  0  0  0  0  0  0  0  0  0  0
   49.1385   34.6970   37.4659 H   0  0  0  0  0  0  0  0  0  0  0  0
   46.0128   36.4074   42.1477 H   0  0  0  0  0  0  0  0  0  0  0  0
   45.2828   34.8910   41.5390 H   0  0  0  0  0  0  0  0  0  0  0  0
   43.8266   35.7633   46.2922 H   0  0  0  0  0  0  0  0  0  0  0  0
   44.3147   36.4712   43.9188 H   0  0  0  0  0  0  0  0  0  0  0  0
   46.6099   32.6048   45.9207 H   0  0  0  0  0  0  0  0  0  0  0  0
  1 11  1  0
  2  3  2  0
  3  1  1  0
  4  3  1  0
  5  4  2  0
  6  5  1  0
  7  6  1  0
  8  7  2  0
  8  9  1  0
  9 10  2  0
  9  5  1  0
 10  2  1  0
 11 14  1  0
 12 17  2  0
 13 12  1  0
 14 15  1  0
 14 13  2  0
 15 16  2  0
 16 17  1  0
  1 18  1  0
  1 19  1  0
  2 20  1  0
  4 21  1  0
  6 22  1  0
  7 23  1  0
  8 24  1  0
 10 25  1  0
 11 26  1  0
 11 27  1  0
 12 28  1  0
 13 29  1  0
 16 30  1  0
M  ISO  8  18   8  19   8  20  14  21  14  22   9  23  14  24  14  25  14
M  ISO  5  26   8  27   8  28  14  29  14  30  14
M  END
>  <minimizedAffinity>  (1) 
-4.76618862

>  <minimizedRMSD>  (1) 
2.38361573

$$$$
