
     RDKit          3D

 33 34  0  0  0  0  0  0  0  0999 V2000
   46.7930   32.4260   45.9570 C   0  0  0  0  0  0  0  0  0  0  0  0
   46.1780   31.7570   47.1000 C   0  0  0  0  0  0  0  0  0  0  0  0
   45.4000   32.2930   48.1100 C   0  0  0  0  0  0  0  0  0  0  0  0
   44.8740   31.5610   49.1290 C   0  0  0  0  0  0  0  0  0  0  0  0
   45.1220   30.2180   49.1640 C   0  0  0  0  0  0  0  0  0  0  0  0
   45.8960   29.6630   48.1640 C   0  0  0  0  0  0  0  0  0  0  0  0
   46.4240   30.4220   47.1350 C   0  0  0  0  0  0  0  0  0  0  0  0
   48.5290   29.3150   46.7060 C   0  0  0  0  0  0  0  0  0  0  0  0
   49.3810   29.7400   47.5690 O   0  0  0  0  0  0  0  0  0  0  0  0
   47.1660   29.5090   46.3200 N   0  0  0  0  0  0  0  0  0  0  0  0
   45.9720   32.2670   44.7090 C   0  0  0  0  0  0  0  0  0  0  0  0
   44.9050   35.5560   43.4980 C   0  0  0  0  0  0  0  0  0  0  0  0
   45.9600   35.9280   42.6360 C   0  0  0  0  0  0  0  0  0  0  0  0
   47.0030   35.0200   42.5150 C   0  0  0  0  0  0  0  0  0  0  0  0
   46.9770   33.8560   43.1970 N   0  0  0  0  0  0  0  0  0  0  0  0
   45.9350   33.5630   44.0040 C   0  0  0  0  0  0  0  0  0  0  0  0
   44.9290   34.3810   44.1550 N   0  0  0  0  0  0  0  0  0  0  0  0
   48.1510   35.3670   41.6110 C   0  0  0  0  0  0  0  0  0  0  0  0
   46.8928   33.4978   46.1833 H   0  0  0  0  0  0  0  0  0  0  0  0
   47.7763   31.9658   45.7801 H   0  0  0  0  0  0  0  0  0  0  0  0
   45.1947   33.3734   48.0882 H   0  0  0  0  0  0  0  0  0  0  0  0
   44.2624   32.0400   49.9077 H   0  0  0  0  0  0  0  0  0  0  0  0
   44.7139   29.5922   49.9714 H   0  0  0  0  0  0  0  0  0  0  0  0
   46.0993   28.5822   48.1864 H   0  0  0  0  0  0  0  0  0  0  0  0
   48.9982   28.5611   46.0568 H   0  0  0  0  0  0  0  0  0  0  0  0
   46.7476   29.0258   45.5123 H   0  0  0  0  0  0  0  0  0  0  0  0
   46.4274   31.5045   44.0600 H   0  0  0  0  0  0  0  0  0  0  0  0
   44.9510   31.9496   44.9676 H   0  0  0  0  0  0  0  0  0  0  0  0
   44.0513   36.2361   43.6346 H   0  0  0  0  0  0  0  0  0  0  0  0
   45.9555   36.8835   42.0911 H   0  0  0  0  0  0  0  0  0  0  0  0
   49.0288   35.6323   42.2185 H   0  0  0  0  0  0  0  0  0  0  0  0
   48.3924   34.5017   40.9762 H   0  0  0  0  0  0  0  0  0  0  0  0
   47.8726   36.2211   40.9762 H   0  0  0  0  0  0  0  0  0  0  0  0
  1  2  1  0
  2  7  1  0
  2  3  2  0
  3  4  1  0
  4  5  2  0
  6  5  1  0
  7  6  2  0
  8  9  2  0
 10  8  1  0
 10  7  1  0
 11  1  1  0
 12 17  2  0
 13 12  1  0
 14 13  2  0
 14 15  1  0
 15 16  2  0
 16 17  1  0
 16 11  1  0
 18 14  1  0
  1 19  1  0
  1 20  1  0
  3 21  1  0
  4 22  1  0
  5 23  1  0
  6 24  1  0
  8 25  1  0
 10 26  1  0
 11 27  1  0
 11 28  1  0
 12 29  1  0
 13 30  1  0
 18 31  1  0
 18 32  1  0
 18 33  1  0
M  ISO  8  19   8  20   8  21  14  22  14  23  14  24  14  25   6  27   8
M  ISO  6  28   8  29  14  30  14  31   8  32   8  33   8
M  END
>  <minimizedAffinity>  (1) 
-4.43628693

>  <minimizedRMSD>  (1) 
0.873337626

$$$$
