
     RDKit          3D

 27 28  0  0  1  0  0  0  0  0999 V2000
   46.8840   34.8490   41.4250 C   0  0  0  0  0  0  0  0  0  0  0  0
   48.2520   35.0650   40.8560 C   0  0  1  0  0  0  0  0  0  0  0  0
   49.1000   36.1230   41.4990 C   0  0  0  0  0  0  0  0  0  0  0  0
   49.4240   34.6980   41.6040 C   0  0  1  0  0  0  0  0  0  0  0  0
   50.7470   32.7750   42.4410 C   0  0  0  0  0  0  0  0  0  0  0  0
   51.4090   32.3220   41.4370 O   0  0  0  0  0  0  0  0  0  0  0  0
   49.8020   33.8630   42.6430 N   0  0  0  0  0  0  0  0  0  0  0  0
   47.1120   33.8930   42.5780 C   0  0  0  0  0  0  0  0  0  0  0  0
   44.6080   35.7170   44.6900 C   0  0  0  0  0  0  0  0  0  0  0  0
   45.4060   35.3670   43.5570 C   0  0  0  0  0  0  0  0  0  0  0  0
   46.2190   34.2780   43.7020 C   0  0  0  0  0  0  0  0  0  0  0  0
   46.2560   33.5720   44.8680 N   0  0  0  0  0  0  0  0  0  0  0  0
   45.4930   33.9310   45.9090 C   0  0  0  0  0  0  0  0  0  0  0  0
   44.6790   34.9880   45.8240 N   0  0  0  0  0  0  0  0  0  0  0  0
   46.2145   34.4035   40.6745 H   0  0  0  0  0  0  0  0  0  0  0  0
   46.4049   35.7871   41.7419 H   0  0  0  0  0  0  0  0  0  0  0  0
   47.8959   34.8317   39.8417 H   0  0  0  0  0  0  0  0  0  0  0  0
   49.7198   36.7895   40.8813 H   0  0  0  0  0  0  0  0  0  0  0  0
   48.9310   36.9483   42.2063 H   0  0  0  0  0  0  0  0  0  0  0  0
   50.2643   34.0098   41.4300 H   0  0  0  0  0  0  0  0  0  0  0  0
   50.9398   32.2076   43.3634 H   0  0  0  0  0  0  0  0  0  0  0  0
   49.4046   34.0160   43.5809 H   0  0  0  0  0  0  0  0  0  0  0  0
   46.8820   32.8660   42.2580 H   0  0  0  0  0  0  0  0  0  0  0  0
   48.1623   33.9407   42.9014 H   0  0  0  0  0  0  0  0  0  0  0  0
   43.9331   36.5841   44.6377 H   0  0  0  0  0  0  0  0  0  0  0  0
   45.3679   35.9423   42.6202 H   0  0  0  0  0  0  0  0  0  0  0  0
   45.5367   33.3506   46.8424 H   0  0  0  0  0  0  0  0  0  0  0  0
  1  8  1  0
  2  1  1  0
  2  3  1  0
  2  4  1  0
  3  4  1  0
  4  7  1  0
  5  7  1  0
  6  5  2  0
  8 11  1  0
  9 14  2  0
 10 11  2  0
 10  9  1  0
 11 12  1  0
 12 13  2  0
 14 13  1  0
  1 15  1  0
  1 16  1  0
  2 17  1  6
  3 18  1  0
  3 19  1  0
  4 20  1  6
  5 21  1  0
  7 22  1  0
  8 23  1  0
  8 24  1  0
  9 25  1  0
 10 26  1  0
 13 27  1  0
M  ISO  8  15   8  16   8  17  13  18  13  19  13  20  13  21   6  23   8
M  ISO  4  24   8  25  14  26  14  27  14
M  END
>  <minimizedAffinity>  (1) 
-4.51278353

>  <minimizedRMSD>  (1) 
0.887419105

$$$$
