
     RDKit          3D

 25 26  0  0  1  0  0  0  0  0999 V2000
   48.0760   35.3720   41.9400 C   0  0  0  0  0  0  0  0  0  0  0  0
   48.9930   34.2320   41.6070 C   0  0  1  0  0  0  0  0  0  0  0  0
   50.2880   34.1500   42.3510 C   0  0  0  0  0  0  0  0  0  0  0  0
   49.2160   33.1860   42.5810 C   0  0  1  0  0  0  0  0  0  0  0  0
   48.5580   32.6810   43.6890 N   0  0  0  0  0  0  0  0  0  0  0  0
   46.6890   34.8140   41.7520 C   0  0  0  0  0  0  0  0  0  0  0  0
   44.5560   36.2740   44.4650 C   0  0  0  0  0  0  0  0  0  0  0  0
   45.2070   36.1380   43.2210 C   0  0  0  0  0  0  0  0  0  0  0  0
   45.9230   34.9930   43.0140 C   0  0  0  0  0  0  0  0  0  0  0  0
   45.9800   34.0420   43.9910 N   0  0  0  0  0  0  0  0  0  0  0  0
   45.3620   34.1890   45.1500 C   0  0  0  0  0  0  0  0  0  0  0  0
   44.6540   35.2990   45.3880 N   0  0  0  0  0  0  0  0  0  0  0  0
   48.2251   35.6989   42.9797 H   0  0  0  0  0  0  0  0  0  0  0  0
   48.2598   36.2528   41.3072 H   0  0  0  0  0  0  0  0  0  0  0  0
   48.6832   34.2458   40.5516 H   0  0  0  0  0  0  0  0  0  0  0  0
   51.2071   33.8426   41.8308 H   0  0  0  0  0  0  0  0  0  0  0  0
   50.8785   34.8335   42.9788 H   0  0  0  0  0  0  0  0  0  0  0  0
   49.1036   32.0922   42.6136 H   0  0  0  0  0  0  0  0  0  0  0  0
   49.0115   33.0290   44.5458 H   0  0  0  0  0  0  0  0  0  0  0  0
   47.5744   32.9862   43.6729 H   0  0  0  0  0  0  0  0  0  0  0  0
   46.1836   35.3486   40.9342 H   0  0  0  0  0  0  0  0  0  0  0  0
   46.7482   33.7448   41.5003 H   0  0  0  0  0  0  0  0  0  0  0  0
   43.9675   37.1779   44.6811 H   0  0  0  0  0  0  0  0  0  0  0  0
   45.1410   36.9204   42.4506 H   0  0  0  0  0  0  0  0  0  0  0  0
   45.4295   33.4021   45.9157 H   0  0  0  0  0  0  0  0  0  0  0  0
  2  1  1  0
  2  3  1  0
  2  4  1  0
  3  4  1  0
  4  5  1  0
  6  1  1  0
  6  9  1  0
  7 12  2  0
  8  7  1  0
  9  8  2  0
  9 10  1  0
 10 11  2  0
 11 12  1  0
  1 13  1  0
  1 14  1  0
  2 15  1  6
  3 16  1  0
  3 17  1  0
  4 18  1  6
  5 19  1  0
  5 20  1  0
  6 21  1  0
  6 22  1  0
  7 23  1  0
  8 24  1  0
 11 25  1  0
M  ISO  8  13   8  14   8  15  13  16  13  17  13  18  13  19   5  20   5
M  ISO  5  21   8  22   8  23  14  24  14  25  14
M  END
>  <minimizedAffinity>  (1) 
-3.93371868

>  <minimizedRMSD>  (1) 
0.9426952

$$$$
