
     RDKit          3D

 56 60  0  0  1  0  0  0  0  0999 V2000
   47.3180   35.3140   41.9840 C   0  0  0  0  0  0  0  0  0  0  0  0
   48.6610   34.8330   41.5500 C   0  0  1  0  0  0  0  0  0  0  0  0
   49.8310   35.1110   42.4450 C   0  0  0  0  0  0  0  0  0  0  0  0
   49.2530   33.7370   42.2930 C   0  0  2  0  0  0  0  0  0  0  0  0
   50.0980   32.8660   41.4740 N   0  0  0  0  0  0  0  0  0  0  0  0
   49.4390   32.2710   40.3820 C   0  0  0  0  0  0  0  0  0  0  0  0
   50.4710   31.3960   39.6970 C   0  0  0  0  0  0  0  0  0  0  0  0
   50.9260   30.3470   40.5370 N   0  0  0  0  0  0  0  0  0  0  0  0
   50.8560   30.6480   41.9540 C   0  0  0  0  0  0  0  0  0  0  0  0
   51.0890   32.1510   42.1640 C   0  0  0  0  0  0  0  0  0  0  0  0
   46.5280   34.1010   42.3940 C   0  0  0  0  0  0  0  0  0  0  0  0
   44.5370   35.8210   45.0630 C   0  0  0  0  0  0  0  0  0  0  0  0
   45.1600   35.5640   43.8100 C   0  0  0  0  0  0  0  0  0  0  0  0
   45.8580   34.3910   43.6960 C   0  0  0  0  0  0  0  0  0  0  0  0
   45.9250   33.5430   44.7590 N   0  0  0  0  0  0  0  0  0  0  0  0
   45.3450   33.7960   45.9070 C   0  0  0  0  0  0  0  0  0  0  0  0
   44.6460   34.9380   46.0710 N   0  0  0  0  0  0  0  0  0  0  0  0
   45.3680   32.9270   47.0990 C   0  0  0  0  0  0  0  0  0  0  0  0
   46.5270   32.0150   47.1890 C   0  0  1  0  0  0  0  0  0  0  0  0
   46.0320   30.6750   47.7600 C   0  0  0  0  0  0  0  0  0  0  0  0
   47.1010   29.7180   47.4490 N   0  0  0  0  0  0  0  0  0  0  0  0
   48.1870   28.7760   47.2700 C   0  0  0  0  0  0  0  0  0  0  0  0
   48.7860   28.2780   48.2600 O   0  0  0  0  0  0  0  0  0  0  0  0
   48.1340   28.7940   45.8070 C   0  0  0  0  0  0  0  0  0  0  0  0
   46.8850   29.5850   45.9910 C   0  0  2  0  0  0  0  0  0  0  0  0
   47.0770   31.3680   45.5550 S   0  0  0  0  0  0  0  0  0  0  0  0
   47.6760   32.4840   47.9910 C   0  0  0  0  0  0  0  0  0  0  0  0
   46.8146   35.8296   41.1529 H   0  0  0  0  0  0  0  0  0  0  0  0
   47.4064   36.0254   42.8183 H   0  0  0  0  0  0  0  0  0  0  0  0
   48.4427   35.0207   40.4883 H   0  0  0  0  0  0  0  0  0  0  0  0
   50.8148   35.3508   42.0153 H   0  0  0  0  0  0  0  0  0  0  0  0
   50.0403   35.7918   43.2833 H   0  0  0  0  0  0  0  0  0  0  0  0
   48.8600   32.9735   42.9804 H   0  0  0  0  0  0  0  0  0  0  0  0
   48.5930   31.6614   40.7322 H   0  0  0  0  0  0  0  0  0  0  0  0
   49.0332   33.0283   39.6951 H   0  0  0  0  0  0  0  0  0  0  0  0
   50.0206   30.9572   38.7945 H   0  0  0  0  0  0  0  0  0  0  0  0
   51.3361   32.0273   39.4459 H   0  0  0  0  0  0  0  0  0  0  0  0
   50.3487   29.5137   40.3548 H   0  0  0  0  0  0  0  0  0  0  0  0
   49.8635   30.3723   42.3399 H   0  0  0  0  0  0  0  0  0  0  0  0
   51.6270   30.0763   42.4913 H   0  0  0  0  0  0  0  0  0  0  0  0
   52.0809   32.4283   41.7776 H   0  0  0  0  0  0  0  0  0  0  0  0
   51.0411   32.3890   43.2369 H   0  0  0  0  0  0  0  0  0  0  0  0
   45.7706   33.8753   41.6289 H   0  0  0  0  0  0  0  0  0  0  0  0
   47.1960   33.2333   42.4985 H   0  0  0  0  0  0  0  0  0  0  0  0
   43.9626   36.7479   45.2080 H   0  0  0  0  0  0  0  0  0  0  0  0
   45.0847   36.2735   42.9727 H   0  0  0  0  0  0  0  0  0  0  0  0
   45.3719   33.5716   47.9903 H   0  0  0  0  0  0  0  0  0  0  0  0
   44.4782   32.2844   47.0261 H   0  0  0  0  0  0  0  0  0  0  0  0
   45.8819   30.7487   48.8472 H   0  0  0  0  0  0  0  0  0  0  0  0
   45.0654   30.3722   47.3310 H   0  0  0  0  0  0  0  0  0  0  0  0
   47.9999   27.8113   45.3313 H   0  0  0  0  0  0  0  0  0  0  0  0
   48.9721   29.1339   45.1809 H   0  0  0  0  0  0  0  0  0  0  0  0
   46.0051   29.1605   45.4854 H   0  0  0  0  0  0  0  0  0  0  0  0
   47.4400   32.3877   49.0610 H   0  0  0  0  0  0  0  0  0  0  0  0
   48.5611   31.8752   47.7545 H   0  0  0  0  0  0  0  0  0  0  0  0
   47.8823   33.5383   47.7545 H   0  0  0  0  0  0  0  0  0  0  0  0
  1 11  1  0
  2  1  1  0
  2  4  1  0
  2  3  1  0
  4  3  1  0
  5 10  1  0
  5  4  1  0
  6  5  1  0
  7  6  1  0
  7  8  1  0
  8  9  1  0
  9 10  1  0
 11 14  1  0
 12 17  2  0
 13 12  1  0
 14 13  2  0
 14 15  1  0
 15 16  2  0
 16 17  1  0
 16 18  1  0
 19 18  1  6
 19 20  1  0
 19 27  1  0
 21 20  1  0
 22 21  1  0
 22 23  2  0
 24 25  1  0
 24 22  1  0
 25 26  1  0
 25 21  1  0
 26 19  1  0
  1 28  1  0
  1 29  1  0
  2 30  1  6
  3 31  1  0
  3 32  1  0
  4 33  1  1
  6 34  1  0
  6 35  1  0
  7 36  1  0
  7 37  1  0
  8 38  1  0
  9 39  1  0
  9 40  1  0
 10 41  1  0
 10 42  1  0
 11 43  1  0
 11 44  1  0
 12 45  1  0
 13 46  1  0
 18 47  1  0
 18 48  1  0
 20 49  1  0
 20 50  1  0
 24 51  1  0
 24 52  1  0
 25 53  1  1
 27 54  1  0
 27 55  1  0
 27 56  1  0
M  ISO  8  28   8  29   8  30  13  31  13  32  13  33  13  34  13  35  13
M  ISO  8  36  13  37  13  38   5  39  13  40  13  41  13  42  13  43   8
M  ISO  8  44   8  45  14  46  14  47   8  48   8  49  13  50  13  51  13
M  ISO  5  52  13  53  13  54   8  55   8  56   8
M  END
>  <minimizedAffinity>  (1) 
-5.66667271

>  <minimizedRMSD>  (1) 
1.20394194

$$$$
