
     RDKit          3D

 44 47  0  0  1  0  0  0  0  0999 V2000
   48.9130   34.7050   41.5000 C   0  0  1  0  0  0  0  0  0  0  0  0
   50.0150   34.8840   42.4850 C   0  0  0  0  0  0  0  0  0  0  0  0
   49.3600   33.5670   42.2950 C   0  0  2  0  0  0  0  0  0  0  0  0
   50.1900   32.6300   41.5590 N   0  0  0  0  0  0  0  0  0  0  0  0
   49.6290   32.1800   40.3390 C   0  0  0  0  0  0  0  0  0  0  0  0
   50.6420   31.2240   39.7390 C   0  0  0  0  0  0  0  0  0  0  0  0
   50.8530   30.0830   40.5750 N   0  0  0  0  0  0  0  0  0  0  0  0
   50.6260   30.3320   41.9810 C   0  0  0  0  0  0  0  0  0  0  0  0
   50.9850   31.7660   42.3170 C   0  0  0  0  0  0  0  0  0  0  0  0
   47.5800   35.3010   41.8490 C   0  0  0  0  0  0  0  0  0  0  0  0
   46.6750   34.1570   42.1870 C   0  0  0  0  0  0  0  0  0  0  0  0
   44.4590   35.8530   44.6860 C   0  0  0  0  0  0  0  0  0  0  0  0
   45.1250   35.5550   43.4740 C   0  0  0  0  0  0  0  0  0  0  0  0
   45.9650   34.4800   43.4700 C   0  0  0  0  0  0  0  0  0  0  0  0
   46.1310   33.7510   44.5990 N   0  0  0  0  0  0  0  0  0  0  0  0
   45.5040   34.0410   45.7250 C   0  0  0  0  0  0  0  0  0  0  0  0
   44.6750   35.0810   45.7730 N   0  0  0  0  0  0  0  0  0  0  0  0
   45.7780   33.1610   46.8800 C   0  0  0  0  0  0  0  0  0  0  0  0
   46.8720   32.4080   47.1890 C   0  0  0  0  0  0  0  0  0  0  0  0
   46.6480   31.7490   48.3940 C   0  0  0  0  0  0  0  0  0  0  0  0
   45.4260   32.1160   48.7850 N   0  0  0  0  0  0  0  0  0  0  0  0
   44.9120   32.9400   47.9070 N   0  0  0  0  0  0  0  0  0  0  0  0
   48.7943   34.9017   40.4242 H   0  0  0  0  0  0  0  0  0  0  0  0
   51.0466   35.0442   42.1382 H   0  0  0  0  0  0  0  0  0  0  0  0
   50.2037   35.5509   43.3392 H   0  0  0  0  0  0  0  0  0  0  0  0
   48.8582   32.8405   42.9510 H   0  0  0  0  0  0  0  0  0  0  0  0
   48.6772   31.6608   40.5248 H   0  0  0  0  0  0  0  0  0  0  0  0
   49.4164   33.0191   39.6602 H   0  0  0  0  0  0  0  0  0  0  0  0
   50.2751   30.8848   38.7590 H   0  0  0  0  0  0  0  0  0  0  0  0
   51.5989   31.7572   39.6389 H   0  0  0  0  0  0  0  0  0  0  0  0
   50.2121   29.3362   40.2710 H   0  0  0  0  0  0  0  0  0  0  0  0
   49.5656   30.1572   42.2156 H   0  0  0  0  0  0  0  0  0  0  0  0
   51.2557   29.6530   42.5747 H   0  0  0  0  0  0  0  0  0  0  0  0
   52.0455   31.9435   42.0849 H   0  0  0  0  0  0  0  0  0  0  0  0
   50.8111   31.9486   43.3877 H   0  0  0  0  0  0  0  0  0  0  0  0
   47.6798   35.9741   42.7133 H   0  0  0  0  0  0  0  0  0  0  0  0
   47.1780   35.8909   41.0121 H   0  0  0  0  0  0  0  0  0  0  0  0
   45.9401   34.0136   41.3812 H   0  0  0  0  0  0  0  0  0  0  0  0
   47.2597   33.2321   42.3001 H   0  0  0  0  0  0  0  0  0  0  0  0
   43.7695   36.7082   44.7428 H   0  0  0  0  0  0  0  0  0  0  0  0
   44.9718   36.1651   42.5716 H   0  0  0  0  0  0  0  0  0  0  0  0
   47.7864   32.3333   46.5821 H   0  0  0  0  0  0  0  0  0  0  0  0
   47.3355   31.0671   48.9159 H   0  0  0  0  0  0  0  0  0  0  0  0
   44.9584   31.7992   49.6464 H   0  0  0  0  0  0  0  0  0  0  0  0
  1 10  1  0
  1  3  1  0
  1  2  1  0
  3  2  1  0
  4  3  1  0
  4  9  1  0
  5  4  1  0
  6  5  1  0
  6  7  1  0
  7  8  1  0
  8  9  1  0
 10 11  1  0
 11 14  1  0
 12 17  2  0
 13 12  1  0
 14 13  2  0
 14 15  1  0
 15 16  2  0
 16 17  1  0
 16 18  1  0
 18 19  1  0
 18 22  2  0
 19 20  2  0
 20 21  1  0
 22 21  1  0
  1 23  1  6
  2 24  1  0
  2 25  1  0
  3 26  1  1
  5 27  1  0
  5 28  1  0
  6 29  1  0
  6 30  1  0
  7 31  1  0
  8 32  1  0
  8 33  1  0
  9 34  1  0
  9 35  1  0
 10 36  1  0
 10 37  1  0
 11 38  1  0
 11 39  1  0
 12 40  1  0
 13 41  1  0
 19 42  1  0
 20 43  1  0
 21 44  1  0
M  ISO  8  23  13  24  13  25  13  26  13  27  13  28  13  29  13  30  13
M  ISO  8  31   5  32  13  33  13  34  13  35  13  36   8  37   8  38   8
M  ISO  6  39   8  40  14  41  14  42  14  43  14  44   9
M  END
>  <minimizedAffinity>  (1) 
-5.76136351

>  <minimizedRMSD>  (1) 
0.287675828

$$$$
