
     RDKit          3D

 48 51  0  0  1  0  0  0  0  0999 V2000
   46.5850   35.1190   42.5720 C   0  0  0  0  0  0  0  0  0  0  0  0
   47.7620   34.7920   41.7080 C   0  0  1  0  0  0  0  0  0  0  0  0
   48.8900   35.7720   41.6780 C   0  0  0  0  0  0  0  0  0  0  0  0
   49.0120   34.4650   42.3790 C   0  0  2  0  0  0  0  0  0  0  0  0
   49.8390   33.5210   41.6470 N   0  0  0  0  0  0  0  0  0  0  0  0
   49.1140   32.6430   40.8020 C   0  0  0  0  0  0  0  0  0  0  0  0
   50.1480   31.7510   40.1440 C   0  0  0  0  0  0  0  0  0  0  0  0
   50.8540   30.9510   41.0980 N   0  0  0  0  0  0  0  0  0  0  0  0
   50.9330   31.5490   42.4140 C   0  0  0  0  0  0  0  0  0  0  0  0
   50.9950   33.0690   42.2930 C   0  0  0  0  0  0  0  0  0  0  0  0
   45.8930   33.8220   42.8650 C   0  0  0  0  0  0  0  0  0  0  0  0
   44.6980   34.7690   46.2840 C   0  0  0  0  0  0  0  0  0  0  0  0
   44.9570   34.8430   44.8980 C   0  0  0  0  0  0  0  0  0  0  0  0
   45.6060   33.7640   44.3360 C   0  0  0  0  0  0  0  0  0  0  0  0
   45.9600   32.7070   45.1050 N   0  0  0  0  0  0  0  0  0  0  0  0
   45.7050   32.6610   46.4040 C   0  0  0  0  0  0  0  0  0  0  0  0
   45.0820   33.6760   46.9910 N   0  0  0  0  0  0  0  0  0  0  0  0
   48.0000   32.6880   48.2510 O   0  0  0  0  0  0  0  0  0  0  0  0
   47.0560   31.8380   48.3040 C   0  0  0  0  0  0  0  0  0  0  0  0
   46.1080   31.4830   47.2190 C   0  0  1  0  0  0  0  0  0  0  0  0
   44.9100   30.8920   47.8920 C   0  0  0  0  0  0  0  0  0  0  0  0
   45.2900   30.7820   49.3450 C   0  0  0  0  0  0  0  0  0  0  0  0
   46.7180   31.0490   49.4290 N   0  0  0  0  0  0  0  0  0  0  0  0
   45.9037   35.8011   42.0424 H   0  0  0  0  0  0  0  0  0  0  0  0
   46.9015   35.6174   43.5001 H   0  0  0  0  0  0  0  0  0  0  0  0
   47.1407   34.3038   40.9427 H   0  0  0  0  0  0  0  0  0  0  0  0
   49.4418   35.9536   40.7439 H   0  0  0  0  0  0  0  0  0  0  0  0
   49.0221   36.8285   41.9543 H   0  0  0  0  0  0  0  0  0  0  0  0
   49.2754   34.1436   43.3975 H   0  0  0  0  0  0  0  0  0  0  0  0
   48.4084   32.0398   41.3922 H   0  0  0  0  0  0  0  0  0  0  0  0
   48.5243   33.1959   40.0559 H   0  0  0  0  0  0  0  0  0  0  0  0
   49.6400   31.0860   39.4301 H   0  0  0  0  0  0  0  0  0  0  0  0
   50.8793   32.3973   39.6365 H   0  0  0  0  0  0  0  0  0  0  0  0
   50.3730   30.0440   41.1813 H   0  0  0  0  0  0  0  0  0  0  0  0
   50.0442   31.2658   42.9969 H   0  0  0  0  0  0  0  0  0  0  0  0
   51.8409   31.1895   42.9204 H   0  0  0  0  0  0  0  0  0  0  0  0
   51.8810   33.3568   41.7081 H   0  0  0  0  0  0  0  0  0  0  0  0
   51.0621   33.5196   43.2942 H   0  0  0  0  0  0  0  0  0  0  0  0
   44.9510   33.7669   42.2997 H   0  0  0  0  0  0  0  0  0  0  0  0
   46.5313   32.9763   42.5695 H   0  0  0  0  0  0  0  0  0  0  0  0
   44.1841   35.5986   46.7916 H   0  0  0  0  0  0  0  0  0  0  0  0
   44.6570   35.7151   44.2984 H   0  0  0  0  0  0  0  0  0  0  0  0
   46.5859   30.7811   46.5197 H   0  0  0  0  0  0  0  0  0  0  0  0
   44.0357   31.5484   47.7702 H   0  0  0  0  0  0  0  0  0  0  0  0
   44.6357   29.9169   47.4630 H   0  0  0  0  0  0  0  0  0  0  0  0
   44.7314   31.5202   49.9392 H   0  0  0  0  0  0  0  0  0  0  0  0
   45.0519   29.7834   49.7401 H   0  0  0  0  0  0  0  0  0  0  0  0
   47.3601   30.7255   50.1665 H   0  0  0  0  0  0  0  0  0  0  0  0
  1 11  1  0
  2  4  1  0
  2  1  1  0
  3  2  1  0
  3  4  1  0
  5 10  1  0
  5  4  1  0
  6  5  1  0
  7  6  1  0
  7  8  1  0
  8  9  1  0
 10  9  1  0
 11 14  1  0
 12 17  2  0
 13 12  1  0
 14 13  2  0
 14 15  1  0
 15 16  2  0
 16 17  1  0
 18 19  2  0
 19 23  1  0
 20 16  1  0
 20 21  1  0
 20 19  1  0
 21 22  1  0
 22 23  1  0
  1 24  1  0
  1 25  1  0
  2 26  1  6
  3 27  1  0
  3 28  1  0
  4 29  1  1
  6 30  1  0
  6 31  1  0
  7 32  1  0
  7 33  1  0
  8 34  1  0
  9 35  1  0
  9 36  1  0
 10 37  1  0
 10 38  1  0
 11 39  1  0
 11 40  1  0
 12 41  1  0
 13 42  1  0
 20 43  1  6
 21 44  1  0
 21 45  1  0
 22 46  1  0
 22 47  1  0
 23 48  1  0
M  ISO  8  24   8  25   8  26  13  27  13  28  13  29  13  30  13  31  13
M  ISO  8  32  13  33  13  34   5  35  13  36  13  37  13  38  13  39   8
M  ISO  8  40   8  41  14  42  14  43  13  44  13  45  13  46  13  47  13
M  ISO  1  48  10
M  END
>  <minimizedAffinity>  (1) 
-5.85910892

>  <minimizedRMSD>  (1) 
1.58460486

$$$$
