
     RDKit          3D

 39 41  0  0  1  0  0  0  0  0999 V2000
   48.9950   34.7860   41.5080 C   0  0  1  0  0  0  0  0  0  0  0  0
   50.0790   34.7800   42.5250 C   0  0  0  0  0  0  0  0  0  0  0  0
   49.3430   33.5420   42.1870 C   0  0  2  0  0  0  0  0  0  0  0  0
   50.1320   32.6350   41.3600 N   0  0  0  0  0  0  0  0  0  0  0  0
   49.4730   32.1780   40.1910 C   0  0  0  0  0  0  0  0  0  0  0  0
   50.4630   31.2650   39.4910 C   0  0  0  0  0  0  0  0  0  0  0  0
   50.7520   30.1140   40.2890 N   0  0  0  0  0  0  0  0  0  0  0  0
   50.6530   30.3350   41.7090 C   0  0  0  0  0  0  0  0  0  0  0  0
   51.0100   31.7810   42.0370 C   0  0  0  0  0  0  0  0  0  0  0  0
   47.6960   35.4250   41.8980 C   0  0  0  0  0  0  0  0  0  0  0  0
   46.7090   34.3130   42.1000 C   0  0  0  0  0  0  0  0  0  0  0  0
   44.5230   35.8550   44.7210 C   0  0  0  0  0  0  0  0  0  0  0  0
   45.1850   35.6360   43.4900 C   0  0  0  0  0  0  0  0  0  0  0  0
   46.0080   34.5420   43.4080 C   0  0  0  0  0  0  0  0  0  0  0  0
   46.1590   33.7260   44.4800 N   0  0  0  0  0  0  0  0  0  0  0  0
   45.5370   33.9400   45.6210 C   0  0  0  0  0  0  0  0  0  0  0  0
   44.7240   34.9880   45.7560 N   0  0  0  0  0  0  0  0  0  0  0  0
   45.7810   32.9900   46.6990 C   0  0  0  0  0  0  0  0  0  0  0  0
   45.0470   33.0000   47.7010 O   0  0  0  0  0  0  0  0  0  0  0  0
   48.9196   35.1064   40.4584 H   0  0  0  0  0  0  0  0  0  0  0  0
   51.1277   34.9016   42.2160 H   0  0  0  0  0  0  0  0  0  0  0  0
   50.2906   35.3389   43.4485 H   0  0  0  0  0  0  0  0  0  0  0  0
   48.7781   32.7879   42.7546 H   0  0  0  0  0  0  0  0  0  0  0  0
   48.5613   31.6229   40.4570 H   0  0  0  0  0  0  0  0  0  0  0  0
   49.1655   33.0139   39.5455 H   0  0  0  0  0  0  0  0  0  0  0  0
   50.0353   30.9391   38.5314 H   0  0  0  0  0  0  0  0  0  0  0  0
   51.3976   31.8215   39.3275 H   0  0  0  0  0  0  0  0  0  0  0  0
   50.0890   29.3689   40.0318 H   0  0  0  0  0  0  0  0  0  0  0  0
   49.6239   30.1299   42.0389 H   0  0  0  0  0  0  0  0  0  0  0  0
   51.3518   29.6633   42.2290 H   0  0  0  0  0  0  0  0  0  0  0  0
   52.0426   31.9867   41.7185 H   0  0  0  0  0  0  0  0  0  0  0  0
   50.9253   31.9465   43.1212 H   0  0  0  0  0  0  0  0  0  0  0  0
   47.8196   35.9956   42.8303 H   0  0  0  0  0  0  0  0  0  0  0  0
   47.3506   36.1229   41.1211 H   0  0  0  0  0  0  0  0  0  0  0  0
   45.9762   34.3116   41.2797 H   0  0  0  0  0  0  0  0  0  0  0  0
   47.2261   33.3422   42.1101 H   0  0  0  0  0  0  0  0  0  0  0  0
   43.8513   36.7175   44.8432 H   0  0  0  0  0  0  0  0  0  0  0  0
   45.0456   36.3142   42.6352 H   0  0  0  0  0  0  0  0  0  0  0  0
   46.6090   32.2695   46.6258 H   0  0  0  0  0  0  0  0  0  0  0  0
  1 10  1  0
  1  3  1  0
  1  2  1  0
  3  2  1  0
  4  9  1  0
  4  3  1  0
  5  4  1  0
  6  5  1  0
  6  7  1  0
  7  8  1  0
  8  9  1  0
 10 11  1  0
 11 14  1  0
 12 17  2  0
 13 12  1  0
 14 13  2  0
 14 15  1  0
 15 16  2  0
 16 17  1  0
 16 18  1  0
 18 19  2  0
  1 20  1  6
  2 21  1  0
  2 22  1  0
  3 23  1  1
  5 24  1  0
  5 25  1  0
  6 26  1  0
  6 27  1  0
  7 28  1  0
  8 29  1  0
  8 30  1  0
  9 31  1  0
  9 32  1  0
 10 33  1  0
 10 34  1  0
 11 35  1  0
 11 36  1  0
 12 37  1  0
 13 38  1  0
 18 39  1  0
M  ISO  8  20  13  21  13  22  13  23  13  24  13  25  13  26  13  27  13
M  ISO  8  28   5  29  13  30  13  31  13  32  13  33   8  34   8  35   8
M  ISO  4  36   8  37  14  38  14  39   6
M  END
>  <minimizedAffinity>  (1) 
-4.9860158

>  <minimizedRMSD>  (1) 
0.0558198392

$$$$
