
     RDKit          3D

 40 42  0  0  1  0  0  0  0  0999 V2000
   48.9680   34.7810   41.5100 C   0  0  1  0  0  0  0  0  0  0  0  0
   50.0690   34.7980   42.5300 C   0  0  0  0  0  0  0  0  0  0  0  0
   49.3380   33.5410   42.1830 C   0  0  2  0  0  0  0  0  0  0  0  0
   50.1210   32.6400   41.3540 N   0  0  0  0  0  0  0  0  0  0  0  0
   49.4500   32.1890   40.1880 C   0  0  0  0  0  0  0  0  0  0  0  0
   50.4240   31.2600   39.4880 C   0  0  0  0  0  0  0  0  0  0  0  0
   50.7420   30.1210   40.2740 N   0  0  0  0  0  0  0  0  0  0  0  0
   50.6300   30.3400   41.7050 C   0  0  0  0  0  0  0  0  0  0  0  0
   51.0010   31.7870   42.0310 C   0  0  0  0  0  0  0  0  0  0  0  0
   47.6740   35.4150   41.8910 C   0  0  0  0  0  0  0  0  0  0  0  0
   46.6900   34.2960   42.1110 C   0  0  0  0  0  0  0  0  0  0  0  0
   44.5200   35.8630   44.7430 C   0  0  0  0  0  0  0  0  0  0  0  0
   45.1760   35.6400   43.4940 C   0  0  0  0  0  0  0  0  0  0  0  0
   45.9810   34.5430   43.4080 C   0  0  0  0  0  0  0  0  0  0  0  0
   46.1290   33.7210   44.4800 N   0  0  0  0  0  0  0  0  0  0  0  0
   45.5240   33.9310   45.6230 C   0  0  0  0  0  0  0  0  0  0  0  0
   44.7220   34.9890   45.7720 N   0  0  0  0  0  0  0  0  0  0  0  0
   45.7190   33.0020   46.7690 C   0  0  0  0  0  0  0  0  0  0  0  0
   48.8784   35.0922   40.4588 H   0  0  0  0  0  0  0  0  0  0  0  0
   51.1141   34.9367   42.2160 H   0  0  0  0  0  0  0  0  0  0  0  0
   50.2791   35.3579   43.4532 H   0  0  0  0  0  0  0  0  0  0  0  0
   48.7867   32.7783   42.7525 H   0  0  0  0  0  0  0  0  0  0  0  0
   48.5313   31.6481   40.4590 H   0  0  0  0  0  0  0  0  0  0  0  0
   49.1518   33.0272   39.5411 H   0  0  0  0  0  0  0  0  0  0  0  0
   49.9740   30.9229   38.5426 H   0  0  0  0  0  0  0  0  0  0  0  0
   51.3552   31.8187   39.3130 H   0  0  0  0  0  0  0  0  0  0  0  0
   50.1016   29.3579   40.0122 H   0  0  0  0  0  0  0  0  0  0  0  0
   49.5958   30.1457   42.0256 H   0  0  0  0  0  0  0  0  0  0  0  0
   51.3127   29.6589   42.2342 H   0  0  0  0  0  0  0  0  0  0  0  0
   52.0329   31.9866   41.7064 H   0  0  0  0  0  0  0  0  0  0  0  0
   50.9278   31.9573   43.1153 H   0  0  0  0  0  0  0  0  0  0  0  0
   47.7960   35.9993   42.8150 H   0  0  0  0  0  0  0  0  0  0  0  0
   47.3235   36.1004   41.1052 H   0  0  0  0  0  0  0  0  0  0  0  0
   45.9616   34.2735   41.2870 H   0  0  0  0  0  0  0  0  0  0  0  0
   47.2149   33.3298   42.1433 H   0  0  0  0  0  0  0  0  0  0  0  0
   43.8578   36.7314   44.8746 H   0  0  0  0  0  0  0  0  0  0  0  0
   45.0382   36.3214   42.6415 H   0  0  0  0  0  0  0  0  0  0  0  0
   45.6030   33.5547   47.7129 H   0  0  0  0  0  0  0  0  0  0  0  0
   44.9701   32.1978   46.7206 H   0  0  0  0  0  0  0  0  0  0  0  0
   46.7281   32.5668   46.7206 H   0  0  0  0  0  0  0  0  0  0  0  0
  1 10  1  0
  1  3  1  0
  1  2  1  0
  3  2  1  0
  4  9  1  0
  4  3  1  0
  5  4  1  0
  6  5  1  0
  6  7  1  0
  7  8  1  0
  8  9  1  0
 10 11  1  0
 11 14  1  0
 12 17  2  0
 13 12  1  0
 14 13  2  0
 14 15  1  0
 15 16  2  0
 16 17  1  0
 16 18  1  0
  1 19  1  6
  2 20  1  0
  2 21  1  0
  3 22  1  1
  5 23  1  0
  5 24  1  0
  6 25  1  0
  6 26  1  0
  7 27  1  0
  8 28  1  0
  8 29  1  0
  9 30  1  0
  9 31  1  0
 10 32  1  0
 10 33  1  0
 11 34  1  0
 11 35  1  0
 12 36  1  0
 13 37  1  0
 18 38  1  0
 18 39  1  0
 18 40  1  0
M  ISO  8  19  13  20  13  21  13  22  13  23  13  24  13  25  13  26  13
M  ISO  8  27   5  28  13  29  13  30  13  31  13  32   8  33   8  34   8
M  ISO  6  35   8  36  14  37  14  38   8  39   8  40   8
M  END
>  <minimizedAffinity>  (1) 
-4.89729166

>  <minimizedRMSD>  (1) 
0.0435481817

$$$$
