
     RDKit          3D

 38 40  0  0  0  0  0  0  0  0999 V2000
   44.6150   36.3240   44.0040 C   0  0  0  0  0  0  0  0  0  0  0  0
   44.7580   35.5130   45.1380 C   0  0  0  0  0  0  0  0  0  0  0  0
   45.4400   34.2940   44.9850 C   0  0  0  0  0  0  0  0  0  0  0  0
   45.9160   33.9730   43.7660 N   0  0  0  0  0  0  0  0  0  0  0  0
   45.7590   34.7840   42.6850 C   0  0  0  0  0  0  0  0  0  0  0  0
   45.1120   35.9530   42.8040 N   0  0  0  0  0  0  0  0  0  0  0  0
   48.5380   35.6800   42.1150 Cl  0  0  0  0  0  0  0  0  0  0  0  0
   47.5740   34.7170   41.0350 C   0  0  0  0  0  0  0  0  0  0  0  0
   46.3090   34.3580   41.3900 C   0  0  0  0  0  0  0  0  0  0  0  0
   45.4960   33.5800   40.5450 C   0  0  0  0  0  0  0  0  0  0  0  0
   46.0560   33.2040   39.3410 C   0  0  0  0  0  0  0  0  0  0  0  0
   47.3270   33.5660   38.9870 C   0  0  0  0  0  0  0  0  0  0  0  0
   48.0950   34.3180   39.8210 C   0  0  0  0  0  0  0  0  0  0  0  0
   45.5910   33.4340   46.1890 C   0  0  0  0  0  0  0  0  0  0  0  0
   46.6210   32.3650   46.0100 C   0  0  0  0  0  0  0  0  0  0  0  0
   46.9130   31.7440   47.2570 N   0  0  0  0  0  0  0  0  0  0  0  0
   46.2140   32.3460   48.3740 C   0  0  0  0  0  0  0  0  0  0  0  0
   45.5150   31.2310   49.1170 C   0  0  0  0  0  0  0  0  0  0  0  0
   45.3410   30.2300   47.9940 C   0  0  0  0  0  0  0  0  0  0  0  0
   46.7280   30.3390   47.3400 C   0  0  0  0  0  0  0  0  0  0  0  0
   44.0861   37.2844   44.0932 H   0  0  0  0  0  0  0  0  0  0  0  0
   44.3510   35.8197   46.1128 H   0  0  0  0  0  0  0  0  0  0  0  0
   44.4737   33.2885   40.8277 H   0  0  0  0  0  0  0  0  0  0  0  0
   45.4620   32.5943   38.6443 H   0  0  0  0  0  0  0  0  0  0  0  0
   47.7329   33.2451   38.0163 H   0  0  0  0  0  0  0  0  0  0  0  0
   49.1170   34.6040   39.5317 H   0  0  0  0  0  0  0  0  0  0  0  0
   45.8853   34.0672   47.0389 H   0  0  0  0  0  0  0  0  0  0  0  0
   44.6252   32.9381   46.3659 H   0  0  0  0  0  0  0  0  0  0  0  0
   46.2399   31.6082   45.3086 H   0  0  0  0  0  0  0  0  0  0  0  0
   47.5411   32.8187   45.6130 H   0  0  0  0  0  0  0  0  0  0  0  0
   46.9302   32.8509   49.0389 H   0  0  0  0  0  0  0  0  0  0  0  0
   45.4895   33.0956   48.0231 H   0  0  0  0  0  0  0  0  0  0  0  0
   46.1387   30.8285   49.9288 H   0  0  0  0  0  0  0  0  0  0  0  0
   44.5830   31.5256   49.6216 H   0  0  0  0  0  0  0  0  0  0  0  0
   45.1451   29.2166   48.3743 H   0  0  0  0  0  0  0  0  0  0  0  0
   44.4906   30.4220   47.3232 H   0  0  0  0  0  0  0  0  0  0  0  0
   46.7354   29.8765   46.3420 H   0  0  0  0  0  0  0  0  0  0  0  0
   47.5213   29.8223   47.9002 H   0  0  0  0  0  0  0  0  0  0  0  0
  1  2  2  0
  3  2  1  0
  3 14  1  0
  4  3  2  0
  5  6  2  0
  5  4  1  0
  6  1  1  0
  8  9  2  0
  8  7  1  0
  9  5  1  0
 10  9  1  0
 11 10  2  0
 12 11  1  0
 12 13  2  0
 13  8  1  0
 15 14  1  0
 15 16  1  0
 16 20  1  0
 16 17  1  0
 17 18  1  0
 19 18  1  0
 20 19  1  0
  1 21  1  0
  2 22  1  0
 10 23  1  0
 11 24  1  0
 12 25  1  0
 13 26  1  0
 14 27  1  0
 14 28  1  0
 15 29  1  0
 15 30  1  0
 17 31  1  0
 17 32  1  0
 18 33  1  0
 18 34  1  0
 19 35  1  0
 19 36  1  0
 20 37  1  0
 20 38  1  0
M  ISO  8  21  14  22  14  23  14  24  14  25  14  26  14  27   8  28   8
M  ISO  8  29   8  30   8  31  13  32  13  33  13  34  13  35  13  36  13
M  ISO  2  37  13  38  13
M  END
>  <minimizedAffinity>  (1) 
-5.71480656

>  <minimizedRMSD>  (1) 
2.24583387

$$$$
