
     RDKit          3D

 27 28  0  0  0  0  0  0  0  0999 V2000
   44.6160   36.2800   43.9850 C   0  0  0  0  0  0  0  0  0  0  0  0
   44.7750   35.4610   45.1130 C   0  0  0  0  0  0  0  0  0  0  0  0
   45.4600   34.2580   44.9460 C   0  0  0  0  0  0  0  0  0  0  0  0
   45.9370   33.9290   43.7270 N   0  0  0  0  0  0  0  0  0  0  0  0
   45.7630   34.7520   42.6480 C   0  0  0  0  0  0  0  0  0  0  0  0
   45.1040   35.9220   42.7800 N   0  0  0  0  0  0  0  0  0  0  0  0
   48.5270   35.6760   42.0610 Cl  0  0  0  0  0  0  0  0  0  0  0  0
   47.5610   34.7140   40.9820 C   0  0  0  0  0  0  0  0  0  0  0  0
   46.3070   34.3400   41.3380 C   0  0  0  0  0  0  0  0  0  0  0  0
   45.4950   33.5640   40.4970 C   0  0  0  0  0  0  0  0  0  0  0  0
   46.0380   33.2020   39.2900 C   0  0  0  0  0  0  0  0  0  0  0  0
   47.3000   33.5770   38.9260 C   0  0  0  0  0  0  0  0  0  0  0  0
   48.0820   34.3370   39.7620 C   0  0  0  0  0  0  0  0  0  0  0  0
   45.6340   33.3640   46.1250 C   0  0  0  0  0  0  0  0  0  0  0  0
   46.8770   32.5280   46.0610 C   0  0  0  0  0  0  0  0  0  0  0  0
   47.3360   32.2980   47.3550 O   0  0  0  0  0  0  0  0  0  0  0  0
   44.0811   37.2359   44.0859 H   0  0  0  0  0  0  0  0  0  0  0  0
   44.3739   35.7571   46.0935 H   0  0  0  0  0  0  0  0  0  0  0  0
   44.4784   33.2623   40.7894 H   0  0  0  0  0  0  0  0  0  0  0  0
   45.4403   32.5927   38.5961 H   0  0  0  0  0  0  0  0  0  0  0  0
   47.6965   33.2657   37.9483 H   0  0  0  0  0  0  0  0  0  0  0  0
   49.0979   34.6371   39.4657 H   0  0  0  0  0  0  0  0  0  0  0  0
   45.6789   33.9865   47.0308 H   0  0  0  0  0  0  0  0  0  0  0  0
   44.7784   32.6728   46.1370 H   0  0  0  0  0  0  0  0  0  0  0  0
   46.6510   31.5680   45.5738 H   0  0  0  0  0  0  0  0  0  0  0  0
   47.6493   33.0544   45.4810 H   0  0  0  0  0  0  0  0  0  0  0  0
   46.6691   32.6322   48.0060 H   0  0  0  0  0  0  0  0  0  0  0  0
  1  2  2  0
  3  2  1  0
  3 14  1  0
  4  3  2  0
  5  6  2  0
  5  4  1  0
  6  1  1  0
  8  9  2  0
  8  7  1  0
  9  5  1  0
 10  9  1  0
 11 10  2  0
 12 11  1  0
 12 13  2  0
 13  8  1  0
 15 14  1  0
 15 16  1  0
  1 17  1  0
  2 18  1  0
 10 19  1  0
 11 20  1  0
 12 21  1  0
 13 22  1  0
 14 23  1  0
 14 24  1  0
 15 25  1  0
 15 26  1  0
 16 27  1  0
M  ISO  8  17  14  18  14  19  14  20  14  21  14  22  14  23   8  24   8
M  ISO  3  25   8  26   8  27   3
M  END
>  <minimizedAffinity>  (1) 
-4.80740881

>  <minimizedRMSD>  (1) 
0.220040336

$$$$
