
     RDKit          3D

 30 32  0  0  0  0  0  0  0  0999 V2000
   45.9660   29.8610   44.9040 Br  0  0  0  0  0  0  0  0  0  0  0  0
   45.8050   30.5990   46.6650 C   0  0  0  0  0  0  0  0  0  0  0  0
   46.3590   31.8320   46.8760 C   0  0  0  0  0  0  0  0  0  0  0  0
   46.2310   32.3230   48.1720 C   0  0  0  0  0  0  0  0  0  0  0  0
   45.5910   31.6330   49.1910 C   0  0  0  0  0  0  0  0  0  0  0  0
   45.0540   30.3900   48.9020 C   0  0  0  0  0  0  0  0  0  0  0  0
   45.1580   29.8520   47.6110 C   0  0  0  0  0  0  0  0  0  0  0  0
   47.0580   32.6500   45.8720 C   0  0  0  0  0  0  0  0  0  0  0  0
   44.5000   35.3170   45.3950 C   0  0  0  0  0  0  0  0  0  0  0  0
   44.7100   35.6940   44.0610 C   0  0  0  0  0  0  0  0  0  0  0  0
   45.7210   35.0230   43.3670 C   0  0  0  0  0  0  0  0  0  0  0  0
   46.4410   34.0620   43.9830 N   0  0  0  0  0  0  0  0  0  0  0  0
   46.2000   33.7250   45.2980 C   0  0  0  0  0  0  0  0  0  0  0  0
   45.2280   34.3720   45.9600 N   0  0  0  0  0  0  0  0  0  0  0  0
   44.5240   28.5460   47.4900 C   0  0  0  0  0  0  0  0  0  0  0  0
   43.9090   28.1450   46.1740 C   0  0  0  0  0  0  0  0  0  0  0  0
   45.0770   27.3710   46.8270 C   0  0  0  0  0  0  0  0  0  0  0  0
   46.6598   33.3099   48.4002 H   0  0  0  0  0  0  0  0  0  0  0  0
   45.5123   32.0616   50.2010 H   0  0  0  0  0  0  0  0  0  0  0  0
   44.5418   29.8200   49.6911 H   0  0  0  0  0  0  0  0  0  0  0  0
   47.9334   33.1164   46.3475 H   0  0  0  0  0  0  0  0  0  0  0  0
   47.3464   31.9828   45.0464 H   0  0  0  0  0  0  0  0  0  0  0  0
   43.7149   35.8174   45.9809 H   0  0  0  0  0  0  0  0  0  0  0  0
   44.1076   36.4806   43.5831 H   0  0  0  0  0  0  0  0  0  0  0  0
   45.9299   35.2785   42.3177 H   0  0  0  0  0  0  0  0  0  0  0  0
   44.1857   28.6921   48.5264 H   0  0  0  0  0  0  0  0  0  0  0  0
   44.0768   28.7515   45.2718 H   0  0  0  0  0  0  0  0  0  0  0  0
   42.9000   27.9021   45.8095 H   0  0  0  0  0  0  0  0  0  0  0  0
   44.9050   26.3699   47.2491 H   0  0  0  0  0  0  0  0  0  0  0  0
   46.0820   27.0624   46.5032 H   0  0  0  0  0  0  0  0  0  0  0  0
  1  2  1  0
  2  3  2  0
  2  7  1  0
  3  4  1  0
  4  5  2  0
  6  5  1  0
  7  6  2  0
  8  3  1  0
  9 14  2  0
 10  9  1  0
 11 12  1  0
 11 10  2  0
 12 13  2  0
 13  8  1  0
 13 14  1  0
 15  7  1  0
 16 17  1  0
 16 15  1  0
 17 15  1  0
  4 18  1  0
  5 19  1  0
  6 20  1  0
  8 21  1  0
  8 22  1  0
  9 23  1  0
 10 24  1  0
 11 25  1  0
 15 26  1  0
 16 27  1  0
 16 28  1  0
 17 29  1  0
 17 30  1  0
M  ISO  8  18  14  19  14  20  14  21   8  22   8  23  14  24  14  25  14
M  ISO  5  26  13  27  13  28  13  29  13  30  13
M  END
>  <minimizedAffinity>  (1) 
-4.83662701

>  <minimizedRMSD>  (1) 
0.501700997

$$$$
