
     RDKit          3D

 41 43  0  0  1  0  0  0  0  0999 V2000
   45.7500   29.9100   44.8160 Br  0  0  0  0  0  0  0  0  0  0  0  0
   45.6960   30.5870   46.6290 C   0  0  0  0  0  0  0  0  0  0  0  0
   46.3260   31.7900   46.8320 C   0  0  0  0  0  0  0  0  0  0  0  0
   46.2670   32.2460   48.1480 C   0  0  0  0  0  0  0  0  0  0  0  0
   45.6360   31.5620   49.1720 C   0  0  0  0  0  0  0  0  0  0  0  0
   45.0350   30.3750   48.8830 C   0  0  0  0  0  0  0  0  0  0  0  0
   45.0540   29.8640   47.6030 C   0  0  0  0  0  0  0  0  0  0  0  0
   47.0240   32.6140   45.8620 C   0  0  0  0  0  0  0  0  0  0  0  0
   44.5190   35.3220   45.3870 C   0  0  0  0  0  0  0  0  0  0  0  0
   44.7330   35.7030   44.0680 C   0  0  0  0  0  0  0  0  0  0  0  0
   45.7250   35.0380   43.3540 C   0  0  0  0  0  0  0  0  0  0  0  0
   46.4290   34.0610   43.9670 N   0  0  0  0  0  0  0  0  0  0  0  0
   46.2000   33.6990   45.2730 C   0  0  0  0  0  0  0  0  0  0  0  0
   45.2340   34.3620   45.9390 N   0  0  0  0  0  0  0  0  0  0  0  0
   44.4360   28.6490   47.3260 O   0  0  0  0  0  0  0  0  0  0  0  0
   44.4790   26.0670   46.9490 O   0  0  0  0  0  0  0  0  0  0  0  0
   44.9990   27.1510   47.8740 P   0  0  2  0  0  0  0  0  0  0  0  0
   44.4260   26.9300   49.4310 O   0  0  0  0  0  0  0  0  0  0  0  0
   46.6890   27.0780   47.8400 O   0  0  0  0  0  0  0  0  0  0  0  0
   48.6850   25.9180   47.5770 C   0  0  1  0  0  0  0  0  0  0  0  0
   47.1740   25.8020   47.7820 C   0  0  1  0  0  0  0  0  0  0  0  0
   47.0870   25.0570   49.0920 C   0  0  0  0  0  0  0  0  0  0  0  0
   48.3730   24.5800   49.3420 O   0  0  0  0  0  0  0  0  0  0  0  0
   49.1530   25.6910   49.0180 C   0  0  0  0  0  0  0  0  0  0  0  0
   49.1210   24.8420   46.8300 O   0  0  0  0  0  0  0  0  0  0  0  0
   46.7500   33.2051   48.3862 H   0  0  0  0  0  0  0  0  0  0  0  0
   45.6203   31.9673   50.1945 H   0  0  0  0  0  0  0  0  0  0  0  0
   44.5270   29.8158   49.6825 H   0  0  0  0  0  0  0  0  0  0  0  0
   47.8909   33.0723   46.3604 H   0  0  0  0  0  0  0  0  0  0  0  0
   47.3079   31.9498   45.0324 H   0  0  0  0  0  0  0  0  0  0  0  0
   43.7422   35.8285   45.9787 H   0  0  0  0  0  0  0  0  0  0  0  0
   44.1382   36.5035   43.6039 H   0  0  0  0  0  0  0  0  0  0  0  0
   45.9329   35.3035   42.3069 H   0  0  0  0  0  0  0  0  0  0  0  0
   45.1231   27.1989   50.0805 H   0  0  0  0  0  0  0  0  0  0  0  0
   49.0228   26.8423   47.0855 H   0  0  0  0  0  0  0  0  0  0  0  0
   46.5962   25.2837   47.0026 H   0  0  0  0  0  0  0  0  0  0  0  0
   46.7659   25.7339   49.8974 H   0  0  0  0  0  0  0  0  0  0  0  0
   46.3530   24.2391   49.0454 H   0  0  0  0  0  0  0  0  0  0  0  0
   50.2286   25.4662   49.0694 H   0  0  0  0  0  0  0  0  0  0  0  0
   49.0380   26.5551   49.6889 H   0  0  0  0  0  0  0  0  0  0  0  0
   49.4149   24.1167   47.4364 H   0  0  0  0  0  0  0  0  0  0  0  0
  1  2  1  0
  2  3  2  0
  2  7  1  0
  3  4  1  0
  4  5  2  0
  6  5  1  0
  7  6  2  0
  8  3  1  0
  9 14  2  0
 10  9  1  0
 11 12  1  0
 11 10  2  0
 12 13  2  0
 13  8  1  0
 13 14  1  0
 15  7  1  0
 15 17  1  0
 17 16  2  0
 17 18  1  0
 19 17  1  0
 20 25  1  0
 20 21  1  0
 20 24  1  0
 21 19  1  0
 21 22  1  0
 22 23  1  0
 24 23  1  0
  4 26  1  0
  5 27  1  0
  6 28  1  0
  8 29  1  0
  8 30  1  0
  9 31  1  0
 10 32  1  0
 11 33  1  0
 18 34  1  0
 20 35  1  6
 21 36  1  6
 22 37  1  0
 22 38  1  0
 24 39  1  0
 24 40  1  0
 25 41  1  0
M  ISO  8  26  14  27  14  28  14  29   8  30   8  31  14  32  14  33  14
M  ISO  8  34   3  35  13  36  13  37  13  38  13  39  13  40  13  41   3
M  END
>  <minimizedAffinity>  (1) 
-5.21875238

>  <minimizedRMSD>  (1) 
1.42634141

$$$$
