
     RDKit          3D

 32 33  0  0  0  0  0  0  0  0999 V2000
   45.6300   29.9700   44.6990 Br  0  0  0  0  0  0  0  0  0  0  0  0
   45.6880   30.6820   46.4960 C   0  0  0  0  0  0  0  0  0  0  0  0
   46.3650   31.8680   46.6430 C   0  0  0  0  0  0  0  0  0  0  0  0
   46.3890   32.3590   47.9470 C   0  0  0  0  0  0  0  0  0  0  0  0
   45.7850   31.7100   49.0140 C   0  0  0  0  0  0  0  0  0  0  0  0
   45.1290   30.5310   48.7870 C   0  0  0  0  0  0  0  0  0  0  0  0
   45.0720   30.0000   47.5200 C   0  0  0  0  0  0  0  0  0  0  0  0
   47.0350   32.6420   45.6130 C   0  0  0  0  0  0  0  0  0  0  0  0
   44.5420   35.3880   45.2330 C   0  0  0  0  0  0  0  0  0  0  0  0
   44.7820   35.8140   43.9150 C   0  0  0  0  0  0  0  0  0  0  0  0
   45.7690   35.1690   43.1960 C   0  0  0  0  0  0  0  0  0  0  0  0
   46.4610   34.1660   43.7750 N   0  0  0  0  0  0  0  0  0  0  0  0
   46.2180   33.7580   45.0630 C   0  0  0  0  0  0  0  0  0  0  0  0
   45.2490   34.4020   45.7460 N   0  0  0  0  0  0  0  0  0  0  0  0
   44.4020   28.7980   47.2990 O   0  0  0  0  0  0  0  0  0  0  0  0
   44.4160   26.2410   46.8130 O   0  0  0  0  0  0  0  0  0  0  0  0
   45.0270   27.2890   47.7350 P   0  0  2  0  0  0  0  0  0  0  0  0
   44.6010   26.9830   49.3170 O   0  0  0  0  0  0  0  0  0  0  0  0
   46.6980   27.2090   47.5210 O   0  0  0  0  0  0  0  0  0  0  0  0
   47.0670   26.7600   46.2760 C   0  0  0  0  0  0  0  0  0  0  0  0
   46.9123   33.3072   48.1396 H   0  0  0  0  0  0  0  0  0  0  0  0
   45.8327   32.1366   50.0268 H   0  0  0  0  0  0  0  0  0  0  0  0
   44.6445   30.0050   49.6228 H   0  0  0  0  0  0  0  0  0  0  0  0
   47.9544   33.0662   46.0429 H   0  0  0  0  0  0  0  0  0  0  0  0
   47.2343   31.9537   44.7784 H   0  0  0  0  0  0  0  0  0  0  0  0
   43.7636   35.8782   45.8361 H   0  0  0  0  0  0  0  0  0  0  0  0
   44.2016   36.6357   43.4701 H   0  0  0  0  0  0  0  0  0  0  0  0
   45.9888   35.4702   42.1611 H   0  0  0  0  0  0  0  0  0  0  0  0
   45.2362   27.4393   49.9240 H   0  0  0  0  0  0  0  0  0  0  0  0
   47.7621   25.9142   46.3824 H   0  0  0  0  0  0  0  0  0  0  0  0
   46.1733   26.4329   45.7244 H   0  0  0  0  0  0  0  0  0  0  0  0
   47.5610   27.5734   45.7244 H   0  0  0  0  0  0  0  0  0  0  0  0
  1  2  1  0
  2  3  2  0
  2  7  1  0
  3  4  1  0
  4  5  2  0
  6  5  1  0
  7  6  2  0
  8  3  1  0
  9 14  2  0
 10  9  1  0
 11 12  1  0
 11 10  2  0
 12 13  2  0
 13  8  1  0
 13 14  1  0
 15  7  1  0
 15 17  1  0
 17 16  2  0
 17 18  1  0
 19 17  1  0
 20 19  1  0
  4 21  1  0
  5 22  1  0
  6 23  1  0
  8 24  1  0
  8 25  1  0
  9 26  1  0
 10 27  1  0
 11 28  1  0
 18 29  1  0
 20 30  1  0
 20 31  1  0
 20 32  1  0
M  ISO  8  21  14  22  14  23  14  24   8  25   8  26  14  27  14  28  14
M  ISO  4  29   3  30   8  31   8  32   8
M  END
>  <minimizedAffinity>  (1) 
-4.83193874

>  <minimizedRMSD>  (1) 
0.386985272

$$$$
