
     RDKit          3D

 26 27  0  0  1  0  0  0  0  0999 V2000
   42.1720   35.0200   41.3650 C   0  0  0  0  0  0  0  0  0  0  0  0
   39.2610   34.8610   39.9780 C   0  0  1  0  0  0  0  0  0  0  0  0
   40.1700   36.0000   40.4360 C   0  0  0  0  0  0  0  0  0  0  0  0
   41.5400   35.4450   40.0790 C   0  0  2  0  0  0  0  0  0  0  0  0
   41.3250   34.3360   39.2750 O   0  0  0  0  0  0  0  0  0  0  0  0
   40.0580   34.4190   38.7450 C   0  0  0  0  0  0  0  0  0  0  0  0
   39.3190   33.8380   40.9060 O   0  0  0  0  0  0  0  0  0  0  0  0
   43.9210   35.3650   41.5100 S   0  0  0  0  0  0  0  0  0  0  0  0
   44.2820   35.7290   44.2210 C   0  0  0  0  0  0  0  0  0  0  0  0
   44.4840   34.8620   43.1530 C   0  0  0  0  0  0  0  0  0  0  0  0
   45.1020   33.6420   43.3280 C   0  0  0  0  0  0  0  0  0  0  0  0
   45.5020   33.3410   44.6110 N   0  0  0  0  0  0  0  0  0  0  0  0
   45.2930   34.1960   45.6170 C   0  0  0  0  0  0  0  0  0  0  0  0
   44.7030   35.3720   45.4730 N   0  0  0  0  0  0  0  0  0  0  0  0
   42.0302   33.9343   41.4705 H   0  0  0  0  0  0  0  0  0  0  0  0
   41.6803   35.6083   42.1537 H   0  0  0  0  0  0  0  0  0  0  0  0
   38.2028   35.1195   39.8253 H   0  0  0  0  0  0  0  0  0  0  0  0
   39.9570   36.9306   39.8895 H   0  0  0  0  0  0  0  0  0  0  0  0
   40.0547   36.2719   41.4956 H   0  0  0  0  0  0  0  0  0  0  0  0
   42.1801   36.1722   39.5580 H   0  0  0  0  0  0  0  0  0  0  0  0
   40.0042   35.1655   37.9389 H   0  0  0  0  0  0  0  0  0  0  0  0
   39.6975   33.4908   38.2776 H   0  0  0  0  0  0  0  0  0  0  0  0
   39.2974   34.2194   41.8193 H   0  0  0  0  0  0  0  0  0  0  0  0
   43.7860   36.6976   44.0602 H   0  0  0  0  0  0  0  0  0  0  0  0
   45.2663   32.9483   42.4903 H   0  0  0  0  0  0  0  0  0  0  0  0
   45.6309   33.9054   46.6227 H   0  0  0  0  0  0  0  0  0  0  0  0
  1  8  1  0
  2  3  1  0
  2  7  1  0
  4  3  1  0
  4  1  1  0
  5  4  1  0
  6  5  1  0
  6  2  1  0
  8 10  1  0
  9 14  2  0
 10 11  2  0
 10  9  1  0
 11 12  1  0
 12 13  2  0
 14 13  1  0
  1 15  1  0
  1 16  1  0
  2 17  1  6
  3 18  1  0
  3 19  1  0
  4 20  1  6
  6 21  1  0
  6 22  1  0
  7 23  1  0
  9 24  1  0
 11 25  1  0
 13 26  1  0
M  ISO  8  15   8  16   8  17  13  18  13  19  13  20  13  21  13  22  13
M  ISO  4  23   3  24  14  25  14  26  14
M  END
>  <minimizedAffinity>  (1) 
-4.31293106

>  <minimizedRMSD>  (1) 
3.2599504

$$$$
