
     RDKit          3D

 22 22  0  0  0  0  0  0  0  0999 V2000
   42.4900   33.8060   41.1330 S   0  0  0  0  0  0  0  0  0  0  0  0
   39.8270   34.0730   40.4220 C   0  0  0  0  0  0  0  0  0  0  0  0
   41.1380   34.0610   39.9610 C   0  0  0  0  0  0  0  0  0  0  0  0
   41.4250   34.2450   38.6030 C   0  0  0  0  0  0  0  0  0  0  0  0
   40.3510   34.4320   37.7810 N   0  0  0  0  0  0  0  0  0  0  0  0
   39.1090   34.4360   38.2650 C   0  0  0  0  0  0  0  0  0  0  0  0
   38.8010   34.2660   39.5450 N   0  0  0  0  0  0  0  0  0  0  0  0
   43.7280   35.0790   40.8930 C   0  0  0  0  0  0  0  0  0  0  0  0
   43.5690   36.0530   41.9760 N   0  0  0  0  0  0  0  0  0  0  0  0
   44.8500   35.9240   43.1280 S   0  0  0  0  0  0  0  0  0  0  0  0
   45.9840   35.1190   42.6230 O   0  0  0  0  0  0  0  0  0  0  0  0
   45.2810   37.3520   43.4180 O   0  0  0  0  0  0  0  0  0  0  0  0
   44.2230   35.3480   44.5760 O   0  0  0  0  0  0  0  0  0  0  0  0
   39.6175   33.9271   41.4920 H   0  0  0  0  0  0  0  0  0  0  0  0
   42.4563   34.2392   38.2204 H   0  0  0  0  0  0  0  0  0  0  0  0
   38.2829   34.5907   37.5553 H   0  0  0  0  0  0  0  0  0  0  0  0
   44.7345   34.6366   40.9297 H   0  0  0  0  0  0  0  0  0  0  0  0
   43.6031   35.5631   39.9132 H   0  0  0  0  0  0  0  0  0  0  0  0
   43.5711   37.0024   41.5766 H   0  0  0  0  0  0  0  0  0  0  0  0
   46.4967   34.7550   43.3877 H   0  0  0  0  0  0  0  0  0  0  0  0
   45.3231   37.4916   44.3972 H   0  0  0  0  0  0  0  0  0  0  0  0
   44.6923   35.7792   45.3336 H   0  0  0  0  0  0  0  0  0  0  0  0
  3  2  2  0
  3  1  1  0
  4  3  1  0
  5  6  1  0
  5  4  2  0
  6  7  2  0
  7  2  1  0
  8  1  1  0
  8  9  1  0
  9 10  1  0
 10 12  1  0
 10 13  1  0
 11 10  1  0
  2 14  1  0
  4 15  1  0
  6 16  1  0
  8 17  1  0
  8 18  1  0
  9 19  1  0
 11 20  1  0
 12 21  1  0
 13 22  1  0
M  ISO  8  14  14  15  14  16  14  17   8  18   8  19   5  20   3  21   3
M  ISO  1  22   3
M  END
>  <minimizedAffinity>  (1) 
-3.85735726

>  <minimizedRMSD>  (1) 
5.88244343

$$$$
