
     RDKit          3D

 32 33  0  0  0  0  0  0  0  0999 V2000
   43.5280   34.1390   40.7980 S   0  0  0  0  0  0  0  0  0  0  0  0
   41.6780   32.1810   41.4970 C   0  0  0  0  0  0  0  0  0  0  0  0
   41.8620   33.4370   40.9380 C   0  0  0  0  0  0  0  0  0  0  0  0
   40.7830   34.1680   40.4810 C   0  0  0  0  0  0  0  0  0  0  0  0
   39.5510   33.5970   40.6090 N   0  0  0  0  0  0  0  0  0  0  0  0
   39.4000   32.3810   41.1550 C   0  0  0  0  0  0  0  0  0  0  0  0
   40.4350   31.6720   41.5960 N   0  0  0  0  0  0  0  0  0  0  0  0
   38.1540   31.8100   41.2820 O   0  0  0  0  0  0  0  0  0  0  0  0
   37.8700   30.4850   40.9770 C   0  0  0  0  0  0  0  0  0  0  0  0
   37.7530   30.1670   39.6670 C   0  0  0  0  0  0  0  0  0  0  0  0
   37.3880   28.3830   39.7010 S   0  0  0  0  0  0  0  0  0  0  0  0
   37.4640   28.3850   41.6210 C   0  0  0  0  0  0  0  0  0  0  0  0
   37.6940   29.4740   41.7920 N   0  0  0  0  0  0  0  0  0  0  0  0
   43.5510   35.7450   41.5890 C   0  0  0  0  0  0  0  0  0  0  0  0
   43.3630   35.5310   43.0280 N   0  0  0  0  0  0  0  0  0  0  0  0
   44.7840   35.8570   43.9240 S   0  0  0  0  0  0  0  0  0  0  0  0
   46.0030   35.3380   43.2440 O   0  0  0  0  0  0  0  0  0  0  0  0
   44.8850   37.3630   44.0500 O   0  0  0  0  0  0  0  0  0  0  0  0
   44.6270   35.2470   45.4710 O   0  0  0  0  0  0  0  0  0  0  0  0
   45.3810   34.1110   45.6710 C   0  0  0  0  0  0  0  0  0  0  0  0
   42.5423   31.6039   41.8574 H   0  0  0  0  0  0  0  0  0  0  0  0
   40.9113   35.1650   40.0343 H   0  0  0  0  0  0  0  0  0  0  0  0
   37.8540   30.8267   38.7926 H   0  0  0  0  0  0  0  0  0  0  0  0
   37.3242   27.5648   42.3405 H   0  0  0  0  0  0  0  0  0  0  0  0
   44.5162   36.2399   41.4059 H   0  0  0  0  0  0  0  0  0  0  0  0
   42.7539   36.3868   41.1856 H   0  0  0  0  0  0  0  0  0  0  0  0
   42.6120   36.1529   43.3601 H   0  0  0  0  0  0  0  0  0  0  0  0
   46.6653   35.0560   43.9237 H   0  0  0  0  0  0  0  0  0  0  0  0
   44.9018   37.6136   45.0076 H   0  0  0  0  0  0  0  0  0  0  0  0
   45.4984   33.9341   46.7503 H   0  0  0  0  0  0  0  0  0  0  0  0
   44.8749   33.2494   45.2112 H   0  0  0  0  0  0  0  0  0  0  0  0
   46.3716   34.2427   45.2112 H   0  0  0  0  0  0  0  0  0  0  0  0
  1  3  1  0
  1 14  1  0
  2  7  2  0
  3  2  1  0
  4  5  1  0
  4  3  2  0
  5  6  2  0
  6  8  1  0
  6  7  1  0
  9  8  1  0
  9 13  1  0
 10 11  1  0
 10  9  2  0
 11 12  1  0
 12 13  2  0
 14 15  1  0
 15 16  1  0
 16 18  1  0
 16 19  1  0
 17 16  1  0
 19 20  1  0
  2 21  1  0
  4 22  1  0
 10 23  1  0
 12 24  1  0
 14 25  1  0
 14 26  1  0
 15 27  1  0
 17 28  1  0
 18 29  1  0
 20 30  1  0
 20 31  1  0
 20 32  1  0
M  ISO  8  21  14  22  14  23  14  24  14  25   8  26   8  27   5  28   3
M  ISO  4  29   3  30   8  31   8  32   8
M  END
>  <minimizedAffinity>  (1) 
-4.88892841

>  <minimizedRMSD>  (1) 
1.8231014

$$$$
