
     RDKit          3D

 26 27  0  0  0  0  0  0  0  0999 V2000
   46.3870   35.3200   42.7840 C   0  0  0  0  0  0  0  0  0  0  0  0
   46.8370   34.2170   43.5100 C   0  0  0  0  0  0  0  0  0  0  0  0
   46.1120   33.8330   44.6390 C   0  0  0  0  0  0  0  0  0  0  0  0
   45.0000   34.5500   44.9860 N   0  0  0  0  0  0  0  0  0  0  0  0
   44.6020   35.6170   44.2500 C   0  0  0  0  0  0  0  0  0  0  0  0
   45.2830   35.9950   43.1680 N   0  0  0  0  0  0  0  0  0  0  0  0
   46.4770   32.7310   45.4490 N   0  0  0  0  0  0  0  0  0  0  0  0
   46.8480   32.7450   46.8550 C   0  0  0  0  0  0  0  0  0  0  0  0
   46.3100   31.5500   47.5810 C   0  0  0  0  0  0  0  0  0  0  0  0
   45.3170   30.8060   46.9120 N   0  0  0  0  0  0  0  0  0  0  0  0
   45.4970   30.5560   45.5360 C   0  0  0  0  0  0  0  0  0  0  0  0
   46.4880   31.4240   44.8180 C   0  0  0  0  0  0  0  0  0  0  0  0
   48.0000   33.4880   43.1250 C   0  0  0  0  0  0  0  0  0  0  0  0
   49.0640   34.1440   42.9350 O   0  0  0  0  0  0  0  0  0  0  0  0
   46.9381   35.6433   41.8886 H   0  0  0  0  0  0  0  0  0  0  0  0
   43.7049   36.1785   44.5498 H   0  0  0  0  0  0  0  0  0  0  0  0
   47.9451   32.7464   46.9344 H   0  0  0  0  0  0  0  0  0  0  0  0
   46.4189   33.6477   47.3143 H   0  0  0  0  0  0  0  0  0  0  0  0
   47.1538   30.8745   47.7854 H   0  0  0  0  0  0  0  0  0  0  0  0
   45.8195   31.9504   48.4805 H   0  0  0  0  0  0  0  0  0  0  0  0
   45.2476   29.8929   47.3835 H   0  0  0  0  0  0  0  0  0  0  0  0
   45.8274   29.5124   45.4271 H   0  0  0  0  0  0  0  0  0  0  0  0
   44.5255   30.7809   45.0716 H   0  0  0  0  0  0  0  0  0  0  0  0
   46.2044   31.5179   43.7593 H   0  0  0  0  0  0  0  0  0  0  0  0
   47.4937   30.9816   44.8713 H   0  0  0  0  0  0  0  0  0  0  0  0
   47.9727   32.3957   42.9980 H   0  0  0  0  0  0  0  0  0  0  0  0
  1  6  2  0
  1  2  1  0
  2  3  2  0
  3  4  1  0
  3  7  1  0
  5  4  2  0
  6  5  1  0
  7  8  1  0
  8  9  1  0
 10  9  1  0
 11 10  1  0
 12  7  1  0
 12 11  1  0
 13  2  1  0
 14 13  2  0
  1 15  1  0
  5 16  1  0
  8 17  1  0
  8 18  1  0
  9 19  1  0
  9 20  1  0
 10 21  1  0
 11 22  1  0
 11 23  1  0
 12 24  1  0
 12 25  1  0
 13 26  1  0
M  ISO  8  15  14  16  14  17  13  18  13  19  13  20  13  21   5  22  13
M  ISO  4  23  13  24  13  25  13  26   6
M  END
>  <minimizedAffinity>  (1) 
-3.99123096

>  <minimizedRMSD>  (1) 
2.37724829

$$$$
