
     RDKit          3D

 46 48  0  0  0  0  0  0  0  0999 V2000
   44.6850   35.7760   44.4710 C   0  0  0  0  0  0  0  0  0  0  0  0
   44.0480   35.8990   43.2140 C   0  0  0  0  0  0  0  0  0  0  0  0
   44.0540   34.7810   42.4050 C   0  0  0  0  0  0  0  0  0  0  0  0
   44.6500   33.6490   42.8300 N   0  0  0  0  0  0  0  0  0  0  0  0
   45.2430   33.5980   44.0490 C   0  0  0  0  0  0  0  0  0  0  0  0
   45.2670   34.6200   44.8530 N   0  0  0  0  0  0  0  0  0  0  0  0
   45.8730   32.3190   44.4400 C   0  0  0  0  0  0  0  0  0  0  0  0
   46.6940   32.5390   45.6750 C   0  0  0  0  0  0  0  0  0  0  0  0
   46.1390   31.8680   46.8330 C   0  0  0  0  0  0  0  0  0  0  0  0
   45.3440   32.3970   47.8370 C   0  0  0  0  0  0  0  0  0  0  0  0
   44.8710   31.6700   48.8840 C   0  0  0  0  0  0  0  0  0  0  0  0
   45.1950   30.3480   48.9500 C   0  0  0  0  0  0  0  0  0  0  0  0
   45.9930   29.7960   47.9520 C   0  0  0  0  0  0  0  0  0  0  0  0
   46.4590   30.5460   46.9100 C   0  0  0  0  0  0  0  0  0  0  0  0
   48.5870   29.4570   46.5500 C   0  0  0  0  0  0  0  0  0  0  0  0
   49.3550   29.8230   47.5320 O   0  0  0  0  0  0  0  0  0  0  0  0
   47.2440   29.6890   46.0720 N   0  0  0  0  0  0  0  0  0  0  0  0
   43.3840   34.9190   41.0900 C   0  0  0  0  0  0  0  0  0  0  0  0
   42.0340   35.6070   41.2270 C   0  0  0  0  0  0  0  0  0  0  0  0
   41.1060   35.2240   40.1480 C   0  0  0  0  0  0  0  0  0  0  0  0
   39.8580   34.7670   40.5830 C   0  0  0  0  0  0  0  0  0  0  0  0
   38.9470   34.3940   39.6030 C   0  0  0  0  0  0  0  0  0  0  0  0
   39.2110   34.4510   38.2490 C   0  0  0  0  0  0  0  0  0  0  0  0
   40.4720   34.9140   37.8600 C   0  0  0  0  0  0  0  0  0  0  0  0
   41.4210   35.3010   38.8080 C   0  0  0  0  0  0  0  0  0  0  0  0
   44.7064   36.6404   45.1510 H   0  0  0  0  0  0  0  0  0  0  0  0
   43.5718   36.8386   42.8973 H   0  0  0  0  0  0  0  0  0  0  0  0
   45.0931   31.5704   44.6436 H   0  0  0  0  0  0  0  0  0  0  0  0
   46.5163   31.9562   43.6248 H   0  0  0  0  0  0  0  0  0  0  0  0
   47.7095   32.1554   45.4973 H   0  0  0  0  0  0  0  0  0  0  0  0
   46.7024   33.6188   45.8846 H   0  0  0  0  0  0  0  0  0  0  0  0
   45.0811   33.4638   47.7840 H   0  0  0  0  0  0  0  0  0  0  0  0
   44.2433   32.1366   49.6575 H   0  0  0  0  0  0  0  0  0  0  0  0
   44.8309   29.7256   49.7807 H   0  0  0  0  0  0  0  0  0  0  0  0
   46.2549   28.7289   48.0038 H   0  0  0  0  0  0  0  0  0  0  0  0
   49.1189   28.7626   45.8830 H   0  0  0  0  0  0  0  0  0  0  0  0
   46.8812   29.2735   45.2022 H   0  0  0  0  0  0  0  0  0  0  0  0
   43.2342   33.9188   40.6575 H   0  0  0  0  0  0  0  0  0  0  0  0
   44.0222   35.5334   40.4379 H   0  0  0  0  0  0  0  0  0  0  0  0
   41.5895   35.3272   42.1935 H   0  0  0  0  0  0  0  0  0  0  0  0
   42.1985   36.6928   41.1636 H   0  0  0  0  0  0  0  0  0  0  0  0
   39.6090   34.7057   41.6527 H   0  0  0  0  0  0  0  0  0  0  0  0
   37.9589   34.0326   39.9240 H   0  0  0  0  0  0  0  0  0  0  0  0
   38.4598   34.1446   37.5062 H   0  0  0  0  0  0  0  0  0  0  0  0
   40.7201   34.9742   36.7900 H   0  0  0  0  0  0  0  0  0  0  0  0
   42.4094   35.6635   38.4892 H   0  0  0  0  0  0  0  0  0  0  0  0
  1  6  2  0
  2  1  1  0
  3  4  1  0
  3  2  2  0
  4  5  2  0
  5  7  1  0
  5  6  1  0
  7  8  1  0
  8  9  1  0
  9 14  1  0
  9 10  2  0
 10 11  1  0
 11 12  2  0
 13 12  1  0
 14 13  2  0
 15 16  2  0
 17 15  1  0
 17 14  1  0
 18 19  1  0
 18  3  1  0
 20 21  2  0
 20 19  1  0
 22 21  1  0
 23 22  2  0
 24 23  1  0
 24 25  2  0
 25 20  1  0
  1 26  1  0
  2 27  1  0
  7 28  1  0
  7 29  1  0
  8 30  1  0
  8 31  1  0
 10 32  1  0
 11 33  1  0
 12 34  1  0
 13 35  1  0
 15 36  1  0
 17 37  1  0
 18 38  1  0
 18 39  1  0
 19 40  1  0
 19 41  1  0
 21 42  1  0
 22 43  1  0
 23 44  1  0
 24 45  1  0
 25 46  1  0
M  ISO  8  26  14  27  14  28   8  29   8  30   8  31   8  32  14  33  14
M  ISO  8  34  14  35  14  36   6  38   8  39   8  40   8  41   8  42  14
M  ISO  4  43  14  44  14  45  14  46  14
M  END
>  <minimizedAffinity>  (1) 
-6.2826066

>  <minimizedRMSD>  (1) 
0.932431102

$$$$
