
     RDKit          3D

 35 38  0  0  1  0  0  0  0  0999 V2000
   46.0460   35.9570   42.9770 C   0  0  0  0  0  0  0  0  0  0  0  0
   46.4230   34.6540   43.3840 C   0  0  0  0  0  0  0  0  0  0  0  0
   45.7090   34.1360   44.4370 C   0  0  0  0  0  0  0  0  0  0  0  0
   44.7190   34.8190   45.0350 N   0  0  0  0  0  0  0  0  0  0  0  0
   44.3900   36.0690   44.6080 C   0  0  0  0  0  0  0  0  0  0  0  0
   45.0560   36.6300   43.5830 N   0  0  0  0  0  0  0  0  0  0  0  0
   46.0260   32.8620   44.8880 C   0  0  0  0  0  0  0  0  0  0  0  0
   45.8830   31.5960   44.4010 C   0  0  0  0  0  0  0  0  0  0  0  0
   46.2500   30.4960   45.0220 C   0  0  0  0  0  0  0  0  0  0  0  0
   46.8250   30.6710   46.2590 C   0  0  0  0  0  0  0  0  0  0  0  0
   46.7980   32.5070   46.4580 S   0  0  0  0  0  0  0  0  0  0  0  0
   47.4620   34.0200   42.6640 C   0  0  0  0  0  0  0  0  0  0  0  0
   48.4560   33.6380   43.4340 O   0  0  0  0  0  0  0  0  0  0  0  0
   46.3730   33.0040   40.7590 C   0  0  0  0  0  0  0  0  0  0  0  0
   47.4160   33.8370   41.2100 C   0  0  0  0  0  0  0  0  0  0  0  0
   48.1760   34.3300   40.1890 C   0  0  0  0  0  0  0  0  0  0  0  0
   48.0590   34.1290   38.8470 C   0  0  0  0  0  0  0  0  0  0  0  0
   48.7380   34.5630   37.7880 N   0  0  0  0  0  0  0  0  0  0  0  0
   48.1600   34.0360   36.7130 C   0  0  0  0  0  0  0  0  0  0  0  0
   47.0760   33.2370   37.0830 C   0  0  0  0  0  0  0  0  0  0  0  0
   47.0190   33.3060   38.4820 C   0  0  0  0  0  0  0  0  0  0  0  0
   46.1590   32.7280   39.4050 C   0  0  0  0  0  0  0  0  0  0  0  0
   46.5800   36.4309   42.1402 H   0  0  0  0  0  0  0  0  0  0  0  0
   43.5775   36.6216   45.1025 H   0  0  0  0  0  0  0  0  0  0  0  0
   45.4232   31.4859   43.4078 H   0  0  0  0  0  0  0  0  0  0  0  0
   46.1061   29.4991   44.5798 H   0  0  0  0  0  0  0  0  0  0  0  0
   47.2054   29.9089   46.9550 H   0  0  0  0  0  0  0  0  0  0  0  0
   47.9521   34.9933   42.5142 H   0  0  0  0  0  0  0  0  0  0  0  0
   48.1951   33.7383   44.3837 H   0  0  0  0  0  0  0  0  0  0  0  0
   45.6996   32.5524   41.5023 H   0  0  0  0  0  0  0  0  0  0  0  0
   49.0045   34.9858   40.4949 H   0  0  0  0  0  0  0  0  0  0  0  0
   49.5562   35.1886   37.7991 H   0  0  0  0  0  0  0  0  0  0  0  0
   48.4894   34.2055   35.6773 H   0  0  0  0  0  0  0  0  0  0  0  0
   46.4074   32.6722   36.4167 H   0  0  0  0  0  0  0  0  0  0  0  0
   45.3357   32.0739   39.0820 H   0  0  0  0  0  0  0  0  0  0  0  0
  1  2  2  0
  1  6  1  0
  2  3  1  0
  3  7  1  0
  3  4  2  0
  5  4  1  0
  6  5  2  0
  7 11  1  0
  8  7  2  0
  8  9  1  0
  9 10  2  0
 10 11  1  0
 12  2  1  0
 12 13  1  0
 14 15  2  0
 15 12  1  0
 16 15  1  0
 17 16  2  0
 18 17  1  0
 19 20  2  0
 19 18  1  0
 20 21  1  0
 21 17  1  0
 21 22  2  0
 22 14  1  0
  1 23  1  0
  5 24  1  0
  8 25  1  0
  9 26  1  0
 10 27  1  0
 12 28  1  0
 13 29  1  0
 14 30  1  0
 16 31  1  0
 18 32  1  0
 19 33  1  0
 20 34  1  0
 22 35  1  0
M  ISO  8  23  14  24  14  25  14  26  14  27  14  28   8  29   3  30  14
M  ISO  5  31  14  32   9  33  14  34  14  35  14
M  END
>  <minimizedAffinity>  (1) 
-5.36859703

>  <minimizedRMSD>  (1) 
2.14747167

$$$$
