
     RDKit          3D

 45 47  0  0  0  0  0  0  0  0999 V2000
   44.6930   35.7800   44.5790 C   0  0  0  0  0  0  0  0  0  0  0  0
   44.0590   35.9400   43.3240 C   0  0  0  0  0  0  0  0  0  0  0  0
   44.0610   34.8470   42.4830 C   0  0  0  0  0  0  0  0  0  0  0  0
   44.6470   33.6960   42.8690 N   0  0  0  0  0  0  0  0  0  0  0  0
   45.2370   33.6070   44.0840 C   0  0  0  0  0  0  0  0  0  0  0  0
   45.2680   34.6030   44.9240 N   0  0  0  0  0  0  0  0  0  0  0  0
   45.8580   32.3120   44.4380 C   0  0  0  0  0  0  0  0  0  0  0  0
   46.7030   32.5000   45.6730 C   0  0  0  0  0  0  0  0  0  0  0  0
   46.1360   31.8310   46.8260 C   0  0  0  0  0  0  0  0  0  0  0  0
   45.3890   32.3590   47.8490 C   0  0  0  0  0  0  0  0  0  0  0  0
   44.9000   31.6390   48.8870 C   0  0  0  0  0  0  0  0  0  0  0  0
   45.1680   30.2930   48.9210 C   0  0  0  0  0  0  0  0  0  0  0  0
   45.9160   29.7440   47.9070 C   0  0  0  0  0  0  0  0  0  0  0  0
   46.4010   30.4930   46.8660 C   0  0  0  0  0  0  0  0  0  0  0  0
   48.4790   29.3490   46.4030 C   0  0  0  0  0  0  0  0  0  0  0  0
   49.3060   29.6920   47.3170 O   0  0  0  0  0  0  0  0  0  0  0  0
   47.1350   29.6210   45.9890 N   0  0  0  0  0  0  0  0  0  0  0  0
   43.3940   35.0250   41.1660 C   0  0  0  0  0  0  0  0  0  0  0  0
   41.9800   35.5460   41.3290 C   0  0  0  0  0  0  0  0  0  0  0  0
   41.1240   35.2030   40.1800 C   0  0  0  0  0  0  0  0  0  0  0  0
   41.4610   35.3080   38.8380 C   0  0  0  0  0  0  0  0  0  0  0  0
   40.4990   34.9290   37.9200 C   0  0  0  0  0  0  0  0  0  0  0  0
   39.2740   34.4730   38.3640 C   0  0  0  0  0  0  0  0  0  0  0  0
   38.9480   34.3720   39.7030 C   0  0  0  0  0  0  0  0  0  0  0  0
   39.9130   34.7510   40.5560 N   0  0  0  0  0  0  0  0  0  0  0  0
   44.7193   36.6235   45.2845 H   0  0  0  0  0  0  0  0  0  0  0  0
   43.5874   36.8903   43.0333 H   0  0  0  0  0  0  0  0  0  0  0  0
   45.0730   31.5676   44.6369 H   0  0  0  0  0  0  0  0  0  0  0  0
   46.4850   31.9583   43.6063 H   0  0  0  0  0  0  0  0  0  0  0  0
   47.7061   32.0906   45.4826 H   0  0  0  0  0  0  0  0  0  0  0  0
   46.7477   33.5768   45.8932 H   0  0  0  0  0  0  0  0  0  0  0  0
   45.1732   33.4374   47.8245 H   0  0  0  0  0  0  0  0  0  0  0  0
   44.3059   32.1185   49.6790 H   0  0  0  0  0  0  0  0  0  0  0  0
   44.7917   29.6665   49.7432 H   0  0  0  0  0  0  0  0  0  0  0  0
   46.1331   28.6659   47.9315 H   0  0  0  0  0  0  0  0  0  0  0  0
   48.9445   28.6187   45.7248 H   0  0  0  0  0  0  0  0  0  0  0  0
   46.7266   29.2235   45.1311 H   0  0  0  0  0  0  0  0  0  0  0  0
   43.3608   34.0554   40.6475 H   0  0  0  0  0  0  0  0  0  0  0  0
   43.9689   35.7595   40.5829 H   0  0  0  0  0  0  0  0  0  0  0  0
   41.5438   35.1079   42.2388 H   0  0  0  0  0  0  0  0  0  0  0  0
   42.0302   36.6428   41.3969 H   0  0  0  0  0  0  0  0  0  0  0  0
   42.4476   35.6756   38.5193 H   0  0  0  0  0  0  0  0  0  0  0  0
   40.7086   34.9905   36.8419 H   0  0  0  0  0  0  0  0  0  0  0  0
   38.5227   34.1763   37.6174 H   0  0  0  0  0  0  0  0  0  0  0  0
   37.9683   34.0073   40.0454 H   0  0  0  0  0  0  0  0  0  0  0  0
  1  6  2  0
  2  1  1  0
  3  4  1  0
  3  2  2  0
  4  5  2  0
  5  7  1  0
  5  6  1  0
  7  8  1  0
  8  9  1  0
  9 14  1  0
  9 10  2  0
 10 11  1  0
 11 12  2  0
 13 12  1  0
 14 13  2  0
 15 16  2  0
 17 15  1  0
 17 14  1  0
 18 19  1  0
 18  3  1  0
 20 25  1  0
 20 19  1  0
 21 20  2  0
 22 23  2  0
 22 21  1  0
 23 24  1  0
 24 25  2  0
  1 26  1  0
  2 27  1  0
  7 28  1  0
  7 29  1  0
  8 30  1  0
  8 31  1  0
 10 32  1  0
 11 33  1  0
 12 34  1  0
 13 35  1  0
 15 36  1  0
 17 37  1  0
 18 38  1  0
 18 39  1  0
 19 40  1  0
 19 41  1  0
 21 42  1  0
 22 43  1  0
 23 44  1  0
 24 45  1  0
M  ISO  8  26  14  27  14  28   8  29   8  30   8  31   8  32  14  33  14
M  ISO  8  34  14  35  14  36   6  38   8  39   8  40   8  41   8  42  14
M  ISO  3  43  14  44  14  45  14
M  END
>  <minimizedAffinity>  (1) 
-6.00749302

>  <minimizedRMSD>  (1) 
0.900883019

$$$$
