
     RDKit          3D

 26 28  0  0  0  0  0  0  0  0999 V2000
   45.1220   36.0500   43.4860 C   0  0  0  0  0  0  0  0  0  0  0  0
   45.8770   34.9130   43.1520 C   0  0  0  0  0  0  0  0  0  0  0  0
   45.9750   33.9480   44.1370 C   0  0  0  0  0  0  0  0  0  0  0  0
   45.3880   34.0860   45.3370 N   0  0  0  0  0  0  0  0  0  0  0  0
   44.6610   35.2090   45.6250 C   0  0  0  0  0  0  0  0  0  0  0  0
   44.5350   36.1840   44.6900 N   0  0  0  0  0  0  0  0  0  0  0  0
   46.7160   32.7990   43.8710 C   0  0  0  0  0  0  0  0  0  0  0  0
   48.0220   32.5460   43.5040 C   0  0  0  0  0  0  0  0  0  0  0  0
   48.5000   31.3190   43.2980 C   0  0  0  0  0  0  0  0  0  0  0  0
   47.5980   30.3100   43.4780 C   0  0  0  0  0  0  0  0  0  0  0  0
   46.0340   31.1500   43.9520 S   0  0  0  0  0  0  0  0  0  0  0  0
   46.4460   34.8280   41.8540 C   0  0  0  0  0  0  0  0  0  0  0  0
   47.6470   35.2690   41.7430 O   0  0  0  0  0  0  0  0  0  0  0  0
   45.5780   34.2380   40.7490 C   0  0  0  0  0  0  0  0  0  0  0  0
   45.3450   32.8070   40.6310 C   0  0  0  0  0  0  0  0  0  0  0  0
   46.3170   33.4080   39.7140 C   0  0  0  0  0  0  0  0  0  0  0  0
   45.0074   36.8530   42.7430 H   0  0  0  0  0  0  0  0  0  0  0  0
   44.1816   35.3205   46.6087 H   0  0  0  0  0  0  0  0  0  0  0  0
   48.7030   33.4002   43.3749 H   0  0  0  0  0  0  0  0  0  0  0  0
   49.5438   31.1331   43.0047 H   0  0  0  0  0  0  0  0  0  0  0  0
   47.7701   29.2295   43.3641 H   0  0  0  0  0  0  0  0  0  0  0  0
   44.8996   35.1035   40.7775 H   0  0  0  0  0  0  0  0  0  0  0  0
   45.6949   32.1330   41.4268 H   0  0  0  0  0  0  0  0  0  0  0  0
   44.4447   32.1909   40.4900 H   0  0  0  0  0  0  0  0  0  0  0  0
   47.3912   33.2027   39.8319 H   0  0  0  0  0  0  0  0  0  0  0  0
   46.4508   33.4468   38.6229 H   0  0  0  0  0  0  0  0  0  0  0  0
  1  6  2  0
  2  1  1  0
  2  3  2  0
  3  4  1  0
  4  5  2  0
  6  5  1  0
  7 11  1  0
  7  3  1  0
  8  7  2  0
  9 10  2  0
  9  8  1  0
 10 11  1  0
 12  2  1  0
 13 12  2  0
 14 12  1  0
 15 14  1  0
 16 15  1  0
 16 14  1  0
  1 17  1  0
  5 18  1  0
  8 19  1  0
  9 20  1  0
 10 21  1  0
 14 22  1  0
 15 23  1  0
 15 24  1  0
 16 25  1  0
 16 26  1  0
M  ISO  8  17  14  18  14  19  14  20  14  21  14  22  13  23  13  24  13
M  ISO  2  25  13  26  13
M  END
>  <minimizedAffinity>  (1) 
-4.00615788

>  <minimizedRMSD>  (1) 
0.763809025

$$$$
