
     RDKit          3D

 36 39  0  0  0  0  0  0  0  0999 V2000
   46.8190   34.8350   41.9170 C   0  0  0  0  0  0  0  0  0  0  0  0
   48.0080   35.2750   41.9770 O   0  0  0  0  0  0  0  0  0  0  0  0
   45.4120   36.1940   43.4050 C   0  0  0  0  0  0  0  0  0  0  0  0
   46.0620   34.9760   43.1160 C   0  0  0  0  0  0  0  0  0  0  0  0
   45.8900   33.9900   44.0640 C   0  0  0  0  0  0  0  0  0  0  0  0
   45.1590   34.1650   45.1830 N   0  0  0  0  0  0  0  0  0  0  0  0
   44.5500   35.3660   45.4160 C   0  0  0  0  0  0  0  0  0  0  0  0
   44.6810   36.3740   44.5230 N   0  0  0  0  0  0  0  0  0  0  0  0
   46.5050   32.7440   43.8630 C   0  0  0  0  0  0  0  0  0  0  0  0
   47.7600   32.2450   44.0770 C   0  0  0  0  0  0  0  0  0  0  0  0
   48.1060   31.0020   43.8010 C   0  0  0  0  0  0  0  0  0  0  0  0
   47.1340   30.2090   43.2760 C   0  0  0  0  0  0  0  0  0  0  0  0
   45.6660   31.3290   43.1890 S   0  0  0  0  0  0  0  0  0  0  0  0
   46.1950   34.2040   40.7090 C   0  0  0  0  0  0  0  0  0  0  0  0
   44.8590   34.0540   40.4530 C   0  0  0  0  0  0  0  0  0  0  0  0
   44.8100   33.4390   39.2590 N   0  0  0  0  0  0  0  0  0  0  0  0
   46.0510   33.2170   38.7910 C   0  0  0  0  0  0  0  0  0  0  0  0
   46.8980   33.6970   39.7030 N   0  0  0  0  0  0  0  0  0  0  0  0
   48.3360   34.5920   37.1480 Cl  0  0  0  0  0  0  0  0  0  0  0  0
   47.5300   33.0910   36.7640 C   0  0  0  0  0  0  0  0  0  0  0  0
   46.5390   32.6040   37.5820 C   0  0  0  0  0  0  0  0  0  0  0  0
   46.0320   31.4190   37.1120 C   0  0  0  0  0  0  0  0  0  0  0  0
   46.4410   30.7730   35.9700 C   0  0  0  0  0  0  0  0  0  0  0  0
   47.4400   31.3180   35.1950 C   0  0  0  0  0  0  0  0  0  0  0  0
   47.9840   32.5060   35.6200 C   0  0  0  0  0  0  0  0  0  0  0  0
   45.5050   37.0268   42.6924 H   0  0  0  0  0  0  0  0  0  0  0  0
   43.9539   35.5131   46.3287 H   0  0  0  0  0  0  0  0  0  0  0  0
   48.5216   32.9155   44.5018 H   0  0  0  0  0  0  0  0  0  0  0  0
   49.1239   30.6280   43.9853 H   0  0  0  0  0  0  0  0  0  0  0  0
   47.2045   29.1533   42.9750 H   0  0  0  0  0  0  0  0  0  0  0  0
   44.0139   34.3670   41.0837 H   0  0  0  0  0  0  0  0  0  0  0  0
   43.9427   33.1745   38.7704 H   0  0  0  0  0  0  0  0  0  0  0  0
   45.2306   30.9461   37.6986 H   0  0  0  0  0  0  0  0  0  0  0  0
   45.9713   29.8228   35.6758 H   0  0  0  0  0  0  0  0  0  0  0  0
   47.7875   30.8239   34.2757 H   0  0  0  0  0  0  0  0  0  0  0  0
   48.7851   32.9844   35.0374 H   0  0  0  0  0  0  0  0  0  0  0  0
  1  2  2  0
  1  4  1  0
  3  8  2  0
  4  3  1  0
  4  5  2  0
  5  6  1  0
  6  7  2  0
  8  7  1  0
  9  5  1  0
  9 10  2  0
 11 10  1  0
 12 11  2  0
 13 12  1  0
 13  9  1  0
 14  1  1  0
 15 14  2  0
 16 15  1  0
 17 16  1  0
 17 18  2  0
 18 14  1  0
 20 19  1  0
 20 21  2  0
 21 17  1  0
 22 21  1  0
 23 22  2  0
 24 25  2  0
 24 23  1  0
 25 20  1  0
  3 26  1  0
  7 27  1  0
 10 28  1  0
 11 29  1  0
 12 30  1  0
 15 31  1  0
 16 32  1  0
 22 33  1  0
 23 34  1  0
 24 35  1  0
 25 36  1  0
M  ISO  8  26  14  27  14  28  14  29  14  30  14  31  14  32   9  33  14
M  ISO  3  34  14  35  14  36  14
M  END
>  <minimizedAffinity>  (1) 
-5.3283534

>  <minimizedRMSD>  (1) 
0.687552691

$$$$
