
     RDKit          3D

 39 43  0  0  0  0  0  0  0  0999 V2000
   46.8830   34.6340   41.8640 C   0  0  0  0  0  0  0  0  0  0  0  0
   48.1200   34.8760   41.9710 O   0  0  0  0  0  0  0  0  0  0  0  0
   45.5060   36.1480   43.2100 C   0  0  0  0  0  0  0  0  0  0  0  0
   46.1080   34.8870   43.0190 C   0  0  0  0  0  0  0  0  0  0  0  0
   45.8660   33.9710   44.0380 C   0  0  0  0  0  0  0  0  0  0  0  0
   45.1220   34.2630   45.1160 N   0  0  0  0  0  0  0  0  0  0  0  0
   44.5630   35.5020   45.2460 C   0  0  0  0  0  0  0  0  0  0  0  0
   44.7610   36.4300   44.2960 N   0  0  0  0  0  0  0  0  0  0  0  0
   46.4300   32.6910   43.9300 C   0  0  0  0  0  0  0  0  0  0  0  0
   47.6270   32.1300   44.2730 C   0  0  0  0  0  0  0  0  0  0  0  0
   47.9220   30.8600   44.0560 C   0  0  0  0  0  0  0  0  0  0  0  0
   46.9560   30.1080   43.4610 C   0  0  0  0  0  0  0  0  0  0  0  0
   45.5760   31.3030   43.2110 S   0  0  0  0  0  0  0  0  0  0  0  0
   46.2310   34.1120   40.6150 C   0  0  0  0  0  0  0  0  0  0  0  0
   44.8840   33.8900   40.4280 C   0  0  0  0  0  0  0  0  0  0  0  0
   44.7630   33.4250   39.1710 N   0  0  0  0  0  0  0  0  0  0  0  0
   46.0070   33.3680   38.6090 C   0  0  0  0  0  0  0  0  0  0  0  0
   46.9200   33.7940   39.5040 N   0  0  0  0  0  0  0  0  0  0  0  0
   45.3270   32.5080   36.3640 C   0  0  0  0  0  0  0  0  0  0  0  0
   46.2960   32.9180   37.2570 C   0  0  0  0  0  0  0  0  0  0  0  0
   47.5950   32.8800   36.7950 C   0  0  0  0  0  0  0  0  0  0  0  0
   47.9520   32.4660   35.5280 C   0  0  0  0  0  0  0  0  0  0  0  0
   46.9540   32.0590   34.6530 C   0  0  0  0  0  0  0  0  0  0  0  0
   45.6210   32.0790   35.0730 C   0  0  0  0  0  0  0  0  0  0  0  0
   47.5810   31.6930   33.4460 O   0  0  0  0  0  0  0  0  0  0  0  0
   48.9540   31.5290   33.7520 C   0  0  0  0  0  0  0  0  0  0  0  0
   49.1960   32.3560   34.8790 O   0  0  0  0  0  0  0  0  0  0  0  0
   45.6497   36.9270   42.4468 H   0  0  0  0  0  0  0  0  0  0  0  0
   43.9508   35.7397   46.1285 H   0  0  0  0  0  0  0  0  0  0  0  0
   48.3837   32.7672   44.7541 H   0  0  0  0  0  0  0  0  0  0  0  0
   48.8953   30.4339   44.3408 H   0  0  0  0  0  0  0  0  0  0  0  0
   46.9909   29.0416   43.1933 H   0  0  0  0  0  0  0  0  0  0  0  0
   44.0757   34.0579   41.1550 H   0  0  0  0  0  0  0  0  0  0  0  0
   43.8815   33.1573   38.7104 H   0  0  0  0  0  0  0  0  0  0  0  0
   44.2755   32.5208   36.6869 H   0  0  0  0  0  0  0  0  0  0  0  0
   48.3956   33.1993   37.4785 H   0  0  0  0  0  0  0  0  0  0  0  0
   44.8166   31.7606   34.3936 H   0  0  0  0  0  0  0  0  0  0  0  0
   49.1705   30.4779   33.9936 H   0  0  0  0  0  0  0  0  0  0  0  0
   49.5957   31.8027   32.9015 H   0  0  0  0  0  0  0  0  0  0  0  0
  1  2  2  0
  1  4  1  0
  3  8  2  0
  4  3  1  0
  4  5  2  0
  5  6  1  0
  6  7  2  0
  8  7  1  0
  9  5  1  0
  9 10  2  0
 11 10  1  0
 12 11  2  0
 13 12  1  0
 13  9  1  0
 14  1  1  0
 15 14  2  0
 16 15  1  0
 17 16  1  0
 17 18  2  0
 18 14  1  0
 19 20  2  0
 20 17  1  0
 21 20  1  0
 22 21  2  0
 23 24  2  0
 23 22  1  0
 24 19  1  0
 25 26  1  0
 25 23  1  0
 26 27  1  0
 27 22  1  0
  3 28  1  0
  7 29  1  0
 10 30  1  0
 11 31  1  0
 12 32  1  0
 15 33  1  0
 16 34  1  0
 19 35  1  0
 21 36  1  0
 24 37  1  0
 26 38  1  0
 26 39  1  0
M  ISO  8  28  14  29  14  30  14  31  14  32  14  33  14  34   9  35  14
M  ISO  4  36  14  37  14  38  13  39  13
M  END
>  <minimizedAffinity>  (1) 
-5.52117348

>  <minimizedRMSD>  (1) 
1.66825414

$$$$
