
     RDKit          3D

 34 36  0  0  0  0  0  0  0  0999 V2000
   45.4470   36.1890   43.2080 C   0  0  0  0  0  0  0  0  0  0  0  0
   46.0830   34.9510   42.9600 C   0  0  0  0  0  0  0  0  0  0  0  0
   45.8990   33.9960   43.9510 C   0  0  0  0  0  0  0  0  0  0  0  0
   45.1770   34.2320   45.0550 N   0  0  0  0  0  0  0  0  0  0  0  0
   44.5840   35.4440   45.2460 C   0  0  0  0  0  0  0  0  0  0  0  0
   44.7230   36.4070   44.3260 N   0  0  0  0  0  0  0  0  0  0  0  0
   46.5020   32.7390   43.7840 C   0  0  0  0  0  0  0  0  0  0  0  0
   47.7620   32.2460   44.0170 C   0  0  0  0  0  0  0  0  0  0  0  0
   48.0900   30.9860   43.7670 C   0  0  0  0  0  0  0  0  0  0  0  0
   47.1120   30.1840   43.2600 C   0  0  0  0  0  0  0  0  0  0  0  0
   45.6600   31.3130   43.1470 S   0  0  0  0  0  0  0  0  0  0  0  0
   46.8350   34.7610   41.7660 C   0  0  0  0  0  0  0  0  0  0  0  0
   48.0450   35.1520   41.8250 O   0  0  0  0  0  0  0  0  0  0  0  0
   46.2090   34.1460   40.5620 C   0  0  0  0  0  0  0  0  0  0  0  0
   44.8610   33.9420   40.3670 C   0  0  0  0  0  0  0  0  0  0  0  0
   44.7620   33.3670   39.1500 N   0  0  0  0  0  0  0  0  0  0  0  0
   46.0050   33.2320   38.6380 C   0  0  0  0  0  0  0  0  0  0  0  0
   46.9110   33.7170   39.5160 N   0  0  0  0  0  0  0  0  0  0  0  0
   46.3540   32.6770   37.3830 N   0  0  0  0  0  0  0  0  0  0  0  0
   45.3120   32.0280   36.1800 S   0  0  0  0  0  0  0  0  0  0  0  0
   44.0530   31.5760   36.8470 O   0  0  0  0  0  0  0  0  0  0  0  0
   45.9460   30.8100   35.5220 O   0  0  0  0  0  0  0  0  0  0  0  0
   45.0460   33.1220   34.9330 O   0  0  0  0  0  0  0  0  0  0  0  0
   45.5450   36.9976   42.4687 H   0  0  0  0  0  0  0  0  0  0  0  0
   43.9922   35.6309   46.1542 H   0  0  0  0  0  0  0  0  0  0  0  0
   48.5277   32.9214   44.4263 H   0  0  0  0  0  0  0  0  0  0  0  0
   49.1041   30.6058   43.9598 H   0  0  0  0  0  0  0  0  0  0  0  0
   47.1742   29.1208   42.9849 H   0  0  0  0  0  0  0  0  0  0  0  0
   44.0409   34.1937   41.0555 H   0  0  0  0  0  0  0  0  0  0  0  0
   43.8867   33.0796   38.6894 H   0  0  0  0  0  0  0  0  0  0  0  0
   47.3601   32.6600   37.1630 H   0  0  0  0  0  0  0  0  0  0  0  0
   44.1671   31.6169   37.8296 H   0  0  0  0  0  0  0  0  0  0  0  0
   46.2696   30.1882   36.2211 H   0  0  0  0  0  0  0  0  0  0  0  0
   44.8301   34.0101   35.3136 H   0  0  0  0  0  0  0  0  0  0  0  0
  1  6  2  0
  2  1  1  0
  2  3  2  0
  3  4  1  0
  4  5  2  0
  6  5  1  0
  7  3  1  0
  7  8  2  0
  9  8  1  0
 10  9  2  0
 11 10  1  0
 11  7  1  0
 12 13  2  0
 12  2  1  0
 14 12  1  0
 15 14  2  0
 16 15  1  0
 17 16  1  0
 17 18  2  0
 18 14  1  0
 19 17  1  0
 20 21  1  0
 20 19  1  0
 22 20  1  0
 23 20  1  0
  1 24  1  0
  5 25  1  0
  8 26  1  0
  9 27  1  0
 10 28  1  0
 15 29  1  0
 16 30  1  0
 19 31  1  0
 21 32  1  0
 22 33  1  0
 23 34  1  0
M  ISO  8  24  14  25  14  26  14  27  14  28  14  29  14  30   9  32   3
M  ISO  2  33   3  34   3
M  END
>  <minimizedAffinity>  (1) 
-5.25868988

>  <minimizedRMSD>  (1) 
0.666483819

$$$$
