
     RDKit          3D

 39 42  0  0  0  0  0  0  0  0999 V2000
   46.7780   34.8550   41.8160 C   0  0  0  0  0  0  0  0  0  0  0  0
   47.9520   35.3270   41.8260 O   0  0  0  0  0  0  0  0  0  0  0  0
   46.1550   34.1670   40.6390 C   0  0  0  0  0  0  0  0  0  0  0  0
   44.7990   34.0650   40.3810 C   0  0  0  0  0  0  0  0  0  0  0  0
   44.7020   33.3710   39.2310 N   0  0  0  0  0  0  0  0  0  0  0  0
   45.9760   33.0640   38.8110 C   0  0  0  0  0  0  0  0  0  0  0  0
   46.8620   33.5570   39.6820 N   0  0  0  0  0  0  0  0  0  0  0  0
   46.2960   32.3330   37.6290 N   0  0  0  0  0  0  0  0  0  0  0  0
   47.6570   32.0330   37.2260 C   0  0  0  0  0  0  0  0  0  0  0  0
   47.8300   32.3100   35.7490 C   0  0  0  0  0  0  0  0  0  0  0  0
   46.7710   31.8730   34.9900 O   0  0  0  0  0  0  0  0  0  0  0  0
   45.5660   32.4500   35.3890 C   0  0  0  0  0  0  0  0  0  0  0  0
   45.2410   31.8470   36.7570 C   0  0  0  0  0  0  0  0  0  0  0  0
   45.4000   36.2340   43.3050 C   0  0  0  0  0  0  0  0  0  0  0  0
   46.0460   35.0130   43.0210 C   0  0  0  0  0  0  0  0  0  0  0  0
   45.8970   34.0390   43.9870 C   0  0  0  0  0  0  0  0  0  0  0  0
   45.1830   34.2330   45.1280 N   0  0  0  0  0  0  0  0  0  0  0  0
   44.5810   35.4400   45.3430 C   0  0  0  0  0  0  0  0  0  0  0  0
   44.6910   36.4240   44.4410 N   0  0  0  0  0  0  0  0  0  0  0  0
   46.5090   32.7910   43.7960 C   0  0  0  0  0  0  0  0  0  0  0  0
   47.7720   32.3100   43.9890 C   0  0  0  0  0  0  0  0  0  0  0  0
   48.0980   31.0490   43.7220 C   0  0  0  0  0  0  0  0  0  0  0  0
   47.1020   30.2390   43.2390 C   0  0  0  0  0  0  0  0  0  0  0  0
   45.6530   31.3630   43.1780 S   0  0  0  0  0  0  0  0  0  0  0  0
   43.9740   34.4664   40.9878 H   0  0  0  0  0  0  0  0  0  0  0  0
   43.8278   33.1150   38.7502 H   0  0  0  0  0  0  0  0  0  0  0  0
   48.3541   32.6621   37.7991 H   0  0  0  0  0  0  0  0  0  0  0  0
   47.8668   30.9712   37.4221 H   0  0  0  0  0  0  0  0  0  0  0  0
   47.9380   33.3954   35.6069 H   0  0  0  0  0  0  0  0  0  0  0  0
   48.7218   31.7596   35.4147 H   0  0  0  0  0  0  0  0  0  0  0  0
   45.6731   33.5419   35.4685 H   0  0  0  0  0  0  0  0  0  0  0  0
   44.7649   32.2525   34.6615 H   0  0  0  0  0  0  0  0  0  0  0  0
   44.2569   32.1898   37.1091 H   0  0  0  0  0  0  0  0  0  0  0  0
   45.1944   30.7483   36.7293 H   0  0  0  0  0  0  0  0  0  0  0  0
   45.4751   37.0577   42.5798 H   0  0  0  0  0  0  0  0  0  0  0  0
   44.0017   35.6051   46.2634 H   0  0  0  0  0  0  0  0  0  0  0  0
   48.5456   32.9882   44.3783 H   0  0  0  0  0  0  0  0  0  0  0  0
   49.1193   30.6727   43.8811 H   0  0  0  0  0  0  0  0  0  0  0  0
   47.1581   29.1771   42.9575 H   0  0  0  0  0  0  0  0  0  0  0  0
  1  2  2  0
  1 15  1  0
  3  1  1  0
  4  3  2  0
  5  4  1  0
  6  5  1  0
  6  7  2  0
  7  3  1  0
  8  6  1  0
  9  8  1  0
 10  9  1  0
 11 12  1  0
 11 10  1  0
 12 13  1  0
 13  8  1  0
 14 19  2  0
 15 14  1  0
 15 16  2  0
 16 17  1  0
 17 18  2  0
 19 18  1  0
 20 16  1  0
 20 21  2  0
 22 21  1  0
 23 22  2  0
 24 23  1  0
 24 20  1  0
  4 25  1  0
  5 26  1  0
  9 27  1  0
  9 28  1  0
 10 29  1  0
 10 30  1  0
 12 31  1  0
 12 32  1  0
 13 33  1  0
 13 34  1  0
 14 35  1  0
 18 36  1  0
 21 37  1  0
 22 38  1  0
 23 39  1  0
M  ISO  8  25  14  26   9  27  13  28  13  29  13  30  13  31  13  32  13
M  ISO  7  33  13  34  13  35  14  36  14  37  14  38  14  39  14
M  END
>  <minimizedAffinity>  (1) 
-5.17147255

>  <minimizedRMSD>  (1) 
0.500092268

$$$$
