
     RDKit          3D

 27 29  0  0  0  0  0  0  0  0999 V2000
   45.2150   36.1760   43.4960 C   0  0  0  0  0  0  0  0  0  0  0  0
   45.8600   34.9680   43.1580 C   0  0  0  0  0  0  0  0  0  0  0  0
   45.8030   33.9920   44.1440 C   0  0  0  0  0  0  0  0  0  0  0  0
   45.1850   34.1780   45.3240 N   0  0  0  0  0  0  0  0  0  0  0  0
   44.5790   35.3660   45.5960 C   0  0  0  0  0  0  0  0  0  0  0  0
   44.5970   36.3510   44.6870 N   0  0  0  0  0  0  0  0  0  0  0  0
   46.4230   32.7580   43.8930 C   0  0  0  0  0  0  0  0  0  0  0  0
   47.6920   32.2710   44.0130 C   0  0  0  0  0  0  0  0  0  0  0  0
   48.0330   31.0350   43.7010 C   0  0  0  0  0  0  0  0  0  0  0  0
   47.0390   30.2340   43.2380 C   0  0  0  0  0  0  0  0  0  0  0  0
   45.5630   31.3270   43.2630 S   0  0  0  0  0  0  0  0  0  0  0  0
   46.4930   34.8270   41.9040 C   0  0  0  0  0  0  0  0  0  0  0  0
   47.6960   35.2410   41.8520 O   0  0  0  0  0  0  0  0  0  0  0  0
   45.7460   34.2250   40.7500 C   0  0  0  0  0  0  0  0  0  0  0  0
   44.4010   34.3340   40.4910 C   0  0  0  0  0  0  0  0  0  0  0  0
   44.1940   33.6360   39.3600 N   0  0  0  0  0  0  0  0  0  0  0  0
   45.3730   33.1180   38.9410 C   0  0  0  0  0  0  0  0  0  0  0  0
   46.3420   33.4850   39.8050 N   0  0  0  0  0  0  0  0  0  0  0  0
   45.4530   32.1210   37.4430 S   0  0  0  0  0  0  0  0  0  0  0  0
   45.2144   37.0014   42.7689 H   0  0  0  0  0  0  0  0  0  0  0  0
   44.0745   35.5178   46.5616 H   0  0  0  0  0  0  0  0  0  0  0  0
   48.4740   32.9461   44.3907 H   0  0  0  0  0  0  0  0  0  0  0  0
   49.0661   30.6733   43.8100 H   0  0  0  0  0  0  0  0  0  0  0  0
   47.1026   29.1819   42.9232 H   0  0  0  0  0  0  0  0  0  0  0  0
   43.6510   34.8779   41.0841 H   0  0  0  0  0  0  0  0  0  0  0  0
   43.2860   33.5151   38.8890 H   0  0  0  0  0  0  0  0  0  0  0  0
   45.5592   30.7975   37.7805 H   0  0  0  0  0  0  0  0  0  0  0  0
  1  6  2  0
  2  1  1  0
  2  3  2  0
  3  4  1  0
  4  5  2  0
  6  5  1  0
  7  8  2  0
  7  3  1  0
  9  8  1  0
 10 11  1  0
 10  9  2  0
 11  7  1  0
 12  2  1  0
 13 12  2  0
 14 12  1  0
 15 14  2  0
 16 15  1  0
 17 16  1  0
 17 18  2  0
 18 14  1  0
 19 17  1  0
  1 20  1  0
  5 21  1  0
  8 22  1  0
  9 23  1  0
 10 24  1  0
 15 25  1  0
 16 26  1  0
 19 27  1  0
M  ISO  8  20  14  21  14  22  14  23  14  24  14  25  14  26   9  27  11
M  END
>  <minimizedAffinity>  (1) 
-4.39266443

>  <minimizedRMSD>  (1) 
0.00985732675

$$$$
