
     RDKit          3D

 30 32  0  0  0  0  0  0  0  0999 V2000
   45.3240   36.1750   43.4680 C   0  0  0  0  0  0  0  0  0  0  0  0
   45.9760   34.9640   43.1560 C   0  0  0  0  0  0  0  0  0  0  0  0
   45.8620   33.9850   44.1210 C   0  0  0  0  0  0  0  0  0  0  0  0
   45.1820   34.1610   45.2730 N   0  0  0  0  0  0  0  0  0  0  0  0
   44.5700   35.3530   45.5230 C   0  0  0  0  0  0  0  0  0  0  0  0
   44.6410   36.3490   44.6270 N   0  0  0  0  0  0  0  0  0  0  0  0
   46.4850   32.7480   43.8930 C   0  0  0  0  0  0  0  0  0  0  0  0
   47.7430   32.2450   44.0590 C   0  0  0  0  0  0  0  0  0  0  0  0
   48.0900   31.0020   43.7610 C   0  0  0  0  0  0  0  0  0  0  0  0
   47.0930   30.2140   43.2600 C   0  0  0  0  0  0  0  0  0  0  0  0
   45.6340   31.3260   43.2320 S   0  0  0  0  0  0  0  0  0  0  0  0
   46.6760   34.8290   41.9330 C   0  0  0  0  0  0  0  0  0  0  0  0
   47.8710   35.2640   41.9330 O   0  0  0  0  0  0  0  0  0  0  0  0
   45.9980   34.2060   40.7510 C   0  0  0  0  0  0  0  0  0  0  0  0
   44.6440   34.1430   40.5060 C   0  0  0  0  0  0  0  0  0  0  0  0
   44.4990   33.5000   39.3430 N   0  0  0  0  0  0  0  0  0  0  0  0
   45.7480   33.1730   38.8780 C   0  0  0  0  0  0  0  0  0  0  0  0
   46.6580   33.6120   39.7520 N   0  0  0  0  0  0  0  0  0  0  0  0
   46.8880   33.0170   36.8000 C   0  0  0  0  0  0  0  0  0  0  0  0
   47.6390   34.0110   37.0630 O   0  0  0  0  0  0  0  0  0  0  0  0
   45.8690   32.4760   37.6430 N   0  0  0  0  0  0  0  0  0  0  0  0
   45.3708   37.0054   42.7481 H   0  0  0  0  0  0  0  0  0  0  0  0
   44.0162   35.4988   46.4622 H   0  0  0  0  0  0  0  0  0  0  0  0
   48.5164   32.9133   44.4654 H   0  0  0  0  0  0  0  0  0  0  0  0
   49.1143   30.6286   43.9074 H   0  0  0  0  0  0  0  0  0  0  0  0
   47.1512   29.1610   42.9471 H   0  0  0  0  0  0  0  0  0  0  0  0
   43.8405   34.5429   41.1419 H   0  0  0  0  0  0  0  0  0  0  0  0
   43.6054   33.2871   38.8771 H   0  0  0  0  0  0  0  0  0  0  0  0
   47.0386   32.5260   35.8273 H   0  0  0  0  0  0  0  0  0  0  0  0
   45.2846   31.6681   37.3846 H   0  0  0  0  0  0  0  0  0  0  0  0
  1  6  2  0
  2  1  1  0
  2  3  2  0
  3  4  1  0
  4  5  2  0
  6  5  1  0
  7  8  2  0
  7  3  1  0
  9  8  1  0
 10  9  2  0
 11 10  1  0
 11  7  1  0
 12  2  1  0
 13 12  2  0
 14 12  1  0
 15 14  2  0
 16 15  1  0
 17 16  1  0
 17 18  2  0
 18 14  1  0
 19 20  2  0
 19 21  1  0
 21 17  1  0
  1 22  1  0
  5 23  1  0
  8 24  1  0
  9 25  1  0
 10 26  1  0
 15 27  1  0
 16 28  1  0
 19 29  1  0
 21 30  1  0
M  ISO  8  22  14  23  14  24  14  25  14  26  14  27  14  28   9  29   6
M  END
>  <minimizedAffinity>  (1) 
-4.84662294

>  <minimizedRMSD>  (1) 
0.268373072

$$$$
