
     RDKit          3D

 42 44  0  0  0  0  0  0  0  0999 V2000
   45.9020   32.3530   44.4960 C   0  0  0  0  0  0  0  0  0  0  0  0
   44.6610   35.7940   44.5620 C   0  0  0  0  0  0  0  0  0  0  0  0
   44.0270   35.9040   43.3010 C   0  0  0  0  0  0  0  0  0  0  0  0
   44.0550   34.7830   42.4680 C   0  0  0  0  0  0  0  0  0  0  0  0
   44.6740   33.6860   42.9070 N   0  0  0  0  0  0  0  0  0  0  0  0
   45.2620   33.6270   44.1100 C   0  0  0  0  0  0  0  0  0  0  0  0
   45.2700   34.6350   44.9310 N   0  0  0  0  0  0  0  0  0  0  0  0
   43.3780   34.9170   41.1640 C   0  0  0  0  0  0  0  0  0  0  0  0
   42.0700   35.6070   41.2510 C   0  0  0  0  0  0  0  0  0  0  0  0
   40.8780   34.8690   40.8590 C   0  0  0  0  0  0  0  0  0  0  0  0
   39.9920   35.1630   39.8260 C   0  0  0  0  0  0  0  0  0  0  0  0
   38.7170   33.8180   39.9450 S   0  0  0  0  0  0  0  0  0  0  0  0
   39.6560   33.0800   41.4290 C   0  0  0  0  0  0  0  0  0  0  0  0
   40.5490   33.7920   41.5540 N   0  0  0  0  0  0  0  0  0  0  0  0
   46.6950   32.5540   45.7460 C   0  0  0  0  0  0  0  0  0  0  0  0
   46.1340   31.8790   46.8930 C   0  0  0  0  0  0  0  0  0  0  0  0
   45.3430   32.3730   47.9000 C   0  0  0  0  0  0  0  0  0  0  0  0
   44.8660   31.6350   48.9360 C   0  0  0  0  0  0  0  0  0  0  0  0
   45.1930   30.2990   48.9850 C   0  0  0  0  0  0  0  0  0  0  0  0
   45.9840   29.7840   47.9850 C   0  0  0  0  0  0  0  0  0  0  0  0
   46.4590   30.5510   46.9420 C   0  0  0  0  0  0  0  0  0  0  0  0
   48.5960   29.4640   46.5830 C   0  0  0  0  0  0  0  0  0  0  0  0
   49.3590   29.8230   47.5500 O   0  0  0  0  0  0  0  0  0  0  0  0
   47.2510   29.6860   46.1100 N   0  0  0  0  0  0  0  0  0  0  0  0
   46.5692   32.0181   43.6881 H   0  0  0  0  0  0  0  0  0  0  0  0
   45.1278   31.5914   44.6709 H   0  0  0  0  0  0  0  0  0  0  0  0
   44.6611   36.6530   45.2492 H   0  0  0  0  0  0  0  0  0  0  0  0
   43.5318   36.8355   42.9894 H   0  0  0  0  0  0  0  0  0  0  0  0
   43.2152   33.9109   40.7501 H   0  0  0  0  0  0  0  0  0  0  0  0
   44.0273   35.5295   40.5212 H   0  0  0  0  0  0  0  0  0  0  0  0
   41.9330   35.9166   42.2976 H   0  0  0  0  0  0  0  0  0  0  0  0
   42.1412   36.4222   40.5158 H   0  0  0  0  0  0  0  0  0  0  0  0
   40.0367   35.9956   39.1086 H   0  0  0  0  0  0  0  0  0  0  0  0
   39.4043   32.1885   42.0223 H   0  0  0  0  0  0  0  0  0  0  0  0
   47.7128   32.1716   45.5791 H   0  0  0  0  0  0  0  0  0  0  0  0
   46.6882   33.6316   45.9665 H   0  0  0  0  0  0  0  0  0  0  0  0
   45.0770   33.4398   47.8658 H   0  0  0  0  0  0  0  0  0  0  0  0
   44.2364   32.0922   49.7135 H   0  0  0  0  0  0  0  0  0  0  0  0
   44.8308   29.6594   49.8034 H   0  0  0  0  0  0  0  0  0  0  0  0
   46.2486   28.7168   48.0184 H   0  0  0  0  0  0  0  0  0  0  0  0
   49.1299   28.7778   45.9091 H   0  0  0  0  0  0  0  0  0  0  0  0
   46.8875   29.2592   45.2459 H   0  0  0  0  0  0  0  0  0  0  0  0
  1 15  1  0
  2  7  2  0
  3  2  1  0
  4  5  1  0
  4  3  2  0
  5  6  2  0
  6  1  1  0
  6  7  1  0
  8  9  1  0
  8  4  1  0
 10  9  1  0
 10 14  1  0
 11 12  1  0
 11 10  2  0
 12 13  1  0
 13 14  2  0
 15 16  1  0
 16 21  1  0
 16 17  2  0
 17 18  1  0
 18 19  2  0
 20 19  1  0
 21 20  2  0
 22 23  2  0
 24 22  1  0
 24 21  1  0
  1 25  1  0
  1 26  1  0
  2 27  1  0
  3 28  1  0
  8 29  1  0
  8 30  1  0
  9 31  1  0
  9 32  1  0
 11 33  1  0
 13 34  1  0
 15 35  1  0
 15 36  1  0
 17 37  1  0
 18 38  1  0
 19 39  1  0
 20 40  1  0
 22 41  1  0
 24 42  1  0
M  ISO  8  25   8  26   8  27  14  28  14  29   8  30   8  31   8  32   8
M  ISO  8  33  14  34  14  35   8  36   8  37  14  38  14  39  14  40  14
M  ISO  1  41   6
M  END
>  <minimizedAffinity>  (1) 
-5.42937851

>  <minimizedRMSD>  (1) 
0.910806954

$$$$
