
     RDKit          3D

 35 38  0  0  0  0  0  0  0  0999 V2000
   45.6490   34.5880   41.5870 C   0  0  0  0  0  0  0  0  0  0  0  0
   46.8670   34.7080   41.2800 O   0  0  0  0  0  0  0  0  0  0  0  0
   44.5400   34.2720   40.6220 C   0  0  0  0  0  0  0  0  0  0  0  0
   43.2180   34.6710   40.7310 C   0  0  0  0  0  0  0  0  0  0  0  0
   42.6220   34.1520   39.6460 N   0  0  0  0  0  0  0  0  0  0  0  0
   43.5170   33.4720   38.9080 C   0  0  0  0  0  0  0  0  0  0  0  0
   44.7280   33.5430   39.5150 N   0  0  0  0  0  0  0  0  0  0  0  0
   43.3800   32.7540   37.6890 N   0  0  0  0  0  0  0  0  0  0  0  0
   41.2480   34.2810   39.2960 C   0  0  0  0  0  0  0  0  0  0  0  0
   40.1170   34.4290   40.0730 C   0  0  0  0  0  0  0  0  0  0  0  0
   39.0700   34.5030   39.1490 C   0  0  0  0  0  0  0  0  0  0  0  0
   39.6320   34.3950   37.8730 C   0  0  0  0  0  0  0  0  0  0  0  0
   40.9320   34.2650   38.0210 O   0  0  0  0  0  0  0  0  0  0  0  0
   44.8940   36.0230   43.4380 C   0  0  0  0  0  0  0  0  0  0  0  0
   45.3500   34.7760   42.9740 C   0  0  0  0  0  0  0  0  0  0  0  0
   45.4710   33.8050   43.9510 C   0  0  0  0  0  0  0  0  0  0  0  0
   45.1790   34.0270   45.2360 N   0  0  0  0  0  0  0  0  0  0  0  0
   44.7400   35.2570   45.6310 C   0  0  0  0  0  0  0  0  0  0  0  0
   44.6030   36.2420   44.7240 N   0  0  0  0  0  0  0  0  0  0  0  0
   45.9280   32.5200   43.5700 C   0  0  0  0  0  0  0  0  0  0  0  0
   47.1300   31.8850   43.5250 C   0  0  0  0  0  0  0  0  0  0  0  0
   47.2820   30.6430   43.1160 C   0  0  0  0  0  0  0  0  0  0  0  0
   46.1560   30.0050   42.7280 C   0  0  0  0  0  0  0  0  0  0  0  0
   44.8340   31.2480   42.9680 S   0  0  0  0  0  0  0  0  0  0  0  0
   42.7600   35.2765   41.5270 H   0  0  0  0  0  0  0  0  0  0  0  0
   42.4622   32.6976   37.2248 H   0  0  0  0  0  0  0  0  0  0  0  0
   44.1985   32.2901   37.2698 H   0  0  0  0  0  0  0  0  0  0  0  0
   40.0536   34.4777   41.1701 H   0  0  0  0  0  0  0  0  0  0  0  0
   38.0019   34.6238   39.3826 H   0  0  0  0  0  0  0  0  0  0  0  0
   39.0855   34.4152   36.9185 H   0  0  0  0  0  0  0  0  0  0  0  0
   44.7728   36.8459   42.7181 H   0  0  0  0  0  0  0  0  0  0  0  0
   44.4987   35.4431   46.6879 H   0  0  0  0  0  0  0  0  0  0  0  0
   48.0236   32.4394   43.8479 H   0  0  0  0  0  0  0  0  0  0  0  0
   48.2669   30.1538   43.0916 H   0  0  0  0  0  0  0  0  0  0  0  0
   46.0566   28.9754   42.3539 H   0  0  0  0  0  0  0  0  0  0  0  0
  1 15  1  0
  2  1  2  0
  3  4  2  0
  3  1  1  0
  5  4  1  0
  6  7  2  0
  6  5  1  0
  7  3  1  0
  8  6  1  0
  9  5  1  0
  9 10  2  0
 11 10  1  0
 12 13  1  0
 12 11  2  0
 13  9  1  0
 14 19  2  0
 15 14  1  0
 15 16  2  0
 16 17  1  0
 17 18  2  0
 19 18  1  0
 20 16  1  0
 21 20  2  0
 22 21  1  0
 23 24  1  0
 23 22  2  0
 24 20  1  0
  4 25  1  0
  8 26  1  0
  8 27  1  0
 10 28  1  0
 11 29  1  0
 12 30  1  0
 14 31  1  0
 18 32  1  0
 21 33  1  0
 22 34  1  0
 23 35  1  0
M  ISO  8  25  14  28  14  29  14  30  14  31  14  32  14  33  14  34  14
M  ISO  1  35  14
M  END
>  <minimizedAffinity>  (1) 
-5.63750029

>  <minimizedRMSD>  (1) 
1.49535155

$$$$
