
     RDKit          3D

 31 33  0  0  0  0  0  0  0  0999 V2000
   45.2200   36.1610   43.4530 C   0  0  0  0  0  0  0  0  0  0  0  0
   45.8650   34.9520   43.1340 C   0  0  0  0  0  0  0  0  0  0  0  0
   45.8080   33.9850   44.1330 C   0  0  0  0  0  0  0  0  0  0  0  0
   45.1960   34.1780   45.2980 N   0  0  0  0  0  0  0  0  0  0  0  0
   44.5850   35.3750   45.5550 C   0  0  0  0  0  0  0  0  0  0  0  0
   44.6040   36.3480   44.6310 N   0  0  0  0  0  0  0  0  0  0  0  0
   46.4390   32.7420   43.8880 C   0  0  0  0  0  0  0  0  0  0  0  0
   47.7070   32.2580   43.9860 C   0  0  0  0  0  0  0  0  0  0  0  0
   48.0400   31.0210   43.6870 C   0  0  0  0  0  0  0  0  0  0  0  0
   47.0370   30.2260   43.2620 C   0  0  0  0  0  0  0  0  0  0  0  0
   45.5600   31.3070   43.2980 S   0  0  0  0  0  0  0  0  0  0  0  0
   46.5050   34.7980   41.8720 C   0  0  0  0  0  0  0  0  0  0  0  0
   47.6880   35.2380   41.8030 O   0  0  0  0  0  0  0  0  0  0  0  0
   45.7710   34.1460   40.7350 C   0  0  0  0  0  0  0  0  0  0  0  0
   44.4120   34.1300   40.5440 C   0  0  0  0  0  0  0  0  0  0  0  0
   44.2200   33.4330   39.4010 N   0  0  0  0  0  0  0  0  0  0  0  0
   45.4080   33.0440   38.9220 C   0  0  0  0  0  0  0  0  0  0  0  0
   46.3740   33.4850   39.7470 N   0  0  0  0  0  0  0  0  0  0  0  0
   45.7370   32.2970   37.7600 N   0  0  0  0  0  0  0  0  0  0  0  0
   42.9730   33.1110   38.7310 C   0  0  0  0  0  0  0  0  0  0  0  0
   45.2205   36.9771   42.7154 H   0  0  0  0  0  0  0  0  0  0  0  0
   44.0789   35.5395   46.5177 H   0  0  0  0  0  0  0  0  0  0  0  0
   48.4974   32.9389   44.3346 H   0  0  0  0  0  0  0  0  0  0  0  0
   49.0741   30.6571   43.7781 H   0  0  0  0  0  0  0  0  0  0  0  0
   47.0935   29.1692   42.9621 H   0  0  0  0  0  0  0  0  0  0  0  0
   43.6428   34.5867   41.1841 H   0  0  0  0  0  0  0  0  0  0  0  0
   46.7221   32.0872   37.5444 H   0  0  0  0  0  0  0  0  0  0  0  0
   44.9905   31.9650   37.1328 H   0  0  0  0  0  0  0  0  0  0  0  0
   42.1946   32.9100   39.4818 H   0  0  0  0  0  0  0  0  0  0  0  0
   42.6652   33.9591   38.1018 H   0  0  0  0  0  0  0  0  0  0  0  0
   43.1143   32.2199   38.1018 H   0  0  0  0  0  0  0  0  0  0  0  0
  1  6  2  0
  2  1  1  0
  2  3  2  0
  3  4  1  0
  4  5  2  0
  6  5  1  0
  7  8  2  0
  7  3  1  0
  9  8  1  0
 10 11  1  0
 10  9  2  0
 11  7  1  0
 12  2  1  0
 13 12  2  0
 14 12  1  0
 15 14  2  0
 16 15  1  0
 17 16  1  0
 17 18  2  0
 18 14  1  0
 19 17  1  0
 20 16  1  0
  1 21  1  0
  5 22  1  0
  8 23  1  0
  9 24  1  0
 10 25  1  0
 15 26  1  0
 19 27  1  0
 19 28  1  0
 20 29  1  0
 20 30  1  0
 20 31  1  0
M  ISO  8  21  14  22  14  23  14  24  14  25  14  26  14  29   8  30   8
M  ISO  1  31   8
M  END
>  <minimizedAffinity>  (1) 
-4.51442528

>  <minimizedRMSD>  (1) 
0.100307718

$$$$
