
     RDKit          3D

 37 38  0  0  0  0  0  0  0  0999 V2000
   46.0620   32.3680   44.6220 C   0  0  0  0  0  0  0  0  0  0  0  0
   44.6000   35.7190   44.7480 C   0  0  0  0  0  0  0  0  0  0  0  0
   44.1730   35.9210   43.4180 C   0  0  0  0  0  0  0  0  0  0  0  0
   44.4070   34.8930   42.5280 C   0  0  0  0  0  0  0  0  0  0  0  0
   45.0150   33.7640   42.9460 N   0  0  0  0  0  0  0  0  0  0  0  0
   45.4010   33.6280   44.2290 C   0  0  0  0  0  0  0  0  0  0  0  0
   45.2060   34.5700   45.1170 N   0  0  0  0  0  0  0  0  0  0  0  0
   43.9530   35.1150   41.1320 C   0  0  0  0  0  0  0  0  0  0  0  0
   42.4540   35.3380   41.0600 C   0  0  0  0  0  0  0  0  0  0  0  0
   41.9540   35.0280   39.3360 S   0  0  0  0  0  0  0  0  0  0  0  0
   46.7730   32.5550   45.9230 C   0  0  0  0  0  0  0  0  0  0  0  0
   46.1710   31.8160   47.0070 C   0  0  0  0  0  0  0  0  0  0  0  0
   45.3590   32.2810   48.0130 C   0  0  0  0  0  0  0  0  0  0  0  0
   44.8390   31.5010   48.9930 C   0  0  0  0  0  0  0  0  0  0  0  0
   45.1460   30.1530   48.9790 C   0  0  0  0  0  0  0  0  0  0  0  0
   45.9580   29.6750   47.9790 C   0  0  0  0  0  0  0  0  0  0  0  0
   46.4730   30.4940   46.9930 C   0  0  0  0  0  0  0  0  0  0  0  0
   48.6250   29.4640   46.5800 C   0  0  0  0  0  0  0  0  0  0  0  0
   49.3810   29.7930   47.5730 O   0  0  0  0  0  0  0  0  0  0  0  0
   47.2720   29.6760   46.1230 N   0  0  0  0  0  0  0  0  0  0  0  0
   46.7875   32.0790   43.8474 H   0  0  0  0  0  0  0  0  0  0  0  0
   45.3039   31.5786   44.7321 H   0  0  0  0  0  0  0  0  0  0  0  0
   44.4367   36.5095   45.4953 H   0  0  0  0  0  0  0  0  0  0  0  0
   43.6779   36.8525   43.1062 H   0  0  0  0  0  0  0  0  0  0  0  0
   44.4653   36.0000   40.7267 H   0  0  0  0  0  0  0  0  0  0  0  0
   44.1954   34.2169   40.5449 H   0  0  0  0  0  0  0  0  0  0  0  0
   41.9353   34.6416   41.7352 H   0  0  0  0  0  0  0  0  0  0  0  0
   42.1934   36.3616   41.3671 H   0  0  0  0  0  0  0  0  0  0  0  0
   40.7897   34.3061   39.3210 H   0  0  0  0  0  0  0  0  0  0  0  0
   47.8136   32.2186   45.8051 H   0  0  0  0  0  0  0  0  0  0  0  0
   46.7127   33.6229   46.1799 H   0  0  0  0  0  0  0  0  0  0  0  0
   45.1153   33.3536   48.0243 H   0  0  0  0  0  0  0  0  0  0  0  0
   44.1931   31.9275   49.7746 H   0  0  0  0  0  0  0  0  0  0  0  0
   44.7489   29.4780   49.7515 H   0  0  0  0  0  0  0  0  0  0  0  0
   46.2065   28.6035   47.9630 H   0  0  0  0  0  0  0  0  0  0  0  0
   49.1772   28.8326   45.8684 H   0  0  0  0  0  0  0  0  0  0  0  0
   46.9097   29.2744   45.2464 H   0  0  0  0  0  0  0  0  0  0  0  0
  1 11  1  0
  2  7  2  0
  3  2  1  0
  4  5  1  0
  4  3  2  0
  5  6  2  0
  6  1  1  0
  6  7  1  0
  8  4  1  0
  9  8  1  0
 10  9  1  0
 11 12  1  0
 12 13  2  0
 13 14  1  0
 15 14  2  0
 16 15  1  0
 17 12  1  0
 17 16  2  0
 18 19  2  0
 20 18  1  0
 20 17  1  0
  1 21  1  0
  1 22  1  0
  2 23  1  0
  3 24  1  0
  8 25  1  0
  8 26  1  0
  9 27  1  0
  9 28  1  0
 10 29  1  0
 11 30  1  0
 11 31  1  0
 13 32  1  0
 14 33  1  0
 15 34  1  0
 16 35  1  0
 18 36  1  0
 20 37  1  0
M  ISO  8  21   8  22   8  23  14  24  14  25   8  26   8  27   8  28   8
M  ISO  8  29  11  30   8  31   8  32  14  33  14  34  14  35  14  36   6
M  END
>  <minimizedAffinity>  (1) 
-4.74103689

>  <minimizedRMSD>  (1) 
0.171308026

$$$$
