
     RDKit          3D

 47 50  0  0  0  0  0  0  0  0999 V2000
   45.7820   35.1020   42.5020 C   0  0  0  0  0  0  0  0  0  0  0  0
   46.9230   35.6240   42.2820 O   0  0  0  0  0  0  0  0  0  0  0  0
   44.7520   34.8470   41.4410 C   0  0  0  0  0  0  0  0  0  0  0  0
   43.5450   35.4870   41.3070 C   0  0  0  0  0  0  0  0  0  0  0  0
   42.9640   34.9250   40.2160 N   0  0  0  0  0  0  0  0  0  0  0  0
   43.7890   33.9900   39.7220 C   0  0  0  0  0  0  0  0  0  0  0  0
   44.8940   33.9340   40.4700 N   0  0  0  0  0  0  0  0  0  0  0  0
   43.6290   33.1460   38.6040 N   0  0  0  0  0  0  0  0  0  0  0  0
   41.6710   35.2460   39.6390 C   0  0  0  0  0  0  0  0  0  0  0  0
   40.5980   34.2460   39.9720 C   0  0  0  0  0  0  0  0  0  0  0  0
   39.3790   34.3840   39.1260 C   0  0  0  0  0  0  0  0  0  0  0  0
   38.1820   33.7520   39.7490 C   0  0  0  0  0  0  0  0  0  0  0  0
   38.4890   32.5660   40.6020 C   0  0  0  0  0  0  0  0  0  0  0  0
   39.5320   32.8280   41.6440 C   0  0  0  0  0  0  0  0  0  0  0  0
   40.2170   34.1810   41.4110 C   0  0  0  0  0  0  0  0  0  0  0  0
   44.7620   35.6240   44.6660 C   0  0  0  0  0  0  0  0  0  0  0  0
   45.5170   34.7600   43.8540 C   0  0  0  0  0  0  0  0  0  0  0  0
   45.9480   33.6070   44.4800 C   0  0  0  0  0  0  0  0  0  0  0  0
   45.6760   33.3230   45.7580 N   0  0  0  0  0  0  0  0  0  0  0  0
   44.9370   34.2000   46.5030 C   0  0  0  0  0  0  0  0  0  0  0  0
   44.4900   35.3450   45.9400 N   0  0  0  0  0  0  0  0  0  0  0  0
   46.7210   32.6760   43.7230 C   0  0  0  0  0  0  0  0  0  0  0  0
   48.0440   32.5240   43.4490 C   0  0  0  0  0  0  0  0  0  0  0  0
   48.4950   31.5440   42.7000 C   0  0  0  0  0  0  0  0  0  0  0  0
   47.5810   30.6910   42.2150 C   0  0  0  0  0  0  0  0  0  0  0  0
   45.9960   31.3140   42.8540 S   0  0  0  0  0  0  0  0  0  0  0  0
   43.1364   36.2837   41.9460 H   0  0  0  0  0  0  0  0  0  0  0  0
   44.3685   32.4731   38.3567 H   0  0  0  0  0  0  0  0  0  0  0  0
   42.7726   33.2024   38.0345 H   0  0  0  0  0  0  0  0  0  0  0  0
   41.7792   35.2886   38.5452 H   0  0  0  0  0  0  0  0  0  0  0  0
   41.3574   36.2099   40.0663 H   0  0  0  0  0  0  0  0  0  0  0  0
   41.0820   33.2871   39.7347 H   0  0  0  0  0  0  0  0  0  0  0  0
   39.5669   33.9038   38.1544 H   0  0  0  0  0  0  0  0  0  0  0  0
   39.1701   35.4578   39.0106 H   0  0  0  0  0  0  0  0  0  0  0  0
   37.6803   34.5055   40.3739 H   0  0  0  0  0  0  0  0  0  0  0  0
   37.5497   33.3921   38.9239 H   0  0  0  0  0  0  0  0  0  0  0  0
   37.5637   32.2531   41.1078 H   0  0  0  0  0  0  0  0  0  0  0  0
   38.8879   31.7861   39.9367 H   0  0  0  0  0  0  0  0  0  0  0  0
   39.0561   32.8322   42.6357 H   0  0  0  0  0  0  0  0  0  0  0  0
   40.2929   32.0359   41.5840 H   0  0  0  0  0  0  0  0  0  0  0  0
   41.1147   34.2614   42.0416 H   0  0  0  0  0  0  0  0  0  0  0  0
   39.5406   35.0085   41.6713 H   0  0  0  0  0  0  0  0  0  0  0  0
   44.3829   36.5623   44.2349 H   0  0  0  0  0  0  0  0  0  0  0  0
   44.7074   33.9749   47.5550 H   0  0  0  0  0  0  0  0  0  0  0  0
   48.7603   33.2457   43.8685 H   0  0  0  0  0  0  0  0  0  0  0  0
   49.5670   31.4289   42.4818 H   0  0  0  0  0  0  0  0  0  0  0  0
   47.7513   29.8127   41.5751 H   0  0  0  0  0  0  0  0  0  0  0  0
  1 17  1  0
  2  1  2  0
  3  1  1  0
  4  3  2  0
  5  4  1  0
  6  5  1  0
  6  7  2  0
  7  3  1  0
  8  6  1  0
  9 10  1  0
  9  5  1  0
 10 15  1  0
 11 12  1  0
 11 10  1  0
 12 13  1  0
 13 14  1  0
 15 14  1  0
 16 21  2  0
 17 18  2  0
 17 16  1  0
 18 19  1  0
 19 20  2  0
 21 20  1  0
 22 18  1  0
 23 22  2  0
 24 23  1  0
 25 24  2  0
 25 26  1  0
 26 22  1  0
  4 27  1  0
  8 28  1  0
  8 29  1  0
  9 30  1  0
  9 31  1  0
 10 32  1  0
 11 33  1  0
 11 34  1  0
 12 35  1  0
 12 36  1  0
 13 37  1  0
 13 38  1  0
 14 39  1  0
 14 40  1  0
 15 41  1  0
 15 42  1  0
 16 43  1  0
 20 44  1  0
 23 45  1  0
 24 46  1  0
 25 47  1  0
M  ISO  8  27  14  30   8  31   8  32  13  33  13  34  13  35  13  36  13
M  ISO  8  37  13  38  13  39  13  40  13  41  13  42  13  43  14  44  14
M  ISO  3  45  14  46  14  47  14
M  END
>  <minimizedAffinity>  (1) 
-6.23237371

>  <minimizedRMSD>  (1) 
2.1808722

$$$$
