
     RDKit          3D

 38 39  0  0  0  0  0  0  0  0999 V2000
   46.0000   32.3610   44.6170 C   0  0  0  0  0  0  0  0  0  0  0  0
   44.6060   35.7380   44.7460 C   0  0  0  0  0  0  0  0  0  0  0  0
   44.1700   35.9320   43.4060 C   0  0  0  0  0  0  0  0  0  0  0  0
   44.3740   34.9000   42.5210 C   0  0  0  0  0  0  0  0  0  0  0  0
   44.9670   33.7680   42.9450 N   0  0  0  0  0  0  0  0  0  0  0  0
   45.3630   33.6320   44.2260 C   0  0  0  0  0  0  0  0  0  0  0  0
   45.1920   34.5820   45.1100 N   0  0  0  0  0  0  0  0  0  0  0  0
   43.9140   35.1280   41.1310 C   0  0  0  0  0  0  0  0  0  0  0  0
   42.4280   35.3570   41.0640 C   0  0  0  0  0  0  0  0  0  0  0  0
   42.0700   35.2150   39.6440 N   0  0  0  0  0  0  0  0  0  0  0  0
   46.7570   32.5530   45.8950 C   0  0  0  0  0  0  0  0  0  0  0  0
   46.1620   31.8290   47.0060 C   0  0  0  0  0  0  0  0  0  0  0  0
   45.3530   32.2930   48.0120 C   0  0  0  0  0  0  0  0  0  0  0  0
   44.8480   31.5260   49.0010 C   0  0  0  0  0  0  0  0  0  0  0  0
   45.1630   30.1940   49.0020 C   0  0  0  0  0  0  0  0  0  0  0  0
   45.9760   29.7000   48.0000 C   0  0  0  0  0  0  0  0  0  0  0  0
   46.4760   30.5030   47.0070 C   0  0  0  0  0  0  0  0  0  0  0  0
   48.6080   29.4360   46.5990 C   0  0  0  0  0  0  0  0  0  0  0  0
   49.3830   29.8140   47.5700 O   0  0  0  0  0  0  0  0  0  0  0  0
   47.2750   29.6860   46.1440 N   0  0  0  0  0  0  0  0  0  0  0  0
   46.6929   32.0396   43.8254 H   0  0  0  0  0  0  0  0  0  0  0  0
   45.2260   31.5929   44.7617 H   0  0  0  0  0  0  0  0  0  0  0  0
   44.4636   36.5368   45.4887 H   0  0  0  0  0  0  0  0  0  0  0  0
   43.6891   36.8697   43.0907 H   0  0  0  0  0  0  0  0  0  0  0  0
   44.4290   36.0117   40.7261 H   0  0  0  0  0  0  0  0  0  0  0  0
   44.1481   34.2291   40.5418 H   0  0  0  0  0  0  0  0  0  0  0  0
   41.8964   34.6092   41.6708 H   0  0  0  0  0  0  0  0  0  0  0  0
   42.1502   36.3461   41.4571 H   0  0  0  0  0  0  0  0  0  0  0  0
   41.1153   34.8363   39.5668 H   0  0  0  0  0  0  0  0  0  0  0  0
   42.1120   36.1364   39.1855 H   0  0  0  0  0  0  0  0  0  0  0  0
   47.7876   32.1959   45.7521 H   0  0  0  0  0  0  0  0  0  0  0  0
   46.7321   33.6247   46.1416 H   0  0  0  0  0  0  0  0  0  0  0  0
   45.0985   33.3632   48.0126 H   0  0  0  0  0  0  0  0  0  0  0  0
   44.2039   31.9575   49.7813 H   0  0  0  0  0  0  0  0  0  0  0  0
   44.7755   29.5282   49.7872 H   0  0  0  0  0  0  0  0  0  0  0  0
   46.2300   28.6297   47.9987 H   0  0  0  0  0  0  0  0  0  0  0  0
   49.1221   28.7212   45.9397 H   0  0  0  0  0  0  0  0  0  0  0  0
   46.9150   29.3049   45.2574 H   0  0  0  0  0  0  0  0  0  0  0  0
  1 11  1  0
  2  7  2  0
  3  2  1  0
  4  5  1  0
  4  3  2  0
  5  6  2  0
  6  1  1  0
  6  7  1  0
  8  4  1  0
  9  8  1  0
 10  9  1  0
 11 12  1  0
 12 17  1  0
 12 13  2  0
 13 14  1  0
 14 15  2  0
 16 15  1  0
 17 16  2  0
 18 19  2  0
 20 18  1  0
 20 17  1  0
  1 21  1  0
  1 22  1  0
  2 23  1  0
  3 24  1  0
  8 25  1  0
  8 26  1  0
  9 27  1  0
  9 28  1  0
 10 29  1  0
 10 30  1  0
 11 31  1  0
 11 32  1  0
 13 33  1  0
 14 34  1  0
 15 35  1  0
 16 36  1  0
 18 37  1  0
 20 38  1  0
M  ISO  8  21   8  22   8  23  14  24  14  25   8  26   8  27   8  28   8
M  ISO  8  29   5  30   5  31   8  32   8  33  14  34  14  35  14  36  14
M  ISO  1  37   6
M  END
>  <minimizedAffinity>  (1) 
-4.72917032

>  <minimizedRMSD>  (1) 
0.134041429

$$$$
