
     RDKit          3D

 40 43  0  0  0  0  0  0  0  0999 V2000
   44.8460   34.4110   41.8900 C   0  0  0  0  0  0  0  0  0  0  0  0
   43.7070   33.6650   41.8400 C   0  0  0  0  0  0  0  0  0  0  0  0
   43.6350   33.2220   40.5760 N   0  0  0  0  0  0  0  0  0  0  0  0
   44.6780   33.6700   39.8750 C   0  0  0  0  0  0  0  0  0  0  0  0
   45.4380   34.4140   40.6910 N   0  0  0  0  0  0  0  0  0  0  0  0
   45.0500   33.4800   38.5160 N   0  0  0  0  0  0  0  0  0  0  0  0
   42.6020   32.3830   39.9700 C   0  0  0  0  0  0  0  0  0  0  0  0
   41.3890   33.2390   39.9160 C   0  0  0  0  0  0  0  0  0  0  0  0
   40.2440   32.9100   40.6060 C   0  0  0  0  0  0  0  0  0  0  0  0
   39.1000   33.6680   40.5880 C   0  0  0  0  0  0  0  0  0  0  0  0
   39.1440   34.8250   39.8140 C   0  0  0  0  0  0  0  0  0  0  0  0
   40.2880   35.1600   39.1210 C   0  0  0  0  0  0  0  0  0  0  0  0
   41.3790   34.3810   39.1750 N   0  0  0  0  0  0  0  0  0  0  0  0
   45.3940   35.1420   43.0940 C   0  0  0  0  0  0  0  0  0  0  0  0
   45.6080   36.3960   43.1340 O   0  0  0  0  0  0  0  0  0  0  0  0
   44.8910   34.5490   45.4150 C   0  0  0  0  0  0  0  0  0  0  0  0
   45.7020   34.4210   44.2750 C   0  0  0  0  0  0  0  0  0  0  0  0
   46.7800   33.5620   44.4200 C   0  0  0  0  0  0  0  0  0  0  0  0
   47.0330   32.9040   45.5550 N   0  0  0  0  0  0  0  0  0  0  0  0
   46.2150   33.0640   46.6300 C   0  0  0  0  0  0  0  0  0  0  0  0
   45.1600   33.8790   46.5500 N   0  0  0  0  0  0  0  0  0  0  0  0
   47.6550   33.3800   43.3080 C   0  0  0  0  0  0  0  0  0  0  0  0
   48.6400   34.1130   42.7280 C   0  0  0  0  0  0  0  0  0  0  0  0
   49.3040   33.6850   41.6780 C   0  0  0  0  0  0  0  0  0  0  0  0
   48.9670   32.4840   41.1960 C   0  0  0  0  0  0  0  0  0  0  0  0
   47.6220   31.9180   42.2960 S   0  0  0  0  0  0  0  0  0  0  0  0
   42.9995   33.4685   42.6591 H   0  0  0  0  0  0  0  0  0  0  0  0
   45.9090   33.9160   38.1514 H   0  0  0  0  0  0  0  0  0  0  0  0
   44.4605   32.9063   37.8961 H   0  0  0  0  0  0  0  0  0  0  0  0
   42.9011   32.0731   38.9578 H   0  0  0  0  0  0  0  0  0  0  0  0
   42.4302   31.4614   40.5454 H   0  0  0  0  0  0  0  0  0  0  0  0
   40.2462   31.9877   41.2055 H   0  0  0  0  0  0  0  0  0  0  0  0
   38.2010   33.3786   41.1519 H   0  0  0  0  0  0  0  0  0  0  0  0
   38.2596   35.4764   39.7551 H   0  0  0  0  0  0  0  0  0  0  0  0
   40.3064   36.0783   38.5157 H   0  0  0  0  0  0  0  0  0  0  0  0
   44.0149   35.2131   45.3786 H   0  0  0  0  0  0  0  0  0  0  0  0
   46.4223   32.5224   47.5647 H   0  0  0  0  0  0  0  0  0  0  0  0
   48.8902   35.0971   43.1509 H   0  0  0  0  0  0  0  0  0  0  0  0
   50.1006   34.2871   41.2166 H   0  0  0  0  0  0  0  0  0  0  0  0
   49.4008   31.9567   40.3335 H   0  0  0  0  0  0  0  0  0  0  0  0
  1 14  1  0
  2  1  2  0
  3  2  1  0
  4  3  1  0
  4  5  2  0
  5  1  1  0
  6  4  1  0
  7  3  1  0
  8  7  1  0
  8  9  2  0
 10  9  1  0
 11 10  2  0
 12 13  2  0
 12 11  1  0
 13  8  1  0
 14 15  2  0
 14 17  1  0
 16 21  2  0
 17 18  2  0
 17 16  1  0
 18 19  1  0
 19 20  2  0
 21 20  1  0
 22 18  1  0
 23 22  2  0
 24 23  1  0
 25 24  2  0
 25 26  1  0
 26 22  1  0
  2 27  1  0
  6 28  1  0
  6 29  1  0
  7 30  1  0
  7 31  1  0
  9 32  1  0
 10 33  1  0
 11 34  1  0
 12 35  1  0
 16 36  1  0
 20 37  1  0
 23 38  1  0
 24 39  1  0
 25 40  1  0
M  ISO  8  27  14  30   8  31   8  32  14  33  14  34  14  35  14  36  14
M  ISO  4  37  14  38  14  39  14  40  14
M  END
>  <minimizedAffinity>  (1) 
-5.7401166

>  <minimizedRMSD>  (1) 
2.78675151

$$$$
