
     RDKit          3D

 38 41  0  0  0  0  0  0  0  0999 V2000
   44.4720   34.5010   40.6100 C   0  0  0  0  0  0  0  0  0  0  0  0
   43.3640   35.2950   40.5340 C   0  0  0  0  0  0  0  0  0  0  0  0
   42.6390   34.7900   39.5100 N   0  0  0  0  0  0  0  0  0  0  0  0
   43.2730   33.7480   38.9940 C   0  0  0  0  0  0  0  0  0  0  0  0
   44.4180   33.5630   39.6760 N   0  0  0  0  0  0  0  0  0  0  0  0
   42.9220   32.8910   37.9160 N   0  0  0  0  0  0  0  0  0  0  0  0
   41.3570   35.2710   39.0050 C   0  0  0  0  0  0  0  0  0  0  0  0
   40.2240   34.5110   39.5640 C   0  0  0  0  0  0  0  0  0  0  0  0
   38.9550   34.2870   39.0870 C   0  0  0  0  0  0  0  0  0  0  0  0
   38.3060   33.5080   40.0070 C   0  0  0  0  0  0  0  0  0  0  0  0
   39.2030   33.2770   41.0270 C   0  0  0  0  0  0  0  0  0  0  0  0
   40.3280   33.8820   40.7340 O   0  0  0  0  0  0  0  0  0  0  0  0
   45.6060   34.6420   41.5950 C   0  0  0  0  0  0  0  0  0  0  0  0
   46.8270   34.6370   41.2880 O   0  0  0  0  0  0  0  0  0  0  0  0
   44.8960   36.0400   43.4870 C   0  0  0  0  0  0  0  0  0  0  0  0
   45.3200   34.7940   42.9870 C   0  0  0  0  0  0  0  0  0  0  0  0
   45.4210   33.7980   43.9410 C   0  0  0  0  0  0  0  0  0  0  0  0
   45.1460   33.9810   45.2340 N   0  0  0  0  0  0  0  0  0  0  0  0
   44.7370   35.2170   45.6600 C   0  0  0  0  0  0  0  0  0  0  0  0
   44.6190   36.2220   44.7850 N   0  0  0  0  0  0  0  0  0  0  0  0
   45.8490   32.5040   43.5130 C   0  0  0  0  0  0  0  0  0  0  0  0
   47.0300   31.8430   43.4420 C   0  0  0  0  0  0  0  0  0  0  0  0
   47.1430   30.6170   42.9900 C   0  0  0  0  0  0  0  0  0  0  0  0
   46.0020   30.0350   42.5940 C   0  0  0  0  0  0  0  0  0  0  0  0
   44.7120   31.2840   42.8720 S   0  0  0  0  0  0  0  0  0  0  0  0
   43.1149   36.1585   41.1683 H   0  0  0  0  0  0  0  0  0  0  0  0
   43.5472   32.1173   37.6486 H   0  0  0  0  0  0  0  0  0  0  0  0
   42.0425   33.0436   37.4022 H   0  0  0  0  0  0  0  0  0  0  0  0
   41.2429   36.3307   39.2772 H   0  0  0  0  0  0  0  0  0  0  0  0
   41.3500   35.1382   37.9131 H   0  0  0  0  0  0  0  0  0  0  0  0
   38.5379   34.6637   38.1414 H   0  0  0  0  0  0  0  0  0  0  0  0
   37.2716   33.1390   39.9442 H   0  0  0  0  0  0  0  0  0  0  0  0
   39.0080   32.6852   41.9335 H   0  0  0  0  0  0  0  0  0  0  0  0
   44.7893   36.8869   42.7931 H   0  0  0  0  0  0  0  0  0  0  0  0
   44.5054   35.3833   46.7224 H   0  0  0  0  0  0  0  0  0  0  0  0
   47.9396   32.3608   43.7805 H   0  0  0  0  0  0  0  0  0  0  0  0
   48.1122   30.0993   42.9391 H   0  0  0  0  0  0  0  0  0  0  0  0
   45.8744   29.0205   42.1884 H   0  0  0  0  0  0  0  0  0  0  0  0
  1 13  1  0
  2  1  2  0
  3  2  1  0
  4  3  1  0
  4  5  2  0
  5  1  1  0
  6  4  1  0
  7  3  1  0
  7  8  1  0
  8 12  1  0
  9  8  2  0
  9 10  1  0
 10 11  2  0
 12 11  1  0
 13 16  1  0
 14 13  2  0
 15 20  2  0
 16 15  1  0
 16 17  2  0
 17 18  1  0
 18 19  2  0
 20 19  1  0
 21 17  1  0
 22 21  2  0
 23 22  1  0
 24 25  1  0
 24 23  2  0
 25 21  1  0
  2 26  1  0
  6 27  1  0
  6 28  1  0
  7 29  1  0
  7 30  1  0
  9 31  1  0
 10 32  1  0
 11 33  1  0
 15 34  1  0
 19 35  1  0
 22 36  1  0
 23 37  1  0
 24 38  1  0
M  ISO  8  26  14  29   8  30   8  31  14  32  14  33  14  34  14  35  14
M  ISO  3  36  14  37  14  38  14
M  END
>  <minimizedAffinity>  (1) 
-5.76304245

>  <minimizedRMSD>  (1) 
2.21930718

$$$$
