
     RDKit          3D

 32 34  0  0  0  0  0  0  0  0999 V2000
   45.2170   36.1650   43.4590 C   0  0  0  0  0  0  0  0  0  0  0  0
   45.8650   34.9600   43.1420 C   0  0  0  0  0  0  0  0  0  0  0  0
   45.8120   33.9950   44.1380 C   0  0  0  0  0  0  0  0  0  0  0  0
   45.2000   34.1850   45.2960 N   0  0  0  0  0  0  0  0  0  0  0  0
   44.5830   35.3740   45.5590 C   0  0  0  0  0  0  0  0  0  0  0  0
   44.5990   36.3430   44.6440 N   0  0  0  0  0  0  0  0  0  0  0  0
   46.4530   32.7420   43.8890 C   0  0  0  0  0  0  0  0  0  0  0  0
   47.7170   32.2590   43.9850 C   0  0  0  0  0  0  0  0  0  0  0  0
   48.0280   31.0220   43.6800 C   0  0  0  0  0  0  0  0  0  0  0  0
   47.0220   30.2420   43.2610 C   0  0  0  0  0  0  0  0  0  0  0  0
   45.5570   31.3130   43.2990 S   0  0  0  0  0  0  0  0  0  0  0  0
   46.5120   34.8060   41.8770 C   0  0  0  0  0  0  0  0  0  0  0  0
   47.7000   35.2490   41.8190 O   0  0  0  0  0  0  0  0  0  0  0  0
   45.7780   34.1590   40.7480 C   0  0  0  0  0  0  0  0  0  0  0  0
   44.4320   34.1480   40.5430 C   0  0  0  0  0  0  0  0  0  0  0  0
   44.2330   33.4490   39.4060 N   0  0  0  0  0  0  0  0  0  0  0  0
   45.4200   33.0510   38.9370 C   0  0  0  0  0  0  0  0  0  0  0  0
   46.3840   33.4900   39.7670 N   0  0  0  0  0  0  0  0  0  0  0  0
   45.7530   32.2930   37.7780 N   0  0  0  0  0  0  0  0  0  0  0  0
   42.9860   33.1320   38.7300 C   0  0  0  0  0  0  0  0  0  0  0  0
   42.4320   31.9450   39.1980 O   0  0  0  0  0  0  0  0  0  0  0  0
   45.2136   36.9827   42.7233 H   0  0  0  0  0  0  0  0  0  0  0  0
   44.0749   35.5316   46.5218 H   0  0  0  0  0  0  0  0  0  0  0  0
   48.5139   32.9326   44.3330 H   0  0  0  0  0  0  0  0  0  0  0  0
   49.0581   30.6453   43.7635 H   0  0  0  0  0  0  0  0  0  0  0  0
   47.0729   29.1851   42.9602 H   0  0  0  0  0  0  0  0  0  0  0  0
   43.6627   34.6144   41.1760 H   0  0  0  0  0  0  0  0  0  0  0  0
   46.7382   32.0765   37.5697 H   0  0  0  0  0  0  0  0  0  0  0  0
   45.0086   31.9613   37.1481 H   0  0  0  0  0  0  0  0  0  0  0  0
   43.1805   33.0334   37.6518 H   0  0  0  0  0  0  0  0  0  0  0  0
   42.2723   33.9447   38.9302 H   0  0  0  0  0  0  0  0  0  0  0  0
   42.4334   31.9480   40.1880 H   0  0  0  0  0  0  0  0  0  0  0  0
  1  6  2  0
  2  1  1  0
  2  3  2  0
  3  4  1  0
  4  5  2  0
  6  5  1  0
  7  8  2  0
  7  3  1  0
  9  8  1  0
 10 11  1  0
 10  9  2  0
 11  7  1  0
 12  2  1  0
 13 12  2  0
 14 12  1  0
 15 14  2  0
 16 15  1  0
 17 16  1  0
 17 18  2  0
 18 14  1  0
 19 17  1  0
 20 21  1  0
 20 16  1  0
  1 22  1  0
  5 23  1  0
  8 24  1  0
  9 25  1  0
 10 26  1  0
 15 27  1  0
 19 28  1  0
 19 29  1  0
 20 30  1  0
 20 31  1  0
 21 32  1  0
M  ISO  8  22  14  23  14  24  14  25  14  26  14  27  14  30   8  31   8
M  ISO  1  32   3
M  END
>  <minimizedAffinity>  (1) 
-4.39935207

>  <minimizedRMSD>  (1) 
0.0168406498

$$$$
