
     RDKit          3D

 39 43  0  0  1  0  0  0  0  0999 V2000
   47.9230   34.0720   41.2150 C   0  0  1  0  0  0  0  0  0  0  0  0
   48.3680   35.3900   41.6190 C   0  0  0  0  0  0  0  0  0  0  0  0
   46.8940   35.0700   41.6660 C   0  0  2  0  0  0  0  0  0  0  0  0
   46.3320   34.8300   43.0200 C   0  0  0  0  0  0  0  0  0  0  0  0
   45.3030   35.5810   43.5730 C   0  0  0  0  0  0  0  0  0  0  0  0
   44.8030   35.3020   44.8360 C   0  0  0  0  0  0  0  0  0  0  0  0
   45.3330   34.2590   45.5630 C   0  0  0  0  0  0  0  0  0  0  0  0
   44.8690   33.9440   46.8090 N   0  0  0  0  0  0  0  0  0  0  0  0
   45.3960   32.9150   47.5090 C   0  0  0  0  0  0  0  0  0  0  0  0
   46.4370   32.1060   47.0220 C   0  0  0  0  0  0  0  0  0  0  0  0
   46.9280   32.4030   45.7580 C   0  0  0  0  0  0  0  0  0  0  0  0
   46.3640   33.4750   45.0570 C   0  0  0  0  0  0  0  0  0  0  0  0
   46.8290   33.7950   43.7920 C   0  0  0  0  0  0  0  0  0  0  0  0
   48.3630   34.5690   38.7800 C   0  0  0  0  0  0  0  0  0  0  0  0
   47.9140   33.6600   39.7860 C   0  0  0  0  0  0  0  0  0  0  0  0
   47.4690   32.4130   39.3930 C   0  0  0  0  0  0  0  0  0  0  0  0
   47.4860   32.1320   38.0600 N   0  0  0  0  0  0  0  0  0  0  0  0
   47.9120   33.0020   37.1180 C   0  0  0  0  0  0  0  0  0  0  0  0
   48.3530   34.2280   37.4830 N   0  0  0  0  0  0  0  0  0  0  0  0
   47.9070   32.6450   35.7010 C   0  0  0  0  0  0  0  0  0  0  0  0
   46.8990   31.8760   35.1550 C   0  0  0  0  0  0  0  0  0  0  0  0
   47.2380   31.7510   33.8030 C   0  0  0  0  0  0  0  0  0  0  0  0
   48.4290   32.4490   33.6050 C   0  0  0  0  0  0  0  0  0  0  0  0
   48.7680   32.9550   34.7770 O   0  0  0  0  0  0  0  0  0  0  0  0
   48.2233   33.0569   41.5139 H   0  0  0  0  0  0  0  0  0  0  0  0
   48.9311   35.5141   42.5558 H   0  0  0  0  0  0  0  0  0  0  0  0
   48.9717   36.1791   41.1468 H   0  0  0  0  0  0  0  0  0  0  0  0
   45.9751   35.5094   41.2505 H   0  0  0  0  0  0  0  0  0  0  0  0
   44.8755   36.4149   42.9969 H   0  0  0  0  0  0  0  0  0  0  0  0
   43.9877   35.9102   45.2549 H   0  0  0  0  0  0  0  0  0  0  0  0
   44.9904   32.7002   48.5087 H   0  0  0  0  0  0  0  0  0  0  0  0
   46.8445   31.2746   47.6159 H   0  0  0  0  0  0  0  0  0  0  0  0
   47.7422   31.8090   45.3172 H   0  0  0  0  0  0  0  0  0  0  0  0
   47.6455   33.1875   43.3746 H   0  0  0  0  0  0  0  0  0  0  0  0
   48.7232   35.5659   39.0741 H   0  0  0  0  0  0  0  0  0  0  0  0
   47.1145   31.6752   40.1279 H   0  0  0  0  0  0  0  0  0  0  0  0
   46.0227   31.4545   35.6692 H   0  0  0  0  0  0  0  0  0  0  0  0
   46.6695   31.2029   33.0372 H   0  0  0  0  0  0  0  0  0  0  0  0
   48.9785   32.5570   32.6582 H   0  0  0  0  0  0  0  0  0  0  0  0
  1  2  1  0
  1  3  1  0
  2  3  1  0
  3  4  1  0
  4  5  2  0
  4 13  1  0
  5  6  1  0
  6  7  2  0
  7  8  1  0
  8  9  2  0
 10  9  1  0
 11 10  2  0
 12  7  1  0
 12 11  1  0
 13 12  2  0
 14 15  2  0
 15  1  1  0
 16 15  1  0
 17 16  2  0
 18 19  2  0
 18 17  1  0
 19 14  1  0
 20 18  1  0
 21 20  2  0
 22 21  1  0
 23 22  2  0
 23 24  1  0
 24 20  1  0
  1 25  1  1
  2 26  1  0
  2 27  1  0
  3 28  1  6
  5 29  1  0
  6 30  1  0
  9 31  1  0
 10 32  1  0
 11 33  1  0
 13 34  1  0
 14 35  1  0
 16 36  1  0
 21 37  1  0
 22 38  1  0
 23 39  1  0
M  ISO  8  25  13  26  13  27  13  28  13  29  14  30  14  31  14  32  14
M  ISO  7  33  14  34  14  35  14  36  14  37  14  38  14  39  14
M  END
>  <minimizedAffinity>  (1) 
-6.42443323

>  <minimizedRMSD>  (1) 
8.88768578

$$$$
