
     RDKit          3D

 53 58  0  0  1  0  0  0  0  0999 V2000
   45.5320   34.4360   44.4100 C   0  0  0  0  0  0  0  0  0  0  0  0
   46.5760   33.6360   43.8230 C   0  0  0  0  0  0  0  0  0  0  0  0
   47.1530   32.6480   44.5840 C   0  0  0  0  0  0  0  0  0  0  0  0
   46.6840   32.5010   45.8500 N   0  0  0  0  0  0  0  0  0  0  0  0
   45.7160   33.2420   46.3930 C   0  0  0  0  0  0  0  0  0  0  0  0
   45.1240   34.2300   45.6680 N   0  0  0  0  0  0  0  0  0  0  0  0
   46.9690   33.9200   42.4110 C   0  0  1  0  0  0  0  0  0  0  0  0
   47.6340   35.1640   42.0510 C   0  0  0  0  0  0  0  0  0  0  0  0
   48.4550   33.9280   42.1040 C   0  0  2  0  0  0  0  0  0  0  0  0
   48.8070   33.3010   40.7960 C   0  0  0  0  0  0  0  0  0  0  0  0
   49.6840   32.2450   40.6610 C   0  0  0  0  0  0  0  0  0  0  0  0
   49.9730   31.7180   39.4140 C   0  0  0  0  0  0  0  0  0  0  0  0
   49.3880   32.2410   38.2820 C   0  0  0  0  0  0  0  0  0  0  0  0
   49.6510   31.7430   37.0430 N   0  0  0  0  0  0  0  0  0  0  0  0
   49.0610   32.2750   35.9490 C   0  0  0  0  0  0  0  0  0  0  0  0
   48.1500   33.3590   35.9980 C   0  0  0  0  0  0  0  0  0  0  0  0
   47.8740   33.8740   37.2430 C   0  0  0  0  0  0  0  0  0  0  0  0
   48.4910   33.3130   38.3650 C   0  0  0  0  0  0  0  0  0  0  0  0
   48.2350   33.8040   39.6280 C   0  0  0  0  0  0  0  0  0  0  0  0
   45.3010   32.9230   47.7740 C   0  0  2  0  0  0  0  0  0  0  0  0
   46.1900   32.3230   48.7470 C   0  0  0  0  0  0  0  0  0  0  0  0
   45.0970   31.4800   48.1230 C   0  0  2  0  0  0  0  0  0  0  0  0
   45.5270   30.2830   47.4420 C   0  0  0  0  0  0  0  0  0  0  0  0
   44.4920   29.2950   46.9650 C   0  0  0  0  0  0  0  0  0  0  0  0
   45.2290   28.4260   45.9180 C   0  0  0  0  0  0  0  0  0  0  0  0
   46.2980   27.7680   46.5230 O   0  0  0  0  0  0  0  0  0  0  0  0
   47.2540   28.6330   47.0100 C   0  0  0  0  0  0  0  0  0  0  0  0
   46.6510   29.5030   48.0970 C   0  0  0  0  0  0  0  0  0  0  0  0
   45.0612   35.2311   43.8133 H   0  0  0  0  0  0  0  0  0  0  0  0
   47.9549   32.0080   44.1875 H   0  0  0  0  0  0  0  0  0  0  0  0
   46.0723   33.4081   42.0317 H   0  0  0  0  0  0  0  0  0  0  0  0
   47.7765   35.9448   42.8126 H   0  0  0  0  0  0  0  0  0  0  0  0
   47.4565   35.9323   41.2841 H   0  0  0  0  0  0  0  0  0  0  0  0
   49.3852   33.6359   42.6132 H   0  0  0  0  0  0  0  0  0  0  0  0
   50.1597   31.8163   41.5554 H   0  0  0  0  0  0  0  0  0  0  0  0
   50.6749   30.8755   39.3265 H   0  0  0  0  0  0  0  0  0  0  0  0
   49.3015   31.8424   34.9667 H   0  0  0  0  0  0  0  0  0  0  0  0
   47.6874   33.7675   35.0874 H   0  0  0  0  0  0  0  0  0  0  0  0
   47.1763   34.7170   37.3546 H   0  0  0  0  0  0  0  0  0  0  0  0
   47.5343   34.6469   39.7200 H   0  0  0  0  0  0  0  0  0  0  0  0
   44.6995   33.8436   47.7980 H   0  0  0  0  0  0  0  0  0  0  0  0
   47.2422   32.1365   48.4862 H   0  0  0  0  0  0  0  0  0  0  0  0
   46.4858   32.5663   49.7782 H   0  0  0  0  0  0  0  0  0  0  0  0
   44.1740   30.9292   48.3570 H   0  0  0  0  0  0  0  0  0  0  0  0
   45.8981   30.8012   46.5455 H   0  0  0  0  0  0  0  0  0  0  0  0
   44.1339   28.6752   47.8002 H   0  0  0  0  0  0  0  0  0  0  0  0
   43.6063   29.7924   46.5428 H   0  0  0  0  0  0  0  0  0  0  0  0
   45.6059   29.0691   45.1091 H   0  0  0  0  0  0  0  0  0  0  0  0
   44.5309   27.6833   45.5044 H   0  0  0  0  0  0  0  0  0  0  0  0
   48.0916   28.0548   47.4272 H   0  0  0  0  0  0  0  0  0  0  0  0
   47.6173   29.2722   46.1918 H   0  0  0  0  0  0  0  0  0  0  0  0
   47.4092   30.1915   48.4984 H   0  0  0  0  0  0  0  0  0  0  0  0
   46.2807   28.8958   48.9362 H   0  0  0  0  0  0  0  0  0  0  0  0
  1  6  2  0
  2  1  1  0
  2  3  2  0
  3  4  1  0
  4  5  2  0
  5 20  1  0
  6  5  1  0
  7  2  1  0
  8  9  1  0
  8  7  1  0
  9  7  1  0
 10  9  1  0
 11 10  2  0
 12 11  1  0
 13 18  1  0
 13 12  2  0
 14 13  1  0
 15 16  1  0
 15 14  2  0
 16 17  2  0
 17 18  1  0
 18 19  2  0
 19 10  1  0
 20 22  1  0
 20 21  1  0
 22 21  1  0
 23 28  1  0
 23 22  1  0
 24 23  1  0
 25 26  1  0
 25 24  1  0
 26 27  1  0
 27 28  1  0
  1 29  1  0
  3 30  1  0
  7 31  1  6
  8 32  1  0
  8 33  1  0
  9 34  1  1
 11 35  1  0
 12 36  1  0
 15 37  1  0
 16 38  1  0
 17 39  1  0
 19 40  1  0
 20 41  1  1
 21 42  1  0
 21 43  1  0
 22 44  1  1
 23 45  1  0
 24 46  1  0
 24 47  1  0
 25 48  1  0
 25 49  1  0
 27 50  1  0
 27 51  1  0
 28 52  1  0
 28 53  1  0
M  ISO  8  29  14  30  14  31  13  32  13  33  13  34  13  35  14  36  14
M  ISO  8  37  14  38  14  39  14  40  14  41  13  42  13  43  13  44  13
M  ISO  8  45  13  46  13  47  13  48  13  49  13  50  13  51  13  52  13
M  ISO  1  53  13
M  END
>  <minimizedAffinity>  (1) 
-6.18241787

>  <minimizedRMSD>  (1) 
1.37741816

$$$$
