
     RDKit          3D

 42 46  0  0  1  0  0  0  0  0999 V2000
   46.6970   33.4470   43.0680 C   0  0  1  0  0  0  0  0  0  0  0  0
   46.9340   34.8160   42.6180 C   0  0  0  0  0  0  0  0  0  0  0  0
   48.0890   33.8810   42.6340 C   0  0  2  0  0  0  0  0  0  0  0  0
   48.5210   33.3230   41.3280 C   0  0  0  0  0  0  0  0  0  0  0  0
   49.3680   32.2420   41.1840 C   0  0  0  0  0  0  0  0  0  0  0  0
   49.7300   31.7800   39.9290 C   0  0  0  0  0  0  0  0  0  0  0  0
   49.2500   32.3920   38.7980 C   0  0  0  0  0  0  0  0  0  0  0  0
   49.5860   31.9540   37.5610 N   0  0  0  0  0  0  0  0  0  0  0  0
   49.0950   32.5730   36.4570 C   0  0  0  0  0  0  0  0  0  0  0  0
   48.2210   33.6870   36.5020 C   0  0  0  0  0  0  0  0  0  0  0  0
   47.8730   34.1390   37.7550 C   0  0  0  0  0  0  0  0  0  0  0  0
   48.3880   33.4910   38.8810 C   0  0  0  0  0  0  0  0  0  0  0  0
   48.0550   33.9170   40.1530 C   0  0  0  0  0  0  0  0  0  0  0  0
   45.5180   33.8610   45.2600 C   0  0  0  0  0  0  0  0  0  0  0  0
   46.5190   33.1470   44.5200 C   0  0  0  0  0  0  0  0  0  0  0  0
   47.2740   32.2170   45.1870 C   0  0  0  0  0  0  0  0  0  0  0  0
   47.0230   32.0310   46.5150 N   0  0  0  0  0  0  0  0  0  0  0  0
   46.0700   32.7190   47.1980 C   0  0  0  0  0  0  0  0  0  0  0  0
   45.3190   33.6340   46.5670 N   0  0  0  0  0  0  0  0  0  0  0  0
   45.8980   32.4090   48.6430 C   0  0  2  0  0  0  0  0  0  0  0  0
   46.5370   31.2650   49.2650 C   0  0  0  0  0  0  0  0  0  0  0  0
   45.0800   31.1030   48.9070 C   0  0  2  0  0  0  0  0  0  0  0  0
   44.8030   30.2120   47.7330 C   0  0  0  0  0  0  0  0  0  0  0  0
   45.9707   32.6724   42.7808 H   0  0  0  0  0  0  0  0  0  0  0  0
   46.8927   35.6418   43.3434 H   0  0  0  0  0  0  0  0  0  0  0  0
   46.4799   35.4576   41.8485 H   0  0  0  0  0  0  0  0  0  0  0  0
   49.0986   33.9041   43.0701 H   0  0  0  0  0  0  0  0  0  0  0  0
   49.7616   31.7397   42.0800 H   0  0  0  0  0  0  0  0  0  0  0  0
   50.4064   30.9173   39.8384 H   0  0  0  0  0  0  0  0  0  0  0  0
   49.3929   32.1874   35.4708 H   0  0  0  0  0  0  0  0  0  0  0  0
   47.8414   34.1644   35.5866 H   0  0  0  0  0  0  0  0  0  0  0  0
   47.1977   34.9999   37.8685 H   0  0  0  0  0  0  0  0  0  0  0  0
   47.3791   34.7799   40.2459 H   0  0  0  0  0  0  0  0  0  0  0  0
   44.9003   34.6109   44.7441 H   0  0  0  0  0  0  0  0  0  0  0  0
   48.0550   31.6408   44.6693 H   0  0  0  0  0  0  0  0  0  0  0  0
   45.8733   33.4723   48.9236 H   0  0  0  0  0  0  0  0  0  0  0  0
   47.2962   30.7003   48.7041 H   0  0  0  0  0  0  0  0  0  0  0  0
   47.1047   31.1318   50.1977 H   0  0  0  0  0  0  0  0  0  0  0  0
   44.1408   30.8520   49.4216 H   0  0  0  0  0  0  0  0  0  0  0  0
   44.4942   29.2189   48.0912 H   0  0  0  0  0  0  0  0  0  0  0  0
   43.9981   30.6484   47.1233 H   0  0  0  0  0  0  0  0  0  0  0  0
   45.7134   30.1152   47.1233 H   0  0  0  0  0  0  0  0  0  0  0  0
  1 15  1  0
  2  3  1  0
  2  1  1  0
  3  1  1  0
  4  3  1  0
  5  4  2  0
  6  5  1  0
  7 12  1  0
  7  6  2  0
  8  7  1  0
  9 10  1  0
  9  8  2  0
 10 11  2  0
 11 12  1  0
 12 13  2  0
 13  4  1  0
 14 19  2  0
 15 16  2  0
 15 14  1  0
 16 17  1  0
 17 18  2  0
 18 20  1  0
 19 18  1  0
 20 22  1  0
 20 21  1  0
 22 21  1  0
 23 22  1  0
  1 24  1  6
  2 25  1  0
  2 26  1  0
  3 27  1  1
  5 28  1  0
  6 29  1  0
  9 30  1  0
 10 31  1  0
 11 32  1  0
 13 33  1  0
 14 34  1  0
 16 35  1  0
 20 36  1  1
 21 37  1  0
 21 38  1  0
 22 39  1  1
 23 40  1  0
 23 41  1  0
 23 42  1  0
M  ISO  8  24  13  25  13  26  13  27  13  28  14  29  14  30  14  31  14
M  ISO  8  32  14  33  14  34  14  35  14  36  13  37  13  38  13  39  13
M  ISO  3  40   8  41   8  42   8
M  END
>  <minimizedAffinity>  (1) 
-5.83902407

>  <minimizedRMSD>  (1) 
0.159228474

$$$$
