
     RDKit          3D

 41 45  0  0  1  0  0  0  0  0999 V2000
   46.7070   33.4200   43.0680 C   0  0  1  0  0  0  0  0  0  0  0  0
   46.9300   34.7900   42.6260 C   0  0  0  0  0  0  0  0  0  0  0  0
   48.0950   33.8660   42.6330 C   0  0  2  0  0  0  0  0  0  0  0  0
   48.5290   33.3080   41.3240 C   0  0  0  0  0  0  0  0  0  0  0  0
   49.3900   32.2410   41.1690 C   0  0  0  0  0  0  0  0  0  0  0  0
   49.7440   31.7930   39.9130 C   0  0  0  0  0  0  0  0  0  0  0  0
   49.2500   32.3960   38.7890 C   0  0  0  0  0  0  0  0  0  0  0  0
   49.5810   31.9750   37.5450 N   0  0  0  0  0  0  0  0  0  0  0  0
   49.0710   32.5970   36.4450 C   0  0  0  0  0  0  0  0  0  0  0  0
   48.1880   33.6940   36.5050 C   0  0  0  0  0  0  0  0  0  0  0  0
   47.8480   34.1270   37.7700 C   0  0  0  0  0  0  0  0  0  0  0  0
   48.3730   33.4840   38.8850 C   0  0  0  0  0  0  0  0  0  0  0  0
   48.0440   33.9020   40.1600 C   0  0  0  0  0  0  0  0  0  0  0  0
   45.5390   33.8290   45.2670 C   0  0  0  0  0  0  0  0  0  0  0  0
   46.5200   33.1160   44.5170 C   0  0  0  0  0  0  0  0  0  0  0  0
   47.2750   32.1830   45.1810 C   0  0  0  0  0  0  0  0  0  0  0  0
   47.0420   31.9990   46.5080 N   0  0  0  0  0  0  0  0  0  0  0  0
   46.1010   32.6900   47.2050 C   0  0  0  0  0  0  0  0  0  0  0  0
   45.3510   33.6070   46.5740 N   0  0  0  0  0  0  0  0  0  0  0  0
   45.9460   32.3920   48.6540 C   0  0  2  0  0  0  0  0  0  0  0  0
   46.5820   31.2370   49.2670 C   0  0  0  0  0  0  0  0  0  0  0  0
   45.1170   31.1000   48.9290 C   0  0  2  0  0  0  0  0  0  0  0  0
   44.8130   30.2350   47.7820 C   0  0  0  0  0  0  0  0  0  0  0  0
   45.0290   29.0600   47.4790 O   0  0  0  0  0  0  0  0  0  0  0  0
   45.9917   32.6364   42.7776 H   0  0  0  0  0  0  0  0  0  0  0  0
   46.8831   35.6113   43.3562 H   0  0  0  0  0  0  0  0  0  0  0  0
   46.4676   35.4314   41.8613 H   0  0  0  0  0  0  0  0  0  0  0  0
   49.1064   33.8997   43.0642 H   0  0  0  0  0  0  0  0  0  0  0  0
   49.7997   31.7408   42.0589 H   0  0  0  0  0  0  0  0  0  0  0  0
   50.4320   30.9404   39.8143 H   0  0  0  0  0  0  0  0  0  0  0  0
   49.3652   32.2216   35.4538 H   0  0  0  0  0  0  0  0  0  0  0  0
   47.7938   34.1757   35.5981 H   0  0  0  0  0  0  0  0  0  0  0  0
   47.1634   34.9787   37.8959 H   0  0  0  0  0  0  0  0  0  0  0  0
   47.3576   34.7554   40.2629 H   0  0  0  0  0  0  0  0  0  0  0  0
   44.9196   34.5821   44.7579 H   0  0  0  0  0  0  0  0  0  0  0  0
   48.0463   31.6008   44.6555 H   0  0  0  0  0  0  0  0  0  0  0  0
   45.9385   33.4554   48.9353 H   0  0  0  0  0  0  0  0  0  0  0  0
   47.3245   30.6619   48.6943 H   0  0  0  0  0  0  0  0  0  0  0  0
   47.1623   31.0938   50.1905 H   0  0  0  0  0  0  0  0  0  0  0  0
   44.1826   30.8618   49.4583 H   0  0  0  0  0  0  0  0  0  0  0  0
   44.2537   30.7679   46.9989 H   0  0  0  0  0  0  0  0  0  0  0  0
  1 15  1  0
  2  3  1  0
  2  1  1  0
  3  1  1  0
  4  3  1  0
  5  4  2  0
  6  5  1  0
  7 12  1  0
  7  6  2  0
  8  7  1  0
  9 10  1  0
  9  8  2  0
 10 11  2  0
 11 12  1  0
 12 13  2  0
 13  4  1  0
 14 19  2  0
 15 16  2  0
 15 14  1  0
 16 17  1  0
 17 18  2  0
 18 20  1  0
 19 18  1  0
 20 22  1  0
 20 21  1  0
 22 21  1  0
 23 22  1  0
 24 23  2  0
  1 25  1  6
  2 26  1  0
  2 27  1  0
  3 28  1  1
  5 29  1  0
  6 30  1  0
  9 31  1  0
 10 32  1  0
 11 33  1  0
 13 34  1  0
 14 35  1  0
 16 36  1  0
 20 37  1  1
 21 38  1  0
 21 39  1  0
 22 40  1  1
 23 41  1  0
M  ISO  8  25  13  26  13  27  13  28  13  29  14  30  14  31  14  32  14
M  ISO  8  33  14  34  14  35  14  36  14  37  13  38  13  39  13  40  13
M  ISO  1  41   6
M  END
>  <minimizedAffinity>  (1) 
-5.66427565

>  <minimizedRMSD>  (1) 
0.292550653

$$$$
