
     RDKit          3D

 40 44  0  0  1  0  0  0  0  0999 V2000
   46.7600   33.3630   42.6850 C   0  0  1  0  0  0  0  0  0  0  0  0
   46.9030   34.7240   42.1940 C   0  0  0  0  0  0  0  0  0  0  0  0
   48.1130   33.8660   42.2050 C   0  0  2  0  0  0  0  0  0  0  0  0
   48.5450   33.2870   40.9050 C   0  0  0  0  0  0  0  0  0  0  0  0
   49.4590   32.2620   40.7680 C   0  0  0  0  0  0  0  0  0  0  0  0
   49.8150   31.7860   39.5190 C   0  0  0  0  0  0  0  0  0  0  0  0
   49.2640   32.3270   38.3900 C   0  0  0  0  0  0  0  0  0  0  0  0
   49.5980   31.8790   37.1540 N   0  0  0  0  0  0  0  0  0  0  0  0
   49.0380   32.4330   36.0420 C   0  0  0  0  0  0  0  0  0  0  0  0
   48.0970   33.4840   36.0830 C   0  0  0  0  0  0  0  0  0  0  0  0
   47.7520   33.9440   37.3370 C   0  0  0  0  0  0  0  0  0  0  0  0
   48.3370   33.3630   38.4680 C   0  0  0  0  0  0  0  0  0  0  0  0
   48.0070   33.8110   39.7300 C   0  0  0  0  0  0  0  0  0  0  0  0
   45.7450   33.9130   44.9270 C   0  0  0  0  0  0  0  0  0  0  0  0
   46.6210   33.0990   44.1520 C   0  0  0  0  0  0  0  0  0  0  0  0
   47.3210   32.1070   44.7910 C   0  0  0  0  0  0  0  0  0  0  0  0
   47.1350   31.9610   46.1320 N   0  0  0  0  0  0  0  0  0  0  0  0
   46.2960   32.7450   46.8580 C   0  0  0  0  0  0  0  0  0  0  0  0
   45.6030   33.7190   46.2500 N   0  0  0  0  0  0  0  0  0  0  0  0
   46.1780   32.4860   48.3180 C   0  0  2  0  0  0  0  0  0  0  0  0
   46.6830   31.2590   48.9130 C   0  0  0  0  0  0  0  0  0  0  0  0
   45.1950   31.3240   48.6610 C   0  0  1  0  0  0  0  0  0  0  0  0
   44.4550   31.4600   49.8240 O   0  0  0  0  0  0  0  0  0  0  0  0
   46.0801   32.5346   42.4368 H   0  0  0  0  0  0  0  0  0  0  0  0
   46.8277   35.5662   42.8976 H   0  0  0  0  0  0  0  0  0  0  0  0
   46.3921   35.3137   41.4186 H   0  0  0  0  0  0  0  0  0  0  0  0
   49.1299   33.9678   42.6118 H   0  0  0  0  0  0  0  0  0  0  0  0
   49.9115   31.8166   41.6662 H   0  0  0  0  0  0  0  0  0  0  0  0
   50.5453   30.9679   39.4332 H   0  0  0  0  0  0  0  0  0  0  0  0
   49.3356   32.0396   35.0588 H   0  0  0  0  0  0  0  0  0  0  0  0
   47.6633   33.9120   35.1672 H   0  0  0  0  0  0  0  0  0  0  0  0
   47.0232   34.7606   37.4471 H   0  0  0  0  0  0  0  0  0  0  0  0
   47.2768   34.6294   39.8146 H   0  0  0  0  0  0  0  0  0  0  0  0
   45.1748   34.7143   44.4342 H   0  0  0  0  0  0  0  0  0  0  0  0
   48.0098   31.4512   44.2382 H   0  0  0  0  0  0  0  0  0  0  0  0
   46.3300   33.5431   48.5815 H   0  0  0  0  0  0  0  0  0  0  0  0
   47.3041   30.5814   48.3087 H   0  0  0  0  0  0  0  0  0  0  0  0
   47.2910   31.0445   49.8042 H   0  0  0  0  0  0  0  0  0  0  0  0
   44.4318   30.7592   48.1056 H   0  0  0  0  0  0  0  0  0  0  0  0
   45.0495   31.3507   50.6081 H   0  0  0  0  0  0  0  0  0  0  0  0
  1 15  1  0
  2  3  1  0
  2  1  1  0
  3  1  1  0
  4  3  1  0
  5  4  2  0
  6  5  1  0
  7 12  1  0
  7  6  2  0
  8  7  1  0
  9 10  1  0
  9  8  2  0
 10 11  2  0
 11 12  1  0
 12 13  2  0
 13  4  1  0
 14 19  2  0
 15 16  2  0
 15 14  1  0
 16 17  1  0
 17 18  2  0
 18 20  1  0
 19 18  1  0
 20 22  1  0
 20 21  1  0
 22 21  1  0
 22 23  1  0
  1 24  1  6
  2 25  1  0
  2 26  1  0
  3 27  1  1
  5 28  1  0
  6 29  1  0
  9 30  1  0
 10 31  1  0
 11 32  1  0
 13 33  1  0
 14 34  1  0
 16 35  1  0
 20 36  1  1
 21 37  1  0
 21 38  1  0
 22 39  1  6
 23 40  1  0
M  ISO  8  24  13  25  13  26  13  27  13  28  14  29  14  30  14  31  14
M  ISO  8  32  14  33  14  34  14  35  14  36  13  37  13  38  13  39  13
M  ISO  1  40   3
M  END
>  <minimizedAffinity>  (1) 
-5.5872736

>  <minimizedRMSD>  (1) 
0.482238889

$$$$
