
     RDKit          3D

 27 28  0  0  0  0  0  0  0  0999 V2000
   45.2140   34.7010   42.9320 C   0  0  0  0  0  0  0  0  0  0  0  0
   46.2260   35.1700   42.0750 C   0  0  0  0  0  0  0  0  0  0  0  0
   47.5440   34.7600   42.3740 C   0  0  0  0  0  0  0  0  0  0  0  0
   47.7190   33.9620   43.4460 N   0  0  0  0  0  0  0  0  0  0  0  0
   46.7190   33.5350   44.2420 C   0  0  0  0  0  0  0  0  0  0  0  0
   45.4540   33.9160   43.9710 N   0  0  0  0  0  0  0  0  0  0  0  0
   43.3000   34.3290   41.6030 C   0  0  0  0  0  0  0  0  0  0  0  0
   44.0610   33.5120   40.9810 O   0  0  0  0  0  0  0  0  0  0  0  0
   43.8590   35.0730   42.6940 N   0  0  0  0  0  0  0  0  0  0  0  0
   41.6500   31.8560   41.8650 Cl  0  0  0  0  0  0  0  0  0  0  0  0
   41.0630   33.3760   41.2280 C   0  0  0  0  0  0  0  0  0  0  0  0
   41.9030   34.4480   41.1530 C   0  0  0  0  0  0  0  0  0  0  0  0
   41.4950   35.6690   40.6620 C   0  0  0  0  0  0  0  0  0  0  0  0
   40.1780   35.8390   40.2190 C   0  0  0  0  0  0  0  0  0  0  0  0
   39.3240   34.7680   40.2890 C   0  0  0  0  0  0  0  0  0  0  0  0
   39.7540   33.5300   40.7910 C   0  0  0  0  0  0  0  0  0  0  0  0
   48.5730   35.2630   41.4680 C   0  0  0  0  0  0  0  0  0  0  0  0
   49.7410   34.5290   41.6870 F   0  0  0  0  0  0  0  0  0  0  0  0
   48.8820   36.5510   41.8840 F   0  0  0  0  0  0  0  0  0  0  0  0
   48.2550   35.1780   40.1560 F   0  0  0  0  0  0  0  0  0  0  0  0
   46.0027   35.8216   41.2174 H   0  0  0  0  0  0  0  0  0  0  0  0
   46.9319   32.8836   45.1024 H   0  0  0  0  0  0  0  0  0  0  0  0
   43.3474   35.7842   43.2356 H   0  0  0  0  0  0  0  0  0  0  0  0
   42.2034   36.5094   40.6182 H   0  0  0  0  0  0  0  0  0  0  0  0
   39.8365   36.8074   39.8246 H   0  0  0  0  0  0  0  0  0  0  0  0
   38.2850   34.8813   39.9460 H   0  0  0  0  0  0  0  0  0  0  0  0
   39.0546   32.6823   40.8383 H   0  0  0  0  0  0  0  0  0  0  0  0
  1  6  2  0
  2  3  2  0
  2  1  1  0
  3  4  1  0
  4  5  2  0
  6  5  1  0
  7  9  1  0
  8  7  2  0
  9  1  1  0
 11 10  1  0
 12 11  2  0
 12  7  1  0
 13 12  1  0
 14 15  1  0
 14 13  2  0
 15 16  2  0
 16 11  1  0
 17 18  1  0
 17 19  1  0
 17  3  1  0
 20 17  1  0
  2 21  1  0
  5 22  1  0
  9 23  1  0
 13 24  1  0
 14 25  1  0
 15 26  1  0
 16 27  1  0
M  ISO  6  21  14  22  14  24  14  25  14  26  14  27  14
M  END
>  <minimizedAffinity>  (1) 
-6.50302124

>  <minimizedRMSD>  (1) 
1.07435608

$$$$
