
     RDKit          3D

 24 25  0  0  0  0  0  0  0  0999 V2000
   45.3090   35.1010   42.7440 C   0  0  0  0  0  0  0  0  0  0  0  0
   46.4170   35.4660   41.9340 C   0  0  0  0  0  0  0  0  0  0  0  0
   47.6500   34.9280   42.3400 C   0  0  0  0  0  0  0  0  0  0  0  0
   47.6950   34.1320   43.4300 N   0  0  0  0  0  0  0  0  0  0  0  0
   46.6030   33.8220   44.1600 C   0  0  0  0  0  0  0  0  0  0  0  0
   45.4070   34.3140   43.8070 N   0  0  0  0  0  0  0  0  0  0  0  0
   43.4550   34.9390   41.3000 C   0  0  0  0  0  0  0  0  0  0  0  0
   44.1380   34.0240   40.7580 O   0  0  0  0  0  0  0  0  0  0  0  0
   44.0010   35.5930   42.4240 N   0  0  0  0  0  0  0  0  0  0  0  0
   42.1450   35.2980   40.7680 C   0  0  0  0  0  0  0  0  0  0  0  0
   41.0580   35.6950   41.5140 C   0  0  0  0  0  0  0  0  0  0  0  0
   40.0680   35.9190   40.5500 C   0  0  0  0  0  0  0  0  0  0  0  0
   40.5490   35.6680   39.3200 N   0  0  0  0  0  0  0  0  0  0  0  0
   41.8220   35.2880   39.4610 N   0  0  0  0  0  0  0  0  0  0  0  0
   48.7830   35.3160   41.4920 C   0  0  0  0  0  0  0  0  0  0  0  0
   49.8670   34.4920   41.7810 F   0  0  0  0  0  0  0  0  0  0  0  0
   49.1820   36.5830   41.8850 F   0  0  0  0  0  0  0  0  0  0  0  0
   48.5280   35.2110   40.1500 F   0  0  0  0  0  0  0  0  0  0  0  0
   46.3175   36.1203   41.0554 H   0  0  0  0  0  0  0  0  0  0  0  0
   46.6939   33.1688   45.0404 H   0  0  0  0  0  0  0  0  0  0  0  0
   43.5183   36.3345   42.9513 H   0  0  0  0  0  0  0  0  0  0  0  0
   40.9850   35.8088   42.6057 H   0  0  0  0  0  0  0  0  0  0  0  0
   39.0428   36.2528   40.7678 H   0  0  0  0  0  0  0  0  0  0  0  0
   40.0319   35.7529   38.4333 H   0  0  0  0  0  0  0  0  0  0  0  0
  1  6  2  0
  2  3  2  0
  2  1  1  0
  3  4  1  0
  4  5  2  0
  6  5  1  0
  7  9  1  0
  8  7  2  0
  9  1  1  0
 10  7  1  0
 10 11  1  0
 12 11  2  0
 13 14  1  0
 13 12  1  0
 14 10  2  0
 15 16  1  0
 15 17  1  0
 15  3  1  0
 18 15  1  0
  2 19  1  0
  5 20  1  0
  9 21  1  0
 11 22  1  0
 12 23  1  0
 13 24  1  0
M  ISO  5  19  14  20  14  22  14  23  14  24   9
M  END
>  <minimizedAffinity>  (1) 
-5.89743376

>  <minimizedRMSD>  (1) 
0.78554523

$$$$
