
     RDKit          3D

 18 18  0  0  0  0  0  0  0  0999 V2000
   45.4620   35.1900   43.2200 C   0  0  0  0  0  0  0  0  0  0  0  0
   46.4600   35.5570   42.2900 C   0  0  0  0  0  0  0  0  0  0  0  0
   47.6720   34.8490   42.4070 C   0  0  0  0  0  0  0  0  0  0  0  0
   47.7830   33.8990   43.3730 N   0  0  0  0  0  0  0  0  0  0  0  0
   46.7860   33.5970   44.2300 C   0  0  0  0  0  0  0  0  0  0  0  0
   45.6140   34.2550   44.1460 N   0  0  0  0  0  0  0  0  0  0  0  0
   43.3920   35.3990   42.0940 C   0  0  0  0  0  0  0  0  0  0  0  0
   43.8880   34.5260   41.3270 O   0  0  0  0  0  0  0  0  0  0  0  0
   44.1910   35.8590   43.1750 N   0  0  0  0  0  0  0  0  0  0  0  0
   48.7090   35.2300   41.4440 C   0  0  0  0  0  0  0  0  0  0  0  0
   49.8270   34.4200   41.6460 F   0  0  0  0  0  0  0  0  0  0  0  0
   49.1240   36.5140   41.7920 F   0  0  0  0  0  0  0  0  0  0  0  0
   48.3150   35.1240   40.1480 F   0  0  0  0  0  0  0  0  0  0  0  0
   42.0930   35.8250   41.7940 O   0  0  0  0  0  0  0  0  0  0  0  0
   46.3023   36.3375   41.5311 H   0  0  0  0  0  0  0  0  0  0  0  0
   46.9295   32.8178   44.9930 H   0  0  0  0  0  0  0  0  0  0  0  0
   43.8953   36.5836   43.8447 H   0  0  0  0  0  0  0  0  0  0  0  0
   41.6145   35.4440   41.0156 H   0  0  0  0  0  0  0  0  0  0  0  0
  1  6  2  0
  2  3  2  0
  2  1  1  0
  3  4  1  0
  4  5  2  0
  6  5  1  0
  7  9  1  0
  8  7  2  0
  9  1  1  0
 10 11  1  0
 10 12  1  0
 10  3  1  0
 13 10  1  0
 14  7  1  0
  2 15  1  0
  5 16  1  0
  9 17  1  0
 14 18  1  0
M  ISO  3  15  14  16  14  18   3
M  END
>  <minimizedAffinity>  (1) 
-5.19594812

>  <minimizedRMSD>  (1) 
0.133973941

$$$$
