
     RDKit          3D

 30 31  0  0  1  0  0  0  0  0999 V2000
   45.2500   34.7560   42.9660 C   0  0  0  0  0  0  0  0  0  0  0  0
   46.2620   35.2040   42.0800 C   0  0  0  0  0  0  0  0  0  0  0  0
   47.5710   34.7700   42.3840 C   0  0  0  0  0  0  0  0  0  0  0  0
   47.7490   33.9870   43.4580 N   0  0  0  0  0  0  0  0  0  0  0  0
   46.7490   33.5920   44.2640 C   0  0  0  0  0  0  0  0  0  0  0  0
   45.4920   33.9770   44.0180 N   0  0  0  0  0  0  0  0  0  0  0  0
   43.3230   34.4140   41.6670 C   0  0  0  0  0  0  0  0  0  0  0  0
   44.0370   33.5830   41.0510 O   0  0  0  0  0  0  0  0  0  0  0  0
   43.8910   35.1420   42.7440 N   0  0  0  0  0  0  0  0  0  0  0  0
   41.9850   34.5490   41.2160 N   0  0  0  0  0  0  0  0  0  0  0  0
   41.5570   34.0360   39.9290 C   0  0  0  0  0  0  0  0  0  0  0  0
   40.4950   35.0240   39.5310 C   0  0  0  0  0  0  0  0  0  0  0  0
   40.2790   35.9640   40.6940 C   0  0  0  0  0  0  0  0  0  0  0  0
   40.8240   35.1610   41.8420 C   0  0  1  0  0  0  0  0  0  0  0  0
   48.5970   35.2460   41.4540 C   0  0  0  0  0  0  0  0  0  0  0  0
   49.7500   34.4750   41.6200 F   0  0  0  0  0  0  0  0  0  0  0  0
   48.9440   36.5260   41.8530 F   0  0  0  0  0  0  0  0  0  0  0  0
   48.2370   35.1550   40.1470 F   0  0  0  0  0  0  0  0  0  0  0  0
   39.8400   34.2040   42.1660 O   0  0  0  0  0  0  0  0  0  0  0  0
   46.0425   35.8462   41.2143 H   0  0  0  0  0  0  0  0  0  0  0  0
   46.9652   32.9491   45.1300 H   0  0  0  0  0  0  0  0  0  0  0  0
   43.3904   35.8548   43.2938 H   0  0  0  0  0  0  0  0  0  0  0  0
   42.3864   34.0291   39.2065 H   0  0  0  0  0  0  0  0  0  0  0  0
   41.2016   32.9956   39.9641 H   0  0  0  0  0  0  0  0  0  0  0  0
   40.8238   35.5911   38.6476 H   0  0  0  0  0  0  0  0  0  0  0  0
   39.5597   34.5023   39.2800 H   0  0  0  0  0  0  0  0  0  0  0  0
   40.8377   36.9021   40.5602 H   0  0  0  0  0  0  0  0  0  0  0  0
   39.2328   36.2773   40.8258 H   0  0  0  0  0  0  0  0  0  0  0  0
   41.0748   35.7026   42.7660 H   0  0  0  0  0  0  0  0  0  0  0  0
   39.7635   34.1296   43.1502 H   0  0  0  0  0  0  0  0  0  0  0  0
  1  6  2  0
  2  3  2  0
  2  1  1  0
  3  4  1  0
  4  5  2  0
  6  5  1  0
  7  9  1  0
  8  7  2  0
  9  1  1  0
 10  7  1  0
 10 14  1  0
 11 10  1  0
 12 11  1  0
 12 13  1  0
 13 14  1  0
 14 19  1  0
 15 16  1  0
 15 17  1  0
 15  3  1  0
 18 15  1  0
  2 20  1  0
  5 21  1  0
  9 22  1  0
 11 23  1  0
 11 24  1  0
 12 25  1  0
 12 26  1  0
 13 27  1  0
 13 28  1  0
 14 29  1  1
 19 30  1  0
M  ISO  8  20  14  21  14  23  13  24  13  25  13  26  13  27  13  28  13
M  ISO  2  29  13  30   3
M  END
>  <minimizedAffinity>  (1) 
-6.86703968

>  <minimizedRMSD>  (1) 
0.240133926

$$$$
