
     RDKit          3D

 39 41  0  0  1  0  0  0  0  0999 V2000
   45.4790   34.7260   42.3300 C   0  0  0  0  0  0  0  0  0  0  0  0
   46.6110   35.3360   41.7540 C   0  0  0  0  0  0  0  0  0  0  0  0
   47.8620   34.9290   42.2370 C   0  0  0  0  0  0  0  0  0  0  0  0
   47.8910   33.9980   43.2060 N   0  0  0  0  0  0  0  0  0  0  0  0
   46.7850   33.4380   43.7320 C   0  0  0  0  0  0  0  0  0  0  0  0
   45.5580   33.8040   43.2920 N   0  0  0  0  0  0  0  0  0  0  0  0
   43.8690   34.5190   40.6420 C   0  0  0  0  0  0  0  0  0  0  0  0
   44.7390   33.8260   40.0640 O   0  0  0  0  0  0  0  0  0  0  0  0
   44.1660   35.0800   41.8970 N   0  0  0  0  0  0  0  0  0  0  0  0
   42.6260   34.6820   39.9640 N   0  0  0  0  0  0  0  0  0  0  0  0
   42.4960   34.3670   38.5550 C   0  0  0  0  0  0  0  0  0  0  0  0
   41.4440   35.3460   38.1080 C   0  0  0  0  0  0  0  0  0  0  0  0
   40.9610   36.0810   39.3150 C   0  0  0  0  0  0  0  0  0  0  0  0
   41.3280   35.1470   40.4420 C   0  0  1  0  0  0  0  0  0  0  0  0
   40.3830   34.0540   40.6680 C   0  0  0  0  0  0  0  0  0  0  0  0
   39.1290   34.1910   40.0710 C   0  0  0  0  0  0  0  0  0  0  0  0
   38.1760   33.1930   40.2390 C   0  0  0  0  0  0  0  0  0  0  0  0
   38.4080   32.0540   40.9800 C   0  0  0  0  0  0  0  0  0  0  0  0
   39.6490   31.9240   41.5670 C   0  0  0  0  0  0  0  0  0  0  0  0
   40.5860   32.8970   41.4070 C   0  0  0  0  0  0  0  0  0  0  0  0
   49.0100   35.5790   41.6200 C   0  0  0  0  0  0  0  0  0  0  0  0
   50.1690   34.9420   42.0350 F   0  0  0  0  0  0  0  0  0  0  0  0
   49.0910   36.8630   42.1690 F   0  0  0  0  0  0  0  0  0  0  0  0
   48.9850   35.5670   40.2560 F   0  0  0  0  0  0  0  0  0  0  0  0
   46.5173   36.0950   40.9634 H   0  0  0  0  0  0  0  0  0  0  0  0
   46.8789   32.6794   44.5231 H   0  0  0  0  0  0  0  0  0  0  0  0
   43.5176   35.6718   42.4357 H   0  0  0  0  0  0  0  0  0  0  0  0
   43.4440   34.5282   38.0208 H   0  0  0  0  0  0  0  0  0  0  0  0
   42.2346   33.3167   38.3589 H   0  0  0  0  0  0  0  0  0  0  0  0
   41.8754   36.0550   37.3861 H   0  0  0  0  0  0  0  0  0  0  0  0
   40.6108   34.8184   37.6208 H   0  0  0  0  0  0  0  0  0  0  0  0
   41.4719   37.0495   39.4203 H   0  0  0  0  0  0  0  0  0  0  0  0
   39.8881   36.3210   39.2792 H   0  0  0  0  0  0  0  0  0  0  0  0
   41.3279   35.6279   41.4313 H   0  0  0  0  0  0  0  0  0  0  0  0
   38.8961   35.0832   39.4712 H   0  0  0  0  0  0  0  0  0  0  0  0
   37.1938   33.3176   39.7597 H   0  0  0  0  0  0  0  0  0  0  0  0
   37.6349   31.2805   41.0982 H   0  0  0  0  0  0  0  0  0  0  0  0
   39.8818   31.0313   42.1661 H   0  0  0  0  0  0  0  0  0  0  0  0
   41.5633   32.7585   41.8925 H   0  0  0  0  0  0  0  0  0  0  0  0
  1  6  2  0
  2  3  2  0
  2  1  1  0
  3  4  1  0
  4  5  2  0
  6  5  1  0
  7  9  1  0
  8  7  2  0
  9  1  1  0
 10 14  1  0
 10  7  1  0
 11 10  1  0
 12 11  1  0
 12 13  1  0
 13 14  1  0
 14 15  1  0
 15 20  2  0
 16 17  2  0
 16 15  1  0
 17 18  1  0
 18 19  2  0
 20 19  1  0
 21 22  1  0
 21 23  1  0
 21  3  1  0
 24 21  1  0
  2 25  1  0
  5 26  1  0
  9 27  1  0
 11 28  1  0
 11 29  1  0
 12 30  1  0
 12 31  1  0
 13 32  1  0
 13 33  1  0
 14 34  1  1
 16 35  1  0
 17 36  1  0
 18 37  1  0
 19 38  1  0
 20 39  1  0
M  ISO  8  25  14  26  14  28  13  29  13  30  13  31  13  32  13  33  13
M  ISO  6  34  13  35  14  36  14  37  14  38  14  39  14
M  END
>  <minimizedAffinity>  (1) 
-7.28282309

>  <minimizedRMSD>  (1) 
1.50734937

$$$$
