
     RDKit          3D

 31 32  0  0  1  0  0  0  0  0999 V2000
   45.2550   34.5170   42.7130 C   0  0  0  0  0  0  0  0  0  0  0  0
   46.3000   35.1520   42.0140 C   0  0  0  0  0  0  0  0  0  0  0  0
   47.5980   34.6810   42.2790 C   0  0  0  0  0  0  0  0  0  0  0  0
   47.7330   33.6790   43.1620 N   0  0  0  0  0  0  0  0  0  0  0  0
   46.7040   33.1030   43.8050 C   0  0  0  0  0  0  0  0  0  0  0  0
   45.4480   33.5320   43.5730 N   0  0  0  0  0  0  0  0  0  0  0  0
   43.4040   34.4670   41.2720 C   0  0  0  0  0  0  0  0  0  0  0  0
   44.1650   33.8020   40.5120 O   0  0  0  0  0  0  0  0  0  0  0  0
   43.8990   34.9410   42.4970 N   0  0  0  0  0  0  0  0  0  0  0  0
   42.0810   34.6740   40.7930 N   0  0  0  0  0  0  0  0  0  0  0  0
   41.7290   34.4600   39.4040 C   0  0  0  0  0  0  0  0  0  0  0  0
   40.6810   35.5220   39.1810 C   0  0  0  0  0  0  0  0  0  0  0  0
   40.3690   36.1480   40.5130 C   0  0  0  0  0  0  0  0  0  0  0  0
   40.8760   35.1060   41.5030 C   0  0  1  0  0  0  0  0  0  0  0  0
   48.6610   35.3510   41.5470 C   0  0  0  0  0  0  0  0  0  0  0  0
   49.8720   34.7190   41.8170 F   0  0  0  0  0  0  0  0  0  0  0  0
   48.7830   36.6380   42.0730 F   0  0  0  0  0  0  0  0  0  0  0  0
   48.4880   35.3570   40.1820 F   0  0  0  0  0  0  0  0  0  0  0  0
   39.9280   33.9740   41.6350 C   0  0  0  0  0  0  0  0  0  0  0  0
   40.4330   32.9430   42.0990 O   0  0  0  0  0  0  0  0  0  0  0  0
   46.1115   35.9691   41.3020 H   0  0  0  0  0  0  0  0  0  0  0  0
   46.8858   32.2850   44.5176 H   0  0  0  0  0  0  0  0  0  0  0  0
   43.3592   35.5190   43.1569 H   0  0  0  0  0  0  0  0  0  0  0  0
   42.5963   34.6090   38.7440 H   0  0  0  0  0  0  0  0  0  0  0  0
   41.3809   33.4396   39.1860 H   0  0  0  0  0  0  0  0  0  0  0  0
   41.0643   36.2864   38.4890 H   0  0  0  0  0  0  0  0  0  0  0  0
   39.7740   35.0803   38.7425 H   0  0  0  0  0  0  0  0  0  0  0  0
   40.9006   37.1031   40.6361 H   0  0  0  0  0  0  0  0  0  0  0  0
   39.3035   36.3890   40.6420 H   0  0  0  0  0  0  0  0  0  0  0  0
   41.0222   35.4741   42.5292 H   0  0  0  0  0  0  0  0  0  0  0  0
   38.8689   34.0438   41.3461 H   0  0  0  0  0  0  0  0  0  0  0  0
  1  6  2  0
  2  3  2  0
  2  1  1  0
  3  4  1  0
  4  5  2  0
  6  5  1  0
  7  9  1  0
  8  7  2  0
  9  1  1  0
 10  7  1  0
 10 14  1  0
 11 10  1  0
 12 11  1  0
 12 13  1  0
 13 14  1  0
 14 19  1  0
 15 16  1  0
 15 17  1  0
 15  3  1  0
 18 15  1  0
 19 20  2  0
  2 21  1  0
  5 22  1  0
  9 23  1  0
 11 24  1  0
 11 25  1  0
 12 26  1  0
 12 27  1  0
 13 28  1  0
 13 29  1  0
 14 30  1  1
 19 31  1  0
M  ISO  8  21  14  22  14  24  13  25  13  26  13  27  13  28  13  29  13
M  ISO  2  30  13  31   6
M  END
>  <minimizedAffinity>  (1) 
-6.21522284

>  <minimizedRMSD>  (1) 
0.519231796

$$$$
