
     RDKit          3D

 43 45  0  0  1  0  0  0  0  0999 V2000
   45.4150   34.5080   42.2270 C   0  0  0  0  0  0  0  0  0  0  0  0
   46.5180   35.2390   41.6920 C   0  0  0  0  0  0  0  0  0  0  0  0
   47.7930   34.8490   42.1430 C   0  0  0  0  0  0  0  0  0  0  0  0
   47.8720   33.8390   43.0260 N   0  0  0  0  0  0  0  0  0  0  0  0
   46.7920   33.1790   43.5030 C   0  0  0  0  0  0  0  0  0  0  0  0
   45.5550   33.5240   43.0920 N   0  0  0  0  0  0  0  0  0  0  0  0
   43.8150   34.3740   40.5180 C   0  0  0  0  0  0  0  0  0  0  0  0
   44.7400   33.7770   39.8700 O   0  0  0  0  0  0  0  0  0  0  0  0
   44.0870   34.8500   41.8100 N   0  0  0  0  0  0  0  0  0  0  0  0
   42.5600   34.5110   39.8690 N   0  0  0  0  0  0  0  0  0  0  0  0
   42.4620   34.2820   38.4150 C   0  0  0  0  0  0  0  0  0  0  0  0
   41.3620   35.2210   38.0200 C   0  0  0  0  0  0  0  0  0  0  0  0
   40.8520   35.8220   39.2950 C   0  0  0  0  0  0  0  0  0  0  0  0
   41.2530   34.8320   40.3620 C   0  0  1  0  0  0  0  0  0  0  0  0
   39.8610   33.0820   41.6330 C   0  0  0  0  0  0  0  0  0  0  0  0
   39.8690   33.9560   42.5340 O   0  0  0  0  0  0  0  0  0  0  0  0
   40.4340   33.6340   40.4190 N   0  0  0  0  0  0  0  0  0  0  0  0
   41.0450   30.8440   43.0320 F   0  0  0  0  0  0  0  0  0  0  0  0
   39.8690   30.6180   42.4090 C   0  0  0  0  0  0  0  0  0  0  0  0
   39.3610   31.7240   41.7670 C   0  0  0  0  0  0  0  0  0  0  0  0
   38.1390   31.5320   41.1100 C   0  0  0  0  0  0  0  0  0  0  0  0
   37.5040   30.3120   41.1160 C   0  0  0  0  0  0  0  0  0  0  0  0
   38.0330   29.2170   41.7660 C   0  0  0  0  0  0  0  0  0  0  0  0
   39.2350   29.3990   42.4150 C   0  0  0  0  0  0  0  0  0  0  0  0
   48.9010   35.6120   41.5810 C   0  0  0  0  0  0  0  0  0  0  0  0
   50.0980   34.9850   41.9440 F   0  0  0  0  0  0  0  0  0  0  0  0
   48.9180   36.8530   42.2280 F   0  0  0  0  0  0  0  0  0  0  0  0
   48.8680   35.7180   40.2230 F   0  0  0  0  0  0  0  0  0  0  0  0
   46.3799   36.0579   40.9706 H   0  0  0  0  0  0  0  0  0  0  0  0
   46.9229   32.3607   44.2263 H   0  0  0  0  0  0  0  0  0  0  0  0
   43.4165   35.3787   42.3861 H   0  0  0  0  0  0  0  0  0  0  0  0
   43.4042   34.5352   37.9070 H   0  0  0  0  0  0  0  0  0  0  0  0
   42.2659   33.2338   38.1453 H   0  0  0  0  0  0  0  0  0  0  0  0
   41.7509   36.0070   37.3560 H   0  0  0  0  0  0  0  0  0  0  0  0
   40.5631   34.6978   37.4741 H   0  0  0  0  0  0  0  0  0  0  0  0
   41.3181   36.8015   39.4776 H   0  0  0  0  0  0  0  0  0  0  0  0
   39.7663   35.9973   39.2716 H   0  0  0  0  0  0  0  0  0  0  0  0
   41.1698   35.2294   41.3843 H   0  0  0  0  0  0  0  0  0  0  0  0
   40.2463   33.1407   39.5345 H   0  0  0  0  0  0  0  0  0  0  0  0
   37.6767   32.3760   40.5772 H   0  0  0  0  0  0  0  0  0  0  0  0
   36.5456   30.2067   40.5865 H   0  0  0  0  0  0  0  0  0  0  0  0
   37.5198   28.2441   41.7665 H   0  0  0  0  0  0  0  0  0  0  0  0
   39.6950   28.5534   42.9473 H   0  0  0  0  0  0  0  0  0  0  0  0
  1  6  2  0
  2  3  2  0
  2  1  1  0
  3  4  1  0
  4  5  2  0
  6  5  1  0
  7  9  1  0
  8  7  2  0
  9  1  1  0
 10 14  1  0
 10  7  1  0
 11 10  1  0
 12 11  1  0
 12 13  1  0
 13 14  1  0
 14 17  1  0
 15 20  1  0
 15 16  2  0
 17 15  1  0
 19 24  2  0
 19 18  1  0
 20 19  1  0
 21 22  1  0
 21 20  2  0
 22 23  2  0
 23 24  1  0
 25 26  1  0
 25  3  1  0
 25 27  1  0
 28 25  1  0
  2 29  1  0
  5 30  1  0
  9 31  1  0
 11 32  1  0
 11 33  1  0
 12 34  1  0
 12 35  1  0
 13 36  1  0
 13 37  1  0
 14 38  1  1
 17 39  1  0
 21 40  1  0
 22 41  1  0
 23 42  1  0
 24 43  1  0
M  ISO  8  29  14  30  14  32  13  33  13  34  13  35  13  36  13  37  13
M  ISO  5  38  13  40  14  41  14  42  14  43  14
M  END
>  <minimizedAffinity>  (1) 
-7.2325387

>  <minimizedRMSD>  (1) 
1.26070142

$$$$
