
     RDKit          3D

 33 36  0  0  1  0  0  0  0  0999 V2000
   48.7710   34.8750   42.8130 C   0  0  1  0  0  0  0  0  0  0  0  0
   49.5880   34.3860   41.7130 C   0  0  2  0  0  0  0  0  0  0  0  0
   48.8920   35.6670   41.5260 C   0  0  0  0  0  0  0  0  0  0  0  0
   49.3040   33.3040   40.7790 C   0  0  0  0  0  0  0  0  0  0  0  0
   48.3690   33.3820   39.7590 C   0  0  0  0  0  0  0  0  0  0  0  0
   48.0760   32.3810   38.8580 C   0  0  0  0  0  0  0  0  0  0  0  0
   48.7550   31.1890   38.9550 C   0  0  0  0  0  0  0  0  0  0  0  0
   49.6950   31.0040   39.9220 C   0  0  0  0  0  0  0  0  0  0  0  0
   50.3700   29.8320   40.0250 C   0  0  0  0  0  0  0  0  0  0  0  0
   51.3270   29.6210   40.9950 C   0  0  0  0  0  0  0  0  0  0  0  0
   51.5990   30.6420   41.8830 C   0  0  0  0  0  0  0  0  0  0  0  0
   50.9000   31.8260   41.7590 C   0  0  0  0  0  0  0  0  0  0  0  0
   49.9280   32.0490   40.7780 C   0  0  0  0  0  0  0  0  0  0  0  0
   47.4230   33.0990   43.8440 C   0  0  0  0  0  0  0  0  0  0  0  0
   47.4530   34.3120   43.1540 C   0  0  0  0  0  0  0  0  0  0  0  0
   46.2110   34.8900   42.8240 C   0  0  0  0  0  0  0  0  0  0  0  0
   45.0670   34.2230   43.2010 N   0  0  0  0  0  0  0  0  0  0  0  0
   45.0980   33.0630   43.8610 C   0  0  0  0  0  0  0  0  0  0  0  0
   46.2850   32.4740   44.1980 N   0  0  0  0  0  0  0  0  0  0  0  0
   48.9685   35.0277   43.8843 H   0  0  0  0  0  0  0  0  0  0  0  0
   50.6168   33.9969   41.7231 H   0  0  0  0  0  0  0  0  0  0  0  0
   49.4598   36.6089   41.5057 H   0  0  0  0  0  0  0  0  0  0  0  0
   48.1902   36.0817   40.7874 H   0  0  0  0  0  0  0  0  0  0  0  0
   47.8120   34.3253   39.6598 H   0  0  0  0  0  0  0  0  0  0  0  0
   47.3153   32.5323   38.0780 H   0  0  0  0  0  0  0  0  0  0  0  0
   48.5365   30.3779   38.2448 H   0  0  0  0  0  0  0  0  0  0  0  0
   50.1469   29.0244   39.3122 H   0  0  0  0  0  0  0  0  0  0  0  0
   51.8611   28.6615   41.0596 H   0  0  0  0  0  0  0  0  0  0  0  0
   52.3554   30.5152   42.6715 H   0  0  0  0  0  0  0  0  0  0  0  0
   51.1189   32.6370   42.4692 H   0  0  0  0  0  0  0  0  0  0  0  0
   48.3805   32.6289   44.1127 H   0  0  0  0  0  0  0  0  0  0  0  0
   46.1570   35.8454   42.2815 H   0  0  0  0  0  0  0  0  0  0  0  0
   44.1530   32.5730   44.1383 H   0  0  0  0  0  0  0  0  0  0  0  0
  1 15  1  0
  2  1  1  0
  3  2  1  0
  3  1  1  0
  4  2  1  0
  5  4  2  0
  6  7  2  0
  6  5  1  0
  7  8  1  0
  8  9  1  0
  8 13  2  0
  9 10  2  0
 10 11  1  0
 12 11  2  0
 13  4  1  0
 13 12  1  0
 14 19  2  0
 15 14  1  0
 16 15  2  0
 16 17  1  0
 17 18  2  0
 18 19  1  0
  1 20  1  1
  2 21  1  1
  3 22  1  0
  3 23  1  0
  5 24  1  0
  6 25  1  0
  7 26  1  0
  9 27  1  0
 10 28  1  0
 11 29  1  0
 12 30  1  0
 14 31  1  0
 16 32  1  0
 18 33  1  0
M  ISO  8  20  13  21  13  22  13  23  13  24  14  25  14  26  14  27  14
M  ISO  6  28  14  29  14  30  14  31  14  32  14  33  14
M  END
>  <minimizedAffinity>  (1) 
-4.04853821

>  <minimizedRMSD>  (1) 
5.95607853

$$$$
