
     RDKit          3D

 42 44  0  0  1  0  0  0  0  0999 V2000
   45.3960   34.5430   42.2230 C   0  0  0  0  0  0  0  0  0  0  0  0
   46.5120   35.2460   41.6790 C   0  0  0  0  0  0  0  0  0  0  0  0
   47.7810   34.8440   42.1380 C   0  0  0  0  0  0  0  0  0  0  0  0
   47.8420   33.8470   43.0360 N   0  0  0  0  0  0  0  0  0  0  0  0
   46.7520   33.2110   43.5220 C   0  0  0  0  0  0  0  0  0  0  0  0
   45.5200   33.5700   43.1040 N   0  0  0  0  0  0  0  0  0  0  0  0
   43.7930   34.4060   40.5130 C   0  0  0  0  0  0  0  0  0  0  0  0
   44.7130   33.7890   39.8750 O   0  0  0  0  0  0  0  0  0  0  0  0
   44.0710   34.8960   41.8060 N   0  0  0  0  0  0  0  0  0  0  0  0
   42.5450   34.5550   39.8630 N   0  0  0  0  0  0  0  0  0  0  0  0
   42.4450   34.3220   38.4090 C   0  0  0  0  0  0  0  0  0  0  0  0
   41.3600   35.2760   38.0100 C   0  0  0  0  0  0  0  0  0  0  0  0
   40.8510   35.8860   39.2830 C   0  0  0  0  0  0  0  0  0  0  0  0
   41.2400   34.8940   40.3510 C   0  0  1  0  0  0  0  0  0  0  0  0
   39.8260   33.1630   41.6260 C   0  0  0  0  0  0  0  0  0  0  0  0
   39.8890   34.0220   42.5410 O   0  0  0  0  0  0  0  0  0  0  0  0
   40.4100   33.7020   40.4120 N   0  0  0  0  0  0  0  0  0  0  0  0
   39.2780   31.8250   41.6800 C   0  0  0  0  0  0  0  0  0  0  0  0
   40.0430   30.8580   42.2740 C   0  0  0  0  0  0  0  0  0  0  0  0
   39.5310   29.5770   42.3310 C   0  0  0  0  0  0  0  0  0  0  0  0
   38.2860   29.3830   41.7800 C   0  0  0  0  0  0  0  0  0  0  0  0
   37.5130   30.3790   41.1760 C   0  0  0  0  0  0  0  0  0  0  0  0
   38.0730   31.5980   41.1560 N   0  0  0  0  0  0  0  0  0  0  0  0
   48.9030   35.5800   41.5660 C   0  0  0  0  0  0  0  0  0  0  0  0
   50.0840   34.9430   41.9300 F   0  0  0  0  0  0  0  0  0  0  0  0
   48.9430   36.8280   42.2160 F   0  0  0  0  0  0  0  0  0  0  0  0
   48.8590   35.6930   40.2120 F   0  0  0  0  0  0  0  0  0  0  0  0
   46.3883   36.0549   40.9439 H   0  0  0  0  0  0  0  0  0  0  0  0
   46.8695   32.4016   44.2575 H   0  0  0  0  0  0  0  0  0  0  0  0
   43.4070   35.4380   42.3772 H   0  0  0  0  0  0  0  0  0  0  0  0
   43.3914   34.5591   37.9010 H   0  0  0  0  0  0  0  0  0  0  0  0
   42.2334   33.2759   38.1427 H   0  0  0  0  0  0  0  0  0  0  0  0
   41.7628   36.0563   37.3475 H   0  0  0  0  0  0  0  0  0  0  0  0
   40.5563   34.7628   37.4616 H   0  0  0  0  0  0  0  0  0  0  0  0
   41.3258   36.8614   39.4652 H   0  0  0  0  0  0  0  0  0  0  0  0
   39.7673   36.0728   39.2565 H   0  0  0  0  0  0  0  0  0  0  0  0
   41.1576   35.2981   41.3707 H   0  0  0  0  0  0  0  0  0  0  0  0
   40.2230   33.2042   39.5299 H   0  0  0  0  0  0  0  0  0  0  0  0
   41.0328   31.0935   42.6921 H   0  0  0  0  0  0  0  0  0  0  0  0
   40.0916   28.7518   42.7945 H   0  0  0  0  0  0  0  0  0  0  0  0
   37.8665   28.3668   41.8174 H   0  0  0  0  0  0  0  0  0  0  0  0
   36.5194   30.1782   40.7489 H   0  0  0  0  0  0  0  0  0  0  0  0
  1  6  2  0
  2  3  2  0
  2  1  1  0
  3  4  1  0
  4  5  2  0
  6  5  1  0
  7  9  1  0
  8  7  2  0
  9  1  1  0
 10 14  1  0
 10  7  1  0
 11 10  1  0
 12 11  1  0
 12 13  1  0
 13 14  1  0
 14 17  1  0
 15 18  1  0
 15 16  2  0
 17 15  1  0
 18 19  2  0
 19 20  1  0
 21 20  2  0
 22 21  1  0
 23 22  2  0
 23 18  1  0
 24 25  1  0
 24  3  1  0
 24 26  1  0
 27 24  1  0
  2 28  1  0
  5 29  1  0
  9 30  1  0
 11 31  1  0
 11 32  1  0
 12 33  1  0
 12 34  1  0
 13 35  1  0
 13 36  1  0
 14 37  1  1
 17 38  1  0
 19 39  1  0
 20 40  1  0
 21 41  1  0
 22 42  1  0
M  ISO  8  28  14  29  14  31  13  32  13  33  13  34  13  35  13  36  13
M  ISO  5  37  13  39  14  40  14  41  14  42  14
M  END
>  <minimizedAffinity>  (1) 
-6.9241786

>  <minimizedRMSD>  (1) 
1.1843493

$$$$
