
     RDKit          3D

 24 25  0  0  0  0  0  0  0  0999 V2000
   46.4350   33.9770   40.8970 C   0  0  0  0  0  0  0  0  0  0  0  0
   45.3590   33.3300   41.1480 O   0  0  0  0  0  0  0  0  0  0  0  0
   46.9140   34.7010   42.0130 N   0  0  0  0  0  0  0  0  0  0  0  0
   44.5110   35.9840   44.5690 C   0  0  0  0  0  0  0  0  0  0  0  0
   45.2070   35.9410   43.3500 C   0  0  0  0  0  0  0  0  0  0  0  0
   46.1170   34.9080   43.1850 C   0  0  0  0  0  0  0  0  0  0  0  0
   46.2890   34.0030   44.1920 N   0  0  0  0  0  0  0  0  0  0  0  0
   45.5980   34.0770   45.3560 C   0  0  0  0  0  0  0  0  0  0  0  0
   44.7210   35.0670   45.5240 N   0  0  0  0  0  0  0  0  0  0  0  0
   48.7000   35.4710   39.9140 F   0  0  0  0  0  0  0  0  0  0  0  0
   48.1200   34.6030   39.0550 C   0  0  0  0  0  0  0  0  0  0  0  0
   47.0420   33.9200   39.5750 C   0  0  0  0  0  0  0  0  0  0  0  0
   46.4580   33.0310   38.6650 C   0  0  0  0  0  0  0  0  0  0  0  0
   46.9250   32.8690   37.3870 C   0  0  0  0  0  0  0  0  0  0  0  0
   48.0090   33.5820   36.9220 C   0  0  0  0  0  0  0  0  0  0  0  0
   48.6030   34.4620   37.7910 C   0  0  0  0  0  0  0  0  0  0  0  0
   47.8664   35.0920   41.9822 H   0  0  0  0  0  0  0  0  0  0  0  0
   43.7789   36.7862   44.7437 H   0  0  0  0  0  0  0  0  0  0  0  0
   45.0382   36.6912   42.5634 H   0  0  0  0  0  0  0  0  0  0  0  0
   45.7584   33.3320   46.1493 H   0  0  0  0  0  0  0  0  0  0  0  0
   45.5894   32.4388   38.9888 H   0  0  0  0  0  0  0  0  0  0  0  0
   46.4238   32.1543   36.7176 H   0  0  0  0  0  0  0  0  0  0  0  0
   48.3827   33.4508   35.8958 H   0  0  0  0  0  0  0  0  0  0  0  0
   49.4708   35.0543   37.4653 H   0  0  0  0  0  0  0  0  0  0  0  0
  1  2  2  0
  1  3  1  0
  3  6  1  0
  4  9  2  0
  5  4  1  0
  6  5  2  0
  6  7  1  0
  7  8  2  0
  8  9  1  0
 11 12  2  0
 11 10  1  0
 12  1  1  0
 13 12  1  0
 14 13  2  0
 15 14  1  0
 15 16  2  0
 16 11  1  0
  3 17  1  0
  4 18  1  0
  5 19  1  0
  8 20  1  0
 13 21  1  0
 14 22  1  0
 15 23  1  0
 16 24  1  0
M  ISO  7  18  14  19  14  20  14  21  14  22  14  23  14  24  14
M  END
>  <minimizedAffinity>  (1) 
-4.99193048

>  <minimizedRMSD>  (1) 
0.46446985

$$$$
