
     RDKit          3D

 28 29  0  0  0  0  0  0  0  0999 V2000
   46.2080   33.8740   40.8340 C   0  0  0  0  0  0  0  0  0  0  0  0
   45.1510   33.2580   41.1340 O   0  0  0  0  0  0  0  0  0  0  0  0
   46.6990   34.7570   41.8310 N   0  0  0  0  0  0  0  0  0  0  0  0
   46.7510   33.6060   39.5630 N   0  0  0  0  0  0  0  0  0  0  0  0
   45.7940   33.2460   38.5340 C   0  0  0  0  0  0  0  0  0  0  0  0
   46.5320   32.9640   37.2380 C   0  0  0  0  0  0  0  0  0  0  0  0
   47.3570   34.1080   36.9340 N   0  0  0  0  0  0  0  0  0  0  0  0
   48.2790   34.4690   37.9650 C   0  0  0  0  0  0  0  0  0  0  0  0
   48.1600   33.6640   39.2250 C   0  0  0  0  0  0  0  0  0  0  0  0
   44.5100   36.0430   44.5670 C   0  0  0  0  0  0  0  0  0  0  0  0
   45.1490   35.9580   43.3060 C   0  0  0  0  0  0  0  0  0  0  0  0
   46.0250   34.8960   43.0830 C   0  0  0  0  0  0  0  0  0  0  0  0
   46.2300   33.9950   44.0760 N   0  0  0  0  0  0  0  0  0  0  0  0
   45.6020   34.1040   45.2740 C   0  0  0  0  0  0  0  0  0  0  0  0
   44.7590   35.1190   45.4990 N   0  0  0  0  0  0  0  0  0  0  0  0
   47.5523   35.3046   41.6495 H   0  0  0  0  0  0  0  0  0  0  0  0
   45.2411   32.3473   38.8449 H   0  0  0  0  0  0  0  0  0  0  0  0
   45.0872   34.0751   38.3823 H   0  0  0  0  0  0  0  0  0  0  0  0
   47.1624   32.0702   37.3548 H   0  0  0  0  0  0  0  0  0  0  0  0
   45.8156   32.7834   36.4230 H   0  0  0  0  0  0  0  0  0  0  0  0
   47.8951   33.8982   36.0811 H   0  0  0  0  0  0  0  0  0  0  0  0
   49.2986   34.3414   37.5724 H   0  0  0  0  0  0  0  0  0  0  0  0
   48.0463   35.5087   38.2385 H   0  0  0  0  0  0  0  0  0  0  0  0
   48.5510   32.6488   39.0624 H   0  0  0  0  0  0  0  0  0  0  0  0
   48.7392   34.1238   40.0393 H   0  0  0  0  0  0  0  0  0  0  0  0
   43.8117   36.8663   44.7780 H   0  0  0  0  0  0  0  0  0  0  0  0
   44.9597   36.7085   42.5244 H   0  0  0  0  0  0  0  0  0  0  0  0
   45.7859   33.3576   46.0608 H   0  0  0  0  0  0  0  0  0  0  0  0
  1  2  2  0
  1  3  1  0
  3 12  1  0
  4  1  1  0
  5  4  1  0
  6  5  1  0
  7  6  1  0
  7  8  1  0
  8  9  1  0
  9  4  1  0
 10 15  2  0
 11 10  1  0
 12 11  2  0
 12 13  1  0
 13 14  2  0
 14 15  1  0
  3 16  1  0
  5 17  1  0
  5 18  1  0
  6 19  1  0
  6 20  1  0
  7 21  1  0
  8 22  1  0
  8 23  1  0
  9 24  1  0
  9 25  1  0
 10 26  1  0
 11 27  1  0
 14 28  1  0
M  ISO  8  17  13  18  13  19  13  20  13  21   5  22  13  23  13  24  13
M  ISO  4  25  13  26  14  27  14  28  14
M  END
>  <minimizedAffinity>  (1) 
-4.88885736

>  <minimizedRMSD>  (1) 
0.458920747

$$$$
