
     RDKit          3D

 25 26  0  0  1  0  0  0  0  0999 V2000
   46.9370   31.2920   43.9980 C   0  0  1  0  0  0  0  0  0  0  0  0
   47.5750   32.2240   43.0690 C   0  0  2  0  0  0  0  0  0  0  0  0
   48.3250   30.9970   43.4780 C   0  0  0  0  0  0  0  0  0  0  0  0
   45.8870   32.6070   45.8350 C   0  0  0  0  0  0  0  0  0  0  0  0
   46.7860   31.6170   45.4310 C   0  0  0  0  0  0  0  0  0  0  0  0
   47.5150   30.9900   46.4360 C   0  0  0  0  0  0  0  0  0  0  0  0
   47.3090   31.3750   47.7440 N   0  0  0  0  0  0  0  0  0  0  0  0
   46.4300   32.3360   48.0830 C   0  0  0  0  0  0  0  0  0  0  0  0
   45.7100   32.9580   47.1070 N   0  0  0  0  0  0  0  0  0  0  0  0
   48.0840   33.4520   43.6100 N   0  0  0  0  0  0  0  0  0  0  0  0
   48.9010   34.4180   42.4510 S   0  0  0  0  0  0  0  0  0  0  0  0
   47.9790   35.5160   42.0080 O   0  0  0  0  0  0  0  0  0  0  0  0
   49.3640   33.6510   41.2640 O   0  0  0  0  0  0  0  0  0  0  0  0
   50.1800   35.1820   43.2460 O   0  0  0  0  0  0  0  0  0  0  0  0
   45.9645   30.7779   44.0051 H   0  0  0  0  0  0  0  0  0  0  0  0
   47.2630   32.6715   42.1138 H   0  0  0  0  0  0  0  0  0  0  0  0
   48.4863   30.1799   42.7594 H   0  0  0  0  0  0  0  0  0  0  0  0
   49.3067   30.7865   43.9273 H   0  0  0  0  0  0  0  0  0  0  0  0
   45.2958   33.1223   45.0636 H   0  0  0  0  0  0  0  0  0  0  0  0
   48.2423   30.2017   46.1920 H   0  0  0  0  0  0  0  0  0  0  0  0
   46.2939   32.6169   49.1378 H   0  0  0  0  0  0  0  0  0  0  0  0
   47.2945   33.9941   43.9892 H   0  0  0  0  0  0  0  0  0  0  0  0
   47.5991   35.9685   42.8024 H   0  0  0  0  0  0  0  0  0  0  0  0
   49.8517   32.8430   41.5629 H   0  0  0  0  0  0  0  0  0  0  0  0
   50.0527   35.1060   44.2248 H   0  0  0  0  0  0  0  0  0  0  0  0
  1  5  1  0
  2  3  1  0
  2 10  1  0
  2  1  1  0
  3  1  1  0
  4  9  2  0
  5  4  1  0
  5  6  2  0
  6  7  1  0
  7  8  2  0
  9  8  1  0
 11 14  1  0
 11 10  1  0
 12 11  1  0
 13 11  1  0
  1 15  1  6
  2 16  1  6
  3 17  1  0
  3 18  1  0
  4 19  1  0
  6 20  1  0
  8 21  1  0
 10 22  1  0
 12 23  1  0
 13 24  1  0
 14 25  1  0
M  ISO  8  15  13  16  13  17  13  18  13  19  14  20  14  21  14  22   5
M  ISO  3  23   3  24   3  25   3
M  END
>  <minimizedAffinity>  (1) 
-3.85430551

>  <minimizedRMSD>  (1) 
4.2323904

$$$$
