
     RDKit          3D

 26 27  0  0  0  0  0  0  0  0999 V2000
   46.1350   33.9920   40.8420 C   0  0  0  0  0  0  0  0  0  0  0  0
   44.9990   33.5000   41.0730 O   0  0  0  0  0  0  0  0  0  0  0  0
   46.7030   34.7470   41.9000 N   0  0  0  0  0  0  0  0  0  0  0  0
   46.8040   33.8010   39.6020 N   0  0  0  0  0  0  0  0  0  0  0  0
   46.2730   33.0430   38.4910 C   0  0  0  0  0  0  0  0  0  0  0  0
   47.1470   33.5520   37.3370 C   0  0  0  0  0  0  0  0  0  0  0  0
   48.4970   33.5790   38.0330 C   0  0  0  0  0  0  0  0  0  0  0  0
   48.1110   34.3500   39.2960 C   0  0  0  0  0  0  0  0  0  0  0  0
   44.5140   36.0840   44.6120 C   0  0  0  0  0  0  0  0  0  0  0  0
   45.1560   36.0110   43.3560 C   0  0  0  0  0  0  0  0  0  0  0  0
   46.0080   34.9100   43.1400 C   0  0  0  0  0  0  0  0  0  0  0  0
   46.1650   34.0000   44.1200 N   0  0  0  0  0  0  0  0  0  0  0  0
   45.5290   34.1060   45.3170 C   0  0  0  0  0  0  0  0  0  0  0  0
   44.7130   35.1460   45.5470 N   0  0  0  0  0  0  0  0  0  0  0  0
   47.6274   35.1834   41.7740 H   0  0  0  0  0  0  0  0  0  0  0  0
   46.3985   31.9611   38.6447 H   0  0  0  0  0  0  0  0  0  0  0  0
   45.1927   33.1742   38.3306 H   0  0  0  0  0  0  0  0  0  0  0  0
   46.8393   34.5531   37.0007 H   0  0  0  0  0  0  0  0  0  0  0  0
   47.1070   32.9470   36.4192 H   0  0  0  0  0  0  0  0  0  0  0  0
   48.8602   32.5668   38.2644 H   0  0  0  0  0  0  0  0  0  0  0  0
   49.3182   34.0183   37.4476 H   0  0  0  0  0  0  0  0  0  0  0  0
   48.8240   34.1613   40.1121 H   0  0  0  0  0  0  0  0  0  0  0  0
   48.1117   35.4421   39.1644 H   0  0  0  0  0  0  0  0  0  0  0  0
   43.8389   36.9258   44.8259 H   0  0  0  0  0  0  0  0  0  0  0  0
   44.9982   36.7776   42.5830 H   0  0  0  0  0  0  0  0  0  0  0  0
   45.6828   33.3423   46.0936 H   0  0  0  0  0  0  0  0  0  0  0  0
  1  2  2  0
  1  3  1  0
  3 11  1  0
  4  1  1  0
  5  4  1  0
  6  7  1  0
  6  5  1  0
  7  8  1  0
  8  4  1  0
  9 14  2  0
 10  9  1  0
 11 10  2  0
 11 12  1  0
 12 13  2  0
 13 14  1  0
  3 15  1  0
  5 16  1  0
  5 17  1  0
  6 18  1  0
  6 19  1  0
  7 20  1  0
  7 21  1  0
  8 22  1  0
  8 23  1  0
  9 24  1  0
 10 25  1  0
 13 26  1  0
M  ISO  8  16  13  17  13  18  13  19  13  20  13  21  13  22  13  23  13
M  ISO  3  24  14  25  14  26  14
M  END
>  <minimizedAffinity>  (1) 
-4.3858757

>  <minimizedRMSD>  (1) 
0.336031109

$$$$
