
     RDKit          3D

 40 42  0  0  1  0  0  0  0  0999 V2000
   48.6930   30.1950   40.2530 C   0  0  0  0  0  0  0  0  0  0  0  0
   49.1330   31.4050   39.9110 C   0  0  0  0  0  0  0  0  0  0  0  0
   48.2380   32.5070   39.8590 N   0  0  0  0  0  0  0  0  0  0  0  0
   47.9880   33.8780   40.0550 C   0  0  0  0  0  0  0  0  0  0  0  0
   48.6880   34.8940   40.3740 O   0  0  0  0  0  0  0  0  0  0  0  0
   46.5660   33.8020   39.7650 C   0  0  1  0  0  0  0  0  0  0  0  0
   46.8710   32.3640   39.4170 C   0  0  2  0  0  0  0  0  0  0  0  0
   46.1000   31.1170   40.4560 S   0  0  0  0  0  0  0  0  0  0  0  0
   47.3020   29.8000   40.6210 C   0  0  0  0  0  0  0  0  0  0  0  0
   45.7270   34.0370   40.9310 C   0  0  0  0  0  0  0  0  0  0  0  0
   44.5040   33.9290   41.1340 O   0  0  0  0  0  0  0  0  0  0  0  0
   46.4660   34.4830   42.0880 N   0  0  0  0  0  0  0  0  0  0  0  0
   44.5120   36.2170   44.7250 C   0  0  0  0  0  0  0  0  0  0  0  0
   45.1190   35.9540   43.4980 C   0  0  0  0  0  0  0  0  0  0  0  0
   45.8150   34.7780   43.3110 C   0  0  0  0  0  0  0  0  0  0  0  0
   45.8910   33.9060   44.3290 N   0  0  0  0  0  0  0  0  0  0  0  0
   45.2950   34.1700   45.5310 C   0  0  0  0  0  0  0  0  0  0  0  0
   44.6190   35.3170   45.7040 N   0  0  0  0  0  0  0  0  0  0  0  0
   49.7200   29.1270   40.2630 C   0  0  0  0  0  0  0  0  0  0  0  0
   50.5280   31.6400   39.5820 C   0  0  0  0  0  0  0  0  0  0  0  0
   50.9500   31.7550   38.4000 O   0  0  0  0  0  0  0  0  0  0  0  0
   51.6660   31.7900   40.3420 O   0  0  0  0  0  0  0  0  0  0  0  0
   52.9250   31.2990   40.0480 C   0  0  0  0  0  0  0  0  0  0  0  0
   53.2080   30.1510   40.9970 C   0  0  0  0  0  0  0  0  0  0  0  0
   46.0241   34.4643   39.0739 H   0  0  0  0  0  0  0  0  0  0  0  0
   46.5844   32.0401   38.4056 H   0  0  0  0  0  0  0  0  0  0  0  0
   46.9951   28.9686   39.9693 H   0  0  0  0  0  0  0  0  0  0  0  0
   47.3225   29.5208   41.6848 H   0  0  0  0  0  0  0  0  0  0  0  0
   47.4885   34.5890   42.0229 H   0  0  0  0  0  0  0  0  0  0  0  0
   43.9538   37.1515   44.8835 H   0  0  0  0  0  0  0  0  0  0  0  0
   45.0429   36.6843   42.6789 H   0  0  0  0  0  0  0  0  0  0  0  0
   45.3692   33.4443   46.3543 H   0  0  0  0  0  0  0  0  0  0  0  0
   49.9693   28.8678   41.3025 H   0  0  0  0  0  0  0  0  0  0  0  0
   49.3292   28.2376   39.7469 H   0  0  0  0  0  0  0  0  0  0  0  0
   50.6240   29.4827   39.7469 H   0  0  0  0  0  0  0  0  0  0  0  0
   52.9536   30.9408   39.0084 H   0  0  0  0  0  0  0  0  0  0  0  0
   53.6820   32.0886   40.1637 H   0  0  0  0  0  0  0  0  0  0  0  0
   53.1211   30.5037   42.0353 H   0  0  0  0  0  0  0  0  0  0  0  0
   52.4821   29.3432   40.8221 H   0  0  0  0  0  0  0  0  0  0  0  0
   54.2262   29.7732   40.8221 H   0  0  0  0  0  0  0  0  0  0  0  0
  1 19  1  0
  1  9  1  0
  2  1  2  0
  3  2  1  0
  3  4  1  0
  4  5  2  0
  6  4  1  0
  6 10  1  0
  7  6  1  0
  7  3  1  0
  7  8  1  0
  8  9  1  0
 10 11  2  0
 10 12  1  0
 12 15  1  0
 13 18  2  0
 14 13  1  0
 15 14  2  0
 15 16  1  0
 16 17  2  0
 17 18  1  0
 20  2  1  0
 20 22  1  0
 21 20  2  0
 23 22  1  0
 23 24  1  0
  6 25  1  6
  7 26  1  6
  9 27  1  0
  9 28  1  0
 12 29  1  0
 13 30  1  0
 14 31  1  0
 17 32  1  0
 19 33  1  0
 19 34  1  0
 19 35  1  0
 23 36  1  0
 23 37  1  0
 24 38  1  0
 24 39  1  0
 24 40  1  0
M  ISO  8  25  13  26  13  27  13  28  13  30  14  31  14  32  14  33   8
M  ISO  7  34   8  35   8  36   8  37   8  38   8  39   8  40   8
M  END
>  <minimizedAffinity>  (1) 
-4.46252203

>  <minimizedRMSD>  (1) 
0.855339587

$$$$
