
     RDKit          3D

 33 35  0  0  0  0  0  0  0  0999 V2000
   45.8990   34.4790   42.6740 C   0  0  0  0  0  0  0  0  0  0  0  0
   47.2290   34.0820   42.8090 C   0  0  0  0  0  0  0  0  0  0  0  0
   47.5880   33.5370   44.0320 C   0  0  0  0  0  0  0  0  0  0  0  0
   46.6360   33.4170   45.0340 N   0  0  0  0  0  0  0  0  0  0  0  0
   45.3550   33.8240   44.8440 C   0  0  0  0  0  0  0  0  0  0  0  0
   44.9950   34.3630   43.6390 N   0  0  0  0  0  0  0  0  0  0  0  0
   48.2600   34.3090   41.7770 C   0  0  0  0  0  0  0  0  0  0  0  0
   48.7300   35.6140   41.4410 C   0  0  0  0  0  0  0  0  0  0  0  0
   49.6700   34.7690   42.2430 C   0  0  0  0  0  0  0  0  0  0  0  0
   45.2040   34.9620   41.4570 C   0  0  0  0  0  0  0  0  0  0  0  0
   44.6930   33.7410   40.6460 C   0  0  0  0  0  0  0  0  0  0  0  0
   43.5890   34.1570   39.7260 C   0  0  0  0  0  0  0  0  0  0  0  0
   42.3380   34.5710   40.4640 C   0  0  0  0  0  0  0  0  0  0  0  0
   42.7340   35.1280   41.8130 C   0  0  0  0  0  0  0  0  0  0  0  0
   44.0510   35.8720   41.7420 C   0  0  0  0  0  0  0  0  0  0  0  0
   48.6210   33.2019   44.2069 H   0  0  0  0  0  0  0  0  0  0  0  0
   44.6140   33.7215   45.6505 H   0  0  0  0  0  0  0  0  0  0  0  0
   47.8404   33.4848   41.1815 H   0  0  0  0  0  0  0  0  0  0  0  0
   48.9743   35.8448   40.3936 H   0  0  0  0  0  0  0  0  0  0  0  0
   48.3161   36.6229   41.5849 H   0  0  0  0  0  0  0  0  0  0  0  0
   49.8651   34.9961   43.3015 H   0  0  0  0  0  0  0  0  0  0  0  0
   50.7043   34.4071   42.1464 H   0  0  0  0  0  0  0  0  0  0  0  0
   45.9391   35.5494   40.8873 H   0  0  0  0  0  0  0  0  0  0  0  0
   45.5218   33.3253   40.0542 H   0  0  0  0  0  0  0  0  0  0  0  0
   44.3115   32.9810   41.3437 H   0  0  0  0  0  0  0  0  0  0  0  0
   43.3443   33.3119   39.0657 H   0  0  0  0  0  0  0  0  0  0  0  0
   43.9425   35.0296   39.1572 H   0  0  0  0  0  0  0  0  0  0  0  0
   41.8055   35.3415   39.8871 H   0  0  0  0  0  0  0  0  0  0  0  0
   41.6757   33.7027   40.5963 H   0  0  0  0  0  0  0  0  0  0  0  0
   41.9511   35.8195   42.1579 H   0  0  0  0  0  0  0  0  0  0  0  0
   42.8502   34.2872   42.5127 H   0  0  0  0  0  0  0  0  0  0  0  0
   44.2261   36.3734   42.7053 H   0  0  0  0  0  0  0  0  0  0  0  0
   43.9833   36.5969   40.9174 H   0  0  0  0  0  0  0  0  0  0  0  0
  1  2  1  0
  1  6  2  0
  2  3  2  0
  3  4  1  0
  5  4  2  0
  6  5  1  0
  7  9  1  0
  7  2  1  0
  8  7  1  0
  8  9  1  0
 10 15  1  0
 10  1  1  0
 11 10  1  0
 12 13  1  0
 12 11  1  0
 13 14  1  0
 15 14  1  0
  3 16  1  0
  5 17  1  0
  7 18  1  0
  8 19  1  0
  8 20  1  0
  9 21  1  0
  9 22  1  0
 10 23  1  0
 11 24  1  0
 11 25  1  0
 12 26  1  0
 12 27  1  0
 13 28  1  0
 13 29  1  0
 14 30  1  0
 14 31  1  0
 15 32  1  0
 15 33  1  0
M  ISO  8  16  14  17  14  18  13  19  13  20  13  21  13  22  13  23  13
M  ISO  8  24  13  25  13  26  13  27  13  28  13  29  13  30  13  31  13
M  ISO  2  32  13  33  13
M  END
>  <minimizedAffinity>  (1) 
-4.54848909

>  <minimizedRMSD>  (1) 
1.82113492

$$$$
