
     RDKit          3D

 36 38  0  0  1  0  0  0  0  0999 V2000
   47.4590   33.9340   42.9630 C   0  0  1  0  0  0  0  0  0  0  0  0
   47.0870   32.4520   42.5190 C   0  0  0  0  0  0  0  0  0  0  0  0
   47.7010   32.1540   41.1920 C   0  0  0  0  0  0  0  0  0  0  0  0
   47.1630   33.0090   40.0680 C   0  0  0  0  0  0  0  0  0  0  0  0
   46.6320   34.2860   40.6410 C   0  0  0  0  0  0  0  0  0  0  0  0
   47.4730   34.7990   41.7730 C   0  0  2  0  0  0  0  0  0  0  0  0
   46.4140   34.2820   43.9790 C   0  0  0  0  0  0  0  0  0  0  0  0
   46.1880   33.7180   45.2100 C   0  0  0  0  0  0  0  0  0  0  0  0
   45.1690   34.3000   45.9660 C   0  0  0  0  0  0  0  0  0  0  0  0
   44.4640   35.3640   45.4780 N   0  0  0  0  0  0  0  0  0  0  0  0
   44.7340   35.8750   44.2630 C   0  0  0  0  0  0  0  0  0  0  0  0
   45.7180   35.3160   43.5270 N   0  0  0  0  0  0  0  0  0  0  0  0
   46.8890   32.4930   45.7140 C   0  0  0  0  0  0  0  0  0  0  0  0
   47.0350   32.4390   47.1930 C   0  0  0  0  0  0  0  0  0  0  0  0
   46.0730   31.4890   46.5060 C   0  0  0  0  0  0  0  0  0  0  0  0
   48.7910   35.3920   41.3680 C   0  0  0  0  0  0  0  0  0  0  0  0
   48.8260   35.6530   39.9940 F   0  0  0  0  0  0  0  0  0  0  0  0
   49.0730   36.6130   41.9390 F   0  0  0  0  0  0  0  0  0  0  0  0
   49.8260   34.5000   41.5730 F   0  0  0  0  0  0  0  0  0  0  0  0
   48.4580   34.0545   43.4073 H   0  0  0  0  0  0  0  0  0  0  0  0
   47.4681   31.7402   43.2661 H   0  0  0  0  0  0  0  0  0  0  0  0
   45.9936   32.3587   42.4430 H   0  0  0  0  0  0  0  0  0  0  0  0
   48.7858   32.3202   41.2661 H   0  0  0  0  0  0  0  0  0  0  0  0
   47.4519   31.1104   40.9496 H   0  0  0  0  0  0  0  0  0  0  0  0
   46.3543   32.4722   39.5504 H   0  0  0  0  0  0  0  0  0  0  0  0
   47.9666   33.2288   39.3497 H   0  0  0  0  0  0  0  0  0  0  0  0
   46.6075   35.0463   39.8465 H   0  0  0  0  0  0  0  0  0  0  0  0
   45.6257   34.0831   41.0363 H   0  0  0  0  0  0  0  0  0  0  0  0
   46.9544   35.6988   42.1354 H   0  0  0  0  0  0  0  0  0  0  0  0
   44.9317   33.8990   46.9624 H   0  0  0  0  0  0  0  0  0  0  0  0
   44.1635   36.7324   43.8765 H   0  0  0  0  0  0  0  0  0  0  0  0
   47.5573   32.4052   44.8447 H   0  0  0  0  0  0  0  0  0  0  0  0
   47.9633   32.0519   47.6384 H   0  0  0  0  0  0  0  0  0  0  0  0
   46.9481   33.1741   48.0066 H   0  0  0  0  0  0  0  0  0  0  0  0
   44.9871   31.6238   46.6183 H   0  0  0  0  0  0  0  0  0  0  0  0
   45.9300   30.3986   46.4805 H   0  0  0  0  0  0  0  0  0  0  0  0
  1  7  1  0
  2  1  1  0
  3  2  1  0
  4  5  1  0
  4  3  1  0
  5  6  1  0
  6  1  1  0
  7  8  1  0
  8 13  1  0
  8  9  2  0
 10  9  1  0
 11 10  2  0
 12  7  2  0
 12 11  1  0
 13 15  1  0
 13 14  1  0
 15 14  1  0
 16 19  1  0
 16  6  1  0
 16 18  1  0
 17 16  1  0
  1 20  1  1
  2 21  1  0
  2 22  1  0
  3 23  1  0
  3 24  1  0
  4 25  1  0
  4 26  1  0
  5 27  1  0
  5 28  1  0
  6 29  1  1
  9 30  1  0
 11 31  1  0
 13 32  1  0
 14 33  1  0
 14 34  1  0
 15 35  1  0
 15 36  1  0
M  ISO  8  20  13  21  13  22  13  23  13  24  13  25  13  26  13  27  13
M  ISO  8  28  13  29  13  30  14  31  14  32  13  33  13  34  13  35  13
M  ISO  1  36  13
M  END
>  <minimizedAffinity>  (1) 
-6.06148577

>  <minimizedRMSD>  (1) 
4.45520687

$$$$
