
     RDKit          3D

 39 41  0  0  1  0  0  0  0  0999 V2000
   45.8640   35.0790   42.5960 C   0  0  1  0  0  0  0  0  0  0  0  0
   44.5360   35.8190   43.0650 C   0  0  0  0  0  0  0  0  0  0  0  0
   44.6970   36.2700   44.4870 C   0  0  0  0  0  0  0  0  0  0  0  0
   44.7750   35.1120   45.4620 C   0  0  0  0  0  0  0  0  0  0  0  0
   45.3510   33.9040   44.7480 C   0  0  0  0  0  0  0  0  0  0  0  0
   46.4150   34.3640   43.7550 C   0  0  1  0  0  0  0  0  0  0  0  0
   45.4660   34.2600   41.4250 C   0  0  0  0  0  0  0  0  0  0  0  0
   46.2280   33.8790   40.3520 C   0  0  0  0  0  0  0  0  0  0  0  0
   45.5800   33.0670   39.4180 C   0  0  0  0  0  0  0  0  0  0  0  0
   44.2730   32.7010   39.6080 N   0  0  0  0  0  0  0  0  0  0  0  0
   43.5870   33.1090   40.6840 C   0  0  0  0  0  0  0  0  0  0  0  0
   44.2120   33.8940   41.5870 N   0  0  0  0  0  0  0  0  0  0  0  0
   47.6280   34.3440   40.0910 C   0  0  0  0  0  0  0  0  0  0  0  0
   48.5880   33.2400   39.8010 C   0  0  0  0  0  0  0  0  0  0  0  0
   48.1810   34.1920   38.6890 C   0  0  0  0  0  0  0  0  0  0  0  0
   47.4210   33.3000   43.5090 C   0  0  0  0  0  0  0  0  0  0  0  0
   46.8690   31.9650   44.0330 C   0  0  0  0  0  0  0  0  0  0  0  0
   46.6874   35.7279   42.2631 H   0  0  0  0  0  0  0  0  0  0  0  0
   44.3544   36.6919   42.4207 H   0  0  0  0  0  0  0  0  0  0  0  0
   43.6830   35.1284   42.9912 H   0  0  0  0  0  0  0  0  0  0  0  0
   45.6219   36.8601   44.5666 H   0  0  0  0  0  0  0  0  0  0  0  0
   43.8106   36.8663   44.7491 H   0  0  0  0  0  0  0  0  0  0  0  0
   45.4236   35.3847   46.3075 H   0  0  0  0  0  0  0  0  0  0  0  0
   43.7694   34.8759   45.8402 H   0  0  0  0  0  0  0  0  0  0  0  0
   45.8049   33.2241   45.4840 H   0  0  0  0  0  0  0  0  0  0  0  0
   44.5490   33.3770   44.2104 H   0  0  0  0  0  0  0  0  0  0  0  0
   47.0110   35.1664   44.2142 H   0  0  0  0  0  0  0  0  0  0  0  0
   46.1214   32.7197   38.5257 H   0  0  0  0  0  0  0  0  0  0  0  0
   42.5380   32.8110   40.8284 H   0  0  0  0  0  0  0  0  0  0  0  0
   47.5733   35.1928   40.7885 H   0  0  0  0  0  0  0  0  0  0  0  0
   49.6083   33.2782   40.2102 H   0  0  0  0  0  0  0  0  0  0  0  0
   48.5755   32.1477   39.9299 H   0  0  0  0  0  0  0  0  0  0  0  0
   48.9019   34.9243   38.2964 H   0  0  0  0  0  0  0  0  0  0  0  0
   47.7493   34.0841   37.6830 H   0  0  0  0  0  0  0  0  0  0  0  0
   47.6183   33.2203   42.4298 H   0  0  0  0  0  0  0  0  0  0  0  0
   48.3591   33.5458   44.0281 H   0  0  0  0  0  0  0  0  0  0  0  0
   46.8724   31.9733   45.1330 H   0  0  0  0  0  0  0  0  0  0  0  0
   45.8397   31.8263   43.6706 H   0  0  0  0  0  0  0  0  0  0  0  0
   47.4997   31.1399   43.6706 H   0  0  0  0  0  0  0  0  0  0  0  0
  1  2  1  0
  1  6  1  0
  2  3  1  0
  3  4  1  0
  5  4  1  0
  6  5  1  0
  7 12  1  0
  7  1  1  0
  8  7  2  0
  9 10  2  0
  9  8  1  0
 10 11  1  0
 11 12  2  0
 13  8  1  0
 14 13  1  0
 15 14  1  0
 15 13  1  0
 16  6  1  0
 16 17  1  0
  1 18  1  6
  2 19  1  0
  2 20  1  0
  3 21  1  0
  3 22  1  0
  4 23  1  0
  4 24  1  0
  5 25  1  0
  5 26  1  0
  6 27  1  1
  9 28  1  0
 11 29  1  0
 13 30  1  0
 14 31  1  0
 14 32  1  0
 15 33  1  0
 15 34  1  0
 16 35  1  0
 16 36  1  0
 17 37  1  0
 17 38  1  0
 17 39  1  0
M  ISO  8  18  13  19  13  20  13  21  13  22  13  23  13  24  13  25  13
M  ISO  8  26  13  27  13  28  14  29  14  30  13  31  13  32  13  33  13
M  ISO  6  34  13  35   8  36   8  37   8  38   8  39   8
M  END
>  <minimizedAffinity>  (1) 
-4.7237792

>  <minimizedRMSD>  (1) 
4.00726318

$$$$
