
     RDKit          3D

 34 36  0  0  1  0  0  0  0  0999 V2000
   44.3690   34.9880   41.3900 C   0  0  1  0  0  0  0  0  0  0  0  0
   44.5140   33.9780   40.1690 C   0  0  0  0  0  0  0  0  0  0  0  0
   43.2630   34.0550   39.3420 C   0  0  0  0  0  0  0  0  0  0  0  0
   42.0840   33.4350   40.0600 C   0  0  0  0  0  0  0  0  0  0  0  0
   42.2400   33.6730   41.5510 C   0  0  0  0  0  0  0  0  0  0  0  0
   42.9630   34.9680   41.8230 C   0  0  2  0  0  0  0  0  0  0  0  0
   45.3650   34.5130   42.4010 C   0  0  0  0  0  0  0  0  0  0  0  0
   46.7300   34.4770   42.3000 C   0  0  0  0  0  0  0  0  0  0  0  0
   47.4070   34.0170   43.4320 C   0  0  0  0  0  0  0  0  0  0  0  0
   46.7120   33.6390   44.5500 N   0  0  0  0  0  0  0  0  0  0  0  0
   45.3730   33.7010   44.5870 C   0  0  0  0  0  0  0  0  0  0  0  0
   44.7140   34.1450   43.4900 N   0  0  0  0  0  0  0  0  0  0  0  0
   47.5010   34.8080   41.0590 C   0  0  0  0  0  0  0  0  0  0  0  0
   48.7850   35.5270   41.3140 C   0  0  0  0  0  0  0  0  0  0  0  0
   48.8130   34.0920   40.8250 C   0  0  0  0  0  0  0  0  0  0  0  0
   42.1980   36.0220   41.3310 O   0  0  0  0  0  0  0  0  0  0  0  0
   44.5864   36.0433   41.1687 H   0  0  0  0  0  0  0  0  0  0  0  0
   45.3831   34.2583   39.5557 H   0  0  0  0  0  0  0  0  0  0  0  0
   44.6601   32.9530   40.5405 H   0  0  0  0  0  0  0  0  0  0  0  0
   43.4269   33.5193   38.3953 H   0  0  0  0  0  0  0  0  0  0  0  0
   43.0359   35.1154   39.1579 H   0  0  0  0  0  0  0  0  0  0  0  0
   41.1508   33.8983   39.7072 H   0  0  0  0  0  0  0  0  0  0  0  0
   42.0473   32.3548   39.8554 H   0  0  0  0  0  0  0  0  0  0  0  0
   41.2431   33.7143   42.0141 H   0  0  0  0  0  0  0  0  0  0  0  0
   42.8307   32.8480   41.9758 H   0  0  0  0  0  0  0  0  0  0  0  0
   43.0595   35.0840   42.9126 H   0  0  0  0  0  0  0  0  0  0  0  0
   48.5054   33.9580   43.4254 H   0  0  0  0  0  0  0  0  0  0  0  0
   44.8214   33.3977   45.4891 H   0  0  0  0  0  0  0  0  0  0  0  0
   46.6076   34.9648   40.4367 H   0  0  0  0  0  0  0  0  0  0  0  0
   49.1005   36.3412   40.6451 H   0  0  0  0  0  0  0  0  0  0  0  0
   49.2170   36.0627   42.1721 H   0  0  0  0  0  0  0  0  0  0  0  0
   49.1297   33.2840   41.5009 H   0  0  0  0  0  0  0  0  0  0  0  0
   49.2758   33.5615   39.9798 H   0  0  0  0  0  0  0  0  0  0  0  0
   41.8229   36.5388   42.0875 H   0  0  0  0  0  0  0  0  0  0  0  0
  1  6  1  0
  1  7  1  0
  2  1  1  0
  3  4  1  0
  3  2  1  0
  4  5  1  0
  5  6  1  0
  7 12  2  0
  8  7  1  0
  8  9  2  0
  9 10  1  0
 10 11  2  0
 12 11  1  0
 13 14  1  0
 13  8  1  0
 15 13  1  0
 15 14  1  0
 16  6  1  0
  1 17  1  6
  2 18  1  0
  2 19  1  0
  3 20  1  0
  3 21  1  0
  4 22  1  0
  4 23  1  0
  5 24  1  0
  5 25  1  0
  6 26  1  1
  9 27  1  0
 11 28  1  0
 13 29  1  0
 14 30  1  0
 14 31  1  0
 15 32  1  0
 15 33  1  0
 16 34  1  0
M  ISO  8  17  13  18  13  19  13  20  13  21  13  22  13  23  13  24  13
M  ISO  8  25  13  26  13  27  14  28  14  29  13  30  13  31  13  32  13
M  ISO  2  33  13  34   3
M  END
>  <minimizedAffinity>  (1) 
-4.59776974

>  <minimizedRMSD>  (1) 
1.0461024

$$$$
