
     RDKit          3D

 23 24  0  0  0  0  0  0  0  0999 V2000
   44.9080   34.9140   45.0780 C   0  0  0  0  0  0  0  0  0  0  0  0
   45.5740   35.0770   43.8460 C   0  0  0  0  0  0  0  0  0  0  0  0
   46.6490   34.2370   43.6010 C   0  0  0  0  0  0  0  0  0  0  0  0
   47.0130   33.3200   44.5170 N   0  0  0  0  0  0  0  0  0  0  0  0
   46.3500   33.1880   45.6940 C   0  0  0  0  0  0  0  0  0  0  0  0
   45.2990   33.9860   45.9710 N   0  0  0  0  0  0  0  0  0  0  0  0
   45.6660   30.3340   44.7930 Br  0  0  0  0  0  0  0  0  0  0  0  0
   46.5540   30.8550   46.4070 C   0  0  0  0  0  0  0  0  0  0  0  0
   46.7820   32.1780   46.6570 C   0  0  0  0  0  0  0  0  0  0  0  0
   47.4190   32.5860   47.8120 C   0  0  0  0  0  0  0  0  0  0  0  0
   47.8250   31.6170   48.7180 C   0  0  0  0  0  0  0  0  0  0  0  0
   47.5980   30.2770   48.4740 C   0  0  0  0  0  0  0  0  0  0  0  0
   46.9600   29.8990   47.3130 C   0  0  0  0  0  0  0  0  0  0  0  0
   45.0280   36.1360   42.9720 C   0  0  0  0  0  0  0  0  0  0  0  0
   44.0495   35.5598   45.3147 H   0  0  0  0  0  0  0  0  0  0  0  0
   47.2059   34.3198   42.6560 H   0  0  0  0  0  0  0  0  0  0  0  0
   47.6001   33.6530   48.0090 H   0  0  0  0  0  0  0  0  0  0  0  0
   48.3351   31.9205   49.6441 H   0  0  0  0  0  0  0  0  0  0  0  0
   47.9238   29.5179   49.2004 H   0  0  0  0  0  0  0  0  0  0  0  0
   46.7746   28.8341   47.1090 H   0  0  0  0  0  0  0  0  0  0  0  0
   44.6114   36.9440   43.5914 H   0  0  0  0  0  0  0  0  0  0  0  0
   45.8314   36.5378   42.3370 H   0  0  0  0  0  0  0  0  0  0  0  0
   44.2348   35.7146   42.3370 H   0  0  0  0  0  0  0  0  0  0  0  0
  1  6  2  0
  2  1  1  0
  3  2  2  0
  3  4  1  0
  4  5  2  0
  5  6  1  0
  5  9  1  0
  7  8  1  0
  8  9  2  0
  8 13  1  0
  9 10  1  0
 10 11  2  0
 12 11  1  0
 13 12  2  0
 14  2  1  0
  1 15  1  0
  3 16  1  0
 10 17  1  0
 11 18  1  0
 12 19  1  0
 13 20  1  0
 14 21  1  0
 14 22  1  0
 14 23  1  0
M  ISO  8  15  14  16  14  17  14  18  14  19  14  20  14  21   8  22   8
M  ISO  1  23   8
M  END
>  <minimizedAffinity>  (1) 
-4.44772005

>  <minimizedRMSD>  (1) 
1.86022818

$$$$
