
     RDKit          3D

 14 14  0  0  0  0  0  0  0  0999 V2000
   44.5750   35.5200   44.5670 C   0  0  0  0  0  0  0  0  0  0  0  0
   44.7350   35.0000   43.2850 C   0  0  0  0  0  0  0  0  0  0  0  0
   45.3120   33.7480   43.1330 C   0  0  0  0  0  0  0  0  0  0  0  0
   45.6930   33.0920   44.2590 N   0  0  0  0  0  0  0  0  0  0  0  0
   45.5250   33.6190   45.4820 C   0  0  0  0  0  0  0  0  0  0  0  0
   44.9660   34.8350   45.6600 N   0  0  0  0  0  0  0  0  0  0  0  0
   44.2570   35.8700   42.1790 C   0  0  0  0  0  0  0  0  0  0  0  0
   46.0240   32.7570   46.9620 S   0  0  0  0  0  0  0  0  0  0  0  0
   44.1187   36.5133   44.6905 H   0  0  0  0  0  0  0  0  0  0  0  0
   45.4556   33.3031   42.1373 H   0  0  0  0  0  0  0  0  0  0  0  0
   43.7674   36.7611   42.5988 H   0  0  0  0  0  0  0  0  0  0  0  0
   45.1121   36.1789   41.5598 H   0  0  0  0  0  0  0  0  0  0  0  0
   43.5377   35.3139   41.5598 H   0  0  0  0  0  0  0  0  0  0  0  0
   45.6149   33.4637   48.0620 H   0  0  0  0  0  0  0  0  0  0  0  0
  1  6  2  0
  2  1  1  0
  3  2  2  0
  3  4  1  0
  4  5  2  0
  5  6  1  0
  5  8  1  0
  7  2  1  0
  1  9  1  0
  3 10  1  0
  7 11  1  0
  7 12  1  0
  7 13  1  0
  8 14  1  0
M  ISO  6   9  14  10  14  11   8  12   8  13   8  14  11
M  END
>  <minimizedAffinity>  (1) 
-2.81559277

>  <minimizedRMSD>  (1) 
0.495676309

$$$$
