
     RDKit          3D

 42 44  0  0  1  0  0  0  0  0999 V2000
   45.0640   34.9330   44.7940 C   0  0  0  0  0  0  0  0  0  0  0  0
   46.0150   34.7310   43.7780 C   0  0  0  0  0  0  0  0  0  0  0  0
   46.9050   33.6560   43.9250 C   0  0  0  0  0  0  0  0  0  0  0  0
   46.8090   32.8790   45.0160 N   0  0  0  0  0  0  0  0  0  0  0  0
   45.8940   33.0930   45.9690 C   0  0  0  0  0  0  0  0  0  0  0  0
   45.0060   34.1280   45.8680 N   0  0  0  0  0  0  0  0  0  0  0  0
   47.3060   31.8290   47.5940 C   0  0  2  0  0  0  0  0  0  0  0  0
   45.8820   32.1640   47.0970 C   0  0  1  0  0  0  0  0  0  0  0  0
   45.3230   32.6530   48.2460 O   0  0  0  0  0  0  0  0  0  0  0  0
   45.6760   31.7950   49.2540 C   0  0  0  0  0  0  0  0  0  0  0  0
   46.8880   30.9970   48.8150 C   0  0  2  0  0  0  0  0  0  0  0  0
   47.8750   32.9620   48.0790 O   0  0  0  0  0  0  0  0  0  0  0  0
   47.8720   30.8920   49.7590 O   0  0  0  0  0  0  0  0  0  0  0  0
   45.9720   35.6790   42.6330 C   0  0  0  0  0  0  0  0  0  0  0  0
   45.1260   35.0470   41.5590 C   0  0  0  0  0  0  0  0  0  0  0  0
   45.0910   33.5420   41.6680 C   0  0  0  0  0  0  0  0  0  0  0  0
   43.6700   33.0380   41.8560 C   0  0  0  0  0  0  0  0  0  0  0  0
   42.7620   33.5130   40.7400 C   0  0  0  0  0  0  0  0  0  0  0  0
   42.8280   35.0030   40.5880 C   0  0  0  0  0  0  0  0  0  0  0  0
   43.7410   35.6550   41.6020 C   0  0  0  0  0  0  0  0  0  0  0  0
   44.3527   35.7676   44.7076 H   0  0  0  0  0  0  0  0  0  0  0  0
   47.6684   33.4533   43.1594 H   0  0  0  0  0  0  0  0  0  0  0  0
   47.9905   31.3787   46.8600 H   0  0  0  0  0  0  0  0  0  0  0  0
   45.3159   31.3210   46.6739 H   0  0  0  0  0  0  0  0  0  0  0  0
   45.9200   32.3694   50.1598 H   0  0  0  0  0  0  0  0  0  0  0  0
   44.8406   31.1143   49.4749 H   0  0  0  0  0  0  0  0  0  0  0  0
   46.6820   29.9347   48.6172 H   0  0  0  0  0  0  0  0  0  0  0  0
   47.8637   32.9394   49.0687 H   0  0  0  0  0  0  0  0  0  0  0  0
   47.4688   30.9350   50.6622 H   0  0  0  0  0  0  0  0  0  0  0  0
   45.5259   36.6329   42.9508 H   0  0  0  0  0  0  0  0  0  0  0  0
   46.9860   35.8842   42.2593 H   0  0  0  0  0  0  0  0  0  0  0  0
   45.5796   35.2585   40.5795 H   0  0  0  0  0  0  0  0  0  0  0  0
   45.5078   33.1058   40.7482 H   0  0  0  0  0  0  0  0  0  0  0  0
   45.6858   33.2421   42.5434 H   0  0  0  0  0  0  0  0  0  0  0  0
   43.6789   31.9381   41.8663 H   0  0  0  0  0  0  0  0  0  0  0  0
   43.2854   33.4345   42.8072 H   0  0  0  0  0  0  0  0  0  0  0  0
   43.0750   33.0414   39.7968 H   0  0  0  0  0  0  0  0  0  0  0  0
   41.7276   33.2325   40.9878 H   0  0  0  0  0  0  0  0  0  0  0  0
   43.1987   35.2374   39.5792 H   0  0  0  0  0  0  0  0  0  0  0  0
   41.8146   35.3981   40.7521 H   0  0  0  0  0  0  0  0  0  0  0  0
   43.3185   35.5153   42.6080 H   0  0  0  0  0  0  0  0  0  0  0  0
   43.8219   36.7254   41.3617 H   0  0  0  0  0  0  0  0  0  0  0  0
  1  6  2  0
  2  3  2  0
  2  1  1  0
  3  4  1  0
  4  5  2  0
  5  8  1  0
  6  5  1  0
  7 12  1  0
  7 11  1  0
  8  7  1  0
  8  9  1  0
  9 10  1  0
 11 10  1  0
 11 13  1  0
 14  2  1  0
 15 20  1  0
 15 16  1  0
 15 14  1  0
 16 17  1  0
 18 17  1  0
 19 18  1  0
 19 20  1  0
  1 21  1  0
  3 22  1  0
  7 23  1  6
  8 24  1  6
 10 25  1  0
 10 26  1  0
 11 27  1  6
 12 28  1  0
 13 29  1  0
 14 30  1  0
 14 31  1  0
 15 32  1  0
 16 33  1  0
 16 34  1  0
 17 35  1  0
 17 36  1  0
 18 37  1  0
 18 38  1  0
 19 39  1  0
 19 40  1  0
 20 41  1  0
 20 42  1  0
M  ISO  8  21  14  22  14  23  13  24  13  25  13  26  13  27  13  28   3
M  ISO  8  29   3  30   8  31   8  32  13  33  13  34  13  35  13  36  13
M  ISO  6  37  13  38  13  39  13  40  13  41  13  42  13
M  END
>  <minimizedAffinity>  (1) 
-6.17188931

>  <minimizedRMSD>  (1) 
1.31070197

$$$$
