
     RDKit          3D

 37 39  0  0  1  0  0  0  0  0999 V2000
   45.0830   34.8050   44.9020 C   0  0  0  0  0  0  0  0  0  0  0  0
   45.8710   34.5020   43.7840 C   0  0  0  0  0  0  0  0  0  0  0  0
   46.6660   33.3450   43.8740 C   0  0  0  0  0  0  0  0  0  0  0  0
   46.6370   32.6010   44.9960 N   0  0  0  0  0  0  0  0  0  0  0  0
   45.8670   32.9240   46.0480 C   0  0  0  0  0  0  0  0  0  0  0  0
   45.0780   34.0310   46.0180 N   0  0  0  0  0  0  0  0  0  0  0  0
   47.3480   31.7530   47.6710 C   0  0  2  0  0  0  0  0  0  0  0  0
   45.9050   32.0370   47.1990 C   0  0  1  0  0  0  0  0  0  0  0  0
   45.3770   32.5440   48.3540 O   0  0  0  0  0  0  0  0  0  0  0  0
   45.7820   31.7490   49.3820 C   0  0  0  0  0  0  0  0  0  0  0  0
   46.9910   30.9560   48.9300 C   0  0  2  0  0  0  0  0  0  0  0  0
   47.9140   32.9100   48.0960 O   0  0  0  0  0  0  0  0  0  0  0  0
   48.0060   30.9240   49.8520 O   0  0  0  0  0  0  0  0  0  0  0  0
   45.7930   35.4040   42.6360 C   0  0  0  0  0  0  0  0  0  0  0  0
   44.7410   35.0910   41.6940 N   0  0  0  0  0  0  0  0  0  0  0  0
   43.5090   35.6000   41.8860 C   0  0  0  0  0  0  0  0  0  0  0  0
   42.5050   35.2900   40.9700 C   0  0  0  0  0  0  0  0  0  0  0  0
   42.8610   34.4690   39.9190 C   0  0  0  0  0  0  0  0  0  0  0  0
   41.8740   34.1230   38.9570 N   0  0  0  0  0  0  0  0  0  0  0  0
   44.1140   33.9750   39.7590 N   0  0  0  0  0  0  0  0  0  0  0  0
   45.0660   34.2900   40.6590 C   0  0  0  0  0  0  0  0  0  0  0  0
   46.1900   33.8090   40.4570 O   0  0  0  0  0  0  0  0  0  0  0  0
   44.4459   35.7013   44.8750 H   0  0  0  0  0  0  0  0  0  0  0  0
   47.3085   33.0493   43.0315 H   0  0  0  0  0  0  0  0  0  0  0  0
   48.0177   31.2915   46.9303 H   0  0  0  0  0  0  0  0  0  0  0  0
   45.3410   31.1757   46.8117 H   0  0  0  0  0  0  0  0  0  0  0  0
   46.0494   32.3711   50.2489 H   0  0  0  0  0  0  0  0  0  0  0  0
   44.9703   31.0656   49.6718 H   0  0  0  0  0  0  0  0  0  0  0  0
   46.8070   29.8829   48.7734 H   0  0  0  0  0  0  0  0  0  0  0  0
   47.9232   32.9288   49.0858 H   0  0  0  0  0  0  0  0  0  0  0  0
   47.6231   30.9361   50.7649 H   0  0  0  0  0  0  0  0  0  0  0  0
   45.6244   36.4239   43.0120 H   0  0  0  0  0  0  0  0  0  0  0  0
   46.7420   35.2963   42.0902 H   0  0  0  0  0  0  0  0  0  0  0  0
   43.2989   36.2482   42.7495 H   0  0  0  0  0  0  0  0  0  0  0  0
   41.4820   35.6794   41.0791 H   0  0  0  0  0  0  0  0  0  0  0  0
   42.1188   33.5116   38.1650 H   0  0  0  0  0  0  0  0  0  0  0  0
   40.9138   34.4836   39.0517 H   0  0  0  0  0  0  0  0  0  0  0  0
  1  6  2  0
  2  3  2  0
  2  1  1  0
  3  4  1  0
  4  5  2  0
  5  8  1  0
  6  5  1  0
  7 12  1  0
  7 11  1  0
  8  7  1  0
  8  9  1  0
  9 10  1  0
 11 10  1  0
 11 13  1  0
 14  2  1  0
 15 16  1  0
 15 14  1  0
 17 16  2  0
 18 17  1  0
 19 18  1  0
 20 18  2  0
 20 21  1  0
 21 15  1  0
 22 21  2  0
  1 23  1  0
  3 24  1  0
  7 25  1  6
  8 26  1  6
 10 27  1  0
 10 28  1  0
 11 29  1  6
 12 30  1  0
 13 31  1  0
 14 32  1  0
 14 33  1  0
 16 34  1  0
 17 35  1  0
 19 36  1  0
 19 37  1  0
M  ISO  8  23  14  24  14  25  13  26  13  27  13  28  13  29  13  30   3
M  ISO  5  31   3  32   8  33   8  34  14  35  14
M  END
>  <minimizedAffinity>  (1) 
-6.2653656

>  <minimizedRMSD>  (1) 
1.09022772

$$$$
