
     RDKit          3D

 51 54  0  0  1  0  0  0  0  0999 V2000
   44.9620   34.9410   45.0460 C   0  0  0  0  0  0  0  0  0  0  0  0
   45.8030   34.7280   43.9580 C   0  0  0  0  0  0  0  0  0  0  0  0
   46.6500   33.6220   44.0280 C   0  0  0  0  0  0  0  0  0  0  0  0
   46.6520   32.7940   45.0990 N   0  0  0  0  0  0  0  0  0  0  0  0
   45.8150   33.0400   46.1370 C   0  0  0  0  0  0  0  0  0  0  0  0
   44.9670   34.1090   46.1190 N   0  0  0  0  0  0  0  0  0  0  0  0
   47.3100   31.8000   47.6880 C   0  0  2  0  0  0  0  0  0  0  0  0
   45.8450   32.1180   47.2670 C   0  0  1  0  0  0  0  0  0  0  0  0
   45.3860   32.6020   48.4450 O   0  0  0  0  0  0  0  0  0  0  0  0
   45.7890   31.7630   49.4390 C   0  0  0  0  0  0  0  0  0  0  0  0
   46.9610   30.9570   48.9310 C   0  0  2  0  0  0  0  0  0  0  0  0
   47.9260   32.9160   48.1140 O   0  0  0  0  0  0  0  0  0  0  0  0
   48.0100   30.8740   49.8170 O   0  0  0  0  0  0  0  0  0  0  0  0
   45.7910   35.6140   42.8150 C   0  0  0  0  0  0  0  0  0  0  0  0
   44.7650   35.2020   41.8510 C   0  0  0  0  0  0  0  0  0  0  0  0
   43.4440   35.5720   41.8700 C   0  0  0  0  0  0  0  0  0  0  0  0
   42.5360   35.1400   40.9380 C   0  0  0  0  0  0  0  0  0  0  0  0
   42.9630   34.2990   39.9390 C   0  0  0  0  0  0  0  0  0  0  0  0
   44.3020   33.9040   39.8920 C   0  0  0  0  0  0  0  0  0  0  0  0
   45.2140   34.3600   40.8580 C   0  0  0  0  0  0  0  0  0  0  0  0
   46.4770   33.8110   40.5340 N   0  0  0  0  0  0  0  0  0  0  0  0
   47.7150   34.5000   40.2320 C   0  0  0  0  0  0  0  0  0  0  0  0
   48.1470   33.9860   38.8510 C   0  0  0  0  0  0  0  0  0  0  0  0
   48.5830   32.5550   39.0380 C   0  0  0  0  0  0  0  0  0  0  0  0
   47.9940   31.9460   40.2700 C   0  0  0  0  0  0  0  0  0  0  0  0
   46.5780   32.3640   40.4800 C   0  0  0  0  0  0  0  0  0  0  0  0
   44.2780   35.8025   45.0366 H   0  0  0  0  0  0  0  0  0  0  0  0
   47.3341   33.4173   43.1913 H   0  0  0  0  0  0  0  0  0  0  0  0
   47.9536   31.3570   46.9137 H   0  0  0  0  0  0  0  0  0  0  0  0
   45.2322   31.2900   46.8812 H   0  0  0  0  0  0  0  0  0  0  0  0
   46.0932   32.3480   50.3194 H   0  0  0  0  0  0  0  0  0  0  0  0
   44.9652   31.0941   49.7285 H   0  0  0  0  0  0  0  0  0  0  0  0
   46.7393   29.8950   48.7495 H   0  0  0  0  0  0  0  0  0  0  0  0
   47.9343   32.9310   49.1039 H   0  0  0  0  0  0  0  0  0  0  0  0
   47.6623   30.9015   50.7435 H   0  0  0  0  0  0  0  0  0  0  0  0
   45.5773   36.6383   43.1542 H   0  0  0  0  0  0  0  0  0  0  0  0
   46.7747   35.5721   42.3244 H   0  0  0  0  0  0  0  0  0  0  0  0
   43.0981   36.2450   42.6683 H   0  0  0  0  0  0  0  0  0  0  0  0
   41.4851   35.4608   40.9891 H   0  0  0  0  0  0  0  0  0  0  0  0
   42.2536   33.9383   39.1796 H   0  0  0  0  0  0  0  0  0  0  0  0
   44.6448   33.2308   39.0925 H   0  0  0  0  0  0  0  0  0  0  0  0
   47.5521   35.5875   40.2033 H   0  0  0  0  0  0  0  0  0  0  0  0
   48.4835   34.3101   40.9958 H   0  0  0  0  0  0  0  0  0  0  0  0
   48.9823   34.5895   38.4662 H   0  0  0  0  0  0  0  0  0  0  0  0
   47.3221   34.0567   38.1268 H   0  0  0  0  0  0  0  0  0  0  0  0
   48.2622   31.9690   38.1641 H   0  0  0  0  0  0  0  0  0  0  0  0
   49.6778   32.5447   39.1442 H   0  0  0  0  0  0  0  0  0  0  0  0
   48.0304   30.8506   40.1765 H   0  0  0  0  0  0  0  0  0  0  0  0
   48.5812   32.2924   41.1333 H   0  0  0  0  0  0  0  0  0  0  0  0
   45.9630   31.9891   39.6486 H   0  0  0  0  0  0  0  0  0  0  0  0
   46.2220   31.9470   41.4336 H   0  0  0  0  0  0  0  0  0  0  0  0
  1  6  2  0
  2  3  2  0
  2  1  1  0
  3  4  1  0
  4  5  2  0
  5  8  1  0
  6  5  1  0
  7 12  1  0
  7 11  1  0
  8  7  1  0
  8  9  1  0
  9 10  1  0
 11 10  1  0
 11 13  1  0
 14  2  1  0
 15 16  2  0
 15 14  1  0
 17 16  1  0
 18 17  2  0
 19 18  1  0
 19 20  2  0
 20 15  1  0
 21 20  1  0
 22 21  1  0
 23 24  1  0
 23 22  1  0
 24 25  1  0
 25 26  1  0
 26 21  1  0
  1 27  1  0
  3 28  1  0
  7 29  1  6
  8 30  1  6
 10 31  1  0
 10 32  1  0
 11 33  1  6
 12 34  1  0
 13 35  1  0
 14 36  1  0
 14 37  1  0
 16 38  1  0
 17 39  1  0
 18 40  1  0
 19 41  1  0
 22 42  1  0
 22 43  1  0
 23 44  1  0
 23 45  1  0
 24 46  1  0
 24 47  1  0
 25 48  1  0
 25 49  1  0
 26 50  1  0
 26 51  1  0
M  ISO  8  27  14  28  14  29  13  30  13  31  13  32  13  33  13  34   3
M  ISO  8  35   3  36   8  37   8  38  14  39  14  40  14  41  14  42  13
M  ISO  8  43  13  44  13  45  13  46  13  47  13  48  13  49  13  50  13
M  ISO  1  51  13
M  END
>  <minimizedAffinity>  (1) 
-7.08263779

>  <minimizedRMSD>  (1) 
0.546826303

$$$$
