
     RDKit          3D

 42 44  0  0  1  0  0  0  0  0999 V2000
   45.0800   34.8710   44.8140 C   0  0  0  0  0  0  0  0  0  0  0  0
   46.0180   34.6670   43.8090 C   0  0  0  0  0  0  0  0  0  0  0  0
   46.9000   33.5980   43.9730 C   0  0  0  0  0  0  0  0  0  0  0  0
   46.8400   32.7980   45.0590 N   0  0  0  0  0  0  0  0  0  0  0  0
   45.9110   33.0300   46.0190 C   0  0  0  0  0  0  0  0  0  0  0  0
   45.0270   34.0630   45.9060 N   0  0  0  0  0  0  0  0  0  0  0  0
   47.3190   31.8100   47.6690 C   0  0  2  0  0  0  0  0  0  0  0  0
   45.8790   32.1330   47.1740 C   0  0  1  0  0  0  0  0  0  0  0  0
   45.3660   32.6550   48.3120 O   0  0  0  0  0  0  0  0  0  0  0  0
   45.7150   31.8300   49.3420 C   0  0  0  0  0  0  0  0  0  0  0  0
   46.9080   31.0070   48.9150 C   0  0  2  0  0  0  0  0  0  0  0  0
   47.9260   32.9310   48.0940 O   0  0  0  0  0  0  0  0  0  0  0  0
   47.8900   30.9350   49.8580 O   0  0  0  0  0  0  0  0  0  0  0  0
   46.0470   35.5420   42.6530 C   0  0  0  0  0  0  0  0  0  0  0  0
   45.0730   35.0970   41.6450 C   0  0  0  0  0  0  0  0  0  0  0  0
   43.7750   35.5410   41.5540 C   0  0  0  0  0  0  0  0  0  0  0  0
   42.9120   35.0710   40.5780 C   0  0  0  0  0  0  0  0  0  0  0  0
   43.3620   34.1370   39.6790 C   0  0  0  0  0  0  0  0  0  0  0  0
   44.6590   33.6900   39.7670 C   0  0  0  0  0  0  0  0  0  0  0  0
   45.5380   34.1560   40.7450 C   0  0  0  0  0  0  0  0  0  0  0  0
   46.7790   33.5590   40.6210 O   0  0  0  0  0  0  0  0  0  0  0  0
   47.7240   34.1870   38.1940 O   0  0  0  0  0  0  0  0  0  0  0  0
   48.0660   34.0290   39.6560 P   0  0  0  0  0  0  0  0  0  0  0  0
   49.2990   32.8610   39.8440 O   0  0  0  0  0  0  0  0  0  0  0  0
   48.7030   35.4770   40.3000 O   0  0  0  0  0  0  0  0  0  0  0  0
   44.3661   35.7030   44.7241 H   0  0  0  0  0  0  0  0  0  0  0  0
   47.6597   33.4032   43.2017 H   0  0  0  0  0  0  0  0  0  0  0  0
   47.9905   31.3388   46.9361 H   0  0  0  0  0  0  0  0  0  0  0  0
   45.2795   31.2973   46.7839 H   0  0  0  0  0  0  0  0  0  0  0  0
   45.9758   32.4304   50.2260 H   0  0  0  0  0  0  0  0  0  0  0  0
   44.8734   31.1691   49.5969 H   0  0  0  0  0  0  0  0  0  0  0  0
   46.6999   29.9408   48.7422 H   0  0  0  0  0  0  0  0  0  0  0  0
   47.9345   32.9467   49.0838 H   0  0  0  0  0  0  0  0  0  0  0  0
   47.4838   30.9648   50.7603 H   0  0  0  0  0  0  0  0  0  0  0  0
   45.7992   36.5663   42.9682 H   0  0  0  0  0  0  0  0  0  0  0  0
   47.0539   35.5140   42.2111 H   0  0  0  0  0  0  0  0  0  0  0  0
   43.4126   36.2887   42.2748 H   0  0  0  0  0  0  0  0  0  0  0  0
   41.8779   35.4421   40.5241 H   0  0  0  0  0  0  0  0  0  0  0  0
   42.6924   33.7503   38.8967 H   0  0  0  0  0  0  0  0  0  0  0  0
   45.0149   32.9415   39.0437 H   0  0  0  0  0  0  0  0  0  0  0  0
   49.4626   32.7061   40.8080 H   0  0  0  0  0  0  0  0  0  0  0  0
   48.6844   35.4346   41.2889 H   0  0  0  0  0  0  0  0  0  0  0  0
  1  6  2  0
  2  3  2  0
  2  1  1  0
  3  4  1  0
  4  5  2  0
  5  8  1  0
  6  5  1  0
  7 12  1  0
  7 11  1  0
  8  7  1  0
  8  9  1  0
  9 10  1  0
 11 10  1  0
 11 13  1  0
 14  2  1  0
 15 14  1  0
 16 15  2  0
 17 16  1  0
 18 19  1  0
 18 17  2  0
 19 20  2  0
 20 15  1  0
 21 20  1  0
 22 23  2  0
 23 24  1  0
 23 25  1  0
 23 21  1  0
  1 26  1  0
  3 27  1  0
  7 28  1  6
  8 29  1  6
 10 30  1  0
 10 31  1  0
 11 32  1  6
 12 33  1  0
 13 34  1  0
 14 35  1  0
 14 36  1  0
 16 37  1  0
 17 38  1  0
 18 39  1  0
 19 40  1  0
 24 41  1  0
 25 42  1  0
M  ISO  8  26  14  27  14  28  13  29  13  30  13  31  13  32  13  33   3
M  ISO  8  34   3  35   8  36   8  37  14  38  14  39  14  40  14  41   3
M  ISO  1  42   3
M  END
>  <minimizedAffinity>  (1) 
-7.10174417

>  <minimizedRMSD>  (1) 
0.692698777

$$$$
