
     RDKit          3D

 48 50  0  0  0  0  0  0  0  0999 V2000
   44.9911   34.9093   44.8987 C   0  0  0  0  0  0  0  0  0  0  0  0
   45.9054   34.7418   43.8628 C   0  0  0  0  0  0  0  0  0  0  0  0
   46.7918   33.6772   43.9939 C   0  0  0  0  0  0  0  0  0  0  0  0
   46.7688   32.8537   45.0616 N   0  0  0  0  0  0  0  0  0  0  0  0
   45.8638   33.0525   46.0436 C   0  0  0  0  0  0  0  0  0  0  0  0
   44.9726   34.0673   45.9801 N   0  0  0  0  0  0  0  0  0  0  0  0
   47.3229   31.8337   47.6575 C   0  0  2  0  0  0  0  0  0  0  0  0
   45.8695   32.1340   47.1784 C   0  0  1  0  0  0  0  0  0  0  0  0
   45.3750   32.6203   48.3381 O   0  0  0  0  0  0  0  0  0  0  0  0
   45.7477   31.7680   49.3404 C   0  0  0  0  0  0  0  0  0  0  0  0
   46.9479   30.9800   48.8761 C   0  0  2  0  0  0  0  0  0  0  0  0
   47.9111   32.9579   48.0918 O   0  0  0  0  0  0  0  0  0  0  0  0
   47.9690   30.9057   49.7918 O   0  0  0  0  0  0  0  0  0  0  0  0
   45.9330   35.6079   42.7089 C   0  0  0  0  0  0  0  0  0  0  0  0
   44.9588   35.1806   41.7021 C   0  0  0  0  0  0  0  0  0  0  0  0
   43.6783   35.7077   41.5818 C   0  0  0  0  0  0  0  0  0  0  0  0
   42.7888   35.2172   40.6250 C   0  0  0  0  0  0  0  0  0  0  0  0
   43.1701   34.2030   39.7866 C   0  0  0  0  0  0  0  0  0  0  0  0
   44.4591   33.6699   39.9058 C   0  0  0  0  0  0  0  0  0  0  0  0
   45.3684   34.1645   40.8759 C   0  0  0  0  0  0  0  0  0  0  0  0
   44.2839   35.7320   44.8350 H   0  0  0  0  0  0  0  0  0  0  0  0
   47.5779   33.3450   43.3185 H   0  0  0  0  0  0  0  0  0  0  0  0
   47.8653   31.2351   46.8941 H   0  0  0  0  0  0  0  0  0  0  0  0
   45.4159   31.1805   46.8466 H   0  0  0  0  0  0  0  0  0  0  0  0
   44.9478   31.0940   49.6641 H   0  0  0  0  0  0  0  0  0  0  0  0
   46.1088   32.3811   50.1986 H   0  0  0  0  0  0  0  0  0  0  0  0
   46.6215   29.9983   48.4565 H   0  0  0  0  0  0  0  0  0  0  0  0
   48.8000   33.0494   47.6173 H   0  0  0  0  0  0  0  0  0  0  0  0
   48.8129   31.1384   49.3003 H   0  0  0  0  0  0  0  0  0  0  0  0
   45.6032   36.6420   43.0392 H   0  0  0  0  0  0  0  0  0  0  0  0
   46.9561   35.8234   42.2865 H   0  0  0  0  0  0  0  0  0  0  0  0
   43.3754   36.5092   42.2281 H   0  0  0  0  0  0  0  0  0  0  0  0
   41.7997   35.6949   40.5634 H   0  0  0  0  0  0  0  0  0  0  0  0
   42.4368   33.8943   39.0501 H   0  0  0  0  0  0  0  0  0  0  0  0
   44.6013   32.8895   39.1568 H   0  0  0  0  0  0  0  0  0  0  0  0
   46.6294   33.5024   40.6121 C   0  0  0  0  0  0  0  0  0  0  0  0
   47.6474   34.3270   39.9350 N   0  0  0  0  0  4  0  0  0  0  0  0
   48.2835   33.4584   38.8984 C   0  0  0  0  0  0  0  0  0  0  0  0
   49.0515   32.8617   39.4233 H   0  0  0  0  0  0  0  0  0  0  0  0
   48.7327   34.7612   40.7668 C   0  0  0  0  0  0  0  0  0  0  0  0
   48.7733   34.1337   41.6774 H   0  0  0  0  0  0  0  0  0  0  0  0
   46.4913   32.5816   40.0449 H   0  0  0  0  0  0  0  0  0  0  0  0
   47.1897   33.2543   41.5742 H   0  0  0  0  0  0  0  0  0  0  0  0
   47.2227   35.1488   39.4833 H   0  0  0  0  0  0  0  0  0  0  0  0
   47.4677   32.7330   38.6151 H   0  0  0  0  0  0  0  0  0  0  0  0
   48.6130   34.0699   38.0717 H   0  0  0  0  0  0  0  0  0  0  0  0
   48.6520   35.8248   41.0684 H   0  0  0  0  0  0  0  0  0  0  0  0
   49.7279   34.6061   40.2720 H   0  0  0  0  0  0  0  0  0  0  0  0
  1  6  2  0
  2  3  2  0
  2  1  1  0
  3  4  1  0
  4  5  2  0
  5  8  1  0
  6  5  1  0
  7 12  1  0
  7 11  1  0
  8  7  1  0
  8  9  1  0
  9 10  1  0
 11 10  1  0
 11 13  1  0
 14  2  1  0
 15 14  1  0
 16 15  2  0
 17 16  1  0
 18 19  1  0
 18 17  2  0
 19 20  2  0
 20 15  1  0
  1 21  1  0
  3 22  1  0
  7 23  1  6
  8 24  1  6
 10 25  1  0
 10 26  1  0
 11 27  1  6
 12 28  1  0
 13 29  1  0
 14 30  1  0
 14 31  1  0
 16 32  1  0
 17 33  1  0
 18 34  1  0
 19 35  1  0
 36 37  1  0
 37 38  1  0
 38 39  1  0
 37 40  1  0
 40 41  1  0
 36 42  1  0
 36 43  1  0
 37 44  1  0
 38 45  1  0
 38 46  1  0
 40 47  1  0
 40 48  1  0
 20 36  1  0
M  CHG  1  37   1
M  END
>  <DihAtoms>  (1) 
18,19,35,36

>  <DihDeg>  (1) 
58.705336760662725

$$$$
