
     RDKit          3D

 21 22  0  0  1  0  0  0  0  0999 V2000
   46.3480   34.3270   41.3010 C   0  0  1  0  0  0  0  0  0  0  0  0
   47.7690   34.5810   40.9650 C   0  0  2  0  0  0  0  0  0  0  0  0
   47.3070   33.1930   41.1610 C   0  0  0  0  0  0  0  0  0  0  0  0
   45.3500   35.9790   42.8740 C   0  0  0  0  0  0  0  0  0  0  0  0
   45.8060   34.6780   42.6460 C   0  0  0  0  0  0  0  0  0  0  0  0
   45.7390   33.7430   43.6950 C   0  0  0  0  0  0  0  0  0  0  0  0
   45.2240   34.1640   44.9020 N   0  0  0  0  0  0  0  0  0  0  0  0
   44.8000   35.4350   45.0630 C   0  0  0  0  0  0  0  0  0  0  0  0
   44.8530   36.3540   44.0670 N   0  0  0  0  0  0  0  0  0  0  0  0
   48.6240   35.1750   41.9940 C   0  0  0  0  0  0  0  0  0  0  0  0
   48.9030   36.3270   41.9070 O   0  0  0  0  0  0  0  0  0  0  0  0
   49.0890   34.3730   43.0500 N   0  0  0  0  0  0  0  0  0  0  0  0
   45.3838   34.6023   40.8487 H   0  0  0  0  0  0  0  0  0  0  0  0
   48.2910   35.1169   40.1585 H   0  0  0  0  0  0  0  0  0  0  0  0
   47.2315   32.5116   40.3008 H   0  0  0  0  0  0  0  0  0  0  0  0
   47.6168   32.3524   41.7993 H   0  0  0  0  0  0  0  0  0  0  0  0
   45.3985   36.7150   42.0579 H   0  0  0  0  0  0  0  0  0  0  0  0
   46.0867   32.7087   43.5562 H   0  0  0  0  0  0  0  0  0  0  0  0
   44.3956   35.7375   46.0402 H   0  0  0  0  0  0  0  0  0  0  0  0
   49.6912   34.7804   43.7796 H   0  0  0  0  0  0  0  0  0  0  0  0
   48.8277   33.3777   43.0945 H   0  0  0  0  0  0  0  0  0  0  0  0
  1  5  1  0
  2  3  1  0
  2  1  1  0
  2 10  1  0
  3  1  1  0
  4  9  2  0
  5  4  1  0
  5  6  2  0
  6  7  1  0
  7  8  2  0
  9  8  1  0
 10 12  1  0
 11 10  2  0
  1 13  1  6
  2 14  1  6
  3 15  1  0
  3 16  1  0
  4 17  1  0
  6 18  1  0
  8 19  1  0
 12 20  1  0
 12 21  1  0
M  ISO  7  13  13  14  13  15  13  16  13  17  14  18  14  19  14
M  END
>  <minimizedAffinity>  (1) 
-4.06686354

>  <minimizedRMSD>  (1) 
0.301644295

$$$$
