
     RDKit          3D

 20 21  0  0  1  0  0  0  0  0999 V2000
   46.4070   34.3270   41.3490 C   0  0  1  0  0  0  0  0  0  0  0  0
   47.8240   34.5980   41.0200 C   0  0  2  0  0  0  0  0  0  0  0  0
   47.3830   33.2030   41.2280 C   0  0  0  0  0  0  0  0  0  0  0  0
   45.3760   35.9850   42.8670 C   0  0  0  0  0  0  0  0  0  0  0  0
   45.8490   34.6930   42.6810 C   0  0  0  0  0  0  0  0  0  0  0  0
   45.7760   33.7690   43.7390 C   0  0  0  0  0  0  0  0  0  0  0  0
   45.2300   34.2130   44.9170 N   0  0  0  0  0  0  0  0  0  0  0  0
   44.7780   35.4720   45.0720 C   0  0  0  0  0  0  0  0  0  0  0  0
   44.8480   36.3720   44.0480 N   0  0  0  0  0  0  0  0  0  0  0  0
   48.6670   35.2010   42.0630 C   0  0  0  0  0  0  0  0  0  0  0  0
   48.9880   36.3430   41.9270 O   0  0  0  0  0  0  0  0  0  0  0  0
   49.0350   34.4000   43.1390 O   0  0  0  0  0  0  0  0  0  0  0  0
   45.4410   34.5799   40.8875 H   0  0  0  0  0  0  0  0  0  0  0  0
   48.3385   35.1384   40.2118 H   0  0  0  0  0  0  0  0  0  0  0  0
   47.3233   32.5112   40.3748 H   0  0  0  0  0  0  0  0  0  0  0  0
   47.7009   32.3736   41.8769 H   0  0  0  0  0  0  0  0  0  0  0  0
   45.4323   36.7058   42.0380 H   0  0  0  0  0  0  0  0  0  0  0  0
   46.1402   32.7371   43.6271 H   0  0  0  0  0  0  0  0  0  0  0  0
   44.3468   35.7792   46.0362 H   0  0  0  0  0  0  0  0  0  0  0  0
   49.6020   34.7707   43.8609 H   0  0  0  0  0  0  0  0  0  0  0  0
  1  5  1  0
  2  3  1  0
  2  1  1  0
  2 10  1  0
  3  1  1  0
  4  9  2  0
  5  4  1  0
  5  6  2  0
  6  7  1  0
  7  8  2  0
  9  8  1  0
 10 12  1  0
 11 10  2  0
  1 13  1  6
  2 14  1  6
  3 15  1  0
  3 16  1  0
  4 17  1  0
  6 18  1  0
  8 19  1  0
 12 20  1  0
M  ISO  8  13  13  14  13  15  13  16  13  17  14  18  14  19  14  20   3
M  END
>  <minimizedAffinity>  (1) 
-4.0647707

>  <minimizedRMSD>  (1) 
0.291008234

$$$$
