
     RDKit          3D

 34 37  0  0  0  0  0  0  0  0999 V2000
   46.3730   32.3380   45.2710 C   0  0  0  0  0  0  0  0  0  0  0  0
   46.8930   32.3410   46.5470 C   0  0  0  0  0  0  0  0  0  0  0  0
   46.6380   31.2770   47.3880 C   0  0  0  0  0  0  0  0  0  0  0  0
   45.8810   30.1770   47.0370 C   0  0  0  0  0  0  0  0  0  0  0  0
   45.3770   30.2020   45.7590 C   0  0  0  0  0  0  0  0  0  0  0  0
   45.6180   31.2380   44.9240 C   0  0  0  0  0  0  0  0  0  0  0  0
   44.3940   28.8320   45.2240 S   0  0  0  0  0  0  0  0  0  0  0  0
   44.3090   27.6910   46.5900 C   0  0  0  0  0  0  0  0  0  0  0  0
   43.6040   26.5350   46.4450 C   0  0  0  0  0  0  0  0  0  0  0  0
   43.4970   25.6090   47.4600 C   0  0  0  0  0  0  0  0  0  0  0  0
   44.1370   25.8940   48.6460 C   0  0  0  0  0  0  0  0  0  0  0  0
   44.8400   27.0760   48.7500 C   0  0  0  0  0  0  0  0  0  0  0  0
   44.9620   28.0190   47.7510 C   0  0  0  0  0  0  0  0  0  0  0  0
   45.7140   29.1700   48.0170 N   0  0  0  0  0  0  0  0  0  0  0  0
   47.8900   34.5760   42.6540 C   0  0  0  0  0  0  0  0  0  0  0  0
   47.7620   33.5460   43.5900 C   0  0  0  0  0  0  0  0  0  0  0  0
   46.5630   33.3920   44.2850 C   0  0  0  0  0  0  0  0  0  0  0  0
   45.5690   34.2730   44.0040 N   0  0  0  0  0  0  0  0  0  0  0  0
   45.7020   35.2570   43.1050 C   0  0  0  0  0  0  0  0  0  0  0  0
   46.8500   35.4020   42.4430 N   0  0  0  0  0  0  0  0  0  0  0  0
   49.1870   34.7070   41.9330 C   0  0  0  0  0  0  0  0  0  0  0  0
   49.5760   33.5210   41.3640 F   0  0  0  0  0  0  0  0  0  0  0  0
   49.0760   35.7250   41.0090 F   0  0  0  0  0  0  0  0  0  0  0  0
   50.1660   35.1290   42.8480 F   0  0  0  0  0  0  0  0  0  0  0  0
   47.5071   33.1856   46.8929 H   0  0  0  0  0  0  0  0  0  0  0  0
   47.0646   31.3072   48.4015 H   0  0  0  0  0  0  0  0  0  0  0  0
   45.1879   31.2010   43.9122 H   0  0  0  0  0  0  0  0  0  0  0  0
   43.1035   26.3338   45.4863 H   0  0  0  0  0  0  0  0  0  0  0  0
   42.9235   24.6796   47.3284 H   0  0  0  0  0  0  0  0  0  0  0  0
   44.0884   25.1934   49.4926 H   0  0  0  0  0  0  0  0  0  0  0  0
   45.3435   27.2831   49.7058 H   0  0  0  0  0  0  0  0  0  0  0  0
   46.1530   29.2855   48.9416 H   0  0  0  0  0  0  0  0  0  0  0  0
   48.6020   32.8610   43.7773 H   0  0  0  0  0  0  0  0  0  0  0  0
   44.8650   35.9446   42.9132 H   0  0  0  0  0  0  0  0  0  0  0  0
  1  2  2  0
  2  3  1  0
  4  3  2  0
  4 14  1  0
  5  4  1  0
  6  1  1  0
  6  5  2  0
  7  5  1  0
  7  8  1  0
  8 13  2  0
  9  8  1  0
  9 10  2  0
 10 11  1  0
 11 12  2  0
 13 14  1  0
 13 12  1  0
 15 16  2  0
 16 17  1  0
 17  1  1  0
 18 17  2  0
 19 18  1  0
 20 15  1  0
 20 19  2  0
 21 15  1  0
 21 24  1  0
 22 21  1  0
 23 21  1  0
  2 25  1  0
  3 26  1  0
  6 27  1  0
  9 28  1  0
 10 29  1  0
 11 30  1  0
 12 31  1  0
 14 32  1  0
 16 33  1  0
 19 34  1  0
M  ISO  8  25  14  26  14  27  14  28  14  29  14  30  14  31  14  33  14
M  ISO  1  34  14
M  END
>  <minimizedAffinity>  (1) 
-6.29849529

>  <minimizedRMSD>  (1) 
1.31329703

$$$$
