
     RDKit          3D

 17 17  0  0  0  0  0  0  0  0999 V2000
   47.6180   34.9820   42.2170 C   0  0  0  0  0  0  0  0  0  0  0  0
   47.9020   34.1240   43.3000 C   0  0  0  0  0  0  0  0  0  0  0  0
   46.8430   33.7390   44.1250 C   0  0  0  0  0  0  0  0  0  0  0  0
   45.6070   34.2170   43.8290 N   0  0  0  0  0  0  0  0  0  0  0  0
   45.3660   35.0370   42.7880 C   0  0  0  0  0  0  0  0  0  0  0  0
   46.3750   35.4140   41.9880 N   0  0  0  0  0  0  0  0  0  0  0  0
   46.1500   33.1060   46.3190 C   0  0  0  0  0  0  0  0  0  0  0  0
   45.3530   34.0340   46.0190 O   0  0  0  0  0  0  0  0  0  0  0  0
   47.0710   32.8710   45.2370 N   0  0  0  0  0  0  0  0  0  0  0  0
   48.7860   35.3680   41.3650 C   0  0  0  0  0  0  0  0  0  0  0  0
   48.4930   35.3360   40.0360 F   0  0  0  0  0  0  0  0  0  0  0  0
   49.1950   36.6430   41.7580 F   0  0  0  0  0  0  0  0  0  0  0  0
   49.8740   34.5330   41.6450 F   0  0  0  0  0  0  0  0  0  0  0  0
   48.9259   33.7691   43.4889 H   0  0  0  0  0  0  0  0  0  0  0  0
   44.3447   35.3966   42.5942 H   0  0  0  0  0  0  0  0  0  0  0  0
   46.1435   32.5543   47.2706 H   0  0  0  0  0  0  0  0  0  0  0  0
   47.8122   32.1562   45.2620 H   0  0  0  0  0  0  0  0  0  0  0  0
  1  2  2  0
  2  3  1  0
  3  9  1  0
  4  3  2  0
  5  4  1  0
  6  1  1  0
  6  5  2  0
  8  7  2  0
  9  7  1  0
 10 13  1  0
 10 12  1  0
 10  1  1  0
 11 10  1  0
  2 14  1  0
  5 15  1  0
  7 16  1  0
  9 17  1  0
M  ISO  3  14  14  15  14  16   6
M  END
>  <minimizedAffinity>  (1) 
-4.9008584

>  <minimizedRMSD>  (1) 
0.310843736

$$$$
