
     RDKit          3D

 20 21  0  0  0  0  0  0  0  0999 V2000
   47.5360   34.9580   42.3420 C   0  0  0  0  0  0  0  0  0  0  0  0
   47.7550   33.9940   43.3360 C   0  0  0  0  0  0  0  0  0  0  0  0
   46.7000   33.6870   44.2010 C   0  0  0  0  0  0  0  0  0  0  0  0
   45.5310   34.3310   44.0410 N   0  0  0  0  0  0  0  0  0  0  0  0
   45.3370   35.2630   43.0710 C   0  0  0  0  0  0  0  0  0  0  0  0
   46.3410   35.5740   42.2240 N   0  0  0  0  0  0  0  0  0  0  0  0
   46.8820   32.6910   45.2490 C   0  0  0  0  0  0  0  0  0  0  0  0
   46.6510   32.8860   46.5870 C   0  0  0  0  0  0  0  0  0  0  0  0
   46.9340   31.7180   47.2680 C   0  0  0  0  0  0  0  0  0  0  0  0
   47.3330   30.8370   46.3040 N   0  0  0  0  0  0  0  0  0  0  0  0
   47.2970   31.4310   45.1070 N   0  0  0  0  0  0  0  0  0  0  0  0
   48.7000   35.2480   41.4400 C   0  0  0  0  0  0  0  0  0  0  0  0
   48.3360   35.1640   40.1160 F   0  0  0  0  0  0  0  0  0  0  0  0
   49.1700   36.5190   41.7480 F   0  0  0  0  0  0  0  0  0  0  0  0
   49.7420   34.3740   41.7170 F   0  0  0  0  0  0  0  0  0  0  0  0
   48.7295   33.4931   43.4328 H   0  0  0  0  0  0  0  0  0  0  0  0
   44.3622   35.7637   42.9762 H   0  0  0  0  0  0  0  0  0  0  0  0
   46.2973   33.8219   47.0441 H   0  0  0  0  0  0  0  0  0  0  0  0
   46.8552   31.5371   48.3502 H   0  0  0  0  0  0  0  0  0  0  0  0
   47.6186   29.8620   46.4736 H   0  0  0  0  0  0  0  0  0  0  0  0
  1  2  2  0
  2  3  1  0
  3  7  1  0
  4  3  2  0
  5  4  1  0
  6  1  1  0
  6  5  2  0
  7  8  1  0
  8  9  2  0
 10  9  1  0
 11  7  2  0
 11 10  1  0
 12 15  1  0
 12 14  1  0
 12  1  1  0
 13 12  1  0
  2 16  1  0
  5 17  1  0
  8 18  1  0
  9 19  1  0
 10 20  1  0
M  ISO  5  16  14  17  14  18  14  19  14  20   9
M  END
>  <minimizedAffinity>  (1) 
-4.78841496

>  <minimizedRMSD>  (1) 
0.444961637

$$$$
