
     RDKit          3D

 15 15  0  0  0  0  0  0  0  0999 V2000
   47.6790   34.9710   42.3560 C   0  0  0  0  0  0  0  0  0  0  0  0
   47.9140   33.9650   43.3030 C   0  0  0  0  0  0  0  0  0  0  0  0
   46.8740   33.6480   44.1990 C   0  0  0  0  0  0  0  0  0  0  0  0
   45.7170   34.3340   44.0880 N   0  0  0  0  0  0  0  0  0  0  0  0
   45.5030   35.3010   43.1720 C   0  0  0  0  0  0  0  0  0  0  0  0
   46.4910   35.6060   42.3150 N   0  0  0  0  0  0  0  0  0  0  0  0
   47.0660   32.6360   45.1760 N   0  0  0  0  0  0  0  0  0  0  0  0
   48.7920   35.2880   41.4180 C   0  0  0  0  0  0  0  0  0  0  0  0
   48.4240   35.1370   40.1000 F   0  0  0  0  0  0  0  0  0  0  0  0
   49.2320   36.5770   41.6800 F   0  0  0  0  0  0  0  0  0  0  0  0
   49.8760   34.4540   41.6980 F   0  0  0  0  0  0  0  0  0  0  0  0
   48.8795   33.4397   43.3454 H   0  0  0  0  0  0  0  0  0  0  0  0
   44.5389   35.8289   43.1279 H   0  0  0  0  0  0  0  0  0  0  0  0
   46.3069   32.4028   45.8320 H   0  0  0  0  0  0  0  0  0  0  0  0
   47.9644   32.1350   45.2289 H   0  0  0  0  0  0  0  0  0  0  0  0
  1  2  2  0
  2  3  1  0
  3  7  1  0
  4  3  2  0
  5  4  1  0
  6  1  1  0
  6  5  2  0
  8 10  1  0
  8 11  1  0
  8  1  1  0
  9  8  1  0
  2 12  1  0
  5 13  1  0
  7 14  1  0
  7 15  1  0
M  ISO  2  12  14  13  14
M  END
>  <minimizedAffinity>  (1) 
-4.11374998

>  <minimizedRMSD>  (1) 
0.104867518

$$$$
