
     RDKit          3D

 43 45  0  0  1  0  0  0  0  0999 V2000
   45.7710   33.0080   46.3140 N   0  0  0  0  0  0  0  0  0  0  0  0
   45.1110   33.2160   47.6010 C   0  0  0  0  0  0  0  0  0  0  0  0
   45.8660   32.3630   48.6060 C   0  0  0  0  0  0  0  0  0  0  0  0
   45.5940   30.9170   48.3120 C   0  0  0  0  0  0  0  0  0  0  0  0
   45.8530   30.6510   46.8570 C   0  0  0  0  0  0  0  0  0  0  0  0
   46.4960   31.7980   46.1430 C   0  0  1  0  0  0  0  0  0  0  0  0
   46.3310   34.8740   43.1710 C   0  0  0  0  0  0  0  0  0  0  0  0
   46.4830   33.9150   44.1760 C   0  0  0  0  0  0  0  0  0  0  0  0
   45.6760   33.9610   45.2990 C   0  0  0  0  0  0  0  0  0  0  0  0
   44.7660   34.9580   45.3660 N   0  0  0  0  0  0  0  0  0  0  0  0
   44.6180   35.8940   44.3900 C   0  0  0  0  0  0  0  0  0  0  0  0
   45.4060   35.8440   43.2940 N   0  0  0  0  0  0  0  0  0  0  0  0
   47.2170   34.7510   41.9620 C   0  0  0  0  0  0  0  0  0  0  0  0
   46.4700   34.6010   40.7990 F   0  0  0  0  0  0  0  0  0  0  0  0
   47.9990   35.8860   41.9140 F   0  0  0  0  0  0  0  0  0  0  0  0
   48.0600   33.6590   42.1100 F   0  0  0  0  0  0  0  0  0  0  0  0
   46.6400   31.3670   44.7560 N   0  0  0  0  0  0  0  0  0  0  0  0
   45.5550   30.5600   44.2820 C   0  0  0  0  0  0  0  0  0  0  0  0
   45.7030   30.4160   42.7690 C   0  0  0  0  0  0  0  0  0  0  0  0
   47.0480   29.7720   42.4330 C   0  0  0  0  0  0  0  0  0  0  0  0
   48.1130   30.6550   43.0450 C   0  0  0  0  0  0  0  0  0  0  0  0
   47.8700   30.6260   44.5590 C   0  0  0  0  0  0  0  0  0  0  0  0
   45.1600   34.2768   47.8879 H   0  0  0  0  0  0  0  0  0  0  0  0
   44.0479   32.9372   47.5565 H   0  0  0  0  0  0  0  0  0  0  0  0
   46.9448   32.5609   48.5226 H   0  0  0  0  0  0  0  0  0  0  0  0
   45.5352   32.6061   49.6265 H   0  0  0  0  0  0  0  0  0  0  0  0
   46.2552   30.2865   48.9245 H   0  0  0  0  0  0  0  0  0  0  0  0
   44.5457   30.6828   48.5493 H   0  0  0  0  0  0  0  0  0  0  0  0
   46.5148   29.7761   46.7760 H   0  0  0  0  0  0  0  0  0  0  0  0
   44.8757   30.4822   46.3812 H   0  0  0  0  0  0  0  0  0  0  0  0
   47.4845   32.0451   46.5575 H   0  0  0  0  0  0  0  0  0  0  0  0
   47.2423   33.1256   44.0746 H   0  0  0  0  0  0  0  0  0  0  0  0
   43.8618   36.6862   44.4926 H   0  0  0  0  0  0  0  0  0  0  0  0
   45.5913   29.5686   44.7571 H   0  0  0  0  0  0  0  0  0  0  0  0
   44.5916   31.0296   44.5297 H   0  0  0  0  0  0  0  0  0  0  0  0
   44.8900   29.7840   42.3822 H   0  0  0  0  0  0  0  0  0  0  0  0
   45.6545   31.4124   42.3055 H   0  0  0  0  0  0  0  0  0  0  0  0
   47.1019   28.7599   42.8606 H   0  0  0  0  0  0  0  0  0  0  0  0
   47.1842   29.6808   41.3453 H   0  0  0  0  0  0  0  0  0  0  0  0
   49.1142   30.2637   42.8113 H   0  0  0  0  0  0  0  0  0  0  0  0
   48.0620   31.6800   42.6490 H   0  0  0  0  0  0  0  0  0  0  0  0
   47.7584   29.5905   44.9128 H   0  0  0  0  0  0  0  0  0  0  0  0
   48.7094   31.0620   45.1205 H   0  0  0  0  0  0  0  0  0  0  0  0
  1  2  1  0
  2  3  1  0
  4  3  1  0
  5  4  1  0
  6  1  1  0
  6  5  1  0
  7 12  2  0
  7  8  1  0
  8  9  2  0
  9 10  1  0
  9  1  1  0
 11 10  2  0
 12 11  1  0
 13 16  1  0
 13  7  1  0
 14 13  1  0
 15 13  1  0
 17  6  1  0
 18 17  1  0
 19 18  1  0
 20 19  1  0
 20 21  1  0
 21 22  1  0
 22 17  1  0
  2 23  1  0
  2 24  1  0
  3 25  1  0
  3 26  1  0
  4 27  1  0
  4 28  1  0
  5 29  1  0
  5 30  1  0
  6 31  1  1
  8 32  1  0
 11 33  1  0
 18 34  1  0
 18 35  1  0
 19 36  1  0
 19 37  1  0
 20 38  1  0
 20 39  1  0
 21 40  1  0
 21 41  1  0
 22 42  1  0
 22 43  1  0
M  ISO  8  23  13  24  13  25  13  26  13  27  13  28  13  29  13  30  13
M  ISO  8  31  13  32  14  33  14  34  13  35  13  36  13  37  13  38  13
M  ISO  5  39  13  40  13  41  13  42  13  43  13
M  END
>  <minimizedAffinity>  (1) 
-5.52883577

>  <minimizedRMSD>  (1) 
0.521986604

$$$$
