
     RDKit          3D

 29 30  0  0  1  0  0  0  0  0999 V2000
   45.6040   32.9490   46.5150 N   0  0  0  0  0  0  0  0  0  0  0  0
   45.0340   33.1590   47.8270 C   0  0  0  0  0  0  0  0  0  0  0  0
   45.7780   32.2310   48.7840 C   0  0  0  0  0  0  0  0  0  0  0  0
   45.3540   30.8230   48.4670 C   0  0  0  0  0  0  0  0  0  0  0  0
   45.5370   30.5640   46.9950 C   0  0  0  0  0  0  0  0  0  0  0  0
   46.2590   31.7120   46.3090 C   0  0  2  0  0  0  0  0  0  0  0  0
   46.0790   34.8180   43.3590 C   0  0  0  0  0  0  0  0  0  0  0  0
   46.2190   33.8120   44.3240 C   0  0  0  0  0  0  0  0  0  0  0  0
   45.5100   33.9180   45.5110 C   0  0  0  0  0  0  0  0  0  0  0  0
   44.7110   34.9970   45.6810 N   0  0  0  0  0  0  0  0  0  0  0  0
   44.5800   35.9700   44.7400 C   0  0  0  0  0  0  0  0  0  0  0  0
   45.2650   35.8710   43.5890 N   0  0  0  0  0  0  0  0  0  0  0  0
   46.8560   34.6760   42.0900 C   0  0  0  0  0  0  0  0  0  0  0  0
   46.0190   34.6420   40.9880 F   0  0  0  0  0  0  0  0  0  0  0  0
   47.7660   35.7200   42.0310 F   0  0  0  0  0  0  0  0  0  0  0  0
   47.6120   33.4920   42.1510 F   0  0  0  0  0  0  0  0  0  0  0  0
   47.5970   31.7010   46.7400 O   0  0  0  0  0  0  0  0  0  0  0  0
   45.1675   34.2066   48.1348 H   0  0  0  0  0  0  0  0  0  0  0  0
   43.9551   32.9447   47.8278 H   0  0  0  0  0  0  0  0  0  0  0  0
   46.8637   32.3374   48.6427 H   0  0  0  0  0  0  0  0  0  0  0  0
   45.5425   32.4813   49.8289 H   0  0  0  0  0  0  0  0  0  0  0  0
   45.9692   30.1161   49.0431 H   0  0  0  0  0  0  0  0  0  0  0  0
   44.2954   30.6895   48.7343 H   0  0  0  0  0  0  0  0  0  0  0  0
   46.1257   29.6439   46.8652 H   0  0  0  0  0  0  0  0  0  0  0  0
   44.5417   30.4622   46.5379 H   0  0  0  0  0  0  0  0  0  0  0  0
   46.2424   31.5777   45.2174 H   0  0  0  0  0  0  0  0  0  0  0  0
   46.8806   32.9520   44.1430 H   0  0  0  0  0  0  0  0  0  0  0  0
   43.9188   36.8305   44.9200 H   0  0  0  0  0  0  0  0  0  0  0  0
   47.6249   31.7008   47.7296 H   0  0  0  0  0  0  0  0  0  0  0  0
  1  2  1  0
  2  3  1  0
  4  3  1  0
  5  4  1  0
  6  1  1  0
  6 17  1  0
  6  5  1  0
  7 12  2  0
  7  8  1  0
  8  9  2  0
  9 10  1  0
  9  1  1  0
 11 10  2  0
 12 11  1  0
 13 16  1  0
 13  7  1  0
 14 13  1  0
 15 13  1  0
  2 18  1  0
  2 19  1  0
  3 20  1  0
  3 21  1  0
  4 22  1  0
  4 23  1  0
  5 24  1  0
  5 25  1  0
  6 26  1  6
  8 27  1  0
 11 28  1  0
 17 29  1  0
M  ISO  8  18  13  19  13  20  13  21  13  22  13  23  13  24  13  25  13
M  ISO  4  26  13  27  14  28  14  29   3
M  END
>  <minimizedAffinity>  (1) 
-5.38936949

>  <minimizedRMSD>  (1) 
0.168063089

$$$$
