
     RDKit          3D

 32 33  0  0  1  0  0  0  0  0999 V2000
   45.6460   32.7380   46.5940 N   0  0  0  0  0  0  0  0  0  0  0  0
   45.3630   33.0470   47.9800 C   0  0  0  0  0  0  0  0  0  0  0  0
   46.0640   32.0080   48.8230 C   0  0  0  0  0  0  0  0  0  0  0  0
   45.3970   30.6720   48.5990 C   0  0  0  0  0  0  0  0  0  0  0  0
   45.2660   30.4080   47.1390 C   0  0  0  0  0  0  0  0  0  0  0  0
   46.0240   31.4130   46.2930 C   0  0  2  0  0  0  0  0  0  0  0  0
   46.1190   34.6730   43.4750 C   0  0  0  0  0  0  0  0  0  0  0  0
   46.2450   33.6540   44.4230 C   0  0  0  0  0  0  0  0  0  0  0  0
   45.5360   33.7410   45.6100 C   0  0  0  0  0  0  0  0  0  0  0  0
   44.7470   34.8200   45.7930 N   0  0  0  0  0  0  0  0  0  0  0  0
   44.6260   35.8040   44.8770 C   0  0  0  0  0  0  0  0  0  0  0  0
   45.3200   35.7230   43.7120 N   0  0  0  0  0  0  0  0  0  0  0  0
   46.9050   34.5450   42.2150 C   0  0  0  0  0  0  0  0  0  0  0  0
   46.1030   34.4300   41.1110 F   0  0  0  0  0  0  0  0  0  0  0  0
   47.7780   35.6380   42.1390 F   0  0  0  0  0  0  0  0  0  0  0  0
   47.7680   33.4360   42.3170 F   0  0  0  0  0  0  0  0  0  0  0  0
   48.0020   30.2850   45.2870 C   0  0  0  0  0  0  0  0  0  0  0  0
   47.3540   29.6960   44.3490 O   0  0  0  0  0  0  0  0  0  0  0  0
   47.4500   31.1570   46.3040 N   0  0  0  0  0  0  0  0  0  0  0  0
   45.7411   34.0500   48.2270 H   0  0  0  0  0  0  0  0  0  0  0  0
   44.2793   33.0356   48.1685 H   0  0  0  0  0  0  0  0  0  0  0  0
   47.1226   31.9468   48.5304 H   0  0  0  0  0  0  0  0  0  0  0  0
   46.0022   32.2841   49.8860 H   0  0  0  0  0  0  0  0  0  0  0  0
   46.0048   29.8793   49.0597 H   0  0  0  0  0  0  0  0  0  0  0  0
   44.3961   30.6864   49.0552 H   0  0  0  0  0  0  0  0  0  0  0  0
   45.6578   29.4023   46.9265 H   0  0  0  0  0  0  0  0  0  0  0  0
   44.2002   30.4920   46.8801 H   0  0  0  0  0  0  0  0  0  0  0  0
   45.7317   31.2777   45.2412 H   0  0  0  0  0  0  0  0  0  0  0  0
   46.9002   32.7920   44.2288 H   0  0  0  0  0  0  0  0  0  0  0  0
   43.9702   36.6652   45.0724 H   0  0  0  0  0  0  0  0  0  0  0  0
   49.0874   30.1100   45.3226 H   0  0  0  0  0  0  0  0  0  0  0  0
   48.0570   31.5847   47.0178 H   0  0  0  0  0  0  0  0  0  0  0  0
  1  2  1  0
  2  3  1  0
  4  3  1  0
  5  4  1  0
  6 19  1  0
  6  1  1  0
  6  5  1  0
  7 12  2  0
  7  8  1  0
  8  9  2  0
  9 10  1  0
  9  1  1  0
 11 10  2  0
 12 11  1  0
 13 16  1  0
 13  7  1  0
 14 13  1  0
 15 13  1  0
 17 19  1  0
 18 17  2  0
  2 20  1  0
  2 21  1  0
  3 22  1  0
  3 23  1  0
  4 24  1  0
  4 25  1  0
  5 26  1  0
  5 27  1  0
  6 28  1  6
  8 29  1  0
 11 30  1  0
 17 31  1  0
 19 32  1  0
M  ISO  8  20  13  21  13  22  13  23  13  24  13  25  13  26  13  27  13
M  ISO  4  28  13  29  14  30  14  31   6
M  END
>  <minimizedAffinity>  (1) 
-5.15565968

>  <minimizedRMSD>  (1) 
0.895852685

$$$$
