
     RDKit          3D

 38 40  0  0  1  0  0  0  0  0999 V2000
   46.8440   32.8310   45.0000 N   0  0  0  0  0  0  0  0  0  0  0  0
   46.2000   33.1670   46.2770 C   0  0  0  0  0  0  0  0  0  0  0  0
   47.0230   32.4740   47.3610 C   0  0  0  0  0  0  0  0  0  0  0  0
   46.7480   30.9980   47.2380 C   0  0  0  0  0  0  0  0  0  0  0  0
   47.0660   30.5730   45.8370 C   0  0  0  0  0  0  0  0  0  0  0  0
   47.5870   31.6420   44.9520 C   0  0  1  0  0  0  0  0  0  0  0  0
   44.9580   30.3170   43.6530 Br  0  0  0  0  0  0  0  0  0  0  0  0
   46.7080   30.3390   42.9260 C   0  0  0  0  0  0  0  0  0  0  0  0
   47.7200   30.9440   43.6330 C   0  0  0  0  0  0  0  0  0  0  0  0
   48.9750   30.8390   43.0010 C   0  0  0  0  0  0  0  0  0  0  0  0
   49.2240   30.2140   41.8080 C   0  0  0  0  0  0  0  0  0  0  0  0
   48.1530   29.6390   41.1700 C   0  0  0  0  0  0  0  0  0  0  0  0
   46.8920   29.6970   41.7230 C   0  0  0  0  0  0  0  0  0  0  0  0
   47.6250   35.0010   42.1150 C   0  0  0  0  0  0  0  0  0  0  0  0
   47.7960   34.1970   43.2400 C   0  0  0  0  0  0  0  0  0  0  0  0
   46.6920   33.6840   43.8970 C   0  0  0  0  0  0  0  0  0  0  0  0
   45.4700   33.9990   43.4070 N   0  0  0  0  0  0  0  0  0  0  0  0
   45.3030   34.7790   42.3190 C   0  0  0  0  0  0  0  0  0  0  0  0
   46.3830   35.2810   41.6700 N   0  0  0  0  0  0  0  0  0  0  0  0
   48.8550   35.4920   41.4110 C   0  0  0  0  0  0  0  0  0  0  0  0
   48.6790   35.5140   40.0300 F   0  0  0  0  0  0  0  0  0  0  0  0
   49.1350   36.7470   41.9090 F   0  0  0  0  0  0  0  0  0  0  0  0
   49.9270   34.6630   41.7160 F   0  0  0  0  0  0  0  0  0  0  0  0
   46.2043   34.2560   46.4319 H   0  0  0  0  0  0  0  0  0  0  0  0
   45.1505   32.8380   46.2969 H   0  0  0  0  0  0  0  0  0  0  0  0
   48.0940   32.6738   47.2094 H   0  0  0  0  0  0  0  0  0  0  0  0
   46.7517   32.8445   48.3606 H   0  0  0  0  0  0  0  0  0  0  0  0
   47.3790   30.4422   47.9471 H   0  0  0  0  0  0  0  0  0  0  0  0
   45.6921   30.7900   47.4657 H   0  0  0  0  0  0  0  0  0  0  0  0
   47.8219   29.7755   45.8874 H   0  0  0  0  0  0  0  0  0  0  0  0
   46.1124   30.2501   45.3939 H   0  0  0  0  0  0  0  0  0  0  0  0
   48.5583   32.0582   45.2574 H   0  0  0  0  0  0  0  0  0  0  0  0
   49.8325   31.3009   43.5121 H   0  0  0  0  0  0  0  0  0  0  0  0
   50.2367   30.1745   41.3803 H   0  0  0  0  0  0  0  0  0  0  0  0
   48.3028   29.1270   40.2080 H   0  0  0  0  0  0  0  0  0  0  0  0
   46.0387   29.2334   41.2063 H   0  0  0  0  0  0  0  0  0  0  0  0
   48.8084   33.9703   43.6056 H   0  0  0  0  0  0  0  0  0  0  0  0
   44.2896   35.0082   41.9578 H   0  0  0  0  0  0  0  0  0  0  0  0
  1  2  1  0
  2  3  1  0
  4  3  1  0
  5  4  1  0
  6  1  1  0
  6  5  1  0
  8  9  2  0
  8  7  1  0
  9  6  1  0
 10  9  1  0
 11 10  2  0
 12 13  2  0
 12 11  1  0
 13  8  1  0
 14 15  2  0
 15 16  1  0
 16  1  1  0
 17 16  2  0
 18 17  1  0
 19 14  1  0
 19 18  2  0
 20 23  1  0
 20 22  1  0
 20 14  1  0
 21 20  1  0
  2 24  1  0
  2 25  1  0
  3 26  1  0
  3 27  1  0
  4 28  1  0
  4 29  1  0
  5 30  1  0
  5 31  1  0
  6 32  1  1
 10 33  1  0
 11 34  1  0
 12 35  1  0
 13 36  1  0
 15 37  1  0
 18 38  1  0
M  ISO  8  24  13  25  13  26  13  27  13  28  13  29  13  30  13  31  13
M  ISO  7  32  13  33  14  34  14  35  14  36  14  37  14  38  14
M  END
>  <minimizedAffinity>  (1) 
-5.19950485

>  <minimizedRMSD>  (1) 
2.14967823

$$$$
