
     RDKit          3D

 23 24  0  0  1  0  0  0  0  0999 V2000
   46.1120   34.6270   43.5100 C   0  0  0  0  0  0  0  0  0  0  0  0
   45.2420   35.7110   43.6930 C   0  0  0  0  0  0  0  0  0  0  0  0
   44.5510   35.7580   44.9170 C   0  0  0  0  0  0  0  0  0  0  0  0
   44.7650   34.7700   45.8280 N   0  0  0  0  0  0  0  0  0  0  0  0
   45.6190   33.7540   45.5870 C   0  0  0  0  0  0  0  0  0  0  0  0
   46.2980   33.6750   44.4270 N   0  0  0  0  0  0  0  0  0  0  0  0
   45.8320   32.6980   46.5910 C   0  0  2  0  0  0  0  0  0  0  0  0
   45.0350   32.9770   47.8720 C   0  0  0  0  0  0  0  0  0  0  0  0
   45.8380   32.1100   48.8360 C   0  0  0  0  0  0  0  0  0  0  0  0
   47.1630   32.1890   48.4420 O   0  0  0  0  0  0  0  0  0  0  0  0
   47.2190   32.6080   47.1270 C   0  0  0  0  0  0  0  0  0  0  0  0
   46.7890   34.6340   42.2400 C   0  0  0  0  0  0  0  0  0  0  0  0
   47.7650   35.3640   41.9140 O   0  0  0  0  0  0  0  0  0  0  0  0
   45.1072   36.4829   42.9210 H   0  0  0  0  0  0  0  0  0  0  0  0
   43.8507   36.5780   45.1339 H   0  0  0  0  0  0  0  0  0  0  0  0
   45.5437   31.7924   46.0371 H   0  0  0  0  0  0  0  0  0  0  0  0
   45.0609   34.0404   48.1522 H   0  0  0  0  0  0  0  0  0  0  0  0
   43.9581   32.7591   47.8198 H   0  0  0  0  0  0  0  0  0  0  0  0
   45.7264   32.4849   49.8641 H   0  0  0  0  0  0  0  0  0  0  0  0
   45.4836   31.0688   48.8166 H   0  0  0  0  0  0  0  0  0  0  0  0
   47.7983   31.8855   46.5334 H   0  0  0  0  0  0  0  0  0  0  0  0
   47.7059   33.5927   47.0695 H   0  0  0  0  0  0  0  0  0  0  0  0
   46.4186   33.9330   41.4775 H   0  0  0  0  0  0  0  0  0  0  0  0
  1  2  2  0
  1  6  1  0
  2  3  1  0
  3  4  2  0
  5  4  1  0
  6  5  2  0
  7  5  1  0
  7 11  1  0
  7  8  1  0
  8  9  1  0
 10  9  1  0
 11 10  1  0
 12  1  1  0
 13 12  2  0
  2 14  1  0
  3 15  1  0
  7 16  1  6
  8 17  1  0
  8 18  1  0
  9 19  1  0
  9 20  1  0
 11 21  1  0
 11 22  1  0
 12 23  1  0
M  ISO  8  14  14  15  14  16  13  17  13  18  13  19  13  20  13  21  13
M  ISO  2  22  13  23   6
M  END
>  <minimizedAffinity>  (1) 
-4.32711792

>  <minimizedRMSD>  (1) 
0.686864972

$$$$
