
     RDKit          3D

 38 41  0  0  1  0  0  0  0  0999 V2000
   47.4980   34.7870   42.5480 C   0  0  0  0  0  0  0  0  0  0  0  0
   46.3260   35.2920   41.9760 C   0  0  0  0  0  0  0  0  0  0  0  0
   45.1280   34.9690   42.5850 C   0  0  0  0  0  0  0  0  0  0  0  0
   45.1390   34.1920   43.6930 N   0  0  0  0  0  0  0  0  0  0  0  0
   46.2820   33.7210   44.2220 C   0  0  0  0  0  0  0  0  0  0  0  0
   47.4720   34.0200   43.6470 N   0  0  0  0  0  0  0  0  0  0  0  0
   47.1350   31.7660   45.4200 C   0  0  0  0  0  0  0  0  0  0  0  0
   46.3060   32.8780   45.4220 C   0  0  0  0  0  0  0  0  0  0  0  0
   45.5300   33.1750   46.5350 C   0  0  0  0  0  0  0  0  0  0  0  0
   45.5880   32.3520   47.6400 C   0  0  0  0  0  0  0  0  0  0  0  0
   44.9900   32.3590   48.8310 N   0  0  0  0  0  0  0  0  0  0  0  0
   45.4050   31.3050   49.5690 C   0  0  0  0  0  0  0  0  0  0  0  0
   46.3100   30.5690   48.8530 C   0  0  0  0  0  0  0  0  0  0  0  0
   46.4260   31.2250   47.6410 C   0  0  0  0  0  0  0  0  0  0  0  0
   47.1990   30.9380   46.5220 C   0  0  0  0  0  0  0  0  0  0  0  0
   48.7300   35.1460   41.8820 C   0  0  0  0  0  0  0  0  0  0  0  0
   49.0290   36.3510   41.5450 O   0  0  0  0  0  0  0  0  0  0  0  0
   51.4030   32.5570   42.1800 N   0  0  0  0  0  0  0  0  0  0  0  0
   50.6550   33.6470   42.4400 C   0  0  0  0  0  0  0  0  0  0  0  0
   49.5860   33.9630   41.6450 C   0  0  0  0  0  0  0  0  0  0  0  0
   49.2480   33.1720   40.5570 C   0  0  0  0  0  0  0  0  0  0  0  0
   48.2910   33.3680   39.7620 O   0  0  0  0  0  0  0  0  0  0  0  0
   50.0550   32.1070   40.3810 N   0  0  0  0  0  0  0  0  0  0  0  0
   51.1130   31.7450   41.1220 C   0  0  0  0  0  0  0  0  0  0  0  0
   51.7800   30.7190   40.8390 O   0  0  0  0  0  0  0  0  0  0  0  0
   46.3564   35.9226   41.0752 H   0  0  0  0  0  0  0  0  0  0  0  0
   44.1771   35.3390   42.1740 H   0  0  0  0  0  0  0  0  0  0  0  0
   47.7461   31.5424   44.5331 H   0  0  0  0  0  0  0  0  0  0  0  0
   44.8750   34.0588   46.5350 H   0  0  0  0  0  0  0  0  0  0  0  0
   44.3094   33.0658   49.1442 H   0  0  0  0  0  0  0  0  0  0  0  0
   45.0667   31.0740   50.5899 H   0  0  0  0  0  0  0  0  0  0  0  0
   46.8316   29.6546   49.1721 H   0  0  0  0  0  0  0  0  0  0  0  0
   47.8573   30.0568   46.5150 H   0  0  0  0  0  0  0  0  0  0  0  0
   49.2131   35.2992   42.8583 H   0  0  0  0  0  0  0  0  0  0  0  0
   49.1646   36.8974   42.3593 H   0  0  0  0  0  0  0  0  0  0  0  0
   52.2041   32.3336   42.7876 H   0  0  0  0  0  0  0  0  0  0  0  0
   50.9052   34.2883   43.2980 H   0  0  0  0  0  0  0  0  0  0  0  0
   49.8325   31.4975   39.5810 H   0  0  0  0  0  0  0  0  0  0  0  0
  1  6  1  0
  2  1  2  0
  2  3  1  0
  3  4  2  0
  4  5  1  0
  5  8  1  0
  6  5  2  0
  7  8  2  0
  7 15  1  0
  8  9  1  0
  9 10  2  0
 10 14  1  0
 10 11  1  0
 11 12  1  0
 13 12  2  0
 14 13  1  0
 15 14  2  0
 16 17  1  0
 16  1  1  0
 18 19  1  0
 20 16  1  0
 20 19  2  0
 21 20  1  0
 22 21  2  0
 23 21  1  0
 23 24  1  0
 24 18  1  0
 25 24  2  0
  2 26  1  0
  3 27  1  0
  7 28  1  0
  9 29  1  0
 11 30  1  0
 12 31  1  0
 13 32  1  0
 15 33  1  0
 16 34  1  0
 17 35  1  0
 18 36  1  0
 19 37  1  0
 23 38  1  0
M  ISO  8  26  14  27  14  28  14  29  14  30   9  31  14  32  14  33  14
M  ISO  5  34   8  35   3  36   9  37  14  38   9
M  END
>  <minimizedAffinity>  (1) 
-6.69708014

>  <minimizedRMSD>  (1) 
2.11511302

$$$$
