
     RDKit          3D

 42 45  0  0  0  0  0  0  0  0999 V2000
   46.7190   35.0170   42.7280 C   0  0  0  0  0  0  0  0  0  0  0  0
   45.8280   36.0720   42.7200 C   0  0  0  0  0  0  0  0  0  0  0  0
   44.8750   36.1040   43.7270 C   0  0  0  0  0  0  0  0  0  0  0  0
   44.8620   35.1140   44.6570 N   0  0  0  0  0  0  0  0  0  0  0  0
   45.7550   34.1030   44.6220 C   0  0  0  0  0  0  0  0  0  0  0  0
   46.6920   34.0390   43.6620 N   0  0  0  0  0  0  0  0  0  0  0  0
   46.0250   31.7390   45.1960 C   0  0  0  0  0  0  0  0  0  0  0  0
   45.7350   33.0330   45.6330 C   0  0  0  0  0  0  0  0  0  0  0  0
   45.4470   33.2680   46.9580 C   0  0  0  0  0  0  0  0  0  0  0  0
   45.4480   32.2160   47.8500 C   0  0  0  0  0  0  0  0  0  0  0  0
   45.2150   32.1280   49.1600 N   0  0  0  0  0  0  0  0  0  0  0  0
   45.3410   30.8490   49.5780 C   0  0  0  0  0  0  0  0  0  0  0  0
   45.6690   30.0600   48.5080 C   0  0  0  0  0  0  0  0  0  0  0  0
   45.7350   30.9200   47.4300 C   0  0  0  0  0  0  0  0  0  0  0  0
   46.0250   30.6880   46.0920 C   0  0  0  0  0  0  0  0  0  0  0  0
   47.6990   35.0240   41.6550 C   0  0  0  0  0  0  0  0  0  0  0  0
   48.6800   35.8510   41.5890 O   0  0  0  0  0  0  0  0  0  0  0  0
   47.4830   33.9840   40.6150 C   0  0  0  0  0  0  0  0  0  0  0  0
   48.1830   34.4320   39.3260 C   0  0  0  0  0  0  0  0  0  0  0  0
   48.0130   33.4240   38.2370 C   0  0  0  0  0  0  0  0  0  0  0  0
   47.0410   32.3250   38.6070 C   0  0  0  0  0  0  0  0  0  0  0  0
   45.7650   32.8670   39.2160 C   0  0  0  0  0  0  0  0  0  0  0  0
   46.0150   33.8880   40.2800 C   0  0  0  0  0  0  0  0  0  0  0  0
   45.8723   36.8539   41.9476 H   0  0  0  0  0  0  0  0  0  0  0  0
   44.1392   36.9204   43.7720 H   0  0  0  0  0  0  0  0  0  0  0  0
   46.2540   31.5562   44.1357 H   0  0  0  0  0  0  0  0  0  0  0  0
   45.2178   34.2870   47.3031 H   0  0  0  0  0  0  0  0  0  0  0  0
   44.9729   32.9233   49.7681 H   0  0  0  0  0  0  0  0  0  0  0  0
   45.2024   30.4983   50.6113 H   0  0  0  0  0  0  0  0  0  0  0  0
   45.8427   28.9738   48.5075 H   0  0  0  0  0  0  0  0  0  0  0  0
   46.2543   29.6692   45.7464 H   0  0  0  0  0  0  0  0  0  0  0  0
   47.8670   33.0240   40.9904 H   0  0  0  0  0  0  0  0  0  0  0  0
   47.7518   35.3895   38.9984 H   0  0  0  0  0  0  0  0  0  0  0  0
   49.2577   34.5398   39.5343 H   0  0  0  0  0  0  0  0  0  0  0  0
   48.9916   32.9706   38.0209 H   0  0  0  0  0  0  0  0  0  0  0  0
   47.6053   33.9474   37.3596 H   0  0  0  0  0  0  0  0  0  0  0  0
   46.7866   31.7575   37.6996 H   0  0  0  0  0  0  0  0  0  0  0  0
   47.5269   31.6850   39.3582 H   0  0  0  0  0  0  0  0  0  0  0  0
   45.1651   33.3305   38.4189 H   0  0  0  0  0  0  0  0  0  0  0  0
   45.2394   32.0227   39.6861 H   0  0  0  0  0  0  0  0  0  0  0  0
   45.6637   34.8682   39.9253 H   0  0  0  0  0  0  0  0  0  0  0  0
   45.4716   33.5840   41.1868 H   0  0  0  0  0  0  0  0  0  0  0  0
  1  6  1  0
  2  1  2  0
  2  3  1  0
  3  4  2  0
  5  4  1  0
  5  8  1  0
  6  5  2  0
  7  8  2  0
  7 15  1  0
  8  9  1  0
  9 10  2  0
 10 11  1  0
 11 12  1  0
 13 12  2  0
 14 10  1  0
 14 13  1  0
 15 14  2  0
 16  1  1  0
 17 16  2  0
 18 16  1  0
 19 18  1  0
 20 21  1  0
 20 19  1  0
 21 22  1  0
 22 23  1  0
 23 18  1  0
  2 24  1  0
  3 25  1  0
  7 26  1  0
  9 27  1  0
 11 28  1  0
 12 29  1  0
 13 30  1  0
 15 31  1  0
 18 32  1  0
 19 33  1  0
 19 34  1  0
 20 35  1  0
 20 36  1  0
 21 37  1  0
 21 38  1  0
 22 39  1  0
 22 40  1  0
 23 41  1  0
 23 42  1  0
M  ISO  8  24  14  25  14  26  14  27  14  28   9  29  14  30  14  31  14
M  ISO  8  32  13  33  13  34  13  35  13  36  13  37  13  38  13  39  13
M  ISO  3  40  13  41  13  42  13
M  END
>  <minimizedAffinity>  (1) 
-6.25596237

>  <minimizedRMSD>  (1) 
0.428533614

$$$$
