
     RDKit          3D

 28 30  0  0  0  0  0  0  0  0999 V2000
   46.0510   31.7480   45.1600 C   0  0  0  0  0  0  0  0  0  0  0  0
   45.7570   33.0390   45.5620 C   0  0  0  0  0  0  0  0  0  0  0  0
   45.4680   33.2780   46.8870 C   0  0  0  0  0  0  0  0  0  0  0  0
   45.4790   32.2280   47.7840 C   0  0  0  0  0  0  0  0  0  0  0  0
   45.2400   32.1660   49.1120 N   0  0  0  0  0  0  0  0  0  0  0  0
   45.3760   30.8920   49.5440 C   0  0  0  0  0  0  0  0  0  0  0  0
   45.7100   30.1060   48.4730 C   0  0  0  0  0  0  0  0  0  0  0  0
   45.7750   30.9350   47.3760 C   0  0  0  0  0  0  0  0  0  0  0  0
   46.0630   30.6930   46.0550 C   0  0  0  0  0  0  0  0  0  0  0  0
   46.7120   35.0050   42.6470 C   0  0  0  0  0  0  0  0  0  0  0  0
   45.8150   36.0550   42.6370 C   0  0  0  0  0  0  0  0  0  0  0  0
   44.8640   36.0900   43.6500 C   0  0  0  0  0  0  0  0  0  0  0  0
   44.8690   35.1070   44.5770 N   0  0  0  0  0  0  0  0  0  0  0  0
   45.7670   34.0940   44.5500 C   0  0  0  0  0  0  0  0  0  0  0  0
   46.6980   34.0420   43.5760 N   0  0  0  0  0  0  0  0  0  0  0  0
   47.6800   35.0180   41.5700 C   0  0  0  0  0  0  0  0  0  0  0  0
   48.7860   35.6280   41.5660 O   0  0  0  0  0  0  0  0  0  0  0  0
   47.1350   34.2100   40.5270 N   0  0  0  0  0  0  0  0  0  0  0  0
   46.2811   31.5556   44.1017 H   0  0  0  0  0  0  0  0  0  0  0  0
   45.2304   34.2965   47.2280 H   0  0  0  0  0  0  0  0  0  0  0  0
   44.9913   32.9693   49.7068 H   0  0  0  0  0  0  0  0  0  0  0  0
   45.2413   30.5457   50.5793 H   0  0  0  0  0  0  0  0  0  0  0  0
   45.8914   29.0211   48.4869 H   0  0  0  0  0  0  0  0  0  0  0  0
   46.2999   29.6746   45.7134 H   0  0  0  0  0  0  0  0  0  0  0  0
   45.8517   36.8319   41.8591 H   0  0  0  0  0  0  0  0  0  0  0  0
   44.1226   36.9013   43.6961 H   0  0  0  0  0  0  0  0  0  0  0  0
   47.6606   34.0759   39.6514 H   0  0  0  0  0  0  0  0  0  0  0  0
   46.2162   33.7611   40.6500 H   0  0  0  0  0  0  0  0  0  0  0  0
  1  2  2  0
  1  9  1  0
  2  3  1  0
  3  4  2  0
  4  5  1  0
  5  6  1  0
  7  6  2  0
  8  4  1  0
  8  7  1  0
  9  8  2  0
 10 15  2  0
 11 10  1  0
 11 12  2  0
 12 13  1  0
 14 13  2  0
 14  2  1  0
 15 14  1  0
 16 10  1  0
 17 16  2  0
 18 16  1  0
  1 19  1  0
  3 20  1  0
  5 21  1  0
  6 22  1  0
  7 23  1  0
  9 24  1  0
 11 25  1  0
 12 26  1  0
 18 27  1  0
 18 28  1  0
M  ISO  8  19  14  20  14  21   9  22  14  23  14  24  14  25  14  26  14
M  END
>  <minimizedAffinity>  (1) 
-5.40692091

>  <minimizedRMSD>  (1) 
0.219579294

$$$$
