
     RDKit          3D

 30 32  0  0  0  0  0  0  0  0999 V2000
   46.1110   31.3410   44.9900 C   0  0  0  0  0  0  0  0  0  0  0  0
   46.1210   32.7310   45.0820 C   0  0  0  0  0  0  0  0  0  0  0  0
   45.9440   33.3040   46.3110 C   0  0  0  0  0  0  0  0  0  0  0  0
   45.7580   32.5180   47.4300 C   0  0  0  0  0  0  0  0  0  0  0  0
   45.5630   32.8000   48.7370 N   0  0  0  0  0  0  0  0  0  0  0  0
   45.4350   31.6630   49.4430 C   0  0  0  0  0  0  0  0  0  0  0  0
   45.5480   30.6030   48.5840 C   0  0  0  0  0  0  0  0  0  0  0  0
   45.7490   31.1420   47.3330 C   0  0  0  0  0  0  0  0  0  0  0  0
   45.9280   30.5430   46.0980 C   0  0  0  0  0  0  0  0  0  0  0  0
   47.7550   34.5870   42.4090 C   0  0  0  0  0  0  0  0  0  0  0  0
   46.7240   34.9340   41.5590 C   0  0  0  0  0  0  0  0  0  0  0  0
   45.4550   34.5220   41.9170 C   0  0  0  0  0  0  0  0  0  0  0  0
   45.2800   33.8120   43.0570 N   0  0  0  0  0  0  0  0  0  0  0  0
   46.3230   33.4960   43.8570 C   0  0  0  0  0  0  0  0  0  0  0  0
   47.5820   33.8820   43.5410 N   0  0  0  0  0  0  0  0  0  0  0  0
   49.0740   35.0390   41.9960 C   0  0  0  0  0  0  0  0  0  0  0  0
   50.1350   34.9510   42.6750 O   0  0  0  0  0  0  0  0  0  0  0  0
   48.9070   35.5900   40.6850 N   0  0  0  0  0  0  0  0  0  0  0  0
   44.3320   34.8610   41.0600 C   0  0  0  0  0  0  0  0  0  0  0  0
   43.5280   35.7760   41.3750 O   0  0  0  0  0  0  0  0  0  0  0  0
   46.2529   30.8682   44.0070 H   0  0  0  0  0  0  0  0  0  0  0  0
   45.9499   34.3997   46.4084 H   0  0  0  0  0  0  0  0  0  0  0  0
   45.5188   33.7490   49.1350 H   0  0  0  0  0  0  0  0  0  0  0  0
   45.2677   31.5958   50.5281 H   0  0  0  0  0  0  0  0  0  0  0  0
   45.4899   29.5351   48.8415 H   0  0  0  0  0  0  0  0  0  0  0  0
   45.9242   29.4471   46.0028 H   0  0  0  0  0  0  0  0  0  0  0  0
   46.9045   35.5112   40.6402 H   0  0  0  0  0  0  0  0  0  0  0  0
   49.7178   35.9787   40.1826 H   0  0  0  0  0  0  0  0  0  0  0  0
   47.9761   35.5976   40.2443 H   0  0  0  0  0  0  0  0  0  0  0  0
   44.1822   34.3088   40.1205 H   0  0  0  0  0  0  0  0  0  0  0  0
  1  2  2  0
  1  9  1  0
  2  3  1  0
  3  4  2  0
  4  5  1  0
  5  6  1  0
  7  6  2  0
  8  4  1  0
  8  7  1  0
  9  8  2  0
 10 15  2  0
 11 12  2  0
 11 10  1  0
 12 13  1  0
 13 14  2  0
 14  2  1  0
 15 14  1  0
 16 10  1  0
 16 17  2  0
 18 16  1  0
 19 20  2  0
 19 12  1  0
  1 21  1  0
  3 22  1  0
  5 23  1  0
  6 24  1  0
  7 25  1  0
  9 26  1  0
 11 27  1  0
 18 28  1  0
 18 29  1  0
 19 30  1  0
M  ISO  8  21  14  22  14  23   9  24  14  25  14  26  14  27  14  30   6
M  END
>  <minimizedAffinity>  (1) 
-6.21308517

>  <minimizedRMSD>  (1) 
1.5655688

$$$$
