
     RDKit          3D

 32 34  0  0  0  0  0  0  0  0999 V2000
   47.9020   34.7750   42.3760 C   0  0  0  0  0  0  0  0  0  0  0  0
   46.9870   34.8630   41.3590 C   0  0  0  0  0  0  0  0  0  0  0  0
   45.7740   34.2170   41.5510 C   0  0  0  0  0  0  0  0  0  0  0  0
   45.5580   33.5510   42.6970 N   0  0  0  0  0  0  0  0  0  0  0  0
   46.4950   33.4870   43.6840 C   0  0  0  0  0  0  0  0  0  0  0  0
   47.6750   34.1070   43.5130 N   0  0  0  0  0  0  0  0  0  0  0  0
   46.1810   31.3670   44.8270 C   0  0  0  0  0  0  0  0  0  0  0  0
   46.2320   32.7550   44.9170 C   0  0  0  0  0  0  0  0  0  0  0  0
   46.0390   33.3590   46.1280 C   0  0  0  0  0  0  0  0  0  0  0  0
   45.7960   32.5670   47.2410 C   0  0  0  0  0  0  0  0  0  0  0  0
   45.5720   32.8820   48.5370 N   0  0  0  0  0  0  0  0  0  0  0  0
   45.3830   31.7690   49.2640 C   0  0  0  0  0  0  0  0  0  0  0  0
   45.4870   30.7070   48.4200 C   0  0  0  0  0  0  0  0  0  0  0  0
   45.7420   31.1920   47.1650 C   0  0  0  0  0  0  0  0  0  0  0  0
   45.9370   30.5820   45.9420 C   0  0  0  0  0  0  0  0  0  0  0  0
   49.1560   35.4600   42.1410 C   0  0  0  0  0  0  0  0  0  0  0  0
   49.3710   36.3570   41.2770 O   0  0  0  0  0  0  0  0  0  0  0  0
   50.0940   34.9240   43.0780 N   0  0  0  0  0  0  0  0  0  0  0  0
   43.7250   35.2040   40.8960 C   0  0  0  0  0  0  0  0  0  0  0  0
   43.9280   35.8830   41.9600 O   0  0  0  0  0  0  0  0  0  0  0  0
   44.7310   34.2240   40.5810 N   0  0  0  0  0  0  0  0  0  0  0  0
   47.2040   35.4191   40.4350 H   0  0  0  0  0  0  0  0  0  0  0  0
   46.3375   30.8839   43.8513 H   0  0  0  0  0  0  0  0  0  0  0  0
   46.0757   34.4546   46.2186 H   0  0  0  0  0  0  0  0  0  0  0  0
   45.5495   33.8405   48.9133 H   0  0  0  0  0  0  0  0  0  0  0  0
   45.1810   31.7241   50.3444 H   0  0  0  0  0  0  0  0  0  0  0  0
   45.3845   29.6473   48.6965 H   0  0  0  0  0  0  0  0  0  0  0  0
   45.8991   29.4862   45.8540 H   0  0  0  0  0  0  0  0  0  0  0  0
   51.0640   35.2703   43.0911 H   0  0  0  0  0  0  0  0  0  0  0  0
   49.7996   34.1917   43.7398 H   0  0  0  0  0  0  0  0  0  0  0  0
   42.8392   35.3587   40.2625 H   0  0  0  0  0  0  0  0  0  0  0  0
   44.7005   33.6056   39.7578 H   0  0  0  0  0  0  0  0  0  0  0  0
  1  6  2  0
  2  3  2  0
  2  1  1  0
  3  4  1  0
  4  5  2  0
  5  8  1  0
  6  5  1  0
  7  8  2  0
  7 15  1  0
  8  9  1  0
  9 10  2  0
 10 11  1  0
 11 12  1  0
 13 12  2  0
 14 10  1  0
 14 13  1  0
 15 14  2  0
 16  1  1  0
 16 18  1  0
 17 16  2  0
 19 20  2  0
 21 19  1  0
 21  3  1  0
  2 22  1  0
  7 23  1  0
  9 24  1  0
 11 25  1  0
 12 26  1  0
 13 27  1  0
 15 28  1  0
 18 29  1  0
 18 30  1  0
 19 31  1  0
 21 32  1  0
M  ISO  8  22  14  23  14  24  14  25   9  26  14  27  14  28  14  31   6
M  END
>  <minimizedAffinity>  (1) 
-6.8004446

>  <minimizedRMSD>  (1) 
2.03666329

$$$$
