
     RDKit          3D

 31 33  0  0  0  0  0  0  0  0999 V2000
   46.0300   31.2970   45.1520 C   0  0  0  0  0  0  0  0  0  0  0  0
   46.0320   32.6630   45.3700 C   0  0  0  0  0  0  0  0  0  0  0  0
   45.8150   33.1340   46.6380 C   0  0  0  0  0  0  0  0  0  0  0  0
   45.6000   32.2380   47.6720 C   0  0  0  0  0  0  0  0  0  0  0  0
   45.3660   32.4120   48.9820 N   0  0  0  0  0  0  0  0  0  0  0  0
   45.2180   31.2300   49.6000 C   0  0  0  0  0  0  0  0  0  0  0  0
   45.3630   30.2450   48.6420 C   0  0  0  0  0  0  0  0  0  0  0  0
   45.6000   30.8730   47.4500 C   0  0  0  0  0  0  0  0  0  0  0  0
   45.8170   30.4040   46.1780 C   0  0  0  0  0  0  0  0  0  0  0  0
   47.7180   34.4550   42.6880 C   0  0  0  0  0  0  0  0  0  0  0  0
   46.7180   35.1790   42.0680 C   0  0  0  0  0  0  0  0  0  0  0  0
   45.4380   35.0460   42.5860 C   0  0  0  0  0  0  0  0  0  0  0  0
   45.2410   34.2320   43.6460 N   0  0  0  0  0  0  0  0  0  0  0  0
   46.2650   33.5390   44.2220 C   0  0  0  0  0  0  0  0  0  0  0  0
   47.5070   33.6530   43.7380 N   0  0  0  0  0  0  0  0  0  0  0  0
   49.0360   34.6290   42.1100 C   0  0  0  0  0  0  0  0  0  0  0  0
   50.0450   35.1220   42.6920 O   0  0  0  0  0  0  0  0  0  0  0  0
   48.9500   34.1310   40.7650 N   0  0  0  0  0  0  0  0  0  0  0  0
   44.2970   35.7860   41.9820 C   0  0  0  0  0  0  0  0  0  0  0  0
   46.2027   30.9152   44.1349 H   0  0  0  0  0  0  0  0  0  0  0  0
   45.8115   34.2165   46.8336 H   0  0  0  0  0  0  0  0  0  0  0  0
   45.3079   33.3280   49.4494 H   0  0  0  0  0  0  0  0  0  0  0  0
   45.0183   31.0743   50.6705 H   0  0  0  0  0  0  0  0  0  0  0  0
   45.2997   29.1593   48.8069 H   0  0  0  0  0  0  0  0  0  0  0  0
   45.8207   29.3220   45.9800 H   0  0  0  0  0  0  0  0  0  0  0  0
   46.9266   35.8292   41.2056 H   0  0  0  0  0  0  0  0  0  0  0  0
   49.7787   34.1531   40.1537 H   0  0  0  0  0  0  0  0  0  0  0  0
   48.0597   33.7519   40.4122 H   0  0  0  0  0  0  0  0  0  0  0  0
   43.6627   36.1974   42.7810 H   0  0  0  0  0  0  0  0  0  0  0  0
   44.6812   36.6074   41.3593 H   0  0  0  0  0  0  0  0  0  0  0  0
   43.7037   35.1003   41.3593 H   0  0  0  0  0  0  0  0  0  0  0  0
  1  2  2  0
  1  9  1  0
  2  3  1  0
  3  4  2  0
  4  5  1  0
  5  6  1  0
  7  6  2  0
  8  4  1  0
  8  7  1  0
  9  8  2  0
 10 15  2  0
 11 12  2  0
 11 10  1  0
 12 13  1  0
 13 14  2  0
 14  2  1  0
 15 14  1  0
 16 10  1  0
 16 17  2  0
 18 16  1  0
 19 12  1  0
  1 20  1  0
  3 21  1  0
  5 22  1  0
  6 23  1  0
  7 24  1  0
  9 25  1  0
 11 26  1  0
 18 27  1  0
 18 28  1  0
 19 29  1  0
 19 30  1  0
 19 31  1  0
M  ISO  8  20  14  21  14  22   9  23  14  24  14  25  14  26  14  29   8
M  ISO  2  30   8  31   8
M  END
>  <minimizedAffinity>  (1) 
-6.00231028

>  <minimizedRMSD>  (1) 
1.13035393

$$$$
