
     RDKit          3D

 34 36  0  0  0  0  0  0  0  0999 V2000
   48.1760   33.9000   42.8670 C   0  0  0  0  0  0  0  0  0  0  0  0
   47.0130   34.6270   43.0890 C   0  0  0  0  0  0  0  0  0  0  0  0
   46.0460   34.0520   43.9090 C   0  0  0  0  0  0  0  0  0  0  0  0
   46.3000   32.8350   44.4300 N   0  0  0  0  0  0  0  0  0  0  0  0
   47.4510   32.1560   44.1880 C   0  0  0  0  0  0  0  0  0  0  0  0
   48.4030   32.6940   43.3960 N   0  0  0  0  0  0  0  0  0  0  0  0
   48.3560   29.8980   44.0040 C   0  0  0  0  0  0  0  0  0  0  0  0
   47.6900   30.8420   44.7700 C   0  0  0  0  0  0  0  0  0  0  0  0
   47.2910   30.4890   46.0310 C   0  0  0  0  0  0  0  0  0  0  0  0
   47.5570   29.2250   46.5020 C   0  0  0  0  0  0  0  0  0  0  0  0
   47.2820   28.6220   47.6910 N   0  0  0  0  0  0  0  0  0  0  0  0
   47.7450   27.3610   47.6890 C   0  0  0  0  0  0  0  0  0  0  0  0
   48.3420   27.1260   46.4680 C   0  0  0  0  0  0  0  0  0  0  0  0
   48.2210   28.2950   45.7320 C   0  0  0  0  0  0  0  0  0  0  0  0
   48.6250   28.6300   44.4730 C   0  0  0  0  0  0  0  0  0  0  0  0
   49.1410   34.5500   42.0060 C   0  0  0  0  0  0  0  0  0  0  0  0
   49.7710   35.6140   42.2580 O   0  0  0  0  0  0  0  0  0  0  0  0
   49.2350   33.7490   40.8290 N   0  0  0  0  0  0  0  0  0  0  0  0
   44.8850   34.7260   44.1600 O   0  0  0  0  0  0  0  0  0  0  0  0
   44.5700   35.0790   41.5630 O   0  0  0  0  0  0  0  0  0  0  0  0
   44.1650   35.6340   42.9030 P   0  0  0  0  0  0  0  0  0  0  0  0
   42.4820   35.6570   43.0370 O   0  0  0  0  0  0  0  0  0  0  0  0
   44.8000   37.2110   43.0470 O   0  0  0  0  0  0  0  0  0  0  0  0
   46.8623   35.6175   42.6349 H   0  0  0  0  0  0  0  0  0  0  0  0
   48.6805   30.1696   42.9886 H   0  0  0  0  0  0  0  0  0  0  0  0
   46.7596   31.2139   46.6651 H   0  0  0  0  0  0  0  0  0  0  0  0
   46.7901   29.0681   48.4783 H   0  0  0  0  0  0  0  0  0  0  0  0
   47.6624   26.6413   48.5168 H   0  0  0  0  0  0  0  0  0  0  0  0
   48.8216   26.1916   46.1411 H   0  0  0  0  0  0  0  0  0  0  0  0
   49.1561   27.9012   43.8431 H   0  0  0  0  0  0  0  0  0  0  0  0
   48.6649   32.8958   40.7398 H   0  0  0  0  0  0  0  0  0  0  0  0
   49.8730   34.0239   40.0685 H   0  0  0  0  0  0  0  0  0  0  0  0
   42.2271   35.6605   43.9936 H   0  0  0  0  0  0  0  0  0  0  0  0
   44.8934   37.4429   44.0049 H   0  0  0  0  0  0  0  0  0  0  0  0
  1  2  2  0
  1  6  1  0
  2  3  1  0
  3 19  1  0
  3  4  2  0
  5  4  1  0
  5  8  1  0
  6  5  2  0
  7 15  2  0
  7  8  1  0
  8  9  2  0
  9 10  1  0
 10 11  1  0
 12 11  1  0
 13 12  2  0
 14 13  1  0
 14 10  2  0
 15 14  1  0
 16 17  2  0
 16  1  1  0
 18 16  1  0
 20 21  2  0
 21 22  1  0
 21 23  1  0
 21 19  1  0
  2 24  1  0
  7 25  1  0
  9 26  1  0
 11 27  1  0
 12 28  1  0
 13 29  1  0
 15 30  1  0
 18 31  1  0
 18 32  1  0
 22 33  1  0
 23 34  1  0
M  ISO  8  24  14  25  14  26  14  27   9  28  14  29  14  30  14  33   3
M  ISO  1  34   3
M  END
>  <minimizedAffinity>  (1) 
-5.02139235

>  <minimizedRMSD>  (1) 
3.01748037

$$$$
