
     RDKit          3D

 29 31  0  0  0  0  0  0  0  0999 V2000
   46.0670   31.4200   45.1220 C   0  0  0  0  0  0  0  0  0  0  0  0
   46.0230   32.7780   45.4250 C   0  0  0  0  0  0  0  0  0  0  0  0
   45.7620   33.1690   46.7190 C   0  0  0  0  0  0  0  0  0  0  0  0
   45.5500   32.1970   47.6810 C   0  0  0  0  0  0  0  0  0  0  0  0
   45.2780   32.2690   49.0040 N   0  0  0  0  0  0  0  0  0  0  0  0
   45.1520   31.0400   49.5280 C   0  0  0  0  0  0  0  0  0  0  0  0
   45.3480   30.1210   48.5190 C   0  0  0  0  0  0  0  0  0  0  0  0
   45.5930   30.8360   47.3750 C   0  0  0  0  0  0  0  0  0  0  0  0
   45.8550   30.4560   46.0810 C   0  0  0  0  0  0  0  0  0  0  0  0
   47.6890   34.6300   42.7650 C   0  0  0  0  0  0  0  0  0  0  0  0
   46.7130   35.5020   42.3020 C   0  0  0  0  0  0  0  0  0  0  0  0
   45.4760   35.4490   42.9130 C   0  0  0  0  0  0  0  0  0  0  0  0
   45.2880   34.5600   43.9150 N   0  0  0  0  0  0  0  0  0  0  0  0
   46.2600   33.7250   44.3410 C   0  0  0  0  0  0  0  0  0  0  0  0
   47.4760   33.7550   43.7640 N   0  0  0  0  0  0  0  0  0  0  0  0
   48.9650   34.7200   42.0980 C   0  0  0  0  0  0  0  0  0  0  0  0
   50.0700   34.3140   42.5270 O   0  0  0  0  0  0  0  0  0  0  0  0
   48.7390   35.3590   40.8540 N   0  0  0  0  0  0  0  0  0  0  0  0
   44.4800   36.3140   42.4670 O   0  0  0  0  0  0  0  0  0  0  0  0
   46.2769   31.1090   44.0880 H   0  0  0  0  0  0  0  0  0  0  0  0
   45.7226   34.2359   46.9838 H   0  0  0  0  0  0  0  0  0  0  0  0
   45.1810   33.1458   49.5357 H   0  0  0  0  0  0  0  0  0  0  0  0
   44.9308   30.8063   50.5799 H   0  0  0  0  0  0  0  0  0  0  0  0
   45.3143   29.0256   48.6136 H   0  0  0  0  0  0  0  0  0  0  0  0
   45.8950   29.3897   45.8136 H   0  0  0  0  0  0  0  0  0  0  0  0
   46.9168   36.2063   41.4820 H   0  0  0  0  0  0  0  0  0  0  0  0
   47.7880   35.6564   40.5930 H   0  0  0  0  0  0  0  0  0  0  0  0
   49.5257   35.5262   40.2105 H   0  0  0  0  0  0  0  0  0  0  0  0
   43.5841   36.2964   42.8880 H   0  0  0  0  0  0  0  0  0  0  0  0
  1  2  2  0
  1  9  1  0
  2  3  1  0
  3  4  2  0
  4  5  1  0
  5  6  1  0
  7  6  2  0
  8  4  1  0
  8  7  1  0
  9  8  2  0
 10 15  2  0
 11 10  1  0
 11 12  2  0
 12 13  1  0
 13 14  2  0
 14  2  1  0
 15 14  1  0
 16 17  2  0
 16 10  1  0
 18 16  1  0
 19 12  1  0
  1 20  1  0
  3 21  1  0
  5 22  1  0
  6 23  1  0
  7 24  1  0
  9 25  1  0
 11 26  1  0
 18 27  1  0
 18 28  1  0
 19 29  1  0
M  ISO  8  20  14  21  14  22   9  23  14  24  14  25  14  26  14  29   3
M  END
>  <minimizedAffinity>  (1) 
-6.15016365

>  <minimizedRMSD>  (1) 
1.00356293

$$$$
