
     RDKit          3D

 20 21  0  0  0  0  0  0  0  0999 V2000
   45.6350   32.2030   48.4700 C   0  0  0  0  0  0  0  0  0  0  0  0
   45.3510   33.1560   47.4840 C   0  0  0  0  0  0  0  0  0  0  0  0
   46.0380   33.0310   46.2610 C   0  0  0  0  0  0  0  0  0  0  0  0
   46.9140   32.0220   46.1040 N   0  0  0  0  0  0  0  0  0  0  0  0
   47.1610   31.1210   47.0820 C   0  0  0  0  0  0  0  0  0  0  0  0
   46.5200   31.2170   48.2590 N   0  0  0  0  0  0  0  0  0  0  0  0
   45.7600   34.0110   45.2160 C   0  0  0  0  0  0  0  0  0  0  0  0
   46.4500   33.9280   44.0170 C   0  0  0  0  0  0  0  0  0  0  0  0
   46.1430   34.8860   43.0630 C   0  0  0  0  0  0  0  0  0  0  0  0
   45.1870   35.8510   43.3480 C   0  0  0  0  0  0  0  0  0  0  0  0
   44.5160   35.8940   44.5720 C   0  0  0  0  0  0  0  0  0  0  0  0
   44.8370   34.9410   45.4920 N   0  0  0  0  0  0  0  0  0  0  0  0
   44.4520   34.1940   47.6400 O   0  0  0  0  0  0  0  0  0  0  0  0
   45.1204   32.2643   49.4403 H   0  0  0  0  0  0  0  0  0  0  0  0
   47.8857   30.3107   46.9141 H   0  0  0  0  0  0  0  0  0  0  0  0
   47.2001   33.1449   43.8324 H   0  0  0  0  0  0  0  0  0  0  0  0
   46.6529   34.8813   42.0883 H   0  0  0  0  0  0  0  0  0  0  0  0
   44.9501   36.6068   42.5847 H   0  0  0  0  0  0  0  0  0  0  0  0
   43.7603   36.6645   44.7846 H   0  0  0  0  0  0  0  0  0  0  0  0
   44.3000   34.8328   46.8991 H   0  0  0  0  0  0  0  0  0  0  0  0
  2 13  1  0
  2  1  2  0
  3  2  1  0
  4  3  2  0
  4  5  1  0
  5  6  2  0
  6  1  1  0
  7 12  1  0
  7  3  1  0
  8  7  2  0
  9 10  2  0
  9  8  1  0
 10 11  1  0
 11 12  2  0
  1 14  1  0
  5 15  1  0
  8 16  1  0
  9 17  1  0
 10 18  1  0
 11 19  1  0
 13 20  1  0
M  ISO  7  14  14  15  14  16  14  17  14  18  14  19  14  20   3
M  END
>  <minimizedAffinity>  (1) 
-5.27579927

>  <minimizedRMSD>  (1) 
4.29260206

$$$$
