
     RDKit          3D

 24 25  0  0  1  0  0  0  0  0999 V2000
   45.9660   34.3840   43.8260 C   0  0  0  0  0  0  0  0  0  0  0  0
   46.4480   33.3750   44.6890 C   0  0  0  0  0  0  0  0  0  0  0  0
   45.9640   33.3550   45.9950 C   0  0  0  0  0  0  0  0  0  0  0  0
   45.0640   34.2870   46.3840 N   0  0  0  0  0  0  0  0  0  0  0  0
   44.6150   35.2530   45.5260 C   0  0  0  0  0  0  0  0  0  0  0  0
   45.0770   35.2830   44.2570 N   0  0  0  0  0  0  0  0  0  0  0  0
   45.6460   32.4010   48.2580 C   0  0  2  0  0  0  0  0  0  0  0  0
   46.4240   32.3300   46.9520 C   0  0  1  0  0  0  0  0  0  0  0  0
   46.1510   31.0420   46.5520 O   0  0  0  0  0  0  0  0  0  0  0  0
   46.3950   30.2670   47.6760 C   0  0  0  0  0  0  0  0  0  0  0  0
   46.1550   31.1190   48.8950 C   0  0  1  0  0  0  0  0  0  0  0  0
   44.2820   32.3270   48.0850 O   0  0  0  0  0  0  0  0  0  0  0  0
   47.3690   31.4300   49.5080 O   0  0  0  0  0  0  0  0  0  0  0  0
   47.3690   32.4130   44.3070 O   0  0  0  0  0  0  0  0  0  0  0  0
   46.3266   34.4299   42.7878 H   0  0  0  0  0  0  0  0  0  0  0  0
   43.8830   36.0000   45.8669 H   0  0  0  0  0  0  0  0  0  0  0  0
   45.7891   33.3371   48.8177 H   0  0  0  0  0  0  0  0  0  0  0  0
   47.5013   32.5355   47.0374 H   0  0  0  0  0  0  0  0  0  0  0  0
   45.7158   29.4018   47.6866 H   0  0  0  0  0  0  0  0  0  0  0  0
   47.4317   29.8994   47.6669 H   0  0  0  0  0  0  0  0  0  0  0  0
   45.4990   30.6456   49.6403 H   0  0  0  0  0  0  0  0  0  0  0  0
   43.8380   32.3029   48.9695 H   0  0  0  0  0  0  0  0  0  0  0  0
   47.2589   31.4018   50.4915 H   0  0  0  0  0  0  0  0  0  0  0  0
   47.6700   31.7300   44.9574 H   0  0  0  0  0  0  0  0  0  0  0  0
  1  6  2  0
  1  2  1  0
  2  3  2  0
  3  4  1  0
  5  4  2  0
  6  5  1  0
  7 12  1  0
  7 11  1  0
  8  3  1  0
  8  7  1  0
  9  8  1  0
  9 10  1  0
 10 11  1  0
 11 13  1  0
 14  2  1  0
  1 15  1  0
  5 16  1  0
  7 17  1  1
  8 18  1  1
 10 19  1  0
 10 20  1  0
 11 21  1  1
 12 22  1  0
 13 23  1  0
 14 24  1  0
M  ISO  8  15  14  16  14  17  13  18  13  19  13  20  13  21  13  22   3
M  ISO  2  23   3  24   3
M  END
>  <minimizedAffinity>  (1) 
-5.05080748

>  <minimizedRMSD>  (1) 
6.33763313

$$$$
