
     RDKit          3D

 36 40  0  0  1  0  0  0  0  0999 V2000
   45.8470   32.6930   38.1130 C   0  0  1  0  0  0  0  0  0  0  0  0
   46.5290   33.6440   37.6890 O   0  0  0  0  0  0  0  0  0  0  0  0
   47.0190   33.0570   38.9120 C   0  0  2  0  0  0  0  0  0  0  0  0
   48.0300   31.9160   39.0060 C   0  0  0  0  0  0  0  0  0  0  0  0
   47.4740   32.5340   40.1810 C   0  0  1  0  0  0  0  0  0  0  0  0
   49.5070   31.7700   42.0590 F   0  0  0  0  0  0  0  0  0  0  0  0
   49.3430   33.0900   41.8820 C   0  0  0  0  0  0  0  0  0  0  0  0
   48.3630   33.4470   40.9830 C   0  0  0  0  0  0  0  0  0  0  0  0
   48.1800   34.8200   40.7910 C   0  0  0  0  0  0  0  0  0  0  0  0
   48.9320   35.7660   41.4590 C   0  0  0  0  0  0  0  0  0  0  0  0
   49.9040   35.3720   42.3530 C   0  0  0  0  0  0  0  0  0  0  0  0
   50.0900   34.0230   42.5470 C   0  0  0  0  0  0  0  0  0  0  0  0
   43.3160   32.9520   38.5410 C   0  0  1  0  0  0  0  0  0  0  0  0
   44.4370   32.6960   37.6830 C   0  0  2  0  0  0  0  0  0  0  0  0
   43.6570   31.5690   38.2470 C   0  0  0  0  0  0  0  0  0  0  0  0
   43.3790   34.9170   39.9710 C   0  0  0  0  0  0  0  0  0  0  0  0
   43.5460   33.5430   39.8650 C   0  0  0  0  0  0  0  0  0  0  0  0
   43.8600   32.7740   40.9840 C   0  0  0  0  0  0  0  0  0  0  0  0
   43.9870   33.4570   42.1740 N   0  0  0  0  0  0  0  0  0  0  0  0
   43.8240   34.7800   42.2700 C   0  0  0  0  0  0  0  0  0  0  0  0
   43.5170   35.5210   41.1570 N   0  0  0  0  0  0  0  0  0  0  0  0
   45.4521   31.6701   38.2004 H   0  0  0  0  0  0  0  0  0  0  0  0
   47.7390   30.8925   38.7270 H   0  0  0  0  0  0  0  0  0  0  0  0
   49.0423   31.7263   38.6195 H   0  0  0  0  0  0  0  0  0  0  0  0
   46.9687   32.1228   41.0674 H   0  0  0  0  0  0  0  0  0  0  0  0
   47.4095   35.1585   40.0826 H   0  0  0  0  0  0  0  0  0  0  0  0
   48.7549   36.8363   41.2772 H   0  0  0  0  0  0  0  0  0  0  0  0
   50.5115   36.1124   42.8940 H   0  0  0  0  0  0  0  0  0  0  0  0
   50.8603   33.6855   43.2561 H   0  0  0  0  0  0  0  0  0  0  0  0
   42.3836   33.5300   38.4601 H   0  0  0  0  0  0  0  0  0  0  0  0
   44.7049   33.1416   36.7137 H   0  0  0  0  0  0  0  0  0  0  0  0
   43.0076   30.9643   37.5969 H   0  0  0  0  0  0  0  0  0  0  0  0
   43.8874   30.6723   38.8410 H   0  0  0  0  0  0  0  0  0  0  0  0
   43.1327   35.5105   39.0782 H   0  0  0  0  0  0  0  0  0  0  0  0
   43.9985   31.6846   40.9209 H   0  0  0  0  0  0  0  0  0  0  0  0
   43.9364   35.2766   43.2451 H   0  0  0  0  0  0  0  0  0  0  0  0
  1  3  1  0
  2  1  1  0
  3  2  1  1
  3  4  1  0
  3  5  1  0
  4  5  1  0
  5  8  1  0
  7  6  1  0
  7 12  2  0
  8  7  1  0
  9  8  2  0
  9 10  1  0
 10 11  2  0
 11 12  1  0
 13 17  1  0
 14  1  1  0
 14 15  1  0
 14 13  1  0
 15 13  1  0
 16 21  2  0
 17 16  1  0
 17 18  2  0
 18 19  1  0
 19 20  2  0
 21 20  1  0
  1 22  1  6
  4 23  1  0
  4 24  1  0
  5 25  1  1
  9 26  1  0
 10 27  1  0
 11 28  1  0
 12 29  1  0
 13 30  1  6
 14 31  1  6
 15 32  1  0
 15 33  1  0
 16 34  1  0
 18 35  1  0
 20 36  1  0
M  ISO  8  22  13  23  13  24  13  25  13  26  14  27  14  28  14  29  14
M  ISO  7  30  13  31  13  32  13  33  13  34  14  35  14  36  14
M  END
>  <minimizedAffinity>  (1) 
-4.79583406

>  <minimizedRMSD>  (1) 
3.64672065

$$$$
