
     RDKit          3D

 12 12  0  0  0  0  0  0  0  0999 V2000
   44.5200   35.6280   45.1220 C   0  0  0  0  0  0  0  0  0  0  0  0
   45.0210   35.8540   43.8200 C   0  0  0  0  0  0  0  0  0  0  0  0
   45.9560   34.9380   43.3580 C   0  0  0  0  0  0  0  0  0  0  0  0
   46.3450   33.9000   44.1300 N   0  0  0  0  0  0  0  0  0  0  0  0
   45.8370   33.7230   45.3750 C   0  0  0  0  0  0  0  0  0  0  0  0
   44.9200   34.5990   45.8610 N   0  0  0  0  0  0  0  0  0  0  0  0
   44.6410   36.9040   43.0140 O   0  0  0  0  0  0  0  0  0  0  0  0
   46.5050   35.0880   42.0780 O   0  0  0  0  0  0  0  0  0  0  0  0
   43.7765   36.3250   45.5360 H   0  0  0  0  0  0  0  0  0  0  0  0
   46.1668   32.8723   45.9894 H   0  0  0  0  0  0  0  0  0  0  0  0
   45.0336   37.0017   42.1104 H   0  0  0  0  0  0  0  0  0  0  0  0
   47.1721   34.4361   41.7460 H   0  0  0  0  0  0  0  0  0  0  0  0
  1  6  2  0
  2  1  1  0
  3  2  2  0
  3  4  1  0
  4  5  2  0
  5  6  1  0
  7  2  1  0
  8  3  1  0
  1  9  1  0
  5 10  1  0
  7 11  1  0
  8 12  1  0
M  ISO  4   9  14  10  14  11   3  12   3
M  END
>  <minimizedAffinity>  (1) 
-3.34757495

>  <minimizedRMSD>  (1) 
0.11173702

$$$$
