
     RDKit          3D

 14 14  0  0  0  0  0  0  0  0999 V2000
   44.5270   35.5970   45.0980 C   0  0  0  0  0  0  0  0  0  0  0  0
   45.0590   35.7590   43.8130 C   0  0  0  0  0  0  0  0  0  0  0  0
   46.0080   34.8270   43.4100 C   0  0  0  0  0  0  0  0  0  0  0  0
   46.3740   33.8220   44.2540 N   0  0  0  0  0  0  0  0  0  0  0  0
   45.8330   33.7070   45.4860 C   0  0  0  0  0  0  0  0  0  0  0  0
   44.8990   34.6050   45.9120 N   0  0  0  0  0  0  0  0  0  0  0  0
   44.7040   36.7650   42.9470 O   0  0  0  0  0  0  0  0  0  0  0  0
   46.5940   34.9680   42.0510 C   0  0  0  0  0  0  0  0  0  0  0  0
   43.7726   36.3152   45.4515 H   0  0  0  0  0  0  0  0  0  0  0  0
   46.1466   32.8864   46.1481 H   0  0  0  0  0  0  0  0  0  0  0  0
   45.1226   36.8178   42.0514 H   0  0  0  0  0  0  0  0  0  0  0  0
   47.6603   35.2246   42.1363 H   0  0  0  0  0  0  0  0  0  0  0  0
   46.4878   34.0187   41.5056 H   0  0  0  0  0  0  0  0  0  0  0  0
   46.0676   35.7651   41.5056 H   0  0  0  0  0  0  0  0  0  0  0  0
  1  6  2  0
  2  1  1  0
  3  2  2  0
  3  4  1  0
  4  5  2  0
  5  6  1  0
  7  2  1  0
  8  3  1  0
  1  9  1  0
  5 10  1  0
  7 11  1  0
  8 12  1  0
  8 13  1  0
  8 14  1  0
M  ISO  6   9  14  10  14  11   3  12   8  13   8  14   8
M  END
>  <minimizedAffinity>  (1) 
-3.43037462

>  <minimizedRMSD>  (1) 
0.223772198

$$$$
