
     RDKit          3D

 18 18  0  0  0  0  0  0  0  0999 V2000
   45.0500   35.8640   43.8590 C   0  0  0  0  0  0  0  0  0  0  0  0
   45.9820   34.9000   43.4400 C   0  0  0  0  0  0  0  0  0  0  0  0
   46.2570   33.8600   44.3410 C   0  0  0  0  0  0  0  0  0  0  0  0
   45.6280   33.8340   45.5390 N   0  0  0  0  0  0  0  0  0  0  0  0
   44.7460   34.7830   45.8870 C   0  0  0  0  0  0  0  0  0  0  0  0
   44.4610   35.7890   45.0490 N   0  0  0  0  0  0  0  0  0  0  0  0
   44.7770   36.8810   42.9840 O   0  0  0  0  0  0  0  0  0  0  0  0
   46.6410   34.9580   42.1400 C   0  0  0  0  0  0  0  0  0  0  0  0
   47.9360   35.1690   41.9630 C   0  0  0  0  0  0  0  0  0  0  0  0
   48.5290   35.2140   40.6000 C   0  0  0  0  0  0  0  0  0  0  0  0
   46.9778   33.0725   44.0758 H   0  0  0  0  0  0  0  0  0  0  0  0
   44.2524   34.7349   46.8689 H   0  0  0  0  0  0  0  0  0  0  0  0
   45.2302   36.9122   42.1044 H   0  0  0  0  0  0  0  0  0  0  0  0
   46.0186   34.8166   41.2441 H   0  0  0  0  0  0  0  0  0  0  0  0
   48.5847   35.3136   42.8395 H   0  0  0  0  0  0  0  0  0  0  0  0
   49.6230   35.2970   40.6787 H   0  0  0  0  0  0  0  0  0  0  0  0
   48.2693   34.2936   40.0566 H   0  0  0  0  0  0  0  0  0  0  0  0
   48.1333   36.0847   40.0566 H   0  0  0  0  0  0  0  0  0  0  0  0
  1  6  2  0
  2  1  1  0
  2  3  2  0
  3  4  1  0
  4  5  2  0
  6  5  1  0
  7  1  1  0
  8  2  1  0
  9  8  2  0
 10  9  1  0
  3 11  1  0
  5 12  1  0
  7 13  1  0
  8 14  1  0
  9 15  1  0
 10 16  1  0
 10 17  1  0
 10 18  1  0
M  ISO  6  11  14  12  14  13   3  16   8  17   8  18   8
M  END
>  <minimizedAffinity>  (1) 
-4.3017745

>  <minimizedRMSD>  (1) 
1.3988868

$$$$
