
     RDKit          3D

 13 13  0  0  0  0  0  0  0  0999 V2000
   44.9710   35.4770   44.2750 C   0  0  0  0  0  0  0  0  0  0  0  0
   45.9300   34.7920   43.5100 C   0  0  0  0  0  0  0  0  0  0  0  0
   46.5770   33.7050   44.1220 C   0  0  0  0  0  0  0  0  0  0  0  0
   46.2500   33.3820   45.3890 N   0  0  0  0  0  0  0  0  0  0  0  0
   45.3260   34.0660   46.0850 C   0  0  0  0  0  0  0  0  0  0  0  0
   44.6830   35.1150   45.5320 N   0  0  0  0  0  0  0  0  0  0  0  0
   46.2090   35.1970   42.1950 N   0  0  0  0  0  0  0  0  0  0  0  0
   44.3390   36.5380   43.6810 O   0  0  0  0  0  0  0  0  0  0  0  0
   47.3376   33.1274   43.5762 H   0  0  0  0  0  0  0  0  0  0  0  0
   45.0914   33.7671   47.1173 H   0  0  0  0  0  0  0  0  0  0  0  0
   45.7100   36.0002   41.7866 H   0  0  0  0  0  0  0  0  0  0  0  0
   46.9127   34.6909   41.6386 H   0  0  0  0  0  0  0  0  0  0  0  0
   44.5648   36.7911   42.7509 H   0  0  0  0  0  0  0  0  0  0  0  0
  1  6  2  0
  2  3  2  0
  2  1  1  0
  3  4  1  0
  4  5  2  0
  6  5  1  0
  7  2  1  0
  8  1  1  0
  3  9  1  0
  5 10  1  0
  7 11  1  0
  7 12  1  0
  8 13  1  0
M  ISO  3   9  14  10  14  13   3
M  END
>  <minimizedAffinity>  (1) 
-3.16163397

>  <minimizedRMSD>  (1) 
0.256390691

$$$$
