
     RDKit          3D

 18 18  0  0  0  0  0  0  0  0999 V2000
   46.1500   34.6140   43.2520 C   0  0  0  0  0  0  0  0  0  0  0  0
   46.1470   33.7890   44.3880 C   0  0  0  0  0  0  0  0  0  0  0  0
   45.3710   34.1910   45.4700 C   0  0  0  0  0  0  0  0  0  0  0  0
   44.6620   35.3490   45.3750 N   0  0  0  0  0  0  0  0  0  0  0  0
   44.6930   36.1100   44.2690 C   0  0  0  0  0  0  0  0  0  0  0  0
   45.4350   35.7480   43.2020 N   0  0  0  0  0  0  0  0  0  0  0  0
   46.9640   32.5540   44.3620 C   0  0  0  0  0  0  0  0  0  0  0  0
   46.4740   31.6630   43.4100 F   0  0  0  0  0  0  0  0  0  0  0  0
   48.2390   32.8780   43.9530 F   0  0  0  0  0  0  0  0  0  0  0  0
   47.0110   31.8920   45.5550 F   0  0  0  0  0  0  0  0  0  0  0  0
   46.9030   34.2410   42.1810 O   0  0  0  0  0  0  0  0  0  0  0  0
   47.8900   35.0150   41.5720 C   0  0  0  0  0  0  0  0  0  0  0  0
   48.7670   35.9360   41.7210 O   0  0  0  0  0  0  0  0  0  0  0  0
   48.0170   34.6690   40.1790 N   0  0  0  0  0  0  0  0  0  0  0  0
   45.3310   33.5838   46.3863 H   0  0  0  0  0  0  0  0  0  0  0  0
   44.1063   37.0398   44.2326 H   0  0  0  0  0  0  0  0  0  0  0  0
   47.4173   33.9363   39.7736 H   0  0  0  0  0  0  0  0  0  0  0  0
   48.7075   35.1544   39.5887 H   0  0  0  0  0  0  0  0  0  0  0  0
  1  2  2  0
  2  3  1  0
  4  3  2  0
  5  4  1  0
  6  1  1  0
  6  5  2  0
  7  2  1  0
  7 10  1  0
  8  7  1  0
  9  7  1  0
 11  1  1  0
 12 13  2  0
 12 11  1  0
 14 12  1  0
  3 15  1  0
  5 16  1  0
 14 17  1  0
 14 18  1  0
M  ISO  2  15  14  16  14
M  END
>  <minimizedAffinity>  (1) 
-4.01731634

>  <minimizedRMSD>  (1) 
4.39805603

$$$$
