
     RDKit          3D

 33 34  0  0  0  0  0  0  0  0999 V2000
   46.4430   33.8870   43.7900 C   0  0  0  0  0  0  0  0  0  0  0  0
   45.5360   34.8030   44.3360 C   0  0  0  0  0  0  0  0  0  0  0  0
   45.0850   34.5630   45.6520 C   0  0  0  0  0  0  0  0  0  0  0  0
   45.5470   33.4740   46.3040 N   0  0  0  0  0  0  0  0  0  0  0  0
   46.4190   32.6240   45.7290 C   0  0  0  0  0  0  0  0  0  0  0  0
   46.8690   32.8220   44.4810 N   0  0  0  0  0  0  0  0  0  0  0  0
   46.8280   31.4710   46.5880 C   0  0  0  0  0  0  0  0  0  0  0  0
   47.3780   32.0530   47.8360 C   0  0  0  0  0  0  0  0  0  0  0  0
   47.1360   31.2530   49.0780 C   0  0  0  0  0  0  0  0  0  0  0  0
   45.6120   31.1190   49.1710 C   0  0  0  0  0  0  0  0  0  0  0  0
   45.2060   30.1980   48.0780 C   0  0  0  0  0  0  0  0  0  0  0  0
   45.6690   30.5540   46.7190 C   0  0  0  0  0  0  0  0  0  0  0  0
   45.0890   35.9690   43.5390 C   0  0  0  0  0  0  0  0  0  0  0  0
   46.1410   36.4060   42.7320 F   0  0  0  0  0  0  0  0  0  0  0  0
   44.0890   35.5400   42.6880 F   0  0  0  0  0  0  0  0  0  0  0  0
   44.6640   37.0310   44.2630 F   0  0  0  0  0  0  0  0  0  0  0  0
   46.8730   34.1200   42.5310 O   0  0  0  0  0  0  0  0  0  0  0  0
   48.2010   34.2030   42.0840 C   0  0  0  0  0  0  0  0  0  0  0  0
   48.9300   34.7860   43.1170 F   0  0  0  0  0  0  0  0  0  0  0  0
   48.6620   32.9690   41.7340 F   0  0  0  0  0  0  0  0  0  0  0  0
   48.2820   35.1090   41.0340 F   0  0  0  0  0  0  0  0  0  0  0  0
   44.3730   35.2478   46.1358 H   0  0  0  0  0  0  0  0  0  0  0  0
   47.6246   30.8353   46.1741 H   0  0  0  0  0  0  0  0  0  0  0  0
   48.4652   32.1625   47.7092 H   0  0  0  0  0  0  0  0  0  0  0  0
   46.8520   33.0079   47.9829 H   0  0  0  0  0  0  0  0  0  0  0  0
   47.6073   30.2623   48.9980 H   0  0  0  0  0  0  0  0  0  0  0  0
   47.5643   31.7337   49.9699 H   0  0  0  0  0  0  0  0  0  0  0  0
   45.3254   30.7009   50.1473 H   0  0  0  0  0  0  0  0  0  0  0  0
   45.1183   32.0971   49.0732 H   0  0  0  0  0  0  0  0  0  0  0  0
   45.6009   29.1994   48.3164 H   0  0  0  0  0  0  0  0  0  0  0  0
   44.1081   30.2529   48.0390 H   0  0  0  0  0  0  0  0  0  0  0  0
   44.8214   31.0243   46.1990 H   0  0  0  0  0  0  0  0  0  0  0  0
   46.0262   29.6033   46.2964 H   0  0  0  0  0  0  0  0  0  0  0  0
  1  2  2  0
  1  6  1  0
  2  3  1  0
  3  4  2  0
  5  4  1  0
  5  7  1  0
  6  5  2  0
  7 12  1  0
  7  8  1  0
  8  9  1  0
  9 10  1  0
 11 10  1  0
 12 11  1  0
 13 16  1  0
 13  2  1  0
 14 13  1  0
 15 13  1  0
 17  1  1  0
 18 17  1  0
 18 19  1  0
 20 18  1  0
 21 18  1  0
  3 22  1  0
  7 23  1  0
  8 24  1  0
  8 25  1  0
  9 26  1  0
  9 27  1  0
 10 28  1  0
 10 29  1  0
 11 30  1  0
 11 31  1  0
 12 32  1  0
 12 33  1  0
M  ISO  8  22  14  23  13  24  13  25  13  26  13  27  13  28  13  29  13
M  ISO  4  30  13  31  13  32  13  33  13
M  END
>  <minimizedAffinity>  (1) 
-5.95516109

>  <minimizedRMSD>  (1) 
2.18628216

$$$$
