
     RDKit          3D

 24 25  0  0  0  0  0  0  0  0999 V2000
   46.8080   33.5500   43.8740 C   0  0  0  0  0  0  0  0  0  0  0  0
   45.8360   34.5480   43.8650 C   0  0  0  0  0  0  0  0  0  0  0  0
   45.1080   34.7670   45.0410 C   0  0  0  0  0  0  0  0  0  0  0  0
   45.3810   34.0040   46.1240 N   0  0  0  0  0  0  0  0  0  0  0  0
   46.3290   33.0490   46.0890 C   0  0  0  0  0  0  0  0  0  0  0  0
   47.0490   32.8080   44.9780 N   0  0  0  0  0  0  0  0  0  0  0  0
   46.4900   32.3240   47.3420 C   0  0  0  0  0  0  0  0  0  0  0  0
   47.3940   31.3670   47.7480 C   0  0  0  0  0  0  0  0  0  0  0  0
   47.0180   31.0740   49.0520 C   0  0  0  0  0  0  0  0  0  0  0  0
   45.9440   31.8230   49.3960 N   0  0  0  0  0  0  0  0  0  0  0  0
   45.6210   32.5860   48.3520 N   0  0  0  0  0  0  0  0  0  0  0  0
   45.6100   35.3370   42.6200 C   0  0  0  0  0  0  0  0  0  0  0  0
   46.7960   35.9400   42.2290 F   0  0  0  0  0  0  0  0  0  0  0  0
   45.2560   34.4680   41.6180 F   0  0  0  0  0  0  0  0  0  0  0  0
   44.6670   36.3090   42.7330 F   0  0  0  0  0  0  0  0  0  0  0  0
   47.5030   33.3430   42.7410 O   0  0  0  0  0  0  0  0  0  0  0  0
   48.8720   33.5390   42.5100 C   0  0  0  0  0  0  0  0  0  0  0  0
   49.2490   34.6490   43.2850 F   0  0  0  0  0  0  0  0  0  0  0  0
   49.5690   32.4140   42.8670 F   0  0  0  0  0  0  0  0  0  0  0  0
   49.0920   33.9200   41.2010 F   0  0  0  0  0  0  0  0  0  0  0  0
   44.3301   35.5436   45.0832 H   0  0  0  0  0  0  0  0  0  0  0  0
   48.2242   30.9339   47.1708 H   0  0  0  0  0  0  0  0  0  0  0  0
   47.5170   30.3441   49.7063 H   0  0  0  0  0  0  0  0  0  0  0  0
   45.4609   31.8062   50.3055 H   0  0  0  0  0  0  0  0  0  0  0  0
  1  6  2  0
  2  1  1  0
  2  3  2  0
  3  4  1  0
  5  4  2  0
  5  7  1  0
  6  5  1  0
  7  8  1  0
  7 11  2  0
  8  9  2  0
  9 10  1  0
 11 10  1  0
 12 15  1  0
 12  2  1  0
 13 12  1  0
 14 12  1  0
 16  1  1  0
 17 16  1  0
 17 19  1  0
 17 18  1  0
 20 17  1  0
  3 21  1  0
  8 22  1  0
  9 23  1  0
 10 24  1  0
M  ISO  4  21  14  22  14  23  14  24   9
M  END
>  <minimizedAffinity>  (1) 
-5.54702139

>  <minimizedRMSD>  (1) 
2.21938705

$$$$
