
     RDKit          3D

 23 23  0  0  0  0  0  0  0  0999 V2000
   46.9420   33.5120   43.7520 C   0  0  0  0  0  0  0  0  0  0  0  0
   45.9390   34.4860   43.8500 C   0  0  0  0  0  0  0  0  0  0  0  0
   45.2250   34.5690   45.0520 C   0  0  0  0  0  0  0  0  0  0  0  0
   45.5300   33.7200   46.0530 N   0  0  0  0  0  0  0  0  0  0  0  0
   46.5160   32.7870   45.9150 C   0  0  0  0  0  0  0  0  0  0  0  0
   47.2140   32.6830   44.7760 N   0  0  0  0  0  0  0  0  0  0  0  0
   45.6730   35.3790   42.6920 C   0  0  0  0  0  0  0  0  0  0  0  0
   46.8410   36.0270   42.3150 F   0  0  0  0  0  0  0  0  0  0  0  0
   45.2940   34.5810   41.6190 F   0  0  0  0  0  0  0  0  0  0  0  0
   44.7170   36.3150   42.8980 F   0  0  0  0  0  0  0  0  0  0  0  0
   47.6190   33.4530   42.5730 O   0  0  0  0  0  0  0  0  0  0  0  0
   48.9970   33.6740   42.3950 C   0  0  0  0  0  0  0  0  0  0  0  0
   49.3400   34.7770   43.1980 F   0  0  0  0  0  0  0  0  0  0  0  0
   49.7040   32.5510   42.7180 F   0  0  0  0  0  0  0  0  0  0  0  0
   49.2300   34.1030   41.1020 F   0  0  0  0  0  0  0  0  0  0  0  0
   46.8900   31.8790   46.8920 O   0  0  0  0  0  0  0  0  0  0  0  0
   45.2790   30.5780   48.4490 O   0  0  0  0  0  0  0  0  0  0  0  0
   46.2690   31.7420   48.4400 P   0  0  0  0  0  0  0  0  0  0  0  0
   45.5130   33.0920   49.0510 O   0  0  0  0  0  0  0  0  0  0  0  0
   47.5510   31.2430   49.4580 O   0  0  0  0  0  0  0  0  0  0  0  0
   44.4273   35.3160   45.1771 H   0  0  0  0  0  0  0  0  0  0  0  0
   45.5305   33.0607   50.0403 H   0  0  0  0  0  0  0  0  0  0  0  0
   47.2808   31.3482   50.4046 H   0  0  0  0  0  0  0  0  0  0  0  0
  1  2  2  0
  1  6  1  0
  2  3  1  0
  3  4  2  0
  5  4  1  0
  5 16  1  0
  6  5  2  0
  7 10  1  0
  7  2  1  0
  8  7  1  0
  9  7  1  0
 11  1  1  0
 12 11  1  0
 12 14  1  0
 12 13  1  0
 15 12  1  0
 16 18  1  0
 18 17  2  0
 18 19  1  0
 18 20  1  0
  3 21  1  0
 19 22  1  0
 20 23  1  0
M  ISO  3  21  14  22   3  23   3
M  END
>  <minimizedAffinity>  (1) 
-5.42931652

>  <minimizedRMSD>  (1) 
2.27534223

$$$$
