
     RDKit          3D

 32 35  0  0  1  0  0  0  0  0999 V2000
   44.1430   33.7550   41.1200 C   0  0  1  0  0  0  0  0  0  0  0  0
   45.1740   33.6250   40.1250 C   0  0  2  0  0  0  0  0  0  0  0  0
   44.4460   32.4300   40.6110 C   0  0  0  0  0  0  0  0  0  0  0  0
   44.2920   35.5160   42.8020 C   0  0  0  0  0  0  0  0  0  0  0  0
   44.5000   34.1860   42.4740 C   0  0  0  0  0  0  0  0  0  0  0  0
   44.9860   33.2790   43.4300 C   0  0  0  0  0  0  0  0  0  0  0  0
   45.2300   33.7960   44.6780 N   0  0  0  0  0  0  0  0  0  0  0  0
   45.0260   35.0870   44.9930 C   0  0  0  0  0  0  0  0  0  0  0  0
   44.5550   35.9470   44.0450 N   0  0  0  0  0  0  0  0  0  0  0  0
   46.6190   33.5790   40.4150 C   0  0  1  0  0  0  0  0  0  0  0  0
   47.3440   34.1170   39.5570 O   0  0  0  0  0  0  0  0  0  0  0  0
   47.9200   34.0630   40.8770 C   0  0  2  0  0  0  0  0  0  0  0  0
   48.7940   32.9310   41.4210 C   0  0  0  0  0  0  0  0  0  0  0  0
   48.4760   34.0770   42.2140 C   0  0  1  0  0  0  0  0  0  0  0  0
   49.5870   35.0710   42.4800 C   0  0  0  0  0  0  0  0  0  0  0  0
   49.3280   36.2890   41.6050 C   0  0  0  0  0  0  0  0  0  0  0  0
   43.2060   34.3234   41.2147 H   0  0  0  0  0  0  0  0  0  0  0  0
   45.3475   34.1938   39.1996 H   0  0  0  0  0  0  0  0  0  0  0  0
   43.7311   31.9125   39.9544 H   0  0  0  0  0  0  0  0  0  0  0  0
   44.7299   31.4644   41.0549 H   0  0  0  0  0  0  0  0  0  0  0  0
   43.9119   36.2173   42.0446 H   0  0  0  0  0  0  0  0  0  0  0  0
   45.1604   32.2191   43.1931 H   0  0  0  0  0  0  0  0  0  0  0  0
   45.2379   35.4479   46.0103 H   0  0  0  0  0  0  0  0  0  0  0  0
   46.1248   32.7806   40.9880 H   0  0  0  0  0  0  0  0  0  0  0  0
   48.3500   31.9528   41.6576 H   0  0  0  0  0  0  0  0  0  0  0  0
   49.7182   32.4275   41.1012 H   0  0  0  0  0  0  0  0  0  0  0  0
   48.0362   34.1961   43.2152 H   0  0  0  0  0  0  0  0  0  0  0  0
   49.5844   35.3627   43.5406 H   0  0  0  0  0  0  0  0  0  0  0  0
   50.5672   34.6285   42.2490 H   0  0  0  0  0  0  0  0  0  0  0  0
   49.1416   37.1657   42.2427 H   0  0  0  0  0  0  0  0  0  0  0  0
   50.2061   36.4776   40.9699 H   0  0  0  0  0  0  0  0  0  0  0  0
   48.4491   36.1040   40.9699 H   0  0  0  0  0  0  0  0  0  0  0  0
  1  5  1  0
  2 10  1  0
  2  3  1  0
  2  1  1  0
  3  1  1  0
  4  9  2  0
  5  4  1  0
  5  6  2  0
  6  7  1  0
  7  8  2  0
  9  8  1  0
 10 12  1  0
 11 10  1  0
 12 11  1  6
 12 13  1  0
 12 14  1  0
 13 14  1  0
 14 15  1  0
 16 15  1  0
  1 17  1  6
  2 18  1  6
  3 19  1  0
  3 20  1  0
  4 21  1  0
  6 22  1  0
  8 23  1  0
 10 24  1  6
 13 25  1  0
 13 26  1  0
 14 27  1  1
 15 28  1  0
 15 29  1  0
 16 30  1  0
 16 31  1  0
 16 32  1  0
M  ISO  8  17  13  18  13  19  13  20  13  21  14  22  14  23  14  24  13
M  ISO  8  25  13  26  13  27  13  28   8  29   8  30   8  31   8  32   8
M  END
>  <minimizedAffinity>  (1) 
-4.42383575

>  <minimizedRMSD>  (1) 
1.26521003

$$$$
