
     RDKit          3D

 24 25  0  0  0  0  0  0  0  0999 V2000
   46.9560   34.3410   42.4420 C   0  0  0  0  0  0  0  0  0  0  0  0
   45.6770   34.4300   42.9760 C   0  0  0  0  0  0  0  0  0  0  0  0
   45.0690   33.2590   43.4430 C   0  0  0  0  0  0  0  0  0  0  0  0
   45.7580   32.0880   43.3520 N   0  0  0  0  0  0  0  0  0  0  0  0
   47.0000   32.0460   42.8270 C   0  0  0  0  0  0  0  0  0  0  0  0
   47.6010   33.1490   42.3740 N   0  0  0  0  0  0  0  0  0  0  0  0
   45.0080   35.7600   43.0290 C   0  0  0  0  0  0  0  0  0  0  0  0
   45.9560   36.7620   43.1190 F   0  0  0  0  0  0  0  0  0  0  0  0
   44.3340   35.9480   41.8390 F   0  0  0  0  0  0  0  0  0  0  0  0
   44.1390   35.9090   44.0710 F   0  0  0  0  0  0  0  0  0  0  0  0
   47.7060   30.7280   42.7550 C   0  0  0  0  0  0  0  0  0  0  0  0
   49.1730   30.8410   43.1840 C   0  0  0  0  0  0  0  0  0  0  0  0
   48.1770   30.0280   43.9530 C   0  0  0  0  0  0  0  0  0  0  0  0
   47.5330   35.4770   41.9960 O   0  0  0  0  0  0  0  0  0  0  0  0
   48.7600   35.6020   41.3250 C   0  0  0  0  0  0  0  0  0  0  0  0
   49.6430   34.6770   41.9190 F   0  0  0  0  0  0  0  0  0  0  0  0
   48.5920   35.3820   39.9830 F   0  0  0  0  0  0  0  0  0  0  0  0
   49.3170   36.8420   41.5930 F   0  0  0  0  0  0  0  0  0  0  0  0
   44.0572   33.2841   43.8739 H   0  0  0  0  0  0  0  0  0  0  0  0
   47.1062   30.3739   41.9036 H   0  0  0  0  0  0  0  0  0  0  0  0
   49.9627   30.3457   42.6001 H   0  0  0  0  0  0  0  0  0  0  0  0
   49.8686   31.6618   43.4129 H   0  0  0  0  0  0  0  0  0  0  0  0
   47.8482   30.3684   44.9460 H   0  0  0  0  0  0  0  0  0  0  0  0
   48.1420   28.9815   44.2900 H   0  0  0  0  0  0  0  0  0  0  0  0
  1  2  2  0
  2  7  1  0
  2  3  1  0
  4  3  2  0
  5  4  1  0
  6  1  1  0
  6  5  2  0
  7  8  1  0
  7 10  1  0
  9  7  1  0
 11  5  1  0
 11 12  1  0
 11 13  1  0
 12 13  1  0
 14  1  1  0
 15 18  1  0
 15 16  1  0
 15 14  1  0
 17 15  1  0
  3 19  1  0
 11 20  1  0
 12 21  1  0
 12 22  1  0
 13 23  1  0
 13 24  1  0
M  ISO  6  19  14  20  13  21  13  22  13  23  13  24  13
M  END
>  <minimizedAffinity>  (1) 
-4.79452085

>  <minimizedRMSD>  (1) 
1.48367119

$$$$
