
     RDKit          3D

 37 39  0  0  0  0  0  0  0  0999 V2000
   47.5840   30.0220   44.9020 F   0  0  0  0  0  0  0  0  0  0  0  0
   47.4660   30.8030   46.0200 C   0  0  0  0  0  0  0  0  0  0  0  0
   46.9120   32.0680   45.9360 C   0  0  0  0  0  0  0  0  0  0  0  0
   46.8330   32.7870   47.1180 C   0  0  0  0  0  0  0  0  0  0  0  0
   47.2820   32.2690   48.3120 C   0  0  0  0  0  0  0  0  0  0  0  0
   47.8280   30.9980   48.3350 C   0  0  0  0  0  0  0  0  0  0  0  0
   47.9370   30.2240   47.1890 C   0  0  0  0  0  0  0  0  0  0  0  0
   45.7180   28.1390   47.4660 Br  0  0  0  0  0  0  0  0  0  0  0  0
   47.6070   27.8220   47.3230 C   0  0  0  0  0  0  0  0  0  0  0  0
   48.5110   28.8820   47.2020 C   0  0  0  0  0  0  0  0  0  0  0  0
   49.8680   28.6500   47.1000 C   0  0  0  0  0  0  0  0  0  0  0  0
   50.2790   27.3330   47.1250 C   0  0  0  0  0  0  0  0  0  0  0  0
   49.4530   26.2370   47.2430 C   0  0  0  0  0  0  0  0  0  0  0  0
   48.0890   26.5270   47.3420 C   0  0  0  0  0  0  0  0  0  0  0  0
   46.7750   34.1390   42.9330 C   0  0  0  0  0  0  0  0  0  0  0  0
   45.6440   33.6870   42.2710 C   0  0  0  0  0  0  0  0  0  0  0  0
   44.9110   32.6470   42.8700 C   0  0  0  0  0  0  0  0  0  0  0  0
   45.3360   32.1390   44.0500 N   0  0  0  0  0  0  0  0  0  0  0  0
   46.4370   32.6050   44.6600 C   0  0  0  0  0  0  0  0  0  0  0  0
   47.1620   33.6080   44.1030 N   0  0  0  0  0  0  0  0  0  0  0  0
   45.2510   34.2980   40.9860 C   0  0  0  0  0  0  0  0  0  0  0  0
   44.9160   35.6230   41.1750 F   0  0  0  0  0  0  0  0  0  0  0  0
   46.3730   34.2870   40.1530 F   0  0  0  0  0  0  0  0  0  0  0  0
   44.2350   33.6880   40.3410 F   0  0  0  0  0  0  0  0  0  0  0  0
   47.4800   35.1420   42.3540 O   0  0  0  0  0  0  0  0  0  0  0  0
   48.8170   35.0750   41.8810 C   0  0  0  0  0  0  0  0  0  0  0  0
   49.6490   35.3510   42.9660 F   0  0  0  0  0  0  0  0  0  0  0  0
   49.0440   33.8560   41.3080 F   0  0  0  0  0  0  0  0  0  0  0  0
   49.0310   36.1220   41.0050 F   0  0  0  0  0  0  0  0  0  0  0  0
   46.4002   33.7981   47.1019 H   0  0  0  0  0  0  0  0  0  0  0  0
   47.2075   32.8591   49.2373 H   0  0  0  0  0  0  0  0  0  0  0  0
   48.1866   30.5888   49.2910 H   0  0  0  0  0  0  0  0  0  0  0  0
   50.5878   29.4762   47.0033 H   0  0  0  0  0  0  0  0  0  0  0  0
   51.3592   27.1419   47.0437 H   0  0  0  0  0  0  0  0  0  0  0  0
   49.8391   25.2071   47.2582 H   0  0  0  0  0  0  0  0  0  0  0  0
   47.3749   25.6959   47.4383 H   0  0  0  0  0  0  0  0  0  0  0  0
   44.0053   32.2522   42.3863 H   0  0  0  0  0  0  0  0  0  0  0  0
  1  2  1  0
  2  7  2  0
  3  2  1  0
  3  4  2  0
  4  5  1  0
  5  6  2  0
  7 10  1  0
  7  6  1  0
  9 14  2  0
  9  8  1  0
 10  9  1  0
 11 12  1  0
 11 10  2  0
 12 13  2  0
 13 14  1  0
 15 20  2  0
 16 17  2  0
 16 15  1  0
 17 18  1  0
 18 19  2  0
 19  3  1  0
 20 19  1  0
 21 22  1  0
 21 16  1  0
 23 21  1  0
 24 21  1  0
 25 15  1  0
 26 25  1  0
 26 27  1  0
 28 26  1  0
 29 26  1  0
  4 30  1  0
  5 31  1  0
  6 32  1  0
 11 33  1  0
 12 34  1  0
 13 35  1  0
 14 36  1  0
 17 37  1  0
M  ISO  8  30  14  31  14  32  14  33  14  34  14  35  14  36  14  37  14
M  END
>  <minimizedAffinity>  (1) 
-5.8246541

>  <minimizedRMSD>  (1) 
0.564808249

$$$$
