
     RDKit          3D

 29 30  0  0  0  0  0  0  0  0999 V2000
   46.8170   34.1060   43.0640 C   0  0  0  0  0  0  0  0  0  0  0  0
   45.6430   33.7090   42.4320 C   0  0  0  0  0  0  0  0  0  0  0  0
   44.9120   32.6580   43.0250 C   0  0  0  0  0  0  0  0  0  0  0  0
   45.3870   32.0950   44.1680 N   0  0  0  0  0  0  0  0  0  0  0  0
   46.5310   32.5190   44.7420 C   0  0  0  0  0  0  0  0  0  0  0  0
   47.2460   33.5230   44.1900 N   0  0  0  0  0  0  0  0  0  0  0  0
   47.6640   29.9250   44.8190 F   0  0  0  0  0  0  0  0  0  0  0  0
   47.5870   30.6540   45.9850 C   0  0  0  0  0  0  0  0  0  0  0  0
   47.0410   31.9140   45.9700 C   0  0  0  0  0  0  0  0  0  0  0  0
   46.9950   32.5920   47.1870 C   0  0  0  0  0  0  0  0  0  0  0  0
   47.4830   32.0020   48.3370 C   0  0  0  0  0  0  0  0  0  0  0  0
   48.0240   30.7260   48.2940 C   0  0  0  0  0  0  0  0  0  0  0  0
   48.0860   30.0250   47.1060 C   0  0  0  0  0  0  0  0  0  0  0  0
   48.6550   28.6830   47.0600 C   0  0  0  0  0  0  0  0  0  0  0  0
   48.9160   28.0860   48.1350 O   0  0  0  0  0  0  0  0  0  0  0  0
   45.2000   34.3760   41.1920 C   0  0  0  0  0  0  0  0  0  0  0  0
   44.9000   35.7000   41.4660 F   0  0  0  0  0  0  0  0  0  0  0  0
   46.2730   34.3720   40.3060 F   0  0  0  0  0  0  0  0  0  0  0  0
   44.1350   33.8100   40.5720 F   0  0  0  0  0  0  0  0  0  0  0  0
   47.5150   35.1200   42.4850 O   0  0  0  0  0  0  0  0  0  0  0  0
   48.8120   35.0480   41.9560 C   0  0  0  0  0  0  0  0  0  0  0  0
   49.7010   35.2900   42.9970 F   0  0  0  0  0  0  0  0  0  0  0  0
   49.0150   33.8280   41.3600 F   0  0  0  0  0  0  0  0  0  0  0  0
   49.0030   36.0960   41.0810 F   0  0  0  0  0  0  0  0  0  0  0  0
   43.9757   32.3008   42.5714 H   0  0  0  0  0  0  0  0  0  0  0  0
   46.5670   33.6043   47.2321 H   0  0  0  0  0  0  0  0  0  0  0  0
   47.4422   32.5472   49.2915 H   0  0  0  0  0  0  0  0  0  0  0  0
   48.4082   30.2669   49.2169 H   0  0  0  0  0  0  0  0  0  0  0  0
   48.8540   28.1975   46.0932 H   0  0  0  0  0  0  0  0  0  0  0  0
  1  6  2  0
  2  3  2  0
  2  1  1  0
  3  4  1  0
  4  5  2  0
  5  9  1  0
  6  5  1  0
  7  8  1  0
  8 13  2  0
  9  8  1  0
  9 10  2  0
 10 11  1  0
 12 11  2  0
 13 12  1  0
 14 13  1  0
 14 15  2  0
 16 17  1  0
 16  2  1  0
 18 16  1  0
 19 16  1  0
 20  1  1  0
 21 20  1  0
 21 22  1  0
 23 21  1  0
 24 21  1  0
  3 25  1  0
 10 26  1  0
 11 27  1  0
 12 28  1  0
 14 29  1  0
M  ISO  5  25  14  26  14  27  14  28  14  29   6
M  END
>  <minimizedAffinity>  (1) 
-5.34702015

>  <minimizedRMSD>  (1) 
0.0249382965

$$$$
