
     RDKit          3D

 39 41  0  0  0  0  0  0  0  0999 V2000
   47.7750   30.0740   44.9210 F   0  0  0  0  0  0  0  0  0  0  0  0
   47.5790   30.8260   46.0470 C   0  0  0  0  0  0  0  0  0  0  0  0
   46.9570   32.0430   45.9700 C   0  0  0  0  0  0  0  0  0  0  0  0
   46.7990   32.7380   47.1630 C   0  0  0  0  0  0  0  0  0  0  0  0
   47.2470   32.2200   48.3540 C   0  0  0  0  0  0  0  0  0  0  0  0
   47.8690   30.9850   48.3740 C   0  0  0  0  0  0  0  0  0  0  0  0
   48.0510   30.2470   47.2000 C   0  0  0  0  0  0  0  0  0  0  0  0
   46.8060   34.1230   42.9660 C   0  0  0  0  0  0  0  0  0  0  0  0
   45.6670   33.6500   42.2970 C   0  0  0  0  0  0  0  0  0  0  0  0
   44.9590   32.6080   42.9000 C   0  0  0  0  0  0  0  0  0  0  0  0
   45.3730   32.0930   44.0780 N   0  0  0  0  0  0  0  0  0  0  0  0
   46.4830   32.5800   44.6940 C   0  0  0  0  0  0  0  0  0  0  0  0
   47.1950   33.5860   44.1450 N   0  0  0  0  0  0  0  0  0  0  0  0
   45.2900   34.2670   41.0220 C   0  0  0  0  0  0  0  0  0  0  0  0
   44.9630   35.5930   41.2070 F   0  0  0  0  0  0  0  0  0  0  0  0
   46.4040   34.2290   40.1670 F   0  0  0  0  0  0  0  0  0  0  0  0
   44.2540   33.6740   40.3910 F   0  0  0  0  0  0  0  0  0  0  0  0
   47.4970   35.1300   42.3920 O   0  0  0  0  0  0  0  0  0  0  0  0
   48.8290   35.0730   41.9090 C   0  0  0  0  0  0  0  0  0  0  0  0
   49.6670   35.3380   42.9800 F   0  0  0  0  0  0  0  0  0  0  0  0
   49.0630   33.8600   41.3390 F   0  0  0  0  0  0  0  0  0  0  0  0
   49.0350   36.1240   41.0370 F   0  0  0  0  0  0  0  0  0  0  0  0
   48.7090   28.9140   47.2250 C   0  0  0  0  0  0  0  0  0  0  0  0
   49.8770   28.8580   48.1060 C   0  0  0  0  0  0  0  0  0  0  0  0
   51.0610   29.4690   47.7330 C   0  0  0  0  0  0  0  0  0  0  0  0
   52.1530   29.4080   48.5780 C   0  0  0  0  0  0  0  0  0  0  0  0
   52.0640   28.7370   49.7970 C   0  0  0  0  0  0  0  0  0  0  0  0
   50.8510   28.1320   50.1420 C   0  0  0  0  0  0  0  0  0  0  0  0
   49.8100   28.2100   49.2980 N   0  0  0  0  0  0  0  0  0  0  0  0
   46.3060   33.7213   47.1535 H   0  0  0  0  0  0  0  0  0  0  0  0
   47.1115   32.7853   49.2879 H   0  0  0  0  0  0  0  0  0  0  0  0
   48.2270   30.5758   49.3303 H   0  0  0  0  0  0  0  0  0  0  0  0
   44.0591   32.2045   42.4128 H   0  0  0  0  0  0  0  0  0  0  0  0
   47.9761   28.1699   47.5701 H   0  0  0  0  0  0  0  0  0  0  0  0
   49.0624   28.7074   46.2040 H   0  0  0  0  0  0  0  0  0  0  0  0
   51.1326   29.9990   46.7718 H   0  0  0  0  0  0  0  0  0  0  0  0
   53.0974   29.8914   48.2873 H   0  0  0  0  0  0  0  0  0  0  0  0
   52.9299   28.6845   50.4734 H   0  0  0  0  0  0  0  0  0  0  0  0
   50.7508   27.5964   51.0976 H   0  0  0  0  0  0  0  0  0  0  0  0
  1  2  1  0
  2  7  2  0
  3  2  1  0
  3  4  2  0
  4  5  1  0
  5  6  2  0
  7 23  1  0
  7  6  1  0
  8 13  2  0
  9 10  2  0
  9  8  1  0
 10 11  1  0
 11 12  2  0
 12  3  1  0
 13 12  1  0
 14 15  1  0
 14  9  1  0
 16 14  1  0
 17 14  1  0
 18  8  1  0
 19 18  1  0
 19 20  1  0
 21 19  1  0
 22 19  1  0
 23 24  1  0
 24 29  1  0
 25 24  2  0
 25 26  1  0
 26 27  2  0
 27 28  1  0
 29 28  2  0
  4 30  1  0
  5 31  1  0
  6 32  1  0
 10 33  1  0
 23 34  1  0
 23 35  1  0
 25 36  1  0
 26 37  1  0
 27 38  1  0
 28 39  1  0
M  ISO  8  30  14  31  14  32  14  33  14  34   8  35   8  36  14  37  14
M  ISO  2  38  14  39  14
M  END
>  <minimizedAffinity>  (1) 
-5.73010302

>  <minimizedRMSD>  (1) 
1.51802206

$$$$
