
     RDKit          3D

 37 39  0  0  0  0  0  0  0  0999 V2000
   47.6560   30.0450   44.9320 F   0  0  0  0  0  0  0  0  0  0  0  0
   47.5080   30.8080   46.0570 C   0  0  0  0  0  0  0  0  0  0  0  0
   46.9220   32.0540   45.9630 C   0  0  0  0  0  0  0  0  0  0  0  0
   46.8030   32.7700   47.1490 C   0  0  0  0  0  0  0  0  0  0  0  0
   47.2510   32.2460   48.3440 C   0  0  0  0  0  0  0  0  0  0  0  0
   47.8320   30.9870   48.3700 C   0  0  0  0  0  0  0  0  0  0  0  0
   47.9760   30.2290   47.2070 C   0  0  0  0  0  0  0  0  0  0  0  0
   46.7930   34.1280   42.9500 C   0  0  0  0  0  0  0  0  0  0  0  0
   45.6610   33.6540   42.2840 C   0  0  0  0  0  0  0  0  0  0  0  0
   44.9480   32.6140   42.8870 C   0  0  0  0  0  0  0  0  0  0  0  0
   45.3570   32.1030   44.0710 N   0  0  0  0  0  0  0  0  0  0  0  0
   46.4530   32.5860   44.6830 C   0  0  0  0  0  0  0  0  0  0  0  0
   47.1710   33.5920   44.1320 N   0  0  0  0  0  0  0  0  0  0  0  0
   45.2790   34.2560   41.0080 C   0  0  0  0  0  0  0  0  0  0  0  0
   44.9430   35.5870   41.1810 F   0  0  0  0  0  0  0  0  0  0  0  0
   46.3940   34.2260   40.1610 F   0  0  0  0  0  0  0  0  0  0  0  0
   44.2480   33.6610   40.3730 F   0  0  0  0  0  0  0  0  0  0  0  0
   47.4850   35.1230   42.3800 O   0  0  0  0  0  0  0  0  0  0  0  0
   48.8160   35.0760   41.8990 C   0  0  0  0  0  0  0  0  0  0  0  0
   49.6440   35.3480   42.9750 F   0  0  0  0  0  0  0  0  0  0  0  0
   49.0550   33.8570   41.3210 F   0  0  0  0  0  0  0  0  0  0  0  0
   49.0260   36.1100   41.0170 F   0  0  0  0  0  0  0  0  0  0  0  0
   48.6050   28.8770   47.2410 C   0  0  0  0  0  0  0  0  0  0  0  0
   49.8190   28.8560   48.0880 C   0  0  0  0  0  0  0  0  0  0  0  0
   51.0410   29.3630   47.6360 C   0  0  0  0  0  0  0  0  0  0  0  0
   51.9540   29.1900   48.6620 C   0  0  0  0  0  0  0  0  0  0  0  0
   51.2520   28.5820   49.7040 C   0  0  0  0  0  0  0  0  0  0  0  0
   50.0180   28.4170   49.3040 O   0  0  0  0  0  0  0  0  0  0  0  0
   46.3445   33.7698   47.1342 H   0  0  0  0  0  0  0  0  0  0  0  0
   47.1477   32.8251   49.2735 H   0  0  0  0  0  0  0  0  0  0  0  0
   48.1867   30.5773   49.3272 H   0  0  0  0  0  0  0  0  0  0  0  0
   44.0504   32.2092   42.3967 H   0  0  0  0  0  0  0  0  0  0  0  0
   47.8779   28.1561   47.6431 H   0  0  0  0  0  0  0  0  0  0  0  0
   48.8996   28.6113   46.2150 H   0  0  0  0  0  0  0  0  0  0  0  0
   51.2392   29.8136   46.6523 H   0  0  0  0  0  0  0  0  0  0  0  0
   53.0167   29.4740   48.6571 H   0  0  0  0  0  0  0  0  0  0  0  0
   51.6621   28.2941   50.6833 H   0  0  0  0  0  0  0  0  0  0  0  0
  1  2  1  0
  2  7  2  0
  3  2  1  0
  3  4  2  0
  4  5  1  0
  5  6  2  0
  7 23  1  0
  7  6  1  0
  8 13  2  0
  9 10  2  0
  9  8  1  0
 10 11  1  0
 11 12  2  0
 12  3  1  0
 13 12  1  0
 14 15  1  0
 14  9  1  0
 16 14  1  0
 17 14  1  0
 18  8  1  0
 19 18  1  0
 19 20  1  0
 21 19  1  0
 22 19  1  0
 23 24  1  0
 24 28  1  0
 25 24  2  0
 25 26  1  0
 26 27  2  0
 28 27  1  0
  4 29  1  0
  5 30  1  0
  6 31  1  0
 10 32  1  0
 23 33  1  0
 23 34  1  0
 25 35  1  0
 26 36  1  0
 27 37  1  0
M  ISO  8  29  14  30  14  31  14  32  14  33   8  34   8  35  14  36  14
M  ISO  1  37  14
M  END
>  <minimizedAffinity>  (1) 
-5.5826211

>  <minimizedRMSD>  (1) 
1.25762939

$$$$
