
     RDKit          3D

 36 38  0  0  0  0  0  0  0  0999 V2000
   47.6460   30.0120   44.9270 F   0  0  0  0  0  0  0  0  0  0  0  0
   47.5230   30.7700   46.0810 C   0  0  0  0  0  0  0  0  0  0  0  0
   46.9620   32.0100   46.0120 C   0  0  0  0  0  0  0  0  0  0  0  0
   46.8780   32.7030   47.2070 C   0  0  0  0  0  0  0  0  0  0  0  0
   47.3320   32.1700   48.3790 C   0  0  0  0  0  0  0  0  0  0  0  0
   47.8920   30.9050   48.3890 C   0  0  0  0  0  0  0  0  0  0  0  0
   48.0010   30.1640   47.2130 C   0  0  0  0  0  0  0  0  0  0  0  0
   46.7950   34.1310   43.0360 C   0  0  0  0  0  0  0  0  0  0  0  0
   45.6440   33.7020   42.3890 C   0  0  0  0  0  0  0  0  0  0  0  0
   44.9190   32.6660   42.9910 C   0  0  0  0  0  0  0  0  0  0  0  0
   45.3460   32.1280   44.1520 N   0  0  0  0  0  0  0  0  0  0  0  0
   46.4700   32.5760   44.7490 C   0  0  0  0  0  0  0  0  0  0  0  0
   47.1830   33.5660   44.1940 N   0  0  0  0  0  0  0  0  0  0  0  0
   45.2460   34.3350   41.1320 C   0  0  0  0  0  0  0  0  0  0  0  0
   44.9740   35.6780   41.3240 F   0  0  0  0  0  0  0  0  0  0  0  0
   46.3160   34.2790   40.2450 F   0  0  0  0  0  0  0  0  0  0  0  0
   44.1640   33.7850   40.5170 F   0  0  0  0  0  0  0  0  0  0  0  0
   47.5060   35.1310   42.4630 O   0  0  0  0  0  0  0  0  0  0  0  0
   48.8230   35.0480   41.9380 C   0  0  0  0  0  0  0  0  0  0  0  0
   49.6910   35.2940   43.0040 F   0  0  0  0  0  0  0  0  0  0  0  0
   49.0140   33.8360   41.3520 F   0  0  0  0  0  0  0  0  0  0  0  0
   49.0340   36.1020   41.0720 F   0  0  0  0  0  0  0  0  0  0  0  0
   48.6010   28.7910   47.1910 C   0  0  0  0  0  0  0  0  0  0  0  0
   49.7890   28.7230   48.0960 C   0  0  0  0  0  0  0  0  0  0  0  0
   51.0680   29.3350   47.6860 C   0  0  0  0  0  0  0  0  0  0  0  0
   52.1210   28.9720   49.1050 S   0  0  0  0  0  0  0  0  0  0  0  0
   50.7130   28.0690   50.0210 C   0  0  0  0  0  0  0  0  0  0  0  0
   49.8200   28.1480   49.2820 N   0  0  0  0  0  0  0  0  0  0  0  0
   46.4339   33.7094   47.2126 H   0  0  0  0  0  0  0  0  0  0  0  0
   47.2527   32.7451   49.3133 H   0  0  0  0  0  0  0  0  0  0  0  0
   48.2555   30.4789   49.3357 H   0  0  0  0  0  0  0  0  0  0  0  0
   44.0003   32.2906   42.5166 H   0  0  0  0  0  0  0  0  0  0  0  0
   47.8486   28.0620   47.5263 H   0  0  0  0  0  0  0  0  0  0  0  0
   48.9225   28.5602   46.1647 H   0  0  0  0  0  0  0  0  0  0  0  0
   51.3145   29.8719   46.7581 H   0  0  0  0  0  0  0  0  0  0  0  0
   50.7399   27.5891   51.0104 H   0  0  0  0  0  0  0  0  0  0  0  0
  1  2  1  0
  2  7  2  0
  3  2  1  0
  3  4  2  0
  4  5  1  0
  5  6  2  0
  7  6  1  0
  8 13  2  0
  9 10  2  0
  9  8  1  0
 10 11  1  0
 11 12  2  0
 12  3  1  0
 13 12  1  0
 14 15  1  0
 14  9  1  0
 16 14  1  0
 17 14  1  0
 18  8  1  0
 19 18  1  0
 19 20  1  0
 21 19  1  0
 22 19  1  0
 23  7  1  0
 23 24  1  0
 24 28  1  0
 25 24  2  0
 25 26  1  0
 26 27  1  0
 28 27  2  0
  4 29  1  0
  5 30  1  0
  6 31  1  0
 10 32  1  0
 23 33  1  0
 23 34  1  0
 25 35  1  0
 27 36  1  0
M  ISO  8  29  14  30  14  31  14  32  14  33   8  34   8  35  14  36  14
M  END
>  <minimizedAffinity>  (1) 
-5.59082174

>  <minimizedRMSD>  (1) 
1.34915733

$$$$
