
     RDKit          3D

 37 39  0  0  0  0  0  0  0  0999 V2000
   46.7810   34.1440   43.0120 C   0  0  0  0  0  0  0  0  0  0  0  0
   45.6270   33.7190   42.3640 C   0  0  0  0  0  0  0  0  0  0  0  0
   44.8940   32.6740   42.9760 C   0  0  0  0  0  0  0  0  0  0  0  0
   45.3320   32.1470   44.1280 N   0  0  0  0  0  0  0  0  0  0  0  0
   46.4580   32.5930   44.7190 C   0  0  0  0  0  0  0  0  0  0  0  0
   47.1790   33.5880   44.1630 N   0  0  0  0  0  0  0  0  0  0  0  0
   47.6030   30.0030   44.9090 F   0  0  0  0  0  0  0  0  0  0  0  0
   47.4990   30.7710   46.0560 C   0  0  0  0  0  0  0  0  0  0  0  0
   46.9510   32.0270   45.9890 C   0  0  0  0  0  0  0  0  0  0  0  0
   46.8870   32.7220   47.1820 C   0  0  0  0  0  0  0  0  0  0  0  0
   47.3440   32.1780   48.3580 C   0  0  0  0  0  0  0  0  0  0  0  0
   47.8840   30.9090   48.3620 C   0  0  0  0  0  0  0  0  0  0  0  0
   47.9730   30.1670   47.1850 C   0  0  0  0  0  0  0  0  0  0  0  0
   48.5620   28.7900   47.1750 C   0  0  0  0  0  0  0  0  0  0  0  0
   49.8790   28.7000   47.8760 C   0  0  0  0  0  0  0  0  0  0  0  0
   50.9170   27.8390   47.0900 C   0  0  0  0  0  0  0  0  0  0  0  0
   51.1150   29.2920   47.3680 C   0  0  0  0  0  0  0  0  0  0  0  0
   45.2190   34.3460   41.1080 C   0  0  0  0  0  0  0  0  0  0  0  0
   44.9530   35.6830   41.3040 F   0  0  0  0  0  0  0  0  0  0  0  0
   46.3110   34.2940   40.2270 F   0  0  0  0  0  0  0  0  0  0  0  0
   44.1540   33.7990   40.4950 F   0  0  0  0  0  0  0  0  0  0  0  0
   47.4860   35.1450   42.4280 O   0  0  0  0  0  0  0  0  0  0  0  0
   48.8150   35.0650   41.9280 C   0  0  0  0  0  0  0  0  0  0  0  0
   49.6800   35.3080   42.9780 F   0  0  0  0  0  0  0  0  0  0  0  0
   49.0110   33.8400   41.3380 F   0  0  0  0  0  0  0  0  0  0  0  0
   49.0210   36.1040   41.0370 F   0  0  0  0  0  0  0  0  0  0  0  0
   43.9718   32.2972   42.5096 H   0  0  0  0  0  0  0  0  0  0  0  0
   46.4597   33.7356   47.1901 H   0  0  0  0  0  0  0  0  0  0  0  0
   47.2794   32.7529   49.2936 H   0  0  0  0  0  0  0  0  0  0  0  0
   48.2490   30.4769   49.3054 H   0  0  0  0  0  0  0  0  0  0  0  0
   47.8567   28.1060   47.6697 H   0  0  0  0  0  0  0  0  0  0  0  0
   48.7362   28.5202   46.1229 H   0  0  0  0  0  0  0  0  0  0  0  0
   49.4064   28.7648   48.8672 H   0  0  0  0  0  0  0  0  0  0  0  0
   50.6952   27.4914   46.0702 H   0  0  0  0  0  0  0  0  0  0  0  0
   51.4799   26.9116   47.2720 H   0  0  0  0  0  0  0  0  0  0  0  0
   51.8952   29.6037   48.0781 H   0  0  0  0  0  0  0  0  0  0  0  0
   51.3285   30.1608   46.7280 H   0  0  0  0  0  0  0  0  0  0  0  0
  1  6  2  0
  2  3  2  0
  2  1  1  0
  3  4  1  0
  4  5  2  0
  5  9  1  0
  6  5  1  0
  7  8  1  0
  8 13  2  0
  9  8  1  0
  9 10  2  0
 10 11  1  0
 11 12  2  0
 13 12  1  0
 14 13  1  0
 14 15  1  0
 16 17  1  0
 16 15  1  0
 17 15  1  0
 18 19  1  0
 18  2  1  0
 20 18  1  0
 21 18  1  0
 22  1  1  0
 23 22  1  0
 23 24  1  0
 25 23  1  0
 26 23  1  0
  3 27  1  0
 10 28  1  0
 11 29  1  0
 12 30  1  0
 14 31  1  0
 14 32  1  0
 15 33  1  0
 16 34  1  0
 16 35  1  0
 17 36  1  0
 17 37  1  0
M  ISO  8  27  14  28  14  29  14  30  14  31   8  32   8  33  13  34  13
M  ISO  3  35  13  36  13  37  13
M  END
>  <minimizedAffinity>  (1) 
-5.32789469

>  <minimizedRMSD>  (1) 
0.631575763

$$$$
