
     RDKit          3D

 22 23  0  0  1  0  0  0  0  0999 V2000
   46.1670   33.7220   44.9870 C   0  0  0  0  0  0  0  0  0  0  0  0
   45.1710   34.6530   44.6480 C   0  0  0  0  0  0  0  0  0  0  0  0
   45.3340   35.3830   43.4610 C   0  0  0  0  0  0  0  0  0  0  0  0
   46.4350   35.1560   42.7070 N   0  0  0  0  0  0  0  0  0  0  0  0
   47.3660   34.2540   43.0700 C   0  0  0  0  0  0  0  0  0  0  0  0
   47.2430   33.5390   44.1980 N   0  0  0  0  0  0  0  0  0  0  0  0
   47.2310   33.6750   40.3560 O   0  0  0  0  0  0  0  0  0  0  0  0
   48.1390   34.4490   40.8080 C   0  0  0  0  0  0  0  0  0  0  0  0
   48.5530   34.0620   42.1820 C   0  0  1  0  0  0  0  0  0  0  0  0
   49.6580   35.0400   42.4550 C   0  0  0  0  0  0  0  0  0  0  0  0
   49.2750   36.2100   41.5750 C   0  0  0  0  0  0  0  0  0  0  0  0
   48.8620   35.5860   40.3570 N   0  0  0  0  0  0  0  0  0  0  0  0
   45.8740   32.8370   46.5200 S   0  0  0  0  0  0  0  0  0  0  0  0
   44.2922   34.8046   45.2920 H   0  0  0  0  0  0  0  0  0  0  0  0
   44.5830   36.1241   43.1497 H   0  0  0  0  0  0  0  0  0  0  0  0
   48.8882   33.0248   42.3300 H   0  0  0  0  0  0  0  0  0  0  0  0
   49.6809   35.3298   43.5159 H   0  0  0  0  0  0  0  0  0  0  0  0
   50.6618   34.6412   42.2467 H   0  0  0  0  0  0  0  0  0  0  0  0
   48.4509   36.7855   42.0217 H   0  0  0  0  0  0  0  0  0  0  0  0
   50.0961   36.9280   41.4332 H   0  0  0  0  0  0  0  0  0  0  0  0
   49.0441   35.8871   39.3889 H   0  0  0  0  0  0  0  0  0  0  0  0
   46.1463   33.6594   47.5813 H   0  0  0  0  0  0  0  0  0  0  0  0
  1 13  1  0
  2  1  2  0
  3  2  1  0
  4  5  1  0
  4  3  2  0
  5  6  2  0
  6  1  1  0
  7  8  2  0
  8  9  1  0
  9 10  1  0
  9  5  1  0
 11 10  1  0
 12  8  1  0
 12 11  1  0
  2 14  1  0
  3 15  1  0
  9 16  1  6
 10 17  1  0
 10 18  1  0
 11 19  1  0
 11 20  1  0
 12 21  1  0
 13 22  1  0
M  ISO  8  14  14  15  14  16  13  17  13  18  13  19  13  20  13  21  10
M  ISO  1  22  11
M  END
>  <minimizedAffinity>  (1) 
-4.79782915

>  <minimizedRMSD>  (1) 
6.01335144

$$$$
