
     RDKit          3D

 13 13  0  0  0  0  0  0  0  0999 V2000
   45.5220   34.7780   44.2900 C   0  0  0  0  0  0  0  0  0  0  0  0
   46.5440   33.9300   43.8730 C   0  0  0  0  0  0  0  0  0  0  0  0
   46.9850   32.9350   44.7690 C   0  0  0  0  0  0  0  0  0  0  0  0
   46.3740   32.8790   45.9860 N   0  0  0  0  0  0  0  0  0  0  0  0
   45.3900   33.7180   46.3510 C   0  0  0  0  0  0  0  0  0  0  0  0
   44.9610   34.6690   45.5060 N   0  0  0  0  0  0  0  0  0  0  0  0
   44.7670   33.6390   47.6270 N   0  0  0  0  0  0  0  0  0  0  0  0
   45.0340   36.0100   43.0760 S   0  0  0  0  0  0  0  0  0  0  0  0
   46.9939   34.0331   42.8745 H   0  0  0  0  0  0  0  0  0  0  0  0
   47.7879   32.2338   44.4975 H   0  0  0  0  0  0  0  0  0  0  0  0
   44.0153   34.2981   47.8748 H   0  0  0  0  0  0  0  0  0  0  0  0
   45.0675   32.9227   48.3034 H   0  0  0  0  0  0  0  0  0  0  0  0
   44.5887   37.1343   43.7199 H   0  0  0  0  0  0  0  0  0  0  0  0
  1  6  2  0
  2  1  1  0
  2  3  2  0
  3  4  1  0
  4  5  2  0
  5  7  1  0
  6  5  1  0
  8  1  1  0
  2  9  1  0
  3 10  1  0
  7 11  1  0
  7 12  1  0
  8 13  1  0
M  ISO  3   9  14  10  14  13  11
M  END
>  <minimizedAffinity>  (1) 
-3.4444325

>  <minimizedRMSD>  (1) 
0.208113506

$$$$
