
     RDKit          3D

 15 15  0  0  0  0  0  0  0  0999 V2000
   46.1630   34.6840   43.3540 C   0  0  0  0  0  0  0  0  0  0  0  0
   45.2290   35.7200   43.3400 C   0  0  0  0  0  0  0  0  0  0  0  0
   44.4650   35.9580   44.4920 C   0  0  0  0  0  0  0  0  0  0  0  0
   44.6830   35.1530   45.5720 N   0  0  0  0  0  0  0  0  0  0  0  0
   45.5890   34.1680   45.5480 C   0  0  0  0  0  0  0  0  0  0  0  0
   46.3450   33.9100   44.4510 N   0  0  0  0  0  0  0  0  0  0  0  0
   46.0320   31.8800   46.7580 C   0  0  0  0  0  0  0  0  0  0  0  0
   45.9010   31.4580   45.5890 O   0  0  0  0  0  0  0  0  0  0  0  0
   45.8540   33.3030   46.6470 N   0  0  0  0  0  0  0  0  0  0  0  0
   47.0870   34.4640   41.8280 S   0  0  0  0  0  0  0  0  0  0  0  0
   45.0940   36.3395   42.4411 H   0  0  0  0  0  0  0  0  0  0  0  0
   43.7173   36.7642   44.5236 H   0  0  0  0  0  0  0  0  0  0  0  0
   46.2371   31.2952   47.6668 H   0  0  0  0  0  0  0  0  0  0  0  0
   45.9348   33.7973   47.5470 H   0  0  0  0  0  0  0  0  0  0  0  0
   48.3885   34.1541   42.1229 H   0  0  0  0  0  0  0  0  0  0  0  0
  1  6  2  0
  2  1  1  0
  2  3  2  0
  3  4  1  0
  5  4  2  0
  5  9  1  0
  6  5  1  0
  8  7  2  0
  9  7  1  0
 10  1  1  0
  2 11  1  0
  3 12  1  0
  7 13  1  0
  9 14  1  0
 10 15  1  0
M  ISO  4  11  14  12  14  13   6  15  11
M  END
>  <minimizedAffinity>  (1) 
-3.88621259

>  <minimizedRMSD>  (1) 
2.86000133

$$$$
