
     RDKit          3D

 35 38  0  0  1  0  0  0  0  0999 V2000
   47.0410   33.5050   39.5350 C   0  0  0  0  0  0  0  0  0  0  0  0
   48.4000   33.2340   39.6840 C   0  0  0  0  0  0  0  0  0  0  0  0
   48.9780   33.3900   40.9710 C   0  0  0  0  0  0  0  0  0  0  0  0
   48.1580   33.7970   41.9840 N   0  0  0  0  0  0  0  0  0  0  0  0
   46.8410   34.0470   41.7850 C   0  0  0  0  0  0  0  0  0  0  0  0
   46.2880   33.9050   40.5820 N   0  0  0  0  0  0  0  0  0  0  0  0
   46.0620   34.4690   42.9150 N   0  0  0  0  0  0  0  0  0  0  0  0
   45.1730   35.4920   42.9260 C   0  0  0  0  0  0  0  0  0  0  0  0
   44.6460   35.5740   44.1800 N   0  0  0  0  0  0  0  0  0  0  0  0
   45.2260   34.6030   44.9000 C   0  0  0  0  0  0  0  0  0  0  0  0
   45.1120   34.1880   46.2060 C   0  0  0  0  0  0  0  0  0  0  0  0
   45.8140   33.1690   46.7000 N   0  0  0  0  0  0  0  0  0  0  0  0
   46.6850   32.4760   45.9510 C   0  0  0  0  0  0  0  0  0  0  0  0
   46.7950   32.8840   44.6750 N   0  0  0  0  0  0  0  0  0  0  0  0
   46.1210   33.8930   44.1250 C   0  0  0  0  0  0  0  0  0  0  0  0
   44.2310   34.8250   47.1190 N   0  0  0  0  0  0  0  0  0  0  0  0
   46.3850   33.2860   37.8730 S   0  0  0  0  0  0  0  0  0  0  0  0
   47.5240   32.3690   36.8300 C   0  0  2  0  0  0  0  0  0  0  0  0
   48.5060   33.2480   36.0810 C   0  0  0  0  0  0  0  0  0  0  0  0
   48.8190   32.3700   34.8910 C   0  0  0  0  0  0  0  0  0  0  0  0
   47.8330   31.4070   34.7870 O   0  0  0  0  0  0  0  0  0  0  0  0
   46.8100   31.7270   35.6400 C   0  0  0  0  0  0  0  0  0  0  0  0
   49.0082   32.9080   38.8274 H   0  0  0  0  0  0  0  0  0  0  0  0
   50.0456   33.1906   41.1456 H   0  0  0  0  0  0  0  0  0  0  0  0
   44.9216   36.1408   42.0740 H   0  0  0  0  0  0  0  0  0  0  0  0
   47.2677   31.6338   46.3525 H   0  0  0  0  0  0  0  0  0  0  0  0
   44.1675   34.4913   48.0914 H   0  0  0  0  0  0  0  0  0  0  0  0
   43.6553   35.6209   46.8090 H   0  0  0  0  0  0  0  0  0  0  0  0
   47.9923   31.6762   37.5446 H   0  0  0  0  0  0  0  0  0  0  0  0
   48.0458   34.1985   35.7732 H   0  0  0  0  0  0  0  0  0  0  0  0
   49.3856   33.5517   36.6676 H   0  0  0  0  0  0  0  0  0  0  0  0
   48.8410   32.9794   33.9755 H   0  0  0  0  0  0  0  0  0  0  0  0
   49.8011   31.8922   35.0222 H   0  0  0  0  0  0  0  0  0  0  0  0
   46.1137   32.4369   35.1698 H   0  0  0  0  0  0  0  0  0  0  0  0
   46.2017   30.8559   35.9248 H   0  0  0  0  0  0  0  0  0  0  0  0
  1  2  2  0
  1  6  1  0
  2  3  1  0
  3  4  2  0
  5  4  1  0
  5  7  1  0
  6  5  2  0
  7  8  1  0
  7 15  1  0
  8  9  2  0
  9 10  1  0
 10 11  2  0
 11 12  1  0
 11 16  1  0
 13 12  2  0
 14 13  1  0
 15 14  2  0
 15 10  1  0
 17  1  1  0
 18 17  1  0
 19 18  1  0
 20 19  1  0
 21 20  1  0
 21 22  1  0
 22 18  1  0
  2 23  1  0
  3 24  1  0
  8 25  1  0
 13 26  1  0
 16 27  1  0
 16 28  1  0
 18 29  1  1
 19 30  1  0
 19 31  1  0
 20 32  1  0
 20 33  1  0
 22 34  1  0
 22 35  1  0
M  ISO  8  23  14  24  14  25  14  26  14  29  13  30  13  31  13  32  13
M  ISO  3  33  13  34  13  35  13
M  END
>  <minimizedAffinity>  (1) 
-5.71891308

>  <minimizedRMSD>  (1) 
1.96378446

$$$$
