
     RDKit          3D

 19 19  0  0  0  0  0  0  0  0999 V2000
   44.6620   35.9660   42.4220 C   0  0  0  0  0  0  0  0  0  0  0  0
   44.4930   35.5730   44.8110 C   0  0  0  0  0  0  0  0  0  0  0  0
   45.0290   35.1420   43.5830 C   0  0  0  0  0  0  0  0  0  0  0  0
   45.8330   34.0140   43.5930 C   0  0  0  0  0  0  0  0  0  0  0  0
   46.0650   33.3850   44.7640 N   0  0  0  0  0  0  0  0  0  0  0  0
   45.5340   33.8270   45.9180 C   0  0  0  0  0  0  0  0  0  0  0  0
   44.7390   34.9230   45.9830 N   0  0  0  0  0  0  0  0  0  0  0  0
   44.2970   35.1990   41.3220 O   0  0  0  0  0  0  0  0  0  0  0  0
   42.3500   33.3810   41.3950 O   0  0  0  0  0  0  0  0  0  0  0  0
   42.6550   34.8560   41.2810 P   0  0  0  0  0  0  0  0  0  0  0  0
   41.8120   35.7040   42.4790 O   0  0  0  0  0  0  0  0  0  0  0  0
   41.9940   35.3430   39.7770 O   0  0  0  0  0  0  0  0  0  0  0  0
   43.8151   36.6106   42.6999 H   0  0  0  0  0  0  0  0  0  0  0  0
   45.5442   36.5591   42.1394 H   0  0  0  0  0  0  0  0  0  0  0  0
   43.8523   36.4670   44.8251 H   0  0  0  0  0  0  0  0  0  0  0  0
   46.2760   33.6364   42.6596 H   0  0  0  0  0  0  0  0  0  0  0  0
   45.7535   33.2776   46.8454 H   0  0  0  0  0  0  0  0  0  0  0  0
   42.1134   35.4008   43.3719 H   0  0  0  0  0  0  0  0  0  0  0  0
   41.2071   35.9227   39.9346 H   0  0  0  0  0  0  0  0  0  0  0  0
  1  3  1  0
  2  7  2  0
  3  4  2  0
  3  2  1  0
  4  5  1  0
  5  6  2  0
  6  7  1  0
  8  1  1  0
 10  8  1  0
 10  9  2  0
 10 11  1  0
 12 10  1  0
  1 13  1  0
  1 14  1  0
  2 15  1  0
  4 16  1  0
  6 17  1  0
 11 18  1  0
 12 19  1  0
M  ISO  7  13   8  14   8  15  14  16  14  17  14  18   3  19   3
M  END
>  <minimizedAffinity>  (1) 
-3.80630803

>  <minimizedRMSD>  (1) 
1.40810525

$$$$
