
     RDKit          3D

 29 30  0  0  0  0  0  0  0  0999 V2000
   44.2500   35.7850   42.0960 C   0  0  0  0  0  0  0  0  0  0  0  0
   44.3780   35.7490   44.5280 C   0  0  0  0  0  0  0  0  0  0  0  0
   44.6720   35.0830   43.3320 C   0  0  0  0  0  0  0  0  0  0  0  0
   45.3150   33.8530   43.3930 C   0  0  0  0  0  0  0  0  0  0  0  0
   45.6140   33.3850   44.6050 N   0  0  0  0  0  0  0  0  0  0  0  0
   45.3300   34.0270   45.7550 C   0  0  0  0  0  0  0  0  0  0  0  0
   44.7020   35.2320   45.7510 N   0  0  0  0  0  0  0  0  0  0  0  0
   42.9460   35.4770   41.7260 O   0  0  0  0  0  0  0  0  0  0  0  0
   42.7000   35.1040   37.8560 N   0  0  0  0  0  0  0  0  0  0  0  0
   43.1040   33.8470   38.4510 C   0  0  0  0  0  0  0  0  0  0  0  0
   43.4580   33.9970   39.8970 C   0  0  0  0  0  0  0  0  0  0  0  0
   42.7800   35.2590   40.3940 C   0  0  0  0  0  0  0  0  0  0  0  0
   41.3720   35.2450   39.9060 C   0  0  0  0  0  0  0  0  0  0  0  0
   41.4260   35.5600   38.4140 C   0  0  0  0  0  0  0  0  0  0  0  0
   44.3217   36.8696   42.2647 H   0  0  0  0  0  0  0  0  0  0  0  0
   44.9139   35.4566   41.2827 H   0  0  0  0  0  0  0  0  0  0  0  0
   43.8683   36.7227   44.4817 H   0  0  0  0  0  0  0  0  0  0  0  0
   45.5662   33.2903   42.4818 H   0  0  0  0  0  0  0  0  0  0  0  0
   45.6115   33.5676   46.7140 H   0  0  0  0  0  0  0  0  0  0  0  0
   42.5970   34.9781   36.8389 H   0  0  0  0  0  0  0  0  0  0  0  0
   42.2751   33.1295   38.3613 H   0  0  0  0  0  0  0  0  0  0  0  0
   43.9985   33.4920   37.9183 H   0  0  0  0  0  0  0  0  0  0  0  0
   43.0985   33.1267   40.4656 H   0  0  0  0  0  0  0  0  0  0  0  0
   44.5483   34.0609   40.0283 H   0  0  0  0  0  0  0  0  0  0  0  0
   43.2702   36.1482   39.9708 H   0  0  0  0  0  0  0  0  0  0  0  0
   40.9234   34.2539   40.0689 H   0  0  0  0  0  0  0  0  0  0  0  0
   40.7573   35.9807   40.4453 H   0  0  0  0  0  0  0  0  0  0  0  0
   41.3307   36.6459   38.2665 H   0  0  0  0  0  0  0  0  0  0  0  0
   40.6004   35.0424   37.9037 H   0  0  0  0  0  0  0  0  0  0  0  0
  1  3  1  0
  2  7  2  0
  3  4  2  0
  3  2  1  0
  4  5  1  0
  5  6  2  0
  7  6  1  0
  8  1  1  0
  9 14  1  0
  9 10  1  0
 10 11  1  0
 11 12  1  0
 12  8  1  0
 13 12  1  0
 14 13  1  0
  1 15  1  0
  1 16  1  0
  2 17  1  0
  4 18  1  0
  6 19  1  0
  9 20  1  0
 10 21  1  0
 10 22  1  0
 11 23  1  0
 11 24  1  0
 12 25  1  0
 13 26  1  0
 13 27  1  0
 14 28  1  0
 14 29  1  0
M  ISO  8  15   8  16   8  17  14  18  14  19  14  20   5  21  13  22  13
M  ISO  7  23  13  24  13  25  13  26  13  27  13  28  13  29  13
M  END
>  <minimizedAffinity>  (1) 
-4.35658169

>  <minimizedRMSD>  (1) 
1.14157236

$$$$
