
     RDKit          3D

 18 18  0  0  0  0  0  0  0  0999 V2000
   44.4290   35.6310   44.5700 C   0  0  0  0  0  0  0  0  0  0  0  0
   44.8020   34.9920   43.3930 C   0  0  0  0  0  0  0  0  0  0  0  0
   45.4880   33.8000   43.5250 C   0  0  0  0  0  0  0  0  0  0  0  0
   45.7420   33.3500   44.7590 N   0  0  0  0  0  0  0  0  0  0  0  0
   45.3720   33.9860   45.8810 C   0  0  0  0  0  0  0  0  0  0  0  0
   44.6910   35.1660   45.8130 N   0  0  0  0  0  0  0  0  0  0  0  0
   44.4100   35.6800   42.1530 C   0  0  0  0  0  0  0  0  0  0  0  0
   43.5140   34.9500   41.3810 O   0  0  0  0  0  0  0  0  0  0  0  0
   42.2020   35.3300   41.1310 C   0  0  0  0  0  0  0  0  0  0  0  0
   41.8110   35.4070   39.9330 O   0  0  0  0  0  0  0  0  0  0  0  0
   41.4860   35.5800   42.3600 N   0  0  0  0  0  0  0  0  0  0  0  0
   43.8823   36.5817   44.4845 H   0  0  0  0  0  0  0  0  0  0  0  0
   45.8164   33.2362   42.6394 H   0  0  0  0  0  0  0  0  0  0  0  0
   45.6193   33.5533   46.8616 H   0  0  0  0  0  0  0  0  0  0  0  0
   43.9418   36.6393   42.4186 H   0  0  0  0  0  0  0  0  0  0  0  0
   45.3218   35.8170   41.5532 H   0  0  0  0  0  0  0  0  0  0  0  0
   40.4984   35.8710   42.3306 H   0  0  0  0  0  0  0  0  0  0  0  0
   41.9629   35.4673   43.2659 H   0  0  0  0  0  0  0  0  0  0  0  0
  1  6  2  0
  2  3  2  0
  2  1  1  0
  3  4  1  0
  4  5  2  0
  6  5  1  0
  7  2  1  0
  8  7  1  0
  9  8  1  0
  9 11  1  0
 10  9  2  0
  1 12  1  0
  3 13  1  0
  5 14  1  0
  7 15  1  0
  7 16  1  0
 11 17  1  0
 11 18  1  0
M  ISO  5  12  14  13  14  14  14  15   8  16   8
M  END
>  <minimizedAffinity>  (1) 
-3.57197142

>  <minimizedRMSD>  (1) 
0.789666891

$$$$
