
     RDKit          3D

 20 20  0  0  0  0  0  0  0  0999 V2000
   44.2040   35.7130   43.9490 C   0  0  0  0  0  0  0  0  0  0  0  0
   44.2040   34.8530   42.8550 C   0  0  0  0  0  0  0  0  0  0  0  0
   44.8370   33.6340   43.0060 C   0  0  0  0  0  0  0  0  0  0  0  0
   45.4070   33.3600   44.1860 N   0  0  0  0  0  0  0  0  0  0  0  0
   45.4010   34.2000   45.2360 C   0  0  0  0  0  0  0  0  0  0  0  0
   44.7900   35.4300   45.1590 N   0  0  0  0  0  0  0  0  0  0  0  0
   43.5140   35.3750   41.6700 C   0  0  0  0  0  0  0  0  0  0  0  0
   42.1250   35.4130   41.8040 O   0  0  0  0  0  0  0  0  0  0  0  0
   41.5620   35.4430   40.5300 C   0  0  0  0  0  0  0  0  0  0  0  0
   40.2700   36.2410   40.5550 C   0  0  0  0  0  0  0  0  0  0  0  0
   43.7009   36.6849   43.8375 H   0  0  0  0  0  0  0  0  0  0  0  0
   44.8716   32.9089   42.1796 H   0  0  0  0  0  0  0  0  0  0  0  0
   45.8931   33.8984   46.1724 H   0  0  0  0  0  0  0  0  0  0  0  0
   43.7632   34.7337   40.8117 H   0  0  0  0  0  0  0  0  0  0  0  0
   43.8532   36.4119   41.5297 H   0  0  0  0  0  0  0  0  0  0  0  0
   41.3496   34.4152   40.2007 H   0  0  0  0  0  0  0  0  0  0  0  0
   42.2680   35.9182   39.8330 H   0  0  0  0  0  0  0  0  0  0  0  0
   39.9726   36.4247   41.5980 H   0  0  0  0  0  0  0  0  0  0  0  0
   40.4228   37.2023   40.0426 H   0  0  0  0  0  0  0  0  0  0  0  0
   39.4789   35.6740   40.0426 H   0  0  0  0  0  0  0  0  0  0  0  0
  1  6  2  0
  2  3  2  0
  2  1  1  0
  3  4  1  0
  4  5  2  0
  6  5  1  0
  7  8  1  0
  7  2  1  0
  9 10  1  0
  9  8  1  0
  1 11  1  0
  3 12  1  0
  5 13  1  0
  7 14  1  0
  7 15  1  0
  9 16  1  0
  9 17  1  0
 10 18  1  0
 10 19  1  0
 10 20  1  0
M  ISO  8  11  14  12  14  13  14  14   8  15   8  16   8  17   8  18   8
M  ISO  2  19   8  20   8
M  END
>  <minimizedAffinity>  (1) 
-3.1517334

>  <minimizedRMSD>  (1) 
0.786414146

$$$$
