
     RDKit          3D

 23 23  0  0  0  0  0  0  0  0999 V2000
   43.6110   35.5720   41.4300 C   0  0  0  0  0  0  0  0  0  0  0  0
   44.2570   35.8340   43.7120 C   0  0  0  0  0  0  0  0  0  0  0  0
   44.2120   34.9480   42.6230 C   0  0  0  0  0  0  0  0  0  0  0  0
   44.7290   33.6950   42.8030 C   0  0  0  0  0  0  0  0  0  0  0  0
   45.2410   33.4150   44.0130 N   0  0  0  0  0  0  0  0  0  0  0  0
   45.2810   34.2560   45.0430 C   0  0  0  0  0  0  0  0  0  0  0  0
   44.7760   35.5430   44.9360 N   0  0  0  0  0  0  0  0  0  0  0  0
   42.2360   35.5820   41.4030 O   0  0  0  0  0  0  0  0  0  0  0  0
   41.4140   34.8450   40.5690 C   0  0  0  0  0  0  0  0  0  0  0  0
   40.0890   34.9110   40.8050 C   0  0  0  0  0  0  0  0  0  0  0  0
   38.9800   34.2460   40.0220 C   0  0  0  0  0  0  0  0  0  0  0  0
   38.3140   33.2220   40.7740 N   0  0  0  0  0  0  0  0  0  0  0  0
   43.9597   36.6140   41.3790 H   0  0  0  0  0  0  0  0  0  0  0  0
   43.9282   34.9594   40.5732 H   0  0  0  0  0  0  0  0  0  0  0  0
   43.8404   36.8413   43.5640 H   0  0  0  0  0  0  0  0  0  0  0  0
   44.7258   32.9500   41.9937 H   0  0  0  0  0  0  0  0  0  0  0  0
   45.7218   33.9251   45.9949 H   0  0  0  0  0  0  0  0  0  0  0  0
   41.8232   34.2336   39.7512 H   0  0  0  0  0  0  0  0  0  0  0  0
   39.7783   35.5192   41.6673 H   0  0  0  0  0  0  0  0  0  0  0  0
   39.4098   33.7949   39.1155 H   0  0  0  0  0  0  0  0  0  0  0  0
   38.2356   35.0176   39.7760 H   0  0  0  0  0  0  0  0  0  0  0  0
   38.4322   33.4037   41.7809 H   0  0  0  0  0  0  0  0  0  0  0  0
   37.3108   33.2220   40.5405 H   0  0  0  0  0  0  0  0  0  0  0  0
  1  3  1  0
  2  7  2  0
  3  4  2  0
  3  2  1  0
  4  5  1  0
  5  6  2  0
  7  6  1  0
  8  1  1  0
  9 10  2  0
  9  8  1  0
 11 12  1  0
 11 10  1  0
  1 13  1  0
  1 14  1  0
  2 15  1  0
  4 16  1  0
  6 17  1  0
  9 18  1  0
 10 19  1  0
 11 20  1  0
 11 21  1  0
 12 22  1  0
 12 23  1  0
M  ISO  8  13   8  14   8  15  14  16  14  17  14  20   8  21   8  22   5
M  ISO  1  23   5
M  END
>  <minimizedAffinity>  (1) 
-3.81211185

>  <minimizedRMSD>  (1) 
0.752100527

$$$$
