
     RDKit          3D

 38 40  0  0  0  0  0  0  0  0999 V2000
   45.1180   35.7670   43.4980 C   0  0  0  0  0  0  0  0  0  0  0  0
   43.8130   35.5560   41.3230 C   0  0  0  0  0  0  0  0  0  0  0  0
   43.8810   35.4970   42.6600 C   0  0  0  0  0  0  0  0  0  0  0  0
   42.5840   35.2690   40.7530 O   0  0  0  0  0  0  0  0  0  0  0  0
   41.3390   35.6780   41.1850 C   0  0  0  0  0  0  0  0  0  0  0  0
   40.2800   33.5490   41.6190 C   0  0  0  0  0  0  0  0  0  0  0  0
   40.2470   34.7290   40.8490 C   0  0  0  0  0  0  0  0  0  0  0  0
   39.2520   34.8510   39.9340 C   0  0  0  0  0  0  0  0  0  0  0  0
   38.3790   33.8480   39.8280 N   0  0  0  0  0  0  0  0  0  0  0  0
   38.4100   32.7320   40.5580 C   0  0  0  0  0  0  0  0  0  0  0  0
   39.4030   32.5360   41.5190 N   0  0  0  0  0  0  0  0  0  0  0  0
   44.9700   35.0700   44.6760 O   0  0  0  0  0  0  0  0  0  0  0  0
   45.2460   32.5470   43.8830 O   0  0  0  0  0  0  0  0  0  0  0  0
   45.8860   33.6450   44.6840 P   0  0  1  0  0  0  0  0  0  0  0  0
   47.4210   33.9490   44.0520 O   0  0  0  0  0  0  0  0  0  0  0  0
   46.0940   33.1470   46.3010 O   0  0  0  0  0  0  0  0  0  0  0  0
   45.0810   30.9710   46.7830 N   0  0  0  0  0  0  0  0  0  0  0  0
   46.1380   31.7890   46.5960 C   0  0  0  0  0  0  0  0  0  0  0  0
   47.2240   31.0060   46.7580 N   0  0  0  0  0  0  0  0  0  0  0  0
   46.8560   29.7460   47.0370 C   0  0  0  0  0  0  0  0  0  0  0  0
   47.4980   28.5510   47.2920 C   0  0  0  0  0  0  0  0  0  0  0  0
   46.8730   27.3900   47.5500 N   0  0  0  0  0  0  0  0  0  0  0  0
   45.5110   27.4230   47.5540 C   0  0  0  0  0  0  0  0  0  0  0  0
   44.8190   28.5570   47.3120 N   0  0  0  0  0  0  0  0  0  0  0  0
   45.4750   29.7150   47.0540 C   0  0  0  0  0  0  0  0  0  0  0  0
   45.2055   36.8437   43.7053 H   0  0  0  0  0  0  0  0  0  0  0  0
   46.0273   35.4489   42.9669 H   0  0  0  0  0  0  0  0  0  0  0  0
   44.6879   35.8187   40.7102 H   0  0  0  0  0  0  0  0  0  0  0  0
   42.9595   35.2294   43.1978 H   0  0  0  0  0  0  0  0  0  0  0  0
   41.3724   35.7955   42.2782 H   0  0  0  0  0  0  0  0  0  0  0  0
   41.1141   36.6220   40.6671 H   0  0  0  0  0  0  0  0  0  0  0  0
   41.0870   33.4496   42.3599 H   0  0  0  0  0  0  0  0  0  0  0  0
   39.1683   35.7468   39.3011 H   0  0  0  0  0  0  0  0  0  0  0  0
   37.6446   31.9577   40.4009 H   0  0  0  0  0  0  0  0  0  0  0  0
   48.0640   34.0764   44.7939 H   0  0  0  0  0  0  0  0  0  0  0  0
   44.0974   31.2711   46.7254 H   0  0  0  0  0  0  0  0  0  0  0  0
   48.5980   28.5491   47.2834 H   0  0  0  0  0  0  0  0  0  0  0  0
   44.9569   26.4956   47.7611 H   0  0  0  0  0  0  0  0  0  0  0  0
  1 12  1  0
  2  3  2  0
  3  1  1  0
  4  5  1  0
  4  2  1  0
  7  5  1  0
  7  6  2  0
  8  7  1  0
  9  8  2  0
  9 10  1  0
 10 11  2  0
 11  6  1  0
 12 14  1  0
 14 13  2  0
 14 16  1  0
 15 14  1  0
 16 18  1  0
 17 25  1  0
 18 19  2  0
 18 17  1  0
 19 20  1  0
 20 25  2  0
 20 21  1  0
 21 22  2  0
 22 23  1  0
 24 23  2  0
 25 24  1  0
  1 26  1  0
  1 27  1  0
  2 28  1  0
  3 29  1  0
  5 30  1  0
  5 31  1  0
  6 32  1  0
  8 33  1  0
 10 34  1  0
 15 35  1  0
 17 36  1  0
 21 37  1  0
 23 38  1  0
M  ISO  8  26   8  27   8  30   8  31   8  32  14  33  14  34  14  35   3
M  ISO  3  36   9  37  14  38  14
M  END
>  <minimizedAffinity>  (1) 
-5.43396854

>  <minimizedRMSD>  (1) 
1.36314631

$$$$
