
     RDKit          3D

 44 46  0  0  0  0  0  0  0  0999 V2000
   41.1400   35.2240   41.2470 C   0  0  0  0  0  0  0  0  0  0  0  0
   40.9430   32.8160   41.5690 C   0  0  0  0  0  0  0  0  0  0  0  0
   40.3050   33.9880   41.1180 C   0  0  0  0  0  0  0  0  0  0  0  0
   39.0430   33.8950   40.6430 C   0  0  0  0  0  0  0  0  0  0  0  0
   38.4930   32.6810   40.6410 N   0  0  0  0  0  0  0  0  0  0  0  0
   39.0750   31.5630   41.0610 C   0  0  0  0  0  0  0  0  0  0  0  0
   40.3780   31.5980   41.5610 N   0  0  0  0  0  0  0  0  0  0  0  0
   38.4530   30.2790   41.0420 N   0  0  0  0  0  0  0  0  0  0  0  0
   37.5830   29.9770   40.0530 C   0  0  0  0  0  0  0  0  0  0  0  0
   37.0120   28.7230   40.0850 C   0  0  0  0  0  0  0  0  0  0  0  0
   37.3080   27.7950   41.0880 C   0  0  0  0  0  0  0  0  0  0  0  0
   36.8070   26.6430   41.1520 O   0  0  0  0  0  0  0  0  0  0  0  0
   38.1900   28.1600   42.0540 N   0  0  0  0  0  0  0  0  0  0  0  0
   38.7490   29.3830   42.0260 C   0  0  0  0  0  0  0  0  0  0  0  0
   39.5740   29.7570   42.9070 O   0  0  0  0  0  0  0  0  0  0  0  0
   42.2910   35.1860   40.5260 O   0  0  0  0  0  0  0  0  0  0  0  0
   43.5880   35.3100   40.9920 C   0  0  0  0  0  0  0  0  0  0  0  0
   43.7420   35.3740   42.3110 C   0  0  0  0  0  0  0  0  0  0  0  0
   45.0620   35.5070   43.0460 C   0  0  0  0  0  0  0  0  0  0  0  0
   44.9780   34.7360   44.1880 O   0  0  0  0  0  0  0  0  0  0  0  0
   45.7320   32.5760   42.8250 O   0  0  0  0  0  0  0  0  0  0  0  0
   45.9770   33.3830   44.0790 P   0  0  1  0  0  0  0  0  0  0  0  0
   47.6140   33.8670   44.0460 O   0  0  0  0  0  0  0  0  0  0  0  0
   45.7900   32.4060   45.4410 O   0  0  0  0  0  0  0  0  0  0  0  0
   46.1420   33.0510   46.6070 C   0  0  0  0  0  0  0  0  0  0  0  0
   47.0520   32.3760   47.5820 C   0  0  0  0  0  0  0  0  0  0  0  0
   45.5640   32.4640   47.8660 C   0  0  0  0  0  0  0  0  0  0  0  0
   40.5440   36.0825   40.9039 H   0  0  0  0  0  0  0  0  0  0  0  0
   41.4276   35.3072   42.3055 H   0  0  0  0  0  0  0  0  0  0  0  0
   41.9702   32.9043   41.9524 H   0  0  0  0  0  0  0  0  0  0  0  0
   38.4973   34.7770   40.2765 H   0  0  0  0  0  0  0  0  0  0  0  0
   37.3416   30.6989   39.2589 H   0  0  0  0  0  0  0  0  0  0  0  0
   36.2996   28.4429   39.2950 H   0  0  0  0  0  0  0  0  0  0  0  0
   38.4307   27.5006   42.8077 H   0  0  0  0  0  0  0  0  0  0  0  0
   44.4472   35.3534   40.3066 H   0  0  0  0  0  0  0  0  0  0  0  0
   42.8301   35.3262   42.9244 H   0  0  0  0  0  0  0  0  0  0  0  0
   45.8845   35.1482   42.4097 H   0  0  0  0  0  0  0  0  0  0  0  0
   45.2604   36.5585   43.3009 H   0  0  0  0  0  0  0  0  0  0  0  0
   47.9477   33.9657   44.9728 H   0  0  0  0  0  0  0  0  0  0  0  0
   46.1652   34.0382   46.1223 H   0  0  0  0  0  0  0  0  0  0  0  0
   47.5076   31.4071   47.3295 H   0  0  0  0  0  0  0  0  0  0  0  0
   47.9658   32.6646   48.1221 H   0  0  0  0  0  0  0  0  0  0  0  0
   45.1923   33.1247   48.6631 H   0  0  0  0  0  0  0  0  0  0  0  0
   44.7681   31.7410   48.0980 H   0  0  0  0  0  0  0  0  0  0  0  0
  3  1  1  0
  3  2  2  0
  4  3  1  0
  5  4  2  0
  5  6  1  0
  6  7  2  0
  7  2  1  0
  8  6  1  0
  8 14  1  0
  9 10  2  0
  9  8  1  0
 10 11  1  0
 11 12  2  0
 11 13  1  0
 14 13  1  0
 14 15  2  0
 16 17  1  0
 16  1  1  0
 17 18  2  0
 18 19  1  0
 19 20  1  0
 22 21  2  0
 22 20  1  0
 22 24  1  0
 23 22  1  0
 24 25  1  0
 25 26  1  0
 25 27  1  0
 26 27  1  0
  1 28  1  0
  1 29  1  0
  2 30  1  0
  4 31  1  0
  9 32  1  0
 10 33  1  0
 13 34  1  0
 17 35  1  0
 18 36  1  0
 19 37  1  0
 19 38  1  0
 23 39  1  0
 25 40  1  0
 26 41  1  0
 26 42  1  0
 27 43  1  0
 27 44  1  0
M  ISO  8  28   8  29   8  30  14  31  14  32  14  33  14  34   9  37   8
M  ISO  7  38   8  39   3  40  13  41  13  42  13  43  13  44  13
M  END
>  <minimizedAffinity>  (1) 
-5.64103889

>  <minimizedRMSD>  (1) 
1.60566294

$$$$
