
     RDKit          3D

 43 45  0  0  0  0  0  0  0  0999 V2000
   42.8710   35.4390   40.6580 O   0  0  0  0  0  0  0  0  0  0  0  0
   41.6270   35.6490   41.1700 C   0  0  0  0  0  0  0  0  0  0  0  0
   41.0820   33.2720   41.2880 C   0  0  0  0  0  0  0  0  0  0  0  0
   40.6600   34.5430   40.8610 C   0  0  0  0  0  0  0  0  0  0  0  0
   39.4580   34.6520   40.2430 C   0  0  0  0  0  0  0  0  0  0  0  0
   38.7640   33.5170   40.0900 N   0  0  0  0  0  0  0  0  0  0  0  0
   39.1450   32.3190   40.4850 C   0  0  0  0  0  0  0  0  0  0  0  0
   40.3710   32.1520   41.1270 N   0  0  0  0  0  0  0  0  0  0  0  0
   38.3160   31.1340   40.2760 C   0  0  0  0  0  0  0  0  0  0  0  0
   38.3770   30.4290   39.0910 C   0  0  0  0  0  0  0  0  0  0  0  0
   37.5820   29.3020   38.9070 C   0  0  0  0  0  0  0  0  0  0  0  0
   36.7540   28.9630   39.9820 C   0  0  0  0  0  0  0  0  0  0  0  0
   36.7140   29.6860   41.1560 C   0  0  0  0  0  0  0  0  0  0  0  0
   37.5090   30.7830   41.2940 N   0  0  0  0  0  0  0  0  0  0  0  0
   44.0730   35.3280   41.3380 C   0  0  0  0  0  0  0  0  0  0  0  0
   44.0350   35.6200   42.6340 C   0  0  0  0  0  0  0  0  0  0  0  0
   45.2090   35.5740   43.5940 C   0  0  0  0  0  0  0  0  0  0  0  0
   44.9390   34.5990   44.5310 O   0  0  0  0  0  0  0  0  0  0  0  0
   45.5850   32.4600   43.0820 O   0  0  0  0  0  0  0  0  0  0  0  0
   45.9380   33.2560   44.3160 P   0  0  1  0  0  0  0  0  0  0  0  0
   47.5580   33.7520   44.1290 O   0  0  0  0  0  0  0  0  0  0  0  0
   45.8780   32.2670   45.6830 O   0  0  0  0  0  0  0  0  0  0  0  0
   46.2220   32.9470   46.8360 C   0  0  0  0  0  0  0  0  0  0  0  0
   47.1640   32.3120   47.8080 C   0  0  0  0  0  0  0  0  0  0  0  0
   45.6880   32.3340   48.1120 C   0  0  0  0  0  0  0  0  0  0  0  0
   41.7111   35.7433   42.2627 H   0  0  0  0  0  0  0  0  0  0  0  0
   41.2339   36.5638   40.7025 H   0  0  0  0  0  0  0  0  0  0  0  0
   42.0596   33.1944   41.7863 H   0  0  0  0  0  0  0  0  0  0  0  0
   39.0741   35.6194   39.8870 H   0  0  0  0  0  0  0  0  0  0  0  0
   39.0555   30.7588   38.2904 H   0  0  0  0  0  0  0  0  0  0  0  0
   37.6033   28.7157   37.9765 H   0  0  0  0  0  0  0  0  0  0  0  0
   36.1053   28.0798   39.8869 H   0  0  0  0  0  0  0  0  0  0  0  0
   36.0455   29.3790   41.9739 H   0  0  0  0  0  0  0  0  0  0  0  0
   45.0013   35.0174   40.8363 H   0  0  0  0  0  0  0  0  0  0  0  0
   43.0624   35.9231   43.0490 H   0  0  0  0  0  0  0  0  0  0  0  0
   46.1312   35.3256   43.0482 H   0  0  0  0  0  0  0  0  0  0  0  0
   45.3510   36.5505   44.0802 H   0  0  0  0  0  0  0  0  0  0  0  0
   47.9695   33.8780   45.0205 H   0  0  0  0  0  0  0  0  0  0  0  0
   46.2010   33.9312   46.3452 H   0  0  0  0  0  0  0  0  0  0  0  0
   47.6575   31.3625   47.5532 H   0  0  0  0  0  0  0  0  0  0  0  0
   48.0692   32.6426   48.3383 H   0  0  0  0  0  0  0  0  0  0  0  0
   45.2993   32.9792   48.9136 H   0  0  0  0  0  0  0  0  0  0  0  0
   44.9291   31.5764   48.3573 H   0  0  0  0  0  0  0  0  0  0  0  0
  1  2  1  0
  1 15  1  0
  4  2  1  0
  4  3  2  0
  5  4  1  0
  6  5  2  0
  6  7  1  0
  7  8  2  0
  8  3  1  0
  9  7  1  0
  9 14  1  0
 10  9  2  0
 11 10  1  0
 11 12  2  0
 12 13  1  0
 13 14  2  0
 15 16  2  0
 16 17  1  0
 17 18  1  0
 20 19  2  0
 20 18  1  0
 20 22  1  0
 21 20  1  0
 22 23  1  0
 23 24  1  0
 23 25  1  0
 24 25  1  0
  2 26  1  0
  2 27  1  0
  3 28  1  0
  5 29  1  0
 10 30  1  0
 11 31  1  0
 12 32  1  0
 13 33  1  0
 15 34  1  0
 16 35  1  0
 17 36  1  0
 17 37  1  0
 21 38  1  0
 23 39  1  0
 24 40  1  0
 24 41  1  0
 25 42  1  0
 25 43  1  0
M  ISO  8  26   8  27   8  28  14  29  14  30  14  31  14  32  14  33  14
M  ISO  8  36   8  37   8  38   3  39  13  40  13  41  13  42  13  43  13
M  END
>  <minimizedAffinity>  (1) 
-5.1671176

>  <minimizedRMSD>  (1) 
0.828864634

$$$$
