
     RDKit          3D

 37 38  0  0  0  0  0  0  0  0999 V2000
   45.1670   35.6090   43.1110 C   0  0  0  0  0  0  0  0  0  0  0  0
   43.8380   35.1930   41.0020 C   0  0  0  0  0  0  0  0  0  0  0  0
   43.9030   35.5970   42.2680 C   0  0  0  0  0  0  0  0  0  0  0  0
   42.5900   35.2550   40.4070 O   0  0  0  0  0  0  0  0  0  0  0  0
   41.4020   35.5920   40.9790 C   0  0  0  0  0  0  0  0  0  0  0  0
   40.7010   33.3370   41.6330 C   0  0  0  0  0  0  0  0  0  0  0  0
   40.3810   34.4920   40.8880 C   0  0  0  0  0  0  0  0  0  0  0  0
   39.2150   34.4850   40.1940 C   0  0  0  0  0  0  0  0  0  0  0  0
   38.4660   33.3960   40.2690 N   0  0  0  0  0  0  0  0  0  0  0  0
   38.7620   32.3110   40.9670 C   0  0  0  0  0  0  0  0  0  0  0  0
   39.9420   32.2430   41.7050 N   0  0  0  0  0  0  0  0  0  0  0  0
   37.8290   31.1670   40.9580 C   0  0  0  0  0  0  0  0  0  0  0  0
   44.9500   34.7440   44.1650 O   0  0  0  0  0  0  0  0  0  0  0  0
   45.7170   32.6020   42.7890 O   0  0  0  0  0  0  0  0  0  0  0  0
   45.9550   33.3950   44.0520 P   0  0  1  0  0  0  0  0  0  0  0  0
   47.5890   33.8820   44.0230 O   0  0  0  0  0  0  0  0  0  0  0  0
   45.7590   32.4060   45.4060 O   0  0  0  0  0  0  0  0  0  0  0  0
   46.0860   33.0580   46.5760 C   0  0  0  0  0  0  0  0  0  0  0  0
   47.0160   32.4050   47.5470 C   0  0  0  0  0  0  0  0  0  0  0  0
   45.5370   32.4440   47.8410 C   0  0  0  0  0  0  0  0  0  0  0  0
   45.3617   36.6240   43.4877 H   0  0  0  0  0  0  0  0  0  0  0  0
   46.0404   35.2989   42.5185 H   0  0  0  0  0  0  0  0  0  0  0  0
   44.7241   34.8310   40.4601 H   0  0  0  0  0  0  0  0  0  0  0  0
   42.9731   35.9482   42.7391 H   0  0  0  0  0  0  0  0  0  0  0  0
   41.5757   35.8239   42.0402 H   0  0  0  0  0  0  0  0  0  0  0  0
   41.0046   36.4600   40.4324 H   0  0  0  0  0  0  0  0  0  0  0  0
   41.6461   33.3393   42.1958 H   0  0  0  0  0  0  0  0  0  0  0  0
   38.9039   35.3514   39.5919 H   0  0  0  0  0  0  0  0  0  0  0  0
   37.5933   30.8780   41.9928 H   0  0  0  0  0  0  0  0  0  0  0  0
   36.9032   31.4529   40.4372 H   0  0  0  0  0  0  0  0  0  0  0  0
   38.2953   30.3177   40.4372 H   0  0  0  0  0  0  0  0  0  0  0  0
   47.9204   33.9808   44.9506 H   0  0  0  0  0  0  0  0  0  0  0  0
   46.0700   34.0475   46.0957 H   0  0  0  0  0  0  0  0  0  0  0  0
   47.4993   31.4514   47.2880 H   0  0  0  0  0  0  0  0  0  0  0  0
   47.9224   32.7199   48.0848 H   0  0  0  0  0  0  0  0  0  0  0  0
   45.1510   33.0884   48.6446 H   0  0  0  0  0  0  0  0  0  0  0  0
   44.7668   31.6944   48.0754 H   0  0  0  0  0  0  0  0  0  0  0  0
  1 13  1  0
  2  3  2  0
  3  1  1  0
  4  5  1  0
  4  2  1  0
  6 11  2  0
  7  5  1  0
  7  6  1  0
  8  9  1  0
  8  7  2  0
  9 10  2  0
 10 11  1  0
 12 10  1  0
 15 14  2  0
 15 13  1  0
 15 17  1  0
 16 15  1  0
 17 18  1  0
 18 19  1  0
 18 20  1  0
 19 20  1  0
  1 21  1  0
  1 22  1  0
  2 23  1  0
  3 24  1  0
  5 25  1  0
  5 26  1  0
  6 27  1  0
  8 28  1  0
 12 29  1  0
 12 30  1  0
 12 31  1  0
 16 32  1  0
 18 33  1  0
 19 34  1  0
 19 35  1  0
 20 36  1  0
 20 37  1  0
M  ISO  8  21   8  22   8  25   8  26   8  27  14  28  14  29   8  30   8
M  ISO  7  31   8  32   3  33  13  34  13  35  13  36  13  37  13
M  END
>  <minimizedAffinity>  (1) 
-4.71076012

>  <minimizedRMSD>  (1) 
0.463942856

$$$$
