
     RDKit          3D

 36 37  0  0  0  0  0  0  0  0999 V2000
   43.9660   35.0310   40.9430 C   0  0  0  0  0  0  0  0  0  0  0  0
   43.9540   35.5440   42.1690 C   0  0  0  0  0  0  0  0  0  0  0  0
   45.1430   35.5860   43.1110 C   0  0  0  0  0  0  0  0  0  0  0  0
   44.8820   34.6880   44.1270 O   0  0  0  0  0  0  0  0  0  0  0  0
   45.7370   32.5490   42.7930 O   0  0  0  0  0  0  0  0  0  0  0  0
   45.9370   33.3710   44.0440 P   0  0  1  0  0  0  0  0  0  0  0  0
   47.5480   33.9150   44.0230 O   0  0  0  0  0  0  0  0  0  0  0  0
   45.7550   32.4000   45.4120 O   0  0  0  0  0  0  0  0  0  0  0  0
   46.0930   33.0670   46.5730 C   0  0  0  0  0  0  0  0  0  0  0  0
   47.0200   32.4080   47.5460 C   0  0  0  0  0  0  0  0  0  0  0  0
   45.5340   32.4660   47.8450 C   0  0  0  0  0  0  0  0  0  0  0  0
   42.7790   35.0860   40.2420 O   0  0  0  0  0  0  0  0  0  0  0  0
   41.5920   35.6410   40.6360 C   0  0  0  0  0  0  0  0  0  0  0  0
   40.6440   33.5930   41.5790 C   0  0  0  0  0  0  0  0  0  0  0  0
   40.4670   34.6470   40.6620 C   0  0  0  0  0  0  0  0  0  0  0  0
   39.3250   34.6570   39.9140 C   0  0  0  0  0  0  0  0  0  0  0  0
   38.4640   33.6580   40.1170 N   0  0  0  0  0  0  0  0  0  0  0  0
   38.6350   32.6780   40.9740 C   0  0  0  0  0  0  0  0  0  0  0  0
   39.7650   32.5990   41.7670 N   0  0  0  0  0  0  0  0  0  0  0  0
   37.6330   31.6640   41.0960 N   0  0  0  0  0  0  0  0  0  0  0  0
   44.8742   34.5862   40.5102 H   0  0  0  0  0  0  0  0  0  0  0  0
   43.0070   35.9721   42.5295 H   0  0  0  0  0  0  0  0  0  0  0  0
   46.0596   35.2962   42.5763 H   0  0  0  0  0  0  0  0  0  0  0  0
   45.2930   36.5998   43.5106 H   0  0  0  0  0  0  0  0  0  0  0  0
   47.8715   34.0243   44.9522 H   0  0  0  0  0  0  0  0  0  0  0  0
   46.0890   34.0540   46.0874 H   0  0  0  0  0  0  0  0  0  0  0  0
   47.4918   31.4476   47.2909 H   0  0  0  0  0  0  0  0  0  0  0  0
   47.9315   32.7154   48.0795 H   0  0  0  0  0  0  0  0  0  0  0  0
   45.1568   33.1196   48.6453 H   0  0  0  0  0  0  0  0  0  0  0  0
   44.7547   31.7277   48.0850 H   0  0  0  0  0  0  0  0  0  0  0  0
   41.7167   36.0576   41.6464 H   0  0  0  0  0  0  0  0  0  0  0  0
   41.3304   36.4193   39.9040 H   0  0  0  0  0  0  0  0  0  0  0  0
   41.5647   33.5850   42.1808 H   0  0  0  0  0  0  0  0  0  0  0  0
   39.1242   35.4506   39.1792 H   0  0  0  0  0  0  0  0  0  0  0  0
   37.7603   30.8922   41.7661 H   0  0  0  0  0  0  0  0  0  0  0  0
   36.7844   31.7058   40.5137 H   0  0  0  0  0  0  0  0  0  0  0  0
  1  2  2  0
  2  3  1  0
  3  4  1  0
  6  5  2  0
  6  4  1  0
  6  8  1  0
  7  6  1  0
  8  9  1  0
  9 10  1  0
  9 11  1  0
 10 11  1  0
 12 13  1  0
 12  1  1  0
 13 15  1  0
 14 19  2  0
 15 14  1  0
 16 17  1  0
 16 15  2  0
 17 18  2  0
 18 20  1  0
 18 19  1  0
  1 21  1  0
  2 22  1  0
  3 23  1  0
  3 24  1  0
  7 25  1  0
  9 26  1  0
 10 27  1  0
 10 28  1  0
 11 29  1  0
 11 30  1  0
 13 31  1  0
 13 32  1  0
 14 33  1  0
 16 34  1  0
 20 35  1  0
 20 36  1  0
M  ISO  8  23   8  24   8  25   3  26  13  27  13  28  13  29  13  30  13
M  ISO  4  31   8  32   8  33  14  34  14
M  END
>  <minimizedAffinity>  (1) 
-4.88586617

>  <minimizedRMSD>  (1) 
0.404766291

$$$$
