
     RDKit          3D

 43 45  0  0  0  0  0  0  0  0999 V2000
   44.7760   34.8330   41.5900 C   0  0  0  0  0  0  0  0  0  0  0  0
   44.4180   35.2050   42.8090 C   0  0  0  0  0  0  0  0  0  0  0  0
   45.3500   35.2470   44.0030 C   0  0  0  0  0  0  0  0  0  0  0  0
   44.9840   34.2330   44.8580 O   0  0  0  0  0  0  0  0  0  0  0  0
   45.6540   32.0180   43.5370 O   0  0  0  0  0  0  0  0  0  0  0  0
   46.0150   32.9200   44.7050 P   0  0  1  0  0  0  0  0  0  0  0  0
   47.6020   33.4780   44.3990 O   0  0  0  0  0  0  0  0  0  0  0  0
   46.0880   32.0200   46.1160 O   0  0  0  0  0  0  0  0  0  0  0  0
   46.5100   32.7840   47.2010 C   0  0  0  0  0  0  0  0  0  0  0  0
   47.5330   32.1460   48.1130 C   0  0  0  0  0  0  0  0  0  0  0  0
   46.0850   32.3200   48.5600 C   0  0  0  0  0  0  0  0  0  0  0  0
   43.7790   34.8690   40.6390 O   0  0  0  0  0  0  0  0  0  0  0  0
   42.6720   35.6470   40.5670 C   0  0  0  0  0  0  0  0  0  0  0  0
   40.8970   34.4770   41.8210 C   0  0  0  0  0  0  0  0  0  0  0  0
   41.3910   34.8390   40.5710 C   0  0  0  0  0  0  0  0  0  0  0  0
   40.7080   34.4390   39.4480 C   0  0  0  0  0  0  0  0  0  0  0  0
   39.6030   33.7180   39.6620 N   0  0  0  0  0  0  0  0  0  0  0  0
   39.1440   33.3800   40.8410 C   0  0  0  0  0  0  0  0  0  0  0  0
   39.7860   33.7540   42.0060 N   0  0  0  0  0  0  0  0  0  0  0  0
   37.9590   32.5990   40.9240 N   0  0  0  0  0  0  0  0  0  0  0  0
   41.2660   34.8460   38.1570 C   0  0  0  0  0  0  0  0  0  0  0  0
   41.3170   36.2160   37.6370 C   0  0  0  0  0  0  0  0  0  0  0  0
   40.1700   35.4190   37.2090 C   0  0  0  0  0  0  0  0  0  0  0  0
   45.8020   34.5159   41.3517 H   0  0  0  0  0  0  0  0  0  0  0  0
   43.3712   35.5044   42.9660 H   0  0  0  0  0  0  0  0  0  0  0  0
   46.3888   35.1009   43.6722 H   0  0  0  0  0  0  0  0  0  0  0  0
   45.2813   36.2208   44.5100 H   0  0  0  0  0  0  0  0  0  0  0  0
   48.0659   33.6411   45.2583 H   0  0  0  0  0  0  0  0  0  0  0  0
   46.4431   33.7374   46.6564 H   0  0  0  0  0  0  0  0  0  0  0  0
   47.9250   31.1432   47.8877 H   0  0  0  0  0  0  0  0  0  0  0  0
   48.5161   32.4368   48.5118 H   0  0  0  0  0  0  0  0  0  0  0  0
   45.8344   33.0553   49.3388 H   0  0  0  0  0  0  0  0  0  0  0  0
   45.3031   31.6478   48.9431 H   0  0  0  0  0  0  0  0  0  0  0  0
   42.7146   36.2352   39.6385 H   0  0  0  0  0  0  0  0  0  0  0  0
   42.6608   36.2936   41.4568 H   0  0  0  0  0  0  0  0  0  0  0  0
   41.4537   34.8052   42.7111 H   0  0  0  0  0  0  0  0  0  0  0  0
   37.5859   32.3254   41.8443 H   0  0  0  0  0  0  0  0  0  0  0  0
   37.4735   32.3067   40.0639 H   0  0  0  0  0  0  0  0  0  0  0  0
   42.0521   34.0790   38.2179 H   0  0  0  0  0  0  0  0  0  0  0  0
   41.1590   37.0588   38.3260 H   0  0  0  0  0  0  0  0  0  0  0  0
   42.0837   36.7839   37.0896 H   0  0  0  0  0  0  0  0  0  0  0  0
   39.1640   35.6421   37.5939 H   0  0  0  0  0  0  0  0  0  0  0  0
   39.7280   35.1258   36.2453 H   0  0  0  0  0  0  0  0  0  0  0  0
  1  2  2  0
  2  3  1  0
  3  4  1  0
  6  5  2  0
  6  4  1  0
  6  8  1  0
  7  6  1  0
  8  9  1  0
  9 10  1  0
  9 11  1  0
 10 11  1  0
 12  1  1  0
 13 15  1  0
 13 12  1  0
 14 19  2  0
 15 14  1  0
 16 17  1  0
 16 15  2  0
 17 18  2  0
 18 20  1  0
 18 19  1  0
 21 16  1  0
 22 21  1  0
 23 22  1  0
 23 21  1  0
  1 24  1  0
  2 25  1  0
  3 26  1  0
  3 27  1  0
  7 28  1  0
  9 29  1  0
 10 30  1  0
 10 31  1  0
 11 32  1  0
 11 33  1  0
 13 34  1  0
 13 35  1  0
 14 36  1  0
 20 37  1  0
 20 38  1  0
 21 39  1  0
 22 40  1  0
 22 41  1  0
 23 42  1  0
 23 43  1  0
M  ISO  8  26   8  27   8  28   3  29  13  30  13  31  13  32  13  33  13
M  ISO  8  34   8  35   8  36  14  39  13  40  13  41  13  42  13  43  13
M  END
>  <minimizedAffinity>  (1) 
-5.16342926

>  <minimizedRMSD>  (1) 
1.24467337

$$$$
