
     RDKit          3D

 38 39  0  0  0  0  0  0  0  0999 V2000
   44.4190   34.7560   41.0290 C   0  0  0  0  0  0  0  0  0  0  0  0
   44.2300   35.3660   42.2070 C   0  0  0  0  0  0  0  0  0  0  0  0
   45.2800   35.3930   43.2980 C   0  0  0  0  0  0  0  0  0  0  0  0
   44.9230   34.4490   44.2330 O   0  0  0  0  0  0  0  0  0  0  0  0
   45.8410   32.2800   42.9900 O   0  0  0  0  0  0  0  0  0  0  0  0
   45.9990   33.1620   44.2190 P   0  0  1  0  0  0  0  0  0  0  0  0
   47.6000   33.7580   44.1780 O   0  0  0  0  0  0  0  0  0  0  0  0
   45.8600   32.2380   45.6100 O   0  0  0  0  0  0  0  0  0  0  0  0
   46.1270   32.9780   46.7580 C   0  0  0  0  0  0  0  0  0  0  0  0
   47.0690   32.3510   47.7580 C   0  0  0  0  0  0  0  0  0  0  0  0
   45.5730   32.4430   48.0440 C   0  0  0  0  0  0  0  0  0  0  0  0
   43.3690   34.8280   40.1470 O   0  0  0  0  0  0  0  0  0  0  0  0
   42.2140   35.5310   40.2230 C   0  0  0  0  0  0  0  0  0  0  0  0
   40.7290   34.1360   41.6070 C   0  0  0  0  0  0  0  0  0  0  0  0
   40.9880   34.6420   40.3370 C   0  0  0  0  0  0  0  0  0  0  0  0
   40.1460   34.2950   39.3250 C   0  0  0  0  0  0  0  0  0  0  0  0
   39.1340   33.4940   39.6180 N   0  0  0  0  0  0  0  0  0  0  0  0
   38.8890   33.0190   40.8070 C   0  0  0  0  0  0  0  0  0  0  0  0
   39.7020   33.3360   41.8650 N   0  0  0  0  0  0  0  0  0  0  0  0
   37.7670   32.1570   41.0010 N   0  0  0  0  0  0  0  0  0  0  0  0
   40.4020   34.8090   38.0210 C   0  0  0  0  0  0  0  0  0  0  0  0
   40.5400   35.6910   37.1760 O   0  0  0  0  0  0  0  0  0  0  0  0
   45.3545   34.2316   40.7844 H   0  0  0  0  0  0  0  0  0  0  0  0
   43.2693   35.8696   42.3898 H   0  0  0  0  0  0  0  0  0  0  0  0
   46.2669   35.1511   42.8767 H   0  0  0  0  0  0  0  0  0  0  0  0
   45.3401   36.3913   43.7559 H   0  0  0  0  0  0  0  0  0  0  0  0
   47.9302   33.8809   45.1032 H   0  0  0  0  0  0  0  0  0  0  0  0
   46.0806   33.9478   46.2409 H   0  0  0  0  0  0  0  0  0  0  0  0
   47.5316   31.3760   47.5449 H   0  0  0  0  0  0  0  0  0  0  0  0
   47.9858   32.6692   48.2758 H   0  0  0  0  0  0  0  0  0  0  0  0
   45.2014   33.1357   48.8135 H   0  0  0  0  0  0  0  0  0  0  0  0
   44.7861   31.7229   48.3128 H   0  0  0  0  0  0  0  0  0  0  0  0
   42.2578   36.1837   41.1073 H   0  0  0  0  0  0  0  0  0  0  0  0
   42.1174   36.1091   39.2922 H   0  0  0  0  0  0  0  0  0  0  0  0
   41.4035   34.4105   42.4314 H   0  0  0  0  0  0  0  0  0  0  0  0
   37.5654   31.7768   41.9368 H   0  0  0  0  0  0  0  0  0  0  0  0
   37.1594   31.9155   40.2051 H   0  0  0  0  0  0  0  0  0  0  0  0
   40.5750   33.8934   37.4365 H   0  0  0  0  0  0  0  0  0  0  0  0
  1  2  2  0
  2  3  1  0
  3  4  1  0
  6  5  2  0
  6  4  1  0
  6  8  1  0
  7  6  1  0
  8  9  1  0
  9 10  1  0
  9 11  1  0
 10 11  1  0
 12 13  1  0
 12  1  1  0
 13 15  1  0
 14 19  2  0
 15 14  1  0
 16 17  1  0
 16 15  2  0
 17 18  2  0
 18 20  1  0
 18 19  1  0
 21 16  1  0
 22 21  2  0
  1 23  1  0
  2 24  1  0
  3 25  1  0
  3 26  1  0
  7 27  1  0
  9 28  1  0
 10 29  1  0
 10 30  1  0
 11 31  1  0
 11 32  1  0
 13 33  1  0
 13 34  1  0
 14 35  1  0
 20 36  1  0
 20 37  1  0
 21 38  1  0
M  ISO  8  25   8  26   8  27   3  28  13  29  13  30  13  31  13  32  13
M  ISO  4  33   8  34   8  35  14  38   6
M  END
>  <minimizedAffinity>  (1) 
-4.98211861

>  <minimizedRMSD>  (1) 
0.815555751

$$$$
