
     RDKit          3D

 26 27  0  0  0  0  0  0  0  0999 V2000
   48.3930   32.0720   42.4330 C   0  0  0  0  0  0  0  0  0  0  0  0
   49.1720   32.7860   41.4860 C   0  0  0  0  0  0  0  0  0  0  0  0
   50.4610   32.3310   41.2140 C   0  0  0  0  0  0  0  0  0  0  0  0
   50.8990   31.2160   41.8800 N   0  0  0  0  0  0  0  0  0  0  0  0
   50.1370   30.5570   42.7740 C   0  0  0  0  0  0  0  0  0  0  0  0
   48.8920   30.9860   43.0470 N   0  0  0  0  0  0  0  0  0  0  0  0
   47.0240   32.5880   42.6960 C   0  0  0  0  0  0  0  0  0  0  0  0
   46.3620   33.0360   41.4370 C   0  0  0  0  0  0  0  0  0  0  0  0
   46.2020   34.5410   41.3650 C   0  0  0  0  0  0  0  0  0  0  0  0
   45.4550   35.1010   42.5510 C   0  0  0  0  0  0  0  0  0  0  0  0
   45.8820   34.4900   43.8640 C   0  0  0  0  0  0  0  0  0  0  0  0
   47.1440   33.6760   43.7320 C   0  0  0  0  0  0  0  0  0  0  0  0
   48.7690   33.6755   40.9797 H   0  0  0  0  0  0  0  0  0  0  0  0
   51.1054   32.8495   40.4889 H   0  0  0  0  0  0  0  0  0  0  0  0
   50.5340   29.6658   43.2820 H   0  0  0  0  0  0  0  0  0  0  0  0
   46.3702   31.7950   43.0880 H   0  0  0  0  0  0  0  0  0  0  0  0
   46.9705   32.7054   40.5824 H   0  0  0  0  0  0  0  0  0  0  0  0
   45.3554   32.5931   41.4147 H   0  0  0  0  0  0  0  0  0  0  0  0
   47.2008   35.0004   41.3284 H   0  0  0  0  0  0  0  0  0  0  0  0
   45.6169   34.7718   40.4626 H   0  0  0  0  0  0  0  0  0  0  0  0
   45.6324   36.1857   42.5958 H   0  0  0  0  0  0  0  0  0  0  0  0
   44.3905   34.8625   42.4098 H   0  0  0  0  0  0  0  0  0  0  0  0
   46.0562   35.2977   44.5901 H   0  0  0  0  0  0  0  0  0  0  0  0
   45.0798   33.8158   44.1984 H   0  0  0  0  0  0  0  0  0  0  0  0
   47.3688   33.2137   44.7045 H   0  0  0  0  0  0  0  0  0  0  0  0
   47.9476   34.3553   43.4114 H   0  0  0  0  0  0  0  0  0  0  0  0
  1  7  1  0
  1  6  1  0
  2  1  2  0
  3  2  1  0
  3  4  2  0
  4  5  1  0
  5  6  2  0
  7 12  1  0
  8  7  1  0
  9  8  1  0
  9 10  1  0
 10 11  1  0
 12 11  1  0
  2 13  1  0
  3 14  1  0
  5 15  1  0
  7 16  1  0
  8 17  1  0
  8 18  1  0
  9 19  1  0
  9 20  1  0
 10 21  1  0
 10 22  1  0
 11 23  1  0
 11 24  1  0
 12 25  1  0
 12 26  1  0
M  ISO  8  13  14  14  14  15  14  16  13  17  13  18  13  19  13  20  13
M  ISO  6  21  13  22  13  23  13  24  13  25  13  26  13
M  END
>  <minimizedAffinity>  (1) 
-2.81603932

>  <minimizedRMSD>  (1) 
5.60939884

$$$$
