
     RDKit          3D

 35 37  0  0  1  0  0  0  0  0999 V2000
   46.2620   32.0960   46.9340 C   0  0  0  0  0  0  0  0  0  0  0  0
   45.5350   32.9620   47.7140 C   0  0  0  0  0  0  0  0  0  0  0  0
   45.0250   33.8470   46.8460 N   0  0  0  0  0  0  0  0  0  0  0  0
   45.3940   33.5800   45.5730 C   0  0  0  0  0  0  0  0  0  0  0  0
   46.1700   32.4740   45.6570 N   0  0  0  0  0  0  0  0  0  0  0  0
   45.0870   34.2600   44.3000 C   0  0  1  0  0  0  0  0  0  0  0  0
   44.4880   35.6280   44.5230 C   0  0  0  0  0  0  0  0  0  0  0  0
   45.2420   36.4740   43.5420 C   0  0  0  0  0  0  0  0  0  0  0  0
   45.8070   35.5660   42.6160 O   0  0  0  0  0  0  0  0  0  0  0  0
   46.3410   34.6210   43.5090 C   0  0  0  0  0  0  0  0  0  0  0  0
   47.0510   30.9020   47.3990 C   0  0  0  0  0  0  0  0  0  0  0  0
   48.7330   30.5250   49.1570 C   0  0  0  0  0  0  0  0  0  0  0  0
   48.1470   31.3170   48.2870 C   0  0  0  0  0  0  0  0  0  0  0  0
   49.8090   31.0870   49.9730 C   0  0  0  0  0  0  0  0  0  0  0  0
   50.3520   30.3280   51.0500 C   0  0  0  0  0  0  0  0  0  0  0  0
   51.3730   30.9340   51.7850 C   0  0  0  0  0  0  0  0  0  0  0  0
   51.7950   32.1900   51.4520 N   0  0  0  0  0  0  0  0  0  0  0  0
   51.2490   32.8630   50.4270 C   0  0  0  0  0  0  0  0  0  0  0  0
   50.2730   32.3200   49.6990 N   0  0  0  0  0  0  0  0  0  0  0  0
   45.4014   32.9352   48.8055 H   0  0  0  0  0  0  0  0  0  0  0  0
   44.4228   34.6375   47.1169 H   0  0  0  0  0  0  0  0  0  0  0  0
   44.4253   33.5475   43.7857 H   0  0  0  0  0  0  0  0  0  0  0  0
   43.4099   35.6307   44.3046 H   0  0  0  0  0  0  0  0  0  0  0  0
   44.5714   35.9800   45.5618 H   0  0  0  0  0  0  0  0  0  0  0  0
   44.5605   37.1700   43.0310 H   0  0  0  0  0  0  0  0  0  0  0  0
   46.0118   37.0845   44.0366 H   0  0  0  0  0  0  0  0  0  0  0  0
   46.7547   33.7493   42.9807 H   0  0  0  0  0  0  0  0  0  0  0  0
   47.1822   34.9844   44.1175 H   0  0  0  0  0  0  0  0  0  0  0  0
   46.3837   30.2183   47.9442 H   0  0  0  0  0  0  0  0  0  0  0  0
   47.4794   30.3973   46.5205 H   0  0  0  0  0  0  0  0  0  0  0  0
   48.4246   29.4749   49.2677 H   0  0  0  0  0  0  0  0  0  0  0  0
   48.4991   32.3569   48.2189 H   0  0  0  0  0  0  0  0  0  0  0  0
   49.9863   29.3186   51.2896 H   0  0  0  0  0  0  0  0  0  0  0  0
   51.8359   30.4020   52.6292 H   0  0  0  0  0  0  0  0  0  0  0  0
   51.6107   33.8733   50.1851 H   0  0  0  0  0  0  0  0  0  0  0  0
  1 11  1  0
  1  2  2  0
  3  2  1  0
  4  5  2  0
  4  3  1  0
  5  1  1  0
  6  7  1  0
  6  4  1  0
  8  7  1  0
  9 10  1  0
  9  8  1  0
 10  6  1  0
 11 13  1  0
 12 14  1  0
 13 12  2  0
 14 15  2  0
 15 16  1  0
 17 16  2  0
 18 17  1  0
 19 14  1  0
 19 18  2  0
  2 20  1  0
  3 21  1  0
  6 22  1  6
  7 23  1  0
  7 24  1  0
  8 25  1  0
  8 26  1  0
 10 27  1  0
 10 28  1  0
 11 29  1  0
 11 30  1  0
 12 31  1  0
 13 32  1  0
 15 33  1  0
 16 34  1  0
 18 35  1  0
M  ISO  8  20  14  21   9  22  13  23  13  24  13  25  13  26  13  27  13
M  ISO  6  28  13  29   8  30   8  33  14  34  14  35  14
M  END
>  <minimizedAffinity>  (1) 
-5.19962645

>  <minimizedRMSD>  (1) 
4.21110678

$$$$
