
     RDKit          3D

 36 38  0  0  0  0  0  0  0  0999 V2000
   45.3560   33.9030   45.6370 C   0  0  0  0  0  0  0  0  0  0  0  0
   46.0260   32.9190   46.5490 C   0  0  0  0  0  0  0  0  0  0  0  0
   45.5140   32.4590   47.7390 C   0  0  0  0  0  0  0  0  0  0  0  0
   46.4630   31.6050   48.1920 N   0  0  0  0  0  0  0  0  0  0  0  0
   47.5100   31.5260   47.3490 C   0  0  0  0  0  0  0  0  0  0  0  0
   47.2380   32.3430   46.3270 N   0  0  0  0  0  0  0  0  0  0  0  0
   48.5620   30.6650   47.7060 N   0  0  0  0  0  0  0  0  0  0  0  0
   49.0330   29.4900   46.9490 C   0  0  0  0  0  0  0  0  0  0  0  0
   48.6060   28.4150   47.9740 C   0  0  0  0  0  0  0  0  0  0  0  0
   49.2310   29.0380   49.2280 C   0  0  0  0  0  0  0  0  0  0  0  0
   49.5290   30.4940   48.7680 C   0  0  0  0  0  0  0  0  0  0  0  0
   45.9880   34.9090   43.4800 C   0  0  0  0  0  0  0  0  0  0  0  0
   45.9960   33.8620   44.2980 C   0  0  0  0  0  0  0  0  0  0  0  0
   46.6500   34.7350   42.1830 C   0  0  0  0  0  0  0  0  0  0  0  0
   47.9270   35.2980   41.9220 C   0  0  0  0  0  0  0  0  0  0  0  0
   48.4850   35.0940   40.6700 C   0  0  0  0  0  0  0  0  0  0  0  0
   47.8080   34.3770   39.7520 N   0  0  0  0  0  0  0  0  0  0  0  0
   46.5980   33.8510   40.0110 C   0  0  0  0  0  0  0  0  0  0  0  0
   46.0410   34.0340   41.2090 N   0  0  0  0  0  0  0  0  0  0  0  0
   44.2908   33.6457   45.5410 H   0  0  0  0  0  0  0  0  0  0  0  0
   45.4557   34.9147   46.0571 H   0  0  0  0  0  0  0  0  0  0  0  0
   44.5570   32.7228   48.2128 H   0  0  0  0  0  0  0  0  0  0  0  0
   46.3922   31.0794   49.0750 H   0  0  0  0  0  0  0  0  0  0  0  0
   48.5175   29.3781   45.9837 H   0  0  0  0  0  0  0  0  0  0  0  0
   50.0920   29.4907   46.6515 H   0  0  0  0  0  0  0  0  0  0  0  0
   47.5122   28.3298   48.0543 H   0  0  0  0  0  0  0  0  0  0  0  0
   48.9180   27.3853   47.7452 H   0  0  0  0  0  0  0  0  0  0  0  0
   48.5260   29.0243   50.0723 H   0  0  0  0  0  0  0  0  0  0  0  0
   50.1211   28.5009   49.5874 H   0  0  0  0  0  0  0  0  0  0  0  0
   50.5585   30.5944   48.3939 H   0  0  0  0  0  0  0  0  0  0  0  0
   49.4508   31.2425   49.5703 H   0  0  0  0  0  0  0  0  0  0  0  0
   45.5090   35.8584   43.7614 H   0  0  0  0  0  0  0  0  0  0  0  0
   46.4924   32.9358   43.9729 H   0  0  0  0  0  0  0  0  0  0  0  0
   48.4577   35.8789   42.6907 H   0  0  0  0  0  0  0  0  0  0  0  0
   49.4724   35.5140   40.4278 H   0  0  0  0  0  0  0  0  0  0  0  0
   46.0700   33.2725   39.2386 H   0  0  0  0  0  0  0  0  0  0  0  0
  1  2  1  0
  2  3  2  0
  3  4  1  0
  5  7  1  0
  5  4  1  0
  6  2  1  0
  6  5  2  0
  7 11  1  0
  8  7  1  0
  8  9  1  0
  9 10  1  0
 11 10  1  0
 12 13  2  0
 13  1  1  0
 14 12  1  0
 15 14  2  0
 16 15  1  0
 17 18  1  0
 17 16  2  0
 18 19  2  0
 19 14  1  0
  1 20  1  0
  1 21  1  0
  3 22  1  0
  4 23  1  0
  8 24  1  0
  8 25  1  0
  9 26  1  0
  9 27  1  0
 10 28  1  0
 10 29  1  0
 11 30  1  0
 11 31  1  0
 12 32  1  0
 13 33  1  0
 15 34  1  0
 16 35  1  0
 18 36  1  0
M  ISO  8  20   8  21   8  22  14  23   9  24  13  25  13  26  13  27  13
M  ISO  7  28  13  29  13  30  13  31  13  34  14  35  14  36  14
M  END
>  <minimizedAffinity>  (1) 
-4.32836676

>  <minimizedRMSD>  (1) 
8.08387756

$$$$
