
     RDKit          3D

 31 33  0  0  0  0  0  0  0  0999 V2000
   47.0670   32.5370   47.5260 C   0  0  0  0  0  0  0  0  0  0  0  0
   46.3690   31.2650   47.9250 C   0  0  0  0  0  0  0  0  0  0  0  0
   45.5860   31.0520   49.0260 C   0  0  0  0  0  0  0  0  0  0  0  0
   45.2030   29.7770   48.9330 N   0  0  0  0  0  0  0  0  0  0  0  0
   45.6960   29.1700   47.8410 C   0  0  0  0  0  0  0  0  0  0  0  0
   46.4280   30.1290   47.2210 N   0  0  0  0  0  0  0  0  0  0  0  0
   45.4970   27.7780   47.4000 C   0  0  0  0  0  0  0  0  0  0  0  0
   44.5020   26.8950   48.0290 C   0  0  0  0  0  0  0  0  0  0  0  0
   44.1490   27.4340   46.6960 C   0  0  0  0  0  0  0  0  0  0  0  0
   45.5470   33.8280   46.0770 C   0  0  0  0  0  0  0  0  0  0  0  0
   46.5720   32.9820   46.1930 C   0  0  0  0  0  0  0  0  0  0  0  0
   45.1580   34.1870   44.7070 C   0  0  0  0  0  0  0  0  0  0  0  0
   44.8540   35.5310   44.3800 C   0  0  0  0  0  0  0  0  0  0  0  0
   44.4930   35.7890   43.0540 C   0  0  0  0  0  0  0  0  0  0  0  0
   44.4480   34.7640   42.1550 N   0  0  0  0  0  0  0  0  0  0  0  0
   44.7440   33.4970   42.5070 C   0  0  0  0  0  0  0  0  0  0  0  0
   45.0910   33.2270   43.7650 N   0  0  0  0  0  0  0  0  0  0  0  0
   46.8600   33.3178   48.2727 H   0  0  0  0  0  0  0  0  0  0  0  0
   48.1509   32.3573   47.4717 H   0  0  0  0  0  0  0  0  0  0  0  0
   45.3284   31.7736   49.8153 H   0  0  0  0  0  0  0  0  0  0  0  0
   44.5965   29.3102   49.6223 H   0  0  0  0  0  0  0  0  0  0  0  0
   46.5725   27.6832   47.1895 H   0  0  0  0  0  0  0  0  0  0  0  0
   44.7235   25.8228   48.1358 H   0  0  0  0  0  0  0  0  0  0  0  0
   43.9951   26.9034   49.0052 H   0  0  0  0  0  0  0  0  0  0  0  0
   43.3637   28.1977   46.5953 H   0  0  0  0  0  0  0  0  0  0  0  0
   43.8496   27.0101   45.7261 H   0  0  0  0  0  0  0  0  0  0  0  0
   45.0239   34.2329   46.9559 H   0  0  0  0  0  0  0  0  0  0  0  0
   47.0628   32.6044   45.2839 H   0  0  0  0  0  0  0  0  0  0  0  0
   44.8996   36.3324   45.1321 H   0  0  0  0  0  0  0  0  0  0  0  0
   44.2466   36.8132   42.7374 H   0  0  0  0  0  0  0  0  0  0  0  0
   44.6994   32.6906   41.7602 H   0  0  0  0  0  0  0  0  0  0  0  0
  1  2  1  0
  2  3  2  0
  4  3  1  0
  5  4  1  0
  6  5  2  0
  6  2  1  0
  7  5  1  0
  7  8  1  0
  9  7  1  0
  9  8  1  0
 10 11  2  0
 11  1  1  0
 12 10  1  0
 13 12  2  0
 14 13  1  0
 15 16  1  0
 15 14  2  0
 16 17  2  0
 17 12  1  0
  1 18  1  0
  1 19  1  0
  3 20  1  0
  4 21  1  0
  7 22  1  0
  8 23  1  0
  8 24  1  0
  9 25  1  0
  9 26  1  0
 10 27  1  0
 11 28  1  0
 13 29  1  0
 14 30  1  0
 16 31  1  0
M  ISO  8  18   8  19   8  20  14  21   9  22  13  23  13  24  13  25  13
M  ISO  4  26  13  29  14  30  14  31  14
M  END
>  <minimizedAffinity>  (1) 
-4.55268002

>  <minimizedRMSD>  (1) 
7.78886747

$$$$
