
     RDKit          3D

 47 50  0  0  0  0  0  0  0  0999 V2000
   46.3850   32.1910   47.8020 C   0  0  0  0  0  0  0  0  0  0  0  0
   45.9220   31.8230   49.0310 C   0  0  0  0  0  0  0  0  0  0  0  0
   46.9010   31.1350   49.6180 N   0  0  0  0  0  0  0  0  0  0  0  0
   47.9790   31.0420   48.8180 C   0  0  0  0  0  0  0  0  0  0  0  0
   47.6370   31.7100   47.6830 N   0  0  0  0  0  0  0  0  0  0  0  0
   49.2360   30.4220   48.9990 N   0  0  0  0  0  0  0  0  0  0  0  0
   50.3160   31.2080   49.6160 C   0  0  0  0  0  0  0  0  0  0  0  0
   50.4090   30.6640   51.0400 C   0  0  0  0  0  0  0  0  0  0  0  0
   50.4690   29.1610   51.0210 C   0  0  0  0  0  0  0  0  0  0  0  0
   50.7970   28.6690   49.6230 C   0  0  0  0  0  0  0  0  0  0  0  0
   49.6950   29.0920   48.6780 C   0  0  0  0  0  0  0  0  0  0  0  0
   45.6570   32.9780   46.7670 C   0  0  0  0  0  0  0  0  0  0  0  0
   46.1470   33.9420   44.5540 C   0  0  0  0  0  0  0  0  0  0  0  0
   46.4750   33.1340   45.5410 C   0  0  0  0  0  0  0  0  0  0  0  0
   47.0480   33.9990   43.4010 C   0  0  0  0  0  0  0  0  0  0  0  0
   46.9340   35.0060   42.4100 C   0  0  0  0  0  0  0  0  0  0  0  0
   47.8210   34.9930   41.3520 C   0  0  0  0  0  0  0  0  0  0  0  0
   48.7600   34.0270   41.3010 N   0  0  0  0  0  0  0  0  0  0  0  0
   48.8550   33.0750   42.2510 C   0  0  0  0  0  0  0  0  0  0  0  0
   48.0150   33.0700   43.2730 N   0  0  0  0  0  0  0  0  0  0  0  0
   49.8950   32.0600   42.1330 C   0  0  0  0  0  0  0  0  0  0  0  0
   50.8920   32.2110   41.1770 C   0  0  0  0  0  0  0  0  0  0  0  0
   51.9060   31.2900   41.0080 C   0  0  0  0  0  0  0  0  0  0  0  0
   51.9050   30.2200   41.8090 N   0  0  0  0  0  0  0  0  0  0  0  0
   50.9280   30.0780   42.7430 C   0  0  0  0  0  0  0  0  0  0  0  0
   49.9420   30.9730   42.9060 N   0  0  0  0  0  0  0  0  0  0  0  0
   44.9328   32.0499   49.4553 H   0  0  0  0  0  0  0  0  0  0  0  0
   46.8403   30.7272   50.5619 H   0  0  0  0  0  0  0  0  0  0  0  0
   51.2639   31.0579   49.0784 H   0  0  0  0  0  0  0  0  0  0  0  0
   50.1174   32.2896   49.5904 H   0  0  0  0  0  0  0  0  0  0  0  0
   51.3170   31.0575   51.5204 H   0  0  0  0  0  0  0  0  0  0  0  0
   49.5183   30.9798   51.6029 H   0  0  0  0  0  0  0  0  0  0  0  0
   51.2476   28.8192   51.7188 H   0  0  0  0  0  0  0  0  0  0  0  0
   49.4913   28.7581   51.3240 H   0  0  0  0  0  0  0  0  0  0  0  0
   51.7519   29.1047   49.2938 H   0  0  0  0  0  0  0  0  0  0  0  0
   50.8813   27.5722   49.6265 H   0  0  0  0  0  0  0  0  0  0  0  0
   48.8541   28.3882   48.7646 H   0  0  0  0  0  0  0  0  0  0  0  0
   50.0875   29.0897   47.6504 H   0  0  0  0  0  0  0  0  0  0  0  0
   44.7224   32.4572   46.5113 H   0  0  0  0  0  0  0  0  0  0  0  0
   45.4442   33.9775   47.1741 H   0  0  0  0  0  0  0  0  0  0  0  0
   45.2316   34.5506   44.5942 H   0  0  0  0  0  0  0  0  0  0  0  0
   47.4007   32.5466   45.4511 H   0  0  0  0  0  0  0  0  0  0  0  0
   46.1562   35.7805   42.4822 H   0  0  0  0  0  0  0  0  0  0  0  0
   47.7625   35.7581   40.5638 H   0  0  0  0  0  0  0  0  0  0  0  0
   50.8724   33.0998   40.5292 H   0  0  0  0  0  0  0  0  0  0  0  0
   52.6846   31.4311   40.2439 H   0  0  0  0  0  0  0  0  0  0  0  0
   50.9465   29.1910   43.3933 H   0  0  0  0  0  0  0  0  0  0  0  0
  1  2  2  0
  2  3  1  0
  4  6  1  0
  4  3  1  0
  5  1  1  0
  5  4  2  0
  6  7  1  0
  7  8  1  0
  9  8  1  0
 10  9  1  0
 11  6  1  0
 11 10  1  0
 12  1  1  0
 13 14  2  0
 14 12  1  0
 15 13  1  0
 16 15  2  0
 17 16  1  0
 18 17  2  0
 18 19  1  0
 19 20  2  0
 20 15  1  0
 21 19  1  0
 21 26  1  0
 22 21  2  0
 23 22  1  0
 23 24  2  0
 24 25  1  0
 25 26  2  0
  2 27  1  0
  3 28  1  0
  7 29  1  0
  7 30  1  0
  8 31  1  0
  8 32  1  0
  9 33  1  0
  9 34  1  0
 10 35  1  0
 10 36  1  0
 11 37  1  0
 11 38  1  0
 12 39  1  0
 12 40  1  0
 13 41  1  0
 14 42  1  0
 16 43  1  0
 17 44  1  0
 22 45  1  0
 23 46  1  0
 25 47  1  0
M  ISO  8  27  14  28   9  29  13  30  13  31  13  32  13  33  13  34  13
M  ISO  8  35  13  36  13  37  13  38  13  39   8  40   8  43  14  44  14
M  ISO  3  45  14  46  14  47  14
M  END
>  <minimizedAffinity>  (1) 
-6.01459742

>  <minimizedRMSD>  (1) 
0.390802443

$$$$
