
     RDKit          3D

 42 44  0  0  0  0  0  0  0  0999 V2000
   46.3690   32.1910   47.7750 C   0  0  0  0  0  0  0  0  0  0  0  0
   45.9120   31.8050   49.0050 C   0  0  0  0  0  0  0  0  0  0  0  0
   46.8970   31.1330   49.5840 N   0  0  0  0  0  0  0  0  0  0  0  0
   47.9740   31.0680   48.7790 C   0  0  0  0  0  0  0  0  0  0  0  0
   47.6320   31.7310   47.6520 N   0  0  0  0  0  0  0  0  0  0  0  0
   49.2460   30.4660   48.9560 N   0  0  0  0  0  0  0  0  0  0  0  0
   50.3020   31.2540   49.5880 C   0  0  0  0  0  0  0  0  0  0  0  0
   50.4070   30.7070   51.0100 C   0  0  0  0  0  0  0  0  0  0  0  0
   50.4920   29.1960   50.9640 C   0  0  0  0  0  0  0  0  0  0  0  0
   50.8420   28.7350   49.5650 C   0  0  0  0  0  0  0  0  0  0  0  0
   49.7430   29.1600   48.6200 C   0  0  0  0  0  0  0  0  0  0  0  0
   45.6230   32.9750   46.7430 C   0  0  0  0  0  0  0  0  0  0  0  0
   46.0320   33.8320   44.4730 C   0  0  0  0  0  0  0  0  0  0  0  0
   46.4800   33.2710   45.5790 C   0  0  0  0  0  0  0  0  0  0  0  0
   46.9930   34.0710   43.3890 C   0  0  0  0  0  0  0  0  0  0  0  0
   46.7200   34.9820   42.3440 C   0  0  0  0  0  0  0  0  0  0  0  0
   47.6800   35.1430   41.3690 C   0  0  0  0  0  0  0  0  0  0  0  0
   48.8250   34.4460   41.4330 N   0  0  0  0  0  0  0  0  0  0  0  0
   49.0650   33.5780   42.4430 C   0  0  0  0  0  0  0  0  0  0  0  0
   48.1770   33.3910   43.3990 N   0  0  0  0  0  0  0  0  0  0  0  0
   50.3570   32.8360   42.4560 C   0  0  0  0  0  0  0  0  0  0  0  0
   44.9193   32.0121   49.4312 H   0  0  0  0  0  0  0  0  0  0  0  0
   46.8452   30.7161   50.5245 H   0  0  0  0  0  0  0  0  0  0  0  0
   51.2541   31.1242   49.0527 H   0  0  0  0  0  0  0  0  0  0  0  0
   50.0775   32.3308   49.5753 H   0  0  0  0  0  0  0  0  0  0  0  0
   51.3094   31.1106   51.4925 H   0  0  0  0  0  0  0  0  0  0  0  0
   49.5186   31.0071   51.5851 H   0  0  0  0  0  0  0  0  0  0  0  0
   51.2684   28.8541   51.6642 H   0  0  0  0  0  0  0  0  0  0  0  0
   49.5174   28.7726   51.2484 H   0  0  0  0  0  0  0  0  0  0  0  0
   51.7935   29.1906   49.2534 H   0  0  0  0  0  0  0  0  0  0  0  0
   50.9447   27.6399   49.5484 H   0  0  0  0  0  0  0  0  0  0  0  0
   48.9176   28.4354   48.6802 H   0  0  0  0  0  0  0  0  0  0  0  0
   50.1541   29.1950   47.6003 H   0  0  0  0  0  0  0  0  0  0  0  0
   44.7521   32.3919   46.4090 H   0  0  0  0  0  0  0  0  0  0  0  0
   45.3020   33.9267   47.1916 H   0  0  0  0  0  0  0  0  0  0  0  0
   44.9735   34.1116   44.3660 H   0  0  0  0  0  0  0  0  0  0  0  0
   47.5471   33.0104   45.6368 H   0  0  0  0  0  0  0  0  0  0  0  0
   45.7743   35.5429   42.3101 H   0  0  0  0  0  0  0  0  0  0  0  0
   47.5079   35.8429   40.5380 H   0  0  0  0  0  0  0  0  0  0  0  0
   50.6671   32.6579   43.4963 H   0  0  0  0  0  0  0  0  0  0  0  0
   50.2316   31.8723   41.9407 H   0  0  0  0  0  0  0  0  0  0  0  0
   51.1262   33.4300   41.9407 H   0  0  0  0  0  0  0  0  0  0  0  0
  1  2  2  0
  2  3  1  0
  4  6  1  0
  4  3  1  0
  5  1  1  0
  5  4  2  0
  6  7  1  0
  7  8  1  0
  9  8  1  0
 10  9  1  0
 11  6  1  0
 11 10  1  0
 12  1  1  0
 13 14  2  0
 14 12  1  0
 15 20  1  0
 15 13  1  0
 16 15  2  0
 17 18  2  0
 17 16  1  0
 18 19  1  0
 19 21  1  0
 19 20  2  0
  2 22  1  0
  3 23  1  0
  7 24  1  0
  7 25  1  0
  8 26  1  0
  8 27  1  0
  9 28  1  0
  9 29  1  0
 10 30  1  0
 10 31  1  0
 11 32  1  0
 11 33  1  0
 12 34  1  0
 12 35  1  0
 13 36  1  0
 14 37  1  0
 16 38  1  0
 17 39  1  0
 21 40  1  0
 21 41  1  0
 21 42  1  0
M  ISO  8  22  14  23   9  24  13  25  13  26  13  27  13  28  13  29  13
M  ISO  8  30  13  31  13  32  13  33  13  34   8  35   8  38  14  39  14
M  ISO  3  40   8  41   8  42   8
M  END
>  <minimizedAffinity>  (1) 
-5.71409416

>  <minimizedRMSD>  (1) 
0.146867633

$$$$
