
     RDKit          3D

 48 51  0  0  0  0  0  0  0  0999 V2000
   46.3340   32.2000   47.8720 C   0  0  0  0  0  0  0  0  0  0  0  0
   45.8690   31.7600   49.0760 C   0  0  0  0  0  0  0  0  0  0  0  0
   46.8770   31.0870   49.6360 N   0  0  0  0  0  0  0  0  0  0  0  0
   47.9590   31.0790   48.8470 C   0  0  0  0  0  0  0  0  0  0  0  0
   47.5970   31.7840   47.7460 N   0  0  0  0  0  0  0  0  0  0  0  0
   49.2460   30.5060   49.0090 N   0  0  0  0  0  0  0  0  0  0  0  0
   50.2700   31.3150   49.7000 C   0  0  0  0  0  0  0  0  0  0  0  0
   50.3780   30.6890   51.0880 C   0  0  0  0  0  0  0  0  0  0  0  0
   50.5030   29.1830   50.9780 C   0  0  0  0  0  0  0  0  0  0  0  0
   50.8630   28.7920   49.5730 C   0  0  0  0  0  0  0  0  0  0  0  0
   49.7840   29.2320   48.6200 C   0  0  0  0  0  0  0  0  0  0  0  0
   45.5770   33.0060   46.8650 C   0  0  0  0  0  0  0  0  0  0  0  0
   45.9770   33.9600   44.6280 C   0  0  0  0  0  0  0  0  0  0  0  0
   46.3550   33.1800   45.6230 C   0  0  0  0  0  0  0  0  0  0  0  0
   46.8510   34.0370   43.4510 C   0  0  0  0  0  0  0  0  0  0  0  0
   46.6830   35.0350   42.4720 C   0  0  0  0  0  0  0  0  0  0  0  0
   47.5510   35.0300   41.4000 C   0  0  0  0  0  0  0  0  0  0  0  0
   48.5170   34.0920   41.3180 N   0  0  0  0  0  0  0  0  0  0  0  0
   48.6630   33.1440   42.2670 C   0  0  0  0  0  0  0  0  0  0  0  0
   47.8370   33.1330   43.3040 N   0  0  0  0  0  0  0  0  0  0  0  0
   49.7340   32.1570   42.1120 C   0  0  0  0  0  0  0  0  0  0  0  0
   49.7350   31.0020   42.8440 C   0  0  0  0  0  0  0  0  0  0  0  0
   50.7660   30.0990   42.6660 C   0  0  0  0  0  0  0  0  0  0  0  0
   51.7590   30.4050   41.7490 C   0  0  0  0  0  0  0  0  0  0  0  0
   51.7240   31.5800   41.0280 C   0  0  0  0  0  0  0  0  0  0  0  0
   50.7060   32.4390   41.2260 N   0  0  0  0  0  0  0  0  0  0  0  0
   44.8674   31.9258   49.4996 H   0  0  0  0  0  0  0  0  0  0  0  0
   46.8285   30.6314   50.5585 H   0  0  0  0  0  0  0  0  0  0  0  0
   51.2330   31.2575   49.1714 H   0  0  0  0  0  0  0  0  0  0  0  0
   50.0032   32.3814   49.7414 H   0  0  0  0  0  0  0  0  0  0  0  0
   51.2656   31.0903   51.5989 H   0  0  0  0  0  0  0  0  0  0  0  0
   49.4710   30.9316   51.6612 H   0  0  0  0  0  0  0  0  0  0  0  0
   51.2877   28.8327   51.6647 H   0  0  0  0  0  0  0  0  0  0  0  0
   49.5392   28.7233   51.2420 H   0  0  0  0  0  0  0  0  0  0  0  0
   51.8126   29.2720   49.2939 H   0  0  0  0  0  0  0  0  0  0  0  0
   50.9661   27.6982   49.5193 H   0  0  0  0  0  0  0  0  0  0  0  0
   48.9767   28.4848   48.6199 H   0  0  0  0  0  0  0  0  0  0  0  0
   50.2197   29.3263   47.6144 H   0  0  0  0  0  0  0  0  0  0  0  0
   44.6347   32.4901   46.6283 H   0  0  0  0  0  0  0  0  0  0  0  0
   45.3797   33.9998   47.2932 H   0  0  0  0  0  0  0  0  0  0  0  0
   45.0393   34.5328   44.6788 H   0  0  0  0  0  0  0  0  0  0  0  0
   47.3018   32.6293   45.5211 H   0  0  0  0  0  0  0  0  0  0  0  0
   45.8886   35.7909   42.5589 H   0  0  0  0  0  0  0  0  0  0  0  0
   47.4555   35.7912   40.6117 H   0  0  0  0  0  0  0  0  0  0  0  0
   48.9284   30.7950   43.5627 H   0  0  0  0  0  0  0  0  0  0  0  0
   50.7976   29.1601   43.2383 H   0  0  0  0  0  0  0  0  0  0  0  0
   52.5884   29.6993   41.5938 H   0  0  0  0  0  0  0  0  0  0  0  0
   52.5165   31.8123   40.3014 H   0  0  0  0  0  0  0  0  0  0  0  0
  1  2  2  0
  2  3  1  0
  4  6  1  0
  4  3  1  0
  5  1  1  0
  5  4  2  0
  6  7  1  0
  7  8  1  0
  9  8  1  0
 10  9  1  0
 11  6  1  0
 11 10  1  0
 12  1  1  0
 13 14  2  0
 14 12  1  0
 15 13  1  0
 16 15  2  0
 17 16  1  0
 18 17  2  0
 18 19  1  0
 19 20  2  0
 20 15  1  0
 21 19  1  0
 21 22  2  0
 23 22  1  0
 24 23  2  0
 25 26  2  0
 25 24  1  0
 26 21  1  0
  2 27  1  0
  3 28  1  0
  7 29  1  0
  7 30  1  0
  8 31  1  0
  8 32  1  0
  9 33  1  0
  9 34  1  0
 10 35  1  0
 10 36  1  0
 11 37  1  0
 11 38  1  0
 12 39  1  0
 12 40  1  0
 13 41  1  0
 14 42  1  0
 16 43  1  0
 17 44  1  0
 22 45  1  0
 23 46  1  0
 24 47  1  0
 25 48  1  0
M  ISO  8  27  14  28   9  29  13  30  13  31  13  32  13  33  13  34  13
M  ISO  8  35  13  36  13  37  13  38  13  39   8  40   8  43  14  44  14
M  ISO  4  45  14  46  14  47  14  48  14
M  END
>  <minimizedAffinity>  (1) 
-6.05990839

>  <minimizedRMSD>  (1) 
0.603152931

$$$$
