
     RDKit          3D

 45 47  0  0  0  0  0  0  0  0999 V2000
   46.1480   32.3700   47.8990 C   0  0  0  0  0  0  0  0  0  0  0  0
   45.7220   31.7160   49.0160 C   0  0  0  0  0  0  0  0  0  0  0  0
   46.7670   31.0350   49.4910 N   0  0  0  0  0  0  0  0  0  0  0  0
   47.8430   31.2280   48.7220 C   0  0  0  0  0  0  0  0  0  0  0  0
   47.4460   32.0640   47.7290 N   0  0  0  0  0  0  0  0  0  0  0  0
   49.1710   30.7300   48.8100 N   0  0  0  0  0  0  0  0  0  0  0  0
   50.1400   31.4990   49.6100 C   0  0  0  0  0  0  0  0  0  0  0  0
   50.2900   30.7030   50.9070 C   0  0  0  0  0  0  0  0  0  0  0  0
   50.5160   29.2370   50.5900 C   0  0  0  0  0  0  0  0  0  0  0  0
   50.9260   29.0820   49.1350 C   0  0  0  0  0  0  0  0  0  0  0  0
   49.8050   29.5650   48.2510 C   0  0  0  0  0  0  0  0  0  0  0  0
   45.3370   33.2600   47.0210 C   0  0  0  0  0  0  0  0  0  0  0  0
   45.4110   33.7780   44.6130 C   0  0  0  0  0  0  0  0  0  0  0  0
   46.0390   33.5390   45.7540 C   0  0  0  0  0  0  0  0  0  0  0  0
   46.2320   34.0420   43.4240 C   0  0  0  0  0  0  0  0  0  0  0  0
   45.6700   34.1130   42.1230 C   0  0  0  0  0  0  0  0  0  0  0  0
   46.5270   34.3670   41.0660 C   0  0  0  0  0  0  0  0  0  0  0  0
   47.8370   34.5330   41.3060 N   0  0  0  0  0  0  0  0  0  0  0  0
   48.3630   34.4610   42.5610 C   0  0  0  0  0  0  0  0  0  0  0  0
   47.5740   34.2200   43.6020 N   0  0  0  0  0  0  0  0  0  0  0  0
   49.8150   34.6750   42.5820 C   0  0  0  0  0  0  0  0  0  0  0  0
   50.5640   33.3890   42.3110 C   0  0  0  0  0  0  0  0  0  0  0  0
   44.7094   31.7440   49.4447 H   0  0  0  0  0  0  0  0  0  0  0  0
   46.7470   30.4428   50.3335 H   0  0  0  0  0  0  0  0  0  0  0  0
   51.1044   31.5723   49.0860 H   0  0  0  0  0  0  0  0  0  0  0  0
   49.8048   32.5309   49.7911 H   0  0  0  0  0  0  0  0  0  0  0  0
   51.1488   31.0899   51.4751 H   0  0  0  0  0  0  0  0  0  0  0  0
   49.3719   30.8070   51.5039 H   0  0  0  0  0  0  0  0  0  0  0  0
   51.3124   28.8419   51.2378 H   0  0  0  0  0  0  0  0  0  0  0  0
   49.5842   28.6796   50.7660 H   0  0  0  0  0  0  0  0  0  0  0  0
   51.8300   29.6782   48.9418 H   0  0  0  0  0  0  0  0  0  0  0  0
   51.1364   28.0238   48.9207 H   0  0  0  0  0  0  0  0  0  0  0  0
   49.0581   28.7641   48.1476 H   0  0  0  0  0  0  0  0  0  0  0  0
   50.2236   29.8316   47.2693 H   0  0  0  0  0  0  0  0  0  0  0  0
   44.3778   32.7691   46.7997 H   0  0  0  0  0  0  0  0  0  0  0  0
   45.1719   34.2124   47.5460 H   0  0  0  0  0  0  0  0  0  0  0  0
   44.3124   33.7788   44.5575 H   0  0  0  0  0  0  0  0  0  0  0  0
   47.1389   33.5490   45.7572 H   0  0  0  0  0  0  0  0  0  0  0  0
   44.5914   33.9712   41.9601 H   0  0  0  0  0  0  0  0  0  0  0  0
   46.1380   34.4322   40.0391 H   0  0  0  0  0  0  0  0  0  0  0  0
   50.0796   35.4132   41.8106 H   0  0  0  0  0  0  0  0  0  0  0  0
   50.0981   35.0378   43.5811 H   0  0  0  0  0  0  0  0  0  0  0  0
   50.8391   32.9167   43.2656 H   0  0  0  0  0  0  0  0  0  0  0  0
   49.9227   32.7055   41.7352 H   0  0  0  0  0  0  0  0  0  0  0  0
   51.4749   33.6096   41.7352 H   0  0  0  0  0  0  0  0  0  0  0  0
  1  2  2  0
  2  3  1  0
  4  6  1  0
  4  3  1  0
  5  1  1  0
  5  4  2  0
  6  7  1  0
  7  8  1  0
  9  8  1  0
 10  9  1  0
 11  6  1  0
 11 10  1  0
 12  1  1  0
 13 14  2  0
 14 12  1  0
 15 20  1  0
 15 13  1  0
 16 15  2  0
 17 18  2  0
 17 16  1  0
 18 19  1  0
 19 21  1  0
 19 20  2  0
 22 21  1  0
  2 23  1  0
  3 24  1  0
  7 25  1  0
  7 26  1  0
  8 27  1  0
  8 28  1  0
  9 29  1  0
  9 30  1  0
 10 31  1  0
 10 32  1  0
 11 33  1  0
 11 34  1  0
 12 35  1  0
 12 36  1  0
 13 37  1  0
 14 38  1  0
 16 39  1  0
 17 40  1  0
 21 41  1  0
 21 42  1  0
 22 43  1  0
 22 44  1  0
 22 45  1  0
M  ISO  8  23  14  24   9  25  13  26  13  27  13  28  13  29  13  30  13
M  ISO  8  31  13  32  13  33  13  34  13  35   8  36   8  39  14  40  14
M  ISO  5  41   8  42   8  43   8  44   8  45   8
M  END
>  <minimizedAffinity>  (1) 
-6.11847019

>  <minimizedRMSD>  (1) 
0.996600389

$$$$
