
     RDKit          3D

 41 43  0  0  0  0  0  0  0  0999 V2000
   46.3430   32.2050   47.8010 C   0  0  0  0  0  0  0  0  0  0  0  0
   45.8800   31.8200   49.0240 C   0  0  0  0  0  0  0  0  0  0  0  0
   46.8760   31.1530   49.6110 N   0  0  0  0  0  0  0  0  0  0  0  0
   47.9560   31.0970   48.8130 C   0  0  0  0  0  0  0  0  0  0  0  0
   47.6080   31.7640   47.6790 N   0  0  0  0  0  0  0  0  0  0  0  0
   49.2290   30.5100   48.9960 N   0  0  0  0  0  0  0  0  0  0  0  0
   50.2830   31.3370   49.6250 C   0  0  0  0  0  0  0  0  0  0  0  0
   50.3990   30.8030   51.0500 C   0  0  0  0  0  0  0  0  0  0  0  0
   50.4850   29.3000   51.0420 C   0  0  0  0  0  0  0  0  0  0  0  0
   50.8420   28.8230   49.6500 C   0  0  0  0  0  0  0  0  0  0  0  0
   49.7470   29.2160   48.6860 C   0  0  0  0  0  0  0  0  0  0  0  0
   45.5900   32.9850   46.7650 C   0  0  0  0  0  0  0  0  0  0  0  0
   46.0010   33.8660   44.5060 C   0  0  0  0  0  0  0  0  0  0  0  0
   46.4420   33.2620   45.5990 C   0  0  0  0  0  0  0  0  0  0  0  0
   46.9470   34.0850   43.4110 C   0  0  0  0  0  0  0  0  0  0  0  0
   46.6940   34.9780   42.3500 C   0  0  0  0  0  0  0  0  0  0  0  0
   47.6460   35.1160   41.3640 C   0  0  0  0  0  0  0  0  0  0  0  0
   48.7870   34.4040   41.4340 N   0  0  0  0  0  0  0  0  0  0  0  0
   49.0160   33.5510   42.4580 C   0  0  0  0  0  0  0  0  0  0  0  0
   48.1220   33.3890   43.4280 N   0  0  0  0  0  0  0  0  0  0  0  0
   50.2570   32.8490   42.4280 N   0  0  0  0  0  0  0  0  0  0  0  0
   44.8831   32.0195   49.4439 H   0  0  0  0  0  0  0  0  0  0  0  0
   46.8238   30.7362   50.5515 H   0  0  0  0  0  0  0  0  0  0  0  0
   51.2369   31.2222   49.0893 H   0  0  0  0  0  0  0  0  0  0  0  0
   50.0385   32.4092   49.6020 H   0  0  0  0  0  0  0  0  0  0  0  0
   51.3046   31.2153   51.5190 H   0  0  0  0  0  0  0  0  0  0  0  0
   49.5074   31.1063   51.6183 H   0  0  0  0  0  0  0  0  0  0  0  0
   51.2594   28.9731   51.7516 H   0  0  0  0  0  0  0  0  0  0  0  0
   49.5143   28.8753   51.3378 H   0  0  0  0  0  0  0  0  0  0  0  0
   51.7898   29.2847   49.3361 H   0  0  0  0  0  0  0  0  0  0  0  0
   50.9508   27.7284   49.6544 H   0  0  0  0  0  0  0  0  0  0  0  0
   48.9328   28.4789   48.7474 H   0  0  0  0  0  0  0  0  0  0  0  0
   50.1687   29.2427   47.6704 H   0  0  0  0  0  0  0  0  0  0  0  0
   44.7141   32.4034   46.4417 H   0  0  0  0  0  0  0  0  0  0  0  0
   45.2728   33.9418   47.2054 H   0  0  0  0  0  0  0  0  0  0  0  0
   44.9541   34.1935   44.4236 H   0  0  0  0  0  0  0  0  0  0  0  0
   47.4969   32.9525   45.6364 H   0  0  0  0  0  0  0  0  0  0  0  0
   45.7566   35.5522   42.3103 H   0  0  0  0  0  0  0  0  0  0  0  0
   47.4751   35.8046   40.5234 H   0  0  0  0  0  0  0  0  0  0  0  0
   50.4911   32.1846   43.1794 H   0  0  0  0  0  0  0  0  0  0  0  0
   50.9192   33.0064   41.6549 H   0  0  0  0  0  0  0  0  0  0  0  0
  1  2  2  0
  2  3  1  0
  4  6  1  0
  4  3  1  0
  5  1  1  0
  5  4  2  0
  6  7  1  0
  7  8  1  0
  9  8  1  0
 10  9  1  0
 11  6  1  0
 11 10  1  0
 12  1  1  0
 13 14  2  0
 14 12  1  0
 15 20  1  0
 15 13  1  0
 16 15  2  0
 17 18  2  0
 17 16  1  0
 18 19  1  0
 19 20  2  0
 21 19  1  0
  2 22  1  0
  3 23  1  0
  7 24  1  0
  7 25  1  0
  8 26  1  0
  8 27  1  0
  9 28  1  0
  9 29  1  0
 10 30  1  0
 10 31  1  0
 11 32  1  0
 11 33  1  0
 12 34  1  0
 12 35  1  0
 13 36  1  0
 14 37  1  0
 16 38  1  0
 17 39  1  0
 21 40  1  0
 21 41  1  0
M  ISO  8  22  14  23   9  24  13  25  13  26  13  27  13  28  13  29  13
M  ISO  8  30  13  31  13  32  13  33  13  34   8  35   8  38  14  39  14
M  END
>  <minimizedAffinity>  (1) 
-5.67100477

>  <minimizedRMSD>  (1) 
0.172334984

$$$$
