
     RDKit          3D

 29 30  0  0  0  0  0  0  0  0999 V2000
   45.5500   30.9050   49.3410 O   0  0  0  0  0  0  0  0  0  0  0  0
   45.7490   31.0450   47.8200 P   0  0  1  0  0  0  0  0  0  0  0  0
   44.4940   30.2120   47.0780 O   0  0  0  0  0  0  0  0  0  0  0  0
   45.7580   32.6940   47.4940 O   0  0  0  0  0  0  0  0  0  0  0  0
   45.3580   34.7530   44.5600 C   0  0  0  0  0  0  0  0  0  0  0  0
   46.3390   34.2410   43.7150 C   0  0  0  0  0  0  0  0  0  0  0  0
   47.1110   33.1820   44.2170 C   0  0  0  0  0  0  0  0  0  0  0  0
   46.8600   32.7250   45.4730 N   0  0  0  0  0  0  0  0  0  0  0  0
   45.8900   33.2690   46.2410 C   0  0  0  0  0  0  0  0  0  0  0  0
   45.1390   34.2870   45.7750 N   0  0  0  0  0  0  0  0  0  0  0  0
   44.5360   35.8920   44.0160 C   0  0  0  0  0  0  0  0  0  0  0  0
   47.2170   30.3330   47.3420 O   0  0  0  0  0  0  0  0  0  0  0  0
   48.2810   30.4410   48.2560 C   0  0  0  0  0  0  0  0  0  0  0  0
   48.9490   29.3150   48.6460 C   0  0  0  0  0  0  0  0  0  0  0  0
   50.0160   29.3400   49.5510 C   0  0  0  0  0  0  0  0  0  0  0  0
   50.3840   30.5860   50.0530 C   0  0  0  0  0  0  0  0  0  0  0  0
   49.6880   31.7250   49.6430 C   0  0  0  0  0  0  0  0  0  0  0  0
   48.6450   31.6750   48.7550 C   0  0  0  0  0  0  0  0  0  0  0  0
   43.9037   29.8202   47.7695 H   0  0  0  0  0  0  0  0  0  0  0  0
   46.5007   34.6460   42.7051 H   0  0  0  0  0  0  0  0  0  0  0  0
   47.9053   32.7295   43.6052 H   0  0  0  0  0  0  0  0  0  0  0  0
   44.1167   36.4730   44.8507 H   0  0  0  0  0  0  0  0  0  0  0  0
   45.1738   36.5430   43.4000 H   0  0  0  0  0  0  0  0  0  0  0  0
   43.7172   35.4918   43.4000 H   0  0  0  0  0  0  0  0  0  0  0  0
   48.6344   28.3463   48.2305 H   0  0  0  0  0  0  0  0  0  0  0  0
   50.5389   28.4200   49.8514 H   0  0  0  0  0  0  0  0  0  0  0  0
   51.2164   30.6721   50.7669 H   0  0  0  0  0  0  0  0  0  0  0  0
   49.9889   32.7020   50.0491 H   0  0  0  0  0  0  0  0  0  0  0  0
   48.1151   32.5894   48.4499 H   0  0  0  0  0  0  0  0  0  0  0  0
  2  1  2  0
  3  2  1  0
  4  2  1  0
  5 10  2  0
  6  7  2  0
  6  5  1  0
  7  8  1  0
  8  9  2  0
  9  4  1  0
 10  9  1  0
 11  5  1  0
 12  2  1  0
 12 13  1  0
 13 14  2  0
 13 18  1  0
 14 15  1  0
 15 16  2  0
 17 16  1  0
 18 17  2  0
  3 19  1  0
  6 20  1  0
  7 21  1  0
 11 22  1  0
 11 23  1  0
 11 24  1  0
 14 25  1  0
 15 26  1  0
 16 27  1  0
 17 28  1  0
 18 29  1  0
M  ISO  8  19   3  20  14  21  14  22   8  23   8  24   8  25  14  26  14
M  ISO  3  27  14  28  14  29  14
M  END
>  <minimizedAffinity>  (1) 
-4.89153194

>  <minimizedRMSD>  (1) 
1.27090728

$$$$
