
     RDKit          3D

 38 40  0  0  1  0  0  0  0  0999 V2000
   47.5740   33.1930   42.5110 C   0  0  2  0  0  0  0  0  0  0  0  0
   49.0150   32.9070   42.3730 C   0  0  0  0  0  0  0  0  0  0  0  0
   49.8980   34.0680   42.7040 C   0  0  0  0  0  0  0  0  0  0  0  0
   49.5550   35.3360   41.9460 C   0  0  0  0  0  0  0  0  0  0  0  0
   48.0630   35.5370   41.7680 C   0  0  0  0  0  0  0  0  0  0  0  0
   47.2730   34.6640   42.6920 C   0  0  1  0  0  0  0  0  0  0  0  0
   46.9550   32.4600   43.6300 C   0  0  0  0  0  0  0  0  0  0  0  0
   47.1230   33.0260   44.9050 C   0  0  0  0  0  0  0  0  0  0  0  0
   46.5690   32.4000   46.0260 C   0  0  0  0  0  0  0  0  0  0  0  0
   45.8780   31.2380   45.7940 N   0  0  0  0  0  0  0  0  0  0  0  0
   45.7280   30.7100   44.5530 C   0  0  0  0  0  0  0  0  0  0  0  0
   46.2700   31.3270   43.4740 N   0  0  0  0  0  0  0  0  0  0  0  0
   45.4690   34.5280   41.0690 C   0  0  0  0  0  0  0  0  0  0  0  0
   45.8440   34.8730   42.3740 C   0  0  0  0  0  0  0  0  0  0  0  0
   44.8440   35.3610   43.1800 C   0  0  0  0  0  0  0  0  0  0  0  0
   43.5510   35.5140   42.7670 C   0  0  0  0  0  0  0  0  0  0  0  0
   43.2010   35.1700   41.4790 C   0  0  0  0  0  0  0  0  0  0  0  0
   44.1750   34.6680   40.6110 C   0  0  0  0  0  0  0  0  0  0  0  0
   46.3030   34.0100   40.0590 O   0  0  0  0  0  0  0  0  0  0  0  0
   43.7130   34.3630   39.3660 O   0  0  0  0  0  0  0  0  0  0  0  0
   47.1406   32.8518   41.5593 H   0  0  0  0  0  0  0  0  0  0  0  0
   49.2691   32.0755   43.0468 H   0  0  0  0  0  0  0  0  0  0  0  0
   49.1920   32.6627   41.3152 H   0  0  0  0  0  0  0  0  0  0  0  0
   49.8105   34.2738   43.7810 H   0  0  0  0  0  0  0  0  0  0  0  0
   50.9198   33.7864   42.4098 H   0  0  0  0  0  0  0  0  0  0  0  0
   49.9605   36.1955   42.4999 H   0  0  0  0  0  0  0  0  0  0  0  0
   49.9962   35.2477   40.9422 H   0  0  0  0  0  0  0  0  0  0  0  0
   47.8178   36.5892   41.9749 H   0  0  0  0  0  0  0  0  0  0  0  0
   47.8015   35.2674   40.7341 H   0  0  0  0  0  0  0  0  0  0  0  0
   47.5331   34.9334   43.7263 H   0  0  0  0  0  0  0  0  0  0  0  0
   47.6902   33.9613   45.0213 H   0  0  0  0  0  0  0  0  0  0  0  0
   46.6811   32.8164   47.0379 H   0  0  0  0  0  0  0  0  0  0  0  0
   45.1630   29.7754   44.4215 H   0  0  0  0  0  0  0  0  0  0  0  0
   45.0981   35.6434   44.2123 H   0  0  0  0  0  0  0  0  0  0  0  0
   42.7929   35.9098   43.4588 H   0  0  0  0  0  0  0  0  0  0  0  0
   42.1625   35.2896   41.1365 H   0  0  0  0  0  0  0  0  0  0  0  0
   45.9285   33.8005   39.1668 H   0  0  0  0  0  0  0  0  0  0  0  0
   42.7586   34.5042   39.1438 H   0  0  0  0  0  0  0  0  0  0  0  0
  1  6  1  0
  1  7  1  0
  2  1  1  0
  2  3  1  0
  4  3  1  0
  5  4  1  0
  5  6  1  0
  7  8  2  0
  8  9  1  0
 10  9  2  0
 11 10  1  0
 12  7  1  0
 12 11  2  0
 13 14  2  0
 14  6  1  0
 14 15  1  0
 16 15  2  0
 17 16  1  0
 18 13  1  0
 18 17  2  0
 19 13  1  0
 20 18  1  0
  1 21  1  6
  2 22  1  0
  2 23  1  0
  3 24  1  0
  3 25  1  0
  4 26  1  0
  4 27  1  0
  5 28  1  0
  5 29  1  0
  6 30  1  1
  8 31  1  0
  9 32  1  0
 11 33  1  0
 15 34  1  0
 16 35  1  0
 17 36  1  0
 19 37  1  0
 20 38  1  0
M  ISO  8  21  13  22  13  23  13  24  13  25  13  26  13  27  13  28  13
M  ISO  8  29  13  30  13  31  14  32  14  33  14  34  14  35  14  36  14
M  ISO  2  37   3  38   3
M  END
>  <minimizedAffinity>  (1) 
-5.58105183

>  <minimizedRMSD>  (1) 
5.21537495

$$$$
