
     RDKit          3D

 29 30  0  0  0  0  0  0  0  0999 V2000
   45.0680   30.8270   48.0240 O   0  0  0  0  0  0  0  0  0  0  0  0
   45.8410   31.1290   46.7380 P   0  0  1  0  0  0  0  0  0  0  0  0
   45.0850   30.2090   45.5330 O   0  0  0  0  0  0  0  0  0  0  0  0
   45.7240   32.7930   46.4940 O   0  0  0  0  0  0  0  0  0  0  0  0
   45.6770   35.0350   43.6630 C   0  0  0  0  0  0  0  0  0  0  0  0
   46.8120   34.6140   42.9750 C   0  0  0  0  0  0  0  0  0  0  0  0
   47.5650   33.5620   43.5130 C   0  0  0  0  0  0  0  0  0  0  0  0
   47.1390   33.0170   44.6730 N   0  0  0  0  0  0  0  0  0  0  0  0
   46.0200   33.4590   45.3170 C   0  0  0  0  0  0  0  0  0  0  0  0
   45.2950   34.4750   44.7960 N   0  0  0  0  0  0  0  0  0  0  0  0
   44.8950   36.1620   43.0630 C   0  0  0  0  0  0  0  0  0  0  0  0
   47.4510   30.6700   46.8540 O   0  0  0  0  0  0  0  0  0  0  0  0
   49.3710   29.0080   49.4020 N   0  0  0  0  0  0  0  0  0  0  0  0
   48.6260   29.2180   48.2800 C   0  0  0  0  0  0  0  0  0  0  0  0
   48.1950   30.5130   47.9930 C   0  0  0  0  0  0  0  0  0  0  0  0
   48.5620   31.4840   48.8800 C   0  0  0  0  0  0  0  0  0  0  0  0
   48.1880   32.6450   48.6410 O   0  0  0  0  0  0  0  0  0  0  0  0
   49.2920   31.2820   49.9820 N   0  0  0  0  0  0  0  0  0  0  0  0
   49.7010   30.0180   50.2430 C   0  0  0  0  0  0  0  0  0  0  0  0
   50.3890   29.8290   51.2810 O   0  0  0  0  0  0  0  0  0  0  0  0
   44.5162   29.5168   45.9543 H   0  0  0  0  0  0  0  0  0  0  0  0
   47.1102   35.0956   42.0321 H   0  0  0  0  0  0  0  0  0  0  0  0
   48.4704   33.1933   43.0088 H   0  0  0  0  0  0  0  0  0  0  0  0
   44.4666   36.7795   43.8662 H   0  0  0  0  0  0  0  0  0  0  0  0
   45.5599   36.7793   42.4410 H   0  0  0  0  0  0  0  0  0  0  0  0
   44.0840   35.7553   42.4410 H   0  0  0  0  0  0  0  0  0  0  0  0
   49.6926   28.0534   49.6169 H   0  0  0  0  0  0  0  0  0  0  0  0
   48.3695   28.3816   47.6132 H   0  0  0  0  0  0  0  0  0  0  0  0
   49.5347   32.0611   50.6105 H   0  0  0  0  0  0  0  0  0  0  0  0
  2 12  1  0
  2  1  2  0
  3  2  1  0
  4  2  1  0
  5 10  2  0
  6  7  2  0
  6  5  1  0
  7  8  1  0
  8  9  2  0
  9  4  1  0
 10  9  1  0
 11  5  1  0
 12 15  1  0
 13 19  1  0
 14 13  1  0
 15 14  2  0
 15 16  1  0
 16 18  1  0
 17 16  2  0
 18 19  1  0
 19 20  2  0
  3 21  1  0
  6 22  1  0
  7 23  1  0
 11 24  1  0
 11 25  1  0
 11 26  1  0
 13 27  1  0
 14 28  1  0
 18 29  1  0
M  ISO  8  21   3  22  14  23  14  24   8  25   8  26   8  27   9  28  14
M  ISO  1  29   9
M  END
>  <minimizedAffinity>  (1) 
-5.27361631

>  <minimizedRMSD>  (1) 
1.83675909

$$$$
