
     RDKit          3D

 32 33  0  0  0  0  0  0  0  0999 V2000
   45.5200   32.0510   49.2710 O   0  0  0  0  0  0  0  0  0  0  0  0
   45.8030   31.8940   47.7690 P   0  0  1  0  0  0  0  0  0  0  0  0
   44.9640   30.5470   47.2380 O   0  0  0  0  0  0  0  0  0  0  0  0
   45.2800   33.3370   47.0550 O   0  0  0  0  0  0  0  0  0  0  0  0
   45.4560   35.1380   43.9220 C   0  0  0  0  0  0  0  0  0  0  0  0
   46.4930   34.4690   43.2800 C   0  0  0  0  0  0  0  0  0  0  0  0
   47.1090   33.3960   43.9660 C   0  0  0  0  0  0  0  0  0  0  0  0
   46.6420   33.0980   45.2030 N   0  0  0  0  0  0  0  0  0  0  0  0
   45.6320   33.7780   45.7810 C   0  0  0  0  0  0  0  0  0  0  0  0
   45.0360   34.8080   45.1310 N   0  0  0  0  0  0  0  0  0  0  0  0
   44.8230   36.2680   43.1760 C   0  0  0  0  0  0  0  0  0  0  0  0
   47.4510   31.6860   47.5080 O   0  0  0  0  0  0  0  0  0  0  0  0
   48.7640   29.9510   48.2780 C   0  0  0  0  0  0  0  0  0  0  0  0
   47.9730   30.4280   47.2520 C   0  0  0  0  0  0  0  0  0  0  0  0
   47.7070   29.7530   46.0840 C   0  0  0  0  0  0  0  0  0  0  0  0
   48.3120   28.4940   45.9840 C   0  0  0  0  0  0  0  0  0  0  0  0
   49.1100   27.9740   46.9810 C   0  0  0  0  0  0  0  0  0  0  0  0
   49.3490   28.6900   48.1380 C   0  0  0  0  0  0  0  0  0  0  0  0
   49.0840   30.8250   49.7490 S   0  0  0  0  0  0  0  0  0  0  0  0
   50.0440   31.9290   49.4590 O   0  0  0  0  0  0  0  0  0  0  0  0
   49.7670   29.9060   50.7440 O   0  0  0  0  0  0  0  0  0  0  0  0
   44.6420   30.0300   48.0184 H   0  0  0  0  0  0  0  0  0  0  0  0
   46.8229   34.7643   42.2730 H   0  0  0  0  0  0  0  0  0  0  0  0
   47.9340   32.8263   43.5135 H   0  0  0  0  0  0  0  0  0  0  0  0
   44.4148   36.9968   43.8917 H   0  0  0  0  0  0  0  0  0  0  0  0
   45.5778   36.7584   42.5437 H   0  0  0  0  0  0  0  0  0  0  0  0
   44.0106   35.8805   42.5437 H   0  0  0  0  0  0  0  0  0  0  0  0
   47.0691   30.1693   45.2904 H   0  0  0  0  0  0  0  0  0  0  0  0
   48.1442   27.8971   45.0754 H   0  0  0  0  0  0  0  0  0  0  0  0
   49.5610   26.9788   46.8538 H   0  0  0  0  0  0  0  0  0  0  0  0
   49.9868   28.2758   48.9327 H   0  0  0  0  0  0  0  0  0  0  0  0
   47.9009   31.3030   50.2476 H   0  0  0  0  0  0  0  0  0  0  0  0
  2  1  2  0
  3  2  1  0
  4  2  1  0
  5 10  2  0
  6  5  1  0
  6  7  2  0
  7  8  1  0
  8  9  2  0
  9  4  1  0
 10  9  1  0
 11  5  1  0
 12  2  1  0
 13 19  1  0
 14 12  1  0
 14 13  2  0
 15 14  1  0
 16 15  2  0
 16 17  1  0
 17 18  2  0
 18 13  1  0
 19 21  2  0
 20 19  2  0
  3 22  1  0
  6 23  1  0
  7 24  1  0
 11 25  1  0
 11 26  1  0
 11 27  1  0
 15 28  1  0
 16 29  1  0
 17 30  1  0
 18 31  1  0
 19 32  1  0
M  ISO  8  22   3  23  14  24  14  25   8  26   8  27   8  28  14  29  14
M  ISO  3  30  14  31  14  32  11
M  END
>  <minimizedAffinity>  (1) 
-5.07298326

>  <minimizedRMSD>  (1) 
1.06468821

$$$$
