
     RDKit          3D

 23 23  0  0  0  0  0  0  0  0999 V2000
   45.4580   35.1020   43.9190 C   0  0  0  0  0  0  0  0  0  0  0  0
   46.5070   34.4410   43.2870 C   0  0  0  0  0  0  0  0  0  0  0  0
   47.1210   33.3960   44.0040 C   0  0  0  0  0  0  0  0  0  0  0  0
   46.6600   33.1040   45.2370 N   0  0  0  0  0  0  0  0  0  0  0  0
   45.6400   33.7760   45.8050 C   0  0  0  0  0  0  0  0  0  0  0  0
   45.0320   34.7880   45.1340 N   0  0  0  0  0  0  0  0  0  0  0  0
   44.8100   36.2150   43.1470 C   0  0  0  0  0  0  0  0  0  0  0  0
   45.2900   33.3550   47.0700 O   0  0  0  0  0  0  0  0  0  0  0  0
   45.3610   31.9960   49.2640 O   0  0  0  0  0  0  0  0  0  0  0  0
   45.7730   31.9170   47.7920 P   0  0  1  0  0  0  0  0  0  0  0  0
   45.0350   30.5510   47.1650 O   0  0  0  0  0  0  0  0  0  0  0  0
   47.4540   31.7100   47.6430 O   0  0  0  0  0  0  0  0  0  0  0  0
   48.2410   31.5040   48.7680 C   0  0  0  0  0  0  0  0  0  0  0  0
   49.2910   32.0710   49.1650 O   0  0  0  0  0  0  0  0  0  0  0  0
   47.7190   30.4440   49.5890 N   0  0  0  0  0  0  0  0  0  0  0  0
   46.8402   34.7211   42.2768 H   0  0  0  0  0  0  0  0  0  0  0  0
   47.9578   32.8307   43.5680 H   0  0  0  0  0  0  0  0  0  0  0  0
   44.3835   36.9476   43.8480 H   0  0  0  0  0  0  0  0  0  0  0  0
   45.5621   36.7083   42.5137 H   0  0  0  0  0  0  0  0  0  0  0  0
   44.0097   35.8045   42.5137 H   0  0  0  0  0  0  0  0  0  0  0  0
   44.7234   29.9743   47.9069 H   0  0  0  0  0  0  0  0  0  0  0  0
   48.2028   30.1808   50.4594 H   0  0  0  0  0  0  0  0  0  0  0  0
   46.8615   29.9483   49.3063 H   0  0  0  0  0  0  0  0  0  0  0  0
  1  6  2  0
  2  1  1  0
  2  3  2  0
  3  4  1  0
  4  5  2  0
  5  8  1  0
  6  5  1  0
  7  1  1  0
  8 10  1  0
 10  9  2  0
 11 10  1  0
 12 10  1  0
 12 13  1  0
 13 14  2  0
 13 15  1  0
  2 16  1  0
  3 17  1  0
  7 18  1  0
  7 19  1  0
  7 20  1  0
 11 21  1  0
 15 22  1  0
 15 23  1  0
M  ISO  6  16  14  17  14  18   8  19   8  20   8  21   3
M  END
>  <minimizedAffinity>  (1) 
-4.70696592

>  <minimizedRMSD>  (1) 
0.496655911

$$$$
