
     RDKit          3D

 25 26  0  0  0  0  0  0  0  0999 V2000
   45.6600   34.6220   44.2150 C   0  0  0  0  0  0  0  0  0  0  0  0
   46.7410   34.2940   43.4000 C   0  0  0  0  0  0  0  0  0  0  0  0
   47.5050   33.1840   43.7660 C   0  0  0  0  0  0  0  0  0  0  0  0
   47.1540   32.4940   44.8830 N   0  0  0  0  0  0  0  0  0  0  0  0
   46.0990   32.8370   45.6540 C   0  0  0  0  0  0  0  0  0  0  0  0
   45.3470   33.9080   45.3170 N   0  0  0  0  0  0  0  0  0  0  0  0
   45.8010   32.0330   46.8370 C   0  0  0  0  0  0  0  0  0  0  0  0
   45.6740   32.6460   48.0600 C   0  0  0  0  0  0  0  0  0  0  0  0
   45.3890   31.8100   49.1450 C   0  0  0  0  0  0  0  0  0  0  0  0
   45.2380   30.4280   48.9990 C   0  0  0  0  0  0  0  0  0  0  0  0
   45.3870   29.9100   47.7140 C   0  0  0  0  0  0  0  0  0  0  0  0
   45.6640   30.7060   46.6560 N   0  0  0  0  0  0  0  0  0  0  0  0
   47.0070   35.1050   42.2370 C   0  0  0  0  0  0  0  0  0  0  0  0
   48.5010   35.1020   41.9730 C   0  0  0  0  0  0  0  0  0  0  0  0
   45.0406   35.4921   43.9517 H   0  0  0  0  0  0  0  0  0  0  0  0
   48.3719   32.8749   43.1635 H   0  0  0  0  0  0  0  0  0  0  0  0
   45.7899   33.7333   48.1794 H   0  0  0  0  0  0  0  0  0  0  0  0
   45.2802   32.2546   50.1453 H   0  0  0  0  0  0  0  0  0  0  0  0
   45.0121   29.7796   49.8584 H   0  0  0  0  0  0  0  0  0  0  0  0
   45.2766   28.8270   47.5561 H   0  0  0  0  0  0  0  0  0  0  0  0
   46.4766   34.6900   41.3672 H   0  0  0  0  0  0  0  0  0  0  0  0
   46.6592   36.1341   42.4103 H   0  0  0  0  0  0  0  0  0  0  0  0
   49.0425   35.1009   42.9305 H   0  0  0  0  0  0  0  0  0  0  0  0
   48.7700   34.2033   41.3986 H   0  0  0  0  0  0  0  0  0  0  0  0
   48.7736   35.9996   41.3986 H   0  0  0  0  0  0  0  0  0  0  0  0
  1  6  2  0
  2  3  2  0
  2  1  1  0
  3  4  1  0
  4  5  2  0
  5  7  1  0
  6  5  1  0
  7  8  2  0
  8  9  1  0
 10  9  2  0
 11 10  1  0
 12  7  1  0
 12 11  2  0
 13  2  1  0
 14 13  1  0
  1 15  1  0
  3 16  1  0
  8 17  1  0
  9 18  1  0
 10 19  1  0
 11 20  1  0
 13 21  1  0
 13 22  1  0
 14 23  1  0
 14 24  1  0
 14 25  1  0
M  ISO  8  15  14  16  14  17  14  18  14  19  14  20  14  21   8  22   8
M  ISO  3  23   8  24   8  25   8
M  END
>  <minimizedAffinity>  (1) 
-4.62076998

>  <minimizedRMSD>  (1) 
1.64887309

$$$$
