
     RDKit          3D

 20 20  0  0  0  0  0  0  0  0999 V2000
   44.9510   35.4950   44.2520 C   0  0  0  0  0  0  0  0  0  0  0  0
   45.9210   34.7950   43.5330 C   0  0  0  0  0  0  0  0  0  0  0  0
   46.5400   33.7210   44.1820 C   0  0  0  0  0  0  0  0  0  0  0  0
   46.1710   33.4190   45.4610 N   0  0  0  0  0  0  0  0  0  0  0  0
   45.2240   34.1270   46.1190 C   0  0  0  0  0  0  0  0  0  0  0  0
   44.6120   35.1670   45.5160 N   0  0  0  0  0  0  0  0  0  0  0  0
   45.2320   32.5660   47.8740 C   0  0  0  0  0  0  0  0  0  0  0  0
   45.9060   31.7300   47.1940 O   0  0  0  0  0  0  0  0  0  0  0  0
   44.8030   33.8630   47.4360 N   0  0  0  0  0  0  0  0  0  0  0  0
   46.2360   35.1990   42.1810 C   0  0  0  0  0  0  0  0  0  0  0  0
   47.7390   35.0990   41.9870 C   0  0  0  0  0  0  0  0  0  0  0  0
   44.4447   36.3447   43.7708 H   0  0  0  0  0  0  0  0  0  0  0  0
   47.3124   33.1290   43.6692 H   0  0  0  0  0  0  0  0  0  0  0  0
   44.9512   32.2668   48.8946 H   0  0  0  0  0  0  0  0  0  0  0  0
   44.2560   34.5183   48.0124 H   0  0  0  0  0  0  0  0  0  0  0  0
   45.7247   34.5367   41.4670 H   0  0  0  0  0  0  0  0  0  0  0  0
   45.9012   36.2325   42.0084 H   0  0  0  0  0  0  0  0  0  0  0  0
   48.2340   35.0661   42.9688 H   0  0  0  0  0  0  0  0  0  0  0  0
   47.9761   34.1831   41.4259 H   0  0  0  0  0  0  0  0  0  0  0  0
   48.0954   35.9754   41.4259 H   0  0  0  0  0  0  0  0  0  0  0  0
  1  6  2  0
  2  3  2  0
  2  1  1  0
  3  4  1  0
  4  5  2  0
  5  9  1  0
  6  5  1  0
  8  7  2  0
  9  7  1  0
 10  2  1  0
 11 10  1  0
  1 12  1  0
  3 13  1  0
  7 14  1  0
  9 15  1  0
 10 16  1  0
 10 17  1  0
 11 18  1  0
 11 19  1  0
 11 20  1  0
M  ISO  8  12  14  13  14  14   6  16   8  17   8  18   8  19   8  20   8
M  END
>  <minimizedAffinity>  (1) 
-4.52486086

>  <minimizedRMSD>  (1) 
0.410572082

$$$$
