
     RDKit          3D

 19 19  0  0  0  0  0  0  0  0999 V2000
   45.3850   34.9290   44.1930 C   0  0  0  0  0  0  0  0  0  0  0  0
   46.4260   34.4580   43.3960 C   0  0  0  0  0  0  0  0  0  0  0  0
   47.2030   33.4140   43.9000 C   0  0  0  0  0  0  0  0  0  0  0  0
   46.8960   32.9220   45.1390 N   0  0  0  0  0  0  0  0  0  0  0  0
   45.8880   33.3960   45.8830 C   0  0  0  0  0  0  0  0  0  0  0  0
   45.1300   34.4040   45.4090 N   0  0  0  0  0  0  0  0  0  0  0  0
   46.6390   35.0600   42.1060 C   0  0  0  0  0  0  0  0  0  0  0  0
   48.1300   35.2100   41.8710 C   0  0  0  0  0  0  0  0  0  0  0  0
   45.5670   32.8500   47.2300 C   0  0  0  0  0  0  0  0  0  0  0  0
   44.7547   35.7502   43.8210 H   0  0  0  0  0  0  0  0  0  0  0  0
   48.0385   32.9985   43.3175 H   0  0  0  0  0  0  0  0  0  0  0  0
   46.2050   34.4196   41.3240 H   0  0  0  0  0  0  0  0  0  0  0  0
   46.1564   36.0479   42.0727 H   0  0  0  0  0  0  0  0  0  0  0  0
   48.6503   35.2623   42.8388 H   0  0  0  0  0  0  0  0  0  0  0  0
   48.5004   34.3446   41.3019 H   0  0  0  0  0  0  0  0  0  0  0  0
   48.3206   36.1319   41.3019 H   0  0  0  0  0  0  0  0  0  0  0  0
   45.9636   33.5246   48.0031 H   0  0  0  0  0  0  0  0  0  0  0  0
   44.4758   32.7662   47.3412 H   0  0  0  0  0  0  0  0  0  0  0  0
   46.0244   31.8558   47.3412 H   0  0  0  0  0  0  0  0  0  0  0  0
  1  6  2  0
  2  3  2  0
  2  1  1  0
  3  4  1  0
  4  5  2  0
  5  9  1  0
  6  5  1  0
  7  2  1  0
  8  7  1  0
  1 10  1  0
  3 11  1  0
  7 12  1  0
  7 13  1  0
  8 14  1  0
  8 15  1  0
  8 16  1  0
  9 17  1  0
  9 18  1  0
  9 19  1  0
M  ISO  8  10  14  11  14  12   8  13   8  14   8  15   8  16   8  17   8
M  ISO  2  18   8  19   8
M  END
>  <minimizedAffinity>  (1) 
-3.29292083

>  <minimizedRMSD>  (1) 
0.487520784

$$$$
