
     RDKit          3D

 32 33  0  0  0  0  0  0  0  0999 V2000
   46.8640   34.6830   42.7600 C   0  0  0  0  0  0  0  0  0  0  0  0
   47.9750   34.2500   42.0580 C   0  0  0  0  0  0  0  0  0  0  0  0
   48.6140   33.1300   42.5730 C   0  0  0  0  0  0  0  0  0  0  0  0
   48.1340   32.5340   43.7020 N   0  0  0  0  0  0  0  0  0  0  0  0
   47.0620   32.9850   44.3440 C   0  0  0  0  0  0  0  0  0  0  0  0
   46.4150   34.0770   43.8690 N   0  0  0  0  0  0  0  0  0  0  0  0
   45.6380   30.3360   43.8830 Cl  0  0  0  0  0  0  0  0  0  0  0  0
   45.9220   31.1100   45.4390 C   0  0  0  0  0  0  0  0  0  0  0  0
   46.5850   32.3220   45.5420 C   0  0  0  0  0  0  0  0  0  0  0  0
   46.8020   32.9170   46.7780 C   0  0  0  0  0  0  0  0  0  0  0  0
   46.3430   32.2800   47.9240 C   0  0  0  0  0  0  0  0  0  0  0  0
   45.6910   31.0850   47.7820 C   0  0  0  0  0  0  0  0  0  0  0  0
   45.1200   30.2980   49.2400 Cl  0  0  0  0  0  0  0  0  0  0  0  0
   45.4630   30.4740   46.5800 C   0  0  0  0  0  0  0  0  0  0  0  0
   48.4290   34.9270   40.8700 C   0  0  0  0  0  0  0  0  0  0  0  0
   47.7110   34.3210   39.6690 C   0  0  0  0  0  0  0  0  0  0  0  0
   48.6010   33.4100   39.1000 O   0  0  0  0  0  0  0  0  0  0  0  0
   47.4070   32.1350   37.1170 O   0  0  0  0  0  0  0  0  0  0  0  0
   48.3600   33.2650   37.4340 P   0  0  0  0  0  0  0  0  0  0  0  0
   49.7910   32.9860   36.6070 O   0  0  0  0  0  0  0  0  0  0  0  0
   47.7000   34.7290   36.9030 O   0  0  0  0  0  0  0  0  0  0  0  0
   46.3230   35.5667   42.3907 H   0  0  0  0  0  0  0  0  0  0  0  0
   49.5052   32.7244   42.0717 H   0  0  0  0  0  0  0  0  0  0  0  0
   47.3300   33.8794   46.8485 H   0  0  0  0  0  0  0  0  0  0  0  0
   46.4993   32.7238   48.9183 H   0  0  0  0  0  0  0  0  0  0  0  0
   44.9338   29.5115   46.5217 H   0  0  0  0  0  0  0  0  0  0  0  0
   48.1951   35.9995   40.9408 H   0  0  0  0  0  0  0  0  0  0  0  0
   49.5171   34.8097   40.7596 H   0  0  0  0  0  0  0  0  0  0  0  0
   46.7943   33.8064   39.9930 H   0  0  0  0  0  0  0  0  0  0  0  0
   47.4157   35.0962   38.9466 H   0  0  0  0  0  0  0  0  0  0  0  0
   50.5247   32.8429   37.2560 H   0  0  0  0  0  0  0  0  0  0  0  0
   47.4508   35.2818   37.6856 H   0  0  0  0  0  0  0  0  0  0  0  0
  1  6  2  0
  2  3  2  0
  2  1  1  0
  3  4  1  0
  4  5  2  0
  5  9  1  0
  6  5  1  0
  7  8  1  0
  8  9  2  0
  8 14  1  0
  9 10  1  0
 10 11  2  0
 12 11  1  0
 12 13  1  0
 14 12  2  0
 15  2  1  0
 16 15  1  0
 17 16  1  0
 18 19  2  0
 19 17  1  0
 20 19  1  0
 21 19  1  0
  1 22  1  0
  3 23  1  0
 10 24  1  0
 11 25  1  0
 14 26  1  0
 15 27  1  0
 15 28  1  0
 16 29  1  0
 16 30  1  0
 20 31  1  0
 21 32  1  0
M  ISO  8  22  14  23  14  24  14  25  14  26  14  27   8  28   8  29   8
M  ISO  3  30   8  31   3  32   3
M  END
>  <minimizedAffinity>  (1) 
-5.14168406

>  <minimizedRMSD>  (1) 
1.52556193

$$$$
