
     RDKit          3D

 33 35  0  0  0  0  0  0  0  0999 V2000
   46.8060   34.6030   42.8920 C   0  0  0  0  0  0  0  0  0  0  0  0
   47.9050   34.1400   42.1610 C   0  0  0  0  0  0  0  0  0  0  0  0
   48.5410   33.0160   42.6670 C   0  0  0  0  0  0  0  0  0  0  0  0
   48.0680   32.4450   43.8150 N   0  0  0  0  0  0  0  0  0  0  0  0
   47.0180   32.9170   44.4790 C   0  0  0  0  0  0  0  0  0  0  0  0
   46.3710   34.0110   44.0190 N   0  0  0  0  0  0  0  0  0  0  0  0
   45.5730   30.2600   44.0810 Cl  0  0  0  0  0  0  0  0  0  0  0  0
   45.8950   31.0640   45.6280 C   0  0  0  0  0  0  0  0  0  0  0  0
   46.5610   32.2700   45.6930 C   0  0  0  0  0  0  0  0  0  0  0  0
   46.8010   32.8790   46.9210 C   0  0  0  0  0  0  0  0  0  0  0  0
   46.3570   32.2500   48.0810 C   0  0  0  0  0  0  0  0  0  0  0  0
   45.7020   31.0540   47.9630 C   0  0  0  0  0  0  0  0  0  0  0  0
   45.1580   30.2910   49.4450 Cl  0  0  0  0  0  0  0  0  0  0  0  0
   45.4500   30.4270   46.7720 C   0  0  0  0  0  0  0  0  0  0  0  0
   48.2740   34.8600   40.9700 C   0  0  0  0  0  0  0  0  0  0  0  0
   47.4510   34.3220   39.8130 C   0  0  0  0  0  0  0  0  0  0  0  0
   48.2900   33.8670   38.6970 C   0  0  0  0  0  0  0  0  0  0  0  0
   48.8490   32.6060   38.6780 C   0  0  0  0  0  0  0  0  0  0  0  0
   49.5640   32.5160   37.5000 C   0  0  0  0  0  0  0  0  0  0  0  0
   49.4120   33.7050   36.8630 N   0  0  0  0  0  0  0  0  0  0  0  0
   48.6450   34.5250   37.5770 N   0  0  0  0  0  0  0  0  0  0  0  0
   46.2722   35.4933   42.5281 H   0  0  0  0  0  0  0  0  0  0  0  0
   49.4142   32.5900   42.1513 H   0  0  0  0  0  0  0  0  0  0  0  0
   47.3323   33.8407   46.9743 H   0  0  0  0  0  0  0  0  0  0  0  0
   46.5285   32.7033   49.0685 H   0  0  0  0  0  0  0  0  0  0  0  0
   44.9198   29.4642   46.7274 H   0  0  0  0  0  0  0  0  0  0  0  0
   48.0691   35.9323   41.1052 H   0  0  0  0  0  0  0  0  0  0  0  0
   49.3468   34.7288   40.7651 H   0  0  0  0  0  0  0  0  0  0  0  0
   46.8486   33.4742   40.1714 H   0  0  0  0  0  0  0  0  0  0  0  0
   46.8142   35.1395   39.4440 H   0  0  0  0  0  0  0  0  0  0  0  0
   48.7458   31.8272   39.4479 H   0  0  0  0  0  0  0  0  0  0  0  0
   50.1434   31.6502   37.1469 H   0  0  0  0  0  0  0  0  0  0  0  0
   49.8324   33.9400   35.9525 H   0  0  0  0  0  0  0  0  0  0  0  0
  1  6  2  0
  2  3  2  0
  2  1  1  0
  3  4  1  0
  4  5  2  0
  5  9  1  0
  6  5  1  0
  7  8  1  0
  8  9  2  0
  8 14  1  0
  9 10  1  0
 10 11  2  0
 12 11  1  0
 12 13  1  0
 14 12  2  0
 15  2  1  0
 16 15  1  0
 17 16  1  0
 18 17  1  0
 19 18  2  0
 20 19  1  0
 20 21  1  0
 21 17  2  0
  1 22  1  0
  3 23  1  0
 10 24  1  0
 11 25  1  0
 14 26  1  0
 15 27  1  0
 15 28  1  0
 16 29  1  0
 16 30  1  0
 18 31  1  0
 19 32  1  0
 20 33  1  0
M  ISO  8  22  14  23  14  24  14  25  14  26  14  27   8  28   8  29   8
M  ISO  4  30   8  31  14  32  14  33   9
M  END
>  <minimizedAffinity>  (1) 
-5.15886927

>  <minimizedRMSD>  (1) 
1.37205315

$$$$
