
     RDKit          3D

 20 21  0  0  0  0  0  0  0  0999 V2000
   44.5450   36.0520   44.5560 C   0  0  0  0  0  0  0  0  0  0  0  0
   45.1900   35.9670   43.3100 C   0  0  0  0  0  0  0  0  0  0  0  0
   46.0250   34.8750   43.1120 C   0  0  0  0  0  0  0  0  0  0  0  0
   46.1740   33.9540   44.1230 N   0  0  0  0  0  0  0  0  0  0  0  0
   45.5280   34.0910   45.3000 C   0  0  0  0  0  0  0  0  0  0  0  0
   44.7180   35.1350   45.5130 N   0  0  0  0  0  0  0  0  0  0  0  0
   46.6990   34.7830   41.8140 C   0  0  0  0  0  0  0  0  0  0  0  0
   48.1080   34.3660   42.0160 C   0  0  0  0  0  0  0  0  0  0  0  0
   49.1880   35.0820   42.4250 C   0  0  0  0  0  0  0  0  0  0  0  0
   50.3910   34.4250   42.5250 C   0  0  0  0  0  0  0  0  0  0  0  0
   50.4590   33.1050   42.2160 C   0  0  0  0  0  0  0  0  0  0  0  0
   48.7170   32.7100   41.7430 S   0  0  0  0  0  0  0  0  0  0  0  0
   43.8748   36.9024   44.7502 H   0  0  0  0  0  0  0  0  0  0  0  0
   45.0407   36.7281   42.5300 H   0  0  0  0  0  0  0  0  0  0  0  0
   45.6683   33.3389   46.0903 H   0  0  0  0  0  0  0  0  0  0  0  0
   46.6748   35.7646   41.3181 H   0  0  0  0  0  0  0  0  0  0  0  0
   46.1840   34.0414   41.1856 H   0  0  0  0  0  0  0  0  0  0  0  0
   49.1023   36.1514   42.6679 H   0  0  0  0  0  0  0  0  0  0  0  0
   51.2917   34.9646   42.8529 H   0  0  0  0  0  0  0  0  0  0  0  0
   51.3328   32.4373   42.2409 H   0  0  0  0  0  0  0  0  0  0  0  0
  1  6  2  0
  2  1  1  0
  3  2  2  0
  3  4  1  0
  4  5  2  0
  5  6  1  0
  7  8  1  0
  7  3  1  0
  8  9  2  0
  9 10  1  0
 11 10  2  0
 12  8  1  0
 12 11  1  0
  1 13  1  0
  2 14  1  0
  5 15  1  0
  7 16  1  0
  7 17  1  0
  9 18  1  0
 10 19  1  0
 11 20  1  0
M  ISO  8  13  14  14  14  15  14  16   8  17   8  18  14  19  14  20  14
M  END
>  <minimizedAffinity>  (1) 
-4.34686708

>  <minimizedRMSD>  (1) 
1.79169297

$$$$
