
     RDKit          3D

 32 34  0  0  1  0  0  0  0  0999 V2000
   47.0920   34.1120   41.4550 N   0  0  0  0  0  0  0  0  0  0  0  0
   47.3590   34.1880   40.0580 C   0  0  0  0  0  0  0  0  0  0  0  0
   48.5090   35.1530   40.0090 C   0  0  0  0  0  0  0  0  0  0  0  0
   48.8920   35.5250   41.4230 C   0  0  0  0  0  0  0  0  0  0  0  0
   48.1900   34.4150   42.2390 C   0  0  2  0  0  0  0  0  0  0  0  0
   49.1410   33.2900   42.3750 C   0  0  0  0  0  0  0  0  0  0  0  0
   50.5000   33.3540   42.2090 C   0  0  0  0  0  0  0  0  0  0  0  0
   51.3520   32.2790   42.3440 C   0  0  0  0  0  0  0  0  0  0  0  0
   50.8480   31.0390   42.6660 C   0  0  0  0  0  0  0  0  0  0  0  0
   49.4900   30.9980   42.8280 C   0  0  0  0  0  0  0  0  0  0  0  0
   48.6880   32.0420   42.6940 N   0  0  0  0  0  0  0  0  0  0  0  0
   45.8180   33.8670   41.8650 C   0  0  0  0  0  0  0  0  0  0  0  0
   44.4950   36.1150   44.5980 C   0  0  0  0  0  0  0  0  0  0  0  0
   44.8590   35.7140   43.2870 C   0  0  0  0  0  0  0  0  0  0  0  0
   45.4220   34.4580   43.1440 C   0  0  0  0  0  0  0  0  0  0  0  0
   45.5940   33.6930   44.2470 N   0  0  0  0  0  0  0  0  0  0  0  0
   45.2390   34.0980   45.5080 C   0  0  0  0  0  0  0  0  0  0  0  0
   44.6860   35.3150   45.6750 N   0  0  0  0  0  0  0  0  0  0  0  0
   46.8531   33.6725   39.2283 H   0  0  0  0  0  0  0  0  0  0  0  0
   48.9927   35.5273   39.0947 H   0  0  0  0  0  0  0  0  0  0  0  0
   49.9826   35.4975   41.5636 H   0  0  0  0  0  0  0  0  0  0  0  0
   48.5990   36.5452   41.7117 H   0  0  0  0  0  0  0  0  0  0  0  0
   47.8815   34.6816   43.2606 H   0  0  0  0  0  0  0  0  0  0  0  0
   50.9402   34.3285   41.9508 H   0  0  0  0  0  0  0  0  0  0  0  0
   52.4337   32.4117   42.1946 H   0  0  0  0  0  0  0  0  0  0  0  0
   51.4867   30.1512   42.7838 H   0  0  0  0  0  0  0  0  0  0  0  0
   49.0338   30.0312   43.0873 H   0  0  0  0  0  0  0  0  0  0  0  0
   45.1373   34.2539   41.0923 H   0  0  0  0  0  0  0  0  0  0  0  0
   45.7633   32.7788   42.0160 H   0  0  0  0  0  0  0  0  0  0  0  0
   44.0432   37.1071   44.7452 H   0  0  0  0  0  0  0  0  0  0  0  0
   44.7005   36.3733   42.4209 H   0  0  0  0  0  0  0  0  0  0  0  0
   45.4037   33.4376   46.3722 H   0  0  0  0  0  0  0  0  0  0  0  0
  1 12  1  0
  1  5  1  0
  2  1  1  0
  3  2  2  0
  3  4  1  0
  4  5  1  0
  5  6  1  0
  6 11  2  0
  7  8  2  0
  7  6  1  0
  8  9  1  0
  9 10  2  0
 11 10  1  0
 12 15  1  0
 13 18  2  0
 14 13  1  0
 15 14  2  0
 15 16  1  0
 16 17  2  0
 17 18  1  0
  2 19  1  0
  3 20  1  0
  4 21  1  0
  4 22  1  0
  5 23  1  1
  7 24  1  0
  8 25  1  0
  9 26  1  0
 10 27  1  0
 12 28  1  0
 12 29  1  0
 13 30  1  0
 14 31  1  0
 17 32  1  0
M  ISO  8  19  13  20  13  21  13  22  13  23  13  24  14  25  14  26  14
M  ISO  6  27  14  28   8  29   8  30  14  31  14  32  14
M  END
>  <minimizedAffinity>  (1) 
-4.98278427

>  <minimizedRMSD>  (1) 
1.1280514

$$$$
