
     RDKit          3D

 26 27  0  0  1  0  0  0  0  0999 V2000
   47.8070   34.0020   42.0170 N   0  0  0  0  0  0  0  0  0  0  0  0
   47.9540   34.7150   40.7950 C   0  0  0  0  0  0  0  0  0  0  0  0
   49.0390   35.6850   41.1060 C   0  0  0  0  0  0  0  0  0  0  0  0
   49.5250   35.4310   42.5110 C   0  0  0  0  0  0  0  0  0  0  0  0
   48.9880   33.9780   42.7400 C   0  0  2  0  0  0  0  0  0  0  0  0
   50.0680   33.1170   42.1210 C   0  0  0  0  0  0  0  0  0  0  0  0
   51.2940   33.7950   42.1610 F   0  0  0  0  0  0  0  0  0  0  0  0
   50.2780   31.9460   42.8040 F   0  0  0  0  0  0  0  0  0  0  0  0
   49.7070   32.8600   40.8090 F   0  0  0  0  0  0  0  0  0  0  0  0
   46.5850   33.5260   42.3990 C   0  0  0  0  0  0  0  0  0  0  0  0
   44.6120   36.0110   44.4490 C   0  0  0  0  0  0  0  0  0  0  0  0
   45.2720   35.4670   43.3150 C   0  0  0  0  0  0  0  0  0  0  0  0
   45.9070   34.2510   43.4580 C   0  0  0  0  0  0  0  0  0  0  0  0
   45.8570   33.6620   44.6670 N   0  0  0  0  0  0  0  0  0  0  0  0
   45.2130   34.2000   45.7590 C   0  0  0  0  0  0  0  0  0  0  0  0
   44.6000   35.3700   45.6270 N   0  0  0  0  0  0  0  0  0  0  0  0
   47.4020   34.5822   39.8528 H   0  0  0  0  0  0  0  0  0  0  0  0
   49.4227   36.4585   40.4245 H   0  0  0  0  0  0  0  0  0  0  0  0
   50.6223   35.4733   42.5751 H   0  0  0  0  0  0  0  0  0  0  0  0
   49.1854   36.1677   43.2539 H   0  0  0  0  0  0  0  0  0  0  0  0
   48.7947   33.6208   43.7623 H   0  0  0  0  0  0  0  0  0  0  0  0
   45.9309   33.5380   41.5147 H   0  0  0  0  0  0  0  0  0  0  0  0
   46.7798   32.5251   42.8115 H   0  0  0  0  0  0  0  0  0  0  0  0
   44.0991   36.9799   44.3590 H   0  0  0  0  0  0  0  0  0  0  0  0
   45.2766   35.9992   42.3523 H   0  0  0  0  0  0  0  0  0  0  0  0
   45.2067   33.6699   46.7228 H   0  0  0  0  0  0  0  0  0  0  0  0
  1 10  1  0
  1  5  1  0
  2  3  2  0
  2  1  1  0
  3  4  1  0
  4  5  1  0
  6  7  1  0
  6  5  1  0
  6  8  1  0
  9  6  1  0
 10 13  1  0
 11 16  2  0
 12 13  2  0
 12 11  1  0
 13 14  1  0
 14 15  2  0
 16 15  1  0
  2 17  1  0
  3 18  1  0
  4 19  1  0
  4 20  1  0
  5 21  1  1
 10 22  1  0
 10 23  1  0
 11 24  1  0
 12 25  1  0
 15 26  1  0
M  ISO  8  17  13  18  13  19  13  20  13  21  13  22   8  23   8  24  14
M  ISO  2  25  14  26  14
M  END
>  <minimizedAffinity>  (1) 
-5.09542751

>  <minimizedRMSD>  (1) 
1.30528176

$$$$
