
     RDKit          3D

 24 25  0  0  1  0  0  0  0  0999 V2000
   45.9290   35.4320   42.2240 C   0  0  0  0  0  0  0  0  0  0  0  0
   46.5840   34.5690   41.4070 N   0  0  0  0  0  0  0  0  0  0  0  0
   45.7990   33.7310   40.5560 C   0  0  0  0  0  0  0  0  0  0  0  0
   46.7260   33.5370   39.3860 C   0  0  0  0  0  0  0  0  0  0  0  0
   48.0360   34.2270   39.6750 C   0  0  0  0  0  0  0  0  0  0  0  0
   47.9420   34.4490   41.2060 C   0  0  1  0  0  0  0  0  0  0  0  0
   49.0180   35.8000   41.5620 S   0  0  0  0  0  0  0  0  0  0  0  0
   44.6530   35.0140   45.7460 C   0  0  0  0  0  0  0  0  0  0  0  0
   44.7890   35.5750   44.4710 C   0  0  0  0  0  0  0  0  0  0  0  0
   45.7050   34.9920   43.5990 C   0  0  0  0  0  0  0  0  0  0  0  0
   46.4110   33.9240   44.0360 N   0  0  0  0  0  0  0  0  0  0  0  0
   46.2660   33.3860   45.2910 C   0  0  0  0  0  0  0  0  0  0  0  0
   45.3870   33.9400   46.1350 N   0  0  0  0  0  0  0  0  0  0  0  0
   44.9457   35.6352   41.7747 H   0  0  0  0  0  0  0  0  0  0  0  0
   46.5873   36.3095   42.3049 H   0  0  0  0  0  0  0  0  0  0  0  0
   44.7857   33.3332   40.7141 H   0  0  0  0  0  0  0  0  0  0  0  0
   46.4866   32.9812   38.4675 H   0  0  0  0  0  0  0  0  0  0  0  0
   48.8923   33.5876   39.4142 H   0  0  0  0  0  0  0  0  0  0  0  0
   48.1914   35.1507   39.0982 H   0  0  0  0  0  0  0  0  0  0  0  0
   48.2859   33.6730   41.9056 H   0  0  0  0  0  0  0  0  0  0  0  0
   49.1342   35.9459   42.9192 H   0  0  0  0  0  0  0  0  0  0  0  0
   43.9328   35.4546   46.4512 H   0  0  0  0  0  0  0  0  0  0  0  0
   44.1920   36.4477   44.1677 H   0  0  0  0  0  0  0  0  0  0  0  0
   46.8624   32.5141   45.5978 H   0  0  0  0  0  0  0  0  0  0  0  0
  1 10  1  0
  2  1  1  0
  3  2  1  0
  4  5  1  0
  4  3  2  0
  5  6  1  0
  6  2  1  0
  6  7  1  0
  8 13  2  0
  9  8  1  0
 10 11  1  0
 10  9  2  0
 11 12  2  0
 12 13  1  0
  1 14  1  0
  1 15  1  0
  3 16  1  0
  4 17  1  0
  5 18  1  0
  5 19  1  0
  6 20  1  1
  7 21  1  0
  8 22  1  0
  9 23  1  0
 12 24  1  0
M  ISO  8  14   8  15   8  16  13  17  13  18  13  19  13  20  13  21  11
M  ISO  3  22  14  23  14  24  14
M  END
>  <minimizedAffinity>  (1) 
-4.06536913

>  <minimizedRMSD>  (1) 
1.41713238

$$$$
