
     RDKit          3D

 42 44  0  0  1  0  0  0  0  0999 V2000
   47.9050   34.0370   42.0630 N   0  0  0  0  0  0  0  0  0  0  0  0
   47.9240   34.9990   41.0300 C   0  0  0  0  0  0  0  0  0  0  0  0
   49.0790   35.8410   41.3890 C   0  0  0  0  0  0  0  0  0  0  0  0
   49.7260   35.2710   42.6400 C   0  0  0  0  0  0  0  0  0  0  0  0
   49.1710   33.8380   42.6420 C   0  0  2  0  0  0  0  0  0  0  0  0
   46.7210   33.4390   42.4250 C   0  0  0  0  0  0  0  0  0  0  0  0
   44.5950   35.7400   44.5520 C   0  0  0  0  0  0  0  0  0  0  0  0
   45.2620   35.2400   43.3980 C   0  0  0  0  0  0  0  0  0  0  0  0
   46.0160   34.0740   43.5200 C   0  0  0  0  0  0  0  0  0  0  0  0
   46.0650   33.4920   44.7370 N   0  0  0  0  0  0  0  0  0  0  0  0
   45.4130   33.9890   45.8470 C   0  0  0  0  0  0  0  0  0  0  0  0
   44.6860   35.1020   45.7510 N   0  0  0  0  0  0  0  0  0  0  0  0
   49.9300   33.1280   41.6990 O   0  0  0  0  0  0  0  0  0  0  0  0
   49.1430   30.9390   42.9750 O   0  0  0  0  0  0  0  0  0  0  0  0
   50.2020   31.5420   42.0820 P   0  0  2  0  0  0  0  0  0  0  0  0
   51.6730   31.4390   42.9230 O   0  0  0  0  0  0  0  0  0  0  0  0
   50.4020   30.5940   40.6690 O   0  0  0  0  0  0  0  0  0  0  0  0
   52.0770   31.1490   39.0300 C   0  0  1  0  0  0  0  0  0  0  0  0
   50.6820   31.3780   39.5700 C   0  0  1  0  0  0  0  0  0  0  0  0
   49.9110   30.9090   38.5080 O   0  0  0  0  0  0  0  0  0  0  0  0
   50.4180   31.6120   37.4190 C   0  0  0  0  0  0  0  0  0  0  0  0
   51.9050   31.5880   37.5780 C   0  0  2  0  0  0  0  0  0  0  0  0
   52.9440   31.9820   39.6910 O   0  0  0  0  0  0  0  0  0  0  0  0
   52.5430   30.6950   36.7220 O   0  0  0  0  0  0  0  0  0  0  0  0
   47.2449   35.0961   40.1701 H   0  0  0  0  0  0  0  0  0  0  0  0
   49.4166   36.7338   40.8422 H   0  0  0  0  0  0  0  0  0  0  0  0
   50.8234   35.2774   42.5641 H   0  0  0  0  0  0  0  0  0  0  0  0
   49.5093   35.8386   43.5570 H   0  0  0  0  0  0  0  0  0  0  0  0
   49.1694   33.3278   43.6165 H   0  0  0  0  0  0  0  0  0  0  0  0
   46.0576   33.4401   41.5476 H   0  0  0  0  0  0  0  0  0  0  0  0
   46.9847   32.4307   42.7770 H   0  0  0  0  0  0  0  0  0  0  0  0
   43.9951   36.6587   44.4733 H   0  0  0  0  0  0  0  0  0  0  0  0
   45.1842   35.7616   42.4327 H   0  0  0  0  0  0  0  0  0  0  0  0
   45.4933   33.4663   46.8116 H   0  0  0  0  0  0  0  0  0  0  0  0
   51.4977   31.4513   43.8973 H   0  0  0  0  0  0  0  0  0  0  0  0
   52.4701   30.1275   39.1399 H   0  0  0  0  0  0  0  0  0  0  0  0
   50.5190   32.4187   39.8869 H   0  0  0  0  0  0  0  0  0  0  0  0
   50.0483   32.6480   37.4256 H   0  0  0  0  0  0  0  0  0  0  0  0
   50.1046   31.1634   36.4648 H   0  0  0  0  0  0  0  0  0  0  0  0
   52.3559   32.5610   37.3331 H   0  0  0  0  0  0  0  0  0  0  0  0
   52.8283   31.8708   40.6679 H   0  0  0  0  0  0  0  0  0  0  0  0
   53.0280   30.0162   37.2550 H   0  0  0  0  0  0  0  0  0  0  0  0
  1  6  1  0
  1  5  1  0
  2  3  2  0
  2  1  1  0
  3  4  1  0
  4  5  1  0
  6  9  1  0
  7 12  2  0
  8  9  2  0
  8  7  1  0
  9 10  1  0
 10 11  2  0
 12 11  1  0
 13 15  1  0
 13  5  1  0
 15 16  1  0
 15 14  2  0
 17 15  1  0
 18 19  1  0
 18 23  1  0
 19 17  1  0
 20 19  1  0
 21 22  1  0
 21 20  1  0
 22 24  1  0
 22 18  1  0
  2 25  1  0
  3 26  1  0
  4 27  1  0
  4 28  1  0
  5 29  1  1
  6 30  1  0
  6 31  1  0
  7 32  1  0
  8 33  1  0
 11 34  1  0
 16 35  1  0
 18 36  1  6
 19 37  1  1
 21 38  1  0
 21 39  1  0
 22 40  1  1
 23 41  1  0
 24 42  1  0
M  ISO  8  25  13  26  13  27  13  28  13  29  13  30   8  31   8  32  14
M  ISO  8  33  14  34  14  35   3  36  13  37  13  38  13  39  13  40  13
M  ISO  2  41   3  42   3
M  END
>  <minimizedAffinity>  (1) 
-5.53344107

>  <minimizedRMSD>  (1) 
2.5333569

$$$$
