
     RDKit          3D

 39 41  0  0  1  0  0  0  0  0999 V2000
   48.0350   34.1140   42.0460 N   0  0  0  0  0  0  0  0  0  0  0  0
   48.0370   35.0530   40.9870 C   0  0  0  0  0  0  0  0  0  0  0  0
   49.1440   35.9590   41.3710 C   0  0  0  0  0  0  0  0  0  0  0  0
   49.7760   35.4490   42.6540 C   0  0  0  0  0  0  0  0  0  0  0  0
   49.2900   33.9890   42.6690 C   0  0  2  0  0  0  0  0  0  0  0  0
   46.8710   33.4650   42.3950 C   0  0  0  0  0  0  0  0  0  0  0  0
   44.6420   35.6800   44.5040 C   0  0  0  0  0  0  0  0  0  0  0  0
   45.3470   35.2190   43.3520 C   0  0  0  0  0  0  0  0  0  0  0  0
   46.1270   34.0650   43.4790 C   0  0  0  0  0  0  0  0  0  0  0  0
   46.1610   33.4630   44.6930 N   0  0  0  0  0  0  0  0  0  0  0  0
   45.4720   33.9260   45.7890 C   0  0  0  0  0  0  0  0  0  0  0  0
   44.7210   35.0220   45.6970 N   0  0  0  0  0  0  0  0  0  0  0  0
   50.1130   33.3030   41.7610 O   0  0  0  0  0  0  0  0  0  0  0  0
   49.3090   31.1590   43.1090 O   0  0  0  0  0  0  0  0  0  0  0  0
   50.1390   31.6530   41.9530 P   0  0  2  0  0  0  0  0  0  0  0  0
   51.7580   31.2260   42.3570 O   0  0  0  0  0  0  0  0  0  0  0  0
   49.8170   30.8290   40.5250 O   0  0  0  0  0  0  0  0  0  0  0  0
   48.0240   32.4430   37.6980 N   0  0  0  0  0  0  0  0  0  0  0  0
   48.1790   31.8270   38.8730 C   0  0  0  0  0  0  0  0  0  0  0  0
   49.3920   31.4500   39.3890 C   0  0  0  0  0  0  0  0  0  0  0  0
   50.4610   31.7830   38.5430 C   0  0  0  0  0  0  0  0  0  0  0  0
   51.6730   31.5460   38.7850 O   0  0  0  0  0  0  0  0  0  0  0  0
   50.3270   32.4010   37.3610 N   0  0  0  0  0  0  0  0  0  0  0  0
   49.0770   32.7410   36.9230 C   0  0  0  0  0  0  0  0  0  0  0  0
   48.6720   33.3150   35.8810 O   0  0  0  0  0  0  0  0  0  0  0  0
   47.3830   35.0984   40.1037 H   0  0  0  0  0  0  0  0  0  0  0  0
   49.4575   36.8559   40.8166 H   0  0  0  0  0  0  0  0  0  0  0  0
   50.8737   35.5077   42.6134 H   0  0  0  0  0  0  0  0  0  0  0  0
   49.5026   36.0243   43.5508 H   0  0  0  0  0  0  0  0  0  0  0  0
   49.2813   33.4974   43.6530 H   0  0  0  0  0  0  0  0  0  0  0  0
   46.2187   33.4387   41.5096 H   0  0  0  0  0  0  0  0  0  0  0  0
   47.1745   32.4693   42.7508 H   0  0  0  0  0  0  0  0  0  0  0  0
   44.0216   36.5852   44.4287 H   0  0  0  0  0  0  0  0  0  0  0  0
   45.2791   35.7547   42.3937 H   0  0  0  0  0  0  0  0  0  0  0  0
   45.5414   33.3887   46.7463 H   0  0  0  0  0  0  0  0  0  0  0  0
   51.8565   31.2000   43.3417 H   0  0  0  0  0  0  0  0  0  0  0  0
   47.0768   32.6941   37.3809 H   0  0  0  0  0  0  0  0  0  0  0  0
   47.2771   31.6085   39.4636 H   0  0  0  0  0  0  0  0  0  0  0  0
   51.1560   32.6173   36.7893 H   0  0  0  0  0  0  0  0  0  0  0  0
  1  6  1  0
  1  5  1  0
  2  3  2  0
  2  1  1  0
  3  4  1  0
  4  5  1  0
  6  9  1  0
  7 12  2  0
  8  9  2  0
  8  7  1  0
  9 10  1  0
 10 11  2  0
 12 11  1  0
 13 15  1  0
 13  5  1  0
 15 16  1  0
 15 14  2  0
 17 15  1  0
 18 19  1  0
 19 20  2  0
 20 17  1  0
 21 22  2  0
 21 20  1  0
 23 21  1  0
 24 23  1  0
 24 18  1  0
 25 24  2  0
  2 26  1  0
  3 27  1  0
  4 28  1  0
  4 29  1  0
  5 30  1  1
  6 31  1  0
  6 32  1  0
  7 33  1  0
  8 34  1  0
 11 35  1  0
 16 36  1  0
 18 37  1  0
 19 38  1  0
 23 39  1  0
M  ISO  8  26  13  27  13  28  13  29  13  30  13  31   8  32   8  33  14
M  ISO  6  34  14  35  14  36   3  37   9  38  14  39   9
M  END
>  <minimizedAffinity>  (1) 
-5.55898333

>  <minimizedRMSD>  (1) 
1.95697439

$$$$
