
     RDKit          3D

 36 38  0  0  1  0  0  0  0  0999 V2000
   46.5130   32.7550   41.4880 C   0  0  2  0  0  0  0  0  0  0  0  0
   46.1980   32.7360   40.0470 C   0  0  0  0  0  0  0  0  0  0  0  0
   44.9440   33.4910   39.6940 C   0  0  0  0  0  0  0  0  0  0  0  0
   43.7540   32.9470   40.4450 C   0  0  0  0  0  0  0  0  0  0  0  0
   44.0330   32.7460   41.9090 C   0  0  0  0  0  0  0  0  0  0  0  0
   45.3750   33.2960   42.3320 C   0  0  1  0  0  0  0  0  0  0  0  0
   47.7190   33.5500   41.7900 C   0  0  0  0  0  0  0  0  0  0  0  0
   47.6660   34.9110   41.4350 C   0  0  0  0  0  0  0  0  0  0  0  0
   48.7630   35.7320   41.6970 C   0  0  0  0  0  0  0  0  0  0  0  0
   49.8490   35.1320   42.3010 N   0  0  0  0  0  0  0  0  0  0  0  0
   49.8710   33.8310   42.6280 C   0  0  0  0  0  0  0  0  0  0  0  0
   48.8080   33.0300   42.3750 N   0  0  0  0  0  0  0  0  0  0  0  0
   44.8550   35.6750   44.2490 Cl  0  0  0  0  0  0  0  0  0  0  0  0
   45.3770   34.0850   44.7560 C   0  0  0  0  0  0  0  0  0  0  0  0
   45.5500   33.1400   43.7680 C   0  0  0  0  0  0  0  0  0  0  0  0
   45.9570   31.8930   44.2540 C   0  0  0  0  0  0  0  0  0  0  0  0
   46.1600   31.6520   45.5930 C   0  0  0  0  0  0  0  0  0  0  0  0
   45.9640   32.6610   46.5410 C   0  0  0  0  0  0  0  0  0  0  0  0
   45.5630   33.9070   46.1060 C   0  0  0  0  0  0  0  0  0  0  0  0
   46.6883   31.7001   41.7458 H   0  0  0  0  0  0  0  0  0  0  0  0
   47.0402   33.1861   39.5010 H   0  0  0  0  0  0  0  0  0  0  0  0
   46.0315   31.6853   39.7671 H   0  0  0  0  0  0  0  0  0  0  0  0
   45.0782   34.5517   39.9529 H   0  0  0  0  0  0  0  0  0  0  0  0
   44.7590   33.3771   38.6157 H   0  0  0  0  0  0  0  0  0  0  0  0
   42.9184   33.6546   40.3401 H   0  0  0  0  0  0  0  0  0  0  0  0
   43.5115   31.9639   40.0153 H   0  0  0  0  0  0  0  0  0  0  0  0
   43.2474   33.2525   42.4889 H   0  0  0  0  0  0  0  0  0  0  0  0
   44.0459   31.6623   42.0971 H   0  0  0  0  0  0  0  0  0  0  0  0
   45.3981   34.3780   42.1354 H   0  0  0  0  0  0  0  0  0  0  0  0
   46.7667   35.3240   40.9548 H   0  0  0  0  0  0  0  0  0  0  0  0
   48.7623   36.8006   41.4361 H   0  0  0  0  0  0  0  0  0  0  0  0
   50.7655   33.4083   43.1087 H   0  0  0  0  0  0  0  0  0  0  0  0
   46.1209   31.0740   43.5382 H   0  0  0  0  0  0  0  0  0  0  0  0
   46.4807   30.6526   45.9222 H   0  0  0  0  0  0  0  0  0  0  0  0
   46.1262   32.4652   47.6112 H   0  0  0  0  0  0  0  0  0  0  0  0
   45.3976   34.7308   46.8160 H   0  0  0  0  0  0  0  0  0  0  0  0
  1  7  1  0
  1  6  1  0
  2  1  1  0
  3  2  1  0
  3  4  1  0
  4  5  1  0
  5  6  1  0
  6 15  1  0
  7 12  2  0
  8  9  2  0
  8  7  1  0
  9 10  1  0
 10 11  2  0
 12 11  1  0
 13 14  1  0
 14 19  2  0
 15 16  2  0
 15 14  1  0
 16 17  1  0
 17 18  2  0
 19 18  1  0
  1 20  1  1
  2 21  1  0
  2 22  1  0
  3 23  1  0
  3 24  1  0
  4 25  1  0
  4 26  1  0
  5 27  1  0
  5 28  1  0
  6 29  1  1
  8 30  1  0
  9 31  1  0
 11 32  1  0
 16 33  1  0
 17 34  1  0
 18 35  1  0
 19 36  1  0
M  ISO  8  20  13  21  13  22  13  23  13  24  13  25  13  26  13  27  13
M  ISO  8  28  13  29  13  30  14  31  14  32  14  33  14  34  14  35  14
M  ISO  1  36  14
M  END
>  <minimizedAffinity>  (1) 
-4.77526045

>  <minimizedRMSD>  (1) 
3.10974598

$$$$
