
     RDKit          3D

 32 33  0  0  1  0  0  0  0  0999 V2000
   47.8400   33.9730   41.9930 N   0  0  0  0  0  0  0  0  0  0  0  0
   47.8650   34.8660   40.9000 C   0  0  0  0  0  0  0  0  0  0  0  0
   49.0280   35.7270   41.2090 C   0  0  0  0  0  0  0  0  0  0  0  0
   49.6630   35.2270   42.5000 C   0  0  0  0  0  0  0  0  0  0  0  0
   49.1030   33.7980   42.5810 C   0  0  2  0  0  0  0  0  0  0  0  0
   46.6510   33.4120   42.3870 C   0  0  0  0  0  0  0  0  0  0  0  0
   44.5830   35.8440   44.4220 C   0  0  0  0  0  0  0  0  0  0  0  0
   45.2450   35.2800   43.2920 C   0  0  0  0  0  0  0  0  0  0  0  0
   45.9600   34.1000   43.4570 C   0  0  0  0  0  0  0  0  0  0  0  0
   45.9830   33.5560   44.6950 N   0  0  0  0  0  0  0  0  0  0  0  0
   45.3380   34.1120   45.7790 C   0  0  0  0  0  0  0  0  0  0  0  0
   44.6460   35.2450   45.6390 N   0  0  0  0  0  0  0  0  0  0  0  0
   49.8610   33.0320   41.6830 O   0  0  0  0  0  0  0  0  0  0  0  0
   49.1580   30.9810   43.2220 O   0  0  0  0  0  0  0  0  0  0  0  0
   50.1300   31.4730   42.1770 P   0  0  2  0  0  0  0  0  0  0  0  0
   51.6800   31.3920   42.8650 O   0  0  0  0  0  0  0  0  0  0  0  0
   50.1620   30.3990   40.8400 O   0  0  0  0  0  0  0  0  0  0  0  0
   50.9160   29.2920   41.1710 C   0  0  0  0  0  0  0  0  0  0  0  0
   47.1882   34.9107   40.0340 H   0  0  0  0  0  0  0  0  0  0  0  0
   49.3745   36.5815   40.6093 H   0  0  0  0  0  0  0  0  0  0  0  0
   50.7610   35.2255   42.4338 H   0  0  0  0  0  0  0  0  0  0  0  0
   49.4397   35.8476   43.3803 H   0  0  0  0  0  0  0  0  0  0  0  0
   49.0983   33.3406   43.5814 H   0  0  0  0  0  0  0  0  0  0  0  0
   45.9827   33.3866   41.5136 H   0  0  0  0  0  0  0  0  0  0  0  0
   46.9036   32.4170   42.7822 H   0  0  0  0  0  0  0  0  0  0  0  0
   44.0131   36.7777   44.3062 H   0  0  0  0  0  0  0  0  0  0  0  0
   45.1907   35.7697   42.3085 H   0  0  0  0  0  0  0  0  0  0  0  0
   45.3936   33.6209   46.7617 H   0  0  0  0  0  0  0  0  0  0  0  0
   51.6035   31.3960   43.8520 H   0  0  0  0  0  0  0  0  0  0  0  0
   50.9763   29.2034   42.2658 H   0  0  0  0  0  0  0  0  0  0  0  0
   50.4441   28.3894   40.7556 H   0  0  0  0  0  0  0  0  0  0  0  0
   51.9287   29.4006   40.7556 H   0  0  0  0  0  0  0  0  0  0  0  0
  1  6  1  0
  1  5  1  0
  2  3  2  0
  2  1  1  0
  3  4  1  0
  4  5  1  0
  6  9  1  0
  7 12  2  0
  8  9  2  0
  8  7  1  0
  9 10  1  0
 10 11  2  0
 12 11  1  0
 13 15  1  0
 13  5  1  0
 15 16  1  0
 15 14  2  0
 17 18  1  0
 17 15  1  0
  2 19  1  0
  3 20  1  0
  4 21  1  0
  4 22  1  0
  5 23  1  1
  6 24  1  0
  6 25  1  0
  7 26  1  0
  8 27  1  0
 11 28  1  0
 16 29  1  0
 18 30  1  0
 18 31  1  0
 18 32  1  0
M  ISO  8  19  13  20  13  21  13  22  13  23  13  24   8  25   8  26  14
M  ISO  6  27  14  28  14  29   3  30   8  31   8  32   8
M  END
>  <minimizedAffinity>  (1) 
-4.5730443

>  <minimizedRMSD>  (1) 
0.138540179

$$$$
