
     RDKit          3D

 33 34  0  0  1  0  0  0  0  0999 V2000
   47.8370   33.9720   42.0020 N   0  0  0  0  0  0  0  0  0  0  0  0
   47.8570   34.8640   40.9100 C   0  0  0  0  0  0  0  0  0  0  0  0
   49.0180   35.7300   41.2160 C   0  0  0  0  0  0  0  0  0  0  0  0
   49.6550   35.2340   42.5070 C   0  0  0  0  0  0  0  0  0  0  0  0
   49.1020   33.8040   42.5910 C   0  0  2  0  0  0  0  0  0  0  0  0
   46.6500   33.4060   42.3970 C   0  0  0  0  0  0  0  0  0  0  0  0
   44.5840   35.8210   44.4510 C   0  0  0  0  0  0  0  0  0  0  0  0
   45.2420   35.2680   43.3100 C   0  0  0  0  0  0  0  0  0  0  0  0
   45.9630   34.0870   43.4740 C   0  0  0  0  0  0  0  0  0  0  0  0
   45.9930   33.5430   44.7110 N   0  0  0  0  0  0  0  0  0  0  0  0
   45.3520   34.0890   45.8010 C   0  0  0  0  0  0  0  0  0  0  0  0
   44.6550   35.2200   45.6630 N   0  0  0  0  0  0  0  0  0  0  0  0
   49.8610   33.0380   41.6960 O   0  0  0  0  0  0  0  0  0  0  0  0
   49.1610   30.9800   43.2220 O   0  0  0  0  0  0  0  0  0  0  0  0
   50.1440   31.4830   42.1930 P   0  0  2  0  0  0  0  0  0  0  0  0
   51.6860   31.4210   42.8930 O   0  0  0  0  0  0  0  0  0  0  0  0
   50.2020   30.4130   40.8520 O   0  0  0  0  0  0  0  0  0  0  0  0
   51.1310   29.4040   40.7180 C   0  0  0  0  0  0  0  0  0  0  0  0
   51.4740   28.7510   41.7250 O   0  0  0  0  0  0  0  0  0  0  0  0
   51.6710   29.1410   39.4070 N   0  0  0  0  0  0  0  0  0  0  0  0
   47.1783   34.9059   40.0453 H   0  0  0  0  0  0  0  0  0  0  0  0
   49.3613   36.5845   40.6144 H   0  0  0  0  0  0  0  0  0  0  0  0
   50.7530   35.2370   42.4404 H   0  0  0  0  0  0  0  0  0  0  0  0
   49.4287   35.8549   43.3864 H   0  0  0  0  0  0  0  0  0  0  0  0
   49.1005   33.3499   43.5929 H   0  0  0  0  0  0  0  0  0  0  0  0
   45.9782   33.3849   41.5262 H   0  0  0  0  0  0  0  0  0  0  0  0
   46.9051   32.4086   42.7843 H   0  0  0  0  0  0  0  0  0  0  0  0
   44.0088   36.7524   44.3434 H   0  0  0  0  0  0  0  0  0  0  0  0
   45.1811   35.7611   42.3286 H   0  0  0  0  0  0  0  0  0  0  0  0
   45.4139   33.5952   46.7820 H   0  0  0  0  0  0  0  0  0  0  0  0
   51.6010   31.4244   43.8793 H   0  0  0  0  0  0  0  0  0  0  0  0
   52.3669   28.3928   39.2773 H   0  0  0  0  0  0  0  0  0  0  0  0
   51.3608   29.7013   38.6003 H   0  0  0  0  0  0  0  0  0  0  0  0
  1  6  1  0
  1  5  1  0
  2  3  2  0
  2  1  1  0
  3  4  1  0
  4  5  1  0
  6  9  1  0
  7 12  2  0
  8  9  2  0
  8  7  1  0
  9 10  1  0
 10 11  2  0
 12 11  1  0
 13 15  1  0
 13  5  1  0
 15 16  1  0
 15 14  2  0
 17 15  1  0
 18 17  1  0
 18 19  2  0
 20 18  1  0
  2 21  1  0
  3 22  1  0
  4 23  1  0
  4 24  1  0
  5 25  1  1
  6 26  1  0
  6 27  1  0
  7 28  1  0
  8 29  1  0
 11 30  1  0
 16 31  1  0
 20 32  1  0
 20 33  1  0
M  ISO  8  21  13  22  13  23  13  24  13  25  13  26   8  27   8  28  14
M  ISO  3  29  14  30  14  31   3
M  END
>  <minimizedAffinity>  (1) 
-4.49691534

>  <minimizedRMSD>  (1) 
0.237866297

$$$$
