
     RDKit          3D

 24 25  0  0  1  0  0  0  0  0999 V2000
   44.5620   35.5550   44.8400 C   0  0  0  0  0  0  0  0  0  0  0  0
   45.1770   35.5150   43.5750 C   0  0  0  0  0  0  0  0  0  0  0  0
   46.1820   34.5650   43.3690 C   0  0  0  0  0  0  0  0  0  0  0  0
   46.5080   33.7360   44.3970 N   0  0  0  0  0  0  0  0  0  0  0  0
   45.8990   33.7970   45.6030 C   0  0  0  0  0  0  0  0  0  0  0  0
   44.9220   34.7090   45.8290 N   0  0  0  0  0  0  0  0  0  0  0  0
   46.3150   32.8510   46.6780 C   0  0  2  0  0  0  0  0  0  0  0  0
   46.6930   31.5820   46.0130 C   0  0  0  0  0  0  0  0  0  0  0  0
   45.6820   30.4780   46.1530 C   0  0  0  0  0  0  0  0  0  0  0  0
   45.4790   30.2760   47.6310 C   0  0  0  0  0  0  0  0  0  0  0  0
   44.9310   31.4770   48.3090 C   0  0  0  0  0  0  0  0  0  0  0  0
   45.2450   32.7910   47.7020 C   0  0  0  0  0  0  0  0  0  0  0  0
   43.7686   36.2934   45.0278 H   0  0  0  0  0  0  0  0  0  0  0  0
   44.8772   36.2079   42.7750 H   0  0  0  0  0  0  0  0  0  0  0  0
   46.6963   34.4899   42.3996 H   0  0  0  0  0  0  0  0  0  0  0  0
   47.2025   33.1634   47.2479 H   0  0  0  0  0  0  0  0  0  0  0  0
   47.6420   31.2357   46.4483 H   0  0  0  0  0  0  0  0  0  0  0  0
   46.7673   31.8029   44.9380 H   0  0  0  0  0  0  0  0  0  0  0  0
   44.7345   30.7662   45.6743 H   0  0  0  0  0  0  0  0  0  0  0  0
   46.0289   29.5541   45.6671 H   0  0  0  0  0  0  0  0  0  0  0  0
   44.7791   29.4402   47.7780 H   0  0  0  0  0  0  0  0  0  0  0  0
   46.4643   30.0682   48.0738 H   0  0  0  0  0  0  0  0  0  0  0  0
   44.3200   31.3951   49.2200 H   0  0  0  0  0  0  0  0  0  0  0  0
   44.6992   33.6974   48.0028 H   0  0  0  0  0  0  0  0  0  0  0  0
  1  6  2  0
  2  1  1  0
  3  2  2  0
  3  4  1  0
  4  5  2  0
  5  6  1  0
  7  5  1  0
  7 12  1  0
  8  9  1  0
  8  7  1  0
  9 10  1  0
 10 11  1  0
 12 11  2  0
  1 13  1  0
  2 14  1  0
  3 15  1  0
  7 16  1  1
  8 17  1  0
  8 18  1  0
  9 19  1  0
  9 20  1  0
 10 21  1  0
 10 22  1  0
 11 23  1  0
 12 24  1  0
M  ISO  8  13  14  14  14  15  14  16  13  17  13  18  13  19  13  20  13
M  ISO  4  21  13  22  13  23  13  24  13
M  END
>  <minimizedAffinity>  (1) 
-4.3934269

>  <minimizedRMSD>  (1) 
2.36331844

$$$$
