
     RDKit          3D

 41 43  0  0  1  0  0  0  0  0999 V2000
   46.4620   32.8130   46.6310 C   0  0  2  0  0  0  0  0  0  0  0  0
   46.9660   31.5270   46.0650 C   0  0  0  0  0  0  0  0  0  0  0  0
   46.0500   30.3750   46.1330 C   0  0  0  0  0  0  0  0  0  0  0  0
   45.6650   30.2390   47.6000 C   0  0  0  0  0  0  0  0  0  0  0  0
   44.8810   31.3890   48.0820 C   0  0  0  0  0  0  0  0  0  0  0  0
   45.3340   32.7190   47.5460 C   0  0  0  0  0  0  0  0  0  0  0  0
   44.7990   35.3220   44.4710 C   0  0  0  0  0  0  0  0  0  0  0  0
   45.5670   35.2540   43.2930 C   0  0  0  0  0  0  0  0  0  0  0  0
   46.6490   34.3410   43.2600 C   0  0  0  0  0  0  0  0  0  0  0  0
   46.8820   33.5850   44.3620 N   0  0  0  0  0  0  0  0  0  0  0  0
   46.1320   33.6750   45.4650 C   0  0  0  0  0  0  0  0  0  0  0  0
   45.0760   34.5460   45.5390 N   0  0  0  0  0  0  0  0  0  0  0  0
   47.5210   34.1460   42.1560 N   0  0  0  0  0  0  0  0  0  0  0  0
   48.6850   34.9780   41.9230 C   0  0  0  0  0  0  0  0  0  0  0  0
   48.7870   35.5260   40.5400 C   0  0  0  0  0  0  0  0  0  0  0  0
   48.3660   34.5630   39.4720 C   0  0  0  0  0  0  0  0  0  0  0  0
   47.0760   33.8660   39.8430 C   0  0  0  0  0  0  0  0  0  0  0  0
   47.3600   33.1220   41.1540 C   0  0  0  0  0  0  0  0  0  0  0  0
   44.6580   33.9020   47.9310 N   0  0  0  0  0  0  0  0  0  0  0  0
   47.2530   33.2287   47.2724 H   0  0  0  0  0  0  0  0  0  0  0  0
   47.8824   31.2580   46.6108 H   0  0  0  0  0  0  0  0  0  0  0  0
   47.1131   31.7190   44.9919 H   0  0  0  0  0  0  0  0  0  0  0  0
   45.1568   30.5586   45.5178 H   0  0  0  0  0  0  0  0  0  0  0  0
   46.5227   29.4581   45.7512 H   0  0  0  0  0  0  0  0  0  0  0  0
   45.0656   29.3251   47.7250 H   0  0  0  0  0  0  0  0  0  0  0  0
   46.5933   30.1947   48.1884 H   0  0  0  0  0  0  0  0  0  0  0  0
   44.0344   31.2837   48.7764 H   0  0  0  0  0  0  0  0  0  0  0  0
   43.9537   36.0240   44.5216 H   0  0  0  0  0  0  0  0  0  0  0  0
   45.3340   35.8897   42.4260 H   0  0  0  0  0  0  0  0  0  0  0  0
   48.6491   35.8235   42.6257 H   0  0  0  0  0  0  0  0  0  0  0  0
   49.5643   34.3336   42.0696 H   0  0  0  0  0  0  0  0  0  0  0  0
   48.1474   36.4184   40.4732 H   0  0  0  0  0  0  0  0  0  0  0  0
   49.8489   35.7529   40.3643 H   0  0  0  0  0  0  0  0  0  0  0  0
   49.1555   33.8090   39.3370 H   0  0  0  0  0  0  0  0  0  0  0  0
   48.2034   35.1247   38.5403 H   0  0  0  0  0  0  0  0  0  0  0  0
   46.2716   34.6022   39.9877 H   0  0  0  0  0  0  0  0  0  0  0  0
   46.7481   33.1765   39.0511 H   0  0  0  0  0  0  0  0  0  0  0  0
   46.5179   32.4627   41.4111 H   0  0  0  0  0  0  0  0  0  0  0  0
   48.2545   32.4867   41.0750 H   0  0  0  0  0  0  0  0  0  0  0  0
   43.8581   33.8508   48.5778 H   0  0  0  0  0  0  0  0  0  0  0  0
   44.9662   34.8138   47.5642 H   0  0  0  0  0  0  0  0  0  0  0  0
  1  6  1  0
  2  3  1  0
  2  1  1  0
  3  4  1  0
  4  5  1  0
  6 19  1  0
  6  5  2  0
  7 12  2  0
  8  7  1  0
  9  8  2  0
  9 10  1  0
 10 11  2  0
 11 12  1  0
 11  1  1  0
 13  9  1  0
 14 13  1  0
 15 14  1  0
 16 17  1  0
 16 15  1  0
 17 18  1  0
 18 13  1  0
  1 20  1  1
  2 21  1  0
  2 22  1  0
  3 23  1  0
  3 24  1  0
  4 25  1  0
  4 26  1  0
  5 27  1  0
  7 28  1  0
  8 29  1  0
 14 30  1  0
 14 31  1  0
 15 32  1  0
 15 33  1  0
 16 34  1  0
 16 35  1  0
 17 36  1  0
 17 37  1  0
 18 38  1  0
 18 39  1  0
 19 40  1  0
 19 41  1  0
M  ISO  8  20  13  21  13  22  13  23  13  24  13  25  13  26  13  27  13
M  ISO  8  28  14  29  14  30  13  31  13  32  13  33  13  34  13  35  13
M  ISO  4  36  13  37  13  38  13  39  13
M  END
>  <minimizedAffinity>  (1) 
-6.4584136

>  <minimizedRMSD>  (1) 
0.547658563

$$$$
