
     RDKit          3D

 29 30  0  0  1  0  0  0  0  0999 V2000
   46.4950   32.7950   46.7190 C   0  0  2  0  0  0  0  0  0  0  0  0
   47.0160   31.4710   46.2660 C   0  0  0  0  0  0  0  0  0  0  0  0
   46.0790   30.3360   46.3590 C   0  0  0  0  0  0  0  0  0  0  0  0
   45.6340   30.3050   47.8160 C   0  0  0  0  0  0  0  0  0  0  0  0
   44.8220   31.4840   48.1700 C   0  0  0  0  0  0  0  0  0  0  0  0
   45.3140   32.7700   47.5680 C   0  0  0  0  0  0  0  0  0  0  0  0
   44.9410   35.1020   44.2710 C   0  0  0  0  0  0  0  0  0  0  0  0
   45.8350   35.0300   43.1800 C   0  0  0  0  0  0  0  0  0  0  0  0
   46.9590   34.1780   43.3170 C   0  0  0  0  0  0  0  0  0  0  0  0
   47.1230   33.4840   44.4690 N   0  0  0  0  0  0  0  0  0  0  0  0
   46.2440   33.5830   45.4870 C   0  0  0  0  0  0  0  0  0  0  0  0
   45.1470   34.3920   45.3970 N   0  0  0  0  0  0  0  0  0  0  0  0
   47.9340   34.0700   42.1840 C   0  0  0  0  0  0  0  0  0  0  0  0
   44.6130   33.9840   47.8300 N   0  0  0  0  0  0  0  0  0  0  0  0
   47.2531   33.2422   47.3787 H   0  0  0  0  0  0  0  0  0  0  0  0
   47.8972   31.2297   46.8786 H   0  0  0  0  0  0  0  0  0  0  0  0
   47.2288   31.5898   45.1933 H   0  0  0  0  0  0  0  0  0  0  0  0
   45.2160   30.4926   45.6952 H   0  0  0  0  0  0  0  0  0  0  0  0
   46.5474   29.3894   46.0515 H   0  0  0  0  0  0  0  0  0  0  0  0
   45.0357   29.3976   47.9855 H   0  0  0  0  0  0  0  0  0  0  0  0
   46.5350   30.3106   48.4470 H   0  0  0  0  0  0  0  0  0  0  0  0
   43.9346   31.4271   48.8175 H   0  0  0  0  0  0  0  0  0  0  0  0
   44.0568   35.7524   44.1996 H   0  0  0  0  0  0  0  0  0  0  0  0
   45.6657   35.6114   42.2617 H   0  0  0  0  0  0  0  0  0  0  0  0
   48.9518   33.9573   42.5856 H   0  0  0  0  0  0  0  0  0  0  0  0
   47.6840   33.1941   41.5674 H   0  0  0  0  0  0  0  0  0  0  0  0
   47.8818   34.9794   41.5674 H   0  0  0  0  0  0  0  0  0  0  0  0
   43.7758   33.9761   48.4299 H   0  0  0  0  0  0  0  0  0  0  0  0
   44.9439   34.8687   47.4193 H   0  0  0  0  0  0  0  0  0  0  0  0
  1  6  1  0
  2  3  1  0
  2  1  1  0
  3  4  1  0
  4  5  1  0
  6 14  1  0
  6  5  2  0
  7 12  2  0
  8  9  2  0
  8  7  1  0
  9 10  1  0
 10 11  2  0
 11  1  1  0
 12 11  1  0
 13  9  1  0
  1 15  1  1
  2 16  1  0
  2 17  1  0
  3 18  1  0
  3 19  1  0
  4 20  1  0
  4 21  1  0
  5 22  1  0
  7 23  1  0
  8 24  1  0
 13 25  1  0
 13 26  1  0
 13 27  1  0
 14 28  1  0
 14 29  1  0
M  ISO  8  15  13  16  13  17  13  18  13  19  13  20  13  21  13  22  13
M  ISO  5  23  14  24  14  25   8  26   8  27   8
M  END
>  <minimizedAffinity>  (1) 
-5.24617052

>  <minimizedRMSD>  (1) 
0.13888517

$$$$
