
     RDKit          3D

 28 29  0  0  1  0  0  0  0  0999 V2000
   46.4530   33.7660   43.3220 C   0  0  2  0  0  0  0  0  0  0  0  0
   45.7110   34.6780   42.4320 C   0  0  0  0  0  0  0  0  0  0  0  0
   45.3240   35.9730   43.0900 C   0  0  0  0  0  0  0  0  0  0  0  0
   44.4980   35.7270   44.3410 C   0  0  0  0  0  0  0  0  0  0  0  0
   45.0570   34.6420   45.2210 C   0  0  0  0  0  0  0  0  0  0  0  0
   46.4240   34.1980   44.7820 C   0  0  1  0  0  0  0  0  0  0  0  0
   47.8710   33.6110   42.9320 C   0  0  0  0  0  0  0  0  0  0  0  0
   48.5910   34.8080   42.7420 C   0  0  0  0  0  0  0  0  0  0  0  0
   49.9370   34.7450   42.3790 C   0  0  0  0  0  0  0  0  0  0  0  0
   50.4790   33.4920   42.2290 N   0  0  0  0  0  0  0  0  0  0  0  0
   49.7610   32.3570   42.4180 C   0  0  0  0  0  0  0  0  0  0  0  0
   48.4640   32.4270   42.7680 N   0  0  0  0  0  0  0  0  0  0  0  0
   46.7960   33.0400   45.5740 N   0  0  0  0  0  0  0  0  0  0  0  0
   45.9273   32.8060   43.2119 H   0  0  0  0  0  0  0  0  0  0  0  0
   44.7946   34.1696   42.0978 H   0  0  0  0  0  0  0  0  0  0  0  0
   46.3785   34.9272   41.5939 H   0  0  0  0  0  0  0  0  0  0  0  0
   46.2363   36.5229   43.3645 H   0  0  0  0  0  0  0  0  0  0  0  0
   44.7183   36.5569   42.3814 H   0  0  0  0  0  0  0  0  0  0  0  0
   44.4572   36.6606   44.9213 H   0  0  0  0  0  0  0  0  0  0  0  0
   43.5009   35.3982   44.0129 H   0  0  0  0  0  0  0  0  0  0  0  0
   45.1224   35.0212   46.2515 H   0  0  0  0  0  0  0  0  0  0  0  0
   44.3841   33.7745   45.1536 H   0  0  0  0  0  0  0  0  0  0  0  0
   47.1098   35.0480   44.9128 H   0  0  0  0  0  0  0  0  0  0  0  0
   48.0971   35.7814   42.8784 H   0  0  0  0  0  0  0  0  0  0  0  0
   50.5348   35.6547   42.2207 H   0  0  0  0  0  0  0  0  0  0  0  0
   50.2407   31.3761   42.2847 H   0  0  0  0  0  0  0  0  0  0  0  0
   46.7219   33.2706   46.5751 H   0  0  0  0  0  0  0  0  0  0  0  0
   46.1643   32.2566   45.3545 H   0  0  0  0  0  0  0  0  0  0  0  0
  1  6  1  0
  2  3  1  0
  2  1  1  0
  3  4  1  0
  4  5  1  0
  6  5  1  0
  6 13  1  0
  7  1  1  0
  8  7  2  0
  9  8  1  0
 10  9  2  0
 10 11  1  0
 11 12  2  0
 12  7  1  0
  1 14  1  1
  2 15  1  0
  2 16  1  0
  3 17  1  0
  3 18  1  0
  4 19  1  0
  4 20  1  0
  5 21  1  0
  5 22  1  0
  6 23  1  6
  8 24  1  0
  9 25  1  0
 11 26  1  0
 13 27  1  0
 13 28  1  0
M  ISO  8  14  13  15  13  16  13  17  13  18  13  19  13  20  13  21  13
M  ISO  7  22  13  23  13  24  14  25  14  26  14  27   5  28   5
M  END
>  <minimizedAffinity>  (1) 
-4.27814245

>  <minimizedRMSD>  (1) 
1.94830692

$$$$
