
     RDKit          3D

 35 37  0  0  1  0  0  0  0  0999 V2000
   46.4400   32.9620   46.4650 C   0  0  2  0  0  0  0  0  0  0  0  0
   46.9790   31.7470   45.7860 C   0  0  0  0  0  0  0  0  0  0  0  0
   46.1220   30.5460   45.8130 C   0  0  0  0  0  0  0  0  0  0  0  0
   45.8120   30.2880   47.2810 C   0  0  0  0  0  0  0  0  0  0  0  0
   45.0210   31.3520   47.8850 C   0  0  0  0  0  0  0  0  0  0  0  0
   45.3770   32.7360   47.4330 C   0  0  0  0  0  0  0  0  0  0  0  0
   44.5860   35.5750   44.6190 C   0  0  0  0  0  0  0  0  0  0  0  0
   45.2300   35.5790   43.3600 C   0  0  0  0  0  0  0  0  0  0  0  0
   46.3000   34.6640   43.1770 C   0  0  0  0  0  0  0  0  0  0  0  0
   46.6510   33.8450   44.1980 N   0  0  0  0  0  0  0  0  0  0  0  0
   46.0040   33.8810   45.3850 C   0  0  0  0  0  0  0  0  0  0  0  0
   44.9720   34.7420   45.6010 N   0  0  0  0  0  0  0  0  0  0  0  0
   46.9870   34.6400   41.8910 C   0  0  0  0  0  0  0  0  0  0  0  0
   48.1290   35.3840   41.7610 C   0  0  0  0  0  0  0  0  0  0  0  0
   48.7800   35.3520   40.5230 C   0  0  0  0  0  0  0  0  0  0  0  0
   48.1830   34.5590   39.5520 C   0  0  0  0  0  0  0  0  0  0  0  0
   47.0360   33.8130   39.6800 C   0  0  0  0  0  0  0  0  0  0  0  0
   46.4590   33.8930   40.9160 N   0  0  0  0  0  0  0  0  0  0  0  0
   44.6820   33.8720   47.9360 N   0  0  0  0  0  0  0  0  0  0  0  0
   47.2406   33.3844   47.0900 H   0  0  0  0  0  0  0  0  0  0  0  0
   47.9326   31.4886   46.2696 H   0  0  0  0  0  0  0  0  0  0  0  0
   47.0662   32.0201   44.7240 H   0  0  0  0  0  0  0  0  0  0  0  0
   45.1933   30.7259   45.2516 H   0  0  0  0  0  0  0  0  0  0  0  0
   46.6209   29.6831   45.3477 H   0  0  0  0  0  0  0  0  0  0  0  0
   45.2523   29.3445   47.3617 H   0  0  0  0  0  0  0  0  0  0  0  0
   46.7702   30.2405   47.8191 H   0  0  0  0  0  0  0  0  0  0  0  0
   44.2236   31.1547   48.6167 H   0  0  0  0  0  0  0  0  0  0  0  0
   43.7512   36.2684   44.7987 H   0  0  0  0  0  0  0  0  0  0  0  0
   44.9154   36.2617   42.5569 H   0  0  0  0  0  0  0  0  0  0  0  0
   48.5192   35.9832   42.5969 H   0  0  0  0  0  0  0  0  0  0  0  0
   49.7038   35.9177   40.3315 H   0  0  0  0  0  0  0  0  0  0  0  0
   48.6831   34.5241   38.5729 H   0  0  0  0  0  0  0  0  0  0  0  0
   46.6202   33.2066   38.8618 H   0  0  0  0  0  0  0  0  0  0  0  0
   43.9239   33.7496   48.6224 H   0  0  0  0  0  0  0  0  0  0  0  0
   44.9373   34.8163   47.6135 H   0  0  0  0  0  0  0  0  0  0  0  0
  1  6  1  0
  2  3  1  0
  2  1  1  0
  3  4  1  0
  4  5  1  0
  6  5  2  0
  6 19  1  0
  7 12  2  0
  8  7  1  0
  9  8  2  0
  9 10  1  0
 10 11  2  0
 11 12  1  0
 11  1  1  0
 13  9  1  0
 14 13  2  0
 15 14  1  0
 16 17  1  0
 16 15  2  0
 17 18  2  0
 18 13  1  0
  1 20  1  1
  2 21  1  0
  2 22  1  0
  3 23  1  0
  3 24  1  0
  4 25  1  0
  4 26  1  0
  5 27  1  0
  7 28  1  0
  8 29  1  0
 14 30  1  0
 15 31  1  0
 16 32  1  0
 17 33  1  0
 19 34  1  0
 19 35  1  0
M  ISO  8  20  13  21  13  22  13  23  13  24  13  25  13  26  13  27  13
M  ISO  6  28  14  29  14  30  14  31  14  32  14  33  14
M  END
>  <minimizedAffinity>  (1) 
-6.8060813

>  <minimizedRMSD>  (1) 
1.00621307

$$$$
