
     RDKit          3D

 27 28  0  0  1  0  0  0  0  0999 V2000
   46.4890   32.7680   46.7660 C   0  0  2  0  0  0  0  0  0  0  0  0
   47.0350   31.4380   46.3670 C   0  0  0  0  0  0  0  0  0  0  0  0
   46.1110   30.2940   46.4720 C   0  0  0  0  0  0  0  0  0  0  0  0
   45.6180   30.2960   47.9130 C   0  0  0  0  0  0  0  0  0  0  0  0
   44.8110   31.4730   48.2290 C   0  0  0  0  0  0  0  0  0  0  0  0
   45.3010   32.7570   47.6060 C   0  0  0  0  0  0  0  0  0  0  0  0
   44.9960   35.0540   44.2680 C   0  0  0  0  0  0  0  0  0  0  0  0
   45.8820   34.8880   43.1700 C   0  0  0  0  0  0  0  0  0  0  0  0
   46.9740   33.9950   43.3040 C   0  0  0  0  0  0  0  0  0  0  0  0
   47.1060   33.3470   44.4860 N   0  0  0  0  0  0  0  0  0  0  0  0
   46.2590   33.5220   45.5020 C   0  0  0  0  0  0  0  0  0  0  0  0
   45.2020   34.3670   45.4140 N   0  0  0  0  0  0  0  0  0  0  0  0
   47.8520   33.8180   42.2440 O   0  0  0  0  0  0  0  0  0  0  0  0
   44.6120   33.9790   47.8260 N   0  0  0  0  0  0  0  0  0  0  0  0
   47.2282   33.2480   47.4242 H   0  0  0  0  0  0  0  0  0  0  0  0
   47.9040   31.2267   47.0075 H   0  0  0  0  0  0  0  0  0  0  0  0
   47.2707   31.5271   45.2962 H   0  0  0  0  0  0  0  0  0  0  0  0
   45.2670   30.4172   45.7774 H   0  0  0  0  0  0  0  0  0  0  0  0
   46.6057   29.3464   46.2126 H   0  0  0  0  0  0  0  0  0  0  0  0
   45.0078   29.3958   48.0779 H   0  0  0  0  0  0  0  0  0  0  0  0
   46.5018   30.3123   48.5676 H   0  0  0  0  0  0  0  0  0  0  0  0
   43.9180   31.4265   48.8696 H   0  0  0  0  0  0  0  0  0  0  0  0
   44.1417   35.7420   44.1857 H   0  0  0  0  0  0  0  0  0  0  0  0
   45.7233   35.4424   42.2333 H   0  0  0  0  0  0  0  0  0  0  0  0
   48.6163   33.1951   42.3331 H   0  0  0  0  0  0  0  0  0  0  0  0
   43.7686   33.9955   48.4170 H   0  0  0  0  0  0  0  0  0  0  0  0
   44.9556   34.8489   47.3945 H   0  0  0  0  0  0  0  0  0  0  0  0
  1  6  1  0
  2  3  1  0
  2  1  1  0
  3  4  1  0
  4  5  1  0
  6 14  1  0
  6  5  2  0
  7 12  2  0
  8  9  2  0
  8  7  1  0
  9 10  1  0
 10 11  2  0
 11  1  1  0
 12 11  1  0
 13  9  1  0
  1 15  1  1
  2 16  1  0
  2 17  1  0
  3 18  1  0
  3 19  1  0
  4 20  1  0
  4 21  1  0
  5 22  1  0
  7 23  1  0
  8 24  1  0
 13 25  1  0
 14 26  1  0
 14 27  1  0
M  ISO  8  15  13  16  13  17  13  18  13  19  13  20  13  21  13  22  13
M  ISO  3  23  14  24  14  25   3
M  END
>  <minimizedAffinity>  (1) 
-5.17301321

>  <minimizedRMSD>  (1) 
0.0351653211

$$$$
