
     RDKit          3D

 29 30  0  0  1  0  0  0  0  0999 V2000
   46.3770   33.7450   43.2050 C   0  0  2  0  0  0  0  0  0  0  0  0
   45.6580   34.7300   42.3850 C   0  0  0  0  0  0  0  0  0  0  0  0
   45.3360   36.0040   43.1080 C   0  0  0  0  0  0  0  0  0  0  0  0
   44.5710   35.7630   44.3970 C   0  0  0  0  0  0  0  0  0  0  0  0
   45.0280   34.5530   45.1580 C   0  0  0  0  0  0  0  0  0  0  0  0
   46.3870   34.0830   44.6920 C   0  0  1  0  0  0  0  0  0  0  0  0
   47.7810   33.5480   42.7920 C   0  0  0  0  0  0  0  0  0  0  0  0
   48.5940   34.7080   42.8050 C   0  0  0  0  0  0  0  0  0  0  0  0
   49.9330   34.5970   42.4350 C   0  0  0  0  0  0  0  0  0  0  0  0
   50.3790   33.3420   42.0760 N   0  0  0  0  0  0  0  0  0  0  0  0
   49.5770   32.2560   42.0750 C   0  0  0  0  0  0  0  0  0  0  0  0
   48.2900   32.3690   42.4310 N   0  0  0  0  0  0  0  0  0  0  0  0
   46.7670   32.8360   45.4180 C   0  0  0  0  0  0  0  0  0  0  0  0
   45.8061   32.8198   43.0374 H   0  0  0  0  0  0  0  0  0  0  0  0
   44.7150   34.2762   42.0462 H   0  0  0  0  0  0  0  0  0  0  0  0
   46.3227   34.9962   41.5499 H   0  0  0  0  0  0  0  0  0  0  0  0
   46.2768   36.5213   43.3475 H   0  0  0  0  0  0  0  0  0  0  0  0
   44.6977   36.6106   42.4487 H   0  0  0  0  0  0  0  0  0  0  0  0
   44.6937   36.6450   45.0427 H   0  0  0  0  0  0  0  0  0  0  0  0
   43.5218   35.5870   44.1175 H   0  0  0  0  0  0  0  0  0  0  0  0
   45.0845   34.8042   46.2274 H   0  0  0  0  0  0  0  0  0  0  0  0
   44.3050   33.7428   44.9824 H   0  0  0  0  0  0  0  0  0  0  0  0
   47.0983   34.8986   44.8890 H   0  0  0  0  0  0  0  0  0  0  0  0
   48.1752   35.6807   43.1024 H   0  0  0  0  0  0  0  0  0  0  0  0
   50.6030   35.4694   42.4295 H   0  0  0  0  0  0  0  0  0  0  0  0
   49.9810   31.2759   41.7812 H   0  0  0  0  0  0  0  0  0  0  0  0
   46.7133   33.0123   46.5025 H   0  0  0  0  0  0  0  0  0  0  0  0
   46.0748   32.0264   45.1434 H   0  0  0  0  0  0  0  0  0  0  0  0
   47.7931   32.5500   45.1434 H   0  0  0  0  0  0  0  0  0  0  0  0
  1  6  1  0
  2  3  1  0
  2  1  1  0
  3  4  1  0
  4  5  1  0
  6  5  1  0
  6 13  1  0
  7  8  2  0
  7  1  1  0
  9  8  1  0
 10  9  2  0
 11 10  1  0
 11 12  2  0
 12  7  1  0
  1 14  1  1
  2 15  1  0
  2 16  1  0
  3 17  1  0
  3 18  1  0
  4 19  1  0
  4 20  1  0
  5 21  1  0
  5 22  1  0
  6 23  1  6
  8 24  1  0
  9 25  1  0
 11 26  1  0
 13 27  1  0
 13 28  1  0
 13 29  1  0
M  ISO  8  14  13  15  13  16  13  17  13  18  13  19  13  20  13  21  13
M  ISO  8  22  13  23  13  24  14  25  14  26  14  27   8  28   8  29   8
M  END
>  <minimizedAffinity>  (1) 
-4.23929548

>  <minimizedRMSD>  (1) 
1.92334628

$$$$
