
     RDKit          3D

 27 28  0  0  1  0  0  0  0  0999 V2000
   46.2000   33.7750   43.0610 C   0  0  2  0  0  0  0  0  0  0  0  0
   45.5070   34.8520   42.3300 C   0  0  0  0  0  0  0  0  0  0  0  0
   45.3390   36.1000   43.1500 C   0  0  0  0  0  0  0  0  0  0  0  0
   44.5550   35.8020   44.4170 C   0  0  0  0  0  0  0  0  0  0  0  0
   45.0460   34.5850   45.1340 C   0  0  0  0  0  0  0  0  0  0  0  0
   46.3340   34.0550   44.5540 C   0  0  1  0  0  0  0  0  0  0  0  0
   47.5490   33.4970   42.5370 C   0  0  0  0  0  0  0  0  0  0  0  0
   48.5290   34.4610   42.8350 C   0  0  0  0  0  0  0  0  0  0  0  0
   49.8420   34.2850   42.3900 C   0  0  0  0  0  0  0  0  0  0  0  0
   50.0890   33.1370   41.6650 N   0  0  0  0  0  0  0  0  0  0  0  0
   49.1280   32.2280   41.3940 C   0  0  0  0  0  0  0  0  0  0  0  0
   47.8750   32.4140   41.8290 N   0  0  0  0  0  0  0  0  0  0  0  0
   46.6960   32.4860   45.3930 S   0  0  0  0  0  0  0  0  0  0  0  0
   45.5548   32.8976   42.9064 H   0  0  0  0  0  0  0  0  0  0  0  0
   46.0911   35.0985   41.4311 H   0  0  0  0  0  0  0  0  0  0  0  0
   44.5014   34.4853   42.0765 H   0  0  0  0  0  0  0  0  0  0  0  0
   46.3306   36.4912   43.4214 H   0  0  0  0  0  0  0  0  0  0  0  0
   44.7874   36.8442   42.5568 H   0  0  0  0  0  0  0  0  0  0  0  0
   44.6397   36.6655   45.0931 H   0  0  0  0  0  0  0  0  0  0  0  0
   43.5122   35.6126   44.1224 H   0  0  0  0  0  0  0  0  0  0  0  0
   45.2136   34.8412   46.1905 H   0  0  0  0  0  0  0  0  0  0  0  0
   44.2821   33.8011   45.0251 H   0  0  0  0  0  0  0  0  0  0  0  0
   47.1294   34.8014   44.6961 H   0  0  0  0  0  0  0  0  0  0  0  0
   48.2617   35.3541   43.4188 H   0  0  0  0  0  0  0  0  0  0  0  0
   50.6327   35.0189   42.6051 H   0  0  0  0  0  0  0  0  0  0  0  0
   49.3760   31.3283   40.8118 H   0  0  0  0  0  0  0  0  0  0  0  0
   46.6529   32.6730   46.7495 H   0  0  0  0  0  0  0  0  0  0  0  0
  1  6  1  0
  2  1  1  0
  2  3  1  0
  3  4  1  0
  4  5  1  0
  6  5  1  0
  6 13  1  0
  7  8  2  0
  7  1  1  0
  9  8  1  0
 10  9  2  0
 11 10  1  0
 11 12  2  0
 12  7  1  0
  1 14  1  1
  2 15  1  0
  2 16  1  0
  3 17  1  0
  3 18  1  0
  4 19  1  0
  4 20  1  0
  5 21  1  0
  5 22  1  0
  6 23  1  6
  8 24  1  0
  9 25  1  0
 11 26  1  0
 13 27  1  0
M  ISO  8  14  13  15  13  16  13  17  13  18  13  19  13  20  13  21  13
M  ISO  6  22  13  23  13  24  14  25  14  26  14  27  11
M  END
>  <minimizedAffinity>  (1) 
-4.04134417

>  <minimizedRMSD>  (1) 
1.97689724

$$$$
