
     RDKit          3D

 37 39  0  0  1  0  0  0  0  0999 V2000
   44.5830   35.5810   44.6120 C   0  0  0  0  0  0  0  0  0  0  0  0
   45.2410   35.5830   43.3560 C   0  0  0  0  0  0  0  0  0  0  0  0
   46.3230   34.6660   43.1810 C   0  0  0  0  0  0  0  0  0  0  0  0
   46.6590   33.8560   44.2020 N   0  0  0  0  0  0  0  0  0  0  0  0
   46.0080   33.8860   45.3790 C   0  0  0  0  0  0  0  0  0  0  0  0
   44.9700   34.7420   45.5930 N   0  0  0  0  0  0  0  0  0  0  0  0
   46.4340   32.9670   46.4650 C   0  0  2  0  0  0  0  0  0  0  0  0
   46.9770   31.7440   45.7800 C   0  0  0  0  0  0  0  0  0  0  0  0
   46.1240   30.5510   45.7940 C   0  0  0  0  0  0  0  0  0  0  0  0
   45.8080   30.2930   47.2680 C   0  0  0  0  0  0  0  0  0  0  0  0
   45.0120   31.3550   47.8770 C   0  0  0  0  0  0  0  0  0  0  0  0
   45.3790   32.7300   47.4230 C   0  0  0  0  0  0  0  0  0  0  0  0
   44.6830   33.8730   47.9340 N   0  0  0  0  0  0  0  0  0  0  0  0
   47.0080   34.6510   41.9020 C   0  0  0  0  0  0  0  0  0  0  0  0
   48.1420   35.3870   41.7690 C   0  0  0  0  0  0  0  0  0  0  0  0
   48.7730   35.3440   40.5140 C   0  0  0  0  0  0  0  0  0  0  0  0
   48.1770   34.5610   39.5470 C   0  0  0  0  0  0  0  0  0  0  0  0
   47.0380   33.8230   39.6810 C   0  0  0  0  0  0  0  0  0  0  0  0
   46.4690   33.9020   40.9210 N   0  0  0  0  0  0  0  0  0  0  0  0
   46.4530   33.0370   38.6840 N   0  0  0  0  0  0  0  0  0  0  0  0
   43.7462   36.2730   44.7878 H   0  0  0  0  0  0  0  0  0  0  0  0
   44.9311   36.2630   42.5488 H   0  0  0  0  0  0  0  0  0  0  0  0
   47.2244   33.3993   47.0962 H   0  0  0  0  0  0  0  0  0  0  0  0
   47.9265   31.4812   46.2692 H   0  0  0  0  0  0  0  0  0  0  0  0
   47.0697   32.0222   44.7198 H   0  0  0  0  0  0  0  0  0  0  0  0
   45.1983   30.7334   45.2284 H   0  0  0  0  0  0  0  0  0  0  0  0
   46.6205   29.6884   45.3257 H   0  0  0  0  0  0  0  0  0  0  0  0
   45.2500   29.3483   47.3464 H   0  0  0  0  0  0  0  0  0  0  0  0
   46.7662   30.2509   47.8067 H   0  0  0  0  0  0  0  0  0  0  0  0
   44.2121   31.1596   48.6063 H   0  0  0  0  0  0  0  0  0  0  0  0
   43.9237   33.7498   48.6190 H   0  0  0  0  0  0  0  0  0  0  0  0
   44.9418   34.8180   47.6164 H   0  0  0  0  0  0  0  0  0  0  0  0
   48.5450   35.9850   42.5996 H   0  0  0  0  0  0  0  0  0  0  0  0
   49.6964   35.9068   40.3126 H   0  0  0  0  0  0  0  0  0  0  0  0
   48.6722   34.5286   38.5653 H   0  0  0  0  0  0  0  0  0  0  0  0
   45.5883   32.5135   38.8820 H   0  0  0  0  0  0  0  0  0  0  0  0
   46.8866   32.9813   37.7514 H   0  0  0  0  0  0  0  0  0  0  0  0
  1  6  2  0
  2  1  1  0
  3  2  2  0
  3  4  1  0
  4  5  2  0
  5  6  1  0
  5  7  1  0
  7 12  1  0
  8  9  1  0
  8  7  1  0
  9 10  1  0
 10 11  1  0
 12 11  2  0
 12 13  1  0
 14  3  1  0
 15 14  2  0
 16 15  1  0
 17 18  1  0
 17 16  2  0
 18 19  2  0
 19 14  1  0
 20 18  1  0
  1 21  1  0
  2 22  1  0
  7 23  1  1
  8 24  1  0
  8 25  1  0
  9 26  1  0
  9 27  1  0
 10 28  1  0
 10 29  1  0
 11 30  1  0
 13 31  1  0
 13 32  1  0
 15 33  1  0
 16 34  1  0
 17 35  1  0
 20 36  1  0
 20 37  1  0
M  ISO  8  21  14  22  14  23  13  24  13  25  13  26  13  27  13  28  13
M  ISO  5  29  13  30  13  33  14  34  14  35  14
M  END
>  <minimizedAffinity>  (1) 
-6.97162056

>  <minimizedRMSD>  (1) 
0.00818734989

$$$$
