
     RDKit          3D

 41 44  0  0  1  0  0  0  0  0999 V2000
   44.5790   35.5890   44.6140 C   0  0  0  0  0  0  0  0  0  0  0  0
   45.2250   35.5990   43.3560 C   0  0  0  0  0  0  0  0  0  0  0  0
   46.3040   34.6860   43.1750 C   0  0  0  0  0  0  0  0  0  0  0  0
   46.6590   33.8640   44.1960 N   0  0  0  0  0  0  0  0  0  0  0  0
   46.0100   33.8940   45.3770 C   0  0  0  0  0  0  0  0  0  0  0  0
   44.9670   34.7540   45.5940 N   0  0  0  0  0  0  0  0  0  0  0  0
   46.4370   32.9750   46.4640 C   0  0  2  0  0  0  0  0  0  0  0  0
   46.9770   31.7520   45.7800 C   0  0  0  0  0  0  0  0  0  0  0  0
   46.1220   30.5590   45.7920 C   0  0  0  0  0  0  0  0  0  0  0  0
   45.7810   30.2900   47.2470 C   0  0  0  0  0  0  0  0  0  0  0  0
   45.0000   31.3680   47.8510 C   0  0  0  0  0  0  0  0  0  0  0  0
   45.3750   32.7360   47.4160 C   0  0  0  0  0  0  0  0  0  0  0  0
   44.6850   33.8710   47.9360 N   0  0  0  0  0  0  0  0  0  0  0  0
   46.9940   34.6660   41.8920 C   0  0  0  0  0  0  0  0  0  0  0  0
   48.1470   35.3680   41.7680 C   0  0  0  0  0  0  0  0  0  0  0  0
   48.7750   35.3160   40.5090 C   0  0  0  0  0  0  0  0  0  0  0  0
   48.1510   34.5590   39.5430 C   0  0  0  0  0  0  0  0  0  0  0  0
   46.9990   33.8560   39.6660 C   0  0  0  0  0  0  0  0  0  0  0  0
   46.4500   33.9540   40.9130 N   0  0  0  0  0  0  0  0  0  0  0  0
   46.3710   33.0610   38.6040 C   0  0  0  0  0  0  0  0  0  0  0  0
   45.6480   31.9570   38.9420 C   0  0  0  0  0  0  0  0  0  0  0  0
   45.0630   31.2930   37.3200 S   0  0  0  0  0  0  0  0  0  0  0  0
   45.9590   32.7170   36.4400 C   0  0  0  0  0  0  0  0  0  0  0  0
   46.4050   33.2670   37.3080 N   0  0  0  0  0  0  0  0  0  0  0  0
   43.7415   36.2788   44.7946 H   0  0  0  0  0  0  0  0  0  0  0  0
   44.9087   36.2811   42.5531 H   0  0  0  0  0  0  0  0  0  0  0  0
   47.2278   33.4064   47.0953 H   0  0  0  0  0  0  0  0  0  0  0  0
   47.9256   31.4873   46.2701 H   0  0  0  0  0  0  0  0  0  0  0  0
   47.0700   32.0307   44.7200 H   0  0  0  0  0  0  0  0  0  0  0  0
   45.2043   30.7429   45.2140 H   0  0  0  0  0  0  0  0  0  0  0  0
   46.6329   29.6979   45.3366 H   0  0  0  0  0  0  0  0  0  0  0  0
   45.1994   29.3582   47.3059 H   0  0  0  0  0  0  0  0  0  0  0  0
   46.7277   30.2138   47.8020 H   0  0  0  0  0  0  0  0  0  0  0  0
   44.1936   31.1789   48.5748 H   0  0  0  0  0  0  0  0  0  0  0  0
   43.9223   33.7429   48.6163 H   0  0  0  0  0  0  0  0  0  0  0  0
   44.9494   34.8187   47.6311 H   0  0  0  0  0  0  0  0  0  0  0  0
   48.5682   35.9457   42.6039 H   0  0  0  0  0  0  0  0  0  0  0  0
   49.7144   35.8518   40.3078 H   0  0  0  0  0  0  0  0  0  0  0  0
   48.6433   34.5205   38.5601 H   0  0  0  0  0  0  0  0  0  0  0  0
   45.4568   31.5542   39.9476 H   0  0  0  0  0  0  0  0  0  0  0  0
   46.0230   32.9418   35.3651 H   0  0  0  0  0  0  0  0  0  0  0  0
  1  6  2  0
  2  1  1  0
  3  2  2  0
  3  4  1  0
  4  5  2  0
  5  6  1  0
  5  7  1  0
  7 12  1  0
  8  9  1  0
  8  7  1  0
  9 10  1  0
 10 11  1  0
 12 11  2  0
 12 13  1  0
 14  3  1  0
 15 14  2  0
 16 15  1  0
 17 18  1  0
 17 16  2  0
 18 19  2  0
 19 14  1  0
 20 21  2  0
 20 18  1  0
 22 21  1  0
 23 24  2  0
 23 22  1  0
 24 20  1  0
  1 25  1  0
  2 26  1  0
  7 27  1  1
  8 28  1  0
  8 29  1  0
  9 30  1  0
  9 31  1  0
 10 32  1  0
 10 33  1  0
 11 34  1  0
 13 35  1  0
 13 36  1  0
 15 37  1  0
 16 38  1  0
 17 39  1  0
 21 40  1  0
 23 41  1  0
M  ISO  8  25  14  26  14  27  13  28  13  29  13  30  13  31  13  32  13
M  ISO  7  33  13  34  13  37  14  38  14  39  14  40  14  41  14
M  END
>  <minimizedAffinity>  (1) 
-7.21573353

>  <minimizedRMSD>  (1) 
0.0665844157

$$$$
