
     RDKit          3D

 36 38  0  0  1  0  0  0  0  0999 V2000
   44.5770   35.5900   44.6150 C   0  0  0  0  0  0  0  0  0  0  0  0
   45.2300   35.5980   43.3600 C   0  0  0  0  0  0  0  0  0  0  0  0
   46.3020   34.6930   43.1830 C   0  0  0  0  0  0  0  0  0  0  0  0
   46.6570   33.8670   44.2060 N   0  0  0  0  0  0  0  0  0  0  0  0
   46.0050   33.8960   45.3800 C   0  0  0  0  0  0  0  0  0  0  0  0
   44.9610   34.7560   45.5960 N   0  0  0  0  0  0  0  0  0  0  0  0
   46.4340   32.9750   46.4670 C   0  0  2  0  0  0  0  0  0  0  0  0
   46.9740   31.7580   45.7720 C   0  0  0  0  0  0  0  0  0  0  0  0
   46.1200   30.5590   45.7730 C   0  0  0  0  0  0  0  0  0  0  0  0
   45.7960   30.2870   47.2390 C   0  0  0  0  0  0  0  0  0  0  0  0
   45.0040   31.3440   47.8550 C   0  0  0  0  0  0  0  0  0  0  0  0
   45.3760   32.7280   47.4190 C   0  0  0  0  0  0  0  0  0  0  0  0
   44.6830   33.8740   47.9350 N   0  0  0  0  0  0  0  0  0  0  0  0
   46.9980   34.6710   41.9030 C   0  0  0  0  0  0  0  0  0  0  0  0
   48.1400   35.3910   41.7640 C   0  0  0  0  0  0  0  0  0  0  0  0
   48.7690   35.3320   40.5090 C   0  0  0  0  0  0  0  0  0  0  0  0
   48.1700   34.5520   39.5420 C   0  0  0  0  0  0  0  0  0  0  0  0
   47.0230   33.8300   39.6880 C   0  0  0  0  0  0  0  0  0  0  0  0
   46.4550   33.9230   40.9220 N   0  0  0  0  0  0  0  0  0  0  0  0
   46.3410   32.8610   38.3750 S   0  0  0  0  0  0  0  0  0  0  0  0
   43.7386   36.2800   44.7911 H   0  0  0  0  0  0  0  0  0  0  0  0
   44.9169   36.2797   42.5555 H   0  0  0  0  0  0  0  0  0  0  0  0
   47.2211   33.4063   47.1030 H   0  0  0  0  0  0  0  0  0  0  0  0
   47.9234   31.4906   46.2589 H   0  0  0  0  0  0  0  0  0  0  0  0
   47.0634   32.0467   44.7143 H   0  0  0  0  0  0  0  0  0  0  0  0
   45.1971   30.7445   45.2038 H   0  0  0  0  0  0  0  0  0  0  0  0
   46.6220   29.7014   45.3013 H   0  0  0  0  0  0  0  0  0  0  0  0
   45.2328   29.3444   47.3040 H   0  0  0  0  0  0  0  0  0  0  0  0
   46.7513   30.2342   47.7818 H   0  0  0  0  0  0  0  0  0  0  0  0
   44.2008   31.1425   48.5790 H   0  0  0  0  0  0  0  0  0  0  0  0
   43.9206   33.7510   48.6165 H   0  0  0  0  0  0  0  0  0  0  0  0
   44.9481   34.8194   47.6238 H   0  0  0  0  0  0  0  0  0  0  0  0
   48.5515   35.9892   42.5903 H   0  0  0  0  0  0  0  0  0  0  0  0
   49.6987   35.8839   40.3065 H   0  0  0  0  0  0  0  0  0  0  0  0
   48.6645   34.5084   38.5604 H   0  0  0  0  0  0  0  0  0  0  0  0
   45.6130   31.8267   38.9014 H   0  0  0  0  0  0  0  0  0  0  0  0
  1  6  2  0
  2  1  1  0
  3  2  2  0
  3  4  1  0
  4  5  2  0
  5  6  1  0
  5  7  1  0
  7 12  1  0
  8  9  1  0
  8  7  1  0
  9 10  1  0
 10 11  1  0
 12 11  2  0
 12 13  1  0
 14  3  1  0
 15 14  2  0
 16 15  1  0
 17 18  1  0
 17 16  2  0
 18 19  2  0
 19 14  1  0
 20 18  1  0
  1 21  1  0
  2 22  1  0
  7 23  1  1
  8 24  1  0
  8 25  1  0
  9 26  1  0
  9 27  1  0
 10 28  1  0
 10 29  1  0
 11 30  1  0
 13 31  1  0
 13 32  1  0
 15 33  1  0
 16 34  1  0
 17 35  1  0
 20 36  1  0
M  ISO  8  21  14  22  14  23  13  24  13  25  13  26  13  27  13  28  13
M  ISO  6  29  13  30  13  33  14  34  14  35  14  36  11
M  END
>  <minimizedAffinity>  (1) 
-6.95864391

>  <minimizedRMSD>  (1) 
0.0249776673

$$$$
