
     RDKit          3D

 42 45  0  0  1  0  0  0  0  0999 V2000
   44.5900   35.5550   44.5670 C   0  0  0  0  0  0  0  0  0  0  0  0
   45.2560   35.5510   43.3190 C   0  0  0  0  0  0  0  0  0  0  0  0
   46.3380   34.6440   43.1610 C   0  0  0  0  0  0  0  0  0  0  0  0
   46.6800   33.8360   44.1970 N   0  0  0  0  0  0  0  0  0  0  0  0
   46.0190   33.8750   45.3650 C   0  0  0  0  0  0  0  0  0  0  0  0
   44.9690   34.7330   45.5590 N   0  0  0  0  0  0  0  0  0  0  0  0
   46.4430   32.9660   46.4630 C   0  0  2  0  0  0  0  0  0  0  0  0
   46.9870   31.7350   45.7920 C   0  0  0  0  0  0  0  0  0  0  0  0
   46.1170   30.5430   45.8080 C   0  0  0  0  0  0  0  0  0  0  0  0
   45.7990   30.3000   47.2840 C   0  0  0  0  0  0  0  0  0  0  0  0
   45.0100   31.3680   47.8680 C   0  0  0  0  0  0  0  0  0  0  0  0
   45.3770   32.7400   47.4140 C   0  0  0  0  0  0  0  0  0  0  0  0
   44.6760   33.8880   47.9110 N   0  0  0  0  0  0  0  0  0  0  0  0
   47.0430   34.6130   41.8900 C   0  0  0  0  0  0  0  0  0  0  0  0
   48.1280   35.4140   41.7250 C   0  0  0  0  0  0  0  0  0  0  0  0
   48.7720   35.3420   40.4740 C   0  0  0  0  0  0  0  0  0  0  0  0
   48.2430   34.4740   39.5450 C   0  0  0  0  0  0  0  0  0  0  0  0
   47.1520   33.6720   39.7190 C   0  0  0  0  0  0  0  0  0  0  0  0
   46.5700   33.7810   40.9410 N   0  0  0  0  0  0  0  0  0  0  0  0
   46.6640   32.7750   38.6620 C   0  0  0  0  0  0  0  0  0  0  0  0
   46.5490   33.4510   37.2790 C   0  0  0  0  0  0  0  0  0  0  0  0
   45.3560   32.9170   38.0190 C   0  0  0  0  0  0  0  0  0  0  0  0
   43.7471   36.2433   44.7277 H   0  0  0  0  0  0  0  0  0  0  0  0
   44.9486   36.2228   42.5040 H   0  0  0  0  0  0  0  0  0  0  0  0
   47.2328   33.4008   47.0932 H   0  0  0  0  0  0  0  0  0  0  0  0
   47.9294   31.4689   46.2931 H   0  0  0  0  0  0  0  0  0  0  0  0
   47.0969   32.0036   44.7310 H   0  0  0  0  0  0  0  0  0  0  0  0
   45.1939   30.7313   45.2402 H   0  0  0  0  0  0  0  0  0  0  0  0
   46.6028   29.6726   45.3429 H   0  0  0  0  0  0  0  0  0  0  0  0
   45.2377   29.3582   47.3730 H   0  0  0  0  0  0  0  0  0  0  0  0
   46.7542   30.2560   47.8277 H   0  0  0  0  0  0  0  0  0  0  0  0
   44.2024   31.1800   48.5908 H   0  0  0  0  0  0  0  0  0  0  0  0
   43.9103   33.7699   48.5897 H   0  0  0  0  0  0  0  0  0  0  0  0
   44.9382   34.8307   47.5893 H   0  0  0  0  0  0  0  0  0  0  0  0
   48.4838   36.0815   42.5237 H   0  0  0  0  0  0  0  0  0  0  0  0
   49.6589   35.9526   40.2491 H   0  0  0  0  0  0  0  0  0  0  0  0
   48.7479   34.4218   38.5691 H   0  0  0  0  0  0  0  0  0  0  0  0
   47.1471   31.9046   39.1300 H   0  0  0  0  0  0  0  0  0  0  0  0
   46.9191   32.9411   36.3774 H   0  0  0  0  0  0  0  0  0  0  0  0
   46.8434   34.4166   36.8420 H   0  0  0  0  0  0  0  0  0  0  0  0
   44.6191   33.6181   38.4377 H   0  0  0  0  0  0  0  0  0  0  0  0
   44.5535   32.2103   37.7610 H   0  0  0  0  0  0  0  0  0  0  0  0
  1  6  2  0
  2  1  1  0
  3  2  2  0
  3  4  1  0
  4  5  2  0
  5  6  1  0
  5  7  1  0
  7 12  1  0
  8  9  1  0
  8  7  1  0
  9 10  1  0
 10 11  1  0
 12 11  2  0
 12 13  1  0
 14  3  1  0
 15 14  2  0
 16 15  1  0
 17 18  1  0
 17 16  2  0
 18 19  2  0
 19 14  1  0
 20 18  1  0
 21 22  1  0
 21 20  1  0
 22 20  1  0
  1 23  1  0
  2 24  1  0
  7 25  1  1
  8 26  1  0
  8 27  1  0
  9 28  1  0
  9 29  1  0
 10 30  1  0
 10 31  1  0
 11 32  1  0
 13 33  1  0
 13 34  1  0
 15 35  1  0
 16 36  1  0
 17 37  1  0
 20 38  1  0
 21 39  1  0
 21 40  1  0
 22 41  1  0
 22 42  1  0
M  ISO  8  23  14  24  14  25  13  26  13  27  13  28  13  29  13  30  13
M  ISO  8  31  13  32  13  35  14  36  14  37  14  38  13  39  13  40  13
M  ISO  2  41  13  42  13
M  END
>  <minimizedAffinity>  (1) 
-6.91799545

>  <minimizedRMSD>  (1) 
0.143918648

$$$$
