
     RDKit          3D

 42 45  0  0  1  0  0  0  0  0999 V2000
   44.5850   35.5880   44.6490 C   0  0  0  0  0  0  0  0  0  0  0  0
   45.2260   35.5720   43.3910 C   0  0  0  0  0  0  0  0  0  0  0  0
   46.3000   34.6400   43.2010 C   0  0  0  0  0  0  0  0  0  0  0  0
   46.6390   33.8350   44.2260 N   0  0  0  0  0  0  0  0  0  0  0  0
   46.0120   33.8760   45.4030 C   0  0  0  0  0  0  0  0  0  0  0  0
   44.9780   34.7530   45.6280 N   0  0  0  0  0  0  0  0  0  0  0  0
   46.4340   32.9640   46.5000 C   0  0  2  0  0  0  0  0  0  0  0  0
   46.9800   31.7390   45.7980 C   0  0  0  0  0  0  0  0  0  0  0  0
   46.1220   30.5490   45.8120 C   0  0  0  0  0  0  0  0  0  0  0  0
   45.8140   30.2800   47.2860 C   0  0  0  0  0  0  0  0  0  0  0  0
   45.0230   31.3380   47.8950 C   0  0  0  0  0  0  0  0  0  0  0  0
   45.3880   32.7100   47.4490 C   0  0  0  0  0  0  0  0  0  0  0  0
   44.6940   33.8470   47.9640 N   0  0  0  0  0  0  0  0  0  0  0  0
   46.9750   34.6020   41.9160 C   0  0  0  0  0  0  0  0  0  0  0  0
   48.0880   35.3420   41.7400 C   0  0  0  0  0  0  0  0  0  0  0  0
   48.6950   35.2670   40.4730 C   0  0  0  0  0  0  0  0  0  0  0  0
   48.0860   34.4410   39.5380 C   0  0  0  0  0  0  0  0  0  0  0  0
   46.9510   33.6900   39.7240 C   0  0  0  0  0  0  0  0  0  0  0  0
   46.4130   33.8060   40.9710 N   0  0  0  0  0  0  0  0  0  0  0  0
   46.4250   32.9060   38.7300 O   0  0  0  0  0  0  0  0  0  0  0  0
   45.0530   32.9710   38.5150 C   0  0  0  0  0  0  0  0  0  0  0  0
   44.0510   33.6630   39.0860 N   0  0  0  0  0  0  0  0  0  0  0  0
   42.8800   33.3590   38.4980 C   0  0  0  0  0  0  0  0  0  0  0  0
   43.1530   32.4440   37.5220 N   0  0  0  0  0  0  0  0  0  0  0  0
   44.4560   32.2260   37.5480 N   0  0  0  0  0  0  0  0  0  0  0  0
   43.7571   36.2893   44.8302 H   0  0  0  0  0  0  0  0  0  0  0  0
   44.9126   36.2509   42.5842 H   0  0  0  0  0  0  0  0  0  0  0  0
   47.2092   33.4078   47.1419 H   0  0  0  0  0  0  0  0  0  0  0  0
   47.9321   31.4722   46.2801 H   0  0  0  0  0  0  0  0  0  0  0  0
   47.0729   32.0229   44.7393 H   0  0  0  0  0  0  0  0  0  0  0  0
   45.1931   30.7390   45.2543 H   0  0  0  0  0  0  0  0  0  0  0  0
   46.6133   29.6878   45.3355 H   0  0  0  0  0  0  0  0  0  0  0  0
   45.2564   29.3349   47.3625 H   0  0  0  0  0  0  0  0  0  0  0  0
   46.7729   30.2303   47.8227 H   0  0  0  0  0  0  0  0  0  0  0  0
   44.2228   31.1406   48.6235 H   0  0  0  0  0  0  0  0  0  0  0  0
   43.9344   33.7204   48.6481 H   0  0  0  0  0  0  0  0  0  0  0  0
   44.9531   34.7936   47.6514 H   0  0  0  0  0  0  0  0  0  0  0  0
   48.4994   35.9705   42.5436 H   0  0  0  0  0  0  0  0  0  0  0  0
   49.6067   35.8346   40.2351 H   0  0  0  0  0  0  0  0  0  0  0  0
   48.5607   34.3819   38.5474 H   0  0  0  0  0  0  0  0  0  0  0  0
   41.8919   33.7689   38.7543 H   0  0  0  0  0  0  0  0  0  0  0  0
   42.4717   32.0062   36.8855 H   0  0  0  0  0  0  0  0  0  0  0  0
  1  6  2  0
  2  1  1  0
  3  2  2  0
  3  4  1  0
  4  5  2  0
  5  6  1  0
  5  7  1  0
  7 12  1  0
  8  9  1  0
  8  7  1  0
  9 10  1  0
 10 11  1  0
 12 11  2  0
 12 13  1  0
 14  3  1  0
 15 14  2  0
 16 15  1  0
 17 18  1  0
 17 16  2  0
 18 19  2  0
 19 14  1  0
 20 18  1  0
 21 20  1  0
 21 22  1  0
 23 22  2  0
 24 25  1  0
 24 23  1  0
 25 21  2  0
  1 26  1  0
  2 27  1  0
  7 28  1  1
  8 29  1  0
  8 30  1  0
  9 31  1  0
  9 32  1  0
 10 33  1  0
 10 34  1  0
 11 35  1  0
 13 36  1  0
 13 37  1  0
 15 38  1  0
 16 39  1  0
 17 40  1  0
 23 41  1  0
 24 42  1  0
M  ISO  8  26  14  27  14  28  13  29  13  30  13  31  13  32  13  33  13
M  ISO  7  34  13  35  13  38  14  39  14  40  14  41  14  42   9
M  END
>  <minimizedAffinity>  (1) 
-7.12246704

>  <minimizedRMSD>  (1) 
0.690465689

$$$$
