
     RDKit          3D

 39 41  0  0  1  0  0  0  0  0999 V2000
   44.5630   35.6020   44.6180 C   0  0  0  0  0  0  0  0  0  0  0  0
   45.2260   35.6190   43.3710 C   0  0  0  0  0  0  0  0  0  0  0  0
   46.3110   34.7180   43.1880 C   0  0  0  0  0  0  0  0  0  0  0  0
   46.6630   33.8850   44.2090 N   0  0  0  0  0  0  0  0  0  0  0  0
   46.0040   33.9050   45.3720 C   0  0  0  0  0  0  0  0  0  0  0  0
   44.9480   34.7620   45.5900 N   0  0  0  0  0  0  0  0  0  0  0  0
   46.4290   32.9770   46.4660 C   0  0  2  0  0  0  0  0  0  0  0  0
   46.9410   31.7470   45.7470 C   0  0  0  0  0  0  0  0  0  0  0  0
   46.0630   30.5700   45.7640 C   0  0  0  0  0  0  0  0  0  0  0  0
   45.8020   30.3000   47.2450 C   0  0  0  0  0  0  0  0  0  0  0  0
   45.0070   31.3700   47.8630 C   0  0  0  0  0  0  0  0  0  0  0  0
   45.3810   32.7370   47.4160 C   0  0  0  0  0  0  0  0  0  0  0  0
   44.6880   33.8660   47.9340 N   0  0  0  0  0  0  0  0  0  0  0  0
   47.0120   34.7080   41.9130 C   0  0  0  0  0  0  0  0  0  0  0  0
   48.1680   35.3900   41.7960 C   0  0  0  0  0  0  0  0  0  0  0  0
   48.7980   35.3400   40.5390 C   0  0  0  0  0  0  0  0  0  0  0  0
   48.1630   34.5980   39.5550 C   0  0  0  0  0  0  0  0  0  0  0  0
   46.9940   33.9090   39.6740 C   0  0  0  0  0  0  0  0  0  0  0  0
   46.4410   34.0000   40.9160 N   0  0  0  0  0  0  0  0  0  0  0  0
   46.4490   33.2030   38.6320 O   0  0  0  0  0  0  0  0  0  0  0  0
   47.1090   32.6000   37.5700 C   0  0  0  0  0  0  0  0  0  0  0  0
   46.1740   31.7780   36.9300 F   0  0  0  0  0  0  0  0  0  0  0  0
   47.4960   33.5530   36.6430 F   0  0  0  0  0  0  0  0  0  0  0  0
   48.1460   31.7840   37.9540 F   0  0  0  0  0  0  0  0  0  0  0  0
   43.7201   36.2865   44.7942 H   0  0  0  0  0  0  0  0  0  0  0  0
   44.9141   36.3050   42.5696 H   0  0  0  0  0  0  0  0  0  0  0  0
   47.2209   33.3979   47.1029 H   0  0  0  0  0  0  0  0  0  0  0  0
   47.8954   31.4598   46.2125 H   0  0  0  0  0  0  0  0  0  0  0  0
   47.0206   32.0379   44.6892 H   0  0  0  0  0  0  0  0  0  0  0  0
   45.1211   30.7814   45.2367 H   0  0  0  0  0  0  0  0  0  0  0  0
   46.5172   29.7055   45.2578 H   0  0  0  0  0  0  0  0  0  0  0  0
   45.2570   29.3496   47.3430 H   0  0  0  0  0  0  0  0  0  0  0  0
   46.7727   30.2541   47.7604 H   0  0  0  0  0  0  0  0  0  0  0  0
   44.2061   31.1764   48.5918 H   0  0  0  0  0  0  0  0  0  0  0  0
   43.9292   33.7352   48.6181 H   0  0  0  0  0  0  0  0  0  0  0  0
   44.9450   34.8143   47.6250 H   0  0  0  0  0  0  0  0  0  0  0  0
   48.5959   35.9550   42.6372 H   0  0  0  0  0  0  0  0  0  0  0  0
   49.7463   35.8631   40.3467 H   0  0  0  0  0  0  0  0  0  0  0  0
   48.6563   34.5618   38.5725 H   0  0  0  0  0  0  0  0  0  0  0  0
  1  6  2  0
  2  1  1  0
  3  2  2  0
  3  4  1  0
  4  5  2  0
  5  6  1  0
  5  7  1  0
  7 12  1  0
  8  9  1  0
  8  7  1  0
  9 10  1  0
 10 11  1  0
 12 11  2  0
 12 13  1  0
 14  3  1  0
 15 14  2  0
 16 15  1  0
 17 18  1  0
 17 16  2  0
 18 19  2  0
 19 14  1  0
 20 18  1  0
 21 24  1  0
 21 20  1  0
 22 21  1  0
 23 21  1  0
  1 25  1  0
  2 26  1  0
  7 27  1  1
  8 28  1  0
  8 29  1  0
  9 30  1  0
  9 31  1  0
 10 32  1  0
 10 33  1  0
 11 34  1  0
 13 35  1  0
 13 36  1  0
 15 37  1  0
 16 38  1  0
 17 39  1  0
M  ISO  8  25  14  26  14  27  13  28  13  29  13  30  13  31  13  32  13
M  ISO  5  33  13  34  13  37  14  38  14  39  14
M  END
>  <minimizedAffinity>  (1) 
-6.85055733

>  <minimizedRMSD>  (1) 
0.664485157

$$$$
