
     RDKit          3D

 27 29  0  0  0  0  0  0  0  0999 V2000
   44.6010   35.9080   44.2910 C   0  0  0  0  0  0  0  0  0  0  0  0
   45.3360   35.8770   43.0920 C   0  0  0  0  0  0  0  0  0  0  0  0
   46.2940   34.8830   42.9800 C   0  0  0  0  0  0  0  0  0  0  0  0
   46.4800   33.9940   44.0120 N   0  0  0  0  0  0  0  0  0  0  0  0
   45.7540   34.0510   45.1520 C   0  0  0  0  0  0  0  0  0  0  0  0
   44.8170   35.0150   45.2800 N   0  0  0  0  0  0  0  0  0  0  0  0
   44.3220   34.0850   47.5690 F   0  0  0  0  0  0  0  0  0  0  0  0
   45.2670   33.1460   47.3710 C   0  0  0  0  0  0  0  0  0  0  0  0
   46.0050   33.0740   46.2060 C   0  0  0  0  0  0  0  0  0  0  0  0
   46.9780   32.1210   45.9790 C   0  0  0  0  0  0  0  0  0  0  0  0
   47.2570   31.1720   46.9410 C   0  0  0  0  0  0  0  0  0  0  0  0
   46.5060   31.2500   48.1180 C   0  0  0  0  0  0  0  0  0  0  0  0
   45.5300   32.2050   48.3480 C   0  0  0  0  0  0  0  0  0  0  0  0
   47.1130   34.7490   41.7260 C   0  0  0  0  0  0  0  0  0  0  0  0
   48.4200   35.5100   41.7940 C   0  0  0  0  0  0  0  0  0  0  0  0
   48.3400   33.9620   41.7970 C   0  0  0  0  0  0  0  0  0  0  0  0
   43.8297   36.6805   44.4263 H   0  0  0  0  0  0  0  0  0  0  0  0
   45.1592   36.6040   42.2857 H   0  0  0  0  0  0  0  0  0  0  0  0
   47.5322   32.1183   45.0288 H   0  0  0  0  0  0  0  0  0  0  0  0
   48.0253   30.3992   46.7908 H   0  0  0  0  0  0  0  0  0  0  0  0
   46.7020   30.5094   48.9074 H   0  0  0  0  0  0  0  0  0  0  0  0
   44.9716   32.2144   49.2957 H   0  0  0  0  0  0  0  0  0  0  0  0
   46.2546   34.7101   41.0393 H   0  0  0  0  0  0  0  0  0  0  0  0
   48.7995   36.0479   40.9127 H   0  0  0  0  0  0  0  0  0  0  0  0
   48.8565   36.2855   42.4406 H   0  0  0  0  0  0  0  0  0  0  0  0
   48.5807   33.4015   42.7124 H   0  0  0  0  0  0  0  0  0  0  0  0
   48.7843   33.1609   41.1881 H   0  0  0  0  0  0  0  0  0  0  0  0
  1  6  2  0
  2  1  1  0
  3  2  2  0
  3  4  1  0
  4  5  2  0
  5  6  1  0
  5  9  1  0
  8  7  1  0
  8 13  2  0
  9  8  1  0
 10  9  2  0
 10 11  1  0
 11 12  2  0
 12 13  1  0
 14 15  1  0
 14 16  1  0
 14  3  1  0
 15 16  1  0
  1 17  1  0
  2 18  1  0
 10 19  1  0
 11 20  1  0
 12 21  1  0
 13 22  1  0
 14 23  1  0
 15 24  1  0
 15 25  1  0
 16 26  1  0
 16 27  1  0
M  ISO  8  17  14  18  14  19  14  20  14  21  14  22  14  23  13  24  13
M  ISO  3  25  13  26  13  27  13
M  END
>  <minimizedAffinity>  (1) 
-5.70034742

>  <minimizedRMSD>  (1) 
0.236009568

$$$$
