
     RDKit          3D

 24 26  0  0  0  0  0  0  0  0999 V2000
   44.8610   35.5300   43.9010 C   0  0  0  0  0  0  0  0  0  0  0  0
   45.8680   35.3530   42.9270 C   0  0  0  0  0  0  0  0  0  0  0  0
   46.8620   34.4420   43.2370 C   0  0  0  0  0  0  0  0  0  0  0  0
   46.8410   33.7640   44.4320 N   0  0  0  0  0  0  0  0  0  0  0  0
   45.8490   33.9630   45.3470 C   0  0  0  0  0  0  0  0  0  0  0  0
   44.8750   34.8450   45.0640 N   0  0  0  0  0  0  0  0  0  0  0  0
   47.9640   34.1580   42.2570 C   0  0  0  0  0  0  0  0  0  0  0  0
   48.4750   35.3970   41.5510 C   0  0  0  0  0  0  0  0  0  0  0  0
   49.3140   34.6000   42.5860 C   0  0  0  0  0  0  0  0  0  0  0  0
   45.8920   33.2080   46.5940 C   0  0  0  0  0  0  0  0  0  0  0  0
   46.9010   32.3590   46.9900 C   0  0  0  0  0  0  0  0  0  0  0  0
   46.5110   31.8720   48.2320 C   0  0  0  0  0  0  0  0  0  0  0  0
   45.3120   32.4160   48.5570 N   0  0  0  0  0  0  0  0  0  0  0  0
   44.9500   33.2260   47.5500 N   0  0  0  0  0  0  0  0  0  0  0  0
   44.0460   36.2429   43.7074 H   0  0  0  0  0  0  0  0  0  0  0  0
   45.8624   35.9073   41.9769 H   0  0  0  0  0  0  0  0  0  0  0  0
   47.5684   33.1789   41.9490 H   0  0  0  0  0  0  0  0  0  0  0  0
   48.7304   35.3655   40.4815 H   0  0  0  0  0  0  0  0  0  0  0  0
   48.1418   36.4381   41.4282 H   0  0  0  0  0  0  0  0  0  0  0  0
   49.5239   35.0348   43.5744 H   0  0  0  0  0  0  0  0  0  0  0  0
   50.3077   34.1283   42.5811 H   0  0  0  0  0  0  0  0  0  0  0  0
   47.8220   32.1170   46.4393 H   0  0  0  0  0  0  0  0  0  0  0  0
   47.0810   31.1623   48.8496 H   0  0  0  0  0  0  0  0  0  0  0  0
   44.7769   32.2397   49.4192 H   0  0  0  0  0  0  0  0  0  0  0  0
  1  6  2  0
  2  3  2  0
  2  1  1  0
  3  4  1  0
  4  5  2  0
  5 10  1  0
  6  5  1  0
  7  9  1  0
  7  3  1  0
  8  7  1  0
  8  9  1  0
 10 11  1  0
 10 14  2  0
 11 12  2  0
 12 13  1  0
 14 13  1  0
  1 15  1  0
  2 16  1  0
  7 17  1  0
  8 18  1  0
  8 19  1  0
  9 20  1  0
  9 21  1  0
 11 22  1  0
 12 23  1  0
 13 24  1  0
M  ISO  8  15  14  16  14  17  13  18  13  19  13  20  13  21  13  22  14
M  ISO  2  23  14  24   9
M  END
>  <minimizedAffinity>  (1) 
-5.07111883

>  <minimizedRMSD>  (1) 
0.853652179

$$$$
