
     RDKit          3D

 20 21  0  0  0  0  0  0  0  0999 V2000
   44.6010   35.9160   44.3260 C   0  0  0  0  0  0  0  0  0  0  0  0
   45.3130   35.9060   43.1140 C   0  0  0  0  0  0  0  0  0  0  0  0
   46.2670   34.9030   42.9960 C   0  0  0  0  0  0  0  0  0  0  0  0
   46.4730   34.0010   44.0120 N   0  0  0  0  0  0  0  0  0  0  0  0
   45.7430   34.0680   45.1640 C   0  0  0  0  0  0  0  0  0  0  0  0
   44.8140   35.0290   45.3040 N   0  0  0  0  0  0  0  0  0  0  0  0
   47.0780   34.7690   41.7380 C   0  0  0  0  0  0  0  0  0  0  0  0
   48.3990   35.5020   41.7960 C   0  0  0  0  0  0  0  0  0  0  0  0
   48.2880   33.9550   41.7730 C   0  0  0  0  0  0  0  0  0  0  0  0
   46.0020   33.0680   46.2330 C   0  0  0  0  0  0  0  0  0  0  0  0
   43.8332   36.6891   44.4770 H   0  0  0  0  0  0  0  0  0  0  0  0
   45.1280   36.6400   42.3159 H   0  0  0  0  0  0  0  0  0  0  0  0
   46.2078   34.7570   41.0653 H   0  0  0  0  0  0  0  0  0  0  0  0
   48.7737   36.0482   40.9177 H   0  0  0  0  0  0  0  0  0  0  0  0
   48.8622   36.2570   42.4483 H   0  0  0  0  0  0  0  0  0  0  0  0
   48.5329   33.3731   42.6738 H   0  0  0  0  0  0  0  0  0  0  0  0
   48.7048   33.1558   41.1425 H   0  0  0  0  0  0  0  0  0  0  0  0
   45.8789   33.5433   47.2173 H   0  0  0  0  0  0  0  0  0  0  0  0
   45.2899   32.2352   46.1363 H   0  0  0  0  0  0  0  0  0  0  0  0
   47.0288   32.6856   46.1363 H   0  0  0  0  0  0  0  0  0  0  0  0
  1  6  2  0
  2  1  1  0
  3  2  2  0
  3  4  1  0
  4  5  2  0
  5  6  1  0
  5 10  1  0
  7  9  1  0
  7  8  1  0
  7  3  1  0
  9  8  1  0
  1 11  1  0
  2 12  1  0
  7 13  1  0
  8 14  1  0
  8 15  1  0
  9 16  1  0
  9 17  1  0
 10 18  1  0
 10 19  1  0
 10 20  1  0
M  ISO  8  11  14  12  14  13  13  14  13  15  13  16  13  17  13  18   8
M  ISO  2  19   8  20   8
M  END
>  <minimizedAffinity>  (1) 
-4.06283855

>  <minimizedRMSD>  (1) 
0.0497148335

$$$$
