
     RDKit          3D

 18 19  0  0  0  0  0  0  0  0999 V2000
   44.6230   35.9870   44.3320 C   0  0  0  0  0  0  0  0  0  0  0  0
   45.3600   35.9380   43.1260 C   0  0  0  0  0  0  0  0  0  0  0  0
   46.2660   34.8960   43.0140 C   0  0  0  0  0  0  0  0  0  0  0  0
   46.4080   33.9870   44.0350 N   0  0  0  0  0  0  0  0  0  0  0  0
   45.6750   34.0750   45.1770 C   0  0  0  0  0  0  0  0  0  0  0  0
   44.7830   35.0780   45.3200 N   0  0  0  0  0  0  0  0  0  0  0  0
   47.0780   34.7340   41.7620 C   0  0  0  0  0  0  0  0  0  0  0  0
   48.3810   35.4990   41.8000 C   0  0  0  0  0  0  0  0  0  0  0  0
   48.3060   33.9520   41.8410 C   0  0  0  0  0  0  0  0  0  0  0  0
   45.9630   33.0670   46.0850 O   0  0  0  0  0  0  0  0  0  0  0  0
   43.8911   36.7962   44.4717 H   0  0  0  0  0  0  0  0  0  0  0  0
   45.2224   36.6810   42.3266 H   0  0  0  0  0  0  0  0  0  0  0  0
   46.2140   34.6763   41.0836 H   0  0  0  0  0  0  0  0  0  0  0  0
   48.7511   36.0166   40.9027 H   0  0  0  0  0  0  0  0  0  0  0  0
   48.8207   36.2911   42.4238 H   0  0  0  0  0  0  0  0  0  0  0  0
   48.5562   33.4143   42.7674 H   0  0  0  0  0  0  0  0  0  0  0  0
   48.7471   33.1374   41.2479 H   0  0  0  0  0  0  0  0  0  0  0  0
   45.4881   33.0321   46.9530 H   0  0  0  0  0  0  0  0  0  0  0  0
  1  6  2  0
  2  1  1  0
  3  2  2  0
  3  4  1  0
  4  5  2  0
  5  6  1  0
  5 10  1  0
  7  8  1  0
  7  9  1  0
  7  3  1  0
  8  9  1  0
  1 11  1  0
  2 12  1  0
  7 13  1  0
  8 14  1  0
  8 15  1  0
  9 16  1  0
  9 17  1  0
 10 18  1  0
M  ISO  8  11  14  12  14  13  13  14  13  15  13  16  13  17  13  18   3
M  END
>  <minimizedAffinity>  (1) 
-3.97187257

>  <minimizedRMSD>  (1) 
0.042510543

$$$$
