
     RDKit          3D

 20 21  0  0  0  0  0  0  0  0999 V2000
   44.6080   36.0070   44.3380 C   0  0  0  0  0  0  0  0  0  0  0  0
   45.3500   35.9340   43.1360 C   0  0  0  0  0  0  0  0  0  0  0  0
   46.2530   34.8930   43.0410 C   0  0  0  0  0  0  0  0  0  0  0  0
   46.3980   33.9990   44.0720 N   0  0  0  0  0  0  0  0  0  0  0  0
   45.6660   34.1010   45.2150 C   0  0  0  0  0  0  0  0  0  0  0  0
   44.7720   35.1120   45.3370 N   0  0  0  0  0  0  0  0  0  0  0  0
   47.0730   34.7050   41.7980 C   0  0  0  0  0  0  0  0  0  0  0  0
   48.3590   35.5010   41.8140 C   0  0  0  0  0  0  0  0  0  0  0  0
   48.3190   33.9520   41.8990 C   0  0  0  0  0  0  0  0  0  0  0  0
   45.8530   33.1120   46.3060 C   0  0  0  0  0  0  0  0  0  0  0  0
   47.1260   33.1410   46.8250 F   0  0  0  0  0  0  0  0  0  0  0  0
   44.9370   33.2940   47.3350 F   0  0  0  0  0  0  0  0  0  0  0  0
   45.6690   31.8090   45.8270 F   0  0  0  0  0  0  0  0  0  0  0  0
   43.8748   36.8174   44.4634 H   0  0  0  0  0  0  0  0  0  0  0  0
   45.2158   36.6638   42.3240 H   0  0  0  0  0  0  0  0  0  0  0  0
   46.2111   34.6041   41.1220 H   0  0  0  0  0  0  0  0  0  0  0  0
   48.7176   36.0012   40.9023 H   0  0  0  0  0  0  0  0  0  0  0  0
   48.7803   36.3203   42.4150 H   0  0  0  0  0  0  0  0  0  0  0  0
   48.5807   33.4465   42.8403 H   0  0  0  0  0  0  0  0  0  0  0  0
   48.7785   33.1309   41.3293 H   0  0  0  0  0  0  0  0  0  0  0  0
  1  6  2  0
  2  1  1  0
  3  2  2  0
  3  4  1  0
  4  5  2  0
  5  6  1  0
  5 10  1  0
  7  8  1  0
  7  9  1  0
  7  3  1  0
  8  9  1  0
 10 11  1  0
 10 12  1  0
 13 10  1  0
  1 14  1  0
  2 15  1  0
  7 16  1  0
  8 17  1  0
  8 18  1  0
  9 19  1  0
  9 20  1  0
M  ISO  7  14  14  15  14  16  13  17  13  18  13  19  13  20  13
M  END
>  <minimizedAffinity>  (1) 
-4.77434587

>  <minimizedRMSD>  (1) 
0.165593579

$$$$
