
     RDKit          3D

 26 28  0  0  0  0  0  0  0  0999 V2000
   44.5250   35.8390   44.6620 C   0  0  0  0  0  0  0  0  0  0  0  0
   45.1680   35.8010   43.4140 C   0  0  0  0  0  0  0  0  0  0  0  0
   46.1030   34.7920   43.2360 C   0  0  0  0  0  0  0  0  0  0  0  0
   46.3640   33.8970   44.2420 N   0  0  0  0  0  0  0  0  0  0  0  0
   45.7140   33.9710   45.4380 C   0  0  0  0  0  0  0  0  0  0  0  0
   44.8020   34.9420   45.6340 N   0  0  0  0  0  0  0  0  0  0  0  0
   46.8280   34.6420   41.9310 C   0  0  0  0  0  0  0  0  0  0  0  0
   48.1690   35.3440   41.9060 C   0  0  0  0  0  0  0  0  0  0  0  0
   48.0130   33.7990   41.8800 C   0  0  0  0  0  0  0  0  0  0  0  0
   46.0230   32.9950   46.4790 C   0  0  0  0  0  0  0  0  0  0  0  0
   45.2190   32.9480   47.5990 C   0  0  0  0  0  0  0  0  0  0  0  0
   45.4880   32.0320   48.6040 C   0  0  0  0  0  0  0  0  0  0  0  0
   46.5740   31.1880   48.4360 C   0  0  0  0  0  0  0  0  0  0  0  0
   47.3560   31.2770   47.2830 C   0  0  0  0  0  0  0  0  0  0  0  0
   47.0810   32.1830   46.3010 N   0  0  0  0  0  0  0  0  0  0  0  0
   43.7751   36.6206   44.8536 H   0  0  0  0  0  0  0  0  0  0  0  0
   44.9428   36.5305   42.6221 H   0  0  0  0  0  0  0  0  0  0  0  0
   45.9152   34.6537   41.3173 H   0  0  0  0  0  0  0  0  0  0  0  0
   48.4987   35.8878   41.0085 H   0  0  0  0  0  0  0  0  0  0  0  0
   48.6943   36.0817   42.5304 H   0  0  0  0  0  0  0  0  0  0  0  0
   48.2492   33.2386   40.9634 H   0  0  0  0  0  0  0  0  0  0  0  0
   48.4019   32.9695   42.4889 H   0  0  0  0  0  0  0  0  0  0  0  0
   44.3661   33.6361   47.6944 H   0  0  0  0  0  0  0  0  0  0  0  0
   44.8599   31.9769   49.5054 H   0  0  0  0  0  0  0  0  0  0  0  0
   46.8200   30.4476   49.2114 H   0  0  0  0  0  0  0  0  0  0  0  0
   48.2148   30.6001   47.1635 H   0  0  0  0  0  0  0  0  0  0  0  0
  1  6  2  0
  2  1  1  0
  3  2  2  0
  3  4  1  0
  4  5  2  0
  5  6  1  0
  5 10  1  0
  7  3  1  0
  8  7  1  0
  9  8  1  0
  9  7  1  0
 10 11  2  0
 11 12  1  0
 13 12  2  0
 14 13  1  0
 15 10  1  0
 15 14  2  0
  1 16  1  0
  2 17  1  0
  7 18  1  0
  8 19  1  0
  8 20  1  0
  9 21  1  0
  9 22  1  0
 11 23  1  0
 12 24  1  0
 13 25  1  0
 14 26  1  0
M  ISO  8  16  14  17  14  18  13  19  13  20  13  21  13  22  13  23  14
M  ISO  3  24  14  25  14  26  14
M  END
>  <minimizedAffinity>  (1) 
-5.26490402

>  <minimizedRMSD>  (1) 
0.413856536

$$$$
