
     RDKit          3D

 42 46  0  0  0  0  0  0  0  0999 V2000
   46.2020   32.5990   46.9830 C   0  0  0  0  0  0  0  0  0  0  0  0
   45.1930   32.5580   47.9060 C   0  0  0  0  0  0  0  0  0  0  0  0
   45.2920   31.7630   49.0270 C   0  0  0  0  0  0  0  0  0  0  0  0
   46.4400   31.0210   49.1720 C   0  0  0  0  0  0  0  0  0  0  0  0
   47.4580   31.0710   48.2230 C   0  0  0  0  0  0  0  0  0  0  0  0
   47.3180   31.8790   47.1210 N   0  0  0  0  0  0  0  0  0  0  0  0
   48.7440   30.4040   48.2800 C   0  0  0  0  0  0  0  0  0  0  0  0
   48.8750   29.1740   47.6110 C   0  0  0  0  0  0  0  0  0  0  0  0
   49.9940   28.4050   47.5680 C   0  0  0  0  0  0  0  0  0  0  0  0
   51.1230   28.8300   48.2270 C   0  0  0  0  0  0  0  0  0  0  0  0
   51.0680   30.0250   48.9060 C   0  0  0  0  0  0  0  0  0  0  0  0
   52.1790   30.4430   49.5970 C   0  0  0  0  0  0  0  0  0  0  0  0
   52.1890   31.6220   50.3410 C   0  0  0  0  0  0  0  0  0  0  0  0
   50.9940   32.3480   50.3370 C   0  0  0  0  0  0  0  0  0  0  0  0
   49.9060   31.8940   49.6300 C   0  0  0  0  0  0  0  0  0  0  0  0
   49.9060   30.7530   48.9100 C   0  0  0  0  0  0  0  0  0  0  0  0
   44.9580   35.0960   44.5820 C   0  0  0  0  0  0  0  0  0  0  0  0
   45.8610   35.0180   43.5170 C   0  0  0  0  0  0  0  0  0  0  0  0
   46.8830   34.1080   43.6560 C   0  0  0  0  0  0  0  0  0  0  0  0
   46.9700   33.3410   44.7930 N   0  0  0  0  0  0  0  0  0  0  0  0
   46.0680   33.4480   45.8050 C   0  0  0  0  0  0  0  0  0  0  0  0
   45.0670   34.3280   45.6910 N   0  0  0  0  0  0  0  0  0  0  0  0
   47.8970   33.9130   42.5650 C   0  0  0  0  0  0  0  0  0  0  0  0
   48.1110   35.1780   41.7290 C   0  0  0  0  0  0  0  0  0  0  0  0
   49.1860   34.5420   42.6740 C   0  0  0  0  0  0  0  0  0  0  0  0
   44.2907   33.1678   47.7511 H   0  0  0  0  0  0  0  0  0  0  0  0
   44.4861   31.7237   49.7746 H   0  0  0  0  0  0  0  0  0  0  0  0
   46.5569   30.3752   50.0548 H   0  0  0  0  0  0  0  0  0  0  0  0
   47.9908   28.8006   47.0736 H   0  0  0  0  0  0  0  0  0  0  0  0
   49.9966   27.4551   47.0133 H   0  0  0  0  0  0  0  0  0  0  0  0
   52.0453   28.2308   48.2118 H   0  0  0  0  0  0  0  0  0  0  0  0
   53.0902   29.8277   49.5623 H   0  0  0  0  0  0  0  0  0  0  0  0
   53.0780   31.9587   50.8944 H   0  0  0  0  0  0  0  0  0  0  0  0
   50.9241   33.2885   50.9032 H   0  0  0  0  0  0  0  0  0  0  0  0
   48.9844   32.4942   49.6525 H   0  0  0  0  0  0  0  0  0  0  0  0
   44.1248   35.8111   44.5156 H   0  0  0  0  0  0  0  0  0  0  0  0
   45.7599   35.6475   42.6206 H   0  0  0  0  0  0  0  0  0  0  0  0
   47.6255   32.8646   42.3723 H   0  0  0  0  0  0  0  0  0  0  0  0
   48.2173   35.1185   40.6358 H   0  0  0  0  0  0  0  0  0  0  0  0
   47.6219   36.1562   41.6108 H   0  0  0  0  0  0  0  0  0  0  0  0
   49.4673   35.0548   43.6056 H   0  0  0  0  0  0  0  0  0  0  0  0
   50.2238   34.2018   42.5428 H   0  0  0  0  0  0  0  0  0  0  0  0
  1  6  1  0
  1  2  2  0
  2  3  1  0
  3  4  2  0
  5  7  1  0
  5  4  1  0
  6  5  2  0
  7 16  1  0
  8  7  2  0
  9  8  1  0
  9 10  2  0
 10 11  1  0
 11 16  2  0
 11 12  1  0
 12 13  2  0
 14 13  1  0
 15 14  2  0
 16 15  1  0
 17 22  2  0
 18 19  2  0
 18 17  1  0
 19 20  1  0
 20 21  2  0
 21  1  1  0
 22 21  1  0
 23 25  1  0
 23 19  1  0
 24 23  1  0
 24 25  1  0
  2 26  1  0
  3 27  1  0
  4 28  1  0
  8 29  1  0
  9 30  1  0
 10 31  1  0
 12 32  1  0
 13 33  1  0
 14 34  1  0
 15 35  1  0
 17 36  1  0
 18 37  1  0
 23 38  1  0
 24 39  1  0
 24 40  1  0
 25 41  1  0
 25 42  1  0
M  ISO  8  26  14  27  14  28  14  29  14  30  14  31  14  32  14  33  14
M  ISO  8  34  14  35  14  36  14  37  14  38  13  39  13  40  13  41  13
M  ISO  1  42  13
M  END
>  <minimizedAffinity>  (1) 
-7.00210333

>  <minimizedRMSD>  (1) 
1.67679131

$$$$
