
     RDKit          3D

 36 39  0  0  0  0  0  0  0  0999 V2000
   46.0680   32.7420   47.0970 C   0  0  0  0  0  0  0  0  0  0  0  0
   44.9470   32.3910   47.8370 C   0  0  0  0  0  0  0  0  0  0  0  0
   45.1030   31.5630   48.9440 C   0  0  0  0  0  0  0  0  0  0  0  0
   46.3810   31.1240   49.2580 C   0  0  0  0  0  0  0  0  0  0  0  0
   47.4570   31.5120   48.4780 C   0  0  0  0  0  0  0  0  0  0  0  0
   47.2950   32.3190   47.4010 N   0  0  0  0  0  0  0  0  0  0  0  0
   48.3760   29.0260   47.6830 F   0  0  0  0  0  0  0  0  0  0  0  0
   49.2460   29.8120   48.3950 C   0  0  0  0  0  0  0  0  0  0  0  0
   48.8020   31.0560   48.8000 C   0  0  0  0  0  0  0  0  0  0  0  0
   49.7300   31.7860   49.5090 C   0  0  0  0  0  0  0  0  0  0  0  0
   50.9980   31.3260   49.7980 C   0  0  0  0  0  0  0  0  0  0  0  0
   51.3800   30.0740   49.3650 C   0  0  0  0  0  0  0  0  0  0  0  0
   50.5010   29.2900   48.6490 C   0  0  0  0  0  0  0  0  0  0  0  0
   44.7510   35.2980   44.7920 C   0  0  0  0  0  0  0  0  0  0  0  0
   45.5780   35.1750   43.6520 C   0  0  0  0  0  0  0  0  0  0  0  0
   46.5660   34.2140   43.7320 C   0  0  0  0  0  0  0  0  0  0  0  0
   46.7220   33.4330   44.8590 N   0  0  0  0  0  0  0  0  0  0  0  0
   45.8910   33.5950   45.9350 C   0  0  0  0  0  0  0  0  0  0  0  0
   44.9090   34.5280   45.8950 N   0  0  0  0  0  0  0  0  0  0  0  0
   47.4760   33.9700   42.5740 C   0  0  0  0  0  0  0  0  0  0  0  0
   47.9640   35.2550   41.9030 C   0  0  0  0  0  0  0  0  0  0  0  0
   48.8790   34.2650   42.6950 C   0  0  0  0  0  0  0  0  0  0  0  0
   43.9512   32.7617   47.5525 H   0  0  0  0  0  0  0  0  0  0  0  0
   44.2371   31.2647   49.5533 H   0  0  0  0  0  0  0  0  0  0  0  0
   46.5394   30.4678   50.1265 H   0  0  0  0  0  0  0  0  0  0  0  0
   49.4453   32.7878   49.8632 H   0  0  0  0  0  0  0  0  0  0  0  0
   51.6985   31.9529   50.3692 H   0  0  0  0  0  0  0  0  0  0  0  0
   52.3892   29.6997   49.5916 H   0  0  0  0  0  0  0  0  0  0  0  0
   50.7865   28.2889   48.2938 H   0  0  0  0  0  0  0  0  0  0  0  0
   43.9472   36.0489   44.7828 H   0  0  0  0  0  0  0  0  0  0  0  0
   45.4431   35.8038   42.7596 H   0  0  0  0  0  0  0  0  0  0  0  0
   46.9572   33.0541   42.2549 H   0  0  0  0  0  0  0  0  0  0  0  0
   48.0297   35.3272   40.8073 H   0  0  0  0  0  0  0  0  0  0  0  0
   47.7160   36.3260   41.9417 H   0  0  0  0  0  0  0  0  0  0  0  0
   49.2931   34.5634   43.6694 H   0  0  0  0  0  0  0  0  0  0  0  0
   49.8050   33.7179   42.4641 H   0  0  0  0  0  0  0  0  0  0  0  0
  1  6  1  0
  1  2  2  0
  2  3  1  0
  3  4  2  0
  5  9  1  0
  5  4  1  0
  6  5  2  0
  7  8  1  0
  8 13  2  0
  8  9  1  0
  9 10  2  0
 10 11  1  0
 12 11  2  0
 13 12  1  0
 14 19  2  0
 15 16  2  0
 15 14  1  0
 16 17  1  0
 17 18  2  0
 18  1  1  0
 19 18  1  0
 20 22  1  0
 20 16  1  0
 21 20  1  0
 21 22  1  0
  2 23  1  0
  3 24  1  0
  4 25  1  0
 10 26  1  0
 11 27  1  0
 12 28  1  0
 13 29  1  0
 14 30  1  0
 15 31  1  0
 20 32  1  0
 21 33  1  0
 21 34  1  0
 22 35  1  0
 22 36  1  0
M  ISO  8  23  14  24  14  25  14  26  14  27  14  28  14  29  14  30  14
M  ISO  6  31  14  32  13  33  13  34  13  35  13  36  13
M  END
>  <minimizedAffinity>  (1) 
-6.50272846

>  <minimizedRMSD>  (1) 
1.75677705

$$$$
