
     RDKit          3D

 29 31  0  0  0  0  0  0  0  0999 V2000
   44.5770   35.8810   44.6090 C   0  0  0  0  0  0  0  0  0  0  0  0
   45.2310   35.8670   43.3710 C   0  0  0  0  0  0  0  0  0  0  0  0
   46.1370   34.8460   43.1900 C   0  0  0  0  0  0  0  0  0  0  0  0
   46.3520   33.9200   44.1880 N   0  0  0  0  0  0  0  0  0  0  0  0
   45.6910   33.9740   45.3720 C   0  0  0  0  0  0  0  0  0  0  0  0
   44.8080   34.9600   45.5680 N   0  0  0  0  0  0  0  0  0  0  0  0
   45.9520   32.9620   46.3890 C   0  0  0  0  0  0  0  0  0  0  0  0
   45.2380   33.0140   47.5690 C   0  0  0  0  0  0  0  0  0  0  0  0
   45.4680   32.0630   48.5510 C   0  0  0  0  0  0  0  0  0  0  0  0
   46.4160   31.0910   48.2960 C   0  0  0  0  0  0  0  0  0  0  0  0
   47.1040   31.0880   47.0890 C   0  0  0  0  0  0  0  0  0  0  0  0
   46.8800   32.0180   46.1300 N   0  0  0  0  0  0  0  0  0  0  0  0
   48.1380   30.0470   46.7850 C   0  0  0  0  0  0  0  0  0  0  0  0
   46.8850   34.7050   41.8940 C   0  0  0  0  0  0  0  0  0  0  0  0
   48.2460   35.3990   41.9250 C   0  0  0  0  0  0  0  0  0  0  0  0
   48.0390   33.8500   41.8290 C   0  0  0  0  0  0  0  0  0  0  0  0
   43.8438   36.6764   44.8084 H   0  0  0  0  0  0  0  0  0  0  0  0
   45.0342   36.6212   42.5949 H   0  0  0  0  0  0  0  0  0  0  0  0
   44.4909   33.8053   47.7293 H   0  0  0  0  0  0  0  0  0  0  0  0
   44.9143   32.0817   49.5013 H   0  0  0  0  0  0  0  0  0  0  0  0
   46.6265   30.3181   49.0499 H   0  0  0  0  0  0  0  0  0  0  0  0
   48.5393   29.6430   47.7261 H   0  0  0  0  0  0  0  0  0  0  0  0
   47.6797   29.2340   46.2028 H   0  0  0  0  0  0  0  0  0  0  0  0
   48.9541   30.4998   46.2028 H   0  0  0  0  0  0  0  0  0  0  0  0
   45.9844   34.7402   41.2633 H   0  0  0  0  0  0  0  0  0  0  0  0
   48.6043   35.9733   41.0579 H   0  0  0  0  0  0  0  0  0  0  0  0
   48.7762   36.0998   42.5866 H   0  0  0  0  0  0  0  0  0  0  0  0
   48.2946   33.2096   42.6861 H   0  0  0  0  0  0  0  0  0  0  0  0
   48.3815   33.0668   41.1366 H   0  0  0  0  0  0  0  0  0  0  0  0
  1  6  2  0
  2  1  1  0
  3  2  2  0
  3  4  1  0
  4  5  2  0
  5  6  1  0
  5  7  1  0
  7  8  2  0
  8  9  1  0
 10  9  2  0
 11 10  1  0
 12  7  1  0
 12 11  2  0
 13 11  1  0
 14 15  1  0
 14  3  1  0
 16 14  1  0
 16 15  1  0
  1 17  1  0
  2 18  1  0
  8 19  1  0
  9 20  1  0
 10 21  1  0
 13 22  1  0
 13 23  1  0
 13 24  1  0
 14 25  1  0
 15 26  1  0
 15 27  1  0
 16 28  1  0
 16 29  1  0
M  ISO  8  17  14  18  14  19  14  20  14  21  14  22   8  23   8  24   8
M  ISO  5  25  13  26  13  27  13  28  13  29  13
M  END
>  <minimizedAffinity>  (1) 
-5.42768717

>  <minimizedRMSD>  (1) 
0.208211139

$$$$
