
     RDKit          3D

 33 36  0  0  0  0  0  0  0  0999 V2000
   46.0960   32.7120   47.0940 C   0  0  0  0  0  0  0  0  0  0  0  0
   44.9910   32.3510   47.8380 C   0  0  0  0  0  0  0  0  0  0  0  0
   45.1340   31.5350   48.9390 C   0  0  0  0  0  0  0  0  0  0  0  0
   46.4060   31.1100   49.2470 C   0  0  0  0  0  0  0  0  0  0  0  0
   47.4960   31.4980   48.4710 C   0  0  0  0  0  0  0  0  0  0  0  0
   47.3440   32.3010   47.3900 N   0  0  0  0  0  0  0  0  0  0  0  0
   44.7560   35.2790   44.8040 C   0  0  0  0  0  0  0  0  0  0  0  0
   45.5670   35.1690   43.6640 C   0  0  0  0  0  0  0  0  0  0  0  0
   46.5540   34.2130   43.7300 C   0  0  0  0  0  0  0  0  0  0  0  0
   46.7050   33.4380   44.8500 N   0  0  0  0  0  0  0  0  0  0  0  0
   45.8930   33.5810   45.9320 C   0  0  0  0  0  0  0  0  0  0  0  0
   44.9260   34.5020   45.8980 N   0  0  0  0  0  0  0  0  0  0  0  0
   47.4680   33.9800   42.5570 C   0  0  0  0  0  0  0  0  0  0  0  0
   47.9580   35.2780   41.9150 C   0  0  0  0  0  0  0  0  0  0  0  0
   48.8730   34.2640   42.6790 C   0  0  0  0  0  0  0  0  0  0  0  0
   48.8480   31.0350   48.8140 C   0  0  0  0  0  0  0  0  0  0  0  0
   49.7750   31.7650   49.5300 C   0  0  0  0  0  0  0  0  0  0  0  0
   50.8890   30.9990   49.6380 N   0  0  0  0  0  0  0  0  0  0  0  0
   50.6660   29.8320   49.0110 C   0  0  0  0  0  0  0  0  0  0  0  0
   49.4050   29.8340   48.4930 N   0  0  0  0  0  0  0  0  0  0  0  0
   43.9936   32.7157   47.5513 H   0  0  0  0  0  0  0  0  0  0  0  0
   44.2672   31.2357   49.5466 H   0  0  0  0  0  0  0  0  0  0  0  0
   46.5642   30.4556   50.1169 H   0  0  0  0  0  0  0  0  0  0  0  0
   43.9497   36.0272   44.8080 H   0  0  0  0  0  0  0  0  0  0  0  0
   45.4232   35.8043   42.7776 H   0  0  0  0  0  0  0  0  0  0  0  0
   46.9463   33.0717   42.2212 H   0  0  0  0  0  0  0  0  0  0  0  0
   48.0186   35.3763   40.8211 H   0  0  0  0  0  0  0  0  0  0  0  0
   47.7151   36.3488   41.9807 H   0  0  0  0  0  0  0  0  0  0  0  0
   49.2931   34.5366   43.6584 H   0  0  0  0  0  0  0  0  0  0  0  0
   49.7951   33.7180   42.4309 H   0  0  0  0  0  0  0  0  0  0  0  0
   49.6364   32.7777   49.9366 H   0  0  0  0  0  0  0  0  0  0  0  0
   51.7592   31.2668   50.1195 H   0  0  0  0  0  0  0  0  0  0  0  0
   51.3870   29.0054   48.9286 H   0  0  0  0  0  0  0  0  0  0  0  0
  1  6  1  0
  1  2  2  0
  2  3  1  0
  3  4  2  0
  5 16  1  0
  5  4  1  0
  6  5  2  0
  7 12  2  0
  8  9  2  0
  8  7  1  0
  9 10  1  0
 10 11  2  0
 11  1  1  0
 12 11  1  0
 13 15  1  0
 13  9  1  0
 14 13  1  0
 14 15  1  0
 16 17  2  0
 17 18  1  0
 19 18  1  0
 20 16  1  0
 20 19  2  0
  2 21  1  0
  3 22  1  0
  4 23  1  0
  7 24  1  0
  8 25  1  0
 13 26  1  0
 14 27  1  0
 14 28  1  0
 15 29  1  0
 15 30  1  0
 17 31  1  0
 18 32  1  0
 19 33  1  0
M  ISO  8  21  14  22  14  23  14  24  14  25  14  26  13  27  13  28  13
M  ISO  5  29  13  30  13  31  14  32   9  33  14
M  END
>  <minimizedAffinity>  (1) 
-6.01423168

>  <minimizedRMSD>  (1) 
1.45902586

$$$$
