
     RDKit          3D

 29 31  0  0  0  0  0  0  0  0999 V2000
   44.5990   35.6810   44.7080 C   0  0  0  0  0  0  0  0  0  0  0  0
   45.2680   35.6020   43.4870 C   0  0  0  0  0  0  0  0  0  0  0  0
   46.1980   34.5950   43.3630 C   0  0  0  0  0  0  0  0  0  0  0  0
   46.4500   33.7160   44.3970 N   0  0  0  0  0  0  0  0  0  0  0  0
   45.7580   33.8420   45.5770 C   0  0  0  0  0  0  0  0  0  0  0  0
   44.8530   34.8170   45.7030 N   0  0  0  0  0  0  0  0  0  0  0  0
   46.0360   32.8680   46.6350 C   0  0  0  0  0  0  0  0  0  0  0  0
   45.2310   32.9010   47.7640 C   0  0  0  0  0  0  0  0  0  0  0  0
   45.4330   31.9970   48.7850 C   0  0  0  0  0  0  0  0  0  0  0  0
   46.4520   31.0870   48.6180 C   0  0  0  0  0  0  0  0  0  0  0  0
   47.2390   31.0840   47.4750 C   0  0  0  0  0  0  0  0  0  0  0  0
   47.0290   31.9870   46.4700 N   0  0  0  0  0  0  0  0  0  0  0  0
   48.3300   30.0700   47.3570 C   0  0  0  0  0  0  0  0  0  0  0  0
   47.8440   28.8320   47.7950 F   0  0  0  0  0  0  0  0  0  0  0  0
   48.6830   29.9550   46.0360 F   0  0  0  0  0  0  0  0  0  0  0  0
   49.3600   30.4910   48.1740 F   0  0  0  0  0  0  0  0  0  0  0  0
   46.9600   34.3920   42.0760 C   0  0  0  0  0  0  0  0  0  0  0  0
   48.1350   35.3610   41.9260 C   0  0  0  0  0  0  0  0  0  0  0  0
   48.2750   33.8130   42.1160 C   0  0  0  0  0  0  0  0  0  0  0  0
   43.8464   36.4689   44.8589 H   0  0  0  0  0  0  0  0  0  0  0  0
   45.0635   36.3064   42.6673 H   0  0  0  0  0  0  0  0  0  0  0  0
   44.4296   33.6502   47.8449 H   0  0  0  0  0  0  0  0  0  0  0  0
   44.8089   32.0027   49.6908 H   0  0  0  0  0  0  0  0  0  0  0  0
   46.6468   30.3462   49.4075 H   0  0  0  0  0  0  0  0  0  0  0  0
   46.0728   34.1172   41.4866 H   0  0  0  0  0  0  0  0  0  0  0  0
   48.3563   35.8310   40.9564 H   0  0  0  0  0  0  0  0  0  0  0  0
   48.4979   36.2692   42.4294 H   0  0  0  0  0  0  0  0  0  0  0  0
   48.6672   33.4113   43.0619 H   0  0  0  0  0  0  0  0  0  0  0  0
   48.7816   33.0103   41.5601 H   0  0  0  0  0  0  0  0  0  0  0  0
  1  6  2  0
  2  1  1  0
  3  2  2  0
  3  4  1  0
  4  5  2  0
  5  6  1  0
  5  7  1  0
  7  8  2  0
  8  9  1  0
 10  9  2  0
 11 10  1  0
 12  7  1  0
 12 11  2  0
 13 11  1  0
 13 14  1  0
 13 16  1  0
 15 13  1  0
 17 19  1  0
 17  3  1  0
 18 17  1  0
 18 19  1  0
  1 20  1  0
  2 21  1  0
  8 22  1  0
  9 23  1  0
 10 24  1  0
 17 25  1  0
 18 26  1  0
 18 27  1  0
 19 28  1  0
 19 29  1  0
M  ISO  8  20  14  21  14  22  14  23  14  24  14  25  13  26  13  27  13
M  ISO  2  28  13  29  13
M  END
>  <minimizedAffinity>  (1) 
-5.61711597

>  <minimizedRMSD>  (1) 
0.361309588

$$$$
