
     RDKit          3D

 30 32  0  0  0  0  0  0  0  0999 V2000
   46.9290   33.4240   45.0300 F   0  0  0  0  0  0  0  0  0  0  0  0
   47.4460   32.2100   44.6960 C   0  0  0  0  0  0  0  0  0  0  0  0
   48.1330   32.1040   43.5110 C   0  0  0  0  0  0  0  0  0  0  0  0
   48.6520   30.8900   43.1740 C   0  0  0  0  0  0  0  0  0  0  0  0
   48.4810   29.8070   44.0130 C   0  0  0  0  0  0  0  0  0  0  0  0
   47.7960   29.9060   45.1960 C   0  0  0  0  0  0  0  0  0  0  0  0
   47.2670   31.1470   45.5380 C   0  0  0  0  0  0  0  0  0  0  0  0
   49.4190   35.2310   42.1120 C   0  0  0  0  0  0  0  0  0  0  0  0
   48.5750   35.4440   40.9940 C   0  0  0  0  0  0  0  0  0  0  0  0
   47.5830   34.4990   40.7520 C   0  0  0  0  0  0  0  0  0  0  0  0
   47.4760   33.4370   41.5910 N   0  0  0  0  0  0  0  0  0  0  0  0
   48.2970   33.2680   42.6450 C   0  0  0  0  0  0  0  0  0  0  0  0
   49.2690   34.1650   42.9060 N   0  0  0  0  0  0  0  0  0  0  0  0
   46.5480   31.2240   46.7940 C   0  0  0  0  0  0  0  0  0  0  0  0
   46.7350   32.2390   47.7170 C   0  0  0  0  0  0  0  0  0  0  0  0
   46.0350   32.2870   48.9060 C   0  0  0  0  0  0  0  0  0  0  0  0
   45.1010   31.2980   49.2230 C   0  0  0  0  0  0  0  0  0  0  0  0
   44.8910   30.2690   48.3220 C   0  0  0  0  0  0  0  0  0  0  0  0
   45.6040   30.2650   47.1630 C   0  0  0  0  0  0  0  0  0  0  0  0
   49.2080   30.7727   42.2321 H   0  0  0  0  0  0  0  0  0  0  0  0
   48.9074   28.8353   43.7233 H   0  0  0  0  0  0  0  0  0  0  0  0
   47.6686   29.0334   45.8535 H   0  0  0  0  0  0  0  0  0  0  0  0
   50.2148   35.9580   42.3318 H   0  0  0  0  0  0  0  0  0  0  0  0
   48.6992   36.3220   40.3430 H   0  0  0  0  0  0  0  0  0  0  0  0
   46.8989   34.6101   39.8978 H   0  0  0  0  0  0  0  0  0  0  0  0
   47.4644   33.0322   47.4959 H   0  0  0  0  0  0  0  0  0  0  0  0
   46.2146   33.1123   49.6107 H   0  0  0  0  0  0  0  0  0  0  0  0
   44.5433   31.3364   50.1704 H   0  0  0  0  0  0  0  0  0  0  0  0
   44.1640   29.4722   48.5378 H   0  0  0  0  0  0  0  0  0  0  0  0
   45.4214   29.4388   46.4601 H   0  0  0  0  0  0  0  0  0  0  0  0
  2  1  1  0
  2  7  2  0
  3  2  1  0
  4  3  2  0
  4  5  1  0
  5  6  2  0
  6  7  1  0
  7 14  1  0
  8 13  2  0
  9  8  1  0
 10  9  2  0
 10 11  1  0
 11 12  2  0
 12 13  1  0
 12  3  1  0
 14 19  1  0
 14 15  2  0
 15 16  1  0
 16 17  2  0
 18 17  1  0
 19 18  2  0
  4 20  1  0
  5 21  1  0
  6 22  1  0
  8 23  1  0
  9 24  1  0
 10 25  1  0
 15 26  1  0
 16 27  1  0
 17 28  1  0
 18 29  1  0
 19 30  1  0
M  ISO  8  20  14  21  14  22  14  23  14  24  14  25  14  26  14  27  14
M  ISO  3  28  14  29  14  30  14
M  END
>  <minimizedAffinity>  (1) 
-5.44143963

>  <minimizedRMSD>  (1) 
3.82541442

$$$$
