
     RDKit          3D

 23 24  0  0  0  0  0  0  0  0999 V2000
   44.8540   33.7120   47.2830 F   0  0  0  0  0  0  0  0  0  0  0  0
   45.7160   32.7610   46.8140 C   0  0  0  0  0  0  0  0  0  0  0  0
   46.2120   32.9110   45.5430 C   0  0  0  0  0  0  0  0  0  0  0  0
   47.0790   31.9700   45.0510 C   0  0  0  0  0  0  0  0  0  0  0  0
   47.4380   30.8940   45.8340 C   0  0  0  0  0  0  0  0  0  0  0  0
   46.9500   30.7270   47.1100 C   0  0  0  0  0  0  0  0  0  0  0  0
   46.0660   31.6960   47.5990 C   0  0  0  0  0  0  0  0  0  0  0  0
   44.5130   35.9830   44.4650 C   0  0  0  0  0  0  0  0  0  0  0  0
   45.0870   36.2310   43.1840 C   0  0  0  0  0  0  0  0  0  0  0  0
   46.0470   35.3220   42.7330 C   0  0  0  0  0  0  0  0  0  0  0  0
   46.3780   34.2640   43.5320 N   0  0  0  0  0  0  0  0  0  0  0  0
   45.8070   34.0720   44.7380 C   0  0  0  0  0  0  0  0  0  0  0  0
   44.8890   34.9210   45.1950 N   0  0  0  0  0  0  0  0  0  0  0  0
   45.5000   31.5740   48.9770 C   0  0  0  0  0  0  0  0  0  0  0  0
   45.7910   32.7220   49.6570 F   0  0  0  0  0  0  0  0  0  0  0  0
   45.9270   30.4240   49.5880 F   0  0  0  0  0  0  0  0  0  0  0  0
   44.1210   31.5000   48.8370 F   0  0  0  0  0  0  0  0  0  0  0  0
   47.4869   32.0733   44.0346 H   0  0  0  0  0  0  0  0  0  0  0  0
   48.1351   30.1467   45.4271 H   0  0  0  0  0  0  0  0  0  0  0  0
   47.2442   29.8628   47.7237 H   0  0  0  0  0  0  0  0  0  0  0  0
   43.7516   36.6712   44.8607 H   0  0  0  0  0  0  0  0  0  0  0  0
   44.7875   37.0989   42.5781 H   0  0  0  0  0  0  0  0  0  0  0  0
   46.5277   35.4554   41.7526 H   0  0  0  0  0  0  0  0  0  0  0  0
  2  1  1  0
  2  7  2  0
  3  2  1  0
  4  3  2  0
  4  5  1  0
  5  6  2  0
  6  7  1  0
  7 14  1  0
  8 13  2  0
  9  8  1  0
 10  9  2  0
 10 11  1  0
 11 12  2  0
 12 13  1  0
 12  3  1  0
 14 16  1  0
 14 15  1  0
 17 14  1  0
  4 18  1  0
  5 19  1  0
  6 20  1  0
  8 21  1  0
  9 22  1  0
 10 23  1  0
M  ISO  6  18  14  19  14  20  14  21  14  22  14  23  14
M  END
>  <minimizedAffinity>  (1) 
-5.58884716

>  <minimizedRMSD>  (1) 
1.03082454

$$$$
