
     RDKit          3D

 23 24  0  0  0  0  0  0  0  0999 V2000
   44.6100   33.6470   47.6220 F   0  0  0  0  0  0  0  0  0  0  0  0
   45.5200   32.7180   47.2270 C   0  0  0  0  0  0  0  0  0  0  0  0
   46.0950   32.8590   45.9770 C   0  0  0  0  0  0  0  0  0  0  0  0
   47.0100   31.9260   45.5790 C   0  0  0  0  0  0  0  0  0  0  0  0
   47.3430   30.8800   46.4060 C   0  0  0  0  0  0  0  0  0  0  0  0
   46.7840   30.7210   47.6500 C   0  0  0  0  0  0  0  0  0  0  0  0
   45.8530   31.6730   48.0520 C   0  0  0  0  0  0  0  0  0  0  0  0
   44.5020   35.9280   44.7770 C   0  0  0  0  0  0  0  0  0  0  0  0
   45.0370   36.0810   43.4830 C   0  0  0  0  0  0  0  0  0  0  0  0
   45.9410   35.1120   43.0560 C   0  0  0  0  0  0  0  0  0  0  0  0
   46.2450   34.0940   43.9050 N   0  0  0  0  0  0  0  0  0  0  0  0
   45.7140   33.9810   45.1360 C   0  0  0  0  0  0  0  0  0  0  0  0
   44.8400   34.9020   45.5720 N   0  0  0  0  0  0  0  0  0  0  0  0
   45.2260   31.5230   49.4110 C   0  0  0  0  0  0  0  0  0  0  0  0
   47.4835   32.0125   44.5899 H   0  0  0  0  0  0  0  0  0  0  0  0
   48.0835   30.1443   46.0591 H   0  0  0  0  0  0  0  0  0  0  0  0
   47.0603   29.8778   48.3001 H   0  0  0  0  0  0  0  0  0  0  0  0
   43.7837   36.6742   45.1475 H   0  0  0  0  0  0  0  0  0  0  0  0
   44.7537   36.9270   42.8395 H   0  0  0  0  0  0  0  0  0  0  0  0
   46.3979   35.1684   42.0570 H   0  0  0  0  0  0  0  0  0  0  0  0
   45.9844   31.7044   50.1868 H   0  0  0  0  0  0  0  0  0  0  0  0
   44.4085   32.2509   49.5200 H   0  0  0  0  0  0  0  0  0  0  0  0
   44.8265   30.5039   49.5200 H   0  0  0  0  0  0  0  0  0  0  0  0
  2  1  1  0
  2  7  2  0
  3  2  1  0
  4  3  2  0
  4  5  1  0
  5  6  2  0
  6  7  1  0
  7 14  1  0
  8 13  2  0
  9  8  1  0
 10  9  2  0
 10 11  1  0
 11 12  2  0
 12 13  1  0
 12  3  1  0
  4 15  1  0
  5 16  1  0
  6 17  1  0
  8 18  1  0
  9 19  1  0
 10 20  1  0
 14 21  1  0
 14 22  1  0
 14 23  1  0
M  ISO  8  15  14  16  14  17  14  18  14  19  14  20  14  21   8  22   8
M  ISO  1  23   8
M  END
>  <minimizedAffinity>  (1) 
-5.27033758

>  <minimizedRMSD>  (1) 
0.565721571

$$$$
