
     RDKit          3D

 33 35  0  0  1  0  0  0  0  0999 V2000
   46.5060   33.6650   44.9880 F   0  0  0  0  0  0  0  0  0  0  0  0
   47.0650   32.4440   44.8230 C   0  0  0  0  0  0  0  0  0  0  0  0
   47.8840   32.2400   43.7390 C   0  0  0  0  0  0  0  0  0  0  0  0
   48.4460   31.0120   43.5730 C   0  0  0  0  0  0  0  0  0  0  0  0
   48.1790   30.0090   44.4930 C   0  0  0  0  0  0  0  0  0  0  0  0
   47.3600   30.2020   45.5820 C   0  0  0  0  0  0  0  0  0  0  0  0
   46.7960   31.4670   45.7300 C   0  0  0  0  0  0  0  0  0  0  0  0
   45.9600   31.6260   46.8640 N   0  0  0  0  0  0  0  0  0  0  0  0
   44.9170   30.7770   47.4080 C   0  0  0  0  0  0  0  0  0  0  0  0
   45.3000   30.6650   48.8850 C   0  0  0  0  0  0  0  0  0  0  0  0
   46.1080   31.9040   49.1300 C   0  0  0  0  0  0  0  0  0  0  0  0
   45.8730   32.7000   47.8560 C   0  0  2  0  0  0  0  0  0  0  0  0
   44.6250   33.3190   47.8520 O   0  0  0  0  0  0  0  0  0  0  0  0
   49.4170   35.1730   42.1450 C   0  0  0  0  0  0  0  0  0  0  0  0
   48.5800   35.3940   41.0250 C   0  0  0  0  0  0  0  0  0  0  0  0
   47.4950   34.5120   40.8490 C   0  0  0  0  0  0  0  0  0  0  0  0
   47.3280   33.5130   41.7650 N   0  0  0  0  0  0  0  0  0  0  0  0
   48.1290   33.3310   42.8050 C   0  0  0  0  0  0  0  0  0  0  0  0
   49.1820   34.1620   43.0020 N   0  0  0  0  0  0  0  0  0  0  0  0
   49.1070   30.8162   42.7158 H   0  0  0  0  0  0  0  0  0  0  0  0
   48.6397   29.0209   44.3465 H   0  0  0  0  0  0  0  0  0  0  0  0
   47.1601   29.3948   46.3021 H   0  0  0  0  0  0  0  0  0  0  0  0
   43.9271   31.2421   47.2904 H   0  0  0  0  0  0  0  0  0  0  0  0
   44.8446   29.8021   46.9038 H   0  0  0  0  0  0  0  0  0  0  0  0
   44.4044   30.6466   49.5234 H   0  0  0  0  0  0  0  0  0  0  0  0
   45.8501   29.7411   49.1169 H   0  0  0  0  0  0  0  0  0  0  0  0
   45.7439   32.4491   50.0134 H   0  0  0  0  0  0  0  0  0  0  0  0
   47.1700   31.7043   49.3355 H   0  0  0  0  0  0  0  0  0  0  0  0
   46.5725   33.5334   47.6942 H   0  0  0  0  0  0  0  0  0  0  0  0
   44.3270   33.4668   48.7844 H   0  0  0  0  0  0  0  0  0  0  0  0
   50.2749   35.8394   42.3181 H   0  0  0  0  0  0  0  0  0  0  0  0
   48.7684   36.2189   40.3221 H   0  0  0  0  0  0  0  0  0  0  0  0
   46.8043   34.6247   40.0004 H   0  0  0  0  0  0  0  0  0  0  0  0
  2  1  1  0
  2  7  2  0
  3  2  1  0
  4  3  2  0
  4  5  1  0
  5  6  2  0
  6  7  1  0
  7  8  1  0
  8  9  1  0
  8 12  1  0
  9 10  1  0
 10 11  1  0
 12 11  1  0
 13 12  1  0
 14 19  2  0
 15 14  1  0
 16 15  2  0
 16 17  1  0
 17 18  2  0
 18 19  1  0
 18  3  1  0
  4 20  1  0
  5 21  1  0
  6 22  1  0
  9 23  1  0
  9 24  1  0
 10 25  1  0
 10 26  1  0
 11 27  1  0
 11 28  1  0
 12 29  1  6
 13 30  1  0
 14 31  1  0
 15 32  1  0
 16 33  1  0
M  ISO  8  20  14  21  14  22  14  23  13  24  13  25  13  26  13  27  13
M  ISO  6  28  13  29  13  30   3  31  14  32  14  33  14
M  END
>  <minimizedAffinity>  (1) 
-5.54505539

>  <minimizedRMSD>  (1) 
0.260486931

$$$$
