
     RDKit          3D

 34 36  0  0  1  0  0  0  0  0999 V2000
   46.5630   33.6370   44.9930 F   0  0  0  0  0  0  0  0  0  0  0  0
   47.1150   32.4190   44.8020 C   0  0  0  0  0  0  0  0  0  0  0  0
   47.9220   32.2310   43.7070 C   0  0  0  0  0  0  0  0  0  0  0  0
   48.4780   31.0000   43.5160 C   0  0  0  0  0  0  0  0  0  0  0  0
   48.2120   29.9850   44.4300 C   0  0  0  0  0  0  0  0  0  0  0  0
   47.4120   30.1640   45.5210 C   0  0  0  0  0  0  0  0  0  0  0  0
   46.8570   31.4250   45.6940 C   0  0  0  0  0  0  0  0  0  0  0  0
   46.0250   31.5770   46.8460 N   0  0  0  0  0  0  0  0  0  0  0  0
   44.9670   30.7350   47.3560 C   0  0  0  0  0  0  0  0  0  0  0  0
   45.3310   30.5860   48.8330 C   0  0  0  0  0  0  0  0  0  0  0  0
   46.1750   31.8080   49.1090 C   0  0  0  0  0  0  0  0  0  0  0  0
   45.9890   32.6250   47.8560 C   0  0  2  0  0  0  0  0  0  0  0  0
   44.7390   33.3110   47.7890 N   0  0  0  0  0  0  0  0  0  0  0  0
   49.4310   35.1960   42.1590 C   0  0  0  0  0  0  0  0  0  0  0  0
   48.6100   35.4100   41.0330 C   0  0  0  0  0  0  0  0  0  0  0  0
   47.5410   34.5140   40.8300 C   0  0  0  0  0  0  0  0  0  0  0  0
   47.3580   33.5000   41.7230 N   0  0  0  0  0  0  0  0  0  0  0  0
   48.1630   33.3330   42.7840 C   0  0  0  0  0  0  0  0  0  0  0  0
   49.1900   34.1810   42.9900 N   0  0  0  0  0  0  0  0  0  0  0  0
   49.1290   30.8119   42.6495 H   0  0  0  0  0  0  0  0  0  0  0  0
   48.6658   28.9965   44.2662 H   0  0  0  0  0  0  0  0  0  0  0  0
   47.2158   29.3468   46.2308 H   0  0  0  0  0  0  0  0  0  0  0  0
   43.9855   31.2171   47.2370 H   0  0  0  0  0  0  0  0  0  0  0  0
   44.8858   29.7726   46.8294 H   0  0  0  0  0  0  0  0  0  0  0  0
   44.4288   30.5801   49.4623 H   0  0  0  0  0  0  0  0  0  0  0  0
   45.8535   29.6436   49.0542 H   0  0  0  0  0  0  0  0  0  0  0  0
   45.8114   32.3502   49.9943 H   0  0  0  0  0  0  0  0  0  0  0  0
   47.2274   31.5732   49.3263 H   0  0  0  0  0  0  0  0  0  0  0  0
   46.7360   33.4271   47.7630 H   0  0  0  0  0  0  0  0  0  0  0  0
   44.3984   33.4979   48.7429 H   0  0  0  0  0  0  0  0  0  0  0  0
   44.8629   34.2023   47.2879 H   0  0  0  0  0  0  0  0  0  0  0  0
   50.2770   35.8715   42.3537 H   0  0  0  0  0  0  0  0  0  0  0  0
   48.7964   36.2436   40.3400 H   0  0  0  0  0  0  0  0  0  0  0  0
   46.8676   34.6305   39.9681 H   0  0  0  0  0  0  0  0  0  0  0  0
  2  1  1  0
  2  7  2  0
  3  2  1  0
  4  3  2  0
  4  5  1  0
  5  6  2  0
  6  7  1  0
  7  8  1  0
  8  9  1  0
  8 12  1  0
  9 10  1  0
 10 11  1  0
 12 11  1  0
 13 12  1  0
 14 19  2  0
 15 14  1  0
 16 15  2  0
 16 17  1  0
 17 18  2  0
 18 19  1  0
 18  3  1  0
  4 20  1  0
  5 21  1  0
  6 22  1  0
  9 23  1  0
  9 24  1  0
 10 25  1  0
 10 26  1  0
 11 27  1  0
 11 28  1  0
 12 29  1  6
 13 30  1  0
 13 31  1  0
 14 32  1  0
 15 33  1  0
 16 34  1  0
M  ISO  8  20  14  21  14  22  14  23  13  24  13  25  13  26  13  27  13
M  ISO  7  28  13  29  13  30   5  31   5  32  14  33  14  34  14
M  END
>  <minimizedAffinity>  (1) 
-5.62794924

>  <minimizedRMSD>  (1) 
0.286982447

$$$$
