
     RDKit          3D

 34 36  0  0  1  0  0  0  0  0999 V2000
   46.8830   33.5820   44.8670 F   0  0  0  0  0  0  0  0  0  0  0  0
   47.3730   32.3490   44.5480 C   0  0  0  0  0  0  0  0  0  0  0  0
   48.1120   32.2260   43.3980 C   0  0  0  0  0  0  0  0  0  0  0  0
   48.6010   30.9810   43.0860 C   0  0  0  0  0  0  0  0  0  0  0  0
   48.3310   29.9200   43.9320 C   0  0  0  0  0  0  0  0  0  0  0  0
   47.5970   30.0380   45.0750 C   0  0  0  0  0  0  0  0  0  0  0  0
   47.1040   31.3070   45.3860 C   0  0  0  0  0  0  0  0  0  0  0  0
   46.3440   31.3980   46.5810 N   0  0  0  0  0  0  0  0  0  0  0  0
   45.4200   30.4590   47.1770 C   0  0  0  0  0  0  0  0  0  0  0  0
   45.9080   30.4070   48.6320 C   0  0  0  0  0  0  0  0  0  0  0  0
   46.6350   31.7180   48.8150 C   0  0  0  0  0  0  0  0  0  0  0  0
   46.2640   32.4560   47.5670 C   0  0  2  0  0  0  0  0  0  0  0  0
   44.9710   33.1470   47.6150 C   0  0  0  0  0  0  0  0  0  0  0  0
   45.0350   33.9790   46.7240 O   0  0  0  0  0  0  0  0  0  0  0  0
   49.5370   35.3750   42.1620 C   0  0  0  0  0  0  0  0  0  0  0  0
   48.8160   35.5820   40.9540 C   0  0  0  0  0  0  0  0  0  0  0  0
   47.8500   34.6150   40.6030 C   0  0  0  0  0  0  0  0  0  0  0  0
   47.6650   33.5480   41.4340 N   0  0  0  0  0  0  0  0  0  0  0  0
   48.3570   33.3890   42.5520 C   0  0  0  0  0  0  0  0  0  0  0  0
   49.2800   34.2910   42.9100 N   0  0  0  0  0  0  0  0  0  0  0  0
   49.1994   30.8294   42.1755 H   0  0  0  0  0  0  0  0  0  0  0  0
   48.7295   28.9291   43.6686 H   0  0  0  0  0  0  0  0  0  0  0  0
   47.4017   29.1714   45.7238 H   0  0  0  0  0  0  0  0  0  0  0  0
   44.3843   30.8246   47.1160 H   0  0  0  0  0  0  0  0  0  0  0  0
   45.4041   29.4777   46.6802 H   0  0  0  0  0  0  0  0  0  0  0  0
   45.0593   30.3291   49.3275 H   0  0  0  0  0  0  0  0  0  0  0  0
   46.5462   29.5345   48.8358 H   0  0  0  0  0  0  0  0  0  0  0  0
   46.2834   32.2482   49.7124 H   0  0  0  0  0  0  0  0  0  0  0  0
   47.7199   31.6073   48.9590 H   0  0  0  0  0  0  0  0  0  0  0  0
   46.9218   33.3119   47.3556 H   0  0  0  0  0  0  0  0  0  0  0  0
   44.1317   32.9578   48.3004 H   0  0  0  0  0  0  0  0  0  0  0  0
   50.3009   36.0992   42.4814 H   0  0  0  0  0  0  0  0  0  0  0  0
   49.0036   36.4603   40.3189 H   0  0  0  0  0  0  0  0  0  0  0  0
   47.2595   34.7187   39.6807 H   0  0  0  0  0  0  0  0  0  0  0  0
  2  1  1  0
  2  7  2  0
  3  2  1  0
  4  3  2  0
  4  5  1  0
  5  6  2  0
  6  7  1  0
  7  8  1  0
  8  9  1  0
  8 12  1  0
  9 10  1  0
 10 11  1  0
 12 13  1  0
 12 11  1  0
 14 13  2  0
 15 20  2  0
 16 15  1  0
 17 16  2  0
 17 18  1  0
 18 19  2  0
 19 20  1  0
 19  3  1  0
  4 21  1  0
  5 22  1  0
  6 23  1  0
  9 24  1  0
  9 25  1  0
 10 26  1  0
 10 27  1  0
 11 28  1  0
 11 29  1  0
 12 30  1  6
 13 31  1  0
 15 32  1  0
 16 33  1  0
 17 34  1  0
M  ISO  8  21  14  22  14  23  14  24  13  25  13  26  13  27  13  28  13
M  ISO  6  29  13  30  13  31   6  32  14  33  14  34  14
M  END
>  <minimizedAffinity>  (1) 
-4.83963537

>  <minimizedRMSD>  (1) 
0.553376138

$$$$
