
     RDKit          3D

 38 40  0  0  1  0  0  0  0  0999 V2000
   46.9960   32.4710   44.2700 F   0  0  0  0  0  0  0  0  0  0  0  0
   47.8640   31.5120   43.8880 C   0  0  0  0  0  0  0  0  0  0  0  0
   48.7860   31.8050   42.9160 C   0  0  0  0  0  0  0  0  0  0  0  0
   49.6600   30.8320   42.5350 C   0  0  0  0  0  0  0  0  0  0  0  0
   49.5970   29.5890   43.1290 C   0  0  0  0  0  0  0  0  0  0  0  0
   48.6800   29.2750   44.1080 C   0  0  0  0  0  0  0  0  0  0  0  0
   47.7940   30.2850   44.4830 C   0  0  0  0  0  0  0  0  0  0  0  0
   46.8540   29.9420   45.4940 N   0  0  0  0  0  0  0  0  0  0  0  0
   45.7670   28.9840   45.4760 C   0  0  0  0  0  0  0  0  0  0  0  0
   45.9980   28.1770   46.7550 C   0  0  0  0  0  0  0  0  0  0  0  0
   46.7950   29.1200   47.6150 C   0  0  0  0  0  0  0  0  0  0  0  0
   46.6680   30.4180   46.8410 C   0  0  2  0  0  0  0  0  0  0  0  0
   45.4520   31.0380   47.0710 O   0  0  0  0  0  0  0  0  0  0  0  0
   44.7950   33.5940   47.4590 O   0  0  0  0  0  0  0  0  0  0  0  0
   45.7440   32.4940   47.8720 P   0  0  0  0  0  0  0  0  0  0  0  0
   47.3170   33.0800   47.5640 O   0  0  0  0  0  0  0  0  0  0  0  0
   45.6860   32.2450   49.5600 O   0  0  0  0  0  0  0  0  0  0  0  0
   49.6640   35.3190   42.2740 C   0  0  0  0  0  0  0  0  0  0  0  0
   48.8190   35.6570   41.1960 C   0  0  0  0  0  0  0  0  0  0  0  0
   47.9610   34.6530   40.7170 C   0  0  0  0  0  0  0  0  0  0  0  0
   47.9800   33.4250   41.2970 N   0  0  0  0  0  0  0  0  0  0  0  0
   48.8010   33.1460   42.3210 C   0  0  0  0  0  0  0  0  0  0  0  0
   49.6420   34.0870   42.8110 N   0  0  0  0  0  0  0  0  0  0  0  0
   50.4115   31.0366   41.7582 H   0  0  0  0  0  0  0  0  0  0  0  0
   50.3095   28.8151   42.8073 H   0  0  0  0  0  0  0  0  0  0  0  0
   48.6481   28.2776   44.5708 H   0  0  0  0  0  0  0  0  0  0  0  0
   44.7917   29.4922   45.5000 H   0  0  0  0  0  0  0  0  0  0  0  0
   45.7518   28.3627   44.5684 H   0  0  0  0  0  0  0  0  0  0  0  0
   45.0433   27.9162   47.2351 H   0  0  0  0  0  0  0  0  0  0  0  0
   46.5088   27.2195   46.5755 H   0  0  0  0  0  0  0  0  0  0  0  0
   46.3614   29.2089   48.6220 H   0  0  0  0  0  0  0  0  0  0  0  0
   47.8335   28.8005   47.7865 H   0  0  0  0  0  0  0  0  0  0  0  0
   47.3809   31.2087   47.1178 H   0  0  0  0  0  0  0  0  0  0  0  0
   47.7790   33.2521   48.4225 H   0  0  0  0  0  0  0  0  0  0  0  0
   45.8841   33.0957   50.0261 H   0  0  0  0  0  0  0  0  0  0  0  0
   50.3513   36.0752   42.6812 H   0  0  0  0  0  0  0  0  0  0  0  0
   48.8314   36.6625   40.7501 H   0  0  0  0  0  0  0  0  0  0  0  0
   47.2792   34.8598   39.8789 H   0  0  0  0  0  0  0  0  0  0  0  0
  2  1  1  0
  2  7  2  0
  3  2  1  0
  4  3  2  0
  4  5  1  0
  5  6  2  0
  6  7  1  0
  7  8  1  0
  8 12  1  0
  9  8  1  0
  9 10  1  0
 10 11  1  0
 12 13  1  0
 12 11  1  0
 13 15  1  0
 14 15  2  0
 15 17  1  0
 16 15  1  0
 18 23  2  0
 19 18  1  0
 20 19  2  0
 20 21  1  0
 21 22  2  0
 22 23  1  0
 22  3  1  0
  4 24  1  0
  5 25  1  0
  6 26  1  0
  9 27  1  0
  9 28  1  0
 10 29  1  0
 10 30  1  0
 11 31  1  0
 11 32  1  0
 12 33  1  1
 16 34  1  0
 17 35  1  0
 18 36  1  0
 19 37  1  0
 20 38  1  0
M  ISO  8  24  14  25  14  26  14  27  13  28  13  29  13  30  13  31  13
M  ISO  7  32  13  33  13  34   3  35   3  36  14  37  14  38  14
M  END
>  <minimizedAffinity>  (1) 
-5.43754864

>  <minimizedRMSD>  (1) 
2.20875406

$$$$
