
     RDKit          3D

 42 45  0  0  1  0  0  0  0  0999 V2000
   46.8140   33.4130   44.7270 F   0  0  0  0  0  0  0  0  0  0  0  0
   47.4270   32.2080   44.4850 C   0  0  0  0  0  0  0  0  0  0  0  0
   48.2430   32.1050   43.3890 C   0  0  0  0  0  0  0  0  0  0  0  0
   48.8490   30.8960   43.1570 C   0  0  0  0  0  0  0  0  0  0  0  0
   48.6250   29.8370   44.0190 C   0  0  0  0  0  0  0  0  0  0  0  0
   47.8120   29.9410   45.1100 C   0  0  0  0  0  0  0  0  0  0  0  0
   47.1960   31.1750   45.3430 C   0  0  0  0  0  0  0  0  0  0  0  0
   46.3590   31.2370   46.4900 N   0  0  0  0  0  0  0  0  0  0  0  0
   45.2650   30.4000   46.9170 C   0  0  0  0  0  0  0  0  0  0  0  0
   45.6230   30.0870   48.3670 C   0  0  0  0  0  0  0  0  0  0  0  0
   46.5290   31.2270   48.7700 C   0  0  0  0  0  0  0  0  0  0  0  0
   46.3540   32.1810   47.6030 C   0  0  2  0  0  0  0  0  0  0  0  0
   45.1490   33.0430   47.6770 C   0  0  0  0  0  0  0  0  0  0  0  0
   49.2060   35.4210   42.1680 C   0  0  0  0  0  0  0  0  0  0  0  0
   48.8180   35.3990   40.8260 C   0  0  0  0  0  0  0  0  0  0  0  0
   48.2280   34.2190   40.3860 C   0  0  0  0  0  0  0  0  0  0  0  0
   48.0690   33.1950   41.2520 N   0  0  0  0  0  0  0  0  0  0  0  0
   48.4460   33.2470   42.5130 C   0  0  0  0  0  0  0  0  0  0  0  0
   49.0230   34.3610   42.9990 N   0  0  0  0  0  0  0  0  0  0  0  0
   47.7700   34.0420   39.0120 C   0  0  0  0  0  0  0  0  0  0  0  0
   46.7180   33.2590   38.5800 C   0  0  0  0  0  0  0  0  0  0  0  0
   46.5810   33.3390   37.2100 C   0  0  0  0  0  0  0  0  0  0  0  0
   47.5770   34.1900   36.8250 N   0  0  0  0  0  0  0  0  0  0  0  0
   48.2640   34.5940   37.8860 N   0  0  0  0  0  0  0  0  0  0  0  0
   49.5112   30.7689   42.2879 H   0  0  0  0  0  0  0  0  0  0  0  0
   49.1206   28.8759   43.8173 H   0  0  0  0  0  0  0  0  0  0  0  0
   47.6471   29.0856   45.7817 H   0  0  0  0  0  0  0  0  0  0  0  0
   44.3071   30.9369   46.8527 H   0  0  0  0  0  0  0  0  0  0  0  0
   45.1375   29.5007   46.2966 H   0  0  0  0  0  0  0  0  0  0  0  0
   44.7212   30.0621   48.9964 H   0  0  0  0  0  0  0  0  0  0  0  0
   46.1006   29.1030   48.4838 H   0  0  0  0  0  0  0  0  0  0  0  0
   46.2024   31.6847   49.7154 H   0  0  0  0  0  0  0  0  0  0  0  0
   47.5718   30.9279   48.9517 H   0  0  0  0  0  0  0  0  0  0  0  0
   47.1301   32.9580   47.5400 H   0  0  0  0  0  0  0  0  0  0  0  0
   44.8932   33.2260   48.7311 H   0  0  0  0  0  0  0  0  0  0  0  0
   45.3527   34.0016   47.1774 H   0  0  0  0  0  0  0  0  0  0  0  0
   44.3076   32.5406   47.1774 H   0  0  0  0  0  0  0  0  0  0  0  0
   49.6776   36.3310   42.5674 H   0  0  0  0  0  0  0  0  0  0  0  0
   48.9696   36.2608   40.1594 H   0  0  0  0  0  0  0  0  0  0  0  0
   46.0770   32.6543   39.2383 H   0  0  0  0  0  0  0  0  0  0  0  0
   45.8397   32.8334   36.5737 H   0  0  0  0  0  0  0  0  0  0  0  0
   47.7671   34.4762   35.8540 H   0  0  0  0  0  0  0  0  0  0  0  0
  2  1  1  0
  2  7  2  0
  3  2  1  0
  4  3  2  0
  4  5  1  0
  5  6  2  0
  6  7  1  0
  7  8  1  0
  8  9  1  0
  8 12  1  0
  9 10  1  0
 10 11  1  0
 12 13  1  0
 12 11  1  0
 14 19  2  0
 15 14  1  0
 16 15  2  0
 16 17  1  0
 17 18  2  0
 18 19  1  0
 18  3  1  0
 20 16  1  0
 21 20  1  0
 22 21  2  0
 23 22  1  0
 23 24  1  0
 24 20  2  0
  4 25  1  0
  5 26  1  0
  6 27  1  0
  9 28  1  0
  9 29  1  0
 10 30  1  0
 10 31  1  0
 11 32  1  0
 11 33  1  0
 12 34  1  6
 13 35  1  0
 13 36  1  0
 13 37  1  0
 14 38  1  0
 15 39  1  0
 21 40  1  0
 22 41  1  0
 23 42  1  0
M  ISO  8  25  14  26  14  27  14  28  13  29  13  30  13  31  13  32  13
M  ISO  8  33  13  34  13  35   8  36   8  37   8  38  14  39  14  40  14
M  ISO  2  41  14  42   9
M  END
>  <minimizedAffinity>  (1) 
-5.9660306

>  <minimizedRMSD>  (1) 
0.940284789

$$$$
