
     RDKit          3D

 39 41  0  0  1  0  0  0  0  0999 V2000
   46.7020   33.3680   44.7970 F   0  0  0  0  0  0  0  0  0  0  0  0
   47.3460   32.1890   44.5950 C   0  0  0  0  0  0  0  0  0  0  0  0
   48.1580   32.0860   43.4940 C   0  0  0  0  0  0  0  0  0  0  0  0
   48.8080   30.8890   43.2950 C   0  0  0  0  0  0  0  0  0  0  0  0
   48.6280   29.8550   44.1870 C   0  0  0  0  0  0  0  0  0  0  0  0
   47.8190   29.9650   45.2820 C   0  0  0  0  0  0  0  0  0  0  0  0
   47.1590   31.1760   45.4850 C   0  0  0  0  0  0  0  0  0  0  0  0
   46.3240   31.2480   46.6400 N   0  0  0  0  0  0  0  0  0  0  0  0
   45.2460   30.4110   47.0700 C   0  0  0  0  0  0  0  0  0  0  0  0
   45.6250   30.1090   48.5350 C   0  0  0  0  0  0  0  0  0  0  0  0
   46.5090   31.2690   48.9140 C   0  0  0  0  0  0  0  0  0  0  0  0
   46.3220   32.2010   47.7320 C   0  0  2  0  0  0  0  0  0  0  0  0
   45.1040   33.0480   47.7960 C   0  0  0  0  0  0  0  0  0  0  0  0
   49.3000   35.2610   42.0730 C   0  0  0  0  0  0  0  0  0  0  0  0
   48.6230   35.3250   40.8410 C   0  0  0  0  0  0  0  0  0  0  0  0
   47.7840   34.2490   40.5460 C   0  0  0  0  0  0  0  0  0  0  0  0
   47.6690   33.2370   41.4290 N   0  0  0  0  0  0  0  0  0  0  0  0
   48.3180   33.2020   42.5790 C   0  0  0  0  0  0  0  0  0  0  0  0
   49.1250   34.2090   42.8920 N   0  0  0  0  0  0  0  0  0  0  0  0
   47.6790   33.4720   38.2560 C   0  0  0  0  0  0  0  0  0  0  0  0
   48.8370   33.0100   38.5350 O   0  0  0  0  0  0  0  0  0  0  0  0
   47.0340   34.1750   39.3350 N   0  0  0  0  0  0  0  0  0  0  0  0
   49.4695   30.7586   42.4258 H   0  0  0  0  0  0  0  0  0  0  0  0
   49.1552   28.9057   44.0110 H   0  0  0  0  0  0  0  0  0  0  0  0
   47.6924   29.1252   45.9811 H   0  0  0  0  0  0  0  0  0  0  0  0
   44.2831   30.9394   47.0089 H   0  0  0  0  0  0  0  0  0  0  0  0
   45.1177   29.5086   46.4542 H   0  0  0  0  0  0  0  0  0  0  0  0
   44.7299   30.0714   49.1733 H   0  0  0  0  0  0  0  0  0  0  0  0
   46.1197   29.1343   48.6581 H   0  0  0  0  0  0  0  0  0  0  0  0
   46.1743   31.7382   49.8509 H   0  0  0  0  0  0  0  0  0  0  0  0
   47.5565   30.9889   49.0989 H   0  0  0  0  0  0  0  0  0  0  0  0
   47.0946   32.9803   47.6554 H   0  0  0  0  0  0  0  0  0  0  0  0
   44.8399   33.2316   48.8479 H   0  0  0  0  0  0  0  0  0  0  0  0
   45.2977   34.0073   47.2937 H   0  0  0  0  0  0  0  0  0  0  0  0
   44.2721   32.5325   47.2937 H   0  0  0  0  0  0  0  0  0  0  0  0
   49.9766   36.0766   42.3679 H   0  0  0  0  0  0  0  0  0  0  0  0
   48.7475   36.1728   40.1512 H   0  0  0  0  0  0  0  0  0  0  0  0
   47.2111   33.3430   37.2689 H   0  0  0  0  0  0  0  0  0  0  0  0
   46.0981   34.5943   39.2390 H   0  0  0  0  0  0  0  0  0  0  0  0
  2  1  1  0
  2  7  2  0
  3  2  1  0
  4  3  2  0
  4  5  1  0
  5  6  2  0
  6  7  1  0
  7  8  1  0
  8  9  1  0
  8 12  1  0
  9 10  1  0
 10 11  1  0
 12 13  1  0
 12 11  1  0
 14 19  2  0
 15 14  1  0
 16 15  2  0
 16 17  1  0
 17 18  2  0
 18 19  1  0
 18  3  1  0
 20 21  2  0
 20 22  1  0
 22 16  1  0
  4 23  1  0
  5 24  1  0
  6 25  1  0
  9 26  1  0
  9 27  1  0
 10 28  1  0
 10 29  1  0
 11 30  1  0
 11 31  1  0
 12 32  1  6
 13 33  1  0
 13 34  1  0
 13 35  1  0
 14 36  1  0
 15 37  1  0
 20 38  1  0
 22 39  1  0
M  ISO  8  23  14  24  14  25  14  26  13  27  13  28  13  29  13  30  13
M  ISO  8  31  13  32  13  33   8  34   8  35   8  36  14  37  14  38   6
M  END
>  <minimizedAffinity>  (1) 
-5.28155756

>  <minimizedRMSD>  (1) 
0.531042635

$$$$
