
     RDKit          3D

 29 30  0  0  1  0  0  0  0  0999 V2000
   47.3120   32.7450   47.6000 O   0  0  0  0  0  0  0  0  0  0  0  0
   45.8630   32.5890   47.1680 P   0  0  1  0  0  0  0  0  0  0  0  0
   44.8840   33.7640   47.8860 O   0  0  0  0  0  0  0  0  0  0  0  0
   45.8250   32.7020   45.4910 O   0  0  0  0  0  0  0  0  0  0  0  0
   44.6170   35.9490   44.6370 C   0  0  0  0  0  0  0  0  0  0  0  0
   45.1800   36.2040   43.3750 C   0  0  0  0  0  0  0  0  0  0  0  0
   46.0030   35.1940   42.8290 C   0  0  0  0  0  0  0  0  0  0  0  0
   46.1960   34.0640   43.5400 N   0  0  0  0  0  0  0  0  0  0  0  0
   45.6400   33.8540   44.7440 C   0  0  0  0  0  0  0  0  0  0  0  0
   44.8570   34.7870   45.2900 N   0  0  0  0  0  0  0  0  0  0  0  0
   45.3490   31.0830   47.7360 O   0  0  0  0  0  0  0  0  0  0  0  0
   44.6290   28.9690   46.8980 C   0  0  2  0  0  0  0  0  0  0  0  0
   45.6940   30.0200   46.9490 C   0  0  2  0  0  0  0  0  0  0  0  0
   46.8780   29.4040   47.3020 O   0  0  0  0  0  0  0  0  0  0  0  0
   46.7730   28.0580   47.0930 C   0  0  0  0  0  0  0  0  0  0  0  0
   45.4280   27.7460   46.4950 C   0  0  2  0  0  0  0  0  0  0  0  0
   43.6630   29.2850   45.9480 O   0  0  0  0  0  0  0  0  0  0  0  0
   45.4700   27.6740   45.0970 O   0  0  0  0  0  0  0  0  0  0  0  0
   44.9467   33.6888   48.8711 H   0  0  0  0  0  0  0  0  0  0  0  0
   43.9698   36.7067   45.1028 H   0  0  0  0  0  0  0  0  0  0  0  0
   44.9890   37.1449   42.8381 H   0  0  0  0  0  0  0  0  0  0  0  0
   46.4764   35.3262   41.8449 H   0  0  0  0  0  0  0  0  0  0  0  0
   44.0702   28.8436   47.8372 H   0  0  0  0  0  0  0  0  0  0  0  0
   45.8258   30.4802   45.9586 H   0  0  0  0  0  0  0  0  0  0  0  0
   47.5654   27.7312   46.4036 H   0  0  0  0  0  0  0  0  0  0  0  0
   46.8794   27.5290   48.0516 H   0  0  0  0  0  0  0  0  0  0  0  0
   45.0292   26.7777   46.8317 H   0  0  0  0  0  0  0  0  0  0  0  0
   42.8281   29.5581   46.4046 H   0  0  0  0  0  0  0  0  0  0  0  0
   45.9494   26.8522   44.8231 H   0  0  0  0  0  0  0  0  0  0  0  0
  2  1  2  0
  2 11  1  0
  2  3  1  0
  4  2  1  0
  5 10  2  0
  6  5  1  0
  7  6  2  0
  7  8  1  0
  8  9  2  0
  9 10  1  0
  9  4  1  0
 12 17  1  0
 12 13  1  0
 13 14  1  0
 13 11  1  0
 15 14  1  0
 16 18  1  0
 16 12  1  0
 16 15  1  0
  3 19  1  0
  5 20  1  0
  6 21  1  0
  7 22  1  0
 12 23  1  1
 13 24  1  6
 15 25  1  0
 15 26  1  0
 16 27  1  1
 17 28  1  0
 18 29  1  0
M  ISO  8  19   3  20  14  21  14  22  14  23  13  24  13  25  13  26  13
M  ISO  3  27  13  28   3  29   3
M  END
>  <minimizedAffinity>  (1) 
-4.95394182

>  <minimizedRMSD>  (1) 
1.94705045

$$$$
