
     RDKit          3D

 47 51  0  0  1  0  0  0  0  0999 V2000
   46.9360   33.9900   42.5940 C   0  0  2  0  0  0  0  0  0  0  0  0
   48.3770   34.3070   42.7840 C   0  0  0  0  0  0  0  0  0  0  0  0
   48.8790   35.3350   41.8350 C   0  0  0  0  0  0  0  0  0  0  0  0
   48.6240   34.9730   40.3920 C   0  0  0  0  0  0  0  0  0  0  0  0
   47.2690   34.3660   40.1520 C   0  0  0  0  0  0  0  0  0  0  0  0
   46.3430   34.5350   41.3280 C   0  0  1  0  0  0  0  0  0  0  0  0
   46.1030   34.4190   43.7370 C   0  0  0  0  0  0  0  0  0  0  0  0
   45.4050   35.6100   43.5280 C   0  0  0  0  0  0  0  0  0  0  0  0
   44.5760   36.1190   44.5400 C   0  0  0  0  0  0  0  0  0  0  0  0
   44.5170   35.3700   45.7070 N   0  0  0  0  0  0  0  0  0  0  0  0
   45.2050   34.2290   45.8680 C   0  0  0  0  0  0  0  0  0  0  0  0
   45.9950   33.7600   44.8790 N   0  0  0  0  0  0  0  0  0  0  0  0
   45.1040   33.7370   41.0270 C   0  0  2  0  0  0  0  0  0  0  0  0
   44.8400   33.3250   39.5950 C   0  0  0  0  0  0  0  0  0  0  0  0
   43.9600   34.2990   40.2840 C   0  0  1  0  0  0  0  0  0  0  0  0
   41.6700   34.6740   41.1850 C   0  0  0  0  0  0  0  0  0  0  0  0
   42.5790   33.8220   40.5570 C   0  0  0  0  0  0  0  0  0  0  0  0
   42.1900   32.5480   40.1960 C   0  0  0  0  0  0  0  0  0  0  0  0
   40.8830   32.1190   40.4630 C   0  0  0  0  0  0  0  0  0  0  0  0
   40.2480   30.9440   40.2220 N   0  0  0  0  0  0  0  0  0  0  0  0
   38.9850   31.0960   40.6960 C   0  0  0  0  0  0  0  0  0  0  0  0
   38.8110   32.3430   41.2330 C   0  0  0  0  0  0  0  0  0  0  0  0
   40.0190   32.9980   41.0860 C   0  0  0  0  0  0  0  0  0  0  0  0
   40.3600   34.2830   41.4680 C   0  0  0  0  0  0  0  0  0  0  0  0
   46.9236   32.8925   42.5214 H   0  0  0  0  0  0  0  0  0  0  0  0
   48.5215   34.6774   43.8096 H   0  0  0  0  0  0  0  0  0  0  0  0
   48.9433   33.3830   42.5956 H   0  0  0  0  0  0  0  0  0  0  0  0
   48.3764   36.2891   42.0521 H   0  0  0  0  0  0  0  0  0  0  0  0
   49.9682   35.4074   41.9708 H   0  0  0  0  0  0  0  0  0  0  0  0
   48.7081   35.8863   39.7846 H   0  0  0  0  0  0  0  0  0  0  0  0
   49.3703   34.2143   40.1139 H   0  0  0  0  0  0  0  0  0  0  0  0
   46.8162   34.8505   39.2744 H   0  0  0  0  0  0  0  0  0  0  0  0
   47.4106   33.2871   39.9913 H   0  0  0  0  0  0  0  0  0  0  0  0
   46.1445   35.6070   41.4741 H   0  0  0  0  0  0  0  0  0  0  0  0
   45.5044   36.1477   42.5735 H   0  0  0  0  0  0  0  0  0  0  0  0
   44.0086   37.0531   44.4159 H   0  0  0  0  0  0  0  0  0  0  0  0
   45.1245   33.6718   46.8130 H   0  0  0  0  0  0  0  0  0  0  0  0
   45.2025   33.2381   42.0024 H   0  0  0  0  0  0  0  0  0  0  0  0
   44.4740   32.3124   39.3696 H   0  0  0  0  0  0  0  0  0  0  0  0
   45.4219   33.3182   38.6615 H   0  0  0  0  0  0  0  0  0  0  0  0
   43.6253   35.3331   40.1147 H   0  0  0  0  0  0  0  0  0  0  0  0
   41.9959   35.6863   41.4662 H   0  0  0  0  0  0  0  0  0  0  0  0
   42.9029   31.8723   39.7008 H   0  0  0  0  0  0  0  0  0  0  0  0
   40.6440   30.1069   39.7710 H   0  0  0  0  0  0  0  0  0  0  0  0
   38.2057   30.3208   40.6541 H   0  0  0  0  0  0  0  0  0  0  0  0
   37.8939   32.7433   41.6898 H   0  0  0  0  0  0  0  0  0  0  0  0
   39.6438   34.9548   41.9638 H   0  0  0  0  0  0  0  0  0  0  0  0
  1  2  1  0
  1  7  1  0
  3  2  1  0
  4  3  1  0
  5  4  1  0
  5  6  1  0
  6  1  1  0
  7 12  1  0
  8  7  2  0
  8  9  1  0
  9 10  2  0
 10 11  1  0
 12 11  2  0
 13  6  1  0
 14 15  1  0
 14 13  1  0
 15 17  1  0
 15 13  1  0
 16 24  2  0
 17 16  1  0
 18 19  1  0
 18 17  2  0
 19 23  2  0
 20 19  1  0
 20 21  1  0
 21 22  2  0
 23 22  1  0
 23 24  1  0
  1 25  1  6
  2 26  1  0
  2 27  1  0
  3 28  1  0
  3 29  1  0
  4 30  1  0
  4 31  1  0
  5 32  1  0
  5 33  1  0
  6 34  1  1
  8 35  1  0
  9 36  1  0
 11 37  1  0
 13 38  1  1
 14 39  1  0
 14 40  1  0
 15 41  1  6
 16 42  1  0
 18 43  1  0
 20 44  1  0
 21 45  1  0
 22 46  1  0
 24 47  1  0
M  ISO  8  25  13  26  13  27  13  28  13  29  13  30  13  31  13  32  13
M  ISO  8  33  13  34  13  35  14  36  14  37  14  38  13  39  13  40  13
M  ISO  7  41  13  42  14  43  14  44   9  45  14  46  14  47  14
M  END
>  <minimizedAffinity>  (1) 
-6.92479563

>  <minimizedRMSD>  (1) 
1.92250884

$$$$
