
     RDKit          3D

 36 37  0  0  1  0  0  0  0  0999 V2000
   45.3520   30.8400   46.8850 O   0  0  0  0  0  0  0  0  0  0  0  0
   45.0730   30.1150   48.0340 C   0  0  0  0  0  0  0  0  0  0  0  0
   46.4460   28.2560   47.0970 C   0  0  2  0  0  0  0  0  0  0  0  0
   45.1040   28.6510   47.6710 C   0  0  1  0  0  0  0  0  0  0  0  0
   44.6950   27.8280   48.6910 O   0  0  0  0  0  0  0  0  0  0  0  0
   44.4840   26.5450   48.2310 C   0  0  0  0  0  0  0  0  0  0  0  0
   45.8180   26.0080   47.7530 C   0  0  1  0  0  0  0  0  0  0  0  0
   46.2280   26.8400   46.5640 C   0  0  2  0  0  0  0  0  0  0  0  0
   47.4060   28.2350   48.1290 O   0  0  0  0  0  0  0  0  0  0  0  0
   46.7320   26.2180   48.7990 O   0  0  0  0  0  0  0  0  0  0  0  0
   47.3230   26.3430   45.8910 O   0  0  0  0  0  0  0  0  0  0  0  0
   46.9650   32.1060   48.4360 O   0  0  0  0  0  0  0  0  0  0  0  0
   45.9370   32.3430   47.3350 P   0  0  2  0  0  0  0  0  0  0  0  0
   44.6410   33.2660   47.9050 O   0  0  0  0  0  0  0  0  0  0  0  0
   46.7190   33.1260   46.0590 O   0  0  0  0  0  0  0  0  0  0  0  0
   44.4980   35.5870   44.7750 C   0  0  0  0  0  0  0  0  0  0  0  0
   44.8880   35.7560   43.4190 C   0  0  0  0  0  0  0  0  0  0  0  0
   45.9670   34.9590   42.9970 C   0  0  0  0  0  0  0  0  0  0  0  0
   46.5550   34.1000   43.8810 N   0  0  0  0  0  0  0  0  0  0  0  0
   46.1300   33.9950   45.1490 C   0  0  0  0  0  0  0  0  0  0  0  0
   45.1050   34.7340   45.6000 N   0  0  0  0  0  0  0  0  0  0  0  0
   45.8301   30.3264   48.8035 H   0  0  0  0  0  0  0  0  0  0  0  0
   44.0867   30.3920   48.4345 H   0  0  0  0  0  0  0  0  0  0  0  0
   46.8015   28.9486   46.3199 H   0  0  0  0  0  0  0  0  0  0  0  0
   44.3562   28.5068   46.8773 H   0  0  0  0  0  0  0  0  0  0  0  0
   44.0943   25.9140   49.0434 H   0  0  0  0  0  0  0  0  0  0  0  0
   43.7493   26.5426   47.4123 H   0  0  0  0  0  0  0  0  0  0  0  0
   45.7755   24.9435   47.4792 H   0  0  0  0  0  0  0  0  0  0  0  0
   45.4405   26.8235   45.7961 H   0  0  0  0  0  0  0  0  0  0  0  0
   46.9476   28.2450   49.0064 H   0  0  0  0  0  0  0  0  0  0  0  0
   46.2694   26.1117   49.6678 H   0  0  0  0  0  0  0  0  0  0  0  0
   48.0003   26.0356   46.5443 H   0  0  0  0  0  0  0  0  0  0  0  0
   44.6444   33.2636   48.8950 H   0  0  0  0  0  0  0  0  0  0  0  0
   43.6594   36.1857   45.1602 H   0  0  0  0  0  0  0  0  0  0  0  0
   44.3805   36.4621   42.7454 H   0  0  0  0  0  0  0  0  0  0  0  0
   46.3347   35.0270   41.9625 H   0  0  0  0  0  0  0  0  0  0  0  0
  1 13  1  0
  1  2  1  0
  3  4  1  0
  3  9  1  0
  4  2  1  0
  4  5  1  0
  6  5  1  0
  7  6  1  0
  7 10  1  0
  8 11  1  0
  8  3  1  0
  8  7  1  0
 13 14  1  0
 13 12  2  0
 15 13  1  0
 16 21  2  0
 17 16  1  0
 18 17  2  0
 18 19  1  0
 19 20  2  0
 20 21  1  0
 20 15  1  0
  2 22  1  0
  2 23  1  0
  3 24  1  6
  4 25  1  6
  6 26  1  0
  6 27  1  0
  7 28  1  6
  8 29  1  6
  9 30  1  0
 10 31  1  0
 11 32  1  0
 14 33  1  0
 16 34  1  0
 17 35  1  0
 18 36  1  0
M  ISO  8  22   8  23   8  24  13  25  13  26  13  27  13  28  13  29  13
M  ISO  7  30   3  31   3  32   3  33   3  34  14  35  14  36  14
M  END
>  <minimizedAffinity>  (1) 
-5.19825029

>  <minimizedRMSD>  (1) 
0.831191182

$$$$
