
     RDKit          3D

 20 20  0  0  0  0  0  0  0  0999 V2000
   45.8350   32.7050   45.5370 O   0  0  0  0  0  0  0  0  0  0  0  0
   44.6110   35.9300   44.6680 C   0  0  0  0  0  0  0  0  0  0  0  0
   45.1810   36.2020   43.4020 C   0  0  0  0  0  0  0  0  0  0  0  0
   46.0180   35.1890   42.8740 C   0  0  0  0  0  0  0  0  0  0  0  0
   46.2120   34.0480   43.6040 N   0  0  0  0  0  0  0  0  0  0  0  0
   45.6430   33.8570   44.7930 C   0  0  0  0  0  0  0  0  0  0  0  0
   44.8440   34.7910   45.3270 N   0  0  0  0  0  0  0  0  0  0  0  0
   47.2770   32.7060   47.6900 O   0  0  0  0  0  0  0  0  0  0  0  0
   45.8320   32.5980   47.2180 P   0  0  1  0  0  0  0  0  0  0  0  0
   44.8510   33.7870   47.9140 O   0  0  0  0  0  0  0  0  0  0  0  0
   45.2490   31.1020   47.7640 O   0  0  0  0  0  0  0  0  0  0  0  0
   45.6900   30.9100   49.0410 C   0  0  0  0  0  0  0  0  0  0  0  0
   45.4300   31.9460   49.9060 O   0  0  0  0  0  0  0  0  0  0  0  0
   43.9527   36.6828   45.1261 H   0  0  0  0  0  0  0  0  0  0  0  0
   44.9864   37.1405   42.8622 H   0  0  0  0  0  0  0  0  0  0  0  0
   46.5032   35.3170   41.8951 H   0  0  0  0  0  0  0  0  0  0  0  0
   44.9040   33.7227   48.9005 H   0  0  0  0  0  0  0  0  0  0  0  0
   45.2061   30.0049   49.4369 H   0  0  0  0  0  0  0  0  0  0  0  0
   46.7852   30.8276   48.9795 H   0  0  0  0  0  0  0  0  0  0  0  0
   45.5106   31.6250   50.8390 H   0  0  0  0  0  0  0  0  0  0  0  0
  1  9  1  0
  2  7  2  0
  3  2  1  0
  4  3  2  0
  4  5  1  0
  5  6  2  0
  6  7  1  0
  6  1  1  0
  9  8  2  0
  9 11  1  0
  9 10  1  0
 11 12  1  0
 12 13  1  0
  2 14  1  0
  3 15  1  0
  4 16  1  0
 10 17  1  0
 12 18  1  0
 12 19  1  0
 13 20  1  0
M  ISO  7  14  14  15  14  16  14  17   3  18   8  19   8  20   3
M  END
>  <minimizedAffinity>  (1) 
-4.78427601

>  <minimizedRMSD>  (1) 
0.785991609

$$$$
