
     RDKit          3D

 43 46  0  0  1  0  0  0  0  0999 V2000
   46.7790   33.9360   42.6040 C   0  0  2  0  0  0  0  0  0  0  0  0
   48.2300   34.2160   42.7500 C   0  0  0  0  0  0  0  0  0  0  0  0
   48.7490   35.2020   41.7720 C   0  0  0  0  0  0  0  0  0  0  0  0
   48.4540   34.7930   40.3390 C   0  0  0  0  0  0  0  0  0  0  0  0
   47.0560   34.2680   40.1420 C   0  0  0  0  0  0  0  0  0  0  0  0
   46.1790   34.4730   41.3370 C   0  0  1  0  0  0  0  0  0  0  0  0
   45.9900   34.4230   43.7530 C   0  0  0  0  0  0  0  0  0  0  0  0
   45.3720   35.6580   43.5500 C   0  0  0  0  0  0  0  0  0  0  0  0
   44.5870   36.2290   44.5650 C   0  0  0  0  0  0  0  0  0  0  0  0
   44.4870   35.4850   45.7340 N   0  0  0  0  0  0  0  0  0  0  0  0
   45.0960   34.3010   45.8910 C   0  0  0  0  0  0  0  0  0  0  0  0
   45.8490   33.7720   44.8960 N   0  0  0  0  0  0  0  0  0  0  0  0
   44.9000   33.6790   41.0950 C   0  0  2  0  0  0  0  0  0  0  0  0
   44.4280   33.5540   39.6600 C   0  0  0  0  0  0  0  0  0  0  0  0
   43.6550   34.3140   40.6670 C   0  0  1  0  0  0  0  0  0  0  0  0
   41.1340   35.7480   40.8780 F   0  0  0  0  0  0  0  0  0  0  0  0
   41.1530   34.4390   41.1470 C   0  0  0  0  0  0  0  0  0  0  0  0
   42.3430   33.7480   41.0640 C   0  0  0  0  0  0  0  0  0  0  0  0
   42.1960   32.3990   41.3920 C   0  0  0  0  0  0  0  0  0  0  0  0
   41.0110   31.8000   41.7590 C   0  0  0  0  0  0  0  0  0  0  0  0
   39.8650   32.5620   41.8170 C   0  0  0  0  0  0  0  0  0  0  0  0
   39.9490   33.8860   41.5070 C   0  0  0  0  0  0  0  0  0  0  0  0
   46.7250   32.8381   42.5632 H   0  0  0  0  0  0  0  0  0  0  0  0
   48.4081   34.6054   43.7632 H   0  0  0  0  0  0  0  0  0  0  0  0
   48.7598   33.2701   42.5642 H   0  0  0  0  0  0  0  0  0  0  0  0
   48.2783   36.1769   41.9670 H   0  0  0  0  0  0  0  0  0  0  0  0
   49.8412   35.2560   41.8915 H   0  0  0  0  0  0  0  0  0  0  0  0
   48.5913   35.6709   39.6906 H   0  0  0  0  0  0  0  0  0  0  0  0
   49.1460   33.9764   40.0856 H   0  0  0  0  0  0  0  0  0  0  0  0
   46.6048   34.7868   39.2833 H   0  0  0  0  0  0  0  0  0  0  0  0
   47.1332   33.1837   39.9735 H   0  0  0  0  0  0  0  0  0  0  0  0
   46.0224   35.5551   41.4578 H   0  0  0  0  0  0  0  0  0  0  0  0
   45.5001   36.1851   42.5931 H   0  0  0  0  0  0  0  0  0  0  0  0
   44.0850   37.2001   44.4426 H   0  0  0  0  0  0  0  0  0  0  0  0
   44.9833   33.7528   46.8380 H   0  0  0  0  0  0  0  0  0  0  0  0
   45.1501   33.0060   41.9284 H   0  0  0  0  0  0  0  0  0  0  0  0
   44.0512   32.5921   39.2821 H   0  0  0  0  0  0  0  0  0  0  0  0
   44.8552   33.7688   38.6694 H   0  0  0  0  0  0  0  0  0  0  0  0
   43.2763   35.3426   40.7599 H   0  0  0  0  0  0  0  0  0  0  0  0
   43.0949   31.7661   41.3545 H   0  0  0  0  0  0  0  0  0  0  0  0
   40.9804   30.7277   42.0024 H   0  0  0  0  0  0  0  0  0  0  0  0
   38.9041   32.1119   42.1069 H   0  0  0  0  0  0  0  0  0  0  0  0
   39.0475   34.5152   41.5453 H   0  0  0  0  0  0  0  0  0  0  0  0
  1  2  1  0
  1  7  1  0
  3  2  1  0
  4  3  1  0
  5  4  1  0
  5  6  1  0
  6  1  1  0
  7 12  1  0
  8  7  2  0
  8  9  1  0
  9 10  2  0
 10 11  1  0
 12 11  2  0
 13  6  1  0
 14 15  1  0
 14 13  1  0
 15 18  1  0
 15 13  1  0
 16 17  1  0
 17 22  2  0
 18 17  1  0
 18 19  2  0
 19 20  1  0
 20 21  2  0
 22 21  1  0
  1 23  1  6
  2 24  1  0
  2 25  1  0
  3 26  1  0
  3 27  1  0
  4 28  1  0
  4 29  1  0
  5 30  1  0
  5 31  1  0
  6 32  1  1
  8 33  1  0
  9 34  1  0
 11 35  1  0
 13 36  1  1
 14 37  1  0
 14 38  1  0
 15 39  1  6
 19 40  1  0
 20 41  1  0
 21 42  1  0
 22 43  1  0
M  ISO  8  23  13  24  13  25  13  26  13  27  13  28  13  29  13  30  13
M  ISO  8  31  13  32  13  33  14  34  14  35  14  36  13  37  13  38  13
M  ISO  5  39  13  40  14  41  14  42  14  43  14
M  END
>  <minimizedAffinity>  (1) 
-6.55900526

>  <minimizedRMSD>  (1) 
1.93084621

$$$$
