
     RDKit          3D

 33 34  0  0  0  0  0  0  0  0999 V2000
   47.2490   32.7000   47.6660 O   0  0  0  0  0  0  0  0  0  0  0  0
   45.8010   32.6000   47.1970 P   0  0  1  0  0  0  0  0  0  0  0  0
   44.8570   33.8180   47.8940 O   0  0  0  0  0  0  0  0  0  0  0  0
   45.7800   32.7190   45.5150 O   0  0  0  0  0  0  0  0  0  0  0  0
   44.6170   35.9500   44.6480 C   0  0  0  0  0  0  0  0  0  0  0  0
   45.1890   36.2140   43.3700 C   0  0  0  0  0  0  0  0  0  0  0  0
   46.0070   35.1780   42.8400 C   0  0  0  0  0  0  0  0  0  0  0  0
   46.1810   34.0340   43.5790 N   0  0  0  0  0  0  0  0  0  0  0  0
   45.6070   33.8670   44.7730 C   0  0  0  0  0  0  0  0  0  0  0  0
   44.8360   34.8130   45.2970 N   0  0  0  0  0  0  0  0  0  0  0  0
   45.1950   31.1260   47.7440 O   0  0  0  0  0  0  0  0  0  0  0  0
   46.1900   30.1910   47.6610 C   0  0  0  0  0  0  0  0  0  0  0  0
   46.2610   29.4860   46.4110 N   0  0  0  0  0  0  0  0  0  0  0  0
   47.3050   28.4880   46.4780 C   0  0  0  0  0  0  0  0  0  0  0  0
   46.9920   27.3630   47.4200 C   0  0  0  0  0  0  0  0  0  0  0  0
   45.6990   26.7660   47.1690 N   0  0  0  0  0  0  0  0  0  0  0  0
   44.6440   27.7120   46.9900 C   0  0  0  0  0  0  0  0  0  0  0  0
   45.0480   28.8090   46.0480 C   0  0  0  0  0  0  0  0  0  0  0  0
   44.9084   33.7516   48.8804 H   0  0  0  0  0  0  0  0  0  0  0  0
   43.9736   36.7125   45.1114 H   0  0  0  0  0  0  0  0  0  0  0  0
   45.0101   37.1553   42.8297 H   0  0  0  0  0  0  0  0  0  0  0  0
   46.4902   35.2910   41.8583 H   0  0  0  0  0  0  0  0  0  0  0  0
   47.1514   30.7015   47.8194 H   0  0  0  0  0  0  0  0  0  0  0  0
   45.9643   29.4345   48.4270 H   0  0  0  0  0  0  0  0  0  0  0  0
   47.4529   28.0695   45.4715 H   0  0  0  0  0  0  0  0  0  0  0  0
   48.2090   28.9875   46.8566 H   0  0  0  0  0  0  0  0  0  0  0  0
   47.7645   26.5876   47.3105 H   0  0  0  0  0  0  0  0  0  0  0  0
   46.9731   27.7788   48.4382 H   0  0  0  0  0  0  0  0  0  0  0  0
   45.7676   26.1929   46.3159 H   0  0  0  0  0  0  0  0  0  0  0  0
   43.7642   27.1941   46.5804 H   0  0  0  0  0  0  0  0  0  0  0  0
   44.4118   28.1615   47.9667 H   0  0  0  0  0  0  0  0  0  0  0  0
   44.2365   29.5509   46.0156 H   0  0  0  0  0  0  0  0  0  0  0  0
   45.2335   28.3335   45.0736 H   0  0  0  0  0  0  0  0  0  0  0  0
  2  1  2  0
  2 11  1  0
  2  3  1  0
  4  2  1  0
  5 10  2  0
  6  5  1  0
  7  6  2  0
  7  8  1  0
  8  9  2  0
  9 10  1  0
  9  4  1  0
 12 11  1  0
 13 14  1  0
 13 12  1  0
 14 15  1  0
 16 15  1  0
 17 16  1  0
 18 13  1  0
 18 17  1  0
  3 19  1  0
  5 20  1  0
  6 21  1  0
  7 22  1  0
 12 23  1  0
 12 24  1  0
 14 25  1  0
 14 26  1  0
 15 27  1  0
 15 28  1  0
 16 29  1  0
 17 30  1  0
 17 31  1  0
 18 32  1  0
 18 33  1  0
M  ISO  8  19   3  20  14  21  14  22  14  23   8  24   8  25  13  26  13
M  ISO  7  27  13  28  13  29   5  30  13  31  13  32  13  33  13
M  END
>  <minimizedAffinity>  (1) 
-4.49333096

>  <minimizedRMSD>  (1) 
2.11555696

$$$$
