
     RDKit          3D

 23 24  0  0  0  0  0  0  0  0999 V2000
   46.6200   34.7530   42.0970 C   0  0  0  0  0  0  0  0  0  0  0  0
   47.8710   35.3330   41.9580 C   0  0  0  0  0  0  0  0  0  0  0  0
   48.6530   35.1810   40.8220 C   0  0  0  0  0  0  0  0  0  0  0  0
   48.1650   34.4120   39.7700 C   0  0  0  0  0  0  0  0  0  0  0  0
   46.9290   33.8430   39.9170 C   0  0  0  0  0  0  0  0  0  0  0  0
   46.1520   34.0000   41.0550 C   0  0  0  0  0  0  0  0  0  0  0  0
   44.4090   36.1690   44.7890 C   0  0  0  0  0  0  0  0  0  0  0  0
   45.0630   36.0600   43.5440 C   0  0  0  0  0  0  0  0  0  0  0  0
   45.8940   34.9790   43.3250 C   0  0  0  0  0  0  0  0  0  0  0  0
   46.0390   34.0750   44.3190 N   0  0  0  0  0  0  0  0  0  0  0  0
   45.3950   34.2070   45.5060 C   0  0  0  0  0  0  0  0  0  0  0  0
   44.5840   35.2540   45.7310 N   0  0  0  0  0  0  0  0  0  0  0  0
   45.5630   33.2390   46.5450 N   0  0  0  0  0  0  0  0  0  0  0  0
   44.5440   33.2390   41.2010 S   0  0  0  0  0  0  0  0  0  0  0  0
   48.2620   35.9419   42.7865 H   0  0  0  0  0  0  0  0  0  0  0  0
   49.6410   35.6598   40.7542 H   0  0  0  0  0  0  0  0  0  0  0  0
   48.7526   34.2664   38.8516 H   0  0  0  0  0  0  0  0  0  0  0  0
   46.5328   33.2317   39.0928 H   0  0  0  0  0  0  0  0  0  0  0  0
   43.7450   37.0249   44.9803 H   0  0  0  0  0  0  0  0  0  0  0  0
   44.9141   36.8206   42.7634 H   0  0  0  0  0  0  0  0  0  0  0  0
   45.0672   33.3534   47.4405 H   0  0  0  0  0  0  0  0  0  0  0  0
   46.1799   32.4274   46.3979 H   0  0  0  0  0  0  0  0  0  0  0  0
   44.2281   33.0895   42.5257 H   0  0  0  0  0  0  0  0  0  0  0  0
  1  9  1  0
  2  1  2  0
  3  2  1  0
  4  5  1  0
  4  3  2  0
  5  6  2  0
  6 14  1  0
  6  1  1  0
  7 12  2  0
  8  7  1  0
  9  8  2  0
  9 10  1  0
 10 11  2  0
 11 12  1  0
 11 13  1  0
  2 15  1  0
  3 16  1  0
  4 17  1  0
  5 18  1  0
  7 19  1  0
  8 20  1  0
 13 21  1  0
 13 22  1  0
 14 23  1  0
M  ISO  7  15  14  16  14  17  14  18  14  19  14  20  14  23  11
M  END
>  <minimizedAffinity>  (1) 
-5.52894115

>  <minimizedRMSD>  (1) 
0.0168130361

$$$$
