
     RDKit          3D

 24 25  0  0  0  0  0  0  0  0999 V2000
   46.6360   34.7890   42.1030 C   0  0  0  0  0  0  0  0  0  0  0  0
   47.8950   35.3140   41.9920 C   0  0  0  0  0  0  0  0  0  0  0  0
   48.6890   35.1590   40.8520 C   0  0  0  0  0  0  0  0  0  0  0  0
   48.1790   34.4400   39.7760 C   0  0  0  0  0  0  0  0  0  0  0  0
   46.9190   33.9220   39.8990 C   0  0  0  0  0  0  0  0  0  0  0  0
   46.1590   34.0850   41.0270 C   0  0  0  0  0  0  0  0  0  0  0  0
   44.4030   36.1860   44.7890 C   0  0  0  0  0  0  0  0  0  0  0  0
   45.0680   36.0850   43.5430 C   0  0  0  0  0  0  0  0  0  0  0  0
   45.9040   35.0080   43.3220 C   0  0  0  0  0  0  0  0  0  0  0  0
   46.0500   34.0880   44.3160 N   0  0  0  0  0  0  0  0  0  0  0  0
   45.3940   34.2210   45.4960 C   0  0  0  0  0  0  0  0  0  0  0  0
   44.5770   35.2630   45.7310 N   0  0  0  0  0  0  0  0  0  0  0  0
   45.5600   33.2430   46.5330 N   0  0  0  0  0  0  0  0  0  0  0  0
   44.8220   33.5130   41.1090 C   0  0  0  0  0  0  0  0  0  0  0  0
   43.8440   34.0980   40.5730 O   0  0  0  0  0  0  0  0  0  0  0  0
   48.3013   35.8849   42.8399 H   0  0  0  0  0  0  0  0  0  0  0  0
   49.6971   35.5969   40.8067 H   0  0  0  0  0  0  0  0  0  0  0  0
   48.7681   34.2932   38.8587 H   0  0  0  0  0  0  0  0  0  0  0  0
   46.4988   33.3512   39.0578 H   0  0  0  0  0  0  0  0  0  0  0  0
   43.7343   37.0382   44.9804 H   0  0  0  0  0  0  0  0  0  0  0  0
   44.9216   36.8497   42.7659 H   0  0  0  0  0  0  0  0  0  0  0  0
   45.0591   33.3498   47.4266 H   0  0  0  0  0  0  0  0  0  0  0  0
   46.1801   32.4342   46.3837 H   0  0  0  0  0  0  0  0  0  0  0  0
   44.6655   32.5639   41.6426 H   0  0  0  0  0  0  0  0  0  0  0  0
  1  9  1  0
  2  1  2  0
  3  2  1  0
  4  5  1  0
  4  3  2  0
  5  6  2  0
  6 14  1  0
  6  1  1  0
  7 12  2  0
  8  7  1  0
  9  8  2  0
  9 10  1  0
 10 11  2  0
 11 12  1  0
 11 13  1  0
 15 14  2  0
  2 16  1  0
  3 17  1  0
  4 18  1  0
  5 19  1  0
  7 20  1  0
  8 21  1  0
 13 22  1  0
 13 23  1  0
 14 24  1  0
M  ISO  7  16  14  17  14  18  14  19  14  20  14  21  14  24   6
M  END
>  <minimizedAffinity>  (1) 
-5.46769094

>  <minimizedRMSD>  (1) 
0.0940415934

$$$$
