
     RDKit          3D

 14 14  0  0  0  0  0  0  0  0999 V2000
   45.0530   35.2820   44.0920 C   0  0  0  0  0  0  0  0  0  0  0  0
   46.0620   35.0000   43.1540 C   0  0  0  0  0  0  0  0  0  0  0  0
   46.9630   34.0010   43.4880 C   0  0  0  0  0  0  0  0  0  0  0  0
   46.8360   33.3560   44.6750 N   0  0  0  0  0  0  0  0  0  0  0  0
   45.8600   33.6550   45.5410 C   0  0  0  0  0  0  0  0  0  0  0  0
   44.9670   34.6150   45.2570 N   0  0  0  0  0  0  0  0  0  0  0  0
   45.9010   32.8320   46.7800 C   0  0  0  0  0  0  0  0  0  0  0  0
   44.9670   33.2480   47.6990 F   0  0  0  0  0  0  0  0  0  0  0  0
   47.1580   32.8990   47.3640 F   0  0  0  0  0  0  0  0  0  0  0  0
   45.7270   31.4860   46.4500 F   0  0  0  0  0  0  0  0  0  0  0  0
   44.0470   36.2470   43.9530 O   0  0  0  0  0  0  0  0  0  0  0  0
   46.1328   35.5457   42.2015 H   0  0  0  0  0  0  0  0  0  0  0  0
   47.7749   33.7331   42.7959 H   0  0  0  0  0  0  0  0  0  0  0  0
   44.0050   36.8041   43.1357 H   0  0  0  0  0  0  0  0  0  0  0  0
  1  6  2  0
  2  3  2  0
  2  1  1  0
  3  4  1  0
  4  5  2  0
  5  7  1  0
  6  5  1  0
  7  9  1  0
  7  8  1  0
 10  7  1  0
 11  1  1  0
  2 12  1  0
  3 13  1  0
 11 14  1  0
M  ISO  3  12  14  13  14  14   3
M  END
>  <minimizedAffinity>  (1) 
-4.1905427

>  <minimizedRMSD>  (1) 
0.820345461

$$$$
