
     RDKit          3D

 19 19  0  0  0  0  0  0  0  0999 V2000
   46.0950   34.8240   43.1100 C   0  0  0  0  0  0  0  0  0  0  0  0
   45.1880   35.8780   43.3210 C   0  0  0  0  0  0  0  0  0  0  0  0
   44.5640   35.9340   44.5590 C   0  0  0  0  0  0  0  0  0  0  0  0
   44.8430   34.9900   45.4990 N   0  0  0  0  0  0  0  0  0  0  0  0
   45.7250   33.9920   45.2490 C   0  0  0  0  0  0  0  0  0  0  0  0
   46.3420   33.9190   44.0600 N   0  0  0  0  0  0  0  0  0  0  0  0
   45.9080   33.0560   46.3850 C   0  0  0  0  0  0  0  0  0  0  0  0
   47.1510   33.1260   46.9340 F   0  0  0  0  0  0  0  0  0  0  0  0
   45.6520   31.7460   45.9640 F   0  0  0  0  0  0  0  0  0  0  0  0
   44.9200   33.3080   47.3480 F   0  0  0  0  0  0  0  0  0  0  0  0
   46.7650   34.7650   41.7830 C   0  0  0  0  0  0  0  0  0  0  0  0
   48.1860   35.2820   41.9960 C   0  0  0  0  0  0  0  0  0  0  0  0
   44.9825   36.6245   42.5396 H   0  0  0  0  0  0  0  0  0  0  0  0
   43.8467   36.7381   44.7799 H   0  0  0  0  0  0  0  0  0  0  0  0
   46.2332   35.4003   41.0594 H   0  0  0  0  0  0  0  0  0  0  0  0
   46.7685   33.7405   41.3825 H   0  0  0  0  0  0  0  0  0  0  0  0
   48.3913   35.3567   43.0741 H   0  0  0  0  0  0  0  0  0  0  0  0
   48.9023   34.5869   41.5337 H   0  0  0  0  0  0  0  0  0  0  0  0
   48.2881   36.2749   41.5337 H   0  0  0  0  0  0  0  0  0  0  0  0
  1  2  2  0
  1  6  1  0
  2  3  1  0
  3  4  2  0
  5  4  1  0
  5  7  1  0
  6  5  2  0
  7  8  1  0
  7 10  1  0
  9  7  1  0
 11 12  1  0
 11  1  1  0
  2 13  1  0
  3 14  1  0
 11 15  1  0
 11 16  1  0
 12 17  1  0
 12 18  1  0
 12 19  1  0
M  ISO  7  13  14  14  14  15   8  16   8  17   8  18   8  19   8
M  END
>  <minimizedAffinity>  (1) 
-4.4613452

>  <minimizedRMSD>  (1) 
2.97937751

$$$$
