
     RDKit          3D

 15 15  0  0  0  0  0  0  0  0999 V2000
   45.3630   34.5330   44.8470 C   0  0  0  0  0  0  0  0  0  0  0  0
   46.1920   34.0510   43.8200 C   0  0  0  0  0  0  0  0  0  0  0  0
   47.0590   33.0040   44.1430 C   0  0  0  0  0  0  0  0  0  0  0  0
   47.0560   32.5160   45.4040 N   0  0  0  0  0  0  0  0  0  0  0  0
   46.2430   33.0090   46.3630 C   0  0  0  0  0  0  0  0  0  0  0  0
   45.4050   34.0130   46.0710 N   0  0  0  0  0  0  0  0  0  0  0  0
   46.3980   32.3350   47.6780 C   0  0  0  0  0  0  0  0  0  0  0  0
   45.4630   32.7560   48.5880 F   0  0  0  0  0  0  0  0  0  0  0  0
   47.6670   32.6170   48.2050 F   0  0  0  0  0  0  0  0  0  0  0  0
   46.3800   30.9640   47.5150 F   0  0  0  0  0  0  0  0  0  0  0  0
   44.4530   35.6250   44.5200 C   0  0  0  0  0  0  0  0  0  0  0  0
   44.8620   36.7930   44.2740 O   0  0  0  0  0  0  0  0  0  0  0  0
   46.1599   34.4788   42.8071 H   0  0  0  0  0  0  0  0  0  0  0  0
   47.7337   32.5831   43.3830 H   0  0  0  0  0  0  0  0  0  0  0  0
   43.3722   35.4232   44.4867 H   0  0  0  0  0  0  0  0  0  0  0  0
  1  6  2  0
  2  3  2  0
  2  1  1  0
  3  4  1  0
  4  5  2  0
  5  7  1  0
  6  5  1  0
  7  9  1  0
  7  8  1  0
 10  7  1  0
 11  1  1  0
 12 11  2  0
  2 13  1  0
  3 14  1  0
 11 15  1  0
M  ISO  3  13  14  14  14  15   6
M  END
>  <minimizedAffinity>  (1) 
-3.91653562

>  <minimizedRMSD>  (1) 
1.72836781

$$$$
