
     RDKit          3D

 29 31  0  0  1  0  0  0  0  0999 V2000
   44.6620   34.3400   43.8730 C   0  0  1  0  0  0  0  0  0  0  0  0
   45.1740   35.7960   43.9250 C   0  0  0  0  0  0  0  0  0  0  0  0
   45.0020   35.0500   42.6520 C   0  0  1  0  0  0  0  0  0  0  0  0
   45.5290   33.3510   44.5410 C   0  0  0  0  0  0  0  0  0  0  0  0
   46.1880   32.4310   43.7180 C   0  0  0  0  0  0  0  0  0  0  0  0
   47.0310   31.4910   44.3190 C   0  0  0  0  0  0  0  0  0  0  0  0
   47.1600   31.5290   45.6700 N   0  0  0  0  0  0  0  0  0  0  0  0
   46.5010   32.4380   46.4300 C   0  0  0  0  0  0  0  0  0  0  0  0
   45.6830   33.3500   45.8520 N   0  0  0  0  0  0  0  0  0  0  0  0
   46.7770   32.3110   47.8980 C   0  0  0  0  0  0  0  0  0  0  0  0
   45.7760   32.8580   48.6580 F   0  0  0  0  0  0  0  0  0  0  0  0
   47.9800   32.9400   48.2110 F   0  0  0  0  0  0  0  0  0  0  0  0
   46.9810   30.9700   48.2010 F   0  0  0  0  0  0  0  0  0  0  0  0
   46.2370   34.9120   41.8650 C   0  0  0  0  0  0  0  0  0  0  0  0
   47.4970   35.4380   42.1840 C   0  0  0  0  0  0  0  0  0  0  0  0
   48.6020   35.2530   41.3810 C   0  0  0  0  0  0  0  0  0  0  0  0
   48.5090   34.5310   40.2160 C   0  0  0  0  0  0  0  0  0  0  0  0
   47.2720   34.0200   39.9110 C   0  0  0  0  0  0  0  0  0  0  0  0
   46.2150   34.2080   40.6950 N   0  0  0  0  0  0  0  0  0  0  0  0
   43.7726   33.7531   44.1459 H   0  0  0  0  0  0  0  0  0  0  0  0
   44.4912   36.6180   44.1860 H   0  0  0  0  0  0  0  0  0  0  0  0
   45.9937   36.3315   44.4264 H   0  0  0  0  0  0  0  0  0  0  0  0
   44.4230   35.1145   41.7190 H   0  0  0  0  0  0  0  0  0  0  0  0
   46.0467   32.4468   42.6272 H   0  0  0  0  0  0  0  0  0  0  0  0
   47.5716   30.7456   43.7172 H   0  0  0  0  0  0  0  0  0  0  0  0
   47.6079   36.0205   43.1105 H   0  0  0  0  0  0  0  0  0  0  0  0
   49.5683   35.6880   41.6761 H   0  0  0  0  0  0  0  0  0  0  0  0
   49.3792   34.3709   39.5625 H   0  0  0  0  0  0  0  0  0  0  0  0
   47.1513   33.4354   38.9870 H   0  0  0  0  0  0  0  0  0  0  0  0
  1  2  1  0
  1  4  1  0
  3  1  1  0
  3  2  1  0
  4  9  2  0
  5  6  2  0
  5  4  1  0
  6  7  1  0
  7  8  2  0
  8 10  1  0
  9  8  1  0
 10 13  1  0
 10 12  1  0
 10 11  1  0
 14 15  2  0
 14  3  1  0
 16 15  1  0
 17 16  2  0
 18 17  1  0
 18 19  2  0
 19 14  1  0
  1 20  1  6
  2 21  1  0
  2 22  1  0
  3 23  1  6
  5 24  1  0
  6 25  1  0
 15 26  1  0
 16 27  1  0
 17 28  1  0
 18 29  1  0
M  ISO  8  20  13  21  13  22  13  23  13  24  14  25  14  26  14  27  14
M  ISO  2  28  14  29  14
M  END
>  <minimizedAffinity>  (1) 
-5.17666149

>  <minimizedRMSD>  (1) 
1.34034026

$$$$
