
     RDKit          3D

 35 37  0  0  1  0  0  0  0  0999 V2000
   44.3520   34.8940   43.2340 C   0  0  1  0  0  0  0  0  0  0  0  0
   44.9030   36.2590   42.7580 C   0  0  0  0  0  0  0  0  0  0  0  0
   44.3960   35.2060   41.8070 C   0  0  2  0  0  0  0  0  0  0  0  0
   45.3790   34.0340   43.8860 C   0  0  0  0  0  0  0  0  0  0  0  0
   46.4830   33.5720   43.1190 C   0  0  0  0  0  0  0  0  0  0  0  0
   47.4300   32.7830   43.7530 C   0  0  0  0  0  0  0  0  0  0  0  0
   47.2540   32.4940   45.0690 N   0  0  0  0  0  0  0  0  0  0  0  0
   46.1850   32.9550   45.7660 C   0  0  0  0  0  0  0  0  0  0  0  0
   45.2470   33.7280   45.1630 N   0  0  0  0  0  0  0  0  0  0  0  0
   46.1820   32.5280   47.2050 C   0  0  0  0  0  0  0  0  0  0  0  0
   45.1770   33.1370   47.9160 F   0  0  0  0  0  0  0  0  0  0  0  0
   47.4030   32.8630   47.7920 F   0  0  0  0  0  0  0  0  0  0  0  0
   46.1020   31.1400   47.2600 F   0  0  0  0  0  0  0  0  0  0  0  0
   43.1850   35.5630   41.1290 N   0  0  0  0  0  0  0  0  0  0  0  0
   42.0200   35.6110   41.9550 C   0  0  0  0  0  0  0  0  0  0  0  0
   40.7960   35.7070   41.0630 C   0  0  0  0  0  0  0  0  0  0  0  0
   40.6320   34.5340   40.1480 C   0  0  0  0  0  0  0  0  0  0  0  0
   41.9660   33.8750   39.9460 C   0  0  0  0  0  0  0  0  0  0  0  0
   43.0190   34.9500   39.8500 C   0  0  0  0  0  0  0  0  0  0  0  0
   43.5436   34.5043   43.8702 H   0  0  0  0  0  0  0  0  0  0  0  0
   44.3283   37.1817   42.9263 H   0  0  0  0  0  0  0  0  0  0  0  0
   45.8350   36.8284   42.8888 H   0  0  0  0  0  0  0  0  0  0  0  0
   44.8033   34.6507   40.9492 H   0  0  0  0  0  0  0  0  0  0  0  0
   46.5827   33.8326   42.0550 H   0  0  0  0  0  0  0  0  0  0  0  0
   48.3029   32.4001   43.2040 H   0  0  0  0  0  0  0  0  0  0  0  0
   41.9618   34.6986   42.5667 H   0  0  0  0  0  0  0  0  0  0  0  0
   42.0682   36.4849   42.6213 H   0  0  0  0  0  0  0  0  0  0  0  0
   39.9037   35.7776   41.7023 H   0  0  0  0  0  0  0  0  0  0  0  0
   40.9258   36.5967   40.4293 H   0  0  0  0  0  0  0  0  0  0  0  0
   39.9300   33.8144   40.5946 H   0  0  0  0  0  0  0  0  0  0  0  0
   40.2371   34.8735   39.1791 H   0  0  0  0  0  0  0  0  0  0  0  0
   42.1865   33.2141   40.7973 H   0  0  0  0  0  0  0  0  0  0  0  0
   41.9547   33.2741   39.0247 H   0  0  0  0  0  0  0  0  0  0  0  0
   43.9720   34.5035   39.5300 H   0  0  0  0  0  0  0  0  0  0  0  0
   42.7068   35.7074   39.1159 H   0  0  0  0  0  0  0  0  0  0  0  0
  1  4  1  0
  2  1  1  0
  3  2  1  0
  3  1  1  0
  4  9  2  0
  5  6  2  0
  5  4  1  0
  6  7  1  0
  7  8  2  0
  8 10  1  0
  9  8  1  0
 10 13  1  0
 10 12  1  0
 10 11  1  0
 14  3  1  0
 14 15  1  0
 16 15  1  0
 17 16  1  0
 18 17  1  0
 19 18  1  0
 19 14  1  0
  1 20  1  1
  2 21  1  0
  2 22  1  0
  3 23  1  6
  5 24  1  0
  6 25  1  0
 15 26  1  0
 15 27  1  0
 16 28  1  0
 16 29  1  0
 17 30  1  0
 17 31  1  0
 18 32  1  0
 18 33  1  0
 19 34  1  0
 19 35  1  0
M  ISO  8  20  13  21  13  22  13  23  13  24  14  25  14  26  13  27  13
M  ISO  8  28  13  29  13  30  13  31  13  32  13  33  13  34  13  35  13
M  END
>  <minimizedAffinity>  (1) 
-4.88200569

>  <minimizedRMSD>  (1) 
1.70808804

$$$$
