
     RDKit          3D

 29 31  0  0  1  0  0  0  0  0999 V2000
   44.3600   34.3940   42.8060 C   0  0  1  0  0  0  0  0  0  0  0  0
   44.6600   35.9070   42.5860 C   0  0  0  0  0  0  0  0  0  0  0  0
   44.5510   34.9050   41.4640 C   0  0  2  0  0  0  0  0  0  0  0  0
   45.4290   33.6910   43.5560 C   0  0  0  0  0  0  0  0  0  0  0  0
   46.5950   33.2880   42.8570 C   0  0  0  0  0  0  0  0  0  0  0  0
   47.6010   32.6370   43.5630 C   0  0  0  0  0  0  0  0  0  0  0  0
   47.4100   32.4210   44.8880 N   0  0  0  0  0  0  0  0  0  0  0  0
   46.2920   32.8160   45.5210 C   0  0  0  0  0  0  0  0  0  0  0  0
   45.3200   33.4470   44.8360 N   0  0  0  0  0  0  0  0  0  0  0  0
   46.2730   32.4910   46.9850 C   0  0  0  0  0  0  0  0  0  0  0  0
   45.2490   33.1340   47.6450 F   0  0  0  0  0  0  0  0  0  0  0  0
   47.4750   32.9360   47.5710 F   0  0  0  0  0  0  0  0  0  0  0  0
   46.2620   31.1210   47.1460 F   0  0  0  0  0  0  0  0  0  0  0  0
   43.3010   34.9230   40.6270 C   0  0  0  0  0  0  0  0  0  0  0  0
   43.2150   34.1910   39.4550 C   0  0  0  0  0  0  0  0  0  0  0  0
   42.0840   34.1790   38.6670 C   0  0  0  0  0  0  0  0  0  0  0  0
   41.0280   34.9200   39.0750 N   0  0  0  0  0  0  0  0  0  0  0  0
   41.1040   35.6400   40.2220 C   0  0  0  0  0  0  0  0  0  0  0  0
   42.2170   35.6450   40.9870 N   0  0  0  0  0  0  0  0  0  0  0  0
   40.0960   36.4380   40.7490 O   0  0  0  0  0  0  0  0  0  0  0  0
   43.5723   33.7535   43.2295 H   0  0  0  0  0  0  0  0  0  0  0  0
   43.8748   36.6617   42.7408 H   0  0  0  0  0  0  0  0  0  0  0  0
   45.4078   36.6324   42.9390 H   0  0  0  0  0  0  0  0  0  0  0  0
   45.2208   34.6616   40.6261 H   0  0  0  0  0  0  0  0  0  0  0  0
   46.7015   33.4859   41.7802 H   0  0  0  0  0  0  0  0  0  0  0  0
   48.5232   32.3075   43.0620 H   0  0  0  0  0  0  0  0  0  0  0  0
   44.0842   33.5950   39.1399 H   0  0  0  0  0  0  0  0  0  0  0  0
   42.0415   33.5883   37.7400 H   0  0  0  0  0  0  0  0  0  0  0  0
   40.2447   36.9283   41.5961 H   0  0  0  0  0  0  0  0  0  0  0  0
  1  4  1  0
  2  1  1  0
  3  2  1  0
  3  1  1  0
  4  9  1  0
  5  4  2  0
  5  6  1  0
  6  7  2  0
  7  8  1  0
  8 10  1  0
  9  8  2  0
 10 13  1  0
 10 12  1  0
 10 11  1  0
 14 19  1  0
 14  3  1  0
 15 14  2  0
 16 17  2  0
 16 15  1  0
 17 18  1  0
 18 20  1  0
 18 19  2  0
  1 21  1  6
  2 22  1  0
  2 23  1  0
  3 24  1  6
  5 25  1  0
  6 26  1  0
 15 27  1  0
 16 28  1  0
 20 29  1  0
M  ISO  8  21  13  22  13  23  13  24  13  25  14  26  14  27  14  28  14
M  ISO  1  29   3
M  END
>  <minimizedAffinity>  (1) 
-5.15714598

>  <minimizedRMSD>  (1) 
0.683452368

$$$$
