
     RDKit          3D

 31 33  0  0  1  0  0  0  0  0999 V2000
   48.1190   33.8740   42.0220 C   0  0  1  0  0  0  0  0  0  0  0  0
   48.3020   35.4110   41.8580 C   0  0  0  0  0  0  0  0  0  0  0  0
   46.9570   34.7330   41.9200 C   0  0  2  0  0  0  0  0  0  0  0  0
   48.6350   33.0970   40.8660 C   0  0  0  0  0  0  0  0  0  0  0  0
   47.8040   32.9310   39.7280 C   0  0  0  0  0  0  0  0  0  0  0  0
   48.2920   32.2080   38.6460 C   0  0  0  0  0  0  0  0  0  0  0  0
   49.5530   31.6960   38.7390 N   0  0  0  0  0  0  0  0  0  0  0  0
   50.3170   31.8750   39.8420 C   0  0  0  0  0  0  0  0  0  0  0  0
   49.8350   32.5770   40.8860 N   0  0  0  0  0  0  0  0  0  0  0  0
   51.6650   31.2360   39.7350 C   0  0  0  0  0  0  0  0  0  0  0  0
   52.4310   31.4800   40.8520 F   0  0  0  0  0  0  0  0  0  0  0  0
   52.3540   31.7900   38.6380 F   0  0  0  0  0  0  0  0  0  0  0  0
   51.5150   29.8950   39.4510 F   0  0  0  0  0  0  0  0  0  0  0  0
   46.1630   34.8550   43.1920 C   0  0  0  0  0  0  0  0  0  0  0  0
   45.2530   35.8710   43.3910 C   0  0  0  0  0  0  0  0  0  0  0  0
   44.5100   36.0100   44.5300 C   0  0  0  0  0  0  0  0  0  0  0  0
   44.6890   35.0900   45.5090 N   0  0  0  0  0  0  0  0  0  0  0  0
   45.5790   34.0830   45.3310 C   0  0  0  0  0  0  0  0  0  0  0  0
   46.3050   33.9630   44.1970 N   0  0  0  0  0  0  0  0  0  0  0  0
   45.8570   33.0150   46.3410 C   0  0  0  0  0  0  0  0  0  0  0  0
   45.6680   31.7570   45.8380 F   0  0  0  0  0  0  0  0  0  0  0  0
   44.9820   33.1380   47.4260 F   0  0  0  0  0  0  0  0  0  0  0  0
   47.1210   33.1960   46.8730 F   0  0  0  0  0  0  0  0  0  0  0  0
   48.3724   33.0793   42.7391 H   0  0  0  0  0  0  0  0  0  0  0  0
   48.6731   35.8327   40.9123 H   0  0  0  0  0  0  0  0  0  0  0  0
   48.8159   36.2164   42.4031 H   0  0  0  0  0  0  0  0  0  0  0  0
   46.0777   34.7798   41.2607 H   0  0  0  0  0  0  0  0  0  0  0  0
   46.7939   33.3658   39.7026 H   0  0  0  0  0  0  0  0  0  0  0  0
   47.6814   32.0537   37.7441 H   0  0  0  0  0  0  0  0  0  0  0  0
   45.1171   36.6111   42.5887 H   0  0  0  0  0  0  0  0  0  0  0  0
   43.7942   36.8369   44.6475 H   0  0  0  0  0  0  0  0  0  0  0  0
  2  3  1  0
  2  1  1  0
  3  1  1  0
  3 14  1  0
  4  9  1  0
  4  1  1  0
  5  4  2  0
  6  7  2  0
  6  5  1  0
  7  8  1  0
  8  9  2  0
 10  8  1  0
 10 11  1  0
 12 10  1  0
 13 10  1  0
 14 15  2  0
 14 19  1  0
 15 16  1  0
 16 17  2  0
 18 17  1  0
 18 20  1  0
 19 18  2  0
 20 23  1  0
 20 22  1  0
 21 20  1  0
  1 24  1  1
  2 25  1  0
  2 26  1  0
  3 27  1  6
  5 28  1  0
  6 29  1  0
 15 30  1  0
 16 31  1  0
M  ISO  8  24  13  25  13  26  13  27  13  28  14  29  14  30  14  31  14
M  END
>  <minimizedAffinity>  (1) 
-5.78035021

>  <minimizedRMSD>  (1) 
6.89671135

$$$$
