
     RDKit          3D

 31 33  0  0  1  0  0  0  0  0999 V2000
   44.4770   34.3250   42.8750 C   0  0  1  0  0  0  0  0  0  0  0  0
   44.8150   35.8250   42.6260 C   0  0  0  0  0  0  0  0  0  0  0  0
   44.7230   34.8120   41.5330 C   0  0  2  0  0  0  0  0  0  0  0  0
   45.5160   33.6140   43.6660 C   0  0  0  0  0  0  0  0  0  0  0  0
   46.6930   33.1680   43.0120 C   0  0  0  0  0  0  0  0  0  0  0  0
   47.6620   32.5100   43.7570 C   0  0  0  0  0  0  0  0  0  0  0  0
   47.4300   32.3270   45.0800 N   0  0  0  0  0  0  0  0  0  0  0  0
   46.3010   32.7630   45.6710 C   0  0  0  0  0  0  0  0  0  0  0  0
   45.3540   33.4050   44.9470 N   0  0  0  0  0  0  0  0  0  0  0  0
   46.2320   32.4700   47.1440 C   0  0  0  0  0  0  0  0  0  0  0  0
   45.2160   33.1570   47.7610 F   0  0  0  0  0  0  0  0  0  0  0  0
   47.4350   32.8840   47.7490 F   0  0  0  0  0  0  0  0  0  0  0  0
   46.1710   31.1050   47.3280 F   0  0  0  0  0  0  0  0  0  0  0  0
   43.5100   34.8180   40.6430 C   0  0  0  0  0  0  0  0  0  0  0  0
   43.4530   34.0980   39.4690 C   0  0  0  0  0  0  0  0  0  0  0  0
   42.3570   34.0770   38.6440 C   0  0  0  0  0  0  0  0  0  0  0  0
   41.2850   34.8100   39.0180 N   0  0  0  0  0  0  0  0  0  0  0  0
   41.3200   35.5260   40.1700 C   0  0  0  0  0  0  0  0  0  0  0  0
   42.4080   35.5320   40.9680 N   0  0  0  0  0  0  0  0  0  0  0  0
   40.1500   36.3420   40.6070 C   0  0  0  0  0  0  0  0  0  0  0  0
   43.6644   33.7105   43.2898 H   0  0  0  0  0  0  0  0  0  0  0  0
   44.0410   36.5985   42.7379 H   0  0  0  0  0  0  0  0  0  0  0  0
   45.5666   36.5430   42.9860 H   0  0  0  0  0  0  0  0  0  0  0  0
   45.4181   34.5488   40.7221 H   0  0  0  0  0  0  0  0  0  0  0  0
   46.8352   33.3403   41.9349 H   0  0  0  0  0  0  0  0  0  0  0  0
   48.5892   32.1484   43.2884 H   0  0  0  0  0  0  0  0  0  0  0  0
   44.3345   33.5080   39.1776 H   0  0  0  0  0  0  0  0  0  0  0  0
   42.3511   33.4873   37.7155 H   0  0  0  0  0  0  0  0  0  0  0  0
   40.1116   36.3688   41.7060 H   0  0  0  0  0  0  0  0  0  0  0  0
   40.2516   37.3661   40.2186 H   0  0  0  0  0  0  0  0  0  0  0  0
   39.2241   35.8928   40.2186 H   0  0  0  0  0  0  0  0  0  0  0  0
  1  4  1  0
  2  1  1  0
  3  2  1  0
  3  1  1  0
  4  9  1  0
  5  4  2  0
  5  6  1  0
  6  7  2  0
  7  8  1  0
  8 10  1  0
  9  8  2  0
 10 13  1  0
 10 12  1  0
 10 11  1  0
 14 19  1  0
 14  3  1  0
 15 14  2  0
 16 17  2  0
 16 15  1  0
 17 18  1  0
 18 20  1  0
 18 19  2  0
  1 21  1  6
  2 22  1  0
  2 23  1  0
  3 24  1  6
  5 25  1  0
  6 26  1  0
 15 27  1  0
 16 28  1  0
 20 29  1  0
 20 30  1  0
 20 31  1  0
M  ISO  8  21  13  22  13  23  13  24  13  25  14  26  14  27  14  28  14
M  ISO  3  29   8  30   8  31   8
M  END
>  <minimizedAffinity>  (1) 
-5.23363924

>  <minimizedRMSD>  (1) 
0.759034514

$$$$
