
     RDKit          3D

 34 36  0  0  1  0  0  0  0  0999 V2000
   43.9550   34.6590   42.3920 C   0  0  1  0  0  0  0  0  0  0  0  0
   44.1680   36.1200   41.8960 C   0  0  0  0  0  0  0  0  0  0  0  0
   43.9960   34.9400   40.9700 C   0  0  2  0  0  0  0  0  0  0  0  0
   45.1140   34.1180   43.1400 C   0  0  0  0  0  0  0  0  0  0  0  0
   46.3650   34.0420   42.4820 C   0  0  0  0  0  0  0  0  0  0  0  0
   47.4540   33.5430   43.1870 C   0  0  0  0  0  0  0  0  0  0  0  0
   47.2600   33.1540   44.4720 N   0  0  0  0  0  0  0  0  0  0  0  0
   46.0570   33.2400   45.0670 C   0  0  0  0  0  0  0  0  0  0  0  0
   45.0040   33.7230   44.3820 N   0  0  0  0  0  0  0  0  0  0  0  0
   46.0510   32.7640   46.4880 C   0  0  0  0  0  0  0  0  0  0  0  0
   45.0820   33.3930   47.2370 F   0  0  0  0  0  0  0  0  0  0  0  0
   47.2910   33.0760   47.0810 F   0  0  0  0  0  0  0  0  0  0  0  0
   45.9550   31.3890   46.5110 F   0  0  0  0  0  0  0  0  0  0  0  0
   42.6720   34.7880   40.2740 C   0  0  0  0  0  0  0  0  0  0  0  0
   42.5000   35.2120   38.9680 C   0  0  0  0  0  0  0  0  0  0  0  0
   41.3030   35.0830   38.2950 C   0  0  0  0  0  0  0  0  0  0  0  0
   40.2680   34.5160   38.9570 N   0  0  0  0  0  0  0  0  0  0  0  0
   40.4290   34.0980   40.2370 C   0  0  0  0  0  0  0  0  0  0  0  0
   41.6020   34.2270   40.8910 N   0  0  0  0  0  0  0  0  0  0  0  0
   39.3220   33.4690   41.0050 C   0  0  0  0  0  0  0  0  0  0  0  0
   38.4030   32.7070   40.0930 C   0  0  0  0  0  0  0  0  0  0  0  0
   43.2387   34.0792   42.9926 H   0  0  0  0  0  0  0  0  0  0  0  0
   43.3696   36.8692   42.0022 H   0  0  0  0  0  0  0  0  0  0  0  0
   44.9143   36.9137   42.0476 H   0  0  0  0  0  0  0  0  0  0  0  0
   44.5926   34.5747   40.1211 H   0  0  0  0  0  0  0  0  0  0  0  0
   46.4727   34.3700   41.4376 H   0  0  0  0  0  0  0  0  0  0  0  0
   48.4452   33.4657   42.7162 H   0  0  0  0  0  0  0  0  0  0  0  0
   43.3525   35.6705   38.4454 H   0  0  0  0  0  0  0  0  0  0  0  0
   41.1936   35.4289   37.2566 H   0  0  0  0  0  0  0  0  0  0  0  0
   39.7464   32.7779   41.7482 H   0  0  0  0  0  0  0  0  0  0  0  0
   38.7449   34.2618   41.5035 H   0  0  0  0  0  0  0  0  0  0  0  0
   37.6941   32.1192   40.6945 H   0  0  0  0  0  0  0  0  0  0  0  0
   37.8478   33.4133   39.4583 H   0  0  0  0  0  0  0  0  0  0  0  0
   38.9943   32.0306   39.4583 H   0  0  0  0  0  0  0  0  0  0  0  0
  1  4  1  0
  2  1  1  0
  3  2  1  0
  3  1  1  0
  4  9  1  0
  5  4  2  0
  5  6  1  0
  6  7  2  0
  7  8  1  0
  8 10  1  0
  9  8  2  0
 10 13  1  0
 10 12  1  0
 10 11  1  0
 14 19  1  0
 14  3  1  0
 15 14  2  0
 16 17  2  0
 16 15  1  0
 17 18  1  0
 18 19  2  0
 18 20  1  0
 21 20  1  0
  1 22  1  6
  2 23  1  0
  2 24  1  0
  3 25  1  6
  5 26  1  0
  6 27  1  0
 15 28  1  0
 16 29  1  0
 20 30  1  0
 20 31  1  0
 21 32  1  0
 21 33  1  0
 21 34  1  0
M  ISO  8  22  13  23  13  24  13  25  13  26  14  27  14  28  14  29  14
M  ISO  5  30   8  31   8  32   8  33   8  34   8
M  END
>  <minimizedAffinity>  (1) 
-5.22649717

>  <minimizedRMSD>  (1) 
1.40752137

$$$$
