
     RDKit          3D

 47 50  0  0  1  0  0  0  0  0999 V2000
   42.7680   34.7940   40.5550 C   0  0  0  0  0  0  0  0  0  0  0  0
   42.5430   35.3720   39.3220 C   0  0  0  0  0  0  0  0  0  0  0  0
   41.3260   35.3000   38.6870 C   0  0  0  0  0  0  0  0  0  0  0  0
   40.3310   34.6360   39.3080 N   0  0  0  0  0  0  0  0  0  0  0  0
   40.5450   34.0610   40.5270 C   0  0  0  0  0  0  0  0  0  0  0  0
   41.7400   34.1380   41.1430 N   0  0  0  0  0  0  0  0  0  0  0  0
   44.1200   34.6240   42.6200 C   0  0  1  0  0  0  0  0  0  0  0  0
   44.3770   36.0850   42.1130 C   0  0  0  0  0  0  0  0  0  0  0  0
   44.1330   34.8800   41.2100 C   0  0  2  0  0  0  0  0  0  0  0  0
   45.2590   34.0500   43.3680 C   0  0  0  0  0  0  0  0  0  0  0  0
   46.4930   33.9600   42.7070 C   0  0  0  0  0  0  0  0  0  0  0  0
   47.5790   33.4270   43.3990 C   0  0  0  0  0  0  0  0  0  0  0  0
   47.3840   33.0230   44.6770 N   0  0  0  0  0  0  0  0  0  0  0  0
   46.1980   33.1220   45.2780 C   0  0  0  0  0  0  0  0  0  0  0  0
   45.1610   33.6360   44.6030 N   0  0  0  0  0  0  0  0  0  0  0  0
   46.1840   32.6250   46.6970 C   0  0  0  0  0  0  0  0  0  0  0  0
   45.1920   33.2460   47.4390 F   0  0  0  0  0  0  0  0  0  0  0  0
   47.3980   32.9860   47.3170 F   0  0  0  0  0  0  0  0  0  0  0  0
   46.1300   31.2580   46.7120 F   0  0  0  0  0  0  0  0  0  0  0  0
   39.4850   33.3100   41.2470 C   0  0  0  0  0  0  0  0  0  0  0  0
   38.3650   32.9330   40.3110 C   0  0  0  0  0  0  0  0  0  0  0  0
   38.3490   30.8020   39.0660 C   0  0  0  0  0  0  0  0  0  0  0  0
   38.1000   31.5000   40.2230 C   0  0  0  0  0  0  0  0  0  0  0  0
   37.5790   30.8030   41.3080 C   0  0  0  0  0  0  0  0  0  0  0  0
   37.2850   29.4400   41.3260 C   0  0  0  0  0  0  0  0  0  0  0  0
   37.5440   28.7510   40.1440 C   0  0  0  0  0  0  0  0  0  0  0  0
   38.0600   29.4360   39.0640 C   0  0  0  0  0  0  0  0  0  0  0  0
   39.0000   31.4720   37.5970 S   0  0  0  0  0  0  0  0  0  0  0  0
   38.1970   32.6560   37.1160 O   0  0  0  0  0  0  0  0  0  0  0  0
   40.4610   31.7820   37.6650 O   0  0  0  0  0  0  0  0  0  0  0  0
   43.3670   35.9095   38.8299 H   0  0  0  0  0  0  0  0  0  0  0  0
   41.1693   35.7689   37.7043 H   0  0  0  0  0  0  0  0  0  0  0  0
   43.3960   34.0695   43.2351 H   0  0  0  0  0  0  0  0  0  0  0  0
   43.6100   36.8647   42.2306 H   0  0  0  0  0  0  0  0  0  0  0  0
   45.1530   36.8549   42.2358 H   0  0  0  0  0  0  0  0  0  0  0  0
   44.6915   34.4666   40.3573 H   0  0  0  0  0  0  0  0  0  0  0  0
   46.6009   34.3020   41.6671 H   0  0  0  0  0  0  0  0  0  0  0  0
   48.5657   33.3370   42.9212 H   0  0  0  0  0  0  0  0  0  0  0  0
   39.9196   32.3951   41.6761 H   0  0  0  0  0  0  0  0  0  0  0  0
   39.0781   33.9509   42.0430 H   0  0  0  0  0  0  0  0  0  0  0  0
   37.4471   33.4306   40.6571 H   0  0  0  0  0  0  0  0  0  0  0  0
   38.6784   33.2533   39.3064 H   0  0  0  0  0  0  0  0  0  0  0  0
   37.3827   31.3739   42.2275 H   0  0  0  0  0  0  0  0  0  0  0  0
   36.8749   28.9413   42.2166 H   0  0  0  0  0  0  0  0  0  0  0  0
   37.3393   27.6726   40.0725 H   0  0  0  0  0  0  0  0  0  0  0  0
   38.2565   28.8698   38.1416 H   0  0  0  0  0  0  0  0  0  0  0  0
   38.8833   30.4775   36.6620 H   0  0  0  0  0  0  0  0  0  0  0  0
  1  6  1  0
  1  9  1  0
  2  1  2  0
  3  4  2  0
  3  2  1  0
  4  5  1  0
  5  6  2  0
  5 20  1  0
  7 10  1  0
  8  7  1  0
  9  8  1  0
  9  7  1  0
 10 15  1  0
 11 10  2  0
 11 12  1  0
 12 13  2  0
 13 14  1  0
 14 16  1  0
 15 14  2  0
 16 19  1  0
 16 18  1  0
 16 17  1  0
 21 20  1  0
 22 23  2  0
 23 21  1  0
 23 24  1  0
 24 25  2  0
 26 25  1  0
 27 22  1  0
 27 26  2  0
 28 30  2  0
 28 22  1  0
 29 28  2  0
  2 31  1  0
  3 32  1  0
  7 33  1  1
  8 34  1  0
  8 35  1  0
  9 36  1  6
 11 37  1  0
 12 38  1  0
 20 39  1  0
 20 40  1  0
 21 41  1  0
 21 42  1  0
 24 43  1  0
 25 44  1  0
 26 45  1  0
 27 46  1  0
 28 47  1  0
M  ISO  8  31  14  32  14  33  13  34  13  35  13  36  13  37  14  38  14
M  ISO  8  39   8  40   8  41   8  42   8  43  14  44  14  45  14  46  14
M  ISO  1  47  11
M  END
>  <minimizedAffinity>  (1) 
-6.24193525

>  <minimizedRMSD>  (1) 
1.59806097

$$$$
