
     RDKit          3D

 36 38  0  0  1  0  0  0  0  0999 V2000
   44.0950   34.6150   42.4720 C   0  0  1  0  0  0  0  0  0  0  0  0
   44.2940   36.1100   42.0400 C   0  0  0  0  0  0  0  0  0  0  0  0
   44.1420   34.9350   41.0760 C   0  0  2  0  0  0  0  0  0  0  0  0
   45.2280   34.0650   43.2440 C   0  0  0  0  0  0  0  0  0  0  0  0
   46.4740   33.9820   42.6020 C   0  0  0  0  0  0  0  0  0  0  0  0
   47.5560   33.4670   43.3130 C   0  0  0  0  0  0  0  0  0  0  0  0
   47.3480   33.0720   44.5920 N   0  0  0  0  0  0  0  0  0  0  0  0
   46.1510   33.1640   45.1750 C   0  0  0  0  0  0  0  0  0  0  0  0
   45.1290   33.6590   44.4770 N   0  0  0  0  0  0  0  0  0  0  0  0
   46.1220   32.6800   46.5940 C   0  0  0  0  0  0  0  0  0  0  0  0
   45.1400   33.3250   47.3310 F   0  0  0  0  0  0  0  0  0  0  0  0
   47.3420   33.0140   47.2160 F   0  0  0  0  0  0  0  0  0  0  0  0
   46.0460   31.3160   46.6240 F   0  0  0  0  0  0  0  0  0  0  0  0
   42.8130   34.8220   40.3710 C   0  0  0  0  0  0  0  0  0  0  0  0
   42.6840   35.1510   39.0340 C   0  0  0  0  0  0  0  0  0  0  0  0
   41.4970   35.0390   38.3580 C   0  0  0  0  0  0  0  0  0  0  0  0
   40.4130   34.5840   39.0460 N   0  0  0  0  0  0  0  0  0  0  0  0
   40.5300   34.2600   40.3600 C   0  0  0  0  0  0  0  0  0  0  0  0
   41.6980   34.3700   41.0210 N   0  0  0  0  0  0  0  0  0  0  0  0
   39.3760   33.7560   41.1470 C   0  0  0  0  0  0  0  0  0  0  0  0
   38.5260   32.8300   40.3060 C   0  0  0  0  0  0  0  0  0  0  0  0
   37.8110   31.8770   41.1060 N   0  0  0  0  0  0  0  0  0  0  0  0
   43.3802   33.9948   43.0328 H   0  0  0  0  0  0  0  0  0  0  0  0
   43.4847   36.8445   42.1644 H   0  0  0  0  0  0  0  0  0  0  0  0
   45.0249   36.9111   42.2244 H   0  0  0  0  0  0  0  0  0  0  0  0
   44.7486   34.5840   40.2281 H   0  0  0  0  0  0  0  0  0  0  0  0
   46.5933   34.3162   41.5608 H   0  0  0  0  0  0  0  0  0  0  0  0
   48.5500   33.3836   42.8493 H   0  0  0  0  0  0  0  0  0  0  0  0
   43.5685   35.5168   38.4920 H   0  0  0  0  0  0  0  0  0  0  0  0
   41.4221   35.3079   37.2940 H   0  0  0  0  0  0  0  0  0  0  0  0
   39.7483   33.2081   42.0252 H   0  0  0  0  0  0  0  0  0  0  0  0
   38.7621   34.6111   41.4661 H   0  0  0  0  0  0  0  0  0  0  0  0
   39.1787   32.2871   39.6065 H   0  0  0  0  0  0  0  0  0  0  0  0
   37.7872   33.4431   39.7690 H   0  0  0  0  0  0  0  0  0  0  0  0
   37.9648   32.0820   42.1036 H   0  0  0  0  0  0  0  0  0  0  0  0
   36.8048   31.9372   40.8943 H   0  0  0  0  0  0  0  0  0  0  0  0
  1  4  1  0
  2  1  1  0
  3  2  1  0
  3  1  1  0
  4  9  1  0
  5  4  2  0
  5  6  1  0
  6  7  2  0
  7  8  1  0
  8 10  1  0
  9  8  2  0
 10 13  1  0
 10 12  1  0
 10 11  1  0
 14 19  1  0
 14  3  1  0
 15 14  2  0
 16 15  1  0
 16 17  2  0
 17 18  1  0
 18 19  2  0
 18 20  1  0
 21 22  1  0
 21 20  1  0
  1 23  1  6
  2 24  1  0
  2 25  1  0
  3 26  1  6
  5 27  1  0
  6 28  1  0
 15 29  1  0
 16 30  1  0
 20 31  1  0
 20 32  1  0
 21 33  1  0
 21 34  1  0
 22 35  1  0
 22 36  1  0
M  ISO  8  23  13  24  13  25  13  26  13  27  14  28  14  29  14  30  14
M  ISO  6  31   8  32   8  33   8  34   8  35   5  36   5
M  END
>  <minimizedAffinity>  (1) 
-5.42113924

>  <minimizedRMSD>  (1) 
0.2286724

$$$$
