
     RDKit          3D

 40 43  0  0  1  0  0  0  0  0999 V2000
   42.6820   34.8140   40.3070 C   0  0  0  0  0  0  0  0  0  0  0  0
   42.5220   35.1550   38.9820 C   0  0  0  0  0  0  0  0  0  0  0  0
   41.3270   35.0360   38.3250 C   0  0  0  0  0  0  0  0  0  0  0  0
   40.2750   34.5630   39.0180 N   0  0  0  0  0  0  0  0  0  0  0  0
   40.4070   34.2160   40.3320 C   0  0  0  0  0  0  0  0  0  0  0  0
   41.5900   34.3370   40.9790 N   0  0  0  0  0  0  0  0  0  0  0  0
   43.9900   34.6460   42.3990 C   0  0  1  0  0  0  0  0  0  0  0  0
   44.1890   36.1320   41.9300 C   0  0  0  0  0  0  0  0  0  0  0  0
   44.0230   34.9360   40.9950 C   0  0  2  0  0  0  0  0  0  0  0  0
   45.1320   34.1080   43.1660 C   0  0  0  0  0  0  0  0  0  0  0  0
   46.3820   34.0430   42.5150 C   0  0  0  0  0  0  0  0  0  0  0  0
   47.4700   33.5440   43.2190 C   0  0  0  0  0  0  0  0  0  0  0  0
   47.2750   33.1440   44.5000 N   0  0  0  0  0  0  0  0  0  0  0  0
   46.0790   33.2190   45.0870 C   0  0  0  0  0  0  0  0  0  0  0  0
   45.0450   33.7020   44.3960 N   0  0  0  0  0  0  0  0  0  0  0  0
   46.0650   32.7340   46.5080 C   0  0  0  0  0  0  0  0  0  0  0  0
   45.0940   33.3860   47.2550 F   0  0  0  0  0  0  0  0  0  0  0  0
   47.3010   33.0710   47.1100 F   0  0  0  0  0  0  0  0  0  0  0  0
   45.9720   31.3700   46.5370 F   0  0  0  0  0  0  0  0  0  0  0  0
   39.2870   33.6770   41.1440 C   0  0  0  0  0  0  0  0  0  0  0  0
   38.5710   32.5860   40.3860 C   0  0  0  0  0  0  0  0  0  0  0  0
   38.5920   31.2930   41.1310 C   0  0  0  0  0  0  0  0  0  0  0  0
   39.8520   30.8410   41.6820 C   0  0  0  0  0  0  0  0  0  0  0  0
   39.2770   29.2540   42.4520 S   0  0  0  0  0  0  0  0  0  0  0  0
   37.5170   29.4830   41.9100 C   0  0  0  0  0  0  0  0  0  0  0  0
   37.4370   30.6640   41.2190 N   0  0  0  0  0  0  0  0  0  0  0  0
   43.3914   35.5392   38.4284 H   0  0  0  0  0  0  0  0  0  0  0  0
   41.2300   35.3176   37.2661 H   0  0  0  0  0  0  0  0  0  0  0  0
   43.2795   34.0424   42.9829 H   0  0  0  0  0  0  0  0  0  0  0  0
   43.3833   36.8718   42.0463 H   0  0  0  0  0  0  0  0  0  0  0  0
   44.9243   36.9347   42.0880 H   0  0  0  0  0  0  0  0  0  0  0  0
   44.6194   34.5636   40.1491 H   0  0  0  0  0  0  0  0  0  0  0  0
   46.4922   34.3799   41.4737 H   0  0  0  0  0  0  0  0  0  0  0  0
   48.4628   33.4751   42.7504 H   0  0  0  0  0  0  0  0  0  0  0  0
   39.6846   33.2658   42.0836 H   0  0  0  0  0  0  0  0  0  0  0  0
   38.5771   34.4891   41.3599 H   0  0  0  0  0  0  0  0  0  0  0  0
   39.0641   32.4451   39.4128 H   0  0  0  0  0  0  0  0  0  0  0  0
   37.5220   32.8901   40.2552 H   0  0  0  0  0  0  0  0  0  0  0  0
   40.8509   31.3007   41.6529 H   0  0  0  0  0  0  0  0  0  0  0  0
   36.6842   28.7923   42.1084 H   0  0  0  0  0  0  0  0  0  0  0  0
  1  6  1  0
  1  9  1  0
  2  1  2  0
  3  2  1  0
  3  4  2  0
  4  5  1  0
  5  6  2  0
  5 20  1  0
  7 10  1  0
  8  7  1  0
  9  8  1  0
  9  7  1  0
 10 15  1  0
 11 10  2  0
 11 12  1  0
 12 13  2  0
 13 14  1  0
 14 16  1  0
 15 14  2  0
 16 19  1  0
 16 18  1  0
 16 17  1  0
 21 22  1  0
 21 20  1  0
 22 26  1  0
 22 23  2  0
 23 24  1  0
 25 24  1  0
 26 25  2  0
  2 27  1  0
  3 28  1  0
  7 29  1  1
  8 30  1  0
  8 31  1  0
  9 32  1  6
 11 33  1  0
 12 34  1  0
 20 35  1  0
 20 36  1  0
 21 37  1  0
 21 38  1  0
 23 39  1  0
 25 40  1  0
M  ISO  8  27  14  28  14  29  13  30  13  31  13  32  13  33  14  34  14
M  ISO  6  35   8  36   8  37   8  38   8  39  14  40  14
M  END
>  <minimizedAffinity>  (1) 
-5.82113266

>  <minimizedRMSD>  (1) 
1.46885407

$$$$
