
     RDKit          3D

 40 42  0  0  1  0  0  0  0  0999 V2000
   42.5530   34.5630   40.2730 C   0  0  0  0  0  0  0  0  0  0  0  0
   42.3450   34.9220   38.9660 C   0  0  0  0  0  0  0  0  0  0  0  0
   41.1300   34.7390   38.3320 C   0  0  0  0  0  0  0  0  0  0  0  0
   40.1270   34.1850   39.0420 N   0  0  0  0  0  0  0  0  0  0  0  0
   40.3280   33.8260   40.3360 C   0  0  0  0  0  0  0  0  0  0  0  0
   41.5120   34.0040   40.9600 N   0  0  0  0  0  0  0  0  0  0  0  0
   43.9090   34.5470   42.3460 C   0  0  1  0  0  0  0  0  0  0  0  0
   44.0860   36.0000   41.7780 C   0  0  0  0  0  0  0  0  0  0  0  0
   43.9030   34.7500   40.9270 C   0  0  2  0  0  0  0  0  0  0  0  0
   45.0730   34.0670   43.1180 C   0  0  0  0  0  0  0  0  0  0  0  0
   46.3210   34.0610   42.4720 C   0  0  0  0  0  0  0  0  0  0  0  0
   47.4350   33.6150   43.1840 C   0  0  0  0  0  0  0  0  0  0  0  0
   47.2530   33.2110   44.4650 N   0  0  0  0  0  0  0  0  0  0  0  0
   46.0520   33.2320   45.0470 C   0  0  0  0  0  0  0  0  0  0  0  0
   45.0000   33.6620   44.3470 N   0  0  0  0  0  0  0  0  0  0  0  0
   46.0530   32.7500   46.4700 C   0  0  0  0  0  0  0  0  0  0  0  0
   45.0900   33.3980   47.2270 F   0  0  0  0  0  0  0  0  0  0  0  0
   47.2960   33.0890   47.0570 F   0  0  0  0  0  0  0  0  0  0  0  0
   45.9670   31.3860   46.5020 F   0  0  0  0  0  0  0  0  0  0  0  0
   39.2600   33.1970   41.1750 C   0  0  0  0  0  0  0  0  0  0  0  0
   38.6980   31.9880   40.4750 C   0  0  0  0  0  0  0  0  0  0  0  0
   37.8200   31.2450   41.2230 O   0  0  0  0  0  0  0  0  0  0  0  0
   39.6430   29.8450   42.5350 O   0  0  0  0  0  0  0  0  0  0  0  0
   38.4110   29.7350   41.6850 P   0  0  0  0  0  0  0  0  0  0  0  0
   38.7520   28.7440   40.3760 O   0  0  0  0  0  0  0  0  0  0  0  0
   37.2010   28.9980   42.6080 O   0  0  0  0  0  0  0  0  0  0  0  0
   43.1750   35.3719   38.4014 H   0  0  0  0  0  0  0  0  0  0  0  0
   40.9865   35.0358   37.2826 H   0  0  0  0  0  0  0  0  0  0  0  0
   43.2187   33.9758   42.9841 H   0  0  0  0  0  0  0  0  0  0  0  0
   43.2791   36.7421   41.8690 H   0  0  0  0  0  0  0  0  0  0  0  0
   44.8204   36.8143   41.8648 H   0  0  0  0  0  0  0  0  0  0  0  0
   44.4804   34.3329   40.0888 H   0  0  0  0  0  0  0  0  0  0  0  0
   46.4173   34.3998   41.4299 H   0  0  0  0  0  0  0  0  0  0  0  0
   48.4318   33.5919   42.7193 H   0  0  0  0  0  0  0  0  0  0  0  0
   39.6886   32.8918   42.1410 H   0  0  0  0  0  0  0  0  0  0  0  0
   38.4531   33.9267   41.3377 H   0  0  0  0  0  0  0  0  0  0  0  0
   38.1729   32.3297   39.5708 H   0  0  0  0  0  0  0  0  0  0  0  0
   39.5531   31.3307   40.2589 H   0  0  0  0  0  0  0  0  0  0  0  0
   39.0562   27.8600   40.7018 H   0  0  0  0  0  0  0  0  0  0  0  0
   37.4000   29.1192   43.5702 H   0  0  0  0  0  0  0  0  0  0  0  0
  1  9  1  0
  1  6  1  0
  2  1  2  0
  3  2  1  0
  3  4  2  0
  4  5  1  0
  5  6  2  0
  5 20  1  0
  7 10  1  0
  8  7  1  0
  9  8  1  0
  9  7  1  0
 10 15  1  0
 11 10  2  0
 11 12  1  0
 12 13  2  0
 13 14  1  0
 14 16  1  0
 15 14  2  0
 16 19  1  0
 16 18  1  0
 16 17  1  0
 21 20  1  0
 21 22  1  0
 22 24  1  0
 24 23  2  0
 24 26  1  0
 25 24  1  0
  2 27  1  0
  3 28  1  0
  7 29  1  1
  8 30  1  0
  8 31  1  0
  9 32  1  6
 11 33  1  0
 12 34  1  0
 20 35  1  0
 20 36  1  0
 21 37  1  0
 21 38  1  0
 25 39  1  0
 26 40  1  0
M  ISO  8  27  14  28  14  29  13  30  13  31  13  32  13  33  14  34  14
M  ISO  6  35   8  36   8  37   8  38   8  39   3  40   3
M  END
>  <minimizedAffinity>  (1) 
-5.6753087

>  <minimizedRMSD>  (1) 
1.09477496

$$$$
