
     RDKit          3D

 40 43  0  0  1  0  0  0  0  0999 V2000
   47.1050   34.0550   42.4830 C   0  0  2  0  0  0  0  0  0  0  0  0
   48.4900   34.5790   42.6360 C   0  0  0  0  0  0  0  0  0  0  0  0
   48.8460   35.6000   41.6080 C   0  0  0  0  0  0  0  0  0  0  0  0
   48.6570   35.0840   40.2080 C   0  0  0  0  0  0  0  0  0  0  0  0
   47.3850   34.3050   40.0150 C   0  0  0  0  0  0  0  0  0  0  0  0
   46.4480   34.4130   41.1840 C   0  0  1  0  0  0  0  0  0  0  0  0
   46.2210   34.4610   43.5940 C   0  0  0  0  0  0  0  0  0  0  0  0
   45.5380   35.6600   43.3880 C   0  0  0  0  0  0  0  0  0  0  0  0
   44.6640   36.1480   44.3700 C   0  0  0  0  0  0  0  0  0  0  0  0
   44.5460   35.3680   45.5130 N   0  0  0  0  0  0  0  0  0  0  0  0
   45.2200   34.2210   45.6750 C   0  0  0  0  0  0  0  0  0  0  0  0
   46.0550   33.7730   44.7130 N   0  0  0  0  0  0  0  0  0  0  0  0
   45.3320   33.4260   40.9620 C   0  0  2  0  0  0  0  0  0  0  0  0
   44.7050   33.3510   39.5860 C   0  0  0  0  0  0  0  0  0  0  0  0
   43.9330   33.8500   40.7490 C   0  0  1  0  0  0  0  0  0  0  0  0
   42.9160   32.8940   41.3030 C   0  0  0  0  0  0  0  0  0  0  0  0
   43.1980   31.7370   42.0580 C   0  0  0  0  0  0  0  0  0  0  0  0
   42.1250   30.9950   42.4720 C   0  0  0  0  0  0  0  0  0  0  0  0
   40.8510   31.4170   42.1320 C   0  0  0  0  0  0  0  0  0  0  0  0
   41.1950   32.9800   41.1540 S   0  0  0  0  0  0  0  0  0  0  0  0
   47.2394   32.9633   42.4974 H   0  0  0  0  0  0  0  0  0  0  0  0
   48.5830   35.0374   43.6316 H   0  0  0  0  0  0  0  0  0  0  0  0
   49.1780   33.7303   42.5076 H   0  0  0  0  0  0  0  0  0  0  0  0
   48.2064   36.4837   41.7496 H   0  0  0  0  0  0  0  0  0  0  0  0
   49.9092   35.8519   41.7352 H   0  0  0  0  0  0  0  0  0  0  0  0
   48.6456   35.9426   39.5205 H   0  0  0  0  0  0  0  0  0  0  0  0
   49.4893   34.3938   40.0057 H   0  0  0  0  0  0  0  0  0  0  0  0
   46.8731   34.6860   39.1190 H   0  0  0  0  0  0  0  0  0  0  0  0
   47.6606   33.2452   39.9108 H   0  0  0  0  0  0  0  0  0  0  0  0
   46.1015   35.4551   41.2478 H   0  0  0  0  0  0  0  0  0  0  0  0
   45.6852   36.2230   42.4545 H   0  0  0  0  0  0  0  0  0  0  0  0
   44.1075   37.0883   44.2431 H   0  0  0  0  0  0  0  0  0  0  0  0
   45.0919   33.6394   46.5998 H   0  0  0  0  0  0  0  0  0  0  0  0
   45.8142   32.7320   41.6661 H   0  0  0  0  0  0  0  0  0  0  0  0
   44.4643   32.3743   39.1410 H   0  0  0  0  0  0  0  0  0  0  0  0
   44.9570   33.7395   38.5882 H   0  0  0  0  0  0  0  0  0  0  0  0
   43.3579   34.7667   40.9464 H   0  0  0  0  0  0  0  0  0  0  0  0
   44.2300   31.4450   42.3023 H   0  0  0  0  0  0  0  0  0  0  0  0
   42.2722   30.0798   43.0642 H   0  0  0  0  0  0  0  0  0  0  0  0
   39.8832   30.9535   42.3739 H   0  0  0  0  0  0  0  0  0  0  0  0
  1  2  1  0
  1  7  1  0
  3  2  1  0
  4  3  1  0
  5  4  1  0
  5  6  1  0
  6  1  1  0
  7 12  1  0
  8  7  2  0
  8  9  1  0
  9 10  2  0
 10 11  1  0
 12 11  2  0
 13  6  1  0
 14 15  1  0
 14 13  1  0
 15 13  1  0
 15 16  1  0
 16 17  2  0
 17 18  1  0
 19 18  2  0
 20 16  1  0
 20 19  1  0
  1 21  1  6
  2 22  1  0
  2 23  1  0
  3 24  1  0
  3 25  1  0
  4 26  1  0
  4 27  1  0
  5 28  1  0
  5 29  1  0
  6 30  1  1
  8 31  1  0
  9 32  1  0
 11 33  1  0
 13 34  1  1
 14 35  1  0
 14 36  1  0
 15 37  1  6
 17 38  1  0
 18 39  1  0
 19 40  1  0
M  ISO  8  21  13  22  13  23  13  24  13  25  13  26  13  27  13  28  13
M  ISO  8  29  13  30  13  31  14  32  14  33  14  34  13  35  13  36  13
M  ISO  4  37  13  38  14  39  14  40  14
M  END
>  <minimizedAffinity>  (1) 
-5.90576649

>  <minimizedRMSD>  (1) 
0.723549187

$$$$
