
     RDKit          3D

 21 22  0  0  1  0  0  0  0  0999 V2000
   45.0260   35.0980   43.1990 C   0  0  1  0  0  0  0  0  0  0  0  0
   44.8900   36.6360   43.1970 C   0  0  2  0  0  0  0  0  0  0  0  0
   46.0140   35.9210   42.5370 C   0  0  0  0  0  0  0  0  0  0  0  0
   45.2190   34.5370   44.5540 C   0  0  0  0  0  0  0  0  0  0  0  0
   46.2570   33.5770   44.7390 C   0  0  0  0  0  0  0  0  0  0  0  0
   46.4670   33.0400   46.0020 C   0  0  0  0  0  0  0  0  0  0  0  0
   45.6430   33.4820   47.0050 N   0  0  0  0  0  0  0  0  0  0  0  0
   44.6690   34.3930   46.7970 C   0  0  0  0  0  0  0  0  0  0  0  0
   44.4640   34.9090   45.5880 N   0  0  0  0  0  0  0  0  0  0  0  0
   45.3160   38.7250   44.4610 C   0  0  0  0  0  0  0  0  0  0  0  0
   45.3880   39.3500   43.3720 O   0  0  0  0  0  0  0  0  0  0  0  0
   45.0610   37.3150   44.4480 N   0  0  0  0  0  0  0  0  0  0  0  0
   44.4806   34.2066   42.8555 H   0  0  0  0  0  0  0  0  0  0  0  0
   44.1621   37.3941   42.8722 H   0  0  0  0  0  0  0  0  0  0  0  0
   46.0771   35.9110   41.4389 H   0  0  0  0  0  0  0  0  0  0  0  0
   47.1086   35.9980   42.6136 H   0  0  0  0  0  0  0  0  0  0  0  0
   46.8842   33.2654   43.8907 H   0  0  0  0  0  0  0  0  0  0  0  0
   47.2557   32.2964   46.1889 H   0  0  0  0  0  0  0  0  0  0  0  0
   44.0364   34.7130   47.6381 H   0  0  0  0  0  0  0  0  0  0  0  0
   45.4476   39.2562   45.4152 H   0  0  0  0  0  0  0  0  0  0  0  0
   45.0008   36.7918   45.3332 H   0  0  0  0  0  0  0  0  0  0  0  0
  1  4  1  0
  2  1  1  0
  2 12  1  0
  3  2  1  0
  3  1  1  0
  4  5  2  0
  4  9  1  0
  5  6  1  0
  6  7  2  0
  8  7  1  0
  9  8  2  0
 11 10  2  0
 12 10  1  0
  1 13  1  6
  2 14  1  6
  3 15  1  0
  3 16  1  0
  5 17  1  0
  6 18  1  0
  8 19  1  0
 10 20  1  0
 12 21  1  0
M  ISO  8  13  13  14  13  15  13  16  13  17  14  18  14  19  14  20   6
M  END
>  <minimizedAffinity>  (1) 
-2.76097226

>  <minimizedRMSD>  (1) 
1.41367579

$$$$
