
     RDKit          3D

 20 21  0  0  1  0  0  0  0  0999 V2000
   45.2270   33.5680   43.7780 C   0  0  1  0  0  0  0  0  0  0  0  0
   45.8450   34.9590   43.4660 C   0  0  1  0  0  0  0  0  0  0  0  0
   45.7930   33.8400   42.4770 C   0  0  0  0  0  0  0  0  0  0  0  0
   45.9640   32.8550   44.8460 C   0  0  0  0  0  0  0  0  0  0  0  0
   46.6310   31.6320   44.5150 C   0  0  0  0  0  0  0  0  0  0  0  0
   47.3370   30.9510   45.5000 C   0  0  0  0  0  0  0  0  0  0  0  0
   47.3490   31.5110   46.7560 N   0  0  0  0  0  0  0  0  0  0  0  0
   46.7060   32.6730   47.0300 C   0  0  0  0  0  0  0  0  0  0  0  0
   46.0260   33.3270   46.0900 N   0  0  0  0  0  0  0  0  0  0  0  0
   44.8160   36.0470   43.2770 C   0  0  0  0  0  0  0  0  0  0  0  0
   45.4110   37.3030   43.2360 F   0  0  0  0  0  0  0  0  0  0  0  0
   44.2080   35.8520   42.0320 F   0  0  0  0  0  0  0  0  0  0  0  0
   43.8390   35.9640   44.2290 F   0  0  0  0  0  0  0  0  0  0  0  0
   44.2644   33.1179   44.0622 H   0  0  0  0  0  0  0  0  0  0  0  0
   46.6300   35.6095   43.8790 H   0  0  0  0  0  0  0  0  0  0  0  0
   45.1268   33.9212   41.6055 H   0  0  0  0  0  0  0  0  0  0  0  0
   46.5568   33.3367   41.8660 H   0  0  0  0  0  0  0  0  0  0  0  0
   46.5852   31.2348   43.4902 H   0  0  0  0  0  0  0  0  0  0  0  0
   47.8615   30.0083   45.2849 H   0  0  0  0  0  0  0  0  0  0  0  0
   46.7469   33.0839   48.0496 H   0  0  0  0  0  0  0  0  0  0  0  0
  1  4  1  0
  2  1  1  0
  3  2  1  0
  3  1  1  0
  4  9  1  0
  5  4  2  0
  5  6  1  0
  6  7  2  0
  7  8  1  0
  9  8  2  0
 10  2  1  0
 10 13  1  0
 11 10  1  0
 12 10  1  0
  1 14  1  6
  2 15  1  1
  3 16  1  0
  3 17  1  0
  5 18  1  0
  6 19  1  0
  8 20  1  0
M  ISO  7  14  13  15  13  16  13  17  13  18  14  19  14  20  14
M  END
>  <minimizedAffinity>  (1) 
-3.82272506

>  <minimizedRMSD>  (1) 
1.79559803

$$$$
