
     RDKit          3D

 27 28  0  0  1  0  0  0  0  0999 V2000
   45.9370   32.7820   44.5570 C   0  0  0  0  0  0  0  0  0  0  0  0
   46.7000   31.6780   44.0750 C   0  0  0  0  0  0  0  0  0  0  0  0
   47.4530   30.8880   44.9540 C   0  0  0  0  0  0  0  0  0  0  0  0
   47.4060   31.2430   46.2680 N   0  0  0  0  0  0  0  0  0  0  0  0
   46.6590   32.3110   46.6790 C   0  0  0  0  0  0  0  0  0  0  0  0
   45.9470   33.0590   45.8630 N   0  0  0  0  0  0  0  0  0  0  0  0
   45.1840   33.5790   43.5800 C   0  0  1  0  0  0  0  0  0  0  0  0
   45.8510   34.9860   43.3600 C   0  0  1  0  0  0  0  0  0  0  0  0
   45.6350   33.9430   42.2910 C   0  0  0  0  0  0  0  0  0  0  0  0
   44.8610   36.1250   43.3080 C   0  0  0  0  0  0  0  0  0  0  0  0
   45.4520   37.3550   43.2500 F   0  0  0  0  0  0  0  0  0  0  0  0
   44.0660   35.9750   42.1560 F   0  0  0  0  0  0  0  0  0  0  0  0
   43.9660   36.0480   44.3640 F   0  0  0  0  0  0  0  0  0  0  0  0
   46.7210   32.5400   48.0610 O   0  0  0  0  0  0  0  0  0  0  0  0
   46.6410   31.4950   48.9980 C   0  0  0  0  0  0  0  0  0  0  0  0
   45.2030   31.2730   49.4370 C   0  0  0  0  0  0  0  0  0  0  0  0
   46.6975   31.4437   43.0003 H   0  0  0  0  0  0  0  0  0  0  0  0
   48.0472   30.0313   44.6032 H   0  0  0  0  0  0  0  0  0  0  0  0
   44.2303   33.1161   43.8736 H   0  0  0  0  0  0  0  0  0  0  0  0
   46.6933   35.5588   43.7753 H   0  0  0  0  0  0  0  0  0  0  0  0
   44.8959   34.1331   41.4988 H   0  0  0  0  0  0  0  0  0  0  0  0
   46.3122   33.4587   41.5720 H   0  0  0  0  0  0  0  0  0  0  0  0
   47.0255   30.5710   48.5415 H   0  0  0  0  0  0  0  0  0  0  0  0
   47.2412   31.7649   49.8794 H   0  0  0  0  0  0  0  0  0  0  0  0
   45.1521   31.2651   50.5358 H   0  0  0  0  0  0  0  0  0  0  0  0
   44.5710   32.0842   49.0465 H   0  0  0  0  0  0  0  0  0  0  0  0
   44.8451   30.3090   49.0465 H   0  0  0  0  0  0  0  0  0  0  0  0
  1  6  1  0
  2  1  2  0
  2  3  1  0
  3  4  2  0
  4  5  1  0
  5 14  1  0
  6  5  2  0
  7  1  1  0
  8  7  1  0
  9  8  1  0
  9  7  1  0
 10  8  1  0
 10 13  1  0
 11 10  1  0
 12 10  1  0
 14 15  1  0
 15 16  1  0
  2 17  1  0
  3 18  1  0
  7 19  1  6
  8 20  1  1
  9 21  1  0
  9 22  1  0
 15 23  1  0
 15 24  1  0
 16 25  1  0
 16 26  1  0
 16 27  1  0
M  ISO  8  17  14  18  14  19  13  20  13  21  13  22  13  23   8  24   8
M  ISO  3  25   8  26   8  27   8
M  END
>  <minimizedAffinity>  (1) 
-4.40668249

>  <minimizedRMSD>  (1) 
0.734318018

$$$$
