
     RDKit          3D

 24 25  0  0  1  0  0  0  0  0999 V2000
   45.1730   33.4940   43.8350 C   0  0  1  0  0  0  0  0  0  0  0  0
   45.8560   34.8850   43.5590 C   0  0  1  0  0  0  0  0  0  0  0  0
   45.6300   33.7960   42.5330 C   0  0  0  0  0  0  0  0  0  0  0  0
   45.9060   32.7200   44.8510 C   0  0  0  0  0  0  0  0  0  0  0  0
   46.7490   31.6730   44.4120 C   0  0  0  0  0  0  0  0  0  0  0  0
   47.4850   30.9050   45.3370 C   0  0  0  0  0  0  0  0  0  0  0  0
   47.3140   31.2540   46.6430 N   0  0  0  0  0  0  0  0  0  0  0  0
   46.4890   32.2730   47.0180 C   0  0  0  0  0  0  0  0  0  0  0  0
   45.8020   32.9870   46.1390 N   0  0  0  0  0  0  0  0  0  0  0  0
   46.4530   32.4730   48.3990 O   0  0  0  0  0  0  0  0  0  0  0  0
   45.5930   31.7070   49.2420 C   0  0  0  0  0  0  0  0  0  0  0  0
   44.8760   36.0300   43.4570 C   0  0  0  0  0  0  0  0  0  0  0  0
   45.4590   37.2240   43.1570 F   0  0  0  0  0  0  0  0  0  0  0  0
   43.9500   35.7320   42.4330 F   0  0  0  0  0  0  0  0  0  0  0  0
   44.1010   36.1230   44.6050 F   0  0  0  0  0  0  0  0  0  0  0  0
   44.2130   33.0566   44.1464 H   0  0  0  0  0  0  0  0  0  0  0  0
   46.7034   35.4665   43.9512 H   0  0  0  0  0  0  0  0  0  0  0  0
   44.8944   33.9594   41.7316 H   0  0  0  0  0  0  0  0  0  0  0  0
   46.3030   33.2734   41.8373 H   0  0  0  0  0  0  0  0  0  0  0  0
   46.8314   31.4554   43.3369 H   0  0  0  0  0  0  0  0  0  0  0  0
   48.1486   30.0842   45.0272 H   0  0  0  0  0  0  0  0  0  0  0  0
   45.8295   31.9176   50.2954 H   0  0  0  0  0  0  0  0  0  0  0  0
   44.5460   31.9772   49.0401 H   0  0  0  0  0  0  0  0  0  0  0  0
   45.7407   30.6358   49.0401 H   0  0  0  0  0  0  0  0  0  0  0  0
  1  4  1  0
  2  1  1  0
  3  2  1  0
  3  1  1  0
  4  9  1  0
  5  4  2  0
  5  6  1  0
  6  7  2  0
  7  8  1  0
  8 10  1  0
  9  8  2  0
 10 11  1  0
 12  2  1  0
 12 15  1  0
 13 12  1  0
 14 12  1  0
  1 16  1  6
  2 17  1  1
  3 18  1  0
  3 19  1  0
  5 20  1  0
  6 21  1  0
 11 22  1  0
 11 23  1  0
 11 24  1  0
M  ISO  8  16  13  17  13  18  13  19  13  20  14  21  14  22   8  23   8
M  ISO  1  24   8
M  END
>  <minimizedAffinity>  (1) 
-4.17367268

>  <minimizedRMSD>  (1) 
0.665357232

$$$$
