
     RDKit          3D

 23 24  0  0  1  0  0  0  0  0999 V2000
   46.2380   33.3330   45.8390 C   0  0  0  0  0  0  0  0  0  0  0  0
   47.1510   32.8800   44.8510 C   0  0  0  0  0  0  0  0  0  0  0  0
   47.0680   33.3450   43.5260 C   0  0  0  0  0  0  0  0  0  0  0  0
   46.0680   34.2370   43.2830 N   0  0  0  0  0  0  0  0  0  0  0  0
   45.2110   34.6440   44.2710 C   0  0  0  0  0  0  0  0  0  0  0  0
   45.3020   34.2000   45.5080 N   0  0  0  0  0  0  0  0  0  0  0  0
   46.3740   32.8000   47.2010 C   0  0  1  0  0  0  0  0  0  0  0  0
   46.0420   31.2640   47.2530 C   0  0  1  0  0  0  0  0  0  0  0  0
   47.3620   31.8860   47.6360 C   0  0  0  0  0  0  0  0  0  0  0  0
   45.1850   30.8680   48.4300 C   0  0  0  0  0  0  0  0  0  0  0  0
   44.8070   29.5550   48.4140 F   0  0  0  0  0  0  0  0  0  0  0  0
   45.9240   31.0890   49.6090 F   0  0  0  0  0  0  0  0  0  0  0  0
   44.0830   31.7040   48.5450 F   0  0  0  0  0  0  0  0  0  0  0  0
   44.2660   35.5600   43.8000 O   0  0  0  0  0  0  0  0  0  0  0  0
   43.9150   35.6060   42.4470 C   0  0  0  0  0  0  0  0  0  0  0  0
   42.8080   35.2860   41.9290 O   0  0  0  0  0  0  0  0  0  0  0  0
   47.9330   32.1565   45.1249 H   0  0  0  0  0  0  0  0  0  0  0  0
   47.7624   33.0114   42.7408 H   0  0  0  0  0  0  0  0  0  0  0  0
   46.0735   33.7593   47.6476 H   0  0  0  0  0  0  0  0  0  0  0  0
   45.6844   30.4863   46.5622 H   0  0  0  0  0  0  0  0  0  0  0  0
   48.2426   31.7070   47.0016 H   0  0  0  0  0  0  0  0  0  0  0  0
   47.9791   31.8292   48.5448 H   0  0  0  0  0  0  0  0  0  0  0  0
   44.6920   35.9616   41.7543 H   0  0  0  0  0  0  0  0  0  0  0  0
  1  7  1  0
  2  1  2  0
  3  2  1  0
  4  3  2  0
  4  5  1  0
  5  6  2  0
  6  1  1  0
  7  8  1  0
  7  9  1  0
  8  9  1  0
  8 10  1  0
 10 13  1  0
 10 12  1  0
 11 10  1  0
 14  5  1  0
 15 14  1  0
 16 15  2  0
  2 17  1  0
  3 18  1  0
  7 19  1  1
  8 20  1  6
  9 21  1  0
  9 22  1  0
 15 23  1  0
M  ISO  7  17  14  18  14  19  13  20  13  21  13  22  13  23   6
M  END
>  <minimizedAffinity>  (1) 
-4.49015474

>  <minimizedRMSD>  (1) 
5.87581253

$$$$
