
     RDKit          3D

 21 21  0  0  0  0  0  0  0  0999 V2000
   44.7520   34.9250   45.7060 C   0  0  0  0  0  0  0  0  0  0  0  0
   45.3890   34.9040   44.4620 C   0  0  0  0  0  0  0  0  0  0  0  0
   46.3200   33.8830   44.2530 C   0  0  0  0  0  0  0  0  0  0  0  0
   46.5590   32.9850   45.2330 N   0  0  0  0  0  0  0  0  0  0  0  0
   45.9210   33.0450   46.4150 C   0  0  0  0  0  0  0  0  0  0  0  0
   45.0160   34.0070   46.6690 N   0  0  0  0  0  0  0  0  0  0  0  0
   45.0100   35.9630   43.4830 C   0  0  0  0  0  0  0  0  0  0  0  0
   44.9220   37.1250   44.1880 F   0  0  0  0  0  0  0  0  0  0  0  0
   43.7690   35.6100   42.9660 F   0  0  0  0  0  0  0  0  0  0  0  0
   45.9590   35.9610   42.4880 F   0  0  0  0  0  0  0  0  0  0  0  0
   46.1650   32.1250   47.4130 O   0  0  0  0  0  0  0  0  0  0  0  0
   45.8570   32.3440   48.7370 C   0  0  0  0  0  0  0  0  0  0  0  0
   45.3170   31.3680   49.4700 C   0  0  0  0  0  0  0  0  0  0  0  0
   45.0910   30.0750   48.7390 C   0  0  0  0  0  0  0  0  0  0  0  0
   44.0118   35.7124   45.9109 H   0  0  0  0  0  0  0  0  0  0  0  0
   46.8556   33.8111   43.2949 H   0  0  0  0  0  0  0  0  0  0  0  0
   46.0564   33.3256   49.1917 H   0  0  0  0  0  0  0  0  0  0  0  0
   45.0568   31.5005   50.5305 H   0  0  0  0  0  0  0  0  0  0  0  0
   44.9490   29.2624   49.4667 H   0  0  0  0  0  0  0  0  0  0  0  0
   44.1946   30.1626   48.1076 H   0  0  0  0  0  0  0  0  0  0  0  0
   45.9640   29.8533   48.1076 H   0  0  0  0  0  0  0  0  0  0  0  0
  1  6  2  0
  2  1  1  0
  3  2  2  0
  3  4  1  0
  4  5  2  0
  5  6  1  0
  5 11  1  0
  7  8  1  0
  7  2  1  0
  9  7  1  0
 10  7  1  0
 11 12  1  0
 12 13  2  0
 14 13  1  0
  1 15  1  0
  3 16  1  0
 12 17  1  0
 13 18  1  0
 14 19  1  0
 14 20  1  0
 14 21  1  0
M  ISO  5  15  14  16  14  19   8  20   8  21   8
M  END
>  <minimizedAffinity>  (1) 
-4.68702173

>  <minimizedRMSD>  (1) 
1.736781

$$$$
