
     RDKit          3D

 31 32  0  0  0  0  0  0  0  0999 V2000
   45.9420   32.8280   47.4360 O   0  0  0  0  0  0  0  0  0  0  0  0
   44.6350   35.2360   45.1310 C   0  0  0  0  0  0  0  0  0  0  0  0
   45.3480   34.9580   43.9610 C   0  0  0  0  0  0  0  0  0  0  0  0
   46.2870   33.9190   43.9970 C   0  0  0  0  0  0  0  0  0  0  0  0
   46.4550   33.2390   45.1610 N   0  0  0  0  0  0  0  0  0  0  0  0
   45.7470   33.5420   46.2620 C   0  0  0  0  0  0  0  0  0  0  0  0
   44.8330   34.5360   46.2650 N   0  0  0  0  0  0  0  0  0  0  0  0
   45.0390   35.8070   42.7630 C   0  0  0  0  0  0  0  0  0  0  0  0
   45.3120   37.0930   43.1190 F   0  0  0  0  0  0  0  0  0  0  0  0
   43.6720   35.6580   42.5240 F   0  0  0  0  0  0  0  0  0  0  0  0
   45.7580   35.3190   41.7010 F   0  0  0  0  0  0  0  0  0  0  0  0
   47.2270   32.4740   47.9110 C   0  0  0  0  0  0  0  0  0  0  0  0
   47.1250   31.3530   48.8090 N   0  0  0  0  0  0  0  0  0  0  0  0
   48.0850   30.3390   48.5190 C   0  0  0  0  0  0  0  0  0  0  0  0
   47.5740   29.1850   47.7350 C   0  0  0  0  0  0  0  0  0  0  0  0
   46.2160   28.8040   48.0040 N   0  0  0  0  0  0  0  0  0  0  0  0
   45.2930   29.9000   48.0410 C   0  0  0  0  0  0  0  0  0  0  0  0
   45.7960   30.9030   49.0390 C   0  0  0  0  0  0  0  0  0  0  0  0
   43.8927   36.0478   45.1256 H   0  0  0  0  0  0  0  0  0  0  0  0
   46.8744   33.6599   43.1038 H   0  0  0  0  0  0  0  0  0  0  0  0
   47.8686   32.2024   47.0598 H   0  0  0  0  0  0  0  0  0  0  0  0
   47.6636   33.3295   48.4472 H   0  0  0  0  0  0  0  0  0  0  0  0
   48.9048   30.8005   47.9490 H   0  0  0  0  0  0  0  0  0  0  0  0
   48.3986   29.9307   49.4911 H   0  0  0  0  0  0  0  0  0  0  0  0
   48.2172   28.3188   47.9496 H   0  0  0  0  0  0  0  0  0  0  0  0
   47.5938   29.5042   46.6825 H   0  0  0  0  0  0  0  0  0  0  0  0
   45.9122   28.1509   47.2678 H   0  0  0  0  0  0  0  0  0  0  0  0
   45.2271   30.3651   47.0464 H   0  0  0  0  0  0  0  0  0  0  0  0
   44.2927   29.5450   48.3299 H   0  0  0  0  0  0  0  0  0  0  0  0
   45.7579   30.4423   50.0372 H   0  0  0  0  0  0  0  0  0  0  0  0
   45.1476   31.7867   48.9460 H   0  0  0  0  0  0  0  0  0  0  0  0
  1 12  1  0
  2  7  2  0
  3  4  2  0
  3  2  1  0
  4  5  1  0
  5  6  2  0
  6  7  1  0
  6  1  1  0
  8  9  1  0
  8  3  1  0
 10  8  1  0
 11  8  1  0
 12 13  1  0
 13 18  1  0
 14 13  1  0
 15 16  1  0
 15 14  1  0
 16 17  1  0
 17 18  1  0
  2 19  1  0
  4 20  1  0
 12 21  1  0
 12 22  1  0
 14 23  1  0
 14 24  1  0
 15 25  1  0
 15 26  1  0
 16 27  1  0
 17 28  1  0
 17 29  1  0
 18 30  1  0
 18 31  1  0
M  ISO  8  19  14  20  14  21   8  22   8  23  13  24  13  25  13  26  13
M  ISO  5  27   5  28  13  29  13  30  13  31  13
M  END
>  <minimizedAffinity>  (1) 
-5.07058859

>  <minimizedRMSD>  (1) 
1.83771634

$$$$
