
     RDKit          3D

 24 25  0  0  0  0  0  0  0  0999 V2000
   44.7310   35.4300   44.9690 C   0  0  0  0  0  0  0  0  0  0  0  0
   45.6050   34.9820   43.9740 C   0  0  0  0  0  0  0  0  0  0  0  0
   46.3470   33.8340   44.2490 C   0  0  0  0  0  0  0  0  0  0  0  0
   46.2070   33.2040   45.4290 N   0  0  0  0  0  0  0  0  0  0  0  0
   45.3530   33.6650   46.3630 C   0  0  0  0  0  0  0  0  0  0  0  0
   44.6100   34.7720   46.1510 N   0  0  0  0  0  0  0  0  0  0  0  0
   45.6710   35.7670   42.7130 C   0  0  0  0  0  0  0  0  0  0  0  0
   45.2680   37.0460   43.0450 F   0  0  0  0  0  0  0  0  0  0  0  0
   44.7770   35.2000   41.8320 F   0  0  0  0  0  0  0  0  0  0  0  0
   46.9750   35.7070   42.2400 F   0  0  0  0  0  0  0  0  0  0  0  0
   45.1620   33.0630   47.5950 O   0  0  0  0  0  0  0  0  0  0  0  0
   46.1910   32.3700   48.2540 C   0  0  0  0  0  0  0  0  0  0  0  0
   46.0230   30.9090   48.0730 C   0  0  0  0  0  0  0  0  0  0  0  0
   45.1260   30.1970   48.8700 C   0  0  0  0  0  0  0  0  0  0  0  0
   45.1830   28.9160   48.4920 N   0  0  0  0  0  0  0  0  0  0  0  0
   46.0770   28.8040   47.4960 C   0  0  0  0  0  0  0  0  0  0  0  0
   46.5790   30.0200   47.2510 N   0  0  0  0  0  0  0  0  0  0  0  0
   44.1293   36.3335   44.7910 H   0  0  0  0  0  0  0  0  0  0  0  0
   47.0492   33.4423   43.4984 H   0  0  0  0  0  0  0  0  0  0  0  0
   47.1612   32.6783   47.8374 H   0  0  0  0  0  0  0  0  0  0  0  0
   46.1510   32.6051   49.3278 H   0  0  0  0  0  0  0  0  0  0  0  0
   44.4887   30.6135   49.6640 H   0  0  0  0  0  0  0  0  0  0  0  0
   44.6336   28.1445   48.8967 H   0  0  0  0  0  0  0  0  0  0  0  0
   46.3490   27.8752   46.9731 H   0  0  0  0  0  0  0  0  0  0  0  0
  1  6  2  0
  2  3  2  0
  2  1  1  0
  3  4  1  0
  4  5  2  0
  5 11  1  0
  6  5  1  0
  7  8  1  0
  7  2  1  0
  9  7  1  0
 10  7  1  0
 11 12  1  0
 13 12  1  0
 13 14  2  0
 15 14  1  0
 16 15  1  0
 17 16  2  0
 17 13  1  0
  1 18  1  0
  3 19  1  0
 12 20  1  0
 12 21  1  0
 14 22  1  0
 15 23  1  0
 16 24  1  0
M  ISO  7  18  14  19  14  20   8  21   8  22  14  23   9  24  14
M  END
>  <minimizedAffinity>  (1) 
-4.86361933

>  <minimizedRMSD>  (1) 
0.873510718

$$$$
