
     RDKit          3D

 33 34  0  0  0  0  0  0  0  0999 V2000
   44.6060   35.5050   45.1700 C   0  0  0  0  0  0  0  0  0  0  0  0
   45.2190   35.0120   44.0180 C   0  0  0  0  0  0  0  0  0  0  0  0
   45.8650   33.7690   44.0880 C   0  0  0  0  0  0  0  0  0  0  0  0
   45.8650   33.1140   45.2600 N   0  0  0  0  0  0  0  0  0  0  0  0
   45.2620   33.6230   46.3560 C   0  0  0  0  0  0  0  0  0  0  0  0
   44.6340   34.8030   46.3320 N   0  0  0  0  0  0  0  0  0  0  0  0
   45.1490   35.8720   42.7950 C   0  0  0  0  0  0  0  0  0  0  0  0
   45.2410   37.1760   43.2500 F   0  0  0  0  0  0  0  0  0  0  0  0
   43.9400   35.6280   42.1980 F   0  0  0  0  0  0  0  0  0  0  0  0
   46.2140   35.5310   41.9730 F   0  0  0  0  0  0  0  0  0  0  0  0
   45.2630   32.9510   47.5670 O   0  0  0  0  0  0  0  0  0  0  0  0
   45.9560   31.7670   47.8070 C   0  0  0  0  0  0  0  0  0  0  0  0
   47.4060   31.7740   47.3990 C   0  0  0  0  0  0  0  0  0  0  0  0
   47.6760   30.3990   46.8020 C   0  0  0  0  0  0  0  0  0  0  0  0
   48.9970   29.8260   47.2630 C   0  0  0  0  0  0  0  0  0  0  0  0
   48.9820   29.5130   48.7450 C   0  0  0  0  0  0  0  0  0  0  0  0
   48.3630   30.6830   49.4640 C   0  0  0  0  0  0  0  0  0  0  0  0
   48.3240   31.9090   48.5930 C   0  0  0  0  0  0  0  0  0  0  0  0
   44.0922   36.4771   45.1366 H   0  0  0  0  0  0  0  0  0  0  0  0
   46.3599   33.3410   43.2037 H   0  0  0  0  0  0  0  0  0  0  0  0
   45.9079   31.5581   48.8859 H   0  0  0  0  0  0  0  0  0  0  0  0
   45.4699   30.9997   47.1866 H   0  0  0  0  0  0  0  0  0  0  0  0
   47.5890   32.6139   46.7127 H   0  0  0  0  0  0  0  0  0  0  0  0
   47.6906   30.4855   45.7055 H   0  0  0  0  0  0  0  0  0  0  0  0
   46.8777   29.7215   47.1393 H   0  0  0  0  0  0  0  0  0  0  0  0
   49.1988   28.9000   46.7046 H   0  0  0  0  0  0  0  0  0  0  0  0
   49.7807   30.5753   47.0774 H   0  0  0  0  0  0  0  0  0  0  0  0
   48.3877   28.6057   48.9285 H   0  0  0  0  0  0  0  0  0  0  0  0
   50.0058   29.3405   49.1085 H   0  0  0  0  0  0  0  0  0  0  0  0
   47.3358   30.4197   49.7564 H   0  0  0  0  0  0  0  0  0  0  0  0
   48.9771   30.9080   50.3485 H   0  0  0  0  0  0  0  0  0  0  0  0
   49.3422   32.1089   48.2280 H   0  0  0  0  0  0  0  0  0  0  0  0
   47.9321   32.7309   49.2101 H   0  0  0  0  0  0  0  0  0  0  0  0
  1  6  2  0
  2  3  2  0
  2  1  1  0
  3  4  1  0
  4  5  2  0
  5 11  1  0
  6  5  1  0
  7  8  1  0
  7  2  1  0
  9  7  1  0
 10  7  1  0
 11 12  1  0
 13 12  1  0
 13 18  1  0
 14 15  1  0
 14 13  1  0
 15 16  1  0
 16 17  1  0
 18 17  1  0
  1 19  1  0
  3 20  1  0
 12 21  1  0
 12 22  1  0
 13 23  1  0
 14 24  1  0
 14 25  1  0
 15 26  1  0
 15 27  1  0
 16 28  1  0
 16 29  1  0
 17 30  1  0
 17 31  1  0
 18 32  1  0
 18 33  1  0
M  ISO  8  19  14  20  14  21   8  22   8  23  13  24  13  25  13  26  13
M  ISO  7  27  13  28  13  29  13  30  13  31  13  32  13  33  13
M  END
>  <minimizedAffinity>  (1) 
-4.80971098

>  <minimizedRMSD>  (1) 
1.11849594

$$$$
