
     RDKit          3D

 21 21  0  0  0  0  0  0  0  0999 V2000
   44.6520   35.5960   44.9420 C   0  0  0  0  0  0  0  0  0  0  0  0
   45.5190   35.1180   43.9510 C   0  0  0  0  0  0  0  0  0  0  0  0
   46.2520   33.9490   44.2330 C   0  0  0  0  0  0  0  0  0  0  0  0
   46.0890   33.3490   45.4300 N   0  0  0  0  0  0  0  0  0  0  0  0
   45.2440   33.8450   46.3520 C   0  0  0  0  0  0  0  0  0  0  0  0
   44.5280   34.9500   46.1290 N   0  0  0  0  0  0  0  0  0  0  0  0
   45.5960   35.8890   42.6670 C   0  0  0  0  0  0  0  0  0  0  0  0
   45.2710   37.1760   42.9830 F   0  0  0  0  0  0  0  0  0  0  0  0
   44.6180   35.3450   41.8390 F   0  0  0  0  0  0  0  0  0  0  0  0
   46.8460   35.7210   42.1390 F   0  0  0  0  0  0  0  0  0  0  0  0
   45.0550   33.2490   47.5900 O   0  0  0  0  0  0  0  0  0  0  0  0
   45.6710   32.0390   47.9470 C   0  0  0  0  0  0  0  0  0  0  0  0
   44.9040   29.7200   47.4640 C   0  0  0  0  0  0  0  0  0  0  0  0
   44.9710   29.4560   48.7070 O   0  0  0  0  0  0  0  0  0  0  0  0
   45.2470   31.0220   47.0050 N   0  0  0  0  0  0  0  0  0  0  0  0
   44.0640   36.5068   44.7556 H   0  0  0  0  0  0  0  0  0  0  0  0
   46.9465   33.5318   43.4889 H   0  0  0  0  0  0  0  0  0  0  0  0
   46.7645   32.1514   47.9070 H   0  0  0  0  0  0  0  0  0  0  0  0
   45.3851   31.7534   48.9701 H   0  0  0  0  0  0  0  0  0  0  0  0
   44.5833   28.9473   46.7498 H   0  0  0  0  0  0  0  0  0  0  0  0
   45.1939   31.2428   46.0003 H   0  0  0  0  0  0  0  0  0  0  0  0
  1  6  2  0
  2  3  2  0
  2  1  1  0
  3  4  1  0
  4  5  2  0
  5 11  1  0
  6  5  1  0
  7  8  1  0
  7  2  1  0
  9  7  1  0
 10  7  1  0
 11 12  1  0
 13 14  2  0
 15 13  1  0
 15 12  1  0
  1 16  1  0
  3 17  1  0
 12 18  1  0
 12 19  1  0
 13 20  1  0
 15 21  1  0
M  ISO  5  16  14  17  14  18   8  19   8  20   6
M  END
>  <minimizedAffinity>  (1) 
-4.4577651

>  <minimizedRMSD>  (1) 
0.713405371

$$$$
