
     RDKit          3D

 19 19  0  0  0  0  0  0  0  0999 V2000
   44.6870   35.4820   45.0430 C   0  0  0  0  0  0  0  0  0  0  0  0
   45.4900   35.0380   43.9860 C   0  0  0  0  0  0  0  0  0  0  0  0
   46.2030   33.8510   44.1860 C   0  0  0  0  0  0  0  0  0  0  0  0
   46.0900   33.1990   45.3560 N   0  0  0  0  0  0  0  0  0  0  0  0
   45.3110   33.6510   46.3520 C   0  0  0  0  0  0  0  0  0  0  0  0
   44.6040   34.7910   46.2080 N   0  0  0  0  0  0  0  0  0  0  0  0
   45.5160   35.8660   42.7450 C   0  0  0  0  0  0  0  0  0  0  0  0
   45.2270   37.1500   43.1500 F   0  0  0  0  0  0  0  0  0  0  0  0
   44.4870   35.3920   41.9320 F   0  0  0  0  0  0  0  0  0  0  0  0
   46.7360   35.7010   42.1500 F   0  0  0  0  0  0  0  0  0  0  0  0
   45.1780   33.0020   47.5630 O   0  0  0  0  0  0  0  0  0  0  0  0
   46.2550   32.2490   48.1130 C   0  0  0  0  0  0  0  0  0  0  0  0
   47.4950   32.9740   47.9090 N   0  0  0  0  0  0  0  0  0  0  0  0
   44.1105   36.4116   44.9268 H   0  0  0  0  0  0  0  0  0  0  0  0
   46.8516   33.4540   43.3912 H   0  0  0  0  0  0  0  0  0  0  0  0
   46.0882   32.1005   49.1901 H   0  0  0  0  0  0  0  0  0  0  0  0
   46.3131   31.2691   47.6167 H   0  0  0  0  0  0  0  0  0  0  0  0
   47.9063   33.2145   48.8222 H   0  0  0  0  0  0  0  0  0  0  0  0
   48.1540   32.3851   47.3800 H   0  0  0  0  0  0  0  0  0  0  0  0
  1  6  2  0
  2  3  2  0
  2  1  1  0
  3  4  1  0
  4  5  2  0
  5 11  1  0
  6  5  1  0
  7  8  1  0
  7  2  1  0
  9  7  1  0
 10  7  1  0
 11 12  1  0
 13 12  1  0
  1 14  1  0
  3 15  1  0
 12 16  1  0
 12 17  1  0
 13 18  1  0
 13 19  1  0
M  ISO  6  14  14  15  14  16   8  17   8  18   5  19   5
M  END
>  <minimizedAffinity>  (1) 
-4.44622183

>  <minimizedRMSD>  (1) 
0.280793071

$$$$
