
     RDKit          3D

 18 18  0  0  0  0  0  0  0  0999 V2000
   44.7260   35.4110   44.9970 C   0  0  0  0  0  0  0  0  0  0  0  0
   45.6050   34.9490   44.0160 C   0  0  0  0  0  0  0  0  0  0  0  0
   46.3360   33.8010   44.3260 C   0  0  0  0  0  0  0  0  0  0  0  0
   46.1580   33.2130   45.5280 N   0  0  0  0  0  0  0  0  0  0  0  0
   45.3030   33.6930   46.4370 C   0  0  0  0  0  0  0  0  0  0  0  0
   44.5820   34.7850   46.1910 N   0  0  0  0  0  0  0  0  0  0  0  0
   45.6850   35.7120   42.7440 C   0  0  0  0  0  0  0  0  0  0  0  0
   45.2640   36.9950   43.0460 F   0  0  0  0  0  0  0  0  0  0  0  0
   44.8010   35.1060   41.8610 F   0  0  0  0  0  0  0  0  0  0  0  0
   46.9850   35.6440   42.2930 F   0  0  0  0  0  0  0  0  0  0  0  0
   45.1180   33.0870   47.6730 O   0  0  0  0  0  0  0  0  0  0  0  0
   46.1110   32.3180   48.3010 C   0  0  0  0  0  0  0  0  0  0  0  0
   45.3830   30.9130   49.2090 S   0  0  0  0  0  0  0  0  0  0  0  0
   44.1302   36.3132   44.7946 H   0  0  0  0  0  0  0  0  0  0  0  0
   47.0479   33.3809   43.6002 H   0  0  0  0  0  0  0  0  0  0  0  0
   46.8022   31.9320   47.5373 H   0  0  0  0  0  0  0  0  0  0  0  0
   46.6442   32.9579   49.0195 H   0  0  0  0  0  0  0  0  0  0  0  0
   45.4965   31.1321   50.5566 H   0  0  0  0  0  0  0  0  0  0  0  0
  1  6  2  0
  2  3  2  0
  2  1  1  0
  3  4  1  0
  4  5  2  0
  5 11  1  0
  6  5  1  0
  7  8  1  0
  7  2  1  0
  9  7  1  0
 10  7  1  0
 11 12  1  0
 12 13  1  0
  1 14  1  0
  3 15  1  0
 12 16  1  0
 12 17  1  0
 13 18  1  0
M  ISO  5  14  14  15  14  16   8  17   8  18  11
M  END
>  <minimizedAffinity>  (1) 
-4.20454407

>  <minimizedRMSD>  (1) 
0.638798833

$$$$
