
     RDKit          3D

 40 42  0  0  0  0  0  0  0  0999 V2000
   45.3960   31.2830   47.7530 C   0  0  0  0  0  0  0  0  0  0  0  0
   46.5980   30.4560   47.7780 C   0  0  0  0  0  0  0  0  0  0  0  0
   46.9350   29.3390   47.0340 C   0  0  0  0  0  0  0  0  0  0  0  0
   48.1270   28.7270   47.2360 C   0  0  0  0  0  0  0  0  0  0  0  0
   48.9950   29.1850   48.1510 N   0  0  0  0  0  0  0  0  0  0  0  0
   48.6780   30.2660   48.8750 C   0  0  0  0  0  0  0  0  0  0  0  0
   47.4930   30.9060   48.7040 N   0  0  0  0  0  0  0  0  0  0  0  0
   49.6250   30.7230   49.8390 N   0  0  0  0  0  0  0  0  0  0  0  0
   50.1510   32.0620   49.7000 C   0  0  0  0  0  0  0  0  0  0  0  0
   51.4010   32.1370   50.5450 C   0  0  0  0  0  0  0  0  0  0  0  0
   52.2490   30.9160   50.4470 C   0  0  0  0  0  0  0  0  0  0  0  0
   51.5470   29.6210   50.7060 C   0  0  0  0  0  0  0  0  0  0  0  0
   50.0770   29.8990   50.9460 C   0  0  0  0  0  0  0  0  0  0  0  0
   45.7990   32.6290   47.6660 O   0  0  0  0  0  0  0  0  0  0  0  0
   44.9430   34.9520   45.0980 C   0  0  0  0  0  0  0  0  0  0  0  0
   45.8200   34.6450   44.0610 C   0  0  0  0  0  0  0  0  0  0  0  0
   46.7320   33.5970   44.2750 C   0  0  0  0  0  0  0  0  0  0  0  0
   46.7120   32.9500   45.4580 N   0  0  0  0  0  0  0  0  0  0  0  0
   45.8380   33.2840   46.4380 C   0  0  0  0  0  0  0  0  0  0  0  0
   44.9560   34.2770   46.2690 N   0  0  0  0  0  0  0  0  0  0  0  0
   45.7360   35.4430   42.8020 C   0  0  0  0  0  0  0  0  0  0  0  0
   45.2570   36.6800   43.1930 F   0  0  0  0  0  0  0  0  0  0  0  0
   44.7910   34.7910   41.9960 F   0  0  0  0  0  0  0  0  0  0  0  0
   46.9680   35.4970   42.2320 F   0  0  0  0  0  0  0  0  0  0  0  0
   44.7796   31.0202   46.8807 H   0  0  0  0  0  0  0  0  0  0  0  0
   44.7993   31.1196   48.6625 H   0  0  0  0  0  0  0  0  0  0  0  0
   46.2362   28.9484   46.2796 H   0  0  0  0  0  0  0  0  0  0  0  0
   48.3874   27.8399   46.6399 H   0  0  0  0  0  0  0  0  0  0  0  0
   50.3947   32.2644   48.6466 H   0  0  0  0  0  0  0  0  0  0  0  0
   49.4123   32.8091   50.0258 H   0  0  0  0  0  0  0  0  0  0  0  0
   51.9946   33.0024   50.2153 H   0  0  0  0  0  0  0  0  0  0  0  0
   51.0820   32.2305   51.5936 H   0  0  0  0  0  0  0  0  0  0  0  0
   52.6694   30.8762   49.4313 H   0  0  0  0  0  0  0  0  0  0  0  0
   53.0075   31.0113   51.2379 H   0  0  0  0  0  0  0  0  0  0  0  0
   51.6602   28.9590   49.8348 H   0  0  0  0  0  0  0  0  0  0  0  0
   51.9827   29.1311   51.5893 H   0  0  0  0  0  0  0  0  0  0  0  0
   49.9423   30.4343   51.8975 H   0  0  0  0  0  0  0  0  0  0  0  0
   49.5008   28.9639   51.0059 H   0  0  0  0  0  0  0  0  0  0  0  0
   44.2182   35.7679   44.9602 H   0  0  0  0  0  0  0  0  0  0  0  0
   47.4490   33.3099   43.4917 H   0  0  0  0  0  0  0  0  0  0  0  0
  1  2  1  0
  2  7  2  0
  3  4  2  0
  3  2  1  0
  4  5  1  0
  5  6  2  0
  6  8  1  0
  7  6  1  0
  8 13  1  0
  9  8  1  0
  9 10  1  0
 11 10  1  0
 11 12  1  0
 12 13  1  0
 14  1  1  0
 15 20  2  0
 16 17  2  0
 16 15  1  0
 17 18  1  0
 18 19  2  0
 19 14  1  0
 20 19  1  0
 21 22  1  0
 21 16  1  0
 23 21  1  0
 24 21  1  0
  1 25  1  0
  1 26  1  0
  3 27  1  0
  4 28  1  0
  9 29  1  0
  9 30  1  0
 10 31  1  0
 10 32  1  0
 11 33  1  0
 11 34  1  0
 12 35  1  0
 12 36  1  0
 13 37  1  0
 13 38  1  0
 15 39  1  0
 17 40  1  0
M  ISO  8  25   8  26   8  27  14  28  14  29  13  30  13  31  13  32  13
M  ISO  8  33  13  34  13  35  13  36  13  37  13  38  13  39  14  40  14
M  END
>  <minimizedAffinity>  (1) 
-5.84789515

>  <minimizedRMSD>  (1) 
0.798220217

$$$$
