
     RDKit          3D

 41 43  0  0  0  0  0  0  0  0999 V2000
   45.3110   31.4010   47.7410 C   0  0  0  0  0  0  0  0  0  0  0  0
   46.5150   30.5440   47.7740 C   0  0  0  0  0  0  0  0  0  0  0  0
   46.9000   29.4800   46.9710 C   0  0  0  0  0  0  0  0  0  0  0  0
   48.0770   28.8550   47.2230 C   0  0  0  0  0  0  0  0  0  0  0  0
   48.8690   29.2330   48.2150 N   0  0  0  0  0  0  0  0  0  0  0  0
   48.5150   30.2660   49.0100 C   0  0  0  0  0  0  0  0  0  0  0  0
   47.3340   30.9260   48.7910 N   0  0  0  0  0  0  0  0  0  0  0  0
   49.4450   30.6470   50.1110 C   0  0  0  0  0  0  0  0  0  0  0  0
   50.4110   29.5870   50.5020 C   0  0  0  0  0  0  0  0  0  0  0  0
   50.9400   29.9160   51.8770 C   0  0  0  0  0  0  0  0  0  0  0  0
   51.6100   31.2460   51.8360 C   0  0  0  0  0  0  0  0  0  0  0  0
   51.5330   31.9680   50.5250 C   0  0  0  0  0  0  0  0  0  0  0  0
   50.2160   31.9080   49.8330 C   0  0  0  0  0  0  0  0  0  0  0  0
   45.7460   32.7370   47.6390 O   0  0  0  0  0  0  0  0  0  0  0  0
   44.9080   35.0180   45.0400 C   0  0  0  0  0  0  0  0  0  0  0  0
   45.7950   34.7000   44.0070 C   0  0  0  0  0  0  0  0  0  0  0  0
   46.6980   33.6590   44.2460 C   0  0  0  0  0  0  0  0  0  0  0  0
   46.6750   33.0250   45.4340 N   0  0  0  0  0  0  0  0  0  0  0  0
   45.7900   33.3780   46.4020 C   0  0  0  0  0  0  0  0  0  0  0  0
   44.9160   34.3640   46.2080 N   0  0  0  0  0  0  0  0  0  0  0  0
   45.7160   35.4810   42.7380 C   0  0  0  0  0  0  0  0  0  0  0  0
   45.2820   36.7350   43.1070 F   0  0  0  0  0  0  0  0  0  0  0  0
   44.7260   34.8520   41.9660 F   0  0  0  0  0  0  0  0  0  0  0  0
   46.9230   35.4530   42.1190 F   0  0  0  0  0  0  0  0  0  0  0  0
   44.6885   31.1411   46.8721 H   0  0  0  0  0  0  0  0  0  0  0  0
   44.7080   31.2578   48.6498 H   0  0  0  0  0  0  0  0  0  0  0  0
   46.2591   29.1478   46.1410 H   0  0  0  0  0  0  0  0  0  0  0  0
   48.3821   28.0114   46.5864 H   0  0  0  0  0  0  0  0  0  0  0  0
   48.7577   30.8131   50.9536 H   0  0  0  0  0  0  0  0  0  0  0  0
   49.9049   28.6105   50.5214 H   0  0  0  0  0  0  0  0  0  0  0  0
   51.2376   29.5398   49.7778 H   0  0  0  0  0  0  0  0  0  0  0  0
   50.1071   29.9451   52.5949 H   0  0  0  0  0  0  0  0  0  0  0  0
   51.6615   29.1470   52.1903 H   0  0  0  0  0  0  0  0  0  0  0  0
   51.1442   31.8837   52.6018 H   0  0  0  0  0  0  0  0  0  0  0  0
   52.6784   31.0510   52.0106 H   0  0  0  0  0  0  0  0  0  0  0  0
   51.7715   33.0263   50.7071 H   0  0  0  0  0  0  0  0  0  0  0  0
   52.2457   31.4592   49.8593 H   0  0  0  0  0  0  0  0  0  0  0  0
   50.3896   31.9773   48.7490 H   0  0  0  0  0  0  0  0  0  0  0  0
   49.6131   32.7448   50.2153 H   0  0  0  0  0  0  0  0  0  0  0  0
   44.1817   35.8301   44.8883 H   0  0  0  0  0  0  0  0  0  0  0  0
   47.4198   33.3610   43.4713 H   0  0  0  0  0  0  0  0  0  0  0  0
  1  2  1  0
  2  7  2  0
  3  4  2  0
  3  2  1  0
  4  5  1  0
  5  6  2  0
  6  8  1  0
  7  6  1  0
  8  9  1  0
  9 10  1  0
 11 10  1  0
 12 11  1  0
 13  8  1  0
 13 12  1  0
 14  1  1  0
 15 20  2  0
 16 17  2  0
 16 15  1  0
 17 18  1  0
 18 19  2  0
 19 14  1  0
 20 19  1  0
 21 22  1  0
 21 16  1  0
 23 21  1  0
 24 21  1  0
  1 25  1  0
  1 26  1  0
  3 27  1  0
  4 28  1  0
  8 29  1  0
  9 30  1  0
  9 31  1  0
 10 32  1  0
 10 33  1  0
 11 34  1  0
 11 35  1  0
 12 36  1  0
 12 37  1  0
 13 38  1  0
 13 39  1  0
 15 40  1  0
 17 41  1  0
M  ISO  8  25   8  26   8  27  14  28  14  29  13  30  13  31  13  32  13
M  ISO  8  33  13  34  13  35  13  36  13  37  13  38  13  39  13  40  14
M  ISO  1  41  14
M  END
>  <minimizedAffinity>  (1) 
-5.83029413

>  <minimizedRMSD>  (1) 
0.737530589

$$$$
