
     RDKit          3D

 39 41  0  0  0  0  0  0  0  0999 V2000
   46.4470   30.3970   47.7910 C   0  0  0  0  0  0  0  0  0  0  0  0
   46.6340   29.1910   47.1340 C   0  0  0  0  0  0  0  0  0  0  0  0
   47.7860   28.5030   47.3480 C   0  0  0  0  0  0  0  0  0  0  0  0
   48.7420   28.9590   48.1740 N   0  0  0  0  0  0  0  0  0  0  0  0
   48.5580   30.1310   48.8100 C   0  0  0  0  0  0  0  0  0  0  0  0
   47.4230   30.8550   48.6290 N   0  0  0  0  0  0  0  0  0  0  0  0
   49.5910   30.5870   49.6810 N   0  0  0  0  0  0  0  0  0  0  0  0
   49.9830   31.9790   49.5990 C   0  0  0  0  0  0  0  0  0  0  0  0
   51.4640   31.9810   50.0040 C   0  0  0  0  0  0  0  0  0  0  0  0
   51.5050   31.6820   51.4070 N   0  0  0  0  0  0  0  0  0  0  0  0
   50.9450   30.4080   51.7230 C   0  0  0  0  0  0  0  0  0  0  0  0
   50.2420   29.7000   50.6250 C   0  0  0  0  0  0  0  0  0  0  0  0
   45.3180   31.3380   47.7500 C   0  0  0  0  0  0  0  0  0  0  0  0
   45.8460   32.6370   47.6320 O   0  0  0  0  0  0  0  0  0  0  0  0
   44.9620   34.9350   45.0740 C   0  0  0  0  0  0  0  0  0  0  0  0
   45.8340   34.6310   44.0380 C   0  0  0  0  0  0  0  0  0  0  0  0
   46.7540   33.5930   44.2480 C   0  0  0  0  0  0  0  0  0  0  0  0
   46.7490   32.9470   45.4270 N   0  0  0  0  0  0  0  0  0  0  0  0
   45.8820   33.2800   46.4010 C   0  0  0  0  0  0  0  0  0  0  0  0
   44.9860   34.2660   46.2420 N   0  0  0  0  0  0  0  0  0  0  0  0
   45.7360   35.4270   42.7730 C   0  0  0  0  0  0  0  0  0  0  0  0
   45.2900   36.6680   43.1600 F   0  0  0  0  0  0  0  0  0  0  0  0
   44.7620   34.7900   41.9880 F   0  0  0  0  0  0  0  0  0  0  0  0
   46.9490   35.4340   42.1590 F   0  0  0  0  0  0  0  0  0  0  0  0
   45.8648   28.7985   46.4526 H   0  0  0  0  0  0  0  0  0  0  0  0
   47.9401   27.5450   46.8299 H   0  0  0  0  0  0  0  0  0  0  0  0
   49.8588   32.3590   48.5742 H   0  0  0  0  0  0  0  0  0  0  0  0
   49.3704   32.6266   50.2434 H   0  0  0  0  0  0  0  0  0  0  0  0
   52.0139   31.2158   49.4365 H   0  0  0  0  0  0  0  0  0  0  0  0
   51.9324   32.9533   49.7914 H   0  0  0  0  0  0  0  0  0  0  0  0
   52.4873   31.6945   51.7165 H   0  0  0  0  0  0  0  0  0  0  0  0
   51.7642   29.7596   52.0674 H   0  0  0  0  0  0  0  0  0  0  0  0
   50.1719   30.6107   52.4788 H   0  0  0  0  0  0  0  0  0  0  0  0
   49.4784   29.0438   51.0681 H   0  0  0  0  0  0  0  0  0  0  0  0
   51.0045   29.1389   50.0649 H   0  0  0  0  0  0  0  0  0  0  0  0
   44.6759   31.1149   46.8852 H   0  0  0  0  0  0  0  0  0  0  0  0
   44.7113   31.2509   48.6634 H   0  0  0  0  0  0  0  0  0  0  0  0
   44.2308   35.7453   44.9369 H   0  0  0  0  0  0  0  0  0  0  0  0
   47.4684   33.3120   43.4602 H   0  0  0  0  0  0  0  0  0  0  0  0
  1  6  2  0
  2  3  2  0
  2  1  1  0
  3  4  1  0
  4  5  2  0
  5  7  1  0
  6  5  1  0
  7 12  1  0
  8  7  1  0
  8  9  1  0
  9 10  1  0
 10 11  1  0
 12 11  1  0
 13  1  1  0
 14 13  1  0
 15 20  2  0
 16 17  2  0
 16 15  1  0
 17 18  1  0
 18 19  2  0
 19 14  1  0
 20 19  1  0
 21 22  1  0
 21 16  1  0
 23 21  1  0
 24 21  1  0
  2 25  1  0
  3 26  1  0
  8 27  1  0
  8 28  1  0
  9 29  1  0
  9 30  1  0
 10 31  1  0
 11 32  1  0
 11 33  1  0
 12 34  1  0
 12 35  1  0
 13 36  1  0
 13 37  1  0
 15 38  1  0
 17 39  1  0
M  ISO  8  25  14  26  14  27  13  28  13  29  13  30  13  31   5  32  13
M  ISO  7  33  13  34  13  35  13  36   8  37   8  38  14  39  14
M  END
>  <minimizedAffinity>  (1) 
-5.80391836

>  <minimizedRMSD>  (1) 
0.95282501

$$$$
