
     RDKit          3D

 38 40  0  0  0  0  0  0  0  0999 V2000
   45.3890   31.3300   47.6100 C   0  0  0  0  0  0  0  0  0  0  0  0
   46.6320   30.5650   47.7610 C   0  0  0  0  0  0  0  0  0  0  0  0
   47.1240   29.4730   47.0620 C   0  0  0  0  0  0  0  0  0  0  0  0
   48.3270   28.9500   47.4180 C   0  0  0  0  0  0  0  0  0  0  0  0
   49.0460   29.4510   48.4120 N   0  0  0  0  0  0  0  0  0  0  0  0
   48.5750   30.5110   49.0940 C   0  0  0  0  0  0  0  0  0  0  0  0
   47.3710   31.0800   48.7830 N   0  0  0  0  0  0  0  0  0  0  0  0
   49.4420   31.0250   50.2060 C   0  0  0  0  0  0  0  0  0  0  0  0
   50.2650   29.9610   50.8270 C   0  0  0  0  0  0  0  0  0  0  0  0
   51.2430   30.7750   51.6510 C   0  0  0  0  0  0  0  0  0  0  0  0
   51.4740   32.0230   50.8260 C   0  0  0  0  0  0  0  0  0  0  0  0
   50.4830   31.9840   49.6920 C   0  0  0  0  0  0  0  0  0  0  0  0
   45.7330   32.6940   47.5430 O   0  0  0  0  0  0  0  0  0  0  0  0
   44.9070   35.0610   45.0190 C   0  0  0  0  0  0  0  0  0  0  0  0
   45.7830   34.7600   43.9790 C   0  0  0  0  0  0  0  0  0  0  0  0
   46.6850   33.6940   44.1810 C   0  0  0  0  0  0  0  0  0  0  0  0
   46.6540   33.0310   45.3530 N   0  0  0  0  0  0  0  0  0  0  0  0
   45.7860   33.3630   46.3260 C   0  0  0  0  0  0  0  0  0  0  0  0
   44.9180   34.3650   46.1680 N   0  0  0  0  0  0  0  0  0  0  0  0
   45.7220   35.5690   42.7260 C   0  0  0  0  0  0  0  0  0  0  0  0
   45.3030   36.8140   43.1310 F   0  0  0  0  0  0  0  0  0  0  0  0
   44.7240   34.9770   41.9370 F   0  0  0  0  0  0  0  0  0  0  0  0
   46.9390   35.5560   42.1250 F   0  0  0  0  0  0  0  0  0  0  0  0
   44.8725   31.0278   46.6870 H   0  0  0  0  0  0  0  0  0  0  0  0
   44.7152   31.1431   48.4592 H   0  0  0  0  0  0  0  0  0  0  0  0
   46.5493   29.0366   46.2318 H   0  0  0  0  0  0  0  0  0  0  0  0
   48.7161   28.0834   46.8634 H   0  0  0  0  0  0  0  0  0  0  0  0
   48.7295   31.4763   50.9122 H   0  0  0  0  0  0  0  0  0  0  0  0
   49.6558   29.3017   51.4627 H   0  0  0  0  0  0  0  0  0  0  0  0
   50.7435   29.2851   50.1030 H   0  0  0  0  0  0  0  0  0  0  0  0
   50.8113   31.0290   52.6304 H   0  0  0  0  0  0  0  0  0  0  0  0
   52.1749   30.2291   51.8597 H   0  0  0  0  0  0  0  0  0  0  0  0
   51.3101   32.9197   51.4416 H   0  0  0  0  0  0  0  0  0  0  0  0
   52.5061   32.0608   50.4474 H   0  0  0  0  0  0  0  0  0  0  0  0
   50.9489   31.6086   48.7690 H   0  0  0  0  0  0  0  0  0  0  0  0
   50.0783   32.9720   49.4275 H   0  0  0  0  0  0  0  0  0  0  0  0
   44.1905   35.8866   44.8970 H   0  0  0  0  0  0  0  0  0  0  0  0
   47.4006   33.4095   43.3955 H   0  0  0  0  0  0  0  0  0  0  0  0
  1  2  1  0
  2  7  2  0
  3  4  2  0
  3  2  1  0
  4  5  1  0
  5  6  2  0
  6  8  1  0
  7  6  1  0
  8  9  1  0
  9 10  1  0
 11 10  1  0
 12  8  1  0
 12 11  1  0
 13  1  1  0
 14 19  2  0
 15 16  2  0
 15 14  1  0
 16 17  1  0
 17 18  2  0
 18 13  1  0
 19 18  1  0
 20 21  1  0
 20 15  1  0
 22 20  1  0
 23 20  1  0
  1 24  1  0
  1 25  1  0
  3 26  1  0
  4 27  1  0
  8 28  1  0
  9 29  1  0
  9 30  1  0
 10 31  1  0
 10 32  1  0
 11 33  1  0
 11 34  1  0
 12 35  1  0
 12 36  1  0
 14 37  1  0
 16 38  1  0
M  ISO  8  24   8  25   8  26  14  27  14  28  13  29  13  30  13  31  13
M  ISO  7  32  13  33  13  34  13  35  13  36  13  37  14  38  14
M  END
>  <minimizedAffinity>  (1) 
-5.69535446

>  <minimizedRMSD>  (1) 
0.434596121

$$$$
