
     RDKit          3D

 36 38  0  0  1  0  0  0  0  0999 V2000
   47.2260   30.4800   47.5890 C   0  0  0  0  0  0  0  0  0  0  0  0
   47.9590   29.7600   46.6640 C   0  0  0  0  0  0  0  0  0  0  0  0
   49.1890   29.2890   47.0020 C   0  0  0  0  0  0  0  0  0  0  0  0
   49.7120   29.4990   48.2000 N   0  0  0  0  0  0  0  0  0  0  0  0
   49.0050   30.2000   49.1090 C   0  0  0  0  0  0  0  0  0  0  0  0
   47.7730   30.6930   48.8230 N   0  0  0  0  0  0  0  0  0  0  0  0
   50.7280   32.6640   49.8940 O   0  0  0  0  0  0  0  0  0  0  0  0
   50.5950   31.5440   50.4510 C   0  0  0  0  0  0  0  0  0  0  0  0
   49.5990   30.4420   50.4750 C   0  0  2  0  0  0  0  0  0  0  0  0
   50.4870   29.2660   50.8740 C   0  0  0  0  0  0  0  0  0  0  0  0
   51.2510   29.9430   52.0080 C   0  0  0  0  0  0  0  0  0  0  0  0
   51.6760   31.1570   51.3250 N   0  0  0  0  0  0  0  0  0  0  0  0
   45.9070   31.0900   47.4900 C   0  0  0  0  0  0  0  0  0  0  0  0
   46.0640   32.4860   47.4730 O   0  0  0  0  0  0  0  0  0  0  0  0
   44.9970   34.8860   45.0740 C   0  0  0  0  0  0  0  0  0  0  0  0
   45.8320   34.6690   43.9810 C   0  0  0  0  0  0  0  0  0  0  0  0
   46.7910   33.6510   44.1010 C   0  0  0  0  0  0  0  0  0  0  0  0
   46.8560   32.9450   45.2470 N   0  0  0  0  0  0  0  0  0  0  0  0
   46.0230   33.1970   46.2740 C   0  0  0  0  0  0  0  0  0  0  0  0
   45.0980   34.1580   46.1950 N   0  0  0  0  0  0  0  0  0  0  0  0
   45.6690   35.5150   42.7590 C   0  0  0  0  0  0  0  0  0  0  0  0
   45.2540   36.7480   43.2410 F   0  0  0  0  0  0  0  0  0  0  0  0
   44.6250   34.9360   42.0260 F   0  0  0  0  0  0  0  0  0  0  0  0
   46.8390   35.5560   42.0740 F   0  0  0  0  0  0  0  0  0  0  0  0
   47.5498   29.5693   45.6609 H   0  0  0  0  0  0  0  0  0  0  0  0
   49.7654   28.7177   46.2595 H   0  0  0  0  0  0  0  0  0  0  0  0
   48.7399   30.6310   51.1355 H   0  0  0  0  0  0  0  0  0  0  0  0
   49.9014   28.4033   51.2244 H   0  0  0  0  0  0  0  0  0  0  0  0
   51.1024   28.8348   50.0707 H   0  0  0  0  0  0  0  0  0  0  0  0
   50.5998   30.1626   52.8669 H   0  0  0  0  0  0  0  0  0  0  0  0
   52.0637   29.3447   52.4458 H   0  0  0  0  0  0  0  0  0  0  0  0
   52.5751   31.6454   51.4431 H   0  0  0  0  0  0  0  0  0  0  0  0
   45.4139   30.7603   46.5636 H   0  0  0  0  0  0  0  0  0  0  0  0
   45.2866   30.7899   48.3474 H   0  0  0  0  0  0  0  0  0  0  0  0
   44.2339   35.6761   45.0160 H   0  0  0  0  0  0  0  0  0  0  0  0
   47.4796   33.4327   43.2714 H   0  0  0  0  0  0  0  0  0  0  0  0
  1  6  2  0
  2  3  2  0
  2  1  1  0
  3  4  1  0
  4  5  2  0
  6  5  1  0
  7  8  2  0
  8  9  1  0
  8 12  1  0
  9  5  1  0
  9 10  1  0
 10 11  1  0
 12 11  1  0
 13  1  1  0
 14 13  1  0
 15 20  2  0
 16 17  2  0
 16 15  1  0
 17 18  1  0
 18 19  2  0
 19 14  1  0
 20 19  1  0
 21 22  1  0
 21 16  1  0
 23 21  1  0
 24 21  1  0
  2 25  1  0
  3 26  1  0
  9 27  1  1
 10 28  1  0
 10 29  1  0
 11 30  1  0
 11 31  1  0
 12 32  1  0
 13 33  1  0
 13 34  1  0
 15 35  1  0
 17 36  1  0
M  ISO  8  25  14  26  14  27  13  28  13  29  13  30  13  31  13  32  10
M  ISO  4  33   8  34   8  35  14  36  14
M  END
>  <minimizedAffinity>  (1) 
-5.71195221

>  <minimizedRMSD>  (1) 
0.894531429

$$$$
