
     RDKit          3D

 41 44  0  0  0  0  0  0  0  0999 V2000
   44.9410   35.0110   44.7730 C   0  0  0  0  0  0  0  0  0  0  0  0
   45.8810   34.5870   43.8320 C   0  0  0  0  0  0  0  0  0  0  0  0
   46.7570   33.5780   44.2320 C   0  0  0  0  0  0  0  0  0  0  0  0
   46.6800   33.0600   45.4610 N   0  0  0  0  0  0  0  0  0  0  0  0
   45.7450   33.5080   46.3400 C   0  0  0  0  0  0  0  0  0  0  0  0
   44.8950   34.4680   45.9920 N   0  0  0  0  0  0  0  0  0  0  0  0
   47.3650   31.8720   42.6920 C   0  0  0  0  0  0  0  0  0  0  0  0
   47.7900   33.0210   43.3720 C   0  0  0  0  0  0  0  0  0  0  0  0
   49.0790   33.4400   43.1080 C   0  0  0  0  0  0  0  0  0  0  0  0
   49.8730   32.7470   42.2240 C   0  0  0  0  0  0  0  0  0  0  0  0
   51.1400   33.0430   41.8770 N   0  0  0  0  0  0  0  0  0  0  0  0
   51.5380   32.1300   41.0050 N   0  0  0  0  0  0  0  0  0  0  0  0
   50.5400   31.2330   40.7750 C   0  0  0  0  0  0  0  0  0  0  0  0
   49.4650   31.6160   41.5500 C   0  0  0  0  0  0  0  0  0  0  0  0
   48.1800   31.1840   41.8020 C   0  0  0  0  0  0  0  0  0  0  0  0
   45.9230   35.2190   42.4790 C   0  0  0  0  0  0  0  0  0  0  0  0
   44.9460   36.2100   42.5480 F   0  0  0  0  0  0  0  0  0  0  0  0
   45.5030   34.2500   41.5880 F   0  0  0  0  0  0  0  0  0  0  0  0
   47.1440   35.7290   42.2330 F   0  0  0  0  0  0  0  0  0  0  0  0
   45.6230   33.0030   47.6220 O   0  0  0  0  0  0  0  0  0  0  0  0
   45.0540   31.7320   47.8440 C   0  0  0  0  0  0  0  0  0  0  0  0
   46.1450   30.7400   47.8340 C   0  0  0  0  0  0  0  0  0  0  0  0
   46.2090   29.4950   47.2310 C   0  0  0  0  0  0  0  0  0  0  0  0
   47.3670   28.7800   47.3830 C   0  0  0  0  0  0  0  0  0  0  0  0
   48.4030   29.2310   48.0720 N   0  0  0  0  0  0  0  0  0  0  0  0
   48.3190   30.4410   48.6480 C   0  0  0  0  0  0  0  0  0  0  0  0
   47.1950   31.2140   48.5410 N   0  0  0  0  0  0  0  0  0  0  0  0
   49.5310   30.8730   49.4040 C   0  0  0  0  0  0  0  0  0  0  0  0
   49.6360   32.2360   49.4470 F   0  0  0  0  0  0  0  0  0  0  0  0
   50.6830   30.3500   48.7920 F   0  0  0  0  0  0  0  0  0  0  0  0
   49.5220   30.4120   50.7040 F   0  0  0  0  0  0  0  0  0  0  0  0
   44.2274   35.8045   44.5062 H   0  0  0  0  0  0  0  0  0  0  0  0
   46.3453   31.4999   42.8700 H   0  0  0  0  0  0  0  0  0  0  0  0
   49.4744   34.3359   43.6091 H   0  0  0  0  0  0  0  0  0  0  0  0
   51.6977   33.8353   42.2264 H   0  0  0  0  0  0  0  0  0  0  0  0
   50.5828   30.3664   40.0988 H   0  0  0  0  0  0  0  0  0  0  0  0
   47.7969   30.2868   41.2938 H   0  0  0  0  0  0  0  0  0  0  0  0
   44.5430   31.7160   48.8180 H   0  0  0  0  0  0  0  0  0  0  0  0
   44.3171   31.4996   47.0611 H   0  0  0  0  0  0  0  0  0  0  0  0
   45.3627   29.0960   46.6525 H   0  0  0  0  0  0  0  0  0  0  0  0
   47.4392   27.7884   46.9123 H   0  0  0  0  0  0  0  0  0  0  0  0
  1  6  2  0
  2  3  2  0
  2  1  1  0
  3  4  1  0
  4  5  2  0
  5 20  1  0
  6  5  1  0
  7  8  2  0
  8  3  1  0
  9  8  1  0
 10  9  2  0
 11 10  1  0
 12 11  1  0
 13 12  2  0
 13 14  1  0
 14 15  2  0
 14 10  1  0
 15  7  1  0
 16 17  1  0
 16  2  1  0
 18 16  1  0
 19 16  1  0
 20 21  1  0
 22 21  1  0
 22 27  2  0
 23 24  2  0
 23 22  1  0
 24 25  1  0
 25 26  2  0
 26 28  1  0
 27 26  1  0
 28 29  1  0
 28 31  1  0
 30 28  1  0
  1 32  1  0
  7 33  1  0
  9 34  1  0
 11 35  1  0
 13 36  1  0
 15 37  1  0
 21 38  1  0
 21 39  1  0
 23 40  1  0
 24 41  1  0
M  ISO  8  32  14  33  14  34  14  35   9  36  14  37  14  38   8  39   8
M  ISO  2  40  14  41  14
M  END
>  <minimizedAffinity>  (1) 
-6.65165091

>  <minimizedRMSD>  (1) 
0.55879885

$$$$
