
     RDKit          3D

 38 40  0  0  0  0  0  0  0  0999 V2000
   44.8920   34.9810   44.9700 C   0  0  0  0  0  0  0  0  0  0  0  0
   45.8200   34.6770   43.9770 C   0  0  0  0  0  0  0  0  0  0  0  0
   46.7700   33.6890   44.2450 C   0  0  0  0  0  0  0  0  0  0  0  0
   46.7370   33.0800   45.4480 N   0  0  0  0  0  0  0  0  0  0  0  0
   45.8280   33.3970   46.3820 C   0  0  0  0  0  0  0  0  0  0  0  0
   44.9040   34.3480   46.1440 N   0  0  0  0  0  0  0  0  0  0  0  0
   45.8670   31.3940   42.6650 Cl  0  0  0  0  0  0  0  0  0  0  0  0
   47.3520   32.3340   42.4790 C   0  0  0  0  0  0  0  0  0  0  0  0
   47.7900   33.4140   43.2340 C   0  0  0  0  0  0  0  0  0  0  0  0
   48.9970   33.9980   42.9250 C   0  0  0  0  0  0  0  0  0  0  0  0
   49.7300   33.4960   41.8780 C   0  0  0  0  0  0  0  0  0  0  0  0
   49.3350   32.4200   41.0920 C   0  0  0  0  0  0  0  0  0  0  0  0
   48.1220   31.8420   41.4160 C   0  0  0  0  0  0  0  0  0  0  0  0
   45.7660   35.4300   42.6820 C   0  0  0  0  0  0  0  0  0  0  0  0
   44.8630   36.4530   42.9000 F   0  0  0  0  0  0  0  0  0  0  0  0
   45.2610   34.5470   41.7280 F   0  0  0  0  0  0  0  0  0  0  0  0
   47.0110   35.8970   42.3700 F   0  0  0  0  0  0  0  0  0  0  0  0
   45.7670   32.7920   47.6280 O   0  0  0  0  0  0  0  0  0  0  0  0
   45.2940   31.4840   47.7800 C   0  0  0  0  0  0  0  0  0  0  0  0
   46.4460   30.5750   47.8220 C   0  0  0  0  0  0  0  0  0  0  0  0
   46.6330   29.3260   47.2790 C   0  0  0  0  0  0  0  0  0  0  0  0
   47.8280   28.6940   47.4860 C   0  0  0  0  0  0  0  0  0  0  0  0
   48.8010   29.2540   48.1940 N   0  0  0  0  0  0  0  0  0  0  0  0
   48.6200   30.4830   48.7320 C   0  0  0  0  0  0  0  0  0  0  0  0
   47.4410   31.1610   48.5550 N   0  0  0  0  0  0  0  0  0  0  0  0
   49.7640   31.0300   49.5020 C   0  0  0  0  0  0  0  0  0  0  0  0
   49.7990   32.3930   49.4550 F   0  0  0  0  0  0  0  0  0  0  0  0
   50.9690   30.5030   49.0120 F   0  0  0  0  0  0  0  0  0  0  0  0
   49.6960   30.6680   50.8360 F   0  0  0  0  0  0  0  0  0  0  0  0
   44.1354   35.7572   44.7827 H   0  0  0  0  0  0  0  0  0  0  0  0
   49.3689   34.8537   43.5076 H   0  0  0  0  0  0  0  0  0  0  0  0
   50.6920   33.9765   41.6464 H   0  0  0  0  0  0  0  0  0  0  0  0
   49.9521   32.0497   40.2601 H   0  0  0  0  0  0  0  0  0  0  0  0
   47.7561   30.9846   40.8320 H   0  0  0  0  0  0  0  0  0  0  0  0
   44.7224   31.4024   48.7163 H   0  0  0  0  0  0  0  0  0  0  0  0
   44.6360   31.2206   46.9388 H   0  0  0  0  0  0  0  0  0  0  0  0
   45.8380   28.8450   46.6903 H   0  0  0  0  0  0  0  0  0  0  0  0
   47.9870   27.6949   47.0542 H   0  0  0  0  0  0  0  0  0  0  0  0
  1  6  2  0
  2  3  2  0
  2  1  1  0
  3  4  1  0
  4  5  2  0
  5 18  1  0
  6  5  1  0
  8  7  1  0
  8  9  2  0
  9  3  1  0
 10  9  1  0
 11 10  2  0
 12 13  2  0
 12 11  1  0
 13  8  1  0
 14 15  1  0
 14  2  1  0
 16 14  1  0
 17 14  1  0
 18 19  1  0
 19 20  1  0
 20 25  2  0
 21 22  2  0
 21 20  1  0
 22 23  1  0
 23 24  2  0
 24 26  1  0
 25 24  1  0
 26 29  1  0
 27 26  1  0
 28 26  1  0
  1 30  1  0
 10 31  1  0
 11 32  1  0
 12 33  1  0
 13 34  1  0
 19 35  1  0
 19 36  1  0
 21 37  1  0
 22 38  1  0
M  ISO  8  30  14  31  14  32  14  33  14  34  14  35   8  36   8  37  14
M  ISO  1  38  14
M  END
>  <minimizedAffinity>  (1) 
-6.2621088

>  <minimizedRMSD>  (1) 
0.977193713

$$$$
