
     RDKit          3D

 35 37  0  0  0  0  0  0  0  0999 V2000
   44.7130   35.0090   45.1200 C   0  0  0  0  0  0  0  0  0  0  0  0
   45.5280   34.8830   44.0020 C   0  0  0  0  0  0  0  0  0  0  0  0
   46.5980   33.9790   44.0890 C   0  0  0  0  0  0  0  0  0  0  0  0
   46.7500   33.2950   45.2540 N   0  0  0  0  0  0  0  0  0  0  0  0
   45.9410   33.4490   46.2990 C   0  0  0  0  0  0  0  0  0  0  0  0
   44.9290   34.2980   46.2390 N   0  0  0  0  0  0  0  0  0  0  0  0
   47.7380   33.7110   43.2120 C   0  0  0  0  0  0  0  0  0  0  0  0
   48.8480   34.4030   42.8560 C   0  0  0  0  0  0  0  0  0  0  0  0
   49.8310   33.9050   42.0990 C   0  0  0  0  0  0  0  0  0  0  0  0
   49.6630   32.5730   41.6640 C   0  0  0  0  0  0  0  0  0  0  0  0
   47.9960   32.1770   42.4560 S   0  0  0  0  0  0  0  0  0  0  0  0
   45.2160   35.6450   42.7640 C   0  0  0  0  0  0  0  0  0  0  0  0
   45.6730   36.9240   43.0460 F   0  0  0  0  0  0  0  0  0  0  0  0
   43.8170   35.6930   42.6470 F   0  0  0  0  0  0  0  0  0  0  0  0
   45.7940   35.0850   41.7130 F   0  0  0  0  0  0  0  0  0  0  0  0
   46.1120   32.7460   47.4830 O   0  0  0  0  0  0  0  0  0  0  0  0
   45.7350   31.4110   47.6060 C   0  0  0  0  0  0  0  0  0  0  0  0
   46.9560   30.6130   47.8260 C   0  0  0  0  0  0  0  0  0  0  0  0
   47.2550   29.3330   47.4130 C   0  0  0  0  0  0  0  0  0  0  0  0
   48.4590   28.8260   47.7500 C   0  0  0  0  0  0  0  0  0  0  0  0
   49.3550   29.5070   48.4550 N   0  0  0  0  0  0  0  0  0  0  0  0
   49.0610   30.7550   48.8560 C   0  0  0  0  0  0  0  0  0  0  0  0
   47.8620   31.3190   48.5470 N   0  0  0  0  0  0  0  0  0  0  0  0
   50.1200   31.4360   49.6360 C   0  0  0  0  0  0  0  0  0  0  0  0
   50.0520   32.7980   49.4810 F   0  0  0  0  0  0  0  0  0  0  0  0
   51.3820   30.9880   49.2370 F   0  0  0  0  0  0  0  0  0  0  0  0
   50.0130   31.1660   50.9840 F   0  0  0  0  0  0  0  0  0  0  0  0
   43.8667   35.7110   45.0880 H   0  0  0  0  0  0  0  0  0  0  0  0
   48.9460   35.4391   43.2123 H   0  0  0  0  0  0  0  0  0  0  0  0
   50.7179   34.4981   41.8312 H   0  0  0  0  0  0  0  0  0  0  0  0
   50.3169   31.9449   41.0412 H   0  0  0  0  0  0  0  0  0  0  0  0
   45.0523   31.2927   48.4604 H   0  0  0  0  0  0  0  0  0  0  0  0
   45.2161   31.0742   46.6964 H   0  0  0  0  0  0  0  0  0  0  0  0
   46.5348   28.7431   46.8270 H   0  0  0  0  0  0  0  0  0  0  0  0
   48.7092   27.8047   47.4269 H   0  0  0  0  0  0  0  0  0  0  0  0
  1  6  2  0
  2  3  2  0
  2  1  1  0
  3  4  1  0
  4  5  2  0
  5 16  1  0
  6  5  1  0
  7  3  1  0
  8  7  2  0
  9  8  1  0
 10  9  2  0
 10 11  1  0
 11  7  1  0
 12 13  1  0
 12  2  1  0
 14 12  1  0
 15 12  1  0
 16 17  1  0
 17 18  1  0
 18 23  2  0
 19 20  2  0
 19 18  1  0
 20 21  1  0
 21 22  2  0
 22 24  1  0
 23 22  1  0
 24 27  1  0
 25 24  1  0
 26 24  1  0
  1 28  1  0
  8 29  1  0
  9 30  1  0
 10 31  1  0
 17 32  1  0
 17 33  1  0
 19 34  1  0
 20 35  1  0
M  ISO  8  28  14  29  14  30  14  31  14  32   8  33   8  34  14  35  14
M  END
>  <minimizedAffinity>  (1) 
-6.07284498

>  <minimizedRMSD>  (1) 
0.609722018

$$$$
