
     RDKit          3D

 30 31  0  0  0  0  0  0  0  0999 V2000
   44.9930   31.6790   47.9370 C   0  0  0  0  0  0  0  0  0  0  0  0
   46.0860   30.7060   47.8820 C   0  0  0  0  0  0  0  0  0  0  0  0
   46.1700   29.4920   47.2120 C   0  0  0  0  0  0  0  0  0  0  0  0
   47.3160   28.7670   47.3270 C   0  0  0  0  0  0  0  0  0  0  0  0
   48.3460   29.1730   48.0510 N   0  0  0  0  0  0  0  0  0  0  0  0
   48.2640   30.3460   48.6980 C   0  0  0  0  0  0  0  0  0  0  0  0
   47.1360   31.1250   48.6220 N   0  0  0  0  0  0  0  0  0  0  0  0
   49.4720   30.7280   49.4910 C   0  0  0  0  0  0  0  0  0  0  0  0
   49.5920   32.0970   49.6000 F   0  0  0  0  0  0  0  0  0  0  0  0
   50.6220   30.2060   48.8810 F   0  0  0  0  0  0  0  0  0  0  0  0
   49.4180   30.2150   50.7750 F   0  0  0  0  0  0  0  0  0  0  0  0
   45.5460   32.9570   47.7380 O   0  0  0  0  0  0  0  0  0  0  0  0
   44.8880   35.0570   44.9370 C   0  0  0  0  0  0  0  0  0  0  0  0
   45.8060   34.6460   43.9790 C   0  0  0  0  0  0  0  0  0  0  0  0
   46.6520   33.6130   44.3590 C   0  0  0  0  0  0  0  0  0  0  0  0
   46.5850   33.0530   45.5700 N   0  0  0  0  0  0  0  0  0  0  0  0
   45.6830   33.4820   46.4590 C   0  0  0  0  0  0  0  0  0  0  0  0
   44.8610   34.4660   46.1290 N   0  0  0  0  0  0  0  0  0  0  0  0
   45.8480   35.2980   42.6390 C   0  0  0  0  0  0  0  0  0  0  0  0
   44.9590   36.3580   42.7650 F   0  0  0  0  0  0  0  0  0  0  0  0
   45.2930   34.3710   41.7470 F   0  0  0  0  0  0  0  0  0  0  0  0
   47.1070   35.6620   42.3250 F   0  0  0  0  0  0  0  0  0  0  0  0
   47.6450   33.0900   43.4620 C   0  0  0  0  0  0  0  0  0  0  0  0
   48.7220   32.9520   42.9140 O   0  0  0  0  0  0  0  0  0  0  0  0
   44.2584   31.4619   47.1476 H   0  0  0  0  0  0  0  0  0  0  0  0
   44.4814   31.6284   48.9095 H   0  0  0  0  0  0  0  0  0  0  0  0
   45.3304   29.1255   46.6031 H   0  0  0  0  0  0  0  0  0  0  0  0
   47.3886   27.8058   46.7972 H   0  0  0  0  0  0  0  0  0  0  0  0
   44.1835   35.8708   44.7104 H   0  0  0  0  0  0  0  0  0  0  0  0
   47.0538   32.3278   42.9334 H   0  0  0  0  0  0  0  0  0  0  0  0
  2  1  1  0
  2  7  2  0
  3  4  2  0
  3  2  1  0
  4  5  1  0
  5  6  2  0
  6  8  1  0
  7  6  1  0
  8  9  1  0
  8 11  1  0
 10  8  1  0
 12  1  1  0
 13 18  2  0
 14 15  2  0
 14 13  1  0
 15 16  1  0
 16 17  2  0
 17 12  1  0
 18 17  1  0
 19 20  1  0
 19 14  1  0
 21 19  1  0
 22 19  1  0
 23 15  1  0
 24 23  2  0
  1 25  1  0
  1 26  1  0
  3 27  1  0
  4 28  1  0
 13 29  1  0
 23 30  1  0
M  ISO  6  25   8  26   8  27  14  28  14  29  14  30   6
M  END
>  <minimizedAffinity>  (1) 
-5.48108673

>  <minimizedRMSD>  (1) 
0.535751164

$$$$
