
     RDKit          3D

 35 37  0  0  0  0  0  0  0  0999 V2000
   44.8410   36.3620   42.9350 Cl  0  0  0  0  0  0  0  0  0  0  0  0
   45.4310   35.1240   43.9820 C   0  0  0  0  0  0  0  0  0  0  0  0
   46.4490   34.3140   43.5820 C   0  0  0  0  0  0  0  0  0  0  0  0
   46.8610   33.3450   44.4890 C   0  0  0  0  0  0  0  0  0  0  0  0
   46.3130   33.1570   45.7420 C   0  0  0  0  0  0  0  0  0  0  0  0
   45.2880   33.9920   46.1110 C   0  0  0  0  0  0  0  0  0  0  0  0
   44.6200   33.7230   47.7070 Cl  0  0  0  0  0  0  0  0  0  0  0  0
   44.8500   34.9650   45.2450 C   0  0  0  0  0  0  0  0  0  0  0  0
   48.7790   35.3880   40.9790 C   0  0  0  0  0  0  0  0  0  0  0  0
   48.3340   34.7050   39.8430 C   0  0  0  0  0  0  0  0  0  0  0  0
   47.2110   33.8620   39.9750 C   0  0  0  0  0  0  0  0  0  0  0  0
   46.6400   33.7690   41.1990 N   0  0  0  0  0  0  0  0  0  0  0  0
   47.0920   34.4380   42.2720 C   0  0  0  0  0  0  0  0  0  0  0  0
   48.1660   35.2540   42.1740 N   0  0  0  0  0  0  0  0  0  0  0  0
   46.8860   32.0990   46.5190 N   0  0  0  0  0  0  0  0  0  0  0  0
   47.3390   30.7940   46.0330 C   0  0  0  0  0  0  0  0  0  0  0  0
   47.2490   29.8110   47.1870 C   0  0  0  0  0  0  0  0  0  0  0  0
   48.0950   30.2090   48.3640 C   0  0  0  0  0  0  0  0  0  0  0  0
   48.3800   31.7030   48.2960 C   0  0  0  0  0  0  0  0  0  0  0  0
   47.0370   32.3390   47.9470 C   0  0  0  0  0  0  0  0  0  0  0  0
   47.6832   32.6797   44.1866 H   0  0  0  0  0  0  0  0  0  0  0  0
   44.0287   35.6302   45.5499 H   0  0  0  0  0  0  0  0  0  0  0  0
   49.6519   36.0522   40.8966 H   0  0  0  0  0  0  0  0  0  0  0  0
   48.8444   34.8216   38.8756 H   0  0  0  0  0  0  0  0  0  0  0  0
   46.8141   33.3013   39.1159 H   0  0  0  0  0  0  0  0  0  0  0  0
   46.6961   30.4593   45.2056 H   0  0  0  0  0  0  0  0  0  0  0  0
   48.3733   30.8596   45.6645 H   0  0  0  0  0  0  0  0  0  0  0  0
   46.2005   29.7489   47.5138 H   0  0  0  0  0  0  0  0  0  0  0  0
   47.6238   28.8424   46.8245 H   0  0  0  0  0  0  0  0  0  0  0  0
   47.5587   29.9792   49.2965 H   0  0  0  0  0  0  0  0  0  0  0  0
   49.0430   29.6515   48.3420 H   0  0  0  0  0  0  0  0  0  0  0  0
   48.7438   32.0729   49.2659 H   0  0  0  0  0  0  0  0  0  0  0  0
   49.1589   31.9446   47.5578 H   0  0  0  0  0  0  0  0  0  0  0  0
   47.0491   33.4178   48.1618 H   0  0  0  0  0  0  0  0  0  0  0  0
   46.2074   31.9182   48.5341 H   0  0  0  0  0  0  0  0  0  0  0  0
  1  2  1  0
  2  8  2  0
  3  2  1  0
  3  4  2  0
  4  5  1  0
  5  6  2  0
  5 15  1  0
  6  7  1  0
  8  6  1  0
  9 14  2  0
 10 11  2  0
 10  9  1  0
 11 12  1  0
 12 13  2  0
 13  3  1  0
 14 13  1  0
 15 20  1  0
 16 15  1  0
 16 17  1  0
 17 18  1  0
 19 18  1  0
 20 19  1  0
  4 21  1  0
  8 22  1  0
  9 23  1  0
 10 24  1  0
 11 25  1  0
 16 26  1  0
 16 27  1  0
 17 28  1  0
 17 29  1  0
 18 30  1  0
 18 31  1  0
 19 32  1  0
 19 33  1  0
 20 34  1  0
 20 35  1  0
M  ISO  8  21  14  22  14  23  14  24  14  25  14  26  13  27  13  28  13
M  ISO  7  29  13  30  13  31  13  32  13  33  13  34  13  35  13
M  END
>  <minimizedAffinity>  (1) 
-5.62052155

>  <minimizedRMSD>  (1) 
0.834699214

$$$$
