
     RDKit          3D

 22 23  0  0  0  0  0  0  0  0999 V2000
   45.4640   34.0130   45.3620 C   0  0  0  0  0  0  0  0  0  0  0  0
   44.6500   35.1460   45.5950 C   0  0  0  0  0  0  0  0  0  0  0  0
   44.5590   36.1420   44.5990 C   0  0  0  0  0  0  0  0  0  0  0  0
   45.2780   35.9390   43.4540 N   0  0  0  0  0  0  0  0  0  0  0  0
   46.0390   34.8580   43.2610 C   0  0  0  0  0  0  0  0  0  0  0  0
   46.1240   33.9170   44.2040 N   0  0  0  0  0  0  0  0  0  0  0  0
   45.5510   33.0170   46.3620 N   0  0  0  0  0  0  0  0  0  0  0  0
   45.0780   33.3530   41.1400 F   0  0  0  0  0  0  0  0  0  0  0  0
   46.2560   33.9630   40.9730 C   0  0  0  0  0  0  0  0  0  0  0  0
   46.7810   34.7240   41.9960 C   0  0  0  0  0  0  0  0  0  0  0  0
   47.9920   35.3820   41.8930 C   0  0  0  0  0  0  0  0  0  0  0  0
   48.7410   35.2980   40.7270 C   0  0  0  0  0  0  0  0  0  0  0  0
   48.1680   34.5170   39.7230 C   0  0  0  0  0  0  0  0  0  0  0  0
   46.9620   33.8470   39.7920 C   0  0  0  0  0  0  0  0  0  0  0  0
   44.0955   35.2495   46.5394 H   0  0  0  0  0  0  0  0  0  0  0  0
   43.9385   37.0397   44.7376 H   0  0  0  0  0  0  0  0  0  0  0  0
   46.1387   32.1849   46.2103 H   0  0  0  0  0  0  0  0  0  0  0  0
   45.0267   33.1237   47.2421 H   0  0  0  0  0  0  0  0  0  0  0  0
   48.3649   35.9761   42.7403 H   0  0  0  0  0  0  0  0  0  0  0  0
   49.7087   35.8065   40.6046 H   0  0  0  0  0  0  0  0  0  0  0  0
   48.7325   34.4257   38.7833 H   0  0  0  0  0  0  0  0  0  0  0  0
   46.5831   33.2511   38.9486 H   0  0  0  0  0  0  0  0  0  0  0  0
  1  2  2  0
  1  7  1  0
  3  2  1  0
  4  3  2  0
  5  4  1  0
  5  6  2  0
  6  1  1  0
  9  8  1  0
  9 10  2  0
 10  5  1  0
 11 10  1  0
 12 11  2  0
 13 14  2  0
 13 12  1  0
 14  9  1  0
  2 15  1  0
  3 16  1  0
  7 17  1  0
  7 18  1  0
 11 19  1  0
 12 20  1  0
 13 21  1  0
 14 22  1  0
M  ISO  6  15  14  16  14  19  14  20  14  21  14  22  14
M  END
>  <minimizedAffinity>  (1) 
-5.39271641

>  <minimizedRMSD>  (1) 
6.37014103

$$$$
