
     RDKit          3D

 36 39  0  0  0  0  0  0  0  0999 V2000
   44.8710   33.6040   41.1110 F   0  0  0  0  0  0  0  0  0  0  0  0
   46.1110   34.0820   40.9610 C   0  0  0  0  0  0  0  0  0  0  0  0
   46.7120   34.7650   41.9980 C   0  0  0  0  0  0  0  0  0  0  0  0
   47.9910   35.2930   41.9270 C   0  0  0  0  0  0  0  0  0  0  0  0
   48.7220   35.1330   40.7510 C   0  0  0  0  0  0  0  0  0  0  0  0
   48.0860   34.4430   39.7320 C   0  0  0  0  0  0  0  0  0  0  0  0
   46.8210   33.9150   39.7870 C   0  0  0  0  0  0  0  0  0  0  0  0
   46.2340   33.1910   38.6590 C   0  0  0  0  0  0  0  0  0  0  0  0
   44.9590   32.7660   38.8820 N   0  0  0  0  0  0  0  0  0  0  0  0
   44.2980   32.0810   37.9130 C   0  0  0  0  0  0  0  0  0  0  0  0
   44.9060   31.8190   36.7230 N   0  0  0  0  0  0  0  0  0  0  0  0
   46.1600   32.2230   36.4690 C   0  0  0  0  0  0  0  0  0  0  0  0
   46.8060   31.9790   35.2710 C   0  0  0  0  0  0  0  0  0  0  0  0
   48.0990   32.4160   35.0450 C   0  0  0  0  0  0  0  0  0  0  0  0
   48.7170   33.1080   36.0710 C   0  0  0  0  0  0  0  0  0  0  0  0
   48.1340   33.3930   37.3050 C   0  0  0  0  0  0  0  0  0  0  0  0
   46.8500   32.9190   37.4360 C   0  0  0  0  0  0  0  0  0  0  0  0
   45.4270   34.2210   45.4160 C   0  0  0  0  0  0  0  0  0  0  0  0
   44.5980   35.3440   45.5880 C   0  0  0  0  0  0  0  0  0  0  0  0
   44.4810   36.2860   44.5310 C   0  0  0  0  0  0  0  0  0  0  0  0
   45.1970   36.0270   43.4000 N   0  0  0  0  0  0  0  0  0  0  0  0
   45.9750   34.9580   43.2630 C   0  0  0  0  0  0  0  0  0  0  0  0
   46.0850   34.0700   44.2610 N   0  0  0  0  0  0  0  0  0  0  0  0
   45.5420   33.2890   46.4630 N   0  0  0  0  0  0  0  0  0  0  0  0
   48.4225   35.8297   42.7847 H   0  0  0  0  0  0  0  0  0  0  0  0
   49.7416   35.5304   40.6390 H   0  0  0  0  0  0  0  0  0  0  0  0
   48.6454   34.3062   38.7948 H   0  0  0  0  0  0  0  0  0  0  0  0
   43.2683   31.7368   38.0901 H   0  0  0  0  0  0  0  0  0  0  0  0
   46.2799   31.4249   34.4797 H   0  0  0  0  0  0  0  0  0  0  0  0
   48.6127   32.2218   34.0919 H   0  0  0  0  0  0  0  0  0  0  0  0
   49.7452   33.4597   35.9006 H   0  0  0  0  0  0  0  0  0  0  0  0
   48.6537   33.9464   38.1010 H   0  0  0  0  0  0  0  0  0  0  0  0
   44.0473   35.4911   46.5288 H   0  0  0  0  0  0  0  0  0  0  0  0
   43.8450   37.1790   44.6205 H   0  0  0  0  0  0  0  0  0  0  0  0
   46.1453   32.4616   46.3520 H   0  0  0  0  0  0  0  0  0  0  0  0
   45.0230   33.4339   47.3408 H   0  0  0  0  0  0  0  0  0  0  0  0
  2  1  1  0
  2  3  2  0
  3 22  1  0
  4  3  1  0
  5  4  2  0
  6  7  2  0
  6  5  1  0
  7  2  1  0
  8  9  2  0
  8  7  1  0
 10  9  1  0
 11 10  2  0
 12 11  1  0
 12 17  2  0
 13 12  1  0
 14 13  2  0
 14 15  1  0
 15 16  2  0
 16 17  1  0
 17  8  1  0
 18 19  2  0
 18 24  1  0
 20 19  1  0
 21 20  2  0
 22 21  1  0
 22 23  2  0
 23 18  1  0
  4 25  1  0
  5 26  1  0
  6 27  1  0
 10 28  1  0
 13 29  1  0
 14 30  1  0
 15 31  1  0
 16 32  1  0
 19 33  1  0
 20 34  1  0
 24 35  1  0
 24 36  1  0
M  ISO  8  25  14  26  14  27  14  28  14  29  14  30  14  31  14  32  14
M  ISO  2  33  14  34  14
M  END
>  <minimizedAffinity>  (1) 
-6.8574934

>  <minimizedRMSD>  (1) 
0.382932425

$$$$
