
     RDKit          3D

 32 34  0  0  0  0  0  0  0  0999 V2000
   45.2130   33.5720   41.0300 F   0  0  0  0  0  0  0  0  0  0  0  0
   46.4100   34.1580   40.9440 C   0  0  0  0  0  0  0  0  0  0  0  0
   46.8980   34.8570   42.0280 C   0  0  0  0  0  0  0  0  0  0  0  0
   48.1290   35.4880   42.0090 C   0  0  0  0  0  0  0  0  0  0  0  0
   48.9300   35.4350   40.8700 C   0  0  0  0  0  0  0  0  0  0  0  0
   48.3900   34.7210   39.8140 C   0  0  0  0  0  0  0  0  0  0  0  0
   47.1750   34.0840   39.7960 C   0  0  0  0  0  0  0  0  0  0  0  0
   48.6050   34.3420   37.4850 F   0  0  0  0  0  0  0  0  0  0  0  0
   47.5000   33.5520   37.4960 C   0  0  0  0  0  0  0  0  0  0  0  0
   46.7100   33.3580   38.6170 C   0  0  0  0  0  0  0  0  0  0  0  0
   45.5970   32.5390   38.5570 C   0  0  0  0  0  0  0  0  0  0  0  0
   45.3130   31.9300   37.3370 C   0  0  0  0  0  0  0  0  0  0  0  0
   46.1050   32.1290   36.2240 C   0  0  0  0  0  0  0  0  0  0  0  0
   47.2210   32.9460   36.2740 C   0  0  0  0  0  0  0  0  0  0  0  0
   45.4820   34.0700   45.3250 C   0  0  0  0  0  0  0  0  0  0  0  0
   44.6130   35.1630   45.5350 C   0  0  0  0  0  0  0  0  0  0  0  0
   44.5220   36.1620   44.5390 C   0  0  0  0  0  0  0  0  0  0  0  0
   45.2930   36.0000   43.4250 N   0  0  0  0  0  0  0  0  0  0  0  0
   46.1040   34.9510   43.2600 C   0  0  0  0  0  0  0  0  0  0  0  0
   46.1960   34.0000   44.2010 N   0  0  0  0  0  0  0  0  0  0  0  0
   45.5630   33.0800   46.3280 N   0  0  0  0  0  0  0  0  0  0  0  0
   48.4774   36.0345   42.8978 H   0  0  0  0  0  0  0  0  0  0  0  0
   49.9145   35.9224   40.8143 H   0  0  0  0  0  0  0  0  0  0  0  0
   48.9956   34.6581   38.8978 H   0  0  0  0  0  0  0  0  0  0  0  0
   44.9605   32.3749   39.4390 H   0  0  0  0  0  0  0  0  0  0  0  0
   44.4343   31.2730   37.2583 H   0  0  0  0  0  0  0  0  0  0  0  0
   45.8442   31.6288   35.2796 H   0  0  0  0  0  0  0  0  0  0  0  0
   47.8567   33.1087   35.3911 H   0  0  0  0  0  0  0  0  0  0  0  0
   44.0176   35.2358   46.4570 H   0  0  0  0  0  0  0  0  0  0  0  0
   43.8588   37.0317   44.6569 H   0  0  0  0  0  0  0  0  0  0  0  0
   46.1880   32.2708   46.2036 H   0  0  0  0  0  0  0  0  0  0  0  0
   44.9971   33.1669   47.1842 H   0  0  0  0  0  0  0  0  0  0  0  0
  2  1  1  0
  2  3  2  0
  3 19  1  0
  4  3  1  0
  5  4  2  0
  6  5  1  0
  7  6  2  0
  7  2  1  0
  8  9  1  0
  9 10  2  0
 10  7  1  0
 11 10  1  0
 12 11  2  0
 13 14  2  0
 13 12  1  0
 14  9  1  0
 15 16  2  0
 15 21  1  0
 17 16  1  0
 18 17  2  0
 19 18  1  0
 19 20  2  0
 20 15  1  0
  4 22  1  0
  5 23  1  0
  6 24  1  0
 11 25  1  0
 12 26  1  0
 13 27  1  0
 14 28  1  0
 16 29  1  0
 17 30  1  0
 21 31  1  0
 21 32  1  0
M  ISO  8  22  14  23  14  24  14  25  14  26  14  27  14  28  14  29  14
M  ISO  1  30  14
M  END
>  <minimizedAffinity>  (1) 
-6.33048439

>  <minimizedRMSD>  (1) 
0.339228243

$$$$
