
     RDKit          3D

 29 31  0  0  0  0  0  0  0  0999 V2000
   45.1510   33.4040   41.0440 F   0  0  0  0  0  0  0  0  0  0  0  0
   46.3340   34.0100   40.8970 C   0  0  0  0  0  0  0  0  0  0  0  0
   46.8380   34.7770   41.9300 C   0  0  0  0  0  0  0  0  0  0  0  0
   48.0510   35.4260   41.8390 C   0  0  0  0  0  0  0  0  0  0  0  0
   48.8190   35.3290   40.6910 C   0  0  0  0  0  0  0  0  0  0  0  0
   48.2710   34.5480   39.6850 C   0  0  0  0  0  0  0  0  0  0  0  0
   47.0710   33.8880   39.7340 C   0  0  0  0  0  0  0  0  0  0  0  0
   45.4530   34.0810   45.2630 C   0  0  0  0  0  0  0  0  0  0  0  0
   44.6450   35.2140   45.4820 C   0  0  0  0  0  0  0  0  0  0  0  0
   44.5790   36.2160   44.4830 C   0  0  0  0  0  0  0  0  0  0  0  0
   45.3230   36.0000   43.3530 N   0  0  0  0  0  0  0  0  0  0  0  0
   46.0750   34.9230   43.1740 C   0  0  0  0  0  0  0  0  0  0  0  0
   46.1310   33.9870   44.1200 N   0  0  0  0  0  0  0  0  0  0  0  0
   45.5160   33.0810   46.2670 N   0  0  0  0  0  0  0  0  0  0  0  0
   46.5780   33.0940   38.6330 C   0  0  0  0  0  0  0  0  0  0  0  0
   46.7200   33.4320   37.3030 C   0  0  0  0  0  0  0  0  0  0  0  0
   46.1210   32.4260   36.5800 C   0  0  0  0  0  0  0  0  0  0  0  0
   45.6350   31.5150   37.4930 C   0  0  0  0  0  0  0  0  0  0  0  0
   45.9390   31.9700   38.6800 O   0  0  0  0  0  0  0  0  0  0  0  0
   48.4122   36.0267   42.6867 H   0  0  0  0  0  0  0  0  0  0  0  0
   49.7907   35.8336   40.5851 H   0  0  0  0  0  0  0  0  0  0  0  0
   48.8556   34.4486   38.7585 H   0  0  0  0  0  0  0  0  0  0  0  0
   44.0733   35.3191   46.4158 H   0  0  0  0  0  0  0  0  0  0  0  0
   43.9635   37.1191   44.6077 H   0  0  0  0  0  0  0  0  0  0  0  0
   46.1011   32.2453   46.1255 H   0  0  0  0  0  0  0  0  0  0  0  0
   44.9766   33.1906   47.1376 H   0  0  0  0  0  0  0  0  0  0  0  0
   47.2143   34.3283   36.9002 H   0  0  0  0  0  0  0  0  0  0  0  0
   46.0447   32.3613   35.4846 H   0  0  0  0  0  0  0  0  0  0  0  0
   45.0950   30.5839   37.2663 H   0  0  0  0  0  0  0  0  0  0  0  0
  2  1  1  0
  2  3  2  0
  3 12  1  0
  4  3  1  0
  5  4  2  0
  6  7  2  0
  6  5  1  0
  7  2  1  0
  8  9  2  0
  8 14  1  0
 10  9  1  0
 11 10  2  0
 12 11  1  0
 12 13  2  0
 13  8  1  0
 15 19  1  0
 15  7  1  0
 16 15  2  0
 17 16  1  0
 17 18  2  0
 18 19  1  0
  4 20  1  0
  5 21  1  0
  6 22  1  0
  9 23  1  0
 10 24  1  0
 14 25  1  0
 14 26  1  0
 16 27  1  0
 17 28  1  0
 18 29  1  0
M  ISO  8  20  14  21  14  22  14  23  14  24  14  27  14  28  14  29  14
M  END
>  <minimizedAffinity>  (1) 
-5.91488886

>  <minimizedRMSD>  (1) 
0.138828769

$$$$
