
     RDKit          3D

 23 24  0  0  0  0  0  0  0  0999 V2000
   45.0650   33.3500   41.1480 F   0  0  0  0  0  0  0  0  0  0  0  0
   46.2380   33.9560   40.9810 C   0  0  0  0  0  0  0  0  0  0  0  0
   46.7690   34.7260   41.9980 C   0  0  0  0  0  0  0  0  0  0  0  0
   47.9770   35.3780   41.8900 C   0  0  0  0  0  0  0  0  0  0  0  0
   48.7220   35.2790   40.7210 C   0  0  0  0  0  0  0  0  0  0  0  0
   48.1560   34.4980   39.7270 C   0  0  0  0  0  0  0  0  0  0  0  0
   46.9570   33.8360   39.8010 C   0  0  0  0  0  0  0  0  0  0  0  0
   45.4540   34.0220   45.3630 C   0  0  0  0  0  0  0  0  0  0  0  0
   44.6490   35.1450   45.6030 C   0  0  0  0  0  0  0  0  0  0  0  0
   44.5590   36.1480   44.6020 C   0  0  0  0  0  0  0  0  0  0  0  0
   45.2750   35.9440   43.4590 N   0  0  0  0  0  0  0  0  0  0  0  0
   46.0260   34.8710   43.2640 C   0  0  0  0  0  0  0  0  0  0  0  0
   46.1150   33.9200   44.2070 N   0  0  0  0  0  0  0  0  0  0  0  0
   45.5360   33.0290   46.3670 N   0  0  0  0  0  0  0  0  0  0  0  0
   46.3040   32.8540   38.4750 S   0  0  0  0  0  0  0  0  0  0  0  0
   48.3533   35.9787   42.7311 H   0  0  0  0  0  0  0  0  0  0  0  0
   49.6909   35.7842   40.5943 H   0  0  0  0  0  0  0  0  0  0  0  0
   48.7219   34.3992   38.7889 H   0  0  0  0  0  0  0  0  0  0  0  0
   44.0975   35.2469   46.5493 H   0  0  0  0  0  0  0  0  0  0  0  0
   43.9410   37.0472   44.7417 H   0  0  0  0  0  0  0  0  0  0  0  0
   46.1195   32.1933   46.2184 H   0  0  0  0  0  0  0  0  0  0  0  0
   45.0122   33.1416   47.2467 H   0  0  0  0  0  0  0  0  0  0  0  0
   45.6015   31.7976   38.9921 H   0  0  0  0  0  0  0  0  0  0  0  0
  2  1  1  0
  2  3  2  0
  3 12  1  0
  4  3  1  0
  5  4  2  0
  6  7  2  0
  6  5  1  0
  7  2  1  0
  8  9  2  0
  8 14  1  0
 10  9  1  0
 11 10  2  0
 12 11  1  0
 12 13  2  0
 13  8  1  0
 15  7  1  0
  4 16  1  0
  5 17  1  0
  6 18  1  0
  9 19  1  0
 10 20  1  0
 14 21  1  0
 14 22  1  0
 15 23  1  0
M  ISO  6  16  14  17  14  18  14  19  14  20  14  23  11
M  END
>  <minimizedAffinity>  (1) 
-5.50348186

>  <minimizedRMSD>  (1) 
0.0162264537

$$$$
