
     RDKit          3D

 33 36  0  0  1  0  0  0  0  0999 V2000
   46.2210   34.2550   40.6210 C   0  0  1  0  0  0  0  0  0  0  0  0
   45.7260   33.0320   39.9870 C   0  0  0  0  0  0  0  0  0  0  0  0
   45.0610   33.5330   41.2320 C   0  0  2  0  0  0  0  0  0  0  0  0
   43.6690   33.9120   41.0610 C   0  0  0  0  0  0  0  0  0  0  0  0
   43.2090   35.1020   40.5330 C   0  0  0  0  0  0  0  0  0  0  0  0
   41.9060   35.4670   40.3680 C   0  0  0  0  0  0  0  0  0  0  0  0
   40.9240   34.5750   40.7580 C   0  0  0  0  0  0  0  0  0  0  0  0
   41.3120   33.3670   41.2930 C   0  0  0  0  0  0  0  0  0  0  0  0
   40.2820   32.5270   41.6590 C   0  0  0  0  0  0  0  0  0  0  0  0
   40.5920   31.2810   42.2110 C   0  0  0  0  0  0  0  0  0  0  0  0
   41.9160   30.9260   42.3720 C   0  0  0  0  0  0  0  0  0  0  0  0
   42.8890   31.8080   41.9870 C   0  0  0  0  0  0  0  0  0  0  0  0
   42.6660   33.0440   41.4410 C   0  0  0  0  0  0  0  0  0  0  0  0
   48.3670   35.3630   41.4720 C   0  0  0  0  0  0  0  0  0  0  0  0
   47.5360   34.2150   41.3400 C   0  0  0  0  0  0  0  0  0  0  0  0
   47.9920   33.0180   41.8990 C   0  0  0  0  0  0  0  0  0  0  0  0
   49.1940   33.0180   42.5320 N   0  0  0  0  0  0  0  0  0  0  0  0
   49.9610   34.1300   42.6390 C   0  0  0  0  0  0  0  0  0  0  0  0
   49.5350   35.2990   42.1040 N   0  0  0  0  0  0  0  0  0  0  0  0
   46.4015   35.2829   40.2734 H   0  0  0  0  0  0  0  0  0  0  0  0
   45.1989   33.0890   39.0232 H   0  0  0  0  0  0  0  0  0  0  0  0
   46.1827   32.0782   39.6840 H   0  0  0  0  0  0  0  0  0  0  0  0
   44.8619   33.2210   42.2679 H   0  0  0  0  0  0  0  0  0  0  0  0
   43.9705   35.8286   40.2134 H   0  0  0  0  0  0  0  0  0  0  0  0
   41.6430   36.4441   39.9365 H   0  0  0  0  0  0  0  0  0  0  0  0
   39.8588   34.8244   40.6436 H   0  0  0  0  0  0  0  0  0  0  0  0
   39.2345   32.8321   41.5190 H   0  0  0  0  0  0  0  0  0  0  0  0
   39.7902   30.5914   42.5136 H   0  0  0  0  0  0  0  0  0  0  0  0
   42.1847   29.9502   42.8027 H   0  0  0  0  0  0  0  0  0  0  0  0
   43.9353   31.4990   42.1275 H   0  0  0  0  0  0  0  0  0  0  0  0
   48.0368   36.3207   41.0433 H   0  0  0  0  0  0  0  0  0  0  0  0
   47.3924   32.0985   41.8282 H   0  0  0  0  0  0  0  0  0  0  0  0
   50.9287   34.0833   43.1599 H   0  0  0  0  0  0  0  0  0  0  0  0
  1  3  1  0
  1 15  1  0
  2  1  1  0
  2  3  1  0
  4  3  1  0
  4 13  1  0
  5  4  2  0
  6  5  1  0
  6  7  2  0
  7  8  1  0
  8 13  2  0
  8  9  1  0
  9 10  2  0
 10 11  1  0
 12 11  2  0
 13 12  1  0
 14 19  2  0
 15 14  1  0
 15 16  2  0
 16 17  1  0
 17 18  2  0
 19 18  1  0
  1 20  1  6
  2 21  1  0
  2 22  1  0
  3 23  1  1
  5 24  1  0
  6 25  1  0
  7 26  1  0
  9 27  1  0
 10 28  1  0
 11 29  1  0
 12 30  1  0
 14 31  1  0
 16 32  1  0
 18 33  1  0
M  ISO  8  20  13  21  13  22  13  23  13  24  14  25  14  26  14  27  14
M  ISO  6  28  14  29  14  30  14  31  14  32  14  33  14
M  END
>  <minimizedAffinity>  (1) 
-4.82866383

>  <minimizedRMSD>  (1) 
8.0453825

$$$$
