
     RDKit          3D

 31 32  0  0  0  0  0  0  0  0999 V2000
   45.1970   33.4500   41.1680 F   0  0  0  0  0  0  0  0  0  0  0  0
   46.3640   34.0510   41.0380 C   0  0  0  0  0  0  0  0  0  0  0  0
   46.8500   34.7950   42.1040 C   0  0  0  0  0  0  0  0  0  0  0  0
   48.0790   35.4670   42.0660 C   0  0  0  0  0  0  0  0  0  0  0  0
   48.8530   35.3900   40.9100 C   0  0  0  0  0  0  0  0  0  0  0  0
   48.3300   34.6420   39.8790 C   0  0  0  0  0  0  0  0  0  0  0  0
   47.1420   33.9820   39.8930 C   0  0  0  0  0  0  0  0  0  0  0  0
   45.4730   33.9930   45.4080 C   0  0  0  0  0  0  0  0  0  0  0  0
   44.6180   35.1080   45.6450 C   0  0  0  0  0  0  0  0  0  0  0  0
   44.5260   36.1320   44.6510 C   0  0  0  0  0  0  0  0  0  0  0  0
   45.2820   35.9610   43.5240 N   0  0  0  0  0  0  0  0  0  0  0  0
   46.0700   34.9000   43.3450 C   0  0  0  0  0  0  0  0  0  0  0  0
   46.1650   33.9300   44.2720 N   0  0  0  0  0  0  0  0  0  0  0  0
   45.5450   33.0100   46.4040 N   0  0  0  0  0  0  0  0  0  0  0  0
   46.7250   33.2690   38.8050 O   0  0  0  0  0  0  0  0  0  0  0  0
   48.0700   34.7020   37.0210 O   0  0  0  0  0  0  0  0  0  0  0  0
   47.3040   33.4130   37.2330 P   0  0  2  0  0  0  0  0  0  0  0  0
   45.9710   33.3510   36.1610 O   0  0  0  0  0  0  0  0  0  0  0  0
   48.2990   32.1310   36.7660 O   0  0  0  0  0  0  0  0  0  0  0  0
   47.5490   30.9590   36.5680 C   0  0  0  0  0  0  0  0  0  0  0  0
   47.2090   30.9880   35.2100 F   0  0  0  0  0  0  0  0  0  0  0  0
   48.3340   29.8430   36.7730 F   0  0  0  0  0  0  0  0  0  0  0  0
   46.4550   30.8680   37.3760 F   0  0  0  0  0  0  0  0  0  0  0  0
   48.4269   36.0457   42.9344 H   0  0  0  0  0  0  0  0  0  0  0  0
   49.8254   35.8973   40.8259 H   0  0  0  0  0  0  0  0  0  0  0  0
   48.9290   34.5722   38.9591 H   0  0  0  0  0  0  0  0  0  0  0  0
   44.0383   35.1799   46.5771 H   0  0  0  0  0  0  0  0  0  0  0  0
   43.8802   37.0122   44.7859 H   0  0  0  0  0  0  0  0  0  0  0  0
   46.1510   32.1875   46.2729 H   0  0  0  0  0  0  0  0  0  0  0  0
   44.9920   33.1100   47.2672 H   0  0  0  0  0  0  0  0  0  0  0  0
   45.1301   33.3119   36.6820 H   0  0  0  0  0  0  0  0  0  0  0  0
  2  1  1  0
  2  3  2  0
  3 12  1  0
  4  3  1  0
  5  4  2  0
  6  7  2  0
  6  5  1  0
  7  2  1  0
  8  9  2  0
  8 14  1  0
 10  9  1  0
 11 10  2  0
 12 11  1  0
 12 13  2  0
 13  8  1  0
 15  7  1  0
 17 16  2  0
 17 15  1  0
 18 17  1  0
 19 17  1  0
 20 19  1  0
 20 22  1  0
 20 23  1  0
 21 20  1  0
  4 24  1  0
  5 25  1  0
  6 26  1  0
  9 27  1  0
 10 28  1  0
 14 29  1  0
 14 30  1  0
 18 31  1  0
M  ISO  6  24  14  25  14  26  14  27  14  28  14  31   3
M  END
>  <minimizedAffinity>  (1) 
-5.84470654

>  <minimizedRMSD>  (1) 
0.20499289

$$$$
