
     RDKit          3D

 38 40  0  0  0  0  0  0  0  0999 V2000
   45.3450   33.3930   41.0670 F   0  0  0  0  0  0  0  0  0  0  0  0
   46.4740   34.0500   40.9370 C   0  0  0  0  0  0  0  0  0  0  0  0
   46.9080   34.8360   41.9970 C   0  0  0  0  0  0  0  0  0  0  0  0
   48.1020   35.5830   41.9700 C   0  0  0  0  0  0  0  0  0  0  0  0
   48.8980   35.5310   40.8150 C   0  0  0  0  0  0  0  0  0  0  0  0
   48.4320   34.7410   39.7920 C   0  0  0  0  0  0  0  0  0  0  0  0
   47.2890   34.0220   39.8060 C   0  0  0  0  0  0  0  0  0  0  0  0
   45.5280   33.9540   45.2750 C   0  0  0  0  0  0  0  0  0  0  0  0
   44.6620   35.0480   45.5330 C   0  0  0  0  0  0  0  0  0  0  0  0
   44.5630   36.0860   44.5640 C   0  0  0  0  0  0  0  0  0  0  0  0
   45.3210   35.9580   43.4330 N   0  0  0  0  0  0  0  0  0  0  0  0
   46.1170   34.9220   43.2310 C   0  0  0  0  0  0  0  0  0  0  0  0
   46.2210   33.9280   44.1410 N   0  0  0  0  0  0  0  0  0  0  0  0
   45.6040   32.9480   46.2510 N   0  0  0  0  0  0  0  0  0  0  0  0
   46.9270   33.2720   38.7250 O   0  0  0  0  0  0  0  0  0  0  0  0
   48.2670   33.7810   36.5010 O   0  0  0  0  0  0  0  0  0  0  0  0
   47.9260   32.6960   37.5090 P   0  0  2  0  0  0  0  0  0  0  0  0
   47.1710   31.4020   36.7080 O   0  0  0  0  0  0  0  0  0  0  0  0
   46.0570   31.5230   35.8920 C   0  0  0  0  0  0  0  0  0  0  0  0
   44.9590   30.6870   36.1190 C   0  0  0  0  0  0  0  0  0  0  0  0
   44.0370   31.0600   35.1470 C   0  0  0  0  0  0  0  0  0  0  0  0
   44.5510   32.0510   34.3940 N   0  0  0  0  0  0  0  0  0  0  0  0
   45.7610   32.3190   34.8500 N   0  0  0  0  0  0  0  0  0  0  0  0
   49.3780   32.0560   38.1030 O   0  0  0  0  0  0  0  0  0  0  0  0
   49.1190   31.1060   39.1170 C   0  0  0  0  0  0  0  0  0  0  0  0
   50.0140   30.0590   38.8440 F   0  0  0  0  0  0  0  0  0  0  0  0
   49.4420   31.6190   40.3520 F   0  0  0  0  0  0  0  0  0  0  0  0
   47.8220   30.6950   39.1570 F   0  0  0  0  0  0  0  0  0  0  0  0
   48.4037   36.1931   42.8342 H   0  0  0  0  0  0  0  0  0  0  0  0
   49.8413   36.0909   40.7335 H   0  0  0  0  0  0  0  0  0  0  0  0
   49.0448   34.6896   38.8800 H   0  0  0  0  0  0  0  0  0  0  0  0
   44.0782   35.0931   46.4642 H   0  0  0  0  0  0  0  0  0  0  0  0
   43.9050   36.9539   44.7183 H   0  0  0  0  0  0  0  0  0  0  0  0
   46.2198   32.1352   46.1059 H   0  0  0  0  0  0  0  0  0  0  0  0
   45.0440   33.0227   47.1122 H   0  0  0  0  0  0  0  0  0  0  0  0
   44.8496   29.9109   36.8908 H   0  0  0  0  0  0  0  0  0  0  0  0
   43.0404   30.6138   35.0137 H   0  0  0  0  0  0  0  0  0  0  0  0
   44.0836   32.5170   33.6032 H   0  0  0  0  0  0  0  0  0  0  0  0
  2  1  1  0
  2  3  2  0
  3 12  1  0
  4  3  1  0
  5  4  2  0
  6  7  2  0
  6  5  1  0
  7  2  1  0
  8  9  2  0
  8 14  1  0
 10  9  1  0
 11 10  2  0
 12 11  1  0
 12 13  2  0
 13  8  1  0
 15  7  1  0
 17 16  2  0
 17 24  1  0
 17 15  1  0
 18 17  1  0
 19 20  1  0
 19 18  1  0
 21 20  2  0
 22 23  1  0
 22 21  1  0
 23 19  2  0
 24 25  1  0
 25 28  1  0
 25 27  1  0
 26 25  1  0
  4 29  1  0
  5 30  1  0
  6 31  1  0
  9 32  1  0
 10 33  1  0
 14 34  1  0
 14 35  1  0
 20 36  1  0
 21 37  1  0
 22 38  1  0
M  ISO  8  29  14  30  14  31  14  32  14  33  14  36  14  37  14  38   9
M  END
>  <minimizedAffinity>  (1) 
-5.94193125

>  <minimizedRMSD>  (1) 
1.90651679

$$$$
