
     RDKit          3D

 34 35  0  0  0  0  0  0  0  0999 V2000
   45.4720   33.4230   41.2020 F   0  0  0  0  0  0  0  0  0  0  0  0
   46.5910   34.1240   41.1210 C   0  0  0  0  0  0  0  0  0  0  0  0
   46.9610   34.8950   42.2020 C   0  0  0  0  0  0  0  0  0  0  0  0
   48.1320   35.6770   42.2230 C   0  0  0  0  0  0  0  0  0  0  0  0
   48.9620   35.6720   41.0910 C   0  0  0  0  0  0  0  0  0  0  0  0
   48.5500   34.8870   40.0370 C   0  0  0  0  0  0  0  0  0  0  0  0
   47.4290   34.1360   40.0080 C   0  0  0  0  0  0  0  0  0  0  0  0
   45.5350   33.9170   45.4350 C   0  0  0  0  0  0  0  0  0  0  0  0
   44.6170   34.9640   45.6770 C   0  0  0  0  0  0  0  0  0  0  0  0
   44.4910   36.0170   44.7110 C   0  0  0  0  0  0  0  0  0  0  0  0
   45.2860   35.9310   43.6030 N   0  0  0  0  0  0  0  0  0  0  0  0
   46.1340   34.9330   43.4130 C   0  0  0  0  0  0  0  0  0  0  0  0
   46.2590   33.9340   44.3200 N   0  0  0  0  0  0  0  0  0  0  0  0
   45.6260   32.9130   46.4010 N   0  0  0  0  0  0  0  0  0  0  0  0
   47.1230   33.3960   38.9030 O   0  0  0  0  0  0  0  0  0  0  0  0
   48.1420   34.7200   36.8520 O   0  0  0  0  0  0  0  0  0  0  0  0
   47.9730   33.3420   37.4610 P   0  0  2  0  0  0  0  0  0  0  0  0
   47.1100   32.3620   36.3430 O   0  0  0  0  0  0  0  0  0  0  0  0
   47.9360   32.3710   35.1960 C   0  0  0  0  0  0  0  0  0  0  0  0
   49.4800   32.6130   37.5960 O   0  0  0  0  0  0  0  0  0  0  0  0
   49.4170   31.5010   38.4670 C   0  0  0  0  0  0  0  0  0  0  0  0
   50.4260   30.6530   38.0080 F   0  0  0  0  0  0  0  0  0  0  0  0
   49.7550   31.8810   39.7490 F   0  0  0  0  0  0  0  0  0  0  0  0
   48.1950   30.9000   38.5030 F   0  0  0  0  0  0  0  0  0  0  0  0
   48.3905   36.2785   43.1070 H   0  0  0  0  0  0  0  0  0  0  0  0
   49.8894   36.2619   41.0481 H   0  0  0  0  0  0  0  0  0  0  0  0
   49.1894   34.8707   39.1421 H   0  0  0  0  0  0  0  0  0  0  0  0
   44.0079   34.9713   46.5929 H   0  0  0  0  0  0  0  0  0  0  0  0
   43.7895   36.8519   44.8550 H   0  0  0  0  0  0  0  0  0  0  0  0
   46.2810   32.1291   46.2689 H   0  0  0  0  0  0  0  0  0  0  0  0
   45.0382   32.9562   47.2457 H   0  0  0  0  0  0  0  0  0  0  0  0
   48.9918   32.3825   35.5045 H   0  0  0  0  0  0  0  0  0  0  0  0
   47.7393   31.4707   34.5954 H   0  0  0  0  0  0  0  0  0  0  0  0
   47.7197   33.2668   34.5954 H   0  0  0  0  0  0  0  0  0  0  0  0
  2  1  1  0
  2  3  2  0
  3  4  1  0
  3 12  1  0
  5  4  2  0
  6  5  1  0
  7  6  2  0
  7  2  1  0
  8  9  2  0
  8 14  1  0
 10  9  1  0
 11 10  2  0
 12 11  1  0
 12 13  2  0
 13  8  1  0
 15  7  1  0
 17 16  2  0
 17 20  1  0
 17 15  1  0
 18 17  1  0
 19 18  1  0
 20 21  1  0
 21 24  1  0
 21 23  1  0
 22 21  1  0
  4 25  1  0
  5 26  1  0
  6 27  1  0
  9 28  1  0
 10 29  1  0
 14 30  1  0
 14 31  1  0
 19 32  1  0
 19 33  1  0
 19 34  1  0
M  ISO  8  25  14  26  14  27  14  28  14  29  14  32   8  33   8  34   8
M  END
>  <minimizedAffinity>  (1) 
-5.42630148

>  <minimizedRMSD>  (1) 
1.52565765

$$$$
