
     RDKit          3D

 39 41  0  0  0  0  0  0  0  0999 V2000
   44.9460   33.5920   41.1110 F   0  0  0  0  0  0  0  0  0  0  0  0
   46.1650   34.0800   40.9540 C   0  0  0  0  0  0  0  0  0  0  0  0
   46.7200   34.7840   42.0020 C   0  0  0  0  0  0  0  0  0  0  0  0
   48.0150   35.3450   41.9500 C   0  0  0  0  0  0  0  0  0  0  0  0
   48.7630   35.1770   40.7810 C   0  0  0  0  0  0  0  0  0  0  0  0
   48.1630   34.4670   39.7680 C   0  0  0  0  0  0  0  0  0  0  0  0
   46.9280   33.9260   39.8050 C   0  0  0  0  0  0  0  0  0  0  0  0
   45.4560   34.1930   45.3940 C   0  0  0  0  0  0  0  0  0  0  0  0
   44.5990   35.3270   45.5820 C   0  0  0  0  0  0  0  0  0  0  0  0
   44.4700   36.2810   44.5300 C   0  0  0  0  0  0  0  0  0  0  0  0
   45.1890   36.0450   43.3900 N   0  0  0  0  0  0  0  0  0  0  0  0
   45.9700   34.9860   43.2540 C   0  0  0  0  0  0  0  0  0  0  0  0
   46.1090   34.0650   44.2380 N   0  0  0  0  0  0  0  0  0  0  0  0
   45.5520   33.2910   46.4470 N   0  0  0  0  0  0  0  0  0  0  0  0
   46.4380   33.2420   38.7320 O   0  0  0  0  0  0  0  0  0  0  0  0
   47.9910   31.0980   38.6900 O   0  0  0  0  0  0  0  0  0  0  0  0
   47.2490   32.0840   37.8190 P   0  0  2  0  0  0  0  0  0  0  0  0
   48.3780   32.8840   36.8010 O   0  0  0  0  0  0  0  0  0  0  0  0
   48.7850   32.3440   35.5940 C   0  0  0  0  0  0  0  0  0  0  0  0
   49.7400   31.3410   35.6790 C   0  0  0  0  0  0  0  0  0  0  0  0
   50.2010   30.7490   34.5410 C   0  0  0  0  0  0  0  0  0  0  0  0
   49.7540   31.1100   33.3250 N   0  0  0  0  0  0  0  0  0  0  0  0
   48.8180   32.0960   33.2770 C   0  0  0  0  0  0  0  0  0  0  0  0
   48.3150   32.7300   34.3770 N   0  0  0  0  0  0  0  0  0  0  0  0
   46.2400   31.2470   36.7690 O   0  0  0  0  0  0  0  0  0  0  0  0
   45.1370   32.0460   36.3930 C   0  0  0  0  0  0  0  0  0  0  0  0
   44.5960   31.3890   35.2740 F   0  0  0  0  0  0  0  0  0  0  0  0
   44.1750   32.0280   37.3800 F   0  0  0  0  0  0  0  0  0  0  0  0
   45.4600   33.3360   36.1310 F   0  0  0  0  0  0  0  0  0  0  0  0
   48.4245   35.8997   42.8071 H   0  0  0  0  0  0  0  0  0  0  0  0
   49.7770   35.5906   40.6772 H   0  0  0  0  0  0  0  0  0  0  0  0
   48.7427   34.3275   38.8436 H   0  0  0  0  0  0  0  0  0  0  0  0
   44.0484   35.4593   46.5251 H   0  0  0  0  0  0  0  0  0  0  0  0
   43.8230   37.1649   44.6302 H   0  0  0  0  0  0  0  0  0  0  0  0
   46.1549   32.4604   46.3603 H   0  0  0  0  0  0  0  0  0  0  0  0
   45.0203   33.4531   47.3141 H   0  0  0  0  0  0  0  0  0  0  0  0
   50.1234   31.0250   36.6604 H   0  0  0  0  0  0  0  0  0  0  0  0
   50.9585   29.9552   34.6193 H   0  0  0  0  0  0  0  0  0  0  0  0
   48.4425   32.4020   32.2894 H   0  0  0  0  0  0  0  0  0  0  0  0
  2  1  1  0
  2  3  2  0
  3 12  1  0
  4  3  1  0
  5  4  2  0
  6  7  2  0
  6  5  1  0
  7  2  1  0
  8  9  2  0
  8 14  1  0
 10  9  1  0
 11 10  2  0
 12 11  1  0
 12 13  2  0
 13  8  1  0
 15  7  1  0
 17 16  2  0
 17 15  1  0
 18 17  1  0
 19 20  2  0
 19 18  1  0
 21 20  1  0
 22 21  2  0
 23 22  1  0
 23 24  2  0
 24 19  1  0
 25 17  1  0
 26 25  1  0
 26 28  1  0
 27 26  1  0
 29 26  1  0
  4 30  1  0
  5 31  1  0
  6 32  1  0
  9 33  1  0
 10 34  1  0
 14 35  1  0
 14 36  1  0
 20 37  1  0
 21 38  1  0
 23 39  1  0
M  ISO  8  30  14  31  14  32  14  33  14  34  14  37  14  38  14  39  14
M  END
>  <minimizedAffinity>  (1) 
-5.90765905

>  <minimizedRMSD>  (1) 
3.461128

$$$$
