
     RDKit          3D

 29 30  0  0  1  0  0  0  0  0999 V2000
   44.8540   35.4360   43.8170 C   0  0  0  0  0  0  0  0  0  0  0  0
   44.1590   35.1230   42.6270 C   0  0  0  0  0  0  0  0  0  0  0  0
   44.1920   33.7850   42.1940 C   0  0  0  0  0  0  0  0  0  0  0  0
   44.8840   32.8730   42.9330 N   0  0  0  0  0  0  0  0  0  0  0  0
   45.5360   33.2150   44.0690 C   0  0  0  0  0  0  0  0  0  0  0  0
   45.5070   34.4940   44.4850 N   0  0  0  0  0  0  0  0  0  0  0  0
   45.9860   32.5410   46.3580 C   0  0  1  0  0  0  0  0  0  0  0  0
   46.2930   32.2410   44.8850 C   0  0  1  0  0  0  0  0  0  0  0  0
   45.7010   30.8390   44.8010 C   0  0  0  0  0  0  0  0  0  0  0  0
   46.1590   30.2460   45.9480 O   0  0  0  0  0  0  0  0  0  0  0  0
   46.2140   31.1800   46.9610 C   0  0  0  0  0  0  0  0  0  0  0  0
   46.8320   33.5130   46.8750 O   0  0  0  0  0  0  0  0  0  0  0  0
   44.8300   36.8150   44.2800 C   0  0  0  0  0  0  0  0  0  0  0  0
   45.3370   37.7600   43.5150 C   0  0  0  0  0  0  0  0  0  0  0  0
   45.3600   39.1890   43.8980 C   0  0  0  0  0  0  0  0  0  0  0  0
   43.6145   35.8941   42.0624 H   0  0  0  0  0  0  0  0  0  0  0  0
   43.6687   33.4805   41.2756 H   0  0  0  0  0  0  0  0  0  0  0  0
   44.9863   32.9564   46.5529 H   0  0  0  0  0  0  0  0  0  0  0  0
   47.3387   32.3035   44.5493 H   0  0  0  0  0  0  0  0  0  0  0  0
   44.6017   30.8736   44.7848 H   0  0  0  0  0  0  0  0  0  0  0  0
   45.9892   30.2990   43.8870 H   0  0  0  0  0  0  0  0  0  0  0  0
   47.2015   31.1475   47.4445 H   0  0  0  0  0  0  0  0  0  0  0  0
   45.4451   30.9658   47.7179 H   0  0  0  0  0  0  0  0  0  0  0  0
   46.8049   33.4819   47.8641 H   0  0  0  0  0  0  0  0  0  0  0  0
   44.3934   37.0658   45.2580 H   0  0  0  0  0  0  0  0  0  0  0  0
   45.7645   37.4724   42.5431 H   0  0  0  0  0  0  0  0  0  0  0  0
   45.3614   39.2747   44.9947 H   0  0  0  0  0  0  0  0  0  0  0  0
   46.2659   39.6629   43.4920 H   0  0  0  0  0  0  0  0  0  0  0  0
   44.4698   39.6918   43.4920 H   0  0  0  0  0  0  0  0  0  0  0  0
  1 13  1  0
  1  6  2  0
  2  1  1  0
  3  2  2  0
  3  4  1  0
  4  5  2  0
  5  6  1  0
  7 12  1  0
  7 11  1  0
  8  5  1  0
  8  7  1  0
  9  8  1  0
  9 10  1  0
 10 11  1  0
 14 15  1  0
 14 13  2  0
  2 16  1  0
  3 17  1  0
  7 18  1  6
  8 19  1  1
  9 20  1  0
  9 21  1  0
 11 22  1  0
 11 23  1  0
 12 24  1  0
 13 25  1  0
 14 26  1  0
 15 27  1  0
 15 28  1  0
 15 29  1  0
M  ISO  8  16  14  17  14  18  13  19  13  20  13  21  13  22  13  23  13
M  ISO  4  24   3  27   8  28   8  29   8
M  END
>  <minimizedAffinity>  (1) 
-3.92552662

>  <minimizedRMSD>  (1) 
0.675996661

$$$$
