
     RDKit          3D

 19 19  0  0  0  0  0  0  0  0999 V2000
   44.7850   35.7370   43.6110 C   0  0  0  0  0  0  0  0  0  0  0  0
   44.3010   35.6750   42.2910 C   0  0  0  0  0  0  0  0  0  0  0  0
   44.1700   34.4360   41.6810 C   0  0  0  0  0  0  0  0  0  0  0  0
   44.5160   33.3460   42.3940 N   0  0  0  0  0  0  0  0  0  0  0  0
   44.9790   33.4240   43.6600 C   0  0  0  0  0  0  0  0  0  0  0  0
   45.1110   34.6050   44.2590 N   0  0  0  0  0  0  0  0  0  0  0  0
   45.3370   32.2710   44.3900 N   0  0  0  0  0  0  0  0  0  0  0  0
   44.9170   37.0680   44.2360 C   0  0  0  0  0  0  0  0  0  0  0  0
   45.2960   38.0700   43.4360 C   0  0  0  0  0  0  0  0  0  0  0  0
   45.4400   39.4300   44.0390 C   0  0  0  0  0  0  0  0  0  0  0  0
   44.0308   36.5947   41.7514 H   0  0  0  0  0  0  0  0  0  0  0  0
   43.7964   34.3463   40.6503 H   0  0  0  0  0  0  0  0  0  0  0  0
   45.6874   32.3603   45.3544 H   0  0  0  0  0  0  0  0  0  0  0  0
   45.2479   31.3400   43.9585 H   0  0  0  0  0  0  0  0  0  0  0  0
   44.7139   37.2272   45.3053 H   0  0  0  0  0  0  0  0  0  0  0  0
   45.4955   37.8989   42.3679 H   0  0  0  0  0  0  0  0  0  0  0  0
   45.4313   39.3476   45.1359 H   0  0  0  0  0  0  0  0  0  0  0  0
   46.3905   39.8771   43.7125 H   0  0  0  0  0  0  0  0  0  0  0  0
   44.6042   40.0662   43.7125 H   0  0  0  0  0  0  0  0  0  0  0  0
  1  8  1  0
  1  6  2  0
  2  1  1  0
  3  2  2  0
  3  4  1  0
  4  5  2  0
  5  6  1  0
  5  7  1  0
  9 10  1  0
  9  8  2  0
  2 11  1  0
  3 12  1  0
  7 13  1  0
  7 14  1  0
  8 15  1  0
  9 16  1  0
 10 17  1  0
 10 18  1  0
 10 19  1  0
M  ISO  5  11  14  12  14  17   8  18   8  19   8
M  END
>  <minimizedAffinity>  (1) 
-2.78332043

>  <minimizedRMSD>  (1) 
0.326170564

$$$$
