
     RDKit          3D

 18 18  0  0  0  0  0  0  0  0999 V2000
   44.7200   35.5530   43.5970 C   0  0  0  0  0  0  0  0  0  0  0  0
   43.9320   35.4620   42.4350 C   0  0  0  0  0  0  0  0  0  0  0  0
   43.7750   34.1970   41.8460 C   0  0  0  0  0  0  0  0  0  0  0  0
   44.3860   33.1460   42.4270 N   0  0  0  0  0  0  0  0  0  0  0  0
   45.1460   33.2630   43.5570 C   0  0  0  0  0  0  0  0  0  0  0  0
   45.2950   34.4780   44.1180 N   0  0  0  0  0  0  0  0  0  0  0  0
   44.8670   36.8820   44.1900 C   0  0  0  0  0  0  0  0  0  0  0  0
   45.2650   37.8890   43.4400 C   0  0  0  0  0  0  0  0  0  0  0  0
   45.4270   39.2560   44.0040 C   0  0  0  0  0  0  0  0  0  0  0  0
   45.9520   31.8610   44.3180 S   0  0  0  0  0  0  0  0  0  0  0  0
   43.4543   36.3531   42.0018 H   0  0  0  0  0  0  0  0  0  0  0  0
   43.1704   34.0678   40.9362 H   0  0  0  0  0  0  0  0  0  0  0  0
   44.6465   37.0396   45.2561 H   0  0  0  0  0  0  0  0  0  0  0  0
   45.4819   37.7157   42.3756 H   0  0  0  0  0  0  0  0  0  0  0  0
   45.4207   39.2025   45.1027 H   0  0  0  0  0  0  0  0  0  0  0  0
   46.3820   39.6825   43.6632 H   0  0  0  0  0  0  0  0  0  0  0  0
   44.5982   39.8939   43.6632 H   0  0  0  0  0  0  0  0  0  0  0  0
   45.8838   31.9796   45.6812 H   0  0  0  0  0  0  0  0  0  0  0  0
  1  6  2  0
  1  7  1  0
  2  1  1  0
  3  4  1  0
  3  2  2  0
  4  5  2  0
  5  6  1  0
  5 10  1  0
  8  9  1  0
  8  7  2  0
  2 11  1  0
  3 12  1  0
  7 13  1  0
  8 14  1  0
  9 15  1  0
  9 16  1  0
  9 17  1  0
 10 18  1  0
M  ISO  6  11  14  12  14  15   8  16   8  17   8  18  11
M  END
>  <minimizedAffinity>  (1) 
-2.57767224

>  <minimizedRMSD>  (1) 
0.075287506

$$$$
