
     RDKit          3D

 23 23  0  0  0  0  0  0  0  0999 V2000
   44.8240   35.7070   43.8060 C   0  0  0  0  0  0  0  0  0  0  0  0
   44.1980   35.4650   42.5680 C   0  0  0  0  0  0  0  0  0  0  0  0
   44.1600   34.1360   42.0980 C   0  0  0  0  0  0  0  0  0  0  0  0
   44.7320   33.1620   42.8680 N   0  0  0  0  0  0  0  0  0  0  0  0
   45.3290   33.4480   44.0640 C   0  0  0  0  0  0  0  0  0  0  0  0
   45.3630   34.7230   44.5110 N   0  0  0  0  0  0  0  0  0  0  0  0
   44.8520   37.0780   44.2820 C   0  0  0  0  0  0  0  0  0  0  0  0
   45.3690   38.0220   43.5280 C   0  0  0  0  0  0  0  0  0  0  0  0
   45.4330   39.4400   43.9320 C   0  0  0  0  0  0  0  0  0  0  0  0
   45.9430   32.3690   44.8820 C   0  0  0  0  0  0  0  0  0  0  0  0
   46.4430   33.0150   46.1630 C   0  0  0  0  0  0  0  0  0  0  0  0
   43.7531   36.2859   41.9865 H   0  0  0  0  0  0  0  0  0  0  0  0
   43.6830   33.8898   41.1379 H   0  0  0  0  0  0  0  0  0  0  0  0
   44.4413   37.3263   45.2718 H   0  0  0  0  0  0  0  0  0  0  0  0
   45.7750   37.7408   42.5451 H   0  0  0  0  0  0  0  0  0  0  0  0
   45.4361   39.5087   45.0298 H   0  0  0  0  0  0  0  0  0  0  0  0
   46.3525   39.8936   43.5336 H   0  0  0  0  0  0  0  0  0  0  0  0
   44.5581   39.9746   43.5336 H   0  0  0  0  0  0  0  0  0  0  0  0
   45.1936   31.5981   45.1148 H   0  0  0  0  0  0  0  0  0  0  0  0
   46.7672   31.8841   44.3384 H   0  0  0  0  0  0  0  0  0  0  0  0
   46.0285   32.4794   47.0298 H   0  0  0  0  0  0  0  0  0  0  0  0
   47.5415   32.9669   46.1933 H   0  0  0  0  0  0  0  0  0  0  0  0
   46.1210   34.0664   46.1933 H   0  0  0  0  0  0  0  0  0  0  0  0
  1  7  1  0
  1  6  2  0
  2  1  1  0
  3  2  2  0
  3  4  1  0
  4  5  2  0
  5  6  1  0
  5 10  1  0
  8  9  1  0
  8  7  2  0
 10 11  1  0
  2 12  1  0
  3 13  1  0
  7 14  1  0
  8 15  1  0
  9 16  1  0
  9 17  1  0
  9 18  1  0
 10 19  1  0
 10 20  1  0
 11 21  1  0
 11 22  1  0
 11 23  1  0
M  ISO  8  12  14  13  14  16   8  17   8  18   8  19   8  20   8  21   8
M  ISO  2  22   8  23   8
M  END
>  <minimizedAffinity>  (1) 
-2.88518262

>  <minimizedRMSD>  (1) 
0.617387474

$$$$
