
     RDKit          3D

 27 28  0  0  0  0  0  0  0  0999 V2000
   45.2140   36.1230   43.0130 C   0  0  0  0  0  0  0  0  0  0  0  0
   44.2120   35.7840   42.0840 C   0  0  0  0  0  0  0  0  0  0  0  0
   44.4740   34.6970   41.2320 C   0  0  0  0  0  0  0  0  0  0  0  0
   45.6500   34.0420   41.3420 N   0  0  0  0  0  0  0  0  0  0  0  0
   46.5870   34.4050   42.2550 C   0  0  0  0  0  0  0  0  0  0  0  0
   46.3670   35.4430   43.0870 N   0  0  0  0  0  0  0  0  0  0  0  0
   49.0570   35.9260   41.3770 Cl  0  0  0  0  0  0  0  0  0  0  0  0
   49.0120   34.2760   41.9070 C   0  0  0  0  0  0  0  0  0  0  0  0
   47.8330   33.6340   42.3000 C   0  0  0  0  0  0  0  0  0  0  0  0
   47.7650   32.3300   42.7240 C   0  0  0  0  0  0  0  0  0  0  0  0
   48.9590   31.6390   42.7510 C   0  0  0  0  0  0  0  0  0  0  0  0
   50.1810   32.1670   42.3870 C   0  0  0  0  0  0  0  0  0  0  0  0
   50.1490   33.4900   41.9730 C   0  0  0  0  0  0  0  0  0  0  0  0
   44.9570   37.2610   43.9170 C   0  0  0  0  0  0  0  0  0  0  0  0
   45.5080   38.4190   43.6210 C   0  0  0  0  0  0  0  0  0  0  0  0
   45.2790   39.5990   44.5040 C   0  0  0  0  0  0  0  0  0  0  0  0
   43.2670   36.3442   42.0274 H   0  0  0  0  0  0  0  0  0  0  0  0
   43.7301   34.3836   40.4847 H   0  0  0  0  0  0  0  0  0  0  0  0
   46.8151   31.8638   43.0244 H   0  0  0  0  0  0  0  0  0  0  0  0
   48.9351   30.5918   43.0869 H   0  0  0  0  0  0  0  0  0  0  0  0
   51.1116   31.5816   42.4227 H   0  0  0  0  0  0  0  0  0  0  0  0
   51.1019   33.9507   41.6736 H   0  0  0  0  0  0  0  0  0  0  0  0
   44.3250   37.1450   44.8098 H   0  0  0  0  0  0  0  0  0  0  0  0
   46.1366   38.5164   42.7236 H   0  0  0  0  0  0  0  0  0  0  0  0
   45.3397   39.2863   45.5569 H   0  0  0  0  0  0  0  0  0  0  0  0
   46.0459   40.3616   44.3032 H   0  0  0  0  0  0  0  0  0  0  0  0
   44.2825   40.0194   44.3032 H   0  0  0  0  0  0  0  0  0  0  0  0
  1  6  2  0
  1 14  1  0
  2  1  1  0
  3  4  1  0
  3  2  2  0
  4  5  2  0
  5  9  1  0
  5  6  1  0
  7  8  1  0
  8 13  2  0
  8  9  1  0
  9 10  2  0
 10 11  1  0
 12 11  2  0
 13 12  1  0
 15 14  2  0
 15 16  1  0
  2 17  1  0
  3 18  1  0
 10 19  1  0
 11 20  1  0
 12 21  1  0
 13 22  1  0
 14 23  1  0
 15 24  1  0
 16 25  1  0
 16 26  1  0
 16 27  1  0
M  ISO  8  17  14  18  14  19  14  20  14  21  14  22  14  25   8  26   8
M  ISO  1  27   8
M  END
>  <minimizedAffinity>  (1) 
-4.32359648

>  <minimizedRMSD>  (1) 
3.61270404

$$$$
