
     RDKit          3D

 34 36  0  0  0  0  0  0  0  0999 V2000
   45.3160   33.2710   39.5500 C   0  0  0  0  0  0  0  0  0  0  0  0
   45.4580   33.2180   38.1530 C   0  0  0  0  0  0  0  0  0  0  0  0
   46.7780   33.1530   37.6480 C   0  0  0  0  0  0  0  0  0  0  0  0
   47.8180   33.1460   38.5150 N   0  0  0  0  0  0  0  0  0  0  0  0
   47.6190   33.1980   39.8590 C   0  0  0  0  0  0  0  0  0  0  0  0
   46.3670   33.2610   40.3730 N   0  0  0  0  0  0  0  0  0  0  0  0
   47.8190   35.5230   41.7790 Cl  0  0  0  0  0  0  0  0  0  0  0  0
   48.9630   34.2250   41.6320 C   0  0  0  0  0  0  0  0  0  0  0  0
   48.7990   33.1850   40.7180 C   0  0  0  0  0  0  0  0  0  0  0  0
   49.6820   32.1440   40.5750 C   0  0  0  0  0  0  0  0  0  0  0  0
   50.7930   32.1590   41.4060 C   0  0  0  0  0  0  0  0  0  0  0  0
   51.0510   33.1420   42.3440 C   0  0  0  0  0  0  0  0  0  0  0  0
   50.0960   34.1540   42.4120 C   0  0  0  0  0  0  0  0  0  0  0  0
   43.9520   33.3380   40.0770 C   0  0  0  0  0  0  0  0  0  0  0  0
   43.4590   34.5040   40.4110 C   0  0  0  0  0  0  0  0  0  0  0  0
   42.0850   34.6620   40.9530 C   0  0  0  0  0  0  0  0  0  0  0  0
   41.1510   35.3230   39.9710 C   0  0  0  0  0  0  0  0  0  0  0  0
   39.6990   35.0660   40.0010 C   0  0  0  0  0  0  0  0  0  0  0  0
   40.2150   36.3550   40.6200 C   0  0  0  0  0  0  0  0  0  0  0  0
   44.5848   33.2266   37.4841 H   0  0  0  0  0  0  0  0  0  0  0  0
   46.9573   33.1087   36.5636 H   0  0  0  0  0  0  0  0  0  0  0  0
   49.5177   31.3412   39.8412 H   0  0  0  0  0  0  0  0  0  0  0  0
   51.5159   31.3352   41.3127 H   0  0  0  0  0  0  0  0  0  0  0  0
   51.9428   33.1260   42.9877 H   0  0  0  0  0  0  0  0  0  0  0  0
   50.2593   34.9580   43.1448 H   0  0  0  0  0  0  0  0  0  0  0  0
   43.3510   32.4237   40.1905 H   0  0  0  0  0  0  0  0  0  0  0  0
   44.0853   35.3996   40.2857 H   0  0  0  0  0  0  0  0  0  0  0  0
   41.6877   33.6673   41.2034 H   0  0  0  0  0  0  0  0  0  0  0  0
   42.1477   35.3071   41.8418 H   0  0  0  0  0  0  0  0  0  0  0  0
   41.8819   35.2789   39.1502 H   0  0  0  0  0  0  0  0  0  0  0  0
   39.1193   35.1037   39.0669 H   0  0  0  0  0  0  0  0  0  0  0  0
   39.0736   34.2370   40.3638 H   0  0  0  0  0  0  0  0  0  0  0  0
   40.2072   36.4899   41.7117 H   0  0  0  0  0  0  0  0  0  0  0  0
   40.0132   37.4290   40.4947 H   0  0  0  0  0  0  0  0  0  0  0  0
  1 14  1  0
  1  6  1  0
  2  1  2  0
  3  2  1  0
  3  4  2  0
  4  5  1  0
  5  6  2  0
  5  9  1  0
  8  7  1  0
  8 13  2  0
  9  8  1  0
 10  9  2  0
 10 11  1  0
 11 12  2  0
 12 13  1  0
 14 15  2  0
 15 16  1  0
 17 18  1  0
 17 19  1  0
 17 16  1  0
 18 19  1  0
  2 20  1  0
  3 21  1  0
 10 22  1  0
 11 23  1  0
 12 24  1  0
 13 25  1  0
 14 26  1  0
 15 27  1  0
 16 28  1  0
 16 29  1  0
 17 30  1  0
 18 31  1  0
 18 32  1  0
 19 33  1  0
 19 34  1  0
M  ISO  8  20  14  21  14  22  14  23  14  24  14  25  14  28   8  29   8
M  ISO  5  30  13  31  13  32  13  33  13  34  13
M  END
>  <minimizedAffinity>  (1) 
-4.8966794

>  <minimizedRMSD>  (1) 
5.14202547

$$$$
