
     RDKit          3D

 37 39  0  0  0  0  0  0  0  0999 V2000
   42.7730   34.0600   40.4350 C   0  0  0  0  0  0  0  0  0  0  0  0
   42.5890   35.3630   39.9420 C   0  0  0  0  0  0  0  0  0  0  0  0
   41.8490   35.4900   38.7570 C   0  0  0  0  0  0  0  0  0  0  0  0
   41.3600   34.3820   38.1610 N   0  0  0  0  0  0  0  0  0  0  0  0
   41.5580   33.1440   38.6660 C   0  0  0  0  0  0  0  0  0  0  0  0
   42.2660   32.9820   39.8040 N   0  0  0  0  0  0  0  0  0  0  0  0
   43.5770   31.4020   37.2320 Cl  0  0  0  0  0  0  0  0  0  0  0  0
   41.8600   31.1580   37.2620 C   0  0  0  0  0  0  0  0  0  0  0  0
   40.9880   32.0070   37.9470 C   0  0  0  0  0  0  0  0  0  0  0  0
   39.6310   31.8410   37.9900 C   0  0  0  0  0  0  0  0  0  0  0  0
   39.1300   30.7540   37.3010 C   0  0  0  0  0  0  0  0  0  0  0  0
   39.8920   29.8490   36.5910 C   0  0  0  0  0  0  0  0  0  0  0  0
   41.2640   30.1050   36.6070 C   0  0  0  0  0  0  0  0  0  0  0  0
   43.5470   33.8720   41.6850 C   0  0  0  0  0  0  0  0  0  0  0  0
   44.7550   34.3770   41.7350 C   0  0  0  0  0  0  0  0  0  0  0  0
   45.5860   34.2170   42.9710 C   0  0  0  0  0  0  0  0  0  0  0  0
   47.3730   32.2800   44.2810 Cl  0  0  0  0  0  0  0  0  0  0  0  0
   47.9060   33.5880   43.2340 C   0  0  0  0  0  0  0  0  0  0  0  0
   47.0240   34.4650   42.6480 C   0  0  0  0  0  0  0  0  0  0  0  0
   47.4480   35.4990   41.8210 C   0  0  0  0  0  0  0  0  0  0  0  0
   48.8000   35.6320   41.5960 C   0  0  0  0  0  0  0  0  0  0  0  0
   49.6980   34.7550   42.1790 C   0  0  0  0  0  0  0  0  0  0  0  0
   49.2500   33.7320   43.0010 C   0  0  0  0  0  0  0  0  0  0  0  0
   43.0047   36.2400   40.4597 H   0  0  0  0  0  0  0  0  0  0  0  0
   41.6691   36.4824   38.3180 H   0  0  0  0  0  0  0  0  0  0  0  0
   38.9770   32.5328   38.5411 H   0  0  0  0  0  0  0  0  0  0  0  0
   38.0413   30.5979   37.3197 H   0  0  0  0  0  0  0  0  0  0  0  0
   39.4534   28.9942   36.0553 H   0  0  0  0  0  0  0  0  0  0  0  0
   41.9174   29.4134   36.0549 H   0  0  0  0  0  0  0  0  0  0  0  0
   43.1220   33.3274   42.5410 H   0  0  0  0  0  0  0  0  0  0  0  0
   45.1596   34.9194   40.8678 H   0  0  0  0  0  0  0  0  0  0  0  0
   45.2526   34.9384   43.7315 H   0  0  0  0  0  0  0  0  0  0  0  0
   45.4710   33.1933   43.3567 H   0  0  0  0  0  0  0  0  0  0  0  0
   46.7259   36.1894   41.3607 H   0  0  0  0  0  0  0  0  0  0  0  0
   49.1689   36.4410   40.9483 H   0  0  0  0  0  0  0  0  0  0  0  0
   50.7753   34.8703   41.9889 H   0  0  0  0  0  0  0  0  0  0  0  0
   49.9687   33.0396   43.4638 H   0  0  0  0  0  0  0  0  0  0  0  0
  1 14  1  0
  2  1  2  0
  3  2  1  0
  4  5  1  0
  4  3  2  0
  5  6  2  0
  6  1  1  0
  7  8  1  0
  8  9  2  0
  9 10  1  0
  9  5  1  0
 11 10  2  0
 12 13  2  0
 12 11  1  0
 13  8  1  0
 14 15  2  0
 15 16  1  0
 18 17  1  0
 19 16  1  0
 19 18  2  0
 20 19  1  0
 21 20  2  0
 21 22  1  0
 22 23  2  0
 23 18  1  0
  2 24  1  0
  3 25  1  0
 10 26  1  0
 11 27  1  0
 12 28  1  0
 13 29  1  0
 14 30  1  0
 15 31  1  0
 16 32  1  0
 16 33  1  0
 20 34  1  0
 21 35  1  0
 22 36  1  0
 23 37  1  0
M  ISO  8  24  14  25  14  26  14  27  14  28  14  29  14  32   8  33   8
M  ISO  4  34  14  35  14  36  14  37  14
M  END
>  <minimizedAffinity>  (1) 
-5.31383801

>  <minimizedRMSD>  (1) 
7.33282948

$$$$
