
     RDKit          3D

 40 42  0  0  1  0  0  0  0  0999 V2000
   45.0960   35.8900   42.9500 C   0  0  0  0  0  0  0  0  0  0  0  0
   44.0860   35.7100   41.9980 C   0  0  0  0  0  0  0  0  0  0  0  0
   44.2810   34.7290   41.0220 C   0  0  0  0  0  0  0  0  0  0  0  0
   45.4330   34.0050   41.0430 N   0  0  0  0  0  0  0  0  0  0  0  0
   46.3840   34.2130   41.9840 C   0  0  0  0  0  0  0  0  0  0  0  0
   46.2120   35.1560   42.9340 N   0  0  0  0  0  0  0  0  0  0  0  0
   48.8950   35.6680   41.1050 Cl  0  0  0  0  0  0  0  0  0  0  0  0
   48.7840   33.9910   41.5320 C   0  0  0  0  0  0  0  0  0  0  0  0
   47.6000   33.3810   41.9280 C   0  0  0  0  0  0  0  0  0  0  0  0
   47.4980   32.0650   42.2670 C   0  0  0  0  0  0  0  0  0  0  0  0
   48.6360   31.3130   42.2090 C   0  0  0  0  0  0  0  0  0  0  0  0
   49.8700   31.8110   41.8290 C   0  0  0  0  0  0  0  0  0  0  0  0
   49.8820   33.1540   41.5030 C   0  0  0  0  0  0  0  0  0  0  0  0
   44.9130   36.9240   43.9960 C   0  0  0  0  0  0  0  0  0  0  0  0
   45.4840   38.0990   43.8020 C   0  0  0  0  0  0  0  0  0  0  0  0
   45.2950   39.1490   44.8700 C   0  0  0  0  0  0  0  0  0  0  0  0
   44.7530   40.3180   44.1800 N   0  0  0  0  0  0  0  0  0  0  0  0
   44.6800   40.2880   47.0690 O   0  0  0  0  0  0  0  0  0  0  0  0
   44.3710   41.3080   46.3630 C   0  0  0  0  0  0  0  0  0  0  0  0
   44.9010   41.5080   44.9910 C   0  0  2  0  0  0  0  0  0  0  0  0
   44.0880   42.6770   44.4920 C   0  0  0  0  0  0  0  0  0  0  0  0
   42.9570   42.8670   45.4820 C   0  0  0  0  0  0  0  0  0  0  0  0
   43.5020   42.3940   46.7410 N   0  0  0  0  0  0  0  0  0  0  0  0
   43.1705   36.3195   42.0173 H   0  0  0  0  0  0  0  0  0  0  0  0
   43.5177   34.5456   40.2514 H   0  0  0  0  0  0  0  0  0  0  0  0
   46.5374   31.6263   42.5750 H   0  0  0  0  0  0  0  0  0  0  0  0
   48.5681   30.2491   42.4802 H   0  0  0  0  0  0  0  0  0  0  0  0
   50.7735   31.1849   41.7894 H   0  0  0  0  0  0  0  0  0  0  0  0
   50.8434   33.5913   41.1957 H   0  0  0  0  0  0  0  0  0  0  0  0
   44.3227   36.7201   44.9015 H   0  0  0  0  0  0  0  0  0  0  0  0
   46.0746   38.3046   42.8970 H   0  0  0  0  0  0  0  0  0  0  0  0
   44.5902   38.7945   45.6366 H   0  0  0  0  0  0  0  0  0  0  0  0
   46.2393   39.3813   45.3842 H   0  0  0  0  0  0  0  0  0  0  0  0
   45.2575   40.4498   43.2917 H   0  0  0  0  0  0  0  0  0  0  0  0
   45.9826   41.7052   44.9548 H   0  0  0  0  0  0  0  0  0  0  0  0
   44.7111   43.5824   44.4483 H   0  0  0  0  0  0  0  0  0  0  0  0
   43.7030   42.4906   43.4786 H   0  0  0  0  0  0  0  0  0  0  0  0
   42.6750   43.9279   45.5531 H   0  0  0  0  0  0  0  0  0  0  0  0
   42.0450   42.3265   45.1883 H   0  0  0  0  0  0  0  0  0  0  0  0
   43.3115   42.7522   47.6877 H   0  0  0  0  0  0  0  0  0  0  0  0
  1 14  1  0
  2  1  2  0
  3  4  2  0
  3  2  1  0
  4  5  1  0
  5  6  2  0
  6  1  1  0
  7  8  1  0
  8  9  2  0
  9  5  1  0
  9 10  1  0
 11 10  2  0
 12 11  1  0
 13  8  1  0
 13 12  2  0
 15 14  2  0
 15 16  1  0
 17 16  1  0
 19 23  1  0
 19 18  2  0
 20 17  1  0
 20 19  1  0
 21 20  1  0
 21 22  1  0
 22 23  1  0
  2 24  1  0
  3 25  1  0
 10 26  1  0
 11 27  1  0
 12 28  1  0
 13 29  1  0
 14 30  1  0
 15 31  1  0
 16 32  1  0
 16 33  1  0
 17 34  1  0
 20 35  1  1
 21 36  1  0
 21 37  1  0
 22 38  1  0
 22 39  1  0
 23 40  1  0
M  ISO  8  24  14  25  14  26  14  27  14  28  14  29  14  32   8  33   8
M  ISO  7  34   5  35  13  36  13  37  13  38  13  39  13  40  10
M  END
>  <minimizedAffinity>  (1) 
-4.69535303

>  <minimizedRMSD>  (1) 
0.7895118

$$$$
