
     RDKit          3D

 38 41  0  0  0  0  0  0  0  0999 V2000
   47.3350   30.2440   47.6860 C   0  0  0  0  0  0  0  0  0  0  0  0
   46.5570   32.6650   45.1730 C   0  0  0  0  0  0  0  0  0  0  0  0
   47.2690   31.6930   44.4290 C   0  0  0  0  0  0  0  0  0  0  0  0
   47.6370   30.6960   45.2630 C   0  0  0  0  0  0  0  0  0  0  0  0
   47.1770   31.0250   46.4680 N   0  0  0  0  0  0  0  0  0  0  0  0
   46.5320   32.2010   46.4180 N   0  0  0  0  0  0  0  0  0  0  0  0
   44.5650   35.7060   44.8150 C   0  0  0  0  0  0  0  0  0  0  0  0
   44.9430   36.1890   43.5730 C   0  0  0  0  0  0  0  0  0  0  0  0
   45.8950   35.4580   42.8480 C   0  0  0  0  0  0  0  0  0  0  0  0
   46.3800   34.3350   43.4080 N   0  0  0  0  0  0  0  0  0  0  0  0
   46.0030   33.8860   44.6090 C   0  0  0  0  0  0  0  0  0  0  0  0
   45.0940   34.5780   45.3070 N   0  0  0  0  0  0  0  0  0  0  0  0
   46.0160   29.9420   48.2810 C   0  0  0  0  0  0  0  0  0  0  0  0
   45.1880   27.5460   47.8480 C   0  0  0  0  0  0  0  0  0  0  0  0
   45.2130   28.9040   47.6360 C   0  0  0  0  0  0  0  0  0  0  0  0
   44.3500   29.4000   46.6580 C   0  0  0  0  0  0  0  0  0  0  0  0
   43.5060   28.5740   45.9340 C   0  0  0  0  0  0  0  0  0  0  0  0
   42.6000   28.7640   44.9670 N   0  0  0  0  0  0  0  0  0  0  0  0
   42.0440   27.5970   44.5990 C   0  0  0  0  0  0  0  0  0  0  0  0
   42.6010   26.5760   45.3520 C   0  0  0  0  0  0  0  0  0  0  0  0
   43.4980   27.2180   46.1640 C   0  0  0  0  0  0  0  0  0  0  0  0
   44.3470   26.7340   47.1240 C   0  0  0  0  0  0  0  0  0  0  0  0
   44.3870   24.9870   47.4710 S   0  0  0  0  0  0  0  0  0  0  0  0
   47.9355   30.8167   48.4081 H   0  0  0  0  0  0  0  0  0  0  0  0
   47.8396   29.2981   47.4396 H   0  0  0  0  0  0  0  0  0  0  0  0
   47.4862   31.7417   43.3518 H   0  0  0  0  0  0  0  0  0  0  0  0
   48.2044   29.7915   44.9987 H   0  0  0  0  0  0  0  0  0  0  0  0
   43.8190   36.2572   45.4063 H   0  0  0  0  0  0  0  0  0  0  0  0
   44.5104   37.1160   43.1685 H   0  0  0  0  0  0  0  0  0  0  0  0
   46.2335   35.7912   41.8558 H   0  0  0  0  0  0  0  0  0  0  0  0
   46.1864   29.6294   49.3218 H   0  0  0  0  0  0  0  0  0  0  0  0
   45.4327   30.8668   48.1609 H   0  0  0  0  0  0  0  0  0  0  0  0
   45.8496   27.1030   48.6070 H   0  0  0  0  0  0  0  0  0  0  0  0
   44.3396   30.4812   46.4556 H   0  0  0  0  0  0  0  0  0  0  0  0
   42.3615   29.6798   44.5604 H   0  0  0  0  0  0  0  0  0  0  0  0
   41.2719   27.4726   43.8254 H   0  0  0  0  0  0  0  0  0  0  0  0
   42.3754   25.5003   45.3080 H   0  0  0  0  0  0  0  0  0  0  0  0
   44.3915   24.7907   48.8269 H   0  0  0  0  0  0  0  0  0  0  0  0
  1 13  1  0
  2  6  2  0
  3  2  1  0
  3  4  2  0
  4  5  1  0
  5  1  1  0
  6  5  1  0
  7 12  2  0
  8  7  1  0
  9 10  1  0
  9  8  2  0
 10 11  2  0
 11  2  1  0
 11 12  1  0
 15 14  2  0
 15 13  1  0
 16 15  1  0
 17 21  1  0
 17 16  2  0
 18 17  1  0
 19 18  1  0
 19 20  2  0
 20 21  1  0
 21 22  2  0
 22 23  1  0
 22 14  1  0
  1 24  1  0
  1 25  1  0
  3 26  1  0
  4 27  1  0
  7 28  1  0
  8 29  1  0
  9 30  1  0
 13 31  1  0
 13 32  1  0
 14 33  1  0
 16 34  1  0
 18 35  1  0
 19 36  1  0
 20 37  1  0
 23 38  1  0
M  ISO  8  24   8  25   8  26  14  27  14  28  14  29  14  30  14  31   8
M  ISO  7  32   8  33  14  34  14  35   9  36  14  37  14  38  11
M  END
>  <minimizedAffinity>  (1) 
-5.21411276

>  <minimizedRMSD>  (1) 
0.0658952817

$$$$
