
     RDKit          3D

 38 41  0  0  0  0  0  0  0  0999 V2000
   47.3330   30.1890   47.6320 C   0  0  0  0  0  0  0  0  0  0  0  0
   46.5550   32.6590   45.1570 C   0  0  0  0  0  0  0  0  0  0  0  0
   47.2820   31.7030   44.4030 C   0  0  0  0  0  0  0  0  0  0  0  0
   47.6490   30.6920   45.2240 C   0  0  0  0  0  0  0  0  0  0  0  0
   47.1750   30.9960   46.4420 N   0  0  0  0  0  0  0  0  0  0  0  0
   46.5200   32.1690   46.4050 N   0  0  0  0  0  0  0  0  0  0  0  0
   44.5680   35.6960   44.8440 C   0  0  0  0  0  0  0  0  0  0  0  0
   44.9320   36.1970   43.6060 C   0  0  0  0  0  0  0  0  0  0  0  0
   45.8750   35.4710   42.8740 C   0  0  0  0  0  0  0  0  0  0  0  0
   46.3680   34.3370   43.4200 N   0  0  0  0  0  0  0  0  0  0  0  0
   46.0040   33.8770   44.6110 C   0  0  0  0  0  0  0  0  0  0  0  0
   45.0910   34.5670   45.3300 N   0  0  0  0  0  0  0  0  0  0  0  0
   46.0120   29.9330   48.2510 C   0  0  0  0  0  0  0  0  0  0  0  0
   45.0930   27.5490   47.9290 C   0  0  0  0  0  0  0  0  0  0  0  0
   45.1850   28.8940   47.6440 C   0  0  0  0  0  0  0  0  0  0  0  0
   44.3660   29.3600   46.6110 C   0  0  0  0  0  0  0  0  0  0  0  0
   43.5130   28.5350   45.9130 C   0  0  0  0  0  0  0  0  0  0  0  0
   42.6410   28.6980   44.9110 N   0  0  0  0  0  0  0  0  0  0  0  0
   42.0440   27.5400   44.5880 C   0  0  0  0  0  0  0  0  0  0  0  0
   42.5390   26.5400   45.4200 C   0  0  0  0  0  0  0  0  0  0  0  0
   43.4400   27.2060   46.2170 C   0  0  0  0  0  0  0  0  0  0  0  0
   44.2430   26.7250   47.2350 C   0  0  0  0  0  0  0  0  0  0  0  0
   44.2050   25.3810   47.5810 O   0  0  0  0  0  0  0  0  0  0  0  0
   47.9746   30.7209   48.3500 H   0  0  0  0  0  0  0  0  0  0  0  0
   47.7949   29.2290   47.3579 H   0  0  0  0  0  0  0  0  0  0  0  0
   47.5098   31.7719   43.3290 H   0  0  0  0  0  0  0  0  0  0  0  0
   48.2237   29.7959   44.9471 H   0  0  0  0  0  0  0  0  0  0  0  0
   43.8268   36.2433   45.4448 H   0  0  0  0  0  0  0  0  0  0  0  0
   44.4968   37.1283   43.2146 H   0  0  0  0  0  0  0  0  0  0  0  0
   46.2066   35.8123   41.8823 H   0  0  0  0  0  0  0  0  0  0  0  0
   46.1864   29.6480   49.2990 H   0  0  0  0  0  0  0  0  0  0  0  0
   45.4460   30.8659   48.1117 H   0  0  0  0  0  0  0  0  0  0  0  0
   45.7153   27.1260   48.7314 H   0  0  0  0  0  0  0  0  0  0  0  0
   44.4047   30.4269   46.3458 H   0  0  0  0  0  0  0  0  0  0  0  0
   42.4520   29.5978   44.4467 H   0  0  0  0  0  0  0  0  0  0  0  0
   41.2902   27.4042   43.7985 H   0  0  0  0  0  0  0  0  0  0  0  0
   42.2731   25.4727   45.4361 H   0  0  0  0  0  0  0  0  0  0  0  0
   44.7816   25.0412   48.3104 H   0  0  0  0  0  0  0  0  0  0  0  0
  1 13  1  0
  2  6  2  0
  3  2  1  0
  3  4  2  0
  4  5  1  0
  5  1  1  0
  6  5  1  0
  7 12  2  0
  8  7  1  0
  9 10  1  0
  9  8  2  0
 10 11  2  0
 11  2  1  0
 11 12  1  0
 15 14  2  0
 15 13  1  0
 16 15  1  0
 17 21  1  0
 17 16  2  0
 18 17  1  0
 19 18  1  0
 19 20  2  0
 20 21  1  0
 21 22  2  0
 22 23  1  0
 22 14  1  0
  1 24  1  0
  1 25  1  0
  3 26  1  0
  4 27  1  0
  7 28  1  0
  8 29  1  0
  9 30  1  0
 13 31  1  0
 13 32  1  0
 14 33  1  0
 16 34  1  0
 18 35  1  0
 19 36  1  0
 20 37  1  0
 23 38  1  0
M  ISO  8  24   8  25   8  26  14  27  14  28  14  29  14  30  14  31   8
M  ISO  7  32   8  33  14  34  14  35   9  36  14  37  14  38   3
M  END
>  <minimizedAffinity>  (1) 
-5.18414497

>  <minimizedRMSD>  (1) 
0.0216165464

$$$$
