
     RDKit          3D

 52 56  0  0  0  0  0  0  0  0999 V2000
   46.7500   30.6640   48.7130 C   0  0  0  0  0  0  0  0  0  0  0  0
   46.4270   32.7630   45.8380 C   0  0  0  0  0  0  0  0  0  0  0  0
   47.3230   31.7810   45.3820 C   0  0  0  0  0  0  0  0  0  0  0  0
   47.5420   30.8990   46.3870 C   0  0  0  0  0  0  0  0  0  0  0  0
   46.8160   31.3170   47.4150 N   0  0  0  0  0  0  0  0  0  0  0  0
   46.1420   32.4270   47.1120 N   0  0  0  0  0  0  0  0  0  0  0  0
   44.5460   35.7230   44.8260 C   0  0  0  0  0  0  0  0  0  0  0  0
   45.0270   36.0080   43.5600 C   0  0  0  0  0  0  0  0  0  0  0  0
   46.0140   35.1520   43.0660 C   0  0  0  0  0  0  0  0  0  0  0  0
   46.4310   34.1290   43.8260 N   0  0  0  0  0  0  0  0  0  0  0  0
   45.9490   33.8780   45.0480 C   0  0  0  0  0  0  0  0  0  0  0  0
   44.9980   34.6880   45.5440 N   0  0  0  0  0  0  0  0  0  0  0  0
   46.6130   35.3350   41.7400 C   0  0  0  0  0  0  0  0  0  0  0  0
   46.3700   34.1390   40.8750 C   0  0  0  0  0  0  0  0  0  0  0  0
   47.5380   34.1220   39.9190 C   0  0  0  0  0  0  0  0  0  0  0  0
   48.5910   35.0440   40.4910 C   0  0  0  0  0  0  0  0  0  0  0  0
   48.1210   35.3940   41.8850 C   0  0  0  0  0  0  0  0  0  0  0  0
   45.3730   30.1460   48.9660 C   0  0  0  0  0  0  0  0  0  0  0  0
   44.9620   27.7100   48.2690 C   0  0  0  0  0  0  0  0  0  0  0  0
   44.9050   29.0800   48.0970 C   0  0  0  0  0  0  0  0  0  0  0  0
   44.3080   29.5120   46.9140 C   0  0  0  0  0  0  0  0  0  0  0  0
   43.8110   28.6440   45.9810 C   0  0  0  0  0  0  0  0  0  0  0  0
   43.2030   28.7700   44.7880 N   0  0  0  0  0  0  0  0  0  0  0  0
   42.9040   27.5800   44.2560 C   0  0  0  0  0  0  0  0  0  0  0  0
   43.3290   26.5930   45.1270 C   0  0  0  0  0  0  0  0  0  0  0  0
   43.8830   27.2900   46.1790 C   0  0  0  0  0  0  0  0  0  0  0  0
   44.4650   26.8390   47.3360 C   0  0  0  0  0  0  0  0  0  0  0  0
   44.5650   25.4130   47.5940 C   0  0  0  0  0  0  0  0  0  0  0  0
   44.9910   24.9560   48.6860 O   0  0  0  0  0  0  0  0  0  0  0  0
   47.0143   31.3888   49.4971 H   0  0  0  0  0  0  0  0  0  0  0  0
   47.4560   29.8205   48.7242 H   0  0  0  0  0  0  0  0  0  0  0  0
   47.7710   31.7360   44.3784 H   0  0  0  0  0  0  0  0  0  0  0  0
   48.1926   30.0126   46.3563 H   0  0  0  0  0  0  0  0  0  0  0  0
   43.7663   36.3686   45.2564 H   0  0  0  0  0  0  0  0  0  0  0  0
   44.6528   36.8613   42.9753 H   0  0  0  0  0  0  0  0  0  0  0  0
   46.1767   36.2467   41.3059 H   0  0  0  0  0  0  0  0  0  0  0  0
   46.3483   33.2200   41.4791 H   0  0  0  0  0  0  0  0  0  0  0  0
   45.4027   34.1889   40.3536 H   0  0  0  0  0  0  0  0  0  0  0  0
   47.2206   34.4796   38.9284 H   0  0  0  0  0  0  0  0  0  0  0  0
   47.9324   33.1021   39.7993 H   0  0  0  0  0  0  0  0  0  0  0  0
   49.5648   34.5341   40.5321 H   0  0  0  0  0  0  0  0  0  0  0  0
   48.7213   35.9430   39.8707 H   0  0  0  0  0  0  0  0  0  0  0  0
   48.4543   36.4008   42.1770 H   0  0  0  0  0  0  0  0  0  0  0  0
   48.5157   34.7256   42.6644 H   0  0  0  0  0  0  0  0  0  0  0  0
   45.3433   29.7703   49.9994 H   0  0  0  0  0  0  0  0  0  0  0  0
   44.7040   30.9959   48.7655 H   0  0  0  0  0  0  0  0  0  0  0  0
   45.4208   27.3064   49.1837 H   0  0  0  0  0  0  0  0  0  0  0  0
   44.2336   30.5928   46.7233 H   0  0  0  0  0  0  0  0  0  0  0  0
   42.9932   29.6729   44.3389 H   0  0  0  0  0  0  0  0  0  0  0  0
   42.4049   27.4142   43.2899 H   0  0  0  0  0  0  0  0  0  0  0  0
   43.2443   25.5028   45.0075 H   0  0  0  0  0  0  0  0  0  0  0  0
   44.2576   24.7083   46.8073 H   0  0  0  0  0  0  0  0  0  0  0  0
  1 18  1  0
  2  6  2  0
  3  2  1  0
  3  4  2  0
  4  5  1  0
  5  1  1  0
  6  5  1  0
  7 12  2  0
  8  7  1  0
  9  8  2  0
  9 10  1  0
 10 11  2  0
 11 12  1  0
 11  2  1  0
 13 17  1  0
 13  9  1  0
 14 13  1  0
 15 16  1  0
 15 14  1  0
 16 17  1  0
 20 19  2  0
 20 18  1  0
 21 20  1  0
 22 26  1  0
 22 21  2  0
 23 22  1  0
 24 23  1  0
 24 25  2  0
 25 26  1  0
 26 27  2  0
 27 28  1  0
 27 19  1  0
 28 29  2  0
  1 30  1  0
  1 31  1  0
  3 32  1  0
  4 33  1  0
  7 34  1  0
  8 35  1  0
 13 36  1  0
 14 37  1  0
 14 38  1  0
 15 39  1  0
 15 40  1  0
 16 41  1  0
 16 42  1  0
 17 43  1  0
 17 44  1  0
 18 45  1  0
 18 46  1  0
 19 47  1  0
 21 48  1  0
 23 49  1  0
 24 50  1  0
 25 51  1  0
 28 52  1  0
M  ISO  8  30   8  31   8  32  14  33  14  34  14  35  14  36  13  37  13
M  ISO  8  38  13  39  13  40  13  41  13  42  13  43  13  44  13  45   8
M  ISO  7  46   8  47  14  48  14  49   9  50  14  51  14  52   6
M  END
>  <minimizedAffinity>  (1) 
-6.32859516

>  <minimizedRMSD>  (1) 
0.855104983

$$$$
