
     RDKit          3D

 38 40  0  0  1  0  0  0  0  0999 V2000
   44.5070   35.8540   44.9130 C   0  0  0  0  0  0  0  0  0  0  0  0
   44.8190   35.6180   43.5570 C   0  0  0  0  0  0  0  0  0  0  0  0
   45.4380   34.4220   43.1980 C   0  0  0  0  0  0  0  0  0  0  0  0
   45.6990   33.5520   44.2010 N   0  0  0  0  0  0  0  0  0  0  0  0
   45.3980   33.7840   45.4770 C   0  0  0  0  0  0  0  0  0  0  0  0
   44.8080   34.9210   45.8430 N   0  0  0  0  0  0  0  0  0  0  0  0
   45.7120   32.7890   46.4360 N   0  0  0  0  0  0  0  0  0  0  0  0
   45.2230   32.7800   47.8200 C   0  0  0  0  0  0  0  0  0  0  0  0
   46.4110   32.2330   48.5580 C   0  0  0  0  0  0  0  0  0  0  0  0
   47.3950   31.7350   47.5290 C   0  0  0  0  0  0  0  0  0  0  0  0
   46.5220   31.6190   46.3210 C   0  0  2  0  0  0  0  0  0  0  0  0
   47.1670   31.3440   45.1120 N   0  0  0  0  0  0  0  0  0  0  0  0
   46.6670   30.3160   44.2750 C   0  0  0  0  0  0  0  0  0  0  0  0
   46.0050   30.9990   43.0780 C   0  0  0  0  0  0  0  0  0  0  0  0
   47.0300   31.5600   42.2230 N   0  0  0  0  0  0  0  0  0  0  0  0
   48.0340   32.2530   43.0090 C   0  0  0  0  0  0  0  0  0  0  0  0
   47.5290   32.5350   44.4120 C   0  0  0  0  0  0  0  0  0  0  0  0
   44.4480   36.6760   42.6550 N   0  0  0  0  0  0  0  0  0  0  0  0
   44.0205   36.7942   45.2118 H   0  0  0  0  0  0  0  0  0  0  0  0
   45.7007   34.1970   42.1538 H   0  0  0  0  0  0  0  0  0  0  0  0
   44.9700   33.7942   48.1627 H   0  0  0  0  0  0  0  0  0  0  0  0
   44.3006   32.1984   47.9643 H   0  0  0  0  0  0  0  0  0  0  0  0
   46.8724   33.0249   49.1662 H   0  0  0  0  0  0  0  0  0  0  0  0
   46.1071   31.4168   49.2299 H   0  0  0  0  0  0  0  0  0  0  0  0
   48.2100   32.4562   47.3691 H   0  0  0  0  0  0  0  0  0  0  0  0
   47.9045   30.8009   47.8080 H   0  0  0  0  0  0  0  0  0  0  0  0
   45.9020   30.7109   46.2904 H   0  0  0  0  0  0  0  0  0  0  0  0
   47.4908   29.6714   43.9345 H   0  0  0  0  0  0  0  0  0  0  0  0
   45.9465   29.6844   44.8154 H   0  0  0  0  0  0  0  0  0  0  0  0
   45.4172   30.2612   42.5122 H   0  0  0  0  0  0  0  0  0  0  0  0
   45.3393   31.8002   43.4314 H   0  0  0  0  0  0  0  0  0  0  0  0
   46.5960   32.2253   41.5673 H   0  0  0  0  0  0  0  0  0  0  0  0
   48.9368   31.6276   43.0708 H   0  0  0  0  0  0  0  0  0  0  0  0
   48.2612   33.2116   42.5196 H   0  0  0  0  0  0  0  0  0  0  0  0
   46.6457   33.1871   44.3447 H   0  0  0  0  0  0  0  0  0  0  0  0
   48.3451   33.0165   44.9708 H   0  0  0  0  0  0  0  0  0  0  0  0
   44.6399   36.5845   41.6472 H   0  0  0  0  0  0  0  0  0  0  0  0
   43.9905   37.5248   43.0172 H   0  0  0  0  0  0  0  0  0  0  0  0
  1  6  2  0
  2  1  1  0
  3  2  2  0
  3  4  1  0
  4  5  2  0
  5  6  1  0
  5  7  1  0
  7  8  1  0
  8  9  1  0
 10  9  1  0
 11  7  1  0
 11 10  1  0
 12 17  1  0
 12 11  1  0
 13 12  1  0
 14 13  1  0
 15 16  1  0
 15 14  1  0
 16 17  1  0
 18  2  1  0
  1 19  1  0
  3 20  1  0
  8 21  1  0
  8 22  1  0
  9 23  1  0
  9 24  1  0
 10 25  1  0
 10 26  1  0
 11 27  1  1
 13 28  1  0
 13 29  1  0
 14 30  1  0
 14 31  1  0
 15 32  1  0
 16 33  1  0
 16 34  1  0
 17 35  1  0
 17 36  1  0
 18 37  1  0
 18 38  1  0
M  ISO  8  19  14  20  14  21  13  22  13  23  13  24  13  25  13  26  13
M  ISO  8  27  13  28  13  29  13  30  13  31  13  32   5  33  13  34  13
M  ISO  2  35  13  36  13
M  END
>  <minimizedAffinity>  (1) 
-4.92219305

>  <minimizedRMSD>  (1) 
0.946239769

$$$$
