
     RDKit          3D

 49 52  0  0  1  0  0  0  0  0999 V2000
   47.2030   34.1000   42.4770 C   0  0  2  0  0  0  0  0  0  0  0  0
   48.5540   34.7410   42.5840 C   0  0  0  0  0  0  0  0  0  0  0  0
   48.8140   35.7000   41.4900 C   0  0  0  0  0  0  0  0  0  0  0  0
   48.6430   35.0950   40.1150 C   0  0  0  0  0  0  0  0  0  0  0  0
   47.4730   34.1610   40.0110 C   0  0  0  0  0  0  0  0  0  0  0  0
   46.5150   34.2770   41.1740 C   0  0  1  0  0  0  0  0  0  0  0  0
   46.3030   34.4710   43.5880 C   0  0  0  0  0  0  0  0  0  0  0  0
   45.5900   35.6330   43.3480 C   0  0  0  0  0  0  0  0  0  0  0  0
   44.6890   36.1090   44.3150 C   0  0  0  0  0  0  0  0  0  0  0  0
   44.5900   35.3350   45.4780 N   0  0  0  0  0  0  0  0  0  0  0  0
   45.3100   34.2100   45.6630 C   0  0  0  0  0  0  0  0  0  0  0  0
   46.1580   33.7950   44.7080 N   0  0  0  0  0  0  0  0  0  0  0  0
   45.4910   33.1840   41.0360 C   0  0  2  0  0  0  0  0  0  0  0  0
   44.8580   32.9830   39.6710 C   0  0  0  0  0  0  0  0  0  0  0  0
   44.0610   33.5130   40.7890 C   0  0  1  0  0  0  0  0  0  0  0  0
   43.1250   32.6860   41.6160 C   0  0  0  0  0  0  0  0  0  0  0  0
   41.7740   32.4850   41.0080 C   0  0  0  0  0  0  0  0  0  0  0  0
   41.4320   33.4870   40.0260 N   0  0  0  0  0  0  0  0  0  0  0  0
   41.1560   34.7680   40.3310 C   0  0  0  0  0  0  0  0  0  0  0  0
   40.8350   35.6710   39.3110 C   0  0  0  0  0  0  0  0  0  0  0  0
   40.8290   35.1370   38.0150 C   0  0  0  0  0  0  0  0  0  0  0  0
   40.5300   35.9980   37.1190 O   0  0  0  0  0  0  0  0  0  0  0  0
   41.1100   33.8490   37.7420 N   0  0  0  0  0  0  0  0  0  0  0  0
   41.4130   33.0230   38.7620 C   0  0  0  0  0  0  0  0  0  0  0  0
   41.6620   31.8390   38.4180 O   0  0  0  0  0  0  0  0  0  0  0  0
   47.4339   33.0270   42.5503 H   0  0  0  0  0  0  0  0  0  0  0  0
   48.6159   35.2753   43.5435 H   0  0  0  0  0  0  0  0  0  0  0  0
   49.3085   33.9435   42.5156 H   0  0  0  0  0  0  0  0  0  0  0  0
   48.1147   36.5431   41.5905 H   0  0  0  0  0  0  0  0  0  0  0  0
   49.8626   36.0204   41.5782 H   0  0  0  0  0  0  0  0  0  0  0  0
   48.5019   35.9111   39.3911 H   0  0  0  0  0  0  0  0  0  0  0  0
   49.5472   34.5038   39.9079 H   0  0  0  0  0  0  0  0  0  0  0  0
   46.9263   34.3870   39.0836 H   0  0  0  0  0  0  0  0  0  0  0  0
   47.8712   33.1356   40.0158 H   0  0  0  0  0  0  0  0  0  0  0  0
   46.0623   35.2794   41.1559 H   0  0  0  0  0  0  0  0  0  0  0  0
   45.7283   36.1812   42.4044 H   0  0  0  0  0  0  0  0  0  0  0  0
   44.1012   37.0272   44.1687 H   0  0  0  0  0  0  0  0  0  0  0  0
   45.2030   33.6337   46.5938 H   0  0  0  0  0  0  0  0  0  0  0  0
   46.0204   32.5649   41.7752 H   0  0  0  0  0  0  0  0  0  0  0  0
   44.6713   31.9664   39.2946 H   0  0  0  0  0  0  0  0  0  0  0  0
   45.0865   33.3182   38.6485 H   0  0  0  0  0  0  0  0  0  0  0  0
   43.3877   34.3823   40.8209 H   0  0  0  0  0  0  0  0  0  0  0  0
   43.5834   31.6979   41.7692 H   0  0  0  0  0  0  0  0  0  0  0  0
   42.9670   33.2368   42.5550 H   0  0  0  0  0  0  0  0  0  0  0  0
   41.7539   31.4987   40.5213 H   0  0  0  0  0  0  0  0  0  0  0  0
   41.0373   32.5626   41.8211 H   0  0  0  0  0  0  0  0  0  0  0  0
   41.1825   35.1043   41.3780 H   0  0  0  0  0  0  0  0  0  0  0  0
   40.6033   36.7273   39.5125 H   0  0  0  0  0  0  0  0  0  0  0  0
   41.0936   33.5020   36.7723 H   0  0  0  0  0  0  0  0  0  0  0  0
  1  2  1  0
  1  7  1  0
  3  2  1  0
  4  3  1  0
  5  4  1  0
  5  6  1  0
  6  1  1  0
  7 12  1  0
  8  7  2  0
  8  9  1  0
  9 10  2  0
 10 11  1  0
 12 11  2  0
 13  6  1  0
 14 15  1  0
 14 13  1  0
 15 13  1  0
 15 16  1  0
 17 16  1  0
 18 19  1  0
 18 17  1  0
 20 19  2  0
 21 20  1  0
 22 21  2  0
 23 21  1  0
 23 24  1  0
 24 18  1  0
 25 24  2  0
  1 26  1  1
  2 27  1  0
  2 28  1  0
  3 29  1  0
  3 30  1  0
  4 31  1  0
  4 32  1  0
  5 33  1  0
  5 34  1  0
  6 35  1  1
  8 36  1  0
  9 37  1  0
 11 38  1  0
 13 39  1  1
 14 40  1  0
 14 41  1  0
 15 42  1  6
 16 43  1  0
 16 44  1  0
 17 45  1  0
 17 46  1  0
 19 47  1  0
 20 48  1  0
 23 49  1  0
M  ISO  8  26  13  27  13  28  13  29  13  30  13  31  13  32  13  33  13
M  ISO  8  34  13  35  13  36  14  37  14  38  14  39  13  40  13  41  13
M  ISO  8  42  13  43   8  44   8  45   8  46   8  47  14  48  14  49   9
M  END
>  <minimizedAffinity>  (1) 
-6.6611166

>  <minimizedRMSD>  (1) 
2.10852766

$$$$
