
     RDKit          3D

 39 41  0  0  1  0  0  0  0  0999 V2000
   44.4470   35.7190   44.9940 C   0  0  0  0  0  0  0  0  0  0  0  0
   45.1240   35.6850   43.7520 C   0  0  0  0  0  0  0  0  0  0  0  0
   46.0530   34.7160   43.5240 C   0  0  0  0  0  0  0  0  0  0  0  0
   46.2810   33.8260   44.5170 N   0  0  0  0  0  0  0  0  0  0  0  0
   45.6400   33.8610   45.6890 C   0  0  0  0  0  0  0  0  0  0  0  0
   44.7290   34.7970   45.9360 N   0  0  0  0  0  0  0  0  0  0  0  0
   45.9680   32.8670   46.6540 N   0  0  0  0  0  0  0  0  0  0  0  0
   45.1610   32.5820   47.8450 C   0  0  0  0  0  0  0  0  0  0  0  0
   46.2320   32.2910   48.8700 C   0  0  0  0  0  0  0  0  0  0  0  0
   47.5310   32.1590   48.1390 C   0  0  0  0  0  0  0  0  0  0  0  0
   47.0910   31.9660   46.6910 C   0  0  1  0  0  0  0  0  0  0  0  0
   44.7700   36.7050   42.7960 N   0  0  0  0  0  0  0  0  0  0  0  0
   46.6010   30.2470   46.4840 S   0  0  0  0  0  0  0  0  0  0  0  0
   47.0330   27.9710   47.7130 N   0  0  0  0  0  0  0  0  0  0  0  0
   47.7140   29.2070   47.5060 C   0  0  1  0  0  0  0  0  0  0  0  0
   48.9450   28.9860   46.6780 C   0  0  0  0  0  0  0  0  0  0  0  0
   49.8770   28.0420   47.2310 N   0  0  0  0  0  0  0  0  0  0  0  0
   49.2520   27.2210   48.2520 C   0  0  0  0  0  0  0  0  0  0  0  0
   47.8950   26.8210   47.7140 C   0  0  0  0  0  0  0  0  0  0  0  0
   43.6929   36.4954   45.1902 H   0  0  0  0  0  0  0  0  0  0  0  0
   46.5969   34.6591   42.5696 H   0  0  0  0  0  0  0  0  0  0  0  0
   44.5520   33.4508   48.1354 H   0  0  0  0  0  0  0  0  0  0  0  0
   44.4345   31.7670   47.7108 H   0  0  0  0  0  0  0  0  0  0  0  0
   46.2915   33.1158   49.5954 H   0  0  0  0  0  0  0  0  0  0  0  0
   46.0012   31.3664   49.4194 H   0  0  0  0  0  0  0  0  0  0  0  0
   48.1409   33.0677   48.2492 H   0  0  0  0  0  0  0  0  0  0  0  0
   48.1587   31.3375   48.5148 H   0  0  0  0  0  0  0  0  0  0  0  0
   47.8341   32.1637   45.9044 H   0  0  0  0  0  0  0  0  0  0  0  0
   45.2304   36.7296   41.8749 H   0  0  0  0  0  0  0  0  0  0  0  0
   44.0568   37.4089   43.0343 H   0  0  0  0  0  0  0  0  0  0  0  0
   46.3383   27.8543   46.9615 H   0  0  0  0  0  0  0  0  0  0  0  0
   47.9788   29.6561   48.4746 H   0  0  0  0  0  0  0  0  0  0  0  0
   49.4605   29.9512   46.5654 H   0  0  0  0  0  0  0  0  0  0  0  0
   48.6050   28.5639   45.7208 H   0  0  0  0  0  0  0  0  0  0  0  0
   50.2249   27.4328   46.4769 H   0  0  0  0  0  0  0  0  0  0  0  0
   49.8622   26.3265   48.4459 H   0  0  0  0  0  0  0  0  0  0  0  0
   49.1567   27.7708   49.2000 H   0  0  0  0  0  0  0  0  0  0  0  0
   47.4622   26.0365   48.3522 H   0  0  0  0  0  0  0  0  0  0  0  0
   48.0010   26.4359   46.6891 H   0  0  0  0  0  0  0  0  0  0  0  0
  1  6  2  0
  2  1  1  0
  3  2  2  0
  3  4  1  0
  4  5  2  0
  5  6  1  0
  5  7  1  0
  7 11  1  0
  7  8  1  0
  8  9  1  0
 10  9  1  0
 11 10  1  0
 12  2  1  0
 13 11  1  0
 14 19  1  0
 15 13  1  0
 15 14  1  0
 16 17  1  0
 16 15  1  0
 17 18  1  0
 19 18  1  0
  1 20  1  0
  3 21  1  0
  8 22  1  0
  8 23  1  0
  9 24  1  0
  9 25  1  0
 10 26  1  0
 10 27  1  0
 11 28  1  6
 12 29  1  0
 12 30  1  0
 14 31  1  0
 15 32  1  1
 16 33  1  0
 16 34  1  0
 17 35  1  0
 18 36  1  0
 18 37  1  0
 19 38  1  0
 19 39  1  0
M  ISO  8  20  14  21  14  22  13  23  13  24  13  25  13  26  13  27  13
M  ISO  8  28  13  31   5  32  13  33  13  34  13  35   5  36  13  37  13
M  ISO  2  38  13  39  13
M  END
>  <minimizedAffinity>  (1) 
-5.36899853

>  <minimizedRMSD>  (1) 
1.25476468

$$$$
