
     RDKit          3D

 35 37  0  0  1  0  0  0  0  0999 V2000
   44.4780   35.5720   45.0980 C   0  0  0  0  0  0  0  0  0  0  0  0
   45.1510   35.5780   43.8480 C   0  0  0  0  0  0  0  0  0  0  0  0
   46.0940   34.6310   43.5940 C   0  0  0  0  0  0  0  0  0  0  0  0
   46.3310   33.7240   44.5800 N   0  0  0  0  0  0  0  0  0  0  0  0
   45.7040   33.7180   45.7440 C   0  0  0  0  0  0  0  0  0  0  0  0
   44.7680   34.6400   46.0280 N   0  0  0  0  0  0  0  0  0  0  0  0
   46.0330   32.7240   46.6930 N   0  0  0  0  0  0  0  0  0  0  0  0
   45.2550   32.4000   47.8860 C   0  0  0  0  0  0  0  0  0  0  0  0
   46.3350   32.1100   48.9020 C   0  0  0  0  0  0  0  0  0  0  0  0
   47.6360   31.9970   48.1440 C   0  0  0  0  0  0  0  0  0  0  0  0
   47.1540   31.8290   46.7230 C   0  0  1  0  0  0  0  0  0  0  0  0
   44.7700   36.6130   42.9300 N   0  0  0  0  0  0  0  0  0  0  0  0
   46.7130   30.1080   46.4580 S   0  0  0  0  0  0  0  0  0  0  0  0
   44.4240   28.1190   47.0270 Cl  0  0  0  0  0  0  0  0  0  0  0  0
   44.4790   29.0030   45.5090 C   0  0  0  0  0  0  0  0  0  0  0  0
   45.4760   29.9030   45.2080 C   0  0  0  0  0  0  0  0  0  0  0  0
   45.4150   30.5380   43.9870 C   0  0  0  0  0  0  0  0  0  0  0  0
   44.4160   30.3150   43.0650 C   0  0  0  0  0  0  0  0  0  0  0  0
   43.4480   29.4040   43.4240 C   0  0  0  0  0  0  0  0  0  0  0  0
   43.4290   28.7170   44.6360 C   0  0  0  0  0  0  0  0  0  0  0  0
   43.7135   36.3341   45.3095 H   0  0  0  0  0  0  0  0  0  0  0  0
   46.6381   34.6001   42.6385 H   0  0  0  0  0  0  0  0  0  0  0  0
   44.6313   33.2505   48.1986 H   0  0  0  0  0  0  0  0  0  0  0  0
   44.5501   31.5681   47.7411 H   0  0  0  0  0  0  0  0  0  0  0  0
   46.3944   32.9287   49.6342 H   0  0  0  0  0  0  0  0  0  0  0  0
   46.1185   31.1814   49.4505 H   0  0  0  0  0  0  0  0  0  0  0  0
   48.2444   32.9066   48.2554 H   0  0  0  0  0  0  0  0  0  0  0  0
   48.2847   31.1801   48.4932 H   0  0  0  0  0  0  0  0  0  0  0  0
   47.8806   32.0580   45.9295 H   0  0  0  0  0  0  0  0  0  0  0  0
   45.2205   36.6730   42.0057 H   0  0  0  0  0  0  0  0  0  0  0  0
   44.0461   37.2959   43.1954 H   0  0  0  0  0  0  0  0  0  0  0  0
   46.2051   31.2607   43.7351 H   0  0  0  0  0  0  0  0  0  0  0  0
   44.3929   30.8356   42.0963 H   0  0  0  0  0  0  0  0  0  0  0  0
   42.6372   29.2058   42.7076 H   0  0  0  0  0  0  0  0  0  0  0  0
   42.6375   27.9959   44.8882 H   0  0  0  0  0  0  0  0  0  0  0  0
  1  6  2  0
  2  1  1  0
  3  2  2  0
  3  4  1  0
  4  5  2  0
  5  6  1  0
  5  7  1  0
  7 11  1  0
  7  8  1  0
  8  9  1  0
 10  9  1  0
 11 10  1  0
 12  2  1  0
 13 11  1  0
 15 14  1  0
 16 15  2  0
 16 13  1  0
 17 16  1  0
 18 19  1  0
 18 17  2  0
 19 20  2  0
 20 15  1  0
  1 21  1  0
  3 22  1  0
  8 23  1  0
  8 24  1  0
  9 25  1  0
  9 26  1  0
 10 27  1  0
 10 28  1  0
 11 29  1  6
 12 30  1  0
 12 31  1  0
 17 32  1  0
 18 33  1  0
 19 34  1  0
 20 35  1  0
M  ISO  8  21  14  22  14  23  13  24  13  25  13  26  13  27  13  28  13
M  ISO  5  29  13  32  14  33  14  34  14  35  14
M  END
>  <minimizedAffinity>  (1) 
-5.36642027

>  <minimizedRMSD>  (1) 
0.998378217

$$$$
