
     RDKit          3D

 34 36  0  0  1  0  0  0  0  0999 V2000
   44.5060   35.5440   45.1010 C   0  0  0  0  0  0  0  0  0  0  0  0
   45.1740   35.5080   43.8550 C   0  0  0  0  0  0  0  0  0  0  0  0
   46.0910   34.5290   43.6340 C   0  0  0  0  0  0  0  0  0  0  0  0
   46.3170   33.6390   44.6180 N   0  0  0  0  0  0  0  0  0  0  0  0
   45.6800   33.6790   45.7960 C   0  0  0  0  0  0  0  0  0  0  0  0
   44.7690   34.6240   46.0630 N   0  0  0  0  0  0  0  0  0  0  0  0
   45.9960   32.6910   46.7730 N   0  0  0  0  0  0  0  0  0  0  0  0
   45.2080   32.4010   47.9610 C   0  0  0  0  0  0  0  0  0  0  0  0
   46.2990   32.1350   48.9860 C   0  0  0  0  0  0  0  0  0  0  0  0
   47.5970   31.9960   48.2280 C   0  0  0  0  0  0  0  0  0  0  0  0
   47.1320   31.7900   46.8010 C   0  0  1  0  0  0  0  0  0  0  0  0
   44.7820   36.5490   42.9570 N   0  0  0  0  0  0  0  0  0  0  0  0
   46.6470   30.0650   46.6200 S   0  0  0  0  0  0  0  0  0  0  0  0
   45.4230   29.8360   45.3430 C   0  0  0  0  0  0  0  0  0  0  0  0
   44.3810   28.9690   45.6440 C   0  0  0  0  0  0  0  0  0  0  0  0
   43.4010   28.7530   44.6900 C   0  0  0  0  0  0  0  0  0  0  0  0
   43.4470   29.3840   43.4510 C   0  0  0  0  0  0  0  0  0  0  0  0
   44.5100   30.2390   43.2030 C   0  0  0  0  0  0  0  0  0  0  0  0
   45.4790   30.4570   44.1380 N   0  0  0  0  0  0  0  0  0  0  0  0
   43.7613   36.3304   45.2933 H   0  0  0  0  0  0  0  0  0  0  0  0
   46.6326   34.4661   42.6786 H   0  0  0  0  0  0  0  0  0  0  0  0
   44.5848   33.2601   48.2502 H   0  0  0  0  0  0  0  0  0  0  0  0
   44.4953   31.5724   47.8370 H   0  0  0  0  0  0  0  0  0  0  0  0
   46.3638   32.9742   49.6942 H   0  0  0  0  0  0  0  0  0  0  0  0
   46.0819   31.2224   49.5605 H   0  0  0  0  0  0  0  0  0  0  0  0
   48.2079   32.9063   48.3181 H   0  0  0  0  0  0  0  0  0  0  0  0
   48.2337   31.1800   48.6006 H   0  0  0  0  0  0  0  0  0  0  0  0
   47.8592   31.9856   45.9992 H   0  0  0  0  0  0  0  0  0  0  0  0
   45.2101   36.6111   42.0223 H   0  0  0  0  0  0  0  0  0  0  0  0
   44.0714   37.2369   43.2447 H   0  0  0  0  0  0  0  0  0  0  0  0
   44.3350   28.4642   46.6202 H   0  0  0  0  0  0  0  0  0  0  0  0
   42.5697   28.0690   44.9162 H   0  0  0  0  0  0  0  0  0  0  0  0
   42.6674   29.2107   42.6946 H   0  0  0  0  0  0  0  0  0  0  0  0
   44.5732   30.7522   42.2321 H   0  0  0  0  0  0  0  0  0  0  0  0
  1  6  2  0
  2  1  1  0
  3  2  2  0
  3  4  1  0
  4  5  2  0
  5  6  1  0
  5  7  1  0
  7 11  1  0
  7  8  1  0
  8  9  1  0
 10  9  1  0
 11 10  1  0
 12  2  1  0
 13 11  1  0
 14 15  2  0
 14 13  1  0
 16 15  1  0
 17 16  2  0
 18 17  1  0
 18 19  2  0
 19 14  1  0
  1 20  1  0
  3 21  1  0
  8 22  1  0
  8 23  1  0
  9 24  1  0
  9 25  1  0
 10 26  1  0
 10 27  1  0
 11 28  1  6
 12 29  1  0
 12 30  1  0
 15 31  1  0
 16 32  1  0
 17 33  1  0
 18 34  1  0
M  ISO  8  20  14  21  14  22  13  23  13  24  13  25  13  26  13  27  13
M  ISO  5  28  13  31  14  32  14  33  14  34  14
M  END
>  <minimizedAffinity>  (1) 
-5.17949724

>  <minimizedRMSD>  (1) 
0.74473989

$$$$
