
     RDKit          3D

 45 48  0  0  1  0  0  0  0  0999 V2000
   47.0950   34.1060   42.4670 C   0  0  2  0  0  0  0  0  0  0  0  0
   48.5090   34.5740   42.6440 C   0  0  0  0  0  0  0  0  0  0  0  0
   48.9020   35.5780   41.6320 C   0  0  0  0  0  0  0  0  0  0  0  0
   48.6940   35.1110   40.2130 C   0  0  0  0  0  0  0  0  0  0  0  0
   47.4340   34.3130   40.0190 C   0  0  0  0  0  0  0  0  0  0  0  0
   46.4650   34.4610   41.1710 C   0  0  1  0  0  0  0  0  0  0  0  0
   46.2190   34.4970   43.5900 C   0  0  0  0  0  0  0  0  0  0  0  0
   45.5430   35.6830   43.3670 C   0  0  0  0  0  0  0  0  0  0  0  0
   44.6650   36.1830   44.3440 C   0  0  0  0  0  0  0  0  0  0  0  0
   44.5500   35.4020   45.5020 N   0  0  0  0  0  0  0  0  0  0  0  0
   45.2320   34.2520   45.6690 C   0  0  0  0  0  0  0  0  0  0  0  0
   46.0630   33.8110   44.7050 N   0  0  0  0  0  0  0  0  0  0  0  0
   45.3240   33.5100   40.9330 C   0  0  2  0  0  0  0  0  0  0  0  0
   44.8660   33.3100   39.4980 C   0  0  0  0  0  0  0  0  0  0  0  0
   44.0050   34.0140   40.4640 C   0  0  1  0  0  0  0  0  0  0  0  0
   42.8480   33.3840   41.1790 C   0  0  0  0  0  0  0  0  0  0  0  0
   41.6670   34.2910   41.3210 C   0  0  0  0  0  0  0  0  0  0  0  0
   40.4010   33.5960   41.0370 C   0  0  0  0  0  0  0  0  0  0  0  0
   40.1340   32.3200   41.5760 C   0  0  0  0  0  0  0  0  0  0  0  0
   38.4230   31.9450   40.8940 S   0  0  0  0  0  0  0  0  0  0  0  0
   38.4230   33.6240   40.0050 C   0  0  0  0  0  0  0  0  0  0  0  0
   39.4240   34.0550   40.2910 N   0  0  0  0  0  0  0  0  0  0  0  0
   47.1955   33.0106   42.4602 H   0  0  0  0  0  0  0  0  0  0  0  0
   48.6102   35.0218   43.6436 H   0  0  0  0  0  0  0  0  0  0  0  0
   49.1682   33.7016   42.5241 H   0  0  0  0  0  0  0  0  0  0  0  0
   48.3030   36.4867   41.7914 H   0  0  0  0  0  0  0  0  0  0  0  0
   49.9790   35.7625   41.7587 H   0  0  0  0  0  0  0  0  0  0  0  0
   48.6499   35.9946   39.5593 H   0  0  0  0  0  0  0  0  0  0  0  0
   49.5363   34.4482   39.9654 H   0  0  0  0  0  0  0  0  0  0  0  0
   46.9397   34.6545   39.0975 H   0  0  0  0  0  0  0  0  0  0  0  0
   47.7189   33.2522   39.9592 H   0  0  0  0  0  0  0  0  0  0  0  0
   46.1336   35.5087   41.2213 H   0  0  0  0  0  0  0  0  0  0  0  0
   45.6923   36.2339   42.4267 H   0  0  0  0  0  0  0  0  0  0  0  0
   44.1072   37.1215   44.2092 H   0  0  0  0  0  0  0  0  0  0  0  0
   45.1098   33.6716   46.5954 H   0  0  0  0  0  0  0  0  0  0  0  0
   45.6498   32.8732   41.7687 H   0  0  0  0  0  0  0  0  0  0  0  0
   44.5895   32.3064   39.1426 H   0  0  0  0  0  0  0  0  0  0  0  0
   45.2808   33.5451   38.5067 H   0  0  0  0  0  0  0  0  0  0  0  0
   43.4662   34.9672   40.3588 H   0  0  0  0  0  0  0  0  0  0  0  0
   42.5357   32.4916   40.6167 H   0  0  0  0  0  0  0  0  0  0  0  0
   43.1910   33.1390   42.1950 H   0  0  0  0  0  0  0  0  0  0  0  0
   41.6372   34.6767   42.3507 H   0  0  0  0  0  0  0  0  0  0  0  0
   41.7767   35.1084   40.5931 H   0  0  0  0  0  0  0  0  0  0  0  0
   40.7666   31.7014   42.2296 H   0  0  0  0  0  0  0  0  0  0  0  0
   37.6409   34.0652   39.3696 H   0  0  0  0  0  0  0  0  0  0  0  0
  1  2  1  0
  1  7  1  0
  3  2  1  0
  4  3  1  0
  5  4  1  0
  5  6  1  0
  6  1  1  0
  7 12  1  0
  8  7  2  0
  8  9  1  0
  9 10  2  0
 10 11  1  0
 12 11  2  0
 13  6  1  0
 14 15  1  0
 14 13  1  0
 15 13  1  0
 15 16  1  0
 16 17  1  0
 18 17  1  0
 18 19  2  0
 20 19  1  0
 21 22  2  0
 21 20  1  0
 22 18  1  0
  1 23  1  6
  2 24  1  0
  2 25  1  0
  3 26  1  0
  3 27  1  0
  4 28  1  0
  4 29  1  0
  5 30  1  0
  5 31  1  0
  6 32  1  1
  8 33  1  0
  9 34  1  0
 11 35  1  0
 13 36  1  1
 14 37  1  0
 14 38  1  0
 15 39  1  6
 16 40  1  0
 16 41  1  0
 17 42  1  0
 17 43  1  0
 19 44  1  0
 21 45  1  0
M  ISO  8  23  13  24  13  25  13  26  13  27  13  28  13  29  13  30  13
M  ISO  8  31  13  32  13  33  14  34  14  35  14  36  13  37  13  38  13
M  ISO  7  39  13  40   8  41   8  42   8  43   8  44  14  45  14
M  END
>  <minimizedAffinity>  (1) 
-6.23369694

>  <minimizedRMSD>  (1) 
1.40180159

$$$$
