
     RDKit          3D

 28 29  0  0  1  0  0  0  0  0999 V2000
   44.4760   35.7320   45.0010 C   0  0  0  0  0  0  0  0  0  0  0  0
   45.1220   35.7070   43.7580 C   0  0  0  0  0  0  0  0  0  0  0  0
   46.0290   34.7220   43.5050 C   0  0  0  0  0  0  0  0  0  0  0  0
   46.2510   33.8180   44.4890 N   0  0  0  0  0  0  0  0  0  0  0  0
   45.6350   33.8470   45.6670 C   0  0  0  0  0  0  0  0  0  0  0  0
   44.7390   34.8020   45.9470 N   0  0  0  0  0  0  0  0  0  0  0  0
   45.9420   32.8430   46.6360 N   0  0  0  0  0  0  0  0  0  0  0  0
   45.1530   32.5620   47.8270 C   0  0  0  0  0  0  0  0  0  0  0  0
   46.2440   32.2390   48.8320 C   0  0  0  0  0  0  0  0  0  0  0  0
   47.5360   32.0970   48.0590 C   0  0  0  0  0  0  0  0  0  0  0  0
   47.0610   31.9230   46.6430 C   0  0  1  0  0  0  0  0  0  0  0  0
   44.7600   36.7390   42.8310 N   0  0  0  0  0  0  0  0  0  0  0  0
   46.5240   30.2080   46.4170 S   0  0  0  0  0  0  0  0  0  0  0  0
   45.5120   30.0460   44.9080 C   0  0  0  0  0  0  0  0  0  0  0  0
   43.7411   36.5229   45.2114 H   0  0  0  0  0  0  0  0  0  0  0  0
   46.5584   34.6635   42.5425 H   0  0  0  0  0  0  0  0  0  0  0  0
   44.5652   33.4384   48.1375 H   0  0  0  0  0  0  0  0  0  0  0  0
   44.4071   31.7640   47.6973 H   0  0  0  0  0  0  0  0  0  0  0  0
   46.3321   33.0525   49.5672 H   0  0  0  0  0  0  0  0  0  0  0  0
   46.0111   31.3123   49.3770 H   0  0  0  0  0  0  0  0  0  0  0  0
   48.1589   32.9980   48.1599 H   0  0  0  0  0  0  0  0  0  0  0  0
   48.1651   31.2665   48.4120 H   0  0  0  0  0  0  0  0  0  0  0  0
   47.7975   32.1148   45.8487 H   0  0  0  0  0  0  0  0  0  0  0  0
   45.2008   36.7734   41.9007 H   0  0  0  0  0  0  0  0  0  0  0  0
   44.0591   37.4460   43.0953 H   0  0  0  0  0  0  0  0  0  0  0  0
   44.4614   29.8778   45.1874 H   0  0  0  0  0  0  0  0  0  0  0  0
   45.5902   30.9681   44.3133 H   0  0  0  0  0  0  0  0  0  0  0  0
   45.8741   29.1944   44.3133 H   0  0  0  0  0  0  0  0  0  0  0  0
  1  6  2  0
  2  1  1  0
  3  2  2  0
  3  4  1  0
  4  5  2  0
  5  6  1  0
  5  7  1  0
  7 11  1  0
  7  8  1  0
  8  9  1  0
 10  9  1  0
 11 10  1  0
 12  2  1  0
 13 11  1  0
 14 13  1  0
  1 15  1  0
  3 16  1  0
  8 17  1  0
  8 18  1  0
  9 19  1  0
  9 20  1  0
 10 21  1  0
 10 22  1  0
 11 23  1  6
 12 24  1  0
 12 25  1  0
 14 26  1  0
 14 27  1  0
 14 28  1  0
M  ISO  8  15  14  16  14  17  13  18  13  19  13  20  13  21  13  22  13
M  ISO  4  23  13  26   8  27   8  28   8
M  END
>  <minimizedAffinity>  (1) 
-4.83490181

>  <minimizedRMSD>  (1) 
0.0930783451

$$$$
