
     RDKit          3D

 43 45  0  0  1  0  0  0  0  0999 V2000
   47.1080   34.1070   42.4570 C   0  0  2  0  0  0  0  0  0  0  0  0
   48.5080   34.6200   42.6150 C   0  0  0  0  0  0  0  0  0  0  0  0
   48.8670   35.6140   41.5820 C   0  0  0  0  0  0  0  0  0  0  0  0
   48.6690   35.0990   40.1750 C   0  0  0  0  0  0  0  0  0  0  0  0
   47.4150   34.2940   40.0010 C   0  0  0  0  0  0  0  0  0  0  0  0
   46.4570   34.4190   41.1610 C   0  0  1  0  0  0  0  0  0  0  0  0
   46.2290   34.4900   43.5800 C   0  0  0  0  0  0  0  0  0  0  0  0
   45.5520   35.6780   43.3610 C   0  0  0  0  0  0  0  0  0  0  0  0
   44.6730   36.1660   44.3420 C   0  0  0  0  0  0  0  0  0  0  0  0
   44.5560   35.3800   45.4960 N   0  0  0  0  0  0  0  0  0  0  0  0
   45.2410   34.2300   45.6580 C   0  0  0  0  0  0  0  0  0  0  0  0
   46.0690   33.8040   44.6910 N   0  0  0  0  0  0  0  0  0  0  0  0
   45.3450   33.4270   40.9510 C   0  0  2  0  0  0  0  0  0  0  0  0
   44.7540   33.3150   39.5580 C   0  0  0  0  0  0  0  0  0  0  0  0
   43.9640   33.8950   40.6560 C   0  0  1  0  0  0  0  0  0  0  0  0
   42.9120   33.1500   41.4170 C   0  0  0  0  0  0  0  0  0  0  0  0
   41.5240   33.6820   41.2240 C   0  0  0  0  0  0  0  0  0  0  0  0
   40.7480   36.0040   41.0800 C   0  0  0  0  0  0  0  0  0  0  0  0
   40.4890   35.8690   39.8440 O   0  0  0  0  0  0  0  0  0  0  0  0
   41.2840   34.9350   41.8770 N   0  0  0  0  0  0  0  0  0  0  0  0
   47.2430   33.0154   42.4674 H   0  0  0  0  0  0  0  0  0  0  0  0
   48.6016   35.0906   43.6049 H   0  0  0  0  0  0  0  0  0  0  0  0
   49.1913   33.7647   42.5073 H   0  0  0  0  0  0  0  0  0  0  0  0
   48.2390   36.5064   41.7206 H   0  0  0  0  0  0  0  0  0  0  0  0
   49.9363   35.8427   41.7020 H   0  0  0  0  0  0  0  0  0  0  0  0
   48.6269   35.9603   39.4921 H   0  0  0  0  0  0  0  0  0  0  0  0
   49.5145   34.4309   39.9541 H   0  0  0  0  0  0  0  0  0  0  0  0
   46.9046   34.6363   39.0887 H   0  0  0  0  0  0  0  0  0  0  0  0
   47.7134   33.2371   39.9385 H   0  0  0  0  0  0  0  0  0  0  0  0
   46.0927   35.4562   41.1984 H   0  0  0  0  0  0  0  0  0  0  0  0
   45.7016   36.2359   42.4249 H   0  0  0  0  0  0  0  0  0  0  0  0
   44.1131   37.1040   44.2127 H   0  0  0  0  0  0  0  0  0  0  0  0
   45.1217   33.6424   46.5802 H   0  0  0  0  0  0  0  0  0  0  0  0
   45.7845   32.7437   41.6926 H   0  0  0  0  0  0  0  0  0  0  0  0
   44.4888   32.3286   39.1498 H   0  0  0  0  0  0  0  0  0  0  0  0
   45.0556   33.6480   38.5539 H   0  0  0  0  0  0  0  0  0  0  0  0
   43.3766   34.8245   40.6863 H   0  0  0  0  0  0  0  0  0  0  0  0
   42.9279   32.0998   41.0901 H   0  0  0  0  0  0  0  0  0  0  0  0
   43.1506   33.2667   42.4845 H   0  0  0  0  0  0  0  0  0  0  0  0
   41.3514   33.8152   40.1458 H   0  0  0  0  0  0  0  0  0  0  0  0
   40.8373   32.9510   41.6757 H   0  0  0  0  0  0  0  0  0  0  0  0
   40.5548   36.9755   41.5584 H   0  0  0  0  0  0  0  0  0  0  0  0
   41.4877   35.0643   42.8783 H   0  0  0  0  0  0  0  0  0  0  0  0
  1  2  1  0
  1  7  1  0
  3  2  1  0
  4  3  1  0
  5  4  1  0
  5  6  1  0
  6  1  1  0
  7 12  1  0
  8  7  2  0
  8  9  1  0
  9 10  2  0
 10 11  1  0
 12 11  2  0
 13  6  1  0
 14 15  1  0
 14 13  1  0
 15 13  1  0
 15 16  1  0
 17 16  1  0
 17 20  1  0
 18 20  1  0
 19 18  2  0
  1 21  1  6
  2 22  1  0
  2 23  1  0
  3 24  1  0
  3 25  1  0
  4 26  1  0
  4 27  1  0
  5 28  1  0
  5 29  1  0
  6 30  1  1
  8 31  1  0
  9 32  1  0
 11 33  1  0
 13 34  1  1
 14 35  1  0
 14 36  1  0
 15 37  1  6
 16 38  1  0
 16 39  1  0
 17 40  1  0
 17 41  1  0
 18 42  1  0
 20 43  1  0
M  ISO  8  21  13  22  13  23  13  24  13  25  13  26  13  27  13  28  13
M  ISO  8  29  13  30  13  31  14  32  14  33  14  34  13  35  13  36  13
M  ISO  6  37  13  38   8  39   8  40   8  41   8  42   6
M  END
>  <minimizedAffinity>  (1) 
-5.88698244

>  <minimizedRMSD>  (1) 
0.47941649

$$$$
