
     RDKit          3D

 51 54  0  0  1  0  0  0  0  0999 V2000
   44.5170   35.5080   45.1390 C   0  0  0  0  0  0  0  0  0  0  0  0
   45.1670   35.4910   43.8860 C   0  0  0  0  0  0  0  0  0  0  0  0
   46.0810   34.5280   43.6290 C   0  0  0  0  0  0  0  0  0  0  0  0
   46.3190   33.6210   44.6100 N   0  0  0  0  0  0  0  0  0  0  0  0
   45.7050   33.6420   45.7830 C   0  0  0  0  0  0  0  0  0  0  0  0
   44.8020   34.5780   46.0640 N   0  0  0  0  0  0  0  0  0  0  0  0
   46.0370   32.6330   46.7520 N   0  0  0  0  0  0  0  0  0  0  0  0
   45.3070   32.3920   47.9410 C   0  0  0  0  0  0  0  0  0  0  0  0
   46.3840   32.0460   48.9510 C   0  0  0  0  0  0  0  0  0  0  0  0
   47.6620   31.9370   48.1750 C   0  0  0  0  0  0  0  0  0  0  0  0
   47.1570   31.7200   46.7490 C   0  0  1  0  0  0  0  0  0  0  0  0
   44.8130   36.5180   42.9430 N   0  0  0  0  0  0  0  0  0  0  0  0
   46.6430   30.0300   46.5670 S   0  0  0  0  0  0  0  0  0  0  0  0
   45.6080   30.3730   43.4130 O   0  0  0  0  0  0  0  0  0  0  0  0
   44.9720   29.9000   44.3690 C   0  0  0  0  0  0  0  0  0  0  0  0
   45.0790   29.7470   45.8440 C   0  0  1  0  0  0  0  0  0  0  0  0
   44.5160   28.3640   46.0410 C   0  0  0  0  0  0  0  0  0  0  0  0
   43.1970   28.5710   45.2910 C   0  0  0  0  0  0  0  0  0  0  0  0
   43.7020   29.2650   44.1130 N   0  0  0  0  0  0  0  0  0  0  0  0
   40.1720   29.7500   41.9130 N   0  0  0  0  0  0  0  0  0  0  0  0
   40.9330   28.5440   41.6950 C   0  0  0  0  0  0  0  0  0  0  0  0
   41.8320   28.2330   42.8960 C   0  0  0  0  0  0  0  0  0  0  0  0
   42.9220   29.2460   42.8770 C   0  0  0  0  0  0  0  0  0  0  0  0
   42.2870   30.6120   42.6120 C   0  0  0  0  0  0  0  0  0  0  0  0
   40.8040   30.5730   42.9280 C   0  0  0  0  0  0  0  0  0  0  0  0
   43.7728   36.2877   45.3586 H   0  0  0  0  0  0  0  0  0  0  0  0
   46.6093   34.4818   42.6653 H   0  0  0  0  0  0  0  0  0  0  0  0
   44.7511   33.2894   48.2503 H   0  0  0  0  0  0  0  0  0  0  0  0
   44.5531   31.5989   47.8286 H   0  0  0  0  0  0  0  0  0  0  0  0
   46.4645   32.8383   49.7098 H   0  0  0  0  0  0  0  0  0  0  0  0
   46.1535   31.1091   49.4793 H   0  0  0  0  0  0  0  0  0  0  0  0
   48.2551   32.8602   48.2518 H   0  0  0  0  0  0  0  0  0  0  0  0
   48.3291   31.1391   48.5332 H   0  0  0  0  0  0  0  0  0  0  0  0
   47.8753   31.8940   45.9343 H   0  0  0  0  0  0  0  0  0  0  0  0
   45.2625   36.5437   42.0166 H   0  0  0  0  0  0  0  0  0  0  0  0
   44.1100   37.2277   43.1942 H   0  0  0  0  0  0  0  0  0  0  0  0
   44.5355   30.5361   46.3842 H   0  0  0  0  0  0  0  0  0  0  0  0
   45.1428   27.5877   45.5778 H   0  0  0  0  0  0  0  0  0  0  0  0
   44.4338   28.0167   47.0815 H   0  0  0  0  0  0  0  0  0  0  0  0
   42.7174   27.6157   45.0313 H   0  0  0  0  0  0  0  0  0  0  0  0
   42.4159   29.1048   45.8522 H   0  0  0  0  0  0  0  0  0  0  0  0
   39.2219   29.5001   42.2224 H   0  0  0  0  0  0  0  0  0  0  0  0
   40.2391   27.7048   41.5391 H   0  0  0  0  0  0  0  0  0  0  0  0
   41.5704   28.6888   40.8103 H   0  0  0  0  0  0  0  0  0  0  0  0
   41.2578   28.3092   43.8311 H   0  0  0  0  0  0  0  0  0  0  0  0
   42.2355   27.2113   42.8387 H   0  0  0  0  0  0  0  0  0  0  0  0
   43.6350   28.9842   42.0813 H   0  0  0  0  0  0  0  0  0  0  0  0
   42.7735   31.3676   43.2464 H   0  0  0  0  0  0  0  0  0  0  0  0
   42.4202   30.8688   41.5507 H   0  0  0  0  0  0  0  0  0  0  0  0
   40.3861   31.5902   42.9028 H   0  0  0  0  0  0  0  0  0  0  0  0
   40.6287   30.1592   43.9320 H   0  0  0  0  0  0  0  0  0  0  0  0
  1  6  2  0
  2  1  1  0
  3  2  2  0
  3  4  1  0
  4  5  2  0
  5  6  1  0
  5  7  1  0
  7  8  1  0
  8  9  1  0
 10  9  1  0
 11  7  1  0
 11 10  1  0
 12  2  1  0
 13 11  1  0
 14 15  2  0
 15 16  1  0
 16 17  1  0
 16 13  1  0
 18 17  1  0
 19 15  1  0
 19 18  1  0
 20 25  1  0
 21 20  1  0
 21 22  1  0
 23 22  1  0
 23 19  1  0
 24 23  1  0
 24 25  1  0
  1 26  1  0
  3 27  1  0
  8 28  1  0
  8 29  1  0
  9 30  1  0
  9 31  1  0
 10 32  1  0
 10 33  1  0
 11 34  1  6
 12 35  1  0
 12 36  1  0
 16 37  1  1
 17 38  1  0
 17 39  1  0
 18 40  1  0
 18 41  1  0
 20 42  1  0
 21 43  1  0
 21 44  1  0
 22 45  1  0
 22 46  1  0
 23 47  1  0
 24 48  1  0
 24 49  1  0
 25 50  1  0
 25 51  1  0
M  ISO  8  26  14  27  14  28  13  29  13  30  13  31  13  32  13  33  13
M  ISO  8  34  13  37  13  38  13  39  13  40  13  41  13  42   5  43  13
M  ISO  8  44  13  45  13  46  13  47  13  48  13  49  13  50  13  51  13
M  END
>  <minimizedAffinity>  (1) 
-5.6234498

>  <minimizedRMSD>  (1) 
0.38273254

$$$$
