
     RDKit          3D

 47 50  0  0  1  0  0  0  0  0999 V2000
   44.5330   35.4720   45.1580 C   0  0  0  0  0  0  0  0  0  0  0  0
   45.1900   35.4640   43.9090 C   0  0  0  0  0  0  0  0  0  0  0  0
   46.1150   34.5060   43.6560 C   0  0  0  0  0  0  0  0  0  0  0  0
   46.3510   33.6040   44.6380 N   0  0  0  0  0  0  0  0  0  0  0  0
   45.7310   33.6160   45.8090 C   0  0  0  0  0  0  0  0  0  0  0  0
   44.8180   34.5440   46.0870 N   0  0  0  0  0  0  0  0  0  0  0  0
   46.0660   32.6080   46.7790 N   0  0  0  0  0  0  0  0  0  0  0  0
   45.3290   32.3580   47.9650 C   0  0  0  0  0  0  0  0  0  0  0  0
   46.4080   32.0190   48.9790 C   0  0  0  0  0  0  0  0  0  0  0  0
   47.6880   31.9290   48.2120 C   0  0  0  0  0  0  0  0  0  0  0  0
   47.1960   31.7080   46.7810 C   0  0  1  0  0  0  0  0  0  0  0  0
   44.8280   36.4910   42.9720 N   0  0  0  0  0  0  0  0  0  0  0  0
   46.7000   30.0100   46.5990 S   0  0  0  0  0  0  0  0  0  0  0  0
   45.5380   30.4040   43.4950 O   0  0  0  0  0  0  0  0  0  0  0  0
   44.9470   29.9010   44.4630 C   0  0  0  0  0  0  0  0  0  0  0  0
   45.1150   29.7150   45.9280 C   0  0  1  0  0  0  0  0  0  0  0  0
   44.5770   28.3190   46.1170 C   0  0  0  0  0  0  0  0  0  0  0  0
   43.2270   28.5210   45.4200 C   0  0  0  0  0  0  0  0  0  0  0  0
   43.6800   29.2530   44.2420 N   0  0  0  0  0  0  0  0  0  0  0  0
   40.5090   29.0550   43.7830 O   0  0  0  0  0  0  0  0  0  0  0  0
   41.4720   29.6880   43.2840 C   0  0  0  0  0  0  0  0  0  0  0  0
   42.8470   29.2520   43.0370 C   0  0  1  0  0  0  0  0  0  0  0  0
   43.4050   30.2680   42.0400 C   0  0  0  0  0  0  0  0  0  0  0  0
   42.5320   31.4800   42.1570 C   0  0  0  0  0  0  0  0  0  0  0  0
   41.3250   31.0340   42.8620 N   0  0  0  0  0  0  0  0  0  0  0  0
   43.7806   36.2451   45.3730 H   0  0  0  0  0  0  0  0  0  0  0  0
   46.6500   34.4632   42.6958 H   0  0  0  0  0  0  0  0  0  0  0  0
   44.7638   33.2498   48.2736 H   0  0  0  0  0  0  0  0  0  0  0  0
   44.5809   31.5601   47.8480 H   0  0  0  0  0  0  0  0  0  0  0  0
   46.4755   32.8083   49.7422 H   0  0  0  0  0  0  0  0  0  0  0  0
   46.1860   31.0761   49.5003 H   0  0  0  0  0  0  0  0  0  0  0  0
   48.2680   32.8600   48.2944 H   0  0  0  0  0  0  0  0  0  0  0  0
   48.3628   31.1387   48.5726 H   0  0  0  0  0  0  0  0  0  0  0  0
   47.9166   31.8906   45.9702 H   0  0  0  0  0  0  0  0  0  0  0  0
   45.2799   36.5269   42.0471 H   0  0  0  0  0  0  0  0  0  0  0  0
   44.1165   37.1915   43.2251 H   0  0  0  0  0  0  0  0  0  0  0  0
   44.5823   30.4835   46.5073 H   0  0  0  0  0  0  0  0  0  0  0  0
   45.1967   27.5612   45.6154 H   0  0  0  0  0  0  0  0  0  0  0  0
   44.5377   27.9506   47.1527 H   0  0  0  0  0  0  0  0  0  0  0  0
   42.7541   27.5643   45.1535 H   0  0  0  0  0  0  0  0  0  0  0  0
   42.4571   29.0264   46.0216 H   0  0  0  0  0  0  0  0  0  0  0  0
   42.8534   28.2145   42.6715 H   0  0  0  0  0  0  0  0  0  0  0  0
   43.3634   29.8637   41.0179 H   0  0  0  0  0  0  0  0  0  0  0  0
   44.4576   30.5064   42.2526 H   0  0  0  0  0  0  0  0  0  0  0  0
   43.0430   32.2666   42.7315 H   0  0  0  0  0  0  0  0  0  0  0  0
   42.2924   31.9043   41.1708 H   0  0  0  0  0  0  0  0  0  0  0  0
   40.4907   31.6151   43.0268 H   0  0  0  0  0  0  0  0  0  0  0  0
  1  6  2  0
  2  1  1  0
  3  2  2  0
  3  4  1  0
  4  5  2  0
  5  6  1  0
  5  7  1  0
  7 11  1  0
  7  8  1  0
  8  9  1  0
 10  9  1  0
 11 10  1  0
 12  2  1  0
 13 11  1  0
 14 15  2  0
 15 16  1  0
 16 17  1  0
 16 13  1  0
 18 17  1  0
 19 15  1  0
 19 18  1  0
 21 20  2  0
 22 21  1  0
 22 19  1  0
 23 24  1  0
 23 22  1  0
 24 25  1  0
 25 21  1  0
  1 26  1  0
  3 27  1  0
  8 28  1  0
  8 29  1  0
  9 30  1  0
  9 31  1  0
 10 32  1  0
 10 33  1  0
 11 34  1  6
 12 35  1  0
 12 36  1  0
 16 37  1  1
 17 38  1  0
 17 39  1  0
 18 40  1  0
 18 41  1  0
 22 42  1  6
 23 43  1  0
 23 44  1  0
 24 45  1  0
 24 46  1  0
 25 47  1  0
M  ISO  8  26  14  27  14  28  13  29  13  30  13  31  13  32  13  33  13
M  ISO  8  34  13  37  13  38  13  39  13  40  13  41  13  42  13  43  13
M  ISO  4  44  13  45  13  46  13  47  10
M  END
>  <minimizedAffinity>  (1) 
-5.91936922

>  <minimizedRMSD>  (1) 
0.210391417

$$$$
