
     RDKit          3D

 49 52  0  0  1  0  0  0  0  0999 V2000
   44.5620   35.4100   45.2170 C   0  0  0  0  0  0  0  0  0  0  0  0
   45.1790   35.4220   43.9570 C   0  0  0  0  0  0  0  0  0  0  0  0
   46.0730   34.4570   43.6460 C   0  0  0  0  0  0  0  0  0  0  0  0
   46.3210   33.5160   44.5930 N   0  0  0  0  0  0  0  0  0  0  0  0
   45.7350   33.5090   45.7810 C   0  0  0  0  0  0  0  0  0  0  0  0
   44.8520   34.4500   46.1120 N   0  0  0  0  0  0  0  0  0  0  0  0
   46.0770   32.4670   46.7120 N   0  0  0  0  0  0  0  0  0  0  0  0
   45.3670   32.2020   47.9120 C   0  0  0  0  0  0  0  0  0  0  0  0
   46.4670   31.8070   48.8830 C   0  0  0  0  0  0  0  0  0  0  0  0
   47.7210   31.7030   48.0750 C   0  0  0  0  0  0  0  0  0  0  0  0
   47.1790   31.5380   46.6550 C   0  0  1  0  0  0  0  0  0  0  0  0
   44.8050   36.4920   43.0710 N   0  0  0  0  0  0  0  0  0  0  0  0
   46.6290   29.8640   46.4390 S   0  0  0  0  0  0  0  0  0  0  0  0
   45.2170   30.3360   43.4610 O   0  0  0  0  0  0  0  0  0  0  0  0
   44.6970   29.8290   44.4710 C   0  0  0  0  0  0  0  0  0  0  0  0
   44.9840   29.6260   45.9110 C   0  0  1  0  0  0  0  0  0  0  0  0
   44.4200   28.2470   46.1480 C   0  0  0  0  0  0  0  0  0  0  0  0
   43.0230   28.5050   45.5800 C   0  0  0  0  0  0  0  0  0  0  0  0
   43.3980   29.2020   44.3520 N   0  0  0  0  0  0  0  0  0  0  0  0
   41.2710   30.0180   43.3940 C   0  0  2  0  0  0  0  0  0  0  0  0
   42.4960   29.2130   43.1860 C   0  0  2  0  0  0  0  0  0  0  0  0
   42.0900   27.9610   42.8270 O   0  0  0  0  0  0  0  0  0  0  0  0
   40.8000   27.7340   43.2190 C   0  0  0  0  0  0  0  0  0  0  0  0
   40.1320   29.0330   43.5210 C   0  0  1  0  0  0  0  0  0  0  0  0
   41.0040   30.7720   42.2500 O   0  0  0  0  0  0  0  0  0  0  0  0
   39.5850   29.0670   44.8150 O   0  0  0  0  0  0  0  0  0  0  0  0
   43.8342   36.1935   45.4748 H   0  0  0  0  0  0  0  0  0  0  0  0
   46.5774   34.4350   42.6687 H   0  0  0  0  0  0  0  0  0  0  0  0
   44.8345   33.0986   48.2620 H   0  0  0  0  0  0  0  0  0  0  0  0
   44.5945   31.4276   47.7954 H   0  0  0  0  0  0  0  0  0  0  0  0
   46.5793   32.5735   49.6639 H   0  0  0  0  0  0  0  0  0  0  0  0
   46.2348   30.8566   49.3858 H   0  0  0  0  0  0  0  0  0  0  0  0
   48.3304   32.6143   48.1657 H   0  0  0  0  0  0  0  0  0  0  0  0
   48.3834   30.8841   48.3922 H   0  0  0  0  0  0  0  0  0  0  0  0
   47.8809   31.7244   45.8288 H   0  0  0  0  0  0  0  0  0  0  0  0
   45.2244   36.5538   42.1323 H   0  0  0  0  0  0  0  0  0  0  0  0
   44.1178   37.1963   43.3754 H   0  0  0  0  0  0  0  0  0  0  0  0
   44.5257   30.4074   46.5350 H   0  0  0  0  0  0  0  0  0  0  0  0
   44.9628   27.4704   45.5892 H   0  0  0  0  0  0  0  0  0  0  0  0
   44.4656   27.8715   47.1809 H   0  0  0  0  0  0  0  0  0  0  0  0
   42.4826   27.5693   45.3741 H   0  0  0  0  0  0  0  0  0  0  0  0
   42.3375   29.0528   46.2433 H   0  0  0  0  0  0  0  0  0  0  0  0
   41.3885   30.6732   44.2697 H   0  0  0  0  0  0  0  0  0  0  0  0
   43.1063   29.6667   42.3912 H   0  0  0  0  0  0  0  0  0  0  0  0
   40.2567   27.2223   42.4110 H   0  0  0  0  0  0  0  0  0  0  0  0
   40.7981   27.1043   44.1209 H   0  0  0  0  0  0  0  0  0  0  0  0
   39.2801   29.2374   42.8558 H   0  0  0  0  0  0  0  0  0  0  0  0
   40.6855   31.6713   42.5144 H   0  0  0  0  0  0  0  0  0  0  0  0
   40.3144   29.0217   45.4829 H   0  0  0  0  0  0  0  0  0  0  0  0
  1  6  2  0
  2  1  1  0
  3  2  2  0
  3  4  1  0
  4  5  2  0
  5  6  1  0
  5  7  1  0
  7  8  1  0
  8  9  1  0
 10  9  1  0
 11  7  1  0
 11 10  1  0
 12  2  1  0
 13 11  1  0
 14 15  2  0
 15 16  1  0
 16 17  1  0
 16 13  1  0
 18 17  1  0
 19 15  1  0
 19 18  1  0
 20 25  1  0
 20 24  1  0
 21 20  1  0
 21 19  1  0
 22 21  1  0
 22 23  1  0
 23 24  1  0
 24 26  1  0
  1 27  1  0
  3 28  1  0
  8 29  1  0
  8 30  1  0
  9 31  1  0
  9 32  1  0
 10 33  1  0
 10 34  1  0
 11 35  1  6
 12 36  1  0
 12 37  1  0
 16 38  1  1
 17 39  1  0
 17 40  1  0
 18 41  1  0
 18 42  1  0
 20 43  1  1
 21 44  1  6
 23 45  1  0
 23 46  1  0
 24 47  1  6
 25 48  1  0
 26 49  1  0
M  ISO  8  27  14  28  14  29  13  30  13  31  13  32  13  33  13  34  13
M  ISO  8  35  13  38  13  39  13  40  13  41  13  42  13  43  13  44  13
M  ISO  5  45  13  46  13  47  13  48   3  49   3
M  END
>  <minimizedAffinity>  (1) 
-6.00319576

>  <minimizedRMSD>  (1) 
0.520985544

$$$$
