
     RDKit          3D

 42 44  0  0  1  0  0  0  0  0999 V2000
   44.4990   35.5520   45.1280 C   0  0  0  0  0  0  0  0  0  0  0  0
   45.1550   35.5330   43.8790 C   0  0  0  0  0  0  0  0  0  0  0  0
   46.0730   34.5680   43.6260 C   0  0  0  0  0  0  0  0  0  0  0  0
   46.3060   33.6640   44.6100 N   0  0  0  0  0  0  0  0  0  0  0  0
   45.6860   33.6870   45.7820 C   0  0  0  0  0  0  0  0  0  0  0  0
   44.7790   34.6260   46.0570 N   0  0  0  0  0  0  0  0  0  0  0  0
   46.0140   32.6780   46.7550 N   0  0  0  0  0  0  0  0  0  0  0  0
   45.2790   32.4420   47.9400 C   0  0  0  0  0  0  0  0  0  0  0  0
   46.3530   32.0980   48.9550 C   0  0  0  0  0  0  0  0  0  0  0  0
   47.6330   31.9820   48.1830 C   0  0  0  0  0  0  0  0  0  0  0  0
   47.1280   31.7640   46.7580 C   0  0  1  0  0  0  0  0  0  0  0  0
   44.8040   36.5570   42.9320 N   0  0  0  0  0  0  0  0  0  0  0  0
   46.6140   30.0710   46.5820 S   0  0  0  0  0  0  0  0  0  0  0  0
   45.8250   30.5390   43.3750 O   0  0  0  0  0  0  0  0  0  0  0  0
   45.1280   30.0070   44.2540 C   0  0  0  0  0  0  0  0  0  0  0  0
   45.1210   29.7850   45.7220 C   0  0  1  0  0  0  0  0  0  0  0  0
   44.5760   28.3830   45.8120 C   0  0  0  0  0  0  0  0  0  0  0  0
   43.3150   28.5960   44.9640 C   0  0  0  0  0  0  0  0  0  0  0  0
   43.8990   29.3580   43.8660 N   0  0  0  0  0  0  0  0  0  0  0  0
   43.1900   29.3550   42.5900 C   0  0  0  0  0  0  0  0  0  0  0  0
   41.9540   30.2450   42.6910 C   0  0  0  0  0  0  0  0  0  0  0  0
   43.7528   36.3316   45.3413 H   0  0  0  0  0  0  0  0  0  0  0  0
   46.6056   34.5202   42.6647 H   0  0  0  0  0  0  0  0  0  0  0  0
   44.7229   33.3410   48.2443 H   0  0  0  0  0  0  0  0  0  0  0  0
   44.5240   31.6500   47.8274 H   0  0  0  0  0  0  0  0  0  0  0  0
   46.4335   32.8937   49.7102 H   0  0  0  0  0  0  0  0  0  0  0  0
   46.1187   31.1642   49.4871 H   0  0  0  0  0  0  0  0  0  0  0  0
   48.2299   32.9029   48.2587 H   0  0  0  0  0  0  0  0  0  0  0  0
   48.2972   31.1831   48.5444 H   0  0  0  0  0  0  0  0  0  0  0  0
   47.8455   31.9358   45.9421 H   0  0  0  0  0  0  0  0  0  0  0  0
   45.2581   36.5813   42.0078 H   0  0  0  0  0  0  0  0  0  0  0  0
   44.0986   37.2660   43.1780 H   0  0  0  0  0  0  0  0  0  0  0  0
   44.5160   30.5349   46.2526 H   0  0  0  0  0  0  0  0  0  0  0  0
   45.2567   27.6411   45.3691 H   0  0  0  0  0  0  0  0  0  0  0  0
   44.4173   27.9885   46.8265 H   0  0  0  0  0  0  0  0  0  0  0  0
   42.8839   27.6439   44.6209 H   0  0  0  0  0  0  0  0  0  0  0  0
   42.4756   29.0832   45.4817 H   0  0  0  0  0  0  0  0  0  0  0  0
   42.8828   28.3278   42.3439 H   0  0  0  0  0  0  0  0  0  0  0  0
   43.8540   29.7387   41.8014 H   0  0  0  0  0  0  0  0  0  0  0  0
   41.7128   30.4187   43.7501 H   0  0  0  0  0  0  0  0  0  0  0  0
   42.1541   31.2077   42.1979 H   0  0  0  0  0  0  0  0  0  0  0  0
   41.1044   29.7500   42.1979 H   0  0  0  0  0  0  0  0  0  0  0  0
  1  6  2  0
  2  1  1  0
  3  2  2  0
  3  4  1  0
  4  5  2  0
  5  6  1  0
  5  7  1  0
  7 11  1  0
  7  8  1  0
  8  9  1  0
 10  9  1  0
 11 10  1  0
 12  2  1  0
 13 11  1  0
 14 15  2  0
 15 16  1  0
 16 17  1  0
 16 13  1  0
 18 17  1  0
 19 15  1  0
 19 18  1  0
 20 21  1  0
 20 19  1  0
  1 22  1  0
  3 23  1  0
  8 24  1  0
  8 25  1  0
  9 26  1  0
  9 27  1  0
 10 28  1  0
 10 29  1  0
 11 30  1  6
 12 31  1  0
 12 32  1  0
 16 33  1  1
 17 34  1  0
 17 35  1  0
 18 36  1  0
 18 37  1  0
 20 38  1  0
 20 39  1  0
 21 40  1  0
 21 41  1  0
 21 42  1  0
M  ISO  8  22  14  23  14  24  13  25  13  26  13  27  13  28  13  29  13
M  ISO  8  30  13  33  13  34  13  35  13  36  13  37  13  38   8  39   8
M  ISO  3  40   8  41   8  42   8
M  END
>  <minimizedAffinity>  (1) 
-5.06762505

>  <minimizedRMSD>  (1) 
0.330201

$$$$
