
     RDKit          3D

 39 41  0  0  1  0  0  0  0  0999 V2000
   44.5060   35.5490   45.1150 C   0  0  0  0  0  0  0  0  0  0  0  0
   45.1520   35.5300   43.8740 C   0  0  0  0  0  0  0  0  0  0  0  0
   46.0720   34.5590   43.6250 C   0  0  0  0  0  0  0  0  0  0  0  0
   46.3040   33.6620   44.6130 N   0  0  0  0  0  0  0  0  0  0  0  0
   45.6860   33.6900   45.7850 C   0  0  0  0  0  0  0  0  0  0  0  0
   44.7790   34.6310   46.0550 N   0  0  0  0  0  0  0  0  0  0  0  0
   46.0120   32.6890   46.7630 N   0  0  0  0  0  0  0  0  0  0  0  0
   45.2690   32.4610   47.9520 C   0  0  0  0  0  0  0  0  0  0  0  0
   46.3450   32.1020   48.9650 C   0  0  0  0  0  0  0  0  0  0  0  0
   47.6200   31.9970   48.2040 C   0  0  0  0  0  0  0  0  0  0  0  0
   47.1280   31.7730   46.7720 C   0  0  1  0  0  0  0  0  0  0  0  0
   44.7920   36.5540   42.9340 N   0  0  0  0  0  0  0  0  0  0  0  0
   46.6120   30.0790   46.6020 S   0  0  0  0  0  0  0  0  0  0  0  0
   45.8660   30.5110   43.3790 O   0  0  0  0  0  0  0  0  0  0  0  0
   45.1580   29.9890   44.2540 C   0  0  0  0  0  0  0  0  0  0  0  0
   45.1310   29.7860   45.7210 C   0  0  1  0  0  0  0  0  0  0  0  0
   44.5850   28.3840   45.8220 C   0  0  0  0  0  0  0  0  0  0  0  0
   43.3340   28.5910   44.9570 C   0  0  0  0  0  0  0  0  0  0  0  0
   43.9370   29.3360   43.8590 N   0  0  0  0  0  0  0  0  0  0  0  0
   43.2780   29.3440   42.5440 C   0  0  0  0  0  0  0  0  0  0  0  0
   43.7608   36.3307   45.3239 H   0  0  0  0  0  0  0  0  0  0  0  0
   46.6039   34.5048   42.6637 H   0  0  0  0  0  0  0  0  0  0  0  0
   44.7247   33.3667   48.2577 H   0  0  0  0  0  0  0  0  0  0  0  0
   44.5015   31.6809   47.8404 H   0  0  0  0  0  0  0  0  0  0  0  0
   46.4230   32.8870   49.7316 H   0  0  0  0  0  0  0  0  0  0  0  0
   46.1092   31.1592   49.4802 H   0  0  0  0  0  0  0  0  0  0  0  0
   48.2083   32.9231   48.2828 H   0  0  0  0  0  0  0  0  0  0  0  0
   48.2870   31.2025   48.5698 H   0  0  0  0  0  0  0  0  0  0  0  0
   47.8506   31.9401   45.9596 H   0  0  0  0  0  0  0  0  0  0  0  0
   45.2397   36.5825   42.0068 H   0  0  0  0  0  0  0  0  0  0  0  0
   44.0860   37.2601   43.1869 H   0  0  0  0  0  0  0  0  0  0  0  0
   44.5195   30.5453   46.2305 H   0  0  0  0  0  0  0  0  0  0  0  0
   45.2699   27.6365   45.3951 H   0  0  0  0  0  0  0  0  0  0  0  0
   44.4157   27.9997   46.8387 H   0  0  0  0  0  0  0  0  0  0  0  0
   42.9028   27.6367   44.6202 H   0  0  0  0  0  0  0  0  0  0  0  0
   42.4893   29.0869   45.4576 H   0  0  0  0  0  0  0  0  0  0  0  0
   42.1866   29.3572   42.6809 H   0  0  0  0  0  0  0  0  0  0  0  0
   43.5882   30.2384   41.9839 H   0  0  0  0  0  0  0  0  0  0  0  0
   43.5664   28.4423   41.9839 H   0  0  0  0  0  0  0  0  0  0  0  0
  1  6  2  0
  2  1  1  0
  3  2  2  0
  3  4  1  0
  4  5  2  0
  5  6  1  0
  5  7  1  0
  7 11  1  0
  7  8  1  0
  8  9  1  0
 10  9  1  0
 11 10  1  0
 12  2  1  0
 13 11  1  0
 14 15  2  0
 15 16  1  0
 16 17  1  0
 16 13  1  0
 18 17  1  0
 19 15  1  0
 19 18  1  0
 20 19  1  0
  1 21  1  0
  3 22  1  0
  8 23  1  0
  8 24  1  0
  9 25  1  0
  9 26  1  0
 10 27  1  0
 10 28  1  0
 11 29  1  6
 12 30  1  0
 12 31  1  0
 16 32  1  1
 17 33  1  0
 17 34  1  0
 18 35  1  0
 18 36  1  0
 20 37  1  0
 20 38  1  0
 20 39  1  0
M  ISO  8  21  14  22  14  23  13  24  13  25  13  26  13  27  13  28  13
M  ISO  8  29  13  32  13  33  13  34  13  35  13  36  13  37   8  38   8
M  ISO  1  39   8
M  END
>  <minimizedAffinity>  (1) 
-5.16903925

>  <minimizedRMSD>  (1) 
0.181681827

$$$$
