
     RDKit          3D

 45 48  0  0  1  0  0  0  0  0999 V2000
   49.0440   33.2460   40.8070 N   0  0  0  0  0  0  0  0  0  0  0  0
   50.2080   32.5830   41.3560 C   0  0  0  0  0  0  0  0  0  0  0  0
   50.5330   31.2640   40.7660 C   0  0  0  0  0  0  0  0  0  0  0  0
   49.4120   30.2930   40.9810 C   0  0  0  0  0  0  0  0  0  0  0  0
   48.0950   30.9750   41.0680 C   0  0  0  0  0  0  0  0  0  0  0  0
   48.1450   32.2700   40.2740 C   0  0  2  0  0  0  0  0  0  0  0  0
   47.1890   34.7790   41.7520 C   0  0  1  0  0  0  0  0  0  0  0  0
   48.4650   35.5020   41.6600 C   0  0  0  0  0  0  0  0  0  0  0  0
   48.4810   34.0300   41.8600 C   0  0  2  0  0  0  0  0  0  0  0  0
   45.4770   36.0350   43.0820 C   0  0  0  0  0  0  0  0  0  0  0  0
   46.3320   34.9110   42.9620 C   0  0  0  0  0  0  0  0  0  0  0  0
   46.3330   33.9660   43.9710 C   0  0  0  0  0  0  0  0  0  0  0  0
   45.5140   34.1580   45.0330 N   0  0  0  0  0  0  0  0  0  0  0  0
   44.6990   35.2390   45.1360 C   0  0  0  0  0  0  0  0  0  0  0  0
   44.6740   36.1820   44.1690 N   0  0  0  0  0  0  0  0  0  0  0  0
   48.5390   33.2750   38.0050 C   0  0  2  0  0  0  0  0  0  0  0  0
   48.1620   32.0540   38.8090 C   0  0  2  0  0  0  0  0  0  0  0  0
   46.9030   31.6620   38.3210 O   0  0  0  0  0  0  0  0  0  0  0  0
   47.0790   31.8010   36.9230 C   0  0  0  0  0  0  0  0  0  0  0  0
   47.5470   33.2360   36.8380 C   0  0  2  0  0  0  0  0  0  0  0  0
   49.8470   33.2110   37.5360 O   0  0  0  0  0  0  0  0  0  0  0  0
   48.2280   33.4920   35.6520 O   0  0  0  0  0  0  0  0  0  0  0  0
   51.0751   33.2432   41.2064 H   0  0  0  0  0  0  0  0  0  0  0  0
   49.9724   32.3892   42.4129 H   0  0  0  0  0  0  0  0  0  0  0  0
   51.4452   30.8721   41.2397 H   0  0  0  0  0  0  0  0  0  0  0  0
   50.6868   31.3904   39.6842 H   0  0  0  0  0  0  0  0  0  0  0  0
   49.3900   29.5839   40.1404 H   0  0  0  0  0  0  0  0  0  0  0  0
   49.5898   29.7739   41.9344 H   0  0  0  0  0  0  0  0  0  0  0  0
   47.3143   30.3201   40.6537 H   0  0  0  0  0  0  0  0  0  0  0  0
   47.8646   31.1973   42.1204 H   0  0  0  0  0  0  0  0  0  0  0  0
   47.1779   32.7723   40.4238 H   0  0  0  0  0  0  0  0  0  0  0  0
   46.2942   34.7167   41.1152 H   0  0  0  0  0  0  0  0  0  0  0  0
   48.7852   35.9273   40.6974 H   0  0  0  0  0  0  0  0  0  0  0  0
   48.9076   36.3585   42.1896 H   0  0  0  0  0  0  0  0  0  0  0  0
   48.8532   33.2987   42.5926 H   0  0  0  0  0  0  0  0  0  0  0  0
   45.4631   36.7959   42.2877 H   0  0  0  0  0  0  0  0  0  0  0  0
   46.9826   33.0802   43.9130 H   0  0  0  0  0  0  0  0  0  0  0  0
   44.0508   35.3483   46.0180 H   0  0  0  0  0  0  0  0  0  0  0  0
   48.4937   34.1993   38.5997 H   0  0  0  0  0  0  0  0  0  0  0  0
   48.9238   31.2707   38.6819 H   0  0  0  0  0  0  0  0  0  0  0  0
   47.8386   31.1040   36.5393 H   0  0  0  0  0  0  0  0  0  0  0  0
   46.1820   31.5783   36.3266 H   0  0  0  0  0  0  0  0  0  0  0  0
   46.7274   33.9689   36.8722 H   0  0  0  0  0  0  0  0  0  0  0  0
   50.4716   33.1804   38.3035 H   0  0  0  0  0  0  0  0  0  0  0  0
   49.1342   33.8327   35.8588 H   0  0  0  0  0  0  0  0  0  0  0  0
  1  2  1  0
  1  9  1  0
  3  4  1  0
  3  2  1  0
  4  5  1  0
  6  1  1  0
  6  5  1  0
  7  9  1  0
  7 11  1  0
  8  7  1  0
  8  9  1  0
 10 15  2  0
 11 10  1  0
 11 12  2  0
 12 13  1  0
 13 14  2  0
 15 14  1  0
 16 21  1  0
 16 17  1  0
 17 18  1  0
 17  6  1  0
 19 18  1  0
 20 22  1  0
 20 19  1  0
 20 16  1  0
  2 23  1  0
  2 24  1  0
  3 25  1  0
  3 26  1  0
  4 27  1  0
  4 28  1  0
  5 29  1  0
  5 30  1  0
  6 31  1  6
  7 32  1  6
  8 33  1  0
  8 34  1  0
  9 35  1  1
 10 36  1  0
 12 37  1  0
 14 38  1  0
 16 39  1  1
 17 40  1  1
 19 41  1  0
 19 42  1  0
 20 43  1  1
 21 44  1  0
 22 45  1  0
M  ISO  8  23  13  24  13  25  13  26  13  27  13  28  13  29  13  30  13
M  ISO  8  31  13  32  13  33  13  34  13  35  13  36  14  37  14  38  14
M  ISO  7  39  13  40  13  41  13  42  13  43  13  44   3  45   3
M  END
>  <minimizedAffinity>  (1) 
-5.68197918

>  <minimizedRMSD>  (1) 
2.45240259

$$$$
