
     RDKit          3D

 42 45  0  0  1  0  0  0  0  0999 V2000
   49.5110   33.5050   41.3340 N   0  0  0  0  0  0  0  0  0  0  0  0
   50.7030   33.0780   42.0170 C   0  0  0  0  0  0  0  0  0  0  0  0
   51.2520   31.7650   41.5900 C   0  0  0  0  0  0  0  0  0  0  0  0
   50.2640   30.6660   41.9110 C   0  0  0  0  0  0  0  0  0  0  0  0
   48.8760   31.1610   41.7410 C   0  0  0  0  0  0  0  0  0  0  0  0
   48.7860   32.3470   40.8450 C   0  0  2  0  0  0  0  0  0  0  0  0
   48.3210   34.5500   38.6280 Cl  0  0  0  0  0  0  0  0  0  0  0  0
   48.7950   32.9220   38.2940 C   0  0  0  0  0  0  0  0  0  0  0  0
   48.9070   32.1180   39.4080 C   0  0  0  0  0  0  0  0  0  0  0  0
   49.2500   30.7800   39.1600 C   0  0  0  0  0  0  0  0  0  0  0  0
   49.4580   30.3320   37.8490 C   0  0  0  0  0  0  0  0  0  0  0  0
   49.3330   31.1840   36.7720 C   0  0  0  0  0  0  0  0  0  0  0  0
   49.5850   30.6690   35.1160 Cl  0  0  0  0  0  0  0  0  0  0  0  0
   48.9970   32.4950   37.0210 C   0  0  0  0  0  0  0  0  0  0  0  0
   47.3740   34.8140   41.9670 C   0  0  1  0  0  0  0  0  0  0  0  0
   48.5040   35.7070   41.8220 C   0  0  0  0  0  0  0  0  0  0  0  0
   48.7730   34.3010   42.2750 C   0  0  2  0  0  0  0  0  0  0  0  0
   45.5430   36.0530   43.1610 C   0  0  0  0  0  0  0  0  0  0  0  0
   46.4210   34.9370   43.0900 C   0  0  0  0  0  0  0  0  0  0  0  0
   46.3430   33.9920   44.0960 C   0  0  0  0  0  0  0  0  0  0  0  0
   45.4350   34.1870   45.0940 N   0  0  0  0  0  0  0  0  0  0  0  0
   44.6100   35.2500   45.1470 C   0  0  0  0  0  0  0  0  0  0  0  0
   44.6530   36.2020   44.1780 N   0  0  0  0  0  0  0  0  0  0  0  0
   51.4793   33.8395   41.8512 H   0  0  0  0  0  0  0  0  0  0  0  0
   50.4179   32.9561   43.0724 H   0  0  0  0  0  0  0  0  0  0  0  0
   52.1959   31.5739   42.1216 H   0  0  0  0  0  0  0  0  0  0  0  0
   51.4338   31.7836   40.5053 H   0  0  0  0  0  0  0  0  0  0  0  0
   50.4325   29.8162   41.2332 H   0  0  0  0  0  0  0  0  0  0  0  0
   50.4069   30.3476   42.9542 H   0  0  0  0  0  0  0  0  0  0  0  0
   48.2653   30.3520   41.3137 H   0  0  0  0  0  0  0  0  0  0  0  0
   48.5135   31.4699   42.7325 H   0  0  0  0  0  0  0  0  0  0  0  0
   47.7193   32.6046   40.9204 H   0  0  0  0  0  0  0  0  0  0  0  0
   49.3562   30.0784   40.0005 H   0  0  0  0  0  0  0  0  0  0  0  0
   49.7264   29.2795   37.6753 H   0  0  0  0  0  0  0  0  0  0  0  0
   48.8915   33.2010   36.1841 H   0  0  0  0  0  0  0  0  0  0  0  0
   46.5508   34.5309   41.2945 H   0  0  0  0  0  0  0  0  0  0  0  0
   48.8208   36.0251   40.8178 H   0  0  0  0  0  0  0  0  0  0  0  0
   48.7505   36.7009   42.2238 H   0  0  0  0  0  0  0  0  0  0  0  0
   49.2064   33.7678   43.1340 H   0  0  0  0  0  0  0  0  0  0  0  0
   45.5849   36.8173   42.3710 H   0  0  0  0  0  0  0  0  0  0  0  0
   46.9959   33.1067   44.0913 H   0  0  0  0  0  0  0  0  0  0  0  0
   43.8974   35.3483   45.9792 H   0  0  0  0  0  0  0  0  0  0  0  0
  1  2  1  0
  1 17  1  0
  3  4  1  0
  3  2  1  0
  5  4  1  0
  6  1  1  0
  6  5  1  0
  8  7  1  0
  8  9  2  0
  9  6  1  0
 10  9  1  0
 11 10  2  0
 12 14  2  0
 12 11  1  0
 13 12  1  0
 14  8  1  0
 15 17  1  0
 15 19  1  0
 16 15  1  0
 16 17  1  0
 18 23  2  0
 19 18  1  0
 19 20  2  0
 20 21  1  0
 21 22  2  0
 23 22  1  0
  2 24  1  0
  2 25  1  0
  3 26  1  0
  3 27  1  0
  4 28  1  0
  4 29  1  0
  5 30  1  0
  5 31  1  0
  6 32  1  6
 10 33  1  0
 11 34  1  0
 14 35  1  0
 15 36  1  6
 16 37  1  0
 16 38  1  0
 17 39  1  1
 18 40  1  0
 20 41  1  0
 22 42  1  0
M  ISO  8  24  13  25  13  26  13  27  13  28  13  29  13  30  13  31  13
M  ISO  8  32  13  33  14  34  14  35  14  36  13  37  13  38  13  39  13
M  ISO  3  40  14  41  14  42  14
M  END
>  <minimizedAffinity>  (1) 
-5.41002321

>  <minimizedRMSD>  (1) 
1.18102968

$$$$
