
     RDKit          3D

 48 51  0  0  1  0  0  0  0  0999 V2000
   49.2500   33.4370   41.0640 N   0  0  0  0  0  0  0  0  0  0  0  0
   50.3540   32.7410   41.7210 C   0  0  0  0  0  0  0  0  0  0  0  0
   50.7160   31.4400   41.1000 C   0  0  0  0  0  0  0  0  0  0  0  0
   49.5820   30.4710   41.2350 C   0  0  0  0  0  0  0  0  0  0  0  0
   48.2660   31.1610   41.1780 C   0  0  0  0  0  0  0  0  0  0  0  0
   48.3950   32.4700   40.4470 C   0  0  2  0  0  0  0  0  0  0  0  0
   47.2550   34.8320   41.9060 C   0  0  1  0  0  0  0  0  0  0  0  0
   48.4720   35.6600   41.8290 C   0  0  0  0  0  0  0  0  0  0  0  0
   48.5970   34.2000   42.0750 C   0  0  2  0  0  0  0  0  0  0  0  0
   45.4780   36.0430   43.1910 C   0  0  0  0  0  0  0  0  0  0  0  0
   46.3570   34.9430   43.0940 C   0  0  0  0  0  0  0  0  0  0  0  0
   46.3590   33.9720   44.1090 C   0  0  0  0  0  0  0  0  0  0  0  0
   45.5010   34.1420   45.1520 N   0  0  0  0  0  0  0  0  0  0  0  0
   44.6610   35.2170   45.2190 C   0  0  0  0  0  0  0  0  0  0  0  0
   44.6410   36.1610   44.2560 N   0  0  0  0  0  0  0  0  0  0  0  0
   48.4900   32.3600   38.9700 C   0  0  0  0  0  0  0  0  0  0  0  0
   48.3390   33.7840   38.4150 C   0  0  0  0  0  0  0  0  0  0  0  0
   48.2810   33.7770   36.9100 C   0  0  0  0  0  0  0  0  0  0  0  0
   47.2260   32.8300   36.3870 C   0  0  0  0  0  0  0  0  0  0  0  0
   47.3110   31.4490   36.9560 C   0  0  0  0  0  0  0  0  0  0  0  0
   47.4160   31.4570   38.4630 C   0  0  0  0  0  0  0  0  0  0  0  0
   51.2386   33.3942   41.6917 H   0  0  0  0  0  0  0  0  0  0  0  0
   50.0195   32.5179   42.7449 H   0  0  0  0  0  0  0  0  0  0  0  0
   51.6050   31.0318   41.6030 H   0  0  0  0  0  0  0  0  0  0  0  0
   50.9289   31.5979   40.0324 H   0  0  0  0  0  0  0  0  0  0  0  0
   49.6377   29.7392   40.4156 H   0  0  0  0  0  0  0  0  0  0  0  0
   49.6684   29.9725   42.2118 H   0  0  0  0  0  0  0  0  0  0  0  0
   47.5429   30.5208   40.6514 H   0  0  0  0  0  0  0  0  0  0  0  0
   47.9190   31.3560   42.2035 H   0  0  0  0  0  0  0  0  0  0  0  0
   47.4052   32.9307   40.5813 H   0  0  0  0  0  0  0  0  0  0  0  0
   46.3901   34.6682   41.2464 H   0  0  0  0  0  0  0  0  0  0  0  0
   48.7877   36.0825   40.8637 H   0  0  0  0  0  0  0  0  0  0  0  0
   48.8266   36.5652   42.3437 H   0  0  0  0  0  0  0  0  0  0  0  0
   49.0042   33.5246   42.8418 H   0  0  0  0  0  0  0  0  0  0  0  0
   45.4700   36.8086   42.4012 H   0  0  0  0  0  0  0  0  0  0  0  0
   47.0317   33.1029   44.0625 H   0  0  0  0  0  0  0  0  0  0  0  0
   43.9837   35.3153   46.0802 H   0  0  0  0  0  0  0  0  0  0  0  0
   49.4501   31.9289   38.6500 H   0  0  0  0  0  0  0  0  0  0  0  0
   47.4116   34.2261   38.8080 H   0  0  0  0  0  0  0  0  0  0  0  0
   49.2124   34.3749   38.7279 H   0  0  0  0  0  0  0  0  0  0  0  0
   48.0506   34.7937   36.5590 H   0  0  0  0  0  0  0  0  0  0  0  0
   49.2576   33.4374   36.5346 H   0  0  0  0  0  0  0  0  0  0  0  0
   46.2371   33.2447   36.6321 H   0  0  0  0  0  0  0  0  0  0  0  0
   47.3904   32.7380   35.3033 H   0  0  0  0  0  0  0  0  0  0  0  0
   46.4083   30.8908   36.6670 H   0  0  0  0  0  0  0  0  0  0  0  0
   48.2201   30.9753   36.5571 H   0  0  0  0  0  0  0  0  0  0  0  0
   46.4536   31.7895   38.8792 H   0  0  0  0  0  0  0  0  0  0  0  0
   47.6704   30.4347   38.7795 H   0  0  0  0  0  0  0  0  0  0  0  0
  1  2  1  0
  1  9  1  0
  3  4  1  0
  3  2  1  0
  5  4  1  0
  6  1  1  0
  6  5  1  0
  7  9  1  0
  7 11  1  0
  8  7  1  0
  8  9  1  0
 10 15  2  0
 11 10  1  0
 11 12  2  0
 12 13  1  0
 13 14  2  0
 15 14  1  0
 16  6  1  0
 17 16  1  0
 18 17  1  0
 19 18  1  0
 19 20  1  0
 20 21  1  0
 21 16  1  0
  2 22  1  0
  2 23  1  0
  3 24  1  0
  3 25  1  0
  4 26  1  0
  4 27  1  0
  5 28  1  0
  5 29  1  0
  6 30  1  6
  7 31  1  6
  8 32  1  0
  8 33  1  0
  9 34  1  1
 10 35  1  0
 12 36  1  0
 14 37  1  0
 16 38  1  0
 17 39  1  0
 17 40  1  0
 18 41  1  0
 18 42  1  0
 19 43  1  0
 19 44  1  0
 20 45  1  0
 20 46  1  0
 21 47  1  0
 21 48  1  0
M  ISO  8  22  13  23  13  24  13  25  13  26  13  27  13  28  13  29  13
M  ISO  8  30  13  31  13  32  13  33  13  34  13  35  14  36  14  37  14
M  ISO  8  38  13  39  13  40  13  41  13  42  13  43  13  44  13  45  13
M  ISO  3  46  13  47  13  48  13
M  END
>  <minimizedAffinity>  (1) 
-5.16296434

>  <minimizedRMSD>  (1) 
2.12065005

$$$$
