
     RDKit          3D

 42 45  0  0  1  0  0  0  0  0999 V2000
   49.2700   33.4280   41.3460 N   0  0  0  0  0  0  0  0  0  0  0  0
   50.5690   33.1570   41.9070 C   0  0  0  0  0  0  0  0  0  0  0  0
   51.1730   31.8520   41.5200 C   0  0  0  0  0  0  0  0  0  0  0  0
   50.3290   30.7200   42.0440 C   0  0  0  0  0  0  0  0  0  0  0  0
   48.8880   31.0890   42.0150 C   0  0  0  0  0  0  0  0  0  0  0  0
   48.6040   32.1770   41.0250 C   0  0  2  0  0  0  0  0  0  0  0  0
   48.2270   34.2200   38.6560 Cl  0  0  0  0  0  0  0  0  0  0  0  0
   48.5950   32.5440   38.4600 C   0  0  0  0  0  0  0  0  0  0  0  0
   48.6850   31.8090   39.6140 C   0  0  0  0  0  0  0  0  0  0  0  0
   48.9400   30.4390   39.4630 C   0  0  0  0  0  0  0  0  0  0  0  0
   49.0910   29.8880   38.1840 C   0  0  0  0  0  0  0  0  0  0  0  0
   48.9940   30.6690   37.0510 C   0  0  0  0  0  0  0  0  0  0  0  0
   48.7410   32.0170   37.1980 C   0  0  0  0  0  0  0  0  0  0  0  0
   48.6030   33.0710   35.8290 Cl  0  0  0  0  0  0  0  0  0  0  0  0
   47.1700   34.7520   42.0440 C   0  0  1  0  0  0  0  0  0  0  0  0
   48.3280   35.6490   41.8990 C   0  0  0  0  0  0  0  0  0  0  0  0
   48.5570   34.2350   42.2710 C   0  0  2  0  0  0  0  0  0  0  0  0
   45.4090   36.0490   43.3010 C   0  0  0  0  0  0  0  0  0  0  0  0
   46.2640   34.9310   43.2090 C   0  0  0  0  0  0  0  0  0  0  0  0
   46.2330   33.9870   44.2470 C   0  0  0  0  0  0  0  0  0  0  0  0
   45.3790   34.1980   45.2950 N   0  0  0  0  0  0  0  0  0  0  0  0
   44.5750   35.2940   45.3350 C   0  0  0  0  0  0  0  0  0  0  0  0
   44.5800   36.2320   44.3410 N   0  0  0  0  0  0  0  0  0  0  0  0
   51.2519   33.9562   41.5831 H   0  0  0  0  0  0  0  0  0  0  0  0
   50.4250   33.1127   42.9966 H   0  0  0  0  0  0  0  0  0  0  0  0
   51.2295   31.7873   40.4234 H   0  0  0  0  0  0  0  0  0  0  0  0
   52.1830   31.7792   41.9497 H   0  0  0  0  0  0  0  0  0  0  0  0
   50.4876   29.8299   41.4175 H   0  0  0  0  0  0  0  0  0  0  0  0
   50.6218   30.5088   43.0831 H   0  0  0  0  0  0  0  0  0  0  0  0
   48.2998   30.2001   41.7434 H   0  0  0  0  0  0  0  0  0  0  0  0
   48.6134   31.4599   43.0135 H   0  0  0  0  0  0  0  0  0  0  0  0
   47.5265   32.3567   41.1543 H   0  0  0  0  0  0  0  0  0  0  0  0
   49.0217   29.7950   40.3510 H   0  0  0  0  0  0  0  0  0  0  0  0
   49.2909   28.8112   38.0810 H   0  0  0  0  0  0  0  0  0  0  0  0
   49.1158   30.2262   36.0515 H   0  0  0  0  0  0  0  0  0  0  0  0
   46.3254   34.4577   41.4036 H   0  0  0  0  0  0  0  0  0  0  0  0
   48.6215   36.0068   40.9011 H   0  0  0  0  0  0  0  0  0  0  0  0
   48.6134   36.6179   42.3346 H   0  0  0  0  0  0  0  0  0  0  0  0
   49.0090   33.6630   43.0947 H   0  0  0  0  0  0  0  0  0  0  0  0
   45.4219   36.7960   42.4936 H   0  0  0  0  0  0  0  0  0  0  0  0
   46.8803   33.0980   44.2187 H   0  0  0  0  0  0  0  0  0  0  0  0
   43.9003   35.4297   46.1932 H   0  0  0  0  0  0  0  0  0  0  0  0
  1  2  1  0
  1 17  1  0
  3  2  1  0
  3  4  1  0
  5  4  1  0
  6  1  1  0
  6  5  1  0
  8  7  1  0
  8  9  2  0
  9  6  1  0
 10  9  1  0
 11 10  2  0
 12 13  2  0
 12 11  1  0
 13  8  1  0
 14 13  1  0
 15 17  1  0
 15 19  1  0
 16 15  1  0
 16 17  1  0
 18 23  2  0
 19 18  1  0
 19 20  2  0
 20 21  1  0
 21 22  2  0
 23 22  1  0
  2 24  1  0
  2 25  1  0
  3 26  1  0
  3 27  1  0
  4 28  1  0
  4 29  1  0
  5 30  1  0
  5 31  1  0
  6 32  1  1
 10 33  1  0
 11 34  1  0
 12 35  1  0
 15 36  1  6
 16 37  1  0
 16 38  1  0
 17 39  1  1
 18 40  1  0
 20 41  1  0
 22 42  1  0
M  ISO  8  24  13  25  13  26  13  27  13  28  13  29  13  30  13  31  13
M  ISO  8  32  13  33  14  34  14  35  14  36  13  37  13  38  13  39  13
M  ISO  3  40  14  41  14  42  14
M  END
>  <minimizedAffinity>  (1) 
-5.33433294

>  <minimizedRMSD>  (1) 
1.01195884

$$$$
