
     RDKit          3D

 35 37  0  0  1  0  0  0  0  0999 V2000
   49.3130   33.2140   41.4810 N   0  0  0  0  0  0  0  0  0  0  0  0
   50.6470   33.1340   42.0610 C   0  0  0  0  0  0  0  0  0  0  0  0
   51.3290   31.8330   41.8270 C   0  0  0  0  0  0  0  0  0  0  0  0
   50.5920   30.7360   42.5540 C   0  0  0  0  0  0  0  0  0  0  0  0
   49.1260   30.9980   42.5800 C   0  0  0  0  0  0  0  0  0  0  0  0
   48.7430   31.9030   41.4300 C   0  0  2  0  0  0  0  0  0  0  0  0
   47.1690   34.5530   42.0130 C   0  0  1  0  0  0  0  0  0  0  0  0
   48.2870   35.4560   41.7050 C   0  0  0  0  0  0  0  0  0  0  0  0
   48.5740   34.1220   42.2940 C   0  0  2  0  0  0  0  0  0  0  0  0
   45.5050   36.0290   43.1710 C   0  0  0  0  0  0  0  0  0  0  0  0
   46.2730   34.8470   43.1530 C   0  0  0  0  0  0  0  0  0  0  0  0
   46.1500   33.9680   44.2410 C   0  0  0  0  0  0  0  0  0  0  0  0
   45.3030   34.2960   45.2480 N   0  0  0  0  0  0  0  0  0  0  0  0
   44.5740   35.4480   45.2330 C   0  0  0  0  0  0  0  0  0  0  0  0
   44.6680   36.3170   44.2030 N   0  0  0  0  0  0  0  0  0  0  0  0
   48.7170   31.2590   40.0930 C   0  0  0  0  0  0  0  0  0  0  0  0
   51.2638   33.9322   41.6223 H   0  0  0  0  0  0  0  0  0  0  0  0
   50.5289   33.2413   43.1494 H   0  0  0  0  0  0  0  0  0  0  0  0
   51.3399   31.6143   40.7490 H   0  0  0  0  0  0  0  0  0  0  0  0
   52.3614   31.8897   42.2023 H   0  0  0  0  0  0  0  0  0  0  0  0
   50.7766   29.7797   42.0427 H   0  0  0  0  0  0  0  0  0  0  0  0
   50.9577   30.6983   43.5908 H   0  0  0  0  0  0  0  0  0  0  0  0
   48.5838   30.0451   42.4902 H   0  0  0  0  0  0  0  0  0  0  0  0
   48.8630   31.4882   43.5290 H   0  0  0  0  0  0  0  0  0  0  0  0
   47.6749   32.0978   41.6067 H   0  0  0  0  0  0  0  0  0  0  0  0
   46.3250   34.1480   41.4354 H   0  0  0  0  0  0  0  0  0  0  0  0
   48.5530   35.6609   40.6575 H   0  0  0  0  0  0  0  0  0  0  0  0
   48.5415   36.4914   41.9756 H   0  0  0  0  0  0  0  0  0  0  0  0
   49.0501   33.6964   43.1897 H   0  0  0  0  0  0  0  0  0  0  0  0
   45.5847   36.7345   42.3308 H   0  0  0  0  0  0  0  0  0  0  0  0
   46.7285   33.0330   44.2758 H   0  0  0  0  0  0  0  0  0  0  0  0
   43.8993   35.6732   46.0721 H   0  0  0  0  0  0  0  0  0  0  0  0
   48.6729   30.1665   40.2131 H   0  0  0  0  0  0  0  0  0  0  0  0
   47.8320   31.6029   39.5375 H   0  0  0  0  0  0  0  0  0  0  0  0
   49.6268   31.5304   39.5375 H   0  0  0  0  0  0  0  0  0  0  0  0
  1  2  1  0
  1  9  1  0
  3  2  1  0
  3  4  1  0
  4  5  1  0
  6  1  1  0
  6  5  1  0
  7  9  1  0
  7 11  1  0
  8  7  1  0
  8  9  1  0
 10 15  2  0
 11 10  1  0
 11 12  2  0
 12 13  1  0
 14 13  2  0
 15 14  1  0
 16  6  1  0
  2 17  1  0
  2 18  1  0
  3 19  1  0
  3 20  1  0
  4 21  1  0
  4 22  1  0
  5 23  1  0
  5 24  1  0
  6 25  1  1
  7 26  1  6
  8 27  1  0
  8 28  1  0
  9 29  1  1
 10 30  1  0
 12 31  1  0
 14 32  1  0
 16 33  1  0
 16 34  1  0
 16 35  1  0
M  ISO  8  17  13  18  13  19  13  20  13  21  13  22  13  23  13  24  13
M  ISO  8  25  13  26  13  27  13  28  13  29  13  30  14  31  14  32  14
M  ISO  3  33   8  34   8  35   8
M  END
>  <minimizedAffinity>  (1) 
-4.59700918

>  <minimizedRMSD>  (1) 
0.0260263626

$$$$
