
     RDKit          3D

 33 35  0  0  1  0  0  0  0  0999 V2000
   49.1010   32.7710   41.5870 N   0  0  0  0  0  0  0  0  0  0  0  0
   50.5450   32.9750   41.7340 C   0  0  0  0  0  0  0  0  0  0  0  0
   51.3340   31.7360   41.4630 C   0  0  0  0  0  0  0  0  0  0  0  0
   51.0680   30.7550   42.5940 C   0  0  0  0  0  0  0  0  0  0  0  0
   49.6220   30.8020   43.0030 C   0  0  0  0  0  0  0  0  0  0  0  0
   48.7910   31.3980   41.8770 C   0  0  1  0  0  0  0  0  0  0  0  0
   47.1850   34.4110   42.1220 C   0  0  1  0  0  0  0  0  0  0  0  0
   48.4670   35.1260   41.9870 C   0  0  0  0  0  0  0  0  0  0  0  0
   48.4670   33.7120   42.4430 C   0  0  2  0  0  0  0  0  0  0  0  0
   45.5160   35.9540   43.1990 C   0  0  0  0  0  0  0  0  0  0  0  0
   46.2690   34.7640   43.2460 C   0  0  0  0  0  0  0  0  0  0  0  0
   46.1290   33.9230   44.3630 C   0  0  0  0  0  0  0  0  0  0  0  0
   45.2680   34.3040   45.3470 N   0  0  0  0  0  0  0  0  0  0  0  0
   44.5520   35.4640   45.2720 C   0  0  0  0  0  0  0  0  0  0  0  0
   44.6740   36.2850   44.2070 N   0  0  0  0  0  0  0  0  0  0  0  0
   47.4570   31.1940   42.2160 O   0  0  0  0  0  0  0  0  0  0  0  0
   50.8635   33.7562   41.0281 H   0  0  0  0  0  0  0  0  0  0  0  0
   50.7342   33.2671   42.7775 H   0  0  0  0  0  0  0  0  0  0  0  0
   51.0207   31.2956   40.5050 H   0  0  0  0  0  0  0  0  0  0  0  0
   52.4071   31.9706   41.4041 H   0  0  0  0  0  0  0  0  0  0  0  0
   51.3158   29.7378   42.2566 H   0  0  0  0  0  0  0  0  0  0  0  0
   51.6910   31.0305   43.4577 H   0  0  0  0  0  0  0  0  0  0  0  0
   49.2693   29.7825   43.2179 H   0  0  0  0  0  0  0  0  0  0  0  0
   49.5176   31.4258   43.9030 H   0  0  0  0  0  0  0  0  0  0  0  0
   49.0293   30.8928   40.9294 H   0  0  0  0  0  0  0  0  0  0  0  0
   46.3342   34.2169   41.4523 H   0  0  0  0  0  0  0  0  0  0  0  0
   48.8506   35.3797   40.9877 H   0  0  0  0  0  0  0  0  0  0  0  0
   48.8736   36.0674   42.3850 H   0  0  0  0  0  0  0  0  0  0  0  0
   48.7866   33.1239   43.3159 H   0  0  0  0  0  0  0  0  0  0  0  0
   45.6133   36.6235   42.3316 H   0  0  0  0  0  0  0  0  0  0  0  0
   46.6980   32.9848   44.4403 H   0  0  0  0  0  0  0  0  0  0  0  0
   43.8670   35.7332   46.0895 H   0  0  0  0  0  0  0  0  0  0  0  0
   47.3654   31.1800   43.2017 H   0  0  0  0  0  0  0  0  0  0  0  0
  1  2  1  0
  1  6  1  0
  1  9  1  0
  3  2  1  0
  3  4  1  0
  4  5  1  0
  6 16  1  0
  6  5  1  0
  7  9  1  0
  7 11  1  0
  8  7  1  0
  8  9  1  0
 10 11  2  0
 10 15  1  0
 11 12  1  0
 12 13  2  0
 14 13  1  0
 15 14  2  0
  2 17  1  0
  2 18  1  0
  3 19  1  0
  3 20  1  0
  4 21  1  0
  4 22  1  0
  5 23  1  0
  5 24  1  0
  6 25  1  6
  7 26  1  6
  8 27  1  0
  8 28  1  0
  9 29  1  1
 10 30  1  0
 12 31  1  0
 14 32  1  0
 16 33  1  0
M  ISO  8  17  13  18  13  19  13  20  13  21  13  22  13  23  13  24  13
M  ISO  8  25  13  26  13  27  13  28  13  29  13  30  14  31  14  32  14
M  ISO  1  33   3
M  END
>  <minimizedAffinity>  (1) 
-4.3529067

>  <minimizedRMSD>  (1) 
0.457353711

$$$$
