
     RDKit          3D

 47 50  0  0  1  0  0  0  0  0999 V2000
   49.5490   33.4320   41.4480 N   0  0  0  0  0  0  0  0  0  0  0  0
   50.7580   33.1320   42.2130 C   0  0  0  0  0  0  0  0  0  0  0  0
   51.3610   31.8010   41.8620 C   0  0  0  0  0  0  0  0  0  0  0  0
   50.4140   30.7050   42.3280 C   0  0  0  0  0  0  0  0  0  0  0  0
   48.9840   31.1290   42.1310 C   0  0  0  0  0  0  0  0  0  0  0  0
   48.9170   32.1930   41.0670 C   0  0  2  0  0  0  0  0  0  0  0  0
   47.3290   34.6250   41.9450 C   0  0  1  0  0  0  0  0  0  0  0  0
   48.3710   35.5990   41.6430 C   0  0  0  0  0  0  0  0  0  0  0  0
   48.7710   34.2960   42.2600 C   0  0  2  0  0  0  0  0  0  0  0  0
   45.5720   36.0030   43.1030 C   0  0  0  0  0  0  0  0  0  0  0  0
   46.3900   34.8480   43.0710 C   0  0  0  0  0  0  0  0  0  0  0  0
   46.2780   33.9490   44.1280 C   0  0  0  0  0  0  0  0  0  0  0  0
   45.3970   34.2320   45.1140 N   0  0  0  0  0  0  0  0  0  0  0  0
   44.6290   35.3280   45.1300 C   0  0  0  0  0  0  0  0  0  0  0  0
   44.7070   36.2330   44.1170 N   0  0  0  0  0  0  0  0  0  0  0  0
   49.3900   31.6900   39.8090 N   0  0  0  0  0  0  0  0  0  0  0  0
   48.9260   33.0540   37.8340 C   0  0  2  0  0  0  0  0  0  0  0  0
   48.4540   31.9150   38.7350 C   0  0  2  0  0  0  0  0  0  0  0  0
   47.2070   32.2820   39.1590 O   0  0  0  0  0  0  0  0  0  0  0  0
   46.6680   33.2240   38.3240 C   0  0  0  0  0  0  0  0  0  0  0  0
   47.6150   33.4070   37.1590 C   0  0  1  0  0  0  0  0  0  0  0  0
   49.8750   32.6090   36.9190 O   0  0  0  0  0  0  0  0  0  0  0  0
   47.6120   34.7670   36.7750 O   0  0  0  0  0  0  0  0  0  0  0  0
   51.5023   33.9172   42.0141 H   0  0  0  0  0  0  0  0  0  0  0  0
   50.4739   33.0942   43.2750 H   0  0  0  0  0  0  0  0  0  0  0  0
   51.5010   31.7324   40.7731 H   0  0  0  0  0  0  0  0  0  0  0  0
   52.3389   31.6886   42.3530 H   0  0  0  0  0  0  0  0  0  0  0  0
   50.6042   29.7904   41.7471 H   0  0  0  0  0  0  0  0  0  0  0  0
   50.5860   30.5158   43.3979 H   0  0  0  0  0  0  0  0  0  0  0  0
   48.3839   30.2612   41.8198 H   0  0  0  0  0  0  0  0  0  0  0  0
   48.5873   31.5299   43.0754 H   0  0  0  0  0  0  0  0  0  0  0  0
   47.8549   32.4516   40.9441 H   0  0  0  0  0  0  0  0  0  0  0  0
   46.5260   34.1589   41.3551 H   0  0  0  0  0  0  0  0  0  0  0  0
   48.6335   35.8102   40.5959 H   0  0  0  0  0  0  0  0  0  0  0  0
   48.5347   36.6551   41.9036 H   0  0  0  0  0  0  0  0  0  0  0  0
   49.2807   33.9327   43.1646 H   0  0  0  0  0  0  0  0  0  0  0  0
   45.6417   36.7320   42.2822 H   0  0  0  0  0  0  0  0  0  0  0  0
   46.8887   33.0346   44.1602 H   0  0  0  0  0  0  0  0  0  0  0  0
   43.9327   35.4976   45.9645 H   0  0  0  0  0  0  0  0  0  0  0  0
   50.2767   32.1604   39.5779 H   0  0  0  0  0  0  0  0  0  0  0  0
   49.4200   33.8909   38.3493 H   0  0  0  0  0  0  0  0  0  0  0  0
   48.4022   30.9488   38.2118 H   0  0  0  0  0  0  0  0  0  0  0  0
   45.6877   32.8834   37.9592 H   0  0  0  0  0  0  0  0  0  0  0  0
   46.5284   34.1754   38.8582 H   0  0  0  0  0  0  0  0  0  0  0  0
   47.3884   32.8236   36.2544 H   0  0  0  0  0  0  0  0  0  0  0  0
   50.6558   32.2429   37.4051 H   0  0  0  0  0  0  0  0  0  0  0  0
   47.6107   35.3382   37.5836 H   0  0  0  0  0  0  0  0  0  0  0  0
  1  2  1  0
  1  9  1  0
  3  2  1  0
  3  4  1  0
  5  4  1  0
  6  1  1  0
  6  5  1  0
  7  9  1  0
  7 11  1  0
  8  7  1  0
  8  9  1  0
 10 15  2  0
 11 10  1  0
 11 12  2  0
 12 13  1  0
 13 14  2  0
 15 14  1  0
 16  6  1  0
 17 22  1  0
 17 18  1  0
 18 19  1  0
 18 16  1  0
 20 19  1  0
 21 23  1  0
 21 17  1  0
 21 20  1  0
  2 24  1  0
  2 25  1  0
  3 26  1  0
  3 27  1  0
  4 28  1  0
  4 29  1  0
  5 30  1  0
  5 31  1  0
  6 32  1  6
  7 33  1  6
  8 34  1  0
  8 35  1  0
  9 36  1  1
 10 37  1  0
 12 38  1  0
 14 39  1  0
 16 40  1  0
 17 41  1  1
 18 42  1  6
 20 43  1  0
 20 44  1  0
 21 45  1  6
 22 46  1  0
 23 47  1  0
M  ISO  8  24  13  25  13  26  13  27  13  28  13  29  13  30  13  31  13
M  ISO  8  32  13  33  13  34  13  35  13  36  13  37  14  38  14  39  14
M  ISO  8  40   5  41  13  42  13  43  13  44  13  45  13  46   3  47   3
M  END
>  <minimizedAffinity>  (1) 
-5.91750479

>  <minimizedRMSD>  (1) 
3.19875479

$$$$
