
     RDKit          3D

 22 23  0  0  0  0  0  0  0  0999 V2000
   46.8230   34.8420   41.9130 C   0  0  0  0  0  0  0  0  0  0  0  0
   47.9550   35.3610   41.8540 O   0  0  0  0  0  0  0  0  0  0  0  0
   43.9370   34.9240   42.4600 Cl  0  0  0  0  0  0  0  0  0  0  0  0
   44.6690   34.1360   41.0990 C   0  0  0  0  0  0  0  0  0  0  0  0
   46.0490   34.1310   40.8910 C   0  0  0  0  0  0  0  0  0  0  0  0
   46.6390   33.5060   39.8110 C   0  0  0  0  0  0  0  0  0  0  0  0
   45.8140   32.8620   38.9050 C   0  0  0  0  0  0  0  0  0  0  0  0
   44.4450   32.8450   39.0760 C   0  0  0  0  0  0  0  0  0  0  0  0
   43.4440   32.0190   37.9060 Cl  0  0  0  0  0  0  0  0  0  0  0  0
   43.8660   33.4750   40.1630 C   0  0  0  0  0  0  0  0  0  0  0  0
   45.3420   36.0400   43.4380 C   0  0  0  0  0  0  0  0  0  0  0  0
   46.1010   34.9110   43.1390 C   0  0  0  0  0  0  0  0  0  0  0  0
   46.1260   33.8760   44.0690 C   0  0  0  0  0  0  0  0  0  0  0  0
   45.4180   34.0070   45.2130 N   0  0  0  0  0  0  0  0  0  0  0  0
   44.6810   35.1280   45.4790 C   0  0  0  0  0  0  0  0  0  0  0  0
   44.6420   36.1420   44.5940 N   0  0  0  0  0  0  0  0  0  0  0  0
   47.7304   33.5192   39.6745 H   0  0  0  0  0  0  0  0  0  0  0  0
   46.2570   32.3557   38.0347 H   0  0  0  0  0  0  0  0  0  0  0  0
   42.7737   33.4563   40.2916 H   0  0  0  0  0  0  0  0  0  0  0  0
   45.3099   36.8703   42.7172 H   0  0  0  0  0  0  0  0  0  0  0  0
   46.7126   32.9657   43.8762 H   0  0  0  0  0  0  0  0  0  0  0  0
   44.1173   35.2016   46.4207 H   0  0  0  0  0  0  0  0  0  0  0  0
  1 12  1  0
  2  1  2  0
  4  3  1  0
  5  4  2  0
  5  1  1  0
  6  5  1  0
  7  8  1  0
  7  6  2  0
  8 10  2  0
  9  8  1  0
 10  4  1  0
 11 16  2  0
 12 11  1  0
 12 13  2  0
 13 14  1  0
 14 15  2  0
 16 15  1  0
  6 17  1  0
  7 18  1  0
 10 19  1  0
 11 20  1  0
 13 21  1  0
 15 22  1  0
M  ISO  6  17  14  18  14  19  14  20  14  21  14  22  14
M  END
>  <minimizedAffinity>  (1) 
-4.54133558

>  <minimizedRMSD>  (1) 
0.288553566

$$$$
