
     RDKit          3D

 21 22  0  0  0  0  0  0  0  0999 V2000
   42.1020   31.9250   41.7080 Cl  0  0  0  0  0  0  0  0  0  0  0  0
   41.2690   33.3550   41.1120 C   0  0  0  0  0  0  0  0  0  0  0  0
   42.0750   34.4240   40.8450 C   0  0  0  0  0  0  0  0  0  0  0  0
   41.4770   35.5950   40.3670 C   0  0  0  0  0  0  0  0  0  0  0  0
   40.0900   35.6210   40.1850 C   0  0  0  0  0  0  0  0  0  0  0  0
   39.2750   34.5360   40.4580 C   0  0  0  0  0  0  0  0  0  0  0  0
   39.9010   33.3870   40.9310 C   0  0  0  0  0  0  0  0  0  0  0  0
   38.9730   31.9480   41.3120 Cl  0  0  0  0  0  0  0  0  0  0  0  0
   43.8250   34.5430   41.0210 S   0  0  0  0  0  0  0  0  0  0  0  0
   44.3600   34.6250   42.7320 C   0  0  0  0  0  0  0  0  0  0  0  0
   45.0300   33.4850   43.2040 C   0  0  0  0  0  0  0  0  0  0  0  0
   45.4730   33.4940   44.5400 C   0  0  0  0  0  0  0  0  0  0  0  0
   45.2330   34.5920   45.2960 N   0  0  0  0  0  0  0  0  0  0  0  0
   44.5820   35.6730   44.8030 C   0  0  0  0  0  0  0  0  0  0  0  0
   44.1380   35.7060   43.5210 N   0  0  0  0  0  0  0  0  0  0  0  0
   42.0874   36.4810   40.1380 H   0  0  0  0  0  0  0  0  0  0  0  0
   39.6266   36.5447   39.8082 H   0  0  0  0  0  0  0  0  0  0  0  0
   38.1861   34.5800   40.3084 H   0  0  0  0  0  0  0  0  0  0  0  0
   45.2026   32.6155   42.5527 H   0  0  0  0  0  0  0  0  0  0  0  0
   46.0032   32.6272   44.9614 H   0  0  0  0  0  0  0  0  0  0  0  0
   44.4098   36.5418   45.4553 H   0  0  0  0  0  0  0  0  0  0  0  0
  2  1  1  0
  3  9  1  0
  3  2  2  0
  4  3  1  0
  5  4  2  0
  5  6  1  0
  6  7  2  0
  7  2  1  0
  7  8  1  0
  9 10  1  0
 10 11  2  0
 10 15  1  0
 11 12  1  0
 12 13  2  0
 14 13  1  0
 15 14  2  0
  4 16  1  0
  5 17  1  0
  6 18  1  0
 11 19  1  0
 12 20  1  0
 14 21  1  0
M  ISO  6  16  14  17  14  18  14  19  14  20  14  21  14
M  END
>  <minimizedAffinity>  (1) 
-4.61870766

>  <minimizedRMSD>  (1) 
2.21349359

$$$$
