
     RDKit          3D

 31 33  0  0  0  0  0  0  0  0999 V2000
   45.7180   33.7840   41.5810 C   0  0  0  0  0  0  0  0  0  0  0  0
   46.8940   34.4460   41.2270 C   0  0  0  0  0  0  0  0  0  0  0  0
   47.8550   34.6680   42.2180 C   0  0  0  0  0  0  0  0  0  0  0  0
   47.6040   34.2360   43.4660 N   0  0  0  0  0  0  0  0  0  0  0  0
   46.4550   33.5950   43.7970 C   0  0  0  0  0  0  0  0  0  0  0  0
   45.4990   33.3620   42.8530 N   0  0  0  0  0  0  0  0  0  0  0  0
   47.7470   30.9750   44.4460 Cl  0  0  0  0  0  0  0  0  0  0  0  0
   46.7600   31.9170   45.5490 C   0  0  0  0  0  0  0  0  0  0  0  0
   46.1940   33.1280   45.1690 C   0  0  0  0  0  0  0  0  0  0  0  0
   45.4070   33.8830   46.0400 C   0  0  0  0  0  0  0  0  0  0  0  0
   45.1880   33.4070   47.3210 C   0  0  0  0  0  0  0  0  0  0  0  0
   45.7650   32.2140   47.6440 C   0  0  0  0  0  0  0  0  0  0  0  0
   45.4790   31.6210   49.2730 Cl  0  0  0  0  0  0  0  0  0  0  0  0
   46.5420   31.4310   46.8430 C   0  0  0  0  0  0  0  0  0  0  0  0
   44.5380   33.5360   40.2600 S   0  0  0  0  0  0  0  0  0  0  0  0
   42.2370   31.3650   40.7380 Cl  0  0  0  0  0  0  0  0  0  0  0  0
   41.8510   33.0670   40.9400 C   0  0  0  0  0  0  0  0  0  0  0  0
   42.8790   33.9240   40.7190 C   0  0  0  0  0  0  0  0  0  0  0  0
   42.6390   35.2900   40.8630 C   0  0  0  0  0  0  0  0  0  0  0  0
   41.3510   35.7150   41.2270 C   0  0  0  0  0  0  0  0  0  0  0  0
   40.3060   34.8500   41.4520 C   0  0  0  0  0  0  0  0  0  0  0  0
   40.5870   33.4950   41.2980 C   0  0  0  0  0  0  0  0  0  0  0  0
   39.3380   32.2820   41.5560 Cl  0  0  0  0  0  0  0  0  0  0  0  0
   47.0610   34.7849   40.1939 H   0  0  0  0  0  0  0  0  0  0  0  0
   48.7966   35.1852   41.9815 H   0  0  0  0  0  0  0  0  0  0  0  0
   44.9691   34.8382   45.7145 H   0  0  0  0  0  0  0  0  0  0  0  0
   44.5767   33.9652   48.0454 H   0  0  0  0  0  0  0  0  0  0  0  0
   46.9697   30.4792   47.1912 H   0  0  0  0  0  0  0  0  0  0  0  0
   43.4435   36.0210   40.6946 H   0  0  0  0  0  0  0  0  0  0  0  0
   41.1689   36.7942   41.3377 H   0  0  0  0  0  0  0  0  0  0  0  0
   39.3057   35.2079   41.7372 H   0  0  0  0  0  0  0  0  0  0  0  0
  1  6  1  0
  2  1  2  0
  2  3  1  0
  3  4  2  0
  4  5  1  0
  5  9  1  0
  6  5  2  0
  7  8  1  0
  8 14  2  0
  9  8  1  0
  9 10  2  0
 10 11  1  0
 11 12  2  0
 12 13  1  0
 14 12  1  0
 15 18  1  0
 15  1  1  0
 16 17  1  0
 17 22  2  0
 18 19  2  0
 18 17  1  0
 19 20  1  0
 20 21  2  0
 22 21  1  0
 22 23  1  0
  2 24  1  0
  3 25  1  0
 10 26  1  0
 11 27  1  0
 14 28  1  0
 19 29  1  0
 20 30  1  0
 21 31  1  0
M  ISO  8  24  14  25  14  26  14  27  14  28  14  29  14  30  14  31  14
M  END
>  <minimizedAffinity>  (1) 
-5.83133507

>  <minimizedRMSD>  (1) 
4.09676647

$$$$
