
     RDKit          3D

 26 27  0  0  0  0  0  0  0  0999 V2000
   47.2340   34.9260   41.9300 C   0  0  0  0  0  0  0  0  0  0  0  0
   48.2750   35.6100   41.9440 O   0  0  0  0  0  0  0  0  0  0  0  0
   46.9540   34.0880   40.8170 N   0  0  0  0  0  0  0  0  0  0  0  0
   48.0130   33.4850   40.0250 C   0  0  0  0  0  0  0  0  0  0  0  0
   47.7600   33.9800   38.6020 C   0  0  0  0  0  0  0  0  0  0  0  0
   46.5020   33.4930   38.1310 N   0  0  0  0  0  0  0  0  0  0  0  0
   45.5870   33.0350   39.1220 C   0  0  0  0  0  0  0  0  0  0  0  0
   45.5940   33.7890   40.4150 C   0  0  0  0  0  0  0  0  0  0  0  0
   45.4450   36.0840   43.1840 C   0  0  0  0  0  0  0  0  0  0  0  0
   46.3550   35.0160   43.0460 C   0  0  0  0  0  0  0  0  0  0  0  0
   46.3720   34.0330   44.0490 C   0  0  0  0  0  0  0  0  0  0  0  0
   45.5140   34.1590   45.0960 N   0  0  0  0  0  0  0  0  0  0  0  0
   44.6540   35.1940   45.2000 C   0  0  0  0  0  0  0  0  0  0  0  0
   44.6390   36.1260   44.2490 N   0  0  0  0  0  0  0  0  0  0  0  0
   49.0001   33.8149   40.3811 H   0  0  0  0  0  0  0  0  0  0  0  0
   48.0097   32.3870   40.0913 H   0  0  0  0  0  0  0  0  0  0  0  0
   47.7503   35.0799   38.5954 H   0  0  0  0  0  0  0  0  0  0  0  0
   48.5597   33.6097   37.9436 H   0  0  0  0  0  0  0  0  0  0  0  0
   46.0452   34.2565   37.6121 H   0  0  0  0  0  0  0  0  0  0  0  0
   44.5731   33.0985   38.7000 H   0  0  0  0  0  0  0  0  0  0  0  0
   45.9052   32.0120   39.3716 H   0  0  0  0  0  0  0  0  0  0  0  0
   45.0379   34.7297   40.2892 H   0  0  0  0  0  0  0  0  0  0  0  0
   45.1196   33.1710   41.1915 H   0  0  0  0  0  0  0  0  0  0  0  0
   45.3989   36.8757   42.4217 H   0  0  0  0  0  0  0  0  0  0  0  0
   47.0641   33.1802   43.9887 H   0  0  0  0  0  0  0  0  0  0  0  0
   43.9730   35.2668   46.0608 H   0  0  0  0  0  0  0  0  0  0  0  0
  1  2  2  0
  1 10  1  0
  3  1  1  0
  4  3  1  0
  5  4  1  0
  6  5  1  0
  6  7  1  0
  7  8  1  0
  8  3  1  0
  9 14  2  0
 10  9  1  0
 10 11  2  0
 11 12  1  0
 12 13  2  0
 14 13  1  0
  4 15  1  0
  4 16  1  0
  5 17  1  0
  5 18  1  0
  6 19  1  0
  7 20  1  0
  7 21  1  0
  8 22  1  0
  8 23  1  0
  9 24  1  0
 11 25  1  0
 13 26  1  0
M  ISO  8  15  13  16  13  17  13  18  13  19   5  20  13  21  13  22  13
M  ISO  4  23  13  24  14  25  14  26  14
M  END
>  <minimizedAffinity>  (1) 
-4.43940163

>  <minimizedRMSD>  (1) 
0.602644801

$$$$
