
     RDKit          3D

 22 23  0  0  0  0  0  0  0  0999 V2000
   41.3130   31.5100   40.7540 Cl  0  0  0  0  0  0  0  0  0  0  0  0
   40.8840   33.1360   40.2670 C   0  0  0  0  0  0  0  0  0  0  0  0
   41.9230   33.9400   39.9320 C   0  0  0  0  0  0  0  0  0  0  0  0
   41.6280   35.2500   39.5370 C   0  0  0  0  0  0  0  0  0  0  0  0
   40.3060   35.6750   39.5020 C   0  0  0  0  0  0  0  0  0  0  0  0
   39.2490   34.8570   39.8440 C   0  0  0  0  0  0  0  0  0  0  0  0
   39.5610   33.5620   40.2330 C   0  0  0  0  0  0  0  0  0  0  0  0
   38.3020   32.4250   40.6920 Cl  0  0  0  0  0  0  0  0  0  0  0  0
   43.6440   33.5370   39.9290 S   0  0  0  0  0  0  0  0  0  0  0  0
   44.3810   33.5740   41.5600 C   0  0  0  0  0  0  0  0  0  0  0  0
   45.1580   32.4550   41.8890 C   0  0  0  0  0  0  0  0  0  0  0  0
   45.7670   32.4110   43.1480 C   0  0  0  0  0  0  0  0  0  0  0  0
   45.5730   33.4600   43.9900 N   0  0  0  0  0  0  0  0  0  0  0  0
   44.8180   34.5160   43.6370 C   0  0  0  0  0  0  0  0  0  0  0  0
   44.2120   34.5950   42.4230 N   0  0  0  0  0  0  0  0  0  0  0  0
   44.6320   35.8380   44.8260 S   0  0  0  0  0  0  0  0  0  0  0  0
   42.4382   35.9389   39.2560 H   0  0  0  0  0  0  0  0  0  0  0  0
   40.0929   36.7075   39.1883 H   0  0  0  0  0  0  0  0  0  0  0  0
   38.2091   35.2141   39.8100 H   0  0  0  0  0  0  0  0  0  0  0  0
   45.2863   31.6296   41.1733 H   0  0  0  0  0  0  0  0  0  0  0  0
   46.3851   31.5519   43.4477 H   0  0  0  0  0  0  0  0  0  0  0  0
   44.7042   35.3250   46.0943 H   0  0  0  0  0  0  0  0  0  0  0  0
  2  1  1  0
  3  2  2  0
  4  3  1  0
  5  4  2  0
  5  6  1  0
  6  7  2  0
  7  2  1  0
  7  8  1  0
  9  3  1  0
  9 10  1  0
 10 11  2  0
 10 15  1  0
 11 12  1  0
 12 13  2  0
 14 13  1  0
 14 16  1  0
 15 14  2  0
  4 17  1  0
  5 18  1  0
  6 19  1  0
 11 20  1  0
 12 21  1  0
 16 22  1  0
M  ISO  6  17  14  18  14  19  14  20  14  21  14  22  11
M  END
>  <minimizedAffinity>  (1) 
-4.20718908

>  <minimizedRMSD>  (1) 
1.34568453

$$$$
