
     RDKit          3D

 29 31  0  0  0  0  0  0  0  0999 V2000
   47.1970   31.3540   45.1330 C   0  0  0  0  0  0  0  0  0  0  0  0
   46.8690   32.6860   45.1230 C   0  0  0  0  0  0  0  0  0  0  0  0
   46.2720   33.3320   46.2110 C   0  0  0  0  0  0  0  0  0  0  0  0
   45.9970   32.5830   47.3640 C   0  0  0  0  0  0  0  0  0  0  0  0
   45.4410   32.8550   48.5830 N   0  0  0  0  0  0  0  0  0  0  0  0
   45.4320   31.7150   49.3130 C   0  0  0  0  0  0  0  0  0  0  0  0
   45.9810   30.7620   48.5370 N   0  0  0  0  0  0  0  0  0  0  0  0
   46.3380   31.2530   47.3420 C   0  0  0  0  0  0  0  0  0  0  0  0
   46.9220   30.6170   46.2780 C   0  0  0  0  0  0  0  0  0  0  0  0
   46.5180   35.1760   42.4360 C   0  0  0  0  0  0  0  0  0  0  0  0
   47.6980   35.0070   41.7130 C   0  0  0  0  0  0  0  0  0  0  0  0
   48.6240   34.0320   42.1470 C   0  0  0  0  0  0  0  0  0  0  0  0
   48.2830   33.3170   43.2640 N   0  0  0  0  0  0  0  0  0  0  0  0
   47.1380   33.5020   43.9410 C   0  0  0  0  0  0  0  0  0  0  0  0
   46.2540   34.4300   43.5310 N   0  0  0  0  0  0  0  0  0  0  0  0
   47.2700   29.2740   46.2470 O   0  0  0  0  0  0  0  0  0  0  0  0
   46.3270   26.8670   45.5520 O   0  0  0  0  0  0  0  0  0  0  0  0
   46.2690   27.9690   46.5950 P   0  0  0  0  0  0  0  0  0  0  0  0
   46.8300   27.2640   48.0500 O   0  0  0  0  0  0  0  0  0  0  0  0
   44.6480   28.3700   46.8290 O   0  0  0  0  0  0  0  0  0  0  0  0
   47.6656   30.8817   44.2570 H   0  0  0  0  0  0  0  0  0  0  0  0
   46.0241   34.4026   46.1630 H   0  0  0  0  0  0  0  0  0  0  0  0
   45.0887   33.7718   48.8933 H   0  0  0  0  0  0  0  0  0  0  0  0
   45.0513   31.5918   50.3377 H   0  0  0  0  0  0  0  0  0  0  0  0
   45.7881   35.9310   42.1087 H   0  0  0  0  0  0  0  0  0  0  0  0
   47.9039   35.6200   40.8231 H   0  0  0  0  0  0  0  0  0  0  0  0
   49.5705   33.8563   41.6148 H   0  0  0  0  0  0  0  0  0  0  0  0
   46.4441   27.7490   48.8220 H   0  0  0  0  0  0  0  0  0  0  0  0
   44.4565   28.4174   47.7991 H   0  0  0  0  0  0  0  0  0  0  0  0
  1  9  2  0
  2  1  1  0
  2  3  2  0
  3  4  1  0
  4  5  1  0
  5  6  1  0
  7  6  2  0
  8  4  2  0
  8  7  1  0
  9  8  1  0
 10 15  2  0
 11 12  2  0
 11 10  1  0
 12 13  1  0
 13 14  2  0
 14  2  1  0
 15 14  1  0
 16  9  1  0
 16 18  1  0
 17 18  2  0
 18 20  1  0
 18 19  1  0
  1 21  1  0
  3 22  1  0
  5 23  1  0
  6 24  1  0
 10 25  1  0
 11 26  1  0
 12 27  1  0
 19 28  1  0
 20 29  1  0
M  ISO  8  21  14  22  14  23   9  24  14  25  14  26  14  27  14  28   3
M  ISO  1  29   3
M  END
>  <minimizedAffinity>  (1) 
-5.20700359

>  <minimizedRMSD>  (1) 
1.1744225

$$$$
