
     RDKit          3D

 21 22  0  0  0  0  0  0  0  0999 V2000
   47.2820   34.9680   41.9010 C   0  0  0  0  0  0  0  0  0  0  0  0
   48.3870   35.5700   41.9940 O   0  0  0  0  0  0  0  0  0  0  0  0
   45.4830   36.0230   43.1790 C   0  0  0  0  0  0  0  0  0  0  0  0
   46.4130   34.9930   43.0300 C   0  0  0  0  0  0  0  0  0  0  0  0
   46.4310   34.0300   44.0230 C   0  0  0  0  0  0  0  0  0  0  0  0
   45.5710   34.1250   45.0660 N   0  0  0  0  0  0  0  0  0  0  0  0
   44.6850   35.1380   45.1740 C   0  0  0  0  0  0  0  0  0  0  0  0
   44.6360   36.0980   44.2260 N   0  0  0  0  0  0  0  0  0  0  0  0
   46.9950   34.2990   40.6370 C   0  0  0  0  0  0  0  0  0  0  0  0
   47.9690   34.2900   39.6570 C   0  0  0  0  0  0  0  0  0  0  0  0
   47.6670   33.6470   38.4690 C   0  0  0  0  0  0  0  0  0  0  0  0
   46.4210   33.0730   38.3690 C   0  0  0  0  0  0  0  0  0  0  0  0
   45.4430   33.0880   39.3630 C   0  0  0  0  0  0  0  0  0  0  0  0
   45.7690   33.7280   40.5200 N   0  0  0  0  0  0  0  0  0  0  0  0
   45.4389   36.8076   42.4092 H   0  0  0  0  0  0  0  0  0  0  0  0
   47.1401   33.1910   43.9662 H   0  0  0  0  0  0  0  0  0  0  0  0
   44.0023   35.1812   46.0354 H   0  0  0  0  0  0  0  0  0  0  0  0
   48.9442   34.7739   39.8144 H   0  0  0  0  0  0  0  0  0  0  0  0
   48.3908   33.5973   37.6422 H   0  0  0  0  0  0  0  0  0  0  0  0
   46.1758   32.5599   37.4274 H   0  0  0  0  0  0  0  0  0  0  0  0
   44.4628   32.6095   39.2204 H   0  0  0  0  0  0  0  0  0  0  0  0
  1  2  2  0
  1  4  1  0
  3  8  2  0
  4  3  1  0
  4  5  2  0
  5  6  1  0
  6  7  2  0
  8  7  1  0
  9  1  1  0
 10  9  2  0
 11 10  1  0
 12 11  2  0
 12 13  1  0
 13 14  2  0
 14  9  1  0
  3 15  1  0
  5 16  1  0
  7 17  1  0
 10 18  1  0
 11 19  1  0
 12 20  1  0
 13 21  1  0
M  ISO  7  15  14  16  14  17  14  18  14  19  14  20  14  21  14
M  END
>  <minimizedAffinity>  (1) 
-4.28673983

>  <minimizedRMSD>  (1) 
0.854204416

$$$$
