
     RDKit          3D

 43 48  0  0  0  0  0  0  0  0999 V2000
   47.4410   31.5580   45.3330 C   0  0  0  0  0  0  0  0  0  0  0  0
   46.8350   32.7890   45.2150 C   0  0  0  0  0  0  0  0  0  0  0  0
   46.0380   33.3300   46.2100 C   0  0  0  0  0  0  0  0  0  0  0  0
   45.8220   32.6210   47.3860 C   0  0  0  0  0  0  0  0  0  0  0  0
   45.1240   32.8270   48.5390 N   0  0  0  0  0  0  0  0  0  0  0  0
   45.2970   31.7510   49.3440 C   0  0  0  0  0  0  0  0  0  0  0  0
   46.1010   30.8890   48.6780 N   0  0  0  0  0  0  0  0  0  0  0  0
   46.4350   31.3990   47.4790 C   0  0  0  0  0  0  0  0  0  0  0  0
   47.2280   30.8380   46.5170 C   0  0  0  0  0  0  0  0  0  0  0  0
   46.3010   35.2090   42.4950 C   0  0  0  0  0  0  0  0  0  0  0  0
   47.4400   35.0360   41.7040 C   0  0  0  0  0  0  0  0  0  0  0  0
   48.3900   34.0820   42.1150 C   0  0  0  0  0  0  0  0  0  0  0  0
   48.1440   33.3800   43.2620 N   0  0  0  0  0  0  0  0  0  0  0  0
   47.0250   33.5780   44.0020 C   0  0  0  0  0  0  0  0  0  0  0  0
   46.1180   34.4830   43.6200 N   0  0  0  0  0  0  0  0  0  0  0  0
   47.8420   29.5220   46.7090 C   0  0  0  0  0  0  0  0  0  0  0  0
   49.1460   29.3070   47.0870 C   0  0  0  0  0  0  0  0  0  0  0  0
   49.2650   27.9130   47.1390 C   0  0  0  0  0  0  0  0  0  0  0  0
   48.0450   27.3750   46.7930 C   0  0  0  0  0  0  0  0  0  0  0  0
   47.2230   28.3830   46.5440 O   0  0  0  0  0  0  0  0  0  0  0  0
   47.8130   25.9730   46.7430 N   0  0  0  0  0  0  0  0  0  0  0  0
   48.2270   25.1880   45.7080 C   0  0  0  0  0  0  0  0  0  0  0  0
   47.8460   23.9030   45.9730 N   0  0  0  0  0  0  0  0  0  0  0  0
   47.2130   23.9160   47.1500 C   0  0  0  0  0  0  0  0  0  0  0  0
   46.6110   22.9950   47.9500 C   0  0  0  0  0  0  0  0  0  0  0  0
   46.0320   23.2940   49.1250 N   0  0  0  0  0  0  0  0  0  0  0  0
   46.0120   24.5580   49.5950 C   0  0  0  0  0  0  0  0  0  0  0  0
   46.5920   25.4740   48.8340 N   0  0  0  0  0  0  0  0  0  0  0  0
   47.1720   25.1920   47.6640 C   0  0  0  0  0  0  0  0  0  0  0  0
   46.5490   21.6410   47.6000 N   0  0  0  0  0  0  0  0  0  0  0  0
   48.0702   31.1537   44.5264 H   0  0  0  0  0  0  0  0  0  0  0  0
   45.5768   34.3188   46.0700 H   0  0  0  0  0  0  0  0  0  0  0  0
   44.5603   33.6601   48.7606 H   0  0  0  0  0  0  0  0  0  0  0  0
   44.8669   31.6057   50.3460 H   0  0  0  0  0  0  0  0  0  0  0  0
   45.5419   35.9473   42.1974 H   0  0  0  0  0  0  0  0  0  0  0  0
   47.5896   35.6271   40.7884 H   0  0  0  0  0  0  0  0  0  0  0  0
   49.3046   33.9063   41.5297 H   0  0  0  0  0  0  0  0  0  0  0  0
   49.9199   30.0591   47.3001 H   0  0  0  0  0  0  0  0  0  0  0  0
   50.1701   27.3487   47.4079 H   0  0  0  0  0  0  0  0  0  0  0  0
   48.7723   25.5295   44.8158 H   0  0  0  0  0  0  0  0  0  0  0  0
   45.5409   24.8137   50.5556 H   0  0  0  0  0  0  0  0  0  0  0  0
   46.0861   20.9676   48.2271 H   0  0  0  0  0  0  0  0  0  0  0  0
   46.9663   21.3181   46.7154 H   0  0  0  0  0  0  0  0  0  0  0  0
  1  9  2  0
  2  1  1  0
  2  3  2  0
  3  4  1  0
  4  8  2  0
  4  5  1  0
  5  6  1  0
  7  6  2  0
  8  7  1  0
  9 16  1  0
  9  8  1  0
 10 15  2  0
 11 12  2  0
 11 10  1  0
 12 13  1  0
 13 14  2  0
 14  2  1  0
 15 14  1  0
 16 17  2  0
 17 18  1  0
 19 18  2  0
 20 16  1  0
 20 19  1  0
 21 19  1  0
 21 29  1  0
 22 23  2  0
 22 21  1  0
 23 24  1  0
 24 29  2  0
 24 25  1  0
 25 26  2  0
 26 27  1  0
 28 27  2  0
 29 28  1  0
 30 25  1  0
  1 31  1  0
  3 32  1  0
  5 33  1  0
  6 34  1  0
 10 35  1  0
 11 36  1  0
 12 37  1  0
 17 38  1  0
 18 39  1  0
 22 40  1  0
 27 41  1  0
 30 42  1  0
 30 43  1  0
M  ISO  8  31  14  32  14  33   9  34  14  35  14  36  14  37  14  38  14
M  ISO  3  39  14  40  14  41  14
M  END
>  <minimizedAffinity>  (1) 
-6.14560795

>  <minimizedRMSD>  (1) 
0.816557586

$$$$
