
     RDKit          3D

 36 39  0  0  0  0  0  0  0  0999 V2000
   46.7350   31.3070   45.1140 C   0  0  0  0  0  0  0  0  0  0  0  0
   46.6250   32.6830   45.2290 C   0  0  0  0  0  0  0  0  0  0  0  0
   46.2320   33.3150   46.3970 C   0  0  0  0  0  0  0  0  0  0  0  0
   45.9280   32.5550   47.5300 C   0  0  0  0  0  0  0  0  0  0  0  0
   45.5260   32.8230   48.7990 N   0  0  0  0  0  0  0  0  0  0  0  0
   45.3920   31.6340   49.4560 C   0  0  0  0  0  0  0  0  0  0  0  0
   45.7130   30.6650   48.5800 N   0  0  0  0  0  0  0  0  0  0  0  0
   46.0460   31.1970   47.3920 C   0  0  0  0  0  0  0  0  0  0  0  0
   46.4330   30.5370   46.2480 C   0  0  0  0  0  0  0  0  0  0  0  0
   46.3540   35.2250   42.5880 C   0  0  0  0  0  0  0  0  0  0  0  0
   47.5340   35.0630   41.8780 C   0  0  0  0  0  0  0  0  0  0  0  0
   48.4200   34.0750   42.3160 C   0  0  0  0  0  0  0  0  0  0  0  0
   48.0840   33.3260   43.4070 N   0  0  0  0  0  0  0  0  0  0  0  0
   46.9320   33.5110   44.0690 C   0  0  0  0  0  0  0  0  0  0  0  0
   46.0630   34.4590   43.6650 N   0  0  0  0  0  0  0  0  0  0  0  0
   46.5240   29.0690   46.2150 C   0  0  0  0  0  0  0  0  0  0  0  0
   47.4820   28.3780   45.4900 C   0  0  0  0  0  0  0  0  0  0  0  0
   47.1700   27.0310   45.7650 C   0  0  0  0  0  0  0  0  0  0  0  0
   46.0670   27.0060   46.6200 C   0  0  0  0  0  0  0  0  0  0  0  0
   45.7160   28.2630   46.8610 O   0  0  0  0  0  0  0  0  0  0  0  0
   45.4480   25.8710   47.1280 O   0  0  0  0  0  0  0  0  0  0  0  0
   43.0580   25.6410   48.1270 O   0  0  0  0  0  0  0  0  0  0  0  0
   44.5210   25.8360   48.5340 P   0  0  0  0  0  0  0  0  0  0  0  0
   44.6140   27.2120   49.4780 O   0  0  0  0  0  0  0  0  0  0  0  0
   44.9590   24.4420   49.4000 O   0  0  0  0  0  0  0  0  0  0  0  0
   47.0470   30.8359   44.1703 H   0  0  0  0  0  0  0  0  0  0  0  0
   46.1593   34.4120   46.4329 H   0  0  0  0  0  0  0  0  0  0  0  0
   45.3529   33.7577   49.1955 H   0  0  0  0  0  0  0  0  0  0  0  0
   45.0810   31.4949   50.5019 H   0  0  0  0  0  0  0  0  0  0  0  0
   45.6368   35.9951   42.2679 H   0  0  0  0  0  0  0  0  0  0  0  0
   47.7640   35.6886   41.0030 H   0  0  0  0  0  0  0  0  0  0  0  0
   49.3714   33.9038   41.7910 H   0  0  0  0  0  0  0  0  0  0  0  0
   48.2864   28.7808   44.8569 H   0  0  0  0  0  0  0  0  0  0  0  0
   47.7033   26.1521   45.3737 H   0  0  0  0  0  0  0  0  0  0  0  0
   44.5968   26.9577   50.4346 H   0  0  0  0  0  0  0  0  0  0  0  0
   44.9014   24.6252   50.3712 H   0  0  0  0  0  0  0  0  0  0  0  0
  1  2  2  0
  1  9  1  0
  2  3  1  0
  3  4  2  0
  4  5  1  0
  5  6  1  0
  7  6  2  0
  8  4  1  0
  8  7  1  0
  9  8  2  0
 10 15  2  0
 11 12  2  0
 11 10  1  0
 12 13  1  0
 13 14  2  0
 14  2  1  0
 15 14  1  0
 16  9  1  0
 16 20  1  0
 17 18  1  0
 17 16  2  0
 18 19  2  0
 19 20  1  0
 19 21  1  0
 21 23  1  0
 22 23  2  0
 23 25  1  0
 23 24  1  0
  1 26  1  0
  3 27  1  0
  5 28  1  0
  6 29  1  0
 10 30  1  0
 11 31  1  0
 12 32  1  0
 17 33  1  0
 18 34  1  0
 24 35  1  0
 25 36  1  0
M  ISO  8  26  14  27  14  28   9  29  14  30  14  31  14  32  14  33  14
M  ISO  3  34  14  35   3  36   3
M  END
>  <minimizedAffinity>  (1) 
-6.01516485

>  <minimizedRMSD>  (1) 
2.28380227

$$$$
