
     RDKit          3D

 29 30  0  0  0  0  0  0  0  0999 V2000
   46.1580   33.2670   45.1940 C   0  0  0  0  0  0  0  0  0  0  0  0
   46.2200   34.7640   43.2350 C   0  0  0  0  0  0  0  0  0  0  0  0
   46.8410   33.7690   43.9620 C   0  0  0  0  0  0  0  0  0  0  0  0
   48.0560   33.3060   43.4950 C   0  0  0  0  0  0  0  0  0  0  0  0
   48.6410   33.8030   42.3520 C   0  0  0  0  0  0  0  0  0  0  0  0
   48.0330   34.7900   41.6240 C   0  0  0  0  0  0  0  0  0  0  0  0
   46.8170   35.2630   42.0800 C   0  0  0  0  0  0  0  0  0  0  0  0
   44.6940   35.3890   43.7660 S   0  0  0  0  0  0  0  0  0  0  0  0
   43.6910   35.4640   42.6230 O   0  0  0  0  0  0  0  0  0  0  0  0
   44.8820   36.7940   44.3070 O   0  0  0  0  0  0  0  0  0  0  0  0
   46.8880   32.0330   45.6850 C   0  0  0  0  0  0  0  0  0  0  0  0
   46.2710   31.5860   46.9350 C   0  0  0  0  0  0  0  0  0  0  0  0
   45.6490   30.3490   47.0390 C   0  0  0  0  0  0  0  0  0  0  0  0
   45.0790   29.9890   48.2820 C   0  0  0  0  0  0  0  0  0  0  0  0
   45.1800   30.8920   49.3070 N   0  0  0  0  0  0  0  0  0  0  0  0
   45.8000   32.0920   49.1550 C   0  0  0  0  0  0  0  0  0  0  0  0
   46.3400   32.4220   47.9630 N   0  0  0  0  0  0  0  0  0  0  0  0
   45.1140   33.0111   44.9604 H   0  0  0  0  0  0  0  0  0  0  0  0
   46.1697   34.0442   45.9724 H   0  0  0  0  0  0  0  0  0  0  0  0
   48.5736   32.5134   44.0553 H   0  0  0  0  0  0  0  0  0  0  0  0
   49.6097   33.4017   42.0195 H   0  0  0  0  0  0  0  0  0  0  0  0
   48.4950   35.1917   40.7101 H   0  0  0  0  0  0  0  0  0  0  0  0
   46.3062   36.0562   41.5145 H   0  0  0  0  0  0  0  0  0  0  0  0
   44.2172   34.5421   44.7316 H   0  0  0  0  0  0  0  0  0  0  0  0
   46.8149   31.2356   44.9308 H   0  0  0  0  0  0  0  0  0  0  0  0
   47.9487   32.2693   45.8554 H   0  0  0  0  0  0  0  0  0  0  0  0
   45.6009   29.6671   46.1772 H   0  0  0  0  0  0  0  0  0  0  0  0
   44.5742   29.0215   48.4204 H   0  0  0  0  0  0  0  0  0  0  0  0
   45.8614   32.7922   50.0012 H   0  0  0  0  0  0  0  0  0  0  0  0
  1 11  1  0
  2  8  1  0
  2  3  2  0
  3  1  1  0
  4  3  1  0
  5  4  2  0
  6  7  2  0
  6  5  1  0
  7  2  1  0
  8 10  2  0
  9  8  2  0
 11 12  1  0
 12 13  2  0
 12 17  1  0
 13 14  1  0
 14 15  2  0
 16 15  1  0
 17 16  2  0
  1 18  1  0
  1 19  1  0
  4 20  1  0
  5 21  1  0
  6 22  1  0
  7 23  1  0
  8 24  1  0
 11 25  1  0
 11 26  1  0
 13 27  1  0
 14 28  1  0
 16 29  1  0
M  ISO  8  18   8  19   8  20  14  21  14  22  14  23  14  24  11  25   8
M  ISO  4  26   8  27  14  28  14  29  14
M  END
>  <minimizedAffinity>  (1) 
-4.94895029

>  <minimizedRMSD>  (1) 
5.64293242

$$$$
