
     RDKit          3D

 37 39  0  0  0  0  0  0  0  0999 V2000
   46.6990   32.7780   38.8850 N   0  0  0  0  0  0  0  0  0  0  0  0
   46.8310   31.6970   37.9890 C   0  0  0  0  0  0  0  0  0  0  0  0
   46.8700   32.4260   36.6390 C   0  0  0  0  0  0  0  0  0  0  0  0
   47.9160   33.4670   36.5210 C   0  0  0  0  0  0  0  0  0  0  0  0
   48.5650   33.9240   37.7640 C   0  0  0  0  0  0  0  0  0  0  0  0
   47.9110   33.5680   39.0490 C   0  0  0  0  0  0  0  0  0  0  0  0
   48.4940   34.0850   40.2630 C   0  0  0  0  0  0  0  0  0  0  0  0
   48.5270   35.3910   40.6800 C   0  0  0  0  0  0  0  0  0  0  0  0
   49.1320   35.8000   41.8320 C   0  0  0  0  0  0  0  0  0  0  0  0
   49.7250   34.8810   42.6000 N   0  0  0  0  0  0  0  0  0  0  0  0
   49.6920   33.5810   42.1870 C   0  0  0  0  0  0  0  0  0  0  0  0
   49.0920   33.1960   41.0500 N   0  0  0  0  0  0  0  0  0  0  0  0
   45.5560   33.2820   39.4200 C   0  0  0  0  0  0  0  0  0  0  0  0
   45.2800   32.6350   40.7580 C   0  0  0  0  0  0  0  0  0  0  0  0
   45.2750   33.6890   41.7800 C   0  0  0  0  0  0  0  0  0  0  0  0
   44.5170   34.8250   41.6460 C   0  0  0  0  0  0  0  0  0  0  0  0
   44.5380   35.8060   42.6440 C   0  0  0  0  0  0  0  0  0  0  0  0
   45.3370   35.5610   43.7200 N   0  0  0  0  0  0  0  0  0  0  0  0
   46.0590   34.4440   43.8150 C   0  0  0  0  0  0  0  0  0  0  0  0
   46.0190   33.5340   42.8550 N   0  0  0  0  0  0  0  0  0  0  0  0
   47.7594   31.1354   38.1700 H   0  0  0  0  0  0  0  0  0  0  0  0
   46.0326   30.9447   38.0710 H   0  0  0  0  0  0  0  0  0  0  0  0
   47.0429   31.6775   35.8517 H   0  0  0  0  0  0  0  0  0  0  0  0
   45.9057   32.9463   36.5422 H   0  0  0  0  0  0  0  0  0  0  0  0
   48.7041   33.0693   35.8648 H   0  0  0  0  0  0  0  0  0  0  0  0
   47.3879   34.3529   36.1385 H   0  0  0  0  0  0  0  0  0  0  0  0
   49.4979   34.5063   37.7402 H   0  0  0  0  0  0  0  0  0  0  0  0
   48.0389   36.1501   40.0511 H   0  0  0  0  0  0  0  0  0  0  0  0
   49.1318   36.8611   42.1220 H   0  0  0  0  0  0  0  0  0  0  0  0
   50.1773   32.8168   42.8119 H   0  0  0  0  0  0  0  0  0  0  0  0
   45.6661   34.3679   39.5567 H   0  0  0  0  0  0  0  0  0  0  0  0
   44.7173   33.0738   38.7393 H   0  0  0  0  0  0  0  0  0  0  0  0
   44.3015   32.1329   40.7350 H   0  0  0  0  0  0  0  0  0  0  0  0
   46.0521   31.8855   40.9862 H   0  0  0  0  0  0  0  0  0  0  0  0
   43.8914   34.9649   40.7521 H   0  0  0  0  0  0  0  0  0  0  0  0
   43.9409   36.7263   42.5639 H   0  0  0  0  0  0  0  0  0  0  0  0
   46.6929   34.2776   44.6984 H   0  0  0  0  0  0  0  0  0  0  0  0
  1  6  1  0
  1 13  1  0
  2  1  1  0
  3  2  1  0
  4  3  1  0
  4  5  1  0
  5  6  2  0
  6  7  1  0
  7  8  2  0
  7 12  1  0
  8  9  1  0
  9 10  2  0
 11 10  1  0
 12 11  2  0
 13 14  1  0
 14 15  1  0
 15 20  1  0
 16 15  2  0
 16 17  1  0
 17 18  2  0
 18 19  1  0
 20 19  2  0
  2 21  1  0
  2 22  1  0
  3 23  1  0
  3 24  1  0
  4 25  1  0
  4 26  1  0
  5 27  1  0
  8 28  1  0
  9 29  1  0
 11 30  1  0
 13 31  1  0
 13 32  1  0
 14 33  1  0
 14 34  1  0
 16 35  1  0
 17 36  1  0
 19 37  1  0
M  ISO  8  21  13  22  13  23  13  24  13  25  13  26  13  27  13  28  14
M  ISO  8  29  14  30  14  31   8  32   8  33   8  34   8  35  14  36  14
M  ISO  1  37  14
M  END
>  <minimizedAffinity>  (1) 
-4.44506788

>  <minimizedRMSD>  (1) 
3.73770809

$$$$
