
     RDKit          3D

 31 32  0  0  0  0  0  0  0  0999 V2000
   48.5540   33.4110   42.4590 N   0  0  0  0  0  0  0  0  0  0  0  0
   48.4480   32.0670   42.8770 C   0  0  0  0  0  0  0  0  0  0  0  0
   49.1640   31.3410   41.7250 C   0  0  0  0  0  0  0  0  0  0  0  0
   50.5570   31.7780   41.5120 C   0  0  0  0  0  0  0  0  0  0  0  0
   50.9710   33.0760   42.0940 C   0  0  0  0  0  0  0  0  0  0  0  0
   49.8880   33.9850   42.5950 C   0  0  0  0  0  0  0  0  0  0  0  0
   47.6520   34.1470   41.7770 C   0  0  0  0  0  0  0  0  0  0  0  0
   46.2550   33.6270   42.0130 C   0  0  0  0  0  0  0  0  0  0  0  0
   45.6850   34.3950   43.1400 C   0  0  0  0  0  0  0  0  0  0  0  0
   45.2560   35.7060   42.9770 C   0  0  0  0  0  0  0  0  0  0  0  0
   44.7240   36.3820   44.0800 C   0  0  0  0  0  0  0  0  0  0  0  0
   44.6610   35.7050   45.2610 N   0  0  0  0  0  0  0  0  0  0  0  0
   45.0840   34.4500   45.3730 C   0  0  0  0  0  0  0  0  0  0  0  0
   45.5870   33.8170   44.3180 N   0  0  0  0  0  0  0  0  0  0  0  0
   50.2020   35.2790   43.0870 N   0  0  0  0  0  0  0  0  0  0  0  0
   48.9584   31.9016   43.8373 H   0  0  0  0  0  0  0  0  0  0  0  0
   47.4165   31.7282   43.0536 H   0  0  0  0  0  0  0  0  0  0  0  0
   49.1698   30.2635   41.9461 H   0  0  0  0  0  0  0  0  0  0  0  0
   48.6112   31.5825   40.8051 H   0  0  0  0  0  0  0  0  0  0  0  0
   51.2123   31.0038   41.9376 H   0  0  0  0  0  0  0  0  0  0  0  0
   50.6381   31.9238   40.4247 H   0  0  0  0  0  0  0  0  0  0  0  0
   52.0313   33.3620   42.1563 H   0  0  0  0  0  0  0  0  0  0  0  0
   47.8807   34.0942   40.7023 H   0  0  0  0  0  0  0  0  0  0  0  0
   47.7067   35.1884   42.1269 H   0  0  0  0  0  0  0  0  0  0  0  0
   45.6422   33.7713   41.1110 H   0  0  0  0  0  0  0  0  0  0  0  0
   46.2734   32.5517   42.2441 H   0  0  0  0  0  0  0  0  0  0  0  0
   45.3332   36.2033   41.9989 H   0  0  0  0  0  0  0  0  0  0  0  0
   44.3701   37.4202   43.9973 H   0  0  0  0  0  0  0  0  0  0  0  0
   45.0176   33.9335   46.3419 H   0  0  0  0  0  0  0  0  0  0  0  0
   51.1840   35.5852   43.1409 H   0  0  0  0  0  0  0  0  0  0  0  0
   49.4479   35.9117   43.3901 H   0  0  0  0  0  0  0  0  0  0  0  0
  1  6  1  0
  1  2  1  0
  3  2  1  0
  4  3  1  0
  4  5  1  0
  5  6  2  0
  6 15  1  0
  7  8  1  0
  7  1  1  0
  8  9  1  0
  9 14  1  0
 10  9  2  0
 10 11  1  0
 11 12  2  0
 12 13  1  0
 14 13  2  0
  2 16  1  0
  2 17  1  0
  3 18  1  0
  3 19  1  0
  4 20  1  0
  4 21  1  0
  5 22  1  0
  7 23  1  0
  7 24  1  0
  8 25  1  0
  8 26  1  0
 10 27  1  0
 11 28  1  0
 13 29  1  0
 15 30  1  0
 15 31  1  0
M  ISO  8  16  13  17  13  18  13  19  13  20  13  21  13  22  13  23   8
M  ISO  6  24   8  25   8  26   8  27  14  28  14  29  14
M  END
>  <minimizedAffinity>  (1) 
-4.69124651

>  <minimizedRMSD>  (1) 
0.435881376

$$$$
