
     RDKit          3D

 32 33  0  0  0  0  0  0  0  0999 V2000
   47.3450   33.2690   41.6240 C   0  0  0  0  0  0  0  0  0  0  0  0
   48.3840   32.9750   42.4400 N   0  0  0  0  0  0  0  0  0  0  0  0
   48.5800   31.7990   43.2000 C   0  0  0  0  0  0  0  0  0  0  0  0
   49.4610   30.9650   42.2580 C   0  0  0  0  0  0  0  0  0  0  0  0
   50.7260   31.6200   41.8900 C   0  0  0  0  0  0  0  0  0  0  0  0
   50.8140   33.0830   42.1070 C   0  0  0  0  0  0  0  0  0  0  0  0
   49.5610   33.8300   42.3690 C   0  0  0  0  0  0  0  0  0  0  0  0
   49.5680   35.2960   42.4660 C   0  0  0  0  0  0  0  0  0  0  0  0
   46.0340   32.8980   42.2750 C   0  0  0  0  0  0  0  0  0  0  0  0
   45.5900   34.0730   43.0570 C   0  0  0  0  0  0  0  0  0  0  0  0
   45.4810   35.3310   42.4770 C   0  0  0  0  0  0  0  0  0  0  0  0
   45.0520   36.3990   43.2720 C   0  0  0  0  0  0  0  0  0  0  0  0
   44.7630   36.1450   44.5760 N   0  0  0  0  0  0  0  0  0  0  0  0
   44.8850   34.9110   45.0870 C   0  0  0  0  0  0  0  0  0  0  0  0
   45.2930   33.9050   44.3260 N   0  0  0  0  0  0  0  0  0  0  0  0
   47.4534   32.7072   40.6845 H   0  0  0  0  0  0  0  0  0  0  0  0
   47.3472   34.3507   41.4241 H   0  0  0  0  0  0  0  0  0  0  0  0
   49.0968   32.0146   44.1468 H   0  0  0  0  0  0  0  0  0  0  0  0
   47.6469   31.2991   43.4992 H   0  0  0  0  0  0  0  0  0  0  0  0
   49.6960   30.0127   42.7560 H   0  0  0  0  0  0  0  0  0  0  0  0
   48.8910   30.8253   41.3276 H   0  0  0  0  0  0  0  0  0  0  0  0
   50.8978   31.4324   40.8198 H   0  0  0  0  0  0  0  0  0  0  0  0
   51.4792   31.1855   42.5637 H   0  0  0  0  0  0  0  0  0  0  0  0
   51.7838   33.6011   42.0745 H   0  0  0  0  0  0  0  0  0  0  0  0
   49.5694   35.5934   43.5250 H   0  0  0  0  0  0  0  0  0  0  0  0
   50.4680   35.6918   41.9728 H   0  0  0  0  0  0  0  0  0  0  0  0
   48.6718   35.7004   41.9728 H   0  0  0  0  0  0  0  0  0  0  0  0
   45.2869   32.6521   41.5060 H   0  0  0  0  0  0  0  0  0  0  0  0
   46.1538   32.0178   42.9238 H   0  0  0  0  0  0  0  0  0  0  0  0
   45.7267   35.4837   41.4157 H   0  0  0  0  0  0  0  0  0  0  0  0
   44.9517   37.4121   42.8554 H   0  0  0  0  0  0  0  0  0  0  0  0
   44.6447   34.7323   46.1455 H   0  0  0  0  0  0  0  0  0  0  0  0
  1  9  1  0
  1  2  1  0
  2  3  1  0
  4  3  1  0
  5  6  1  0
  5  4  1  0
  6  7  2  0
  7  2  1  0
  7  8  1  0
  9 10  1  0
 10 15  1  0
 11 10  2  0
 11 12  1  0
 12 13  2  0
 13 14  1  0
 15 14  2  0
  1 16  1  0
  1 17  1  0
  3 18  1  0
  3 19  1  0
  4 20  1  0
  4 21  1  0
  5 22  1  0
  5 23  1  0
  6 24  1  0
  8 25  1  0
  8 26  1  0
  8 27  1  0
  9 28  1  0
  9 29  1  0
 11 30  1  0
 12 31  1  0
 14 32  1  0
M  ISO  8  16   8  17   8  18  13  19  13  20  13  21  13  22  13  23  13
M  ISO  8  24  13  25   8  26   8  27   8  28   8  29   8  30  14  31  14
M  ISO  1  32  14
M  END
>  <minimizedAffinity>  (1) 
-4.0302062

>  <minimizedRMSD>  (1) 
0.81881249

$$$$
