
     RDKit          3D

 34 35  0  0  0  0  0  0  0  0999 V2000
   44.7860   34.6570   41.0630 C   0  0  0  0  0  0  0  0  0  0  0  0
   45.9890   34.1340   41.2830 N   0  0  0  0  0  0  0  0  0  0  0  0
   46.8060   33.3970   40.3860 C   0  0  0  0  0  0  0  0  0  0  0  0
   47.8090   34.5190   40.0130 C   0  0  0  0  0  0  0  0  0  0  0  0
   48.5720   34.9980   41.1650 C   0  0  0  0  0  0  0  0  0  0  0  0
   47.9950   34.8500   42.5030 C   0  0  0  0  0  0  0  0  0  0  0  0
   46.5660   34.3920   42.6070 C   0  0  0  0  0  0  0  0  0  0  0  0
   45.7470   34.2580   44.1580 S   0  0  0  0  0  0  0  0  0  0  0  0
   44.0070   33.9220   40.0150 C   0  0  0  0  0  0  0  0  0  0  0  0
   42.5850   34.3260   40.1640 C   0  0  0  0  0  0  0  0  0  0  0  0
   42.0460   35.3220   39.3770 C   0  0  0  0  0  0  0  0  0  0  0  0
   40.6930   35.6560   39.5830 C   0  0  0  0  0  0  0  0  0  0  0  0
   39.9990   34.9740   40.5500 N   0  0  0  0  0  0  0  0  0  0  0  0
   40.5850   34.0190   41.2780 C   0  0  0  0  0  0  0  0  0  0  0  0
   41.8510   33.7150   41.0760 N   0  0  0  0  0  0  0  0  0  0  0  0
   39.4470   32.0460   41.8360 C   0  0  0  0  0  0  0  0  0  0  0  0
   39.6980   31.4130   40.7740 O   0  0  0  0  0  0  0  0  0  0  0  0
   39.8060   33.3540   42.2640 N   0  0  0  0  0  0  0  0  0  0  0  0
   44.2165   34.6325   42.0038 H   0  0  0  0  0  0  0  0  0  0  0  0
   44.9369   35.6839   40.6988 H   0  0  0  0  0  0  0  0  0  0  0  0
   47.3000   32.5466   40.8788 H   0  0  0  0  0  0  0  0  0  0  0  0
   46.2825   32.9245   39.5418 H   0  0  0  0  0  0  0  0  0  0  0  0
   48.5121   34.1278   39.2629 H   0  0  0  0  0  0  0  0  0  0  0  0
   47.2287   35.3677   39.6219 H   0  0  0  0  0  0  0  0  0  0  0  0
   49.5309   34.4590   41.1647 H   0  0  0  0  0  0  0  0  0  0  0  0
   48.6241   36.0866   41.0162 H   0  0  0  0  0  0  0  0  0  0  0  0
   48.5881   35.0670   43.4037 H   0  0  0  0  0  0  0  0  0  0  0  0
   46.6583   34.4071   45.1700 H   0  0  0  0  0  0  0  0  0  0  0  0
   44.1082   32.8365   40.1616 H   0  0  0  0  0  0  0  0  0  0  0  0
   44.3794   34.1640   39.0086 H   0  0  0  0  0  0  0  0  0  0  0  0
   42.6507   35.8370   38.6160 H   0  0  0  0  0  0  0  0  0  0  0  0
   40.2069   36.4413   38.9855 H   0  0  0  0  0  0  0  0  0  0  0  0
   38.8408   31.4848   42.5624 H   0  0  0  0  0  0  0  0  0  0  0  0
   39.5370   33.7653   43.1692 H   0  0  0  0  0  0  0  0  0  0  0  0
  1  2  1  0
  2  7  1  0
  3  2  1  0
  4  3  1  0
  4  5  1  0
  5  6  1  0
  6  7  2  0
  7  8  1  0
  9 10  1  0
  9  1  1  0
 10 15  2  0
 11 12  2  0
 11 10  1  0
 12 13  1  0
 13 14  2  0
 14 18  1  0
 15 14  1  0
 16 18  1  0
 17 16  2  0
  1 19  1  0
  1 20  1  0
  3 21  1  0
  3 22  1  0
  4 23  1  0
  4 24  1  0
  5 25  1  0
  5 26  1  0
  6 27  1  0
  8 28  1  0
  9 29  1  0
  9 30  1  0
 11 31  1  0
 12 32  1  0
 16 33  1  0
 18 34  1  0
M  ISO  8  19   8  20   8  21  13  22  13  23  13  24  13  25  13  26  13
M  ISO  7  27  13  28  11  29   8  30   8  31  14  32  14  33   6
M  END
>  <minimizedAffinity>  (1) 
-5.23600721

>  <minimizedRMSD>  (1) 
1.91257358

$$$$
