
     RDKit          3D

 37 38  0  0  0  0  0  0  0  0999 V2000
   43.6010   33.3500   40.9340 C   0  0  0  0  0  0  0  0  0  0  0  0
   42.2890   34.0460   40.9540 C   0  0  0  0  0  0  0  0  0  0  0  0
   42.2120   35.4060   40.7390 C   0  0  0  0  0  0  0  0  0  0  0  0
   40.9350   36.0030   40.7830 C   0  0  0  0  0  0  0  0  0  0  0  0
   39.8470   35.2000   41.0370 N   0  0  0  0  0  0  0  0  0  0  0  0
   40.0030   33.8780   41.2360 C   0  0  0  0  0  0  0  0  0  0  0  0
   41.2000   33.3320   41.1920 N   0  0  0  0  0  0  0  0  0  0  0  0
   38.8000   32.1570   39.3660 N   0  0  0  0  0  0  0  0  0  0  0  0
   38.5130   31.9760   40.6300 C   0  0  0  0  0  0  0  0  0  0  0  0
   38.8630   33.0670   41.4970 N   0  0  0  0  0  0  0  0  0  0  0  0
   37.8930   30.8160   41.2220 N   0  0  0  0  0  0  0  0  0  0  0  0
   38.5480   31.3690   38.7310 H   0  0  0  0  0  0  0  0  0  0  0  0
   44.6410   34.3790   40.6120 C   0  0  0  0  0  0  0  0  0  0  0  0
   45.8530   34.0600   41.0550 N   0  0  0  0  0  0  0  0  0  0  0  0
   46.7840   33.1350   40.5180 C   0  0  0  0  0  0  0  0  0  0  0  0
   47.7450   34.1430   39.8370 C   0  0  0  0  0  0  0  0  0  0  0  0
   48.3680   35.0690   40.7860 C   0  0  0  0  0  0  0  0  0  0  0  0
   47.7030   35.3280   42.0630 C   0  0  0  0  0  0  0  0  0  0  0  0
   46.3110   34.8020   42.2340 C   0  0  0  0  0  0  0  0  0  0  0  0
   45.3730   35.1240   43.6990 S   0  0  0  0  0  0  0  0  0  0  0  0
   43.8054   32.9020   41.9176 H   0  0  0  0  0  0  0  0  0  0  0  0
   43.6045   32.5428   40.1867 H   0  0  0  0  0  0  0  0  0  0  0  0
   43.1139   36.0036   40.5404 H   0  0  0  0  0  0  0  0  0  0  0  0
   40.8119   37.0836   40.6184 H   0  0  0  0  0  0  0  0  0  0  0  0
   38.2787   33.2656   42.3217 H   0  0  0  0  0  0  0  0  0  0  0  0
   37.7157   30.7880   42.2362 H   0  0  0  0  0  0  0  0  0  0  0  0
   37.6276   30.0156   40.6305 H   0  0  0  0  0  0  0  0  0  0  0  0
   44.6887   34.4967   39.5194 H   0  0  0  0  0  0  0  0  0  0  0  0
   44.3447   35.3100   41.1174 H   0  0  0  0  0  0  0  0  0  0  0  0
   47.2858   32.5496   41.3025 H   0  0  0  0  0  0  0  0  0  0  0  0
   46.3619   32.3600   39.8614 H   0  0  0  0  0  0  0  0  0  0  0  0
   48.5386   33.5795   39.3244 H   0  0  0  0  0  0  0  0  0  0  0  0
   47.1488   34.7433   39.1340 H   0  0  0  0  0  0  0  0  0  0  0  0
   49.3667   34.6702   41.0174 H   0  0  0  0  0  0  0  0  0  0  0  0
   48.3347   36.0394   40.2690 H   0  0  0  0  0  0  0  0  0  0  0  0
   48.2055   35.8871   42.8661 H   0  0  0  0  0  0  0  0  0  0  0  0
   46.1425   34.8598   44.8012 H   0  0  0  0  0  0  0  0  0  0  0  0
  1  2  1  0
  2  7  2  0
  3  4  2  0
  3  2  1  0
  4  5  1  0
  5  6  2  0
  6 10  1  0
  7  6  1  0
  8  9  2  0
  9 11  1  0
  9 10  1  0
 12  8  1  0
 13  1  1  0
 13 14  1  0
 14 19  1  0
 15 14  1  0
 16 15  1  0
 16 17  1  0
 17 18  1  0
 18 19  2  0
 19 20  1  0
  1 21  1  0
  1 22  1  0
  3 23  1  0
  4 24  1  0
 10 25  1  0
 11 26  1  0
 11 27  1  0
 13 28  1  0
 13 29  1  0
 15 30  1  0
 15 31  1  0
 16 32  1  0
 16 33  1  0
 17 34  1  0
 17 35  1  0
 18 36  1  0
 20 37  1  0
M  ISO  8  21   8  22   8  23  14  24  14  28   8  29   8  30  13  31  13
M  ISO  6  32  13  33  13  34  13  35  13  36  13  37  11
M  END
>  <minimizedAffinity>  (1) 
-5.39819098

>  <minimizedRMSD>  (1) 
2.88118482

$$$$
