
     RDKit          3D

 32 33  0  0  0  0  0  0  0  0999 V2000
   45.0760   34.2240   40.6250 C   0  0  0  0  0  0  0  0  0  0  0  0
   46.3460   34.0090   40.9510 N   0  0  0  0  0  0  0  0  0  0  0  0
   47.3550   33.3400   40.2110 C   0  0  0  0  0  0  0  0  0  0  0  0
   48.1320   34.5800   39.7030 C   0  0  0  0  0  0  0  0  0  0  0  0
   48.6850   35.4010   40.7800 C   0  0  0  0  0  0  0  0  0  0  0  0
   48.0740   35.3210   42.1040 C   0  0  0  0  0  0  0  0  0  0  0  0
   46.7790   34.5810   42.2360 C   0  0  0  0  0  0  0  0  0  0  0  0
   45.9030   34.4850   43.7700 S   0  0  0  0  0  0  0  0  0  0  0  0
   44.5810   33.2880   39.5620 C   0  0  0  0  0  0  0  0  0  0  0  0
   43.1260   33.5490   39.3960 C   0  0  0  0  0  0  0  0  0  0  0  0
   42.4030   32.9640   38.3750 C   0  0  0  0  0  0  0  0  0  0  0  0
   41.0430   33.2770   38.2830 C   0  0  0  0  0  0  0  0  0  0  0  0
   40.5000   34.1360   39.1980 N   0  0  0  0  0  0  0  0  0  0  0  0
   41.2510   34.6710   40.1640 C   0  0  0  0  0  0  0  0  0  0  0  0
   42.5430   34.3760   40.2530 N   0  0  0  0  0  0  0  0  0  0  0  0
   40.5760   35.5740   41.0870 C   0  0  0  0  0  0  0  0  0  0  0  0
   40.0730   36.6360   40.6360 O   0  0  0  0  0  0  0  0  0  0  0  0
   44.4557   34.0940   41.5241 H   0  0  0  0  0  0  0  0  0  0  0  0
   45.0059   35.2461   40.2245 H   0  0  0  0  0  0  0  0  0  0  0  0
   47.9768   32.6945   40.8487 H   0  0  0  0  0  0  0  0  0  0  0  0
   46.9969   32.6503   39.4326 H   0  0  0  0  0  0  0  0  0  0  0  0
   48.9605   34.2356   39.0667 H   0  0  0  0  0  0  0  0  0  0  0  0
   47.4167   35.2075   39.1512 H   0  0  0  0  0  0  0  0  0  0  0  0
   49.7421   35.1184   40.8931 H   0  0  0  0  0  0  0  0  0  0  0  0
   48.4902   36.4342   40.4567 H   0  0  0  0  0  0  0  0  0  0  0  0
   48.5505   35.7900   42.9775 H   0  0  0  0  0  0  0  0  0  0  0  0
   46.7902   34.5822   44.8094 H   0  0  0  0  0  0  0  0  0  0  0  0
   45.1092   33.4776   38.6159 H   0  0  0  0  0  0  0  0  0  0  0  0
   44.7621   32.2408   39.8457 H   0  0  0  0  0  0  0  0  0  0  0  0
   42.8794   32.2769   37.6602 H   0  0  0  0  0  0  0  0  0  0  0  0
   40.4208   32.8397   37.4882 H   0  0  0  0  0  0  0  0  0  0  0  0
   40.5073   35.3321   42.1579 H   0  0  0  0  0  0  0  0  0  0  0  0
  1  2  1  0
  2  7  1  0
  3  2  1  0
  4  3  1  0
  4  5  1  0
  5  6  1  0
  6  7  2  0
  7  8  1  0
  9  1  1  0
 10  9  1  0
 10 15  1  0
 11 10  2  0
 12 11  1  0
 12 13  2  0
 13 14  1  0
 14 15  2  0
 14 16  1  0
 17 16  2  0
  1 18  1  0
  1 19  1  0
  3 20  1  0
  3 21  1  0
  4 22  1  0
  4 23  1  0
  5 24  1  0
  5 25  1  0
  6 26  1  0
  8 27  1  0
  9 28  1  0
  9 29  1  0
 11 30  1  0
 12 31  1  0
 16 32  1  0
M  ISO  8  18   8  19   8  20  13  21  13  22  13  23  13  24  13  25  13
M  ISO  7  26  13  27  11  28   8  29   8  30  14  31  14  32   6
M  END
>  <minimizedAffinity>  (1) 
-4.44909334

>  <minimizedRMSD>  (1) 
1.34915364

$$$$
