
     RDKit          3D

 33 34  0  0  0  0  0  0  0  0999 V2000
   44.6370   34.3930   40.6510 C   0  0  0  0  0  0  0  0  0  0  0  0
   45.8590   34.0520   41.0480 N   0  0  0  0  0  0  0  0  0  0  0  0
   46.7790   33.1680   40.4290 C   0  0  0  0  0  0  0  0  0  0  0  0
   47.7290   34.2150   39.8030 C   0  0  0  0  0  0  0  0  0  0  0  0
   48.3630   35.0900   40.7920 C   0  0  0  0  0  0  0  0  0  0  0  0
   47.7260   35.2520   42.1010 C   0  0  0  0  0  0  0  0  0  0  0  0
   46.3430   34.7130   42.2640 C   0  0  0  0  0  0  0  0  0  0  0  0
   45.4410   34.9370   43.7690 S   0  0  0  0  0  0  0  0  0  0  0  0
   43.8280   33.2290   40.1650 C   0  0  0  0  0  0  0  0  0  0  0  0
   42.5350   33.7740   39.6740 C   0  0  0  0  0  0  0  0  0  0  0  0
   41.9260   33.2650   38.5420 C   0  0  0  0  0  0  0  0  0  0  0  0
   40.7130   33.8460   38.1360 C   0  0  0  0  0  0  0  0  0  0  0  0
   40.2080   34.8730   38.8790 N   0  0  0  0  0  0  0  0  0  0  0  0
   40.8360   35.3280   39.9650 C   0  0  0  0  0  0  0  0  0  0  0  0
   41.9810   34.7750   40.3440 N   0  0  0  0  0  0  0  0  0  0  0  0
   40.2260   36.4500   40.7230 C   0  0  0  0  0  0  0  0  0  0  0  0
   44.1102   34.8552   41.4988 H   0  0  0  0  0  0  0  0  0  0  0  0
   44.7499   35.0882   39.8061 H   0  0  0  0  0  0  0  0  0  0  0  0
   47.2938   32.5283   41.1610 H   0  0  0  0  0  0  0  0  0  0  0  0
   46.3419   32.4433   39.7264 H   0  0  0  0  0  0  0  0  0  0  0  0
   48.5181   33.6837   39.2507 H   0  0  0  0  0  0  0  0  0  0  0  0
   47.1204   34.8543   39.1465 H   0  0  0  0  0  0  0  0  0  0  0  0
   49.3744   34.6963   40.9710 H   0  0  0  0  0  0  0  0  0  0  0  0
   48.3016   36.0911   40.3402 H   0  0  0  0  0  0  0  0  0  0  0  0
   48.2462   35.7513   42.9317 H   0  0  0  0  0  0  0  0  0  0  0  0
   46.2747   34.7300   44.8362 H   0  0  0  0  0  0  0  0  0  0  0  0
   44.3566   32.7163   39.3479 H   0  0  0  0  0  0  0  0  0  0  0  0
   43.6656   32.4992   40.9719 H   0  0  0  0  0  0  0  0  0  0  0  0
   42.3756   32.4340   37.9788 H   0  0  0  0  0  0  0  0  0  0  0  0
   40.1842   33.4825   37.2425 H   0  0  0  0  0  0  0  0  0  0  0  0
   40.3282   36.2620   41.8020 H   0  0  0  0  0  0  0  0  0  0  0  0
   40.7380   37.3885   40.4642 H   0  0  0  0  0  0  0  0  0  0  0  0
   39.1599   36.5305   40.4642 H   0  0  0  0  0  0  0  0  0  0  0  0
  1  2  1  0
  2  7  1  0
  3  2  1  0
  4  3  1  0
  4  5  1  0
  5  6  1  0
  6  7  2  0
  7  8  1  0
  9  1  1  0
 10  9  1  0
 10 15  1  0
 11 10  2  0
 12 11  1  0
 12 13  2  0
 13 14  1  0
 14 15  2  0
 14 16  1  0
  1 17  1  0
  1 18  1  0
  3 19  1  0
  3 20  1  0
  4 21  1  0
  4 22  1  0
  5 23  1  0
  5 24  1  0
  6 25  1  0
  8 26  1  0
  9 27  1  0
  9 28  1  0
 11 29  1  0
 12 30  1  0
 16 31  1  0
 16 32  1  0
 16 33  1  0
M  ISO  8  17   8  18   8  19  13  20  13  21  13  22  13  23  13  24  13
M  ISO  8  25  13  26  11  27   8  28   8  29  14  30  14  31   8  32   8
M  ISO  1  33   8
M  END
>  <minimizedAffinity>  (1) 
-4.5866394

>  <minimizedRMSD>  (1) 
0.976661325

$$$$
