
     RDKit          3D

 40 42  0  0  0  0  0  0  0  0999 V2000
   44.5950   31.4210   36.8210 C   0  0  0  0  0  0  0  0  0  0  0  0
   43.1990   31.5700   37.3120 C   0  0  0  0  0  0  0  0  0  0  0  0
   42.2150   30.6600   36.9830 C   0  0  0  0  0  0  0  0  0  0  0  0
   40.9220   30.8840   37.4810 C   0  0  0  0  0  0  0  0  0  0  0  0
   40.7050   31.9820   38.2630 N   0  0  0  0  0  0  0  0  0  0  0  0
   41.6980   32.8300   38.5510 C   0  0  0  0  0  0  0  0  0  0  0  0
   42.9260   32.6180   38.0780 N   0  0  0  0  0  0  0  0  0  0  0  0
   40.1530   35.0660   37.7020 F   0  0  0  0  0  0  0  0  0  0  0  0
   40.6020   35.0460   38.9790 C   0  0  0  0  0  0  0  0  0  0  0  0
   41.3500   33.9670   39.3940 C   0  0  0  0  0  0  0  0  0  0  0  0
   41.7790   34.0000   40.6950 C   0  0  0  0  0  0  0  0  0  0  0  0
   41.4880   35.0520   41.5650 C   0  0  0  0  0  0  0  0  0  0  0  0
   40.7370   36.1140   41.1130 C   0  0  0  0  0  0  0  0  0  0  0  0
   40.2880   36.1100   39.7990 C   0  0  0  0  0  0  0  0  0  0  0  0
   45.2660   32.7480   37.0020 C   0  0  0  0  0  0  0  0  0  0  0  0
   46.5160   32.6560   37.4420 N   0  0  0  0  0  0  0  0  0  0  0  0
   47.6190   32.0040   36.8280 C   0  0  0  0  0  0  0  0  0  0  0  0
   48.3400   33.2600   36.2700 C   0  0  0  0  0  0  0  0  0  0  0  0
   48.7760   34.1760   37.3260 C   0  0  0  0  0  0  0  0  0  0  0  0
   48.0640   34.1640   38.6040 C   0  0  0  0  0  0  0  0  0  0  0  0
   46.8080   33.3550   38.6980 C   0  0  0  0  0  0  0  0  0  0  0  0
   45.8220   33.3330   40.1610 S   0  0  0  0  0  0  0  0  0  0  0  0
   44.5936   31.1402   35.7575 H   0  0  0  0  0  0  0  0  0  0  0  0
   45.1251   30.6336   37.3769 H   0  0  0  0  0  0  0  0  0  0  0  0
   42.4368   29.7874   36.3510 H   0  0  0  0  0  0  0  0  0  0  0  0
   40.1014   30.1901   37.2464 H   0  0  0  0  0  0  0  0  0  0  0  0
   42.3802   33.1590   41.0709 H   0  0  0  0  0  0  0  0  0  0  0  0
   41.8551   35.0329   42.6018 H   0  0  0  0  0  0  0  0  0  0  0  0
   40.4964   36.9528   41.7827 H   0  0  0  0  0  0  0  0  0  0  0  0
   39.6873   36.9478   39.4153 H   0  0  0  0  0  0  0  0  0  0  0  0
   45.2759   33.2678   36.0326 H   0  0  0  0  0  0  0  0  0  0  0  0
   44.6949   33.2970   37.7652 H   0  0  0  0  0  0  0  0  0  0  0  0
   48.2376   31.4593   37.5565 H   0  0  0  0  0  0  0  0  0  0  0  0
   47.3674   31.2279   36.0902 H   0  0  0  0  0  0  0  0  0  0  0  0
   49.2224   32.9350   35.6993 H   0  0  0  0  0  0  0  0  0  0  0  0
   47.6226   33.8011   35.6356 H   0  0  0  0  0  0  0  0  0  0  0  0
   49.8299   33.9451   37.5403 H   0  0  0  0  0  0  0  0  0  0  0  0
   48.5703   35.1753   36.9148 H   0  0  0  0  0  0  0  0  0  0  0  0
   48.4396   34.7314   39.4683 H   0  0  0  0  0  0  0  0  0  0  0  0
   46.6376   33.3512   41.2617 H   0  0  0  0  0  0  0  0  0  0  0  0
  1 15  1  0
  1  2  1  0
  2  7  1  0
  3  2  2  0
  3  4  1  0
  4  5  2  0
  5  6  1  0
  6 10  1  0
  7  6  2  0
  8  9  1  0
  9 10  2  0
  9 14  1  0
 10 11  1  0
 11 12  2  0
 13 12  1  0
 14 13  2  0
 15 16  1  0
 16 21  1  0
 17 16  1  0
 18 17  1  0
 18 19  1  0
 19 20  1  0
 20 21  2  0
 21 22  1  0
  1 23  1  0
  1 24  1  0
  3 25  1  0
  4 26  1  0
 11 27  1  0
 12 28  1  0
 13 29  1  0
 14 30  1  0
 15 31  1  0
 15 32  1  0
 17 33  1  0
 17 34  1  0
 18 35  1  0
 18 36  1  0
 19 37  1  0
 19 38  1  0
 20 39  1  0
 22 40  1  0
M  ISO  8  23   8  24   8  25  14  26  14  27  14  28  14  29  14  30  14
M  ISO  8  31   8  32   8  33  13  34  13  35  13  36  13  37  13  38  13
M  ISO  2  39  13  40  11
M  END
>  <minimizedAffinity>  (1) 
-4.82762861

>  <minimizedRMSD>  (1) 
4.15220261

$$$$
