
     RDKit          3D

 45 47  0  0  0  0  0  0  0  0999 V2000
   43.2810   33.4450   40.5250 C   0  0  0  0  0  0  0  0  0  0  0  0
   44.2270   34.2100   41.3540 C   0  0  0  0  0  0  0  0  0  0  0  0
   43.7870   35.2920   42.0920 C   0  0  0  0  0  0  0  0  0  0  0  0
   44.7210   35.9850   42.8490 C   0  0  0  0  0  0  0  0  0  0  0  0
   46.0190   35.5670   42.8300 N   0  0  0  0  0  0  0  0  0  0  0  0
   46.4030   34.5140   42.1030 C   0  0  0  0  0  0  0  0  0  0  0  0
   45.4940   33.8600   41.3810 N   0  0  0  0  0  0  0  0  0  0  0  0
   47.8040   34.1270   42.1700 C   0  0  0  0  0  0  0  0  0  0  0  0
   48.1670   32.7900   42.0400 C   0  0  0  0  0  0  0  0  0  0  0  0
   49.4990   32.4300   42.1230 C   0  0  0  0  0  0  0  0  0  0  0  0
   50.3730   33.4760   42.3350 C   0  0  0  0  0  0  0  0  0  0  0  0
   50.0540   34.8090   42.4690 C   0  0  0  0  0  0  0  0  0  0  0  0
   48.7240   35.0800   42.3750 N   0  0  0  0  0  0  0  0  0  0  0  0
   41.9900   33.3450   41.2590 C   0  0  0  0  0  0  0  0  0  0  0  0
   40.9870   32.8960   40.5140 N   0  0  0  0  0  0  0  0  0  0  0  0
   40.6800   31.5740   40.1160 C   0  0  0  0  0  0  0  0  0  0  0  0
   39.4840   31.3250   41.0510 C   0  0  0  0  0  0  0  0  0  0  0  0
   38.3750   32.2320   40.8180 C   0  0  0  0  0  0  0  0  0  0  0  0
   38.6220   33.5290   40.2270 C   0  0  0  0  0  0  0  0  0  0  0  0
   40.0540   33.9490   40.0570 C   0  0  0  0  0  0  0  0  0  0  0  0
   40.4800   35.5310   39.4270 S   0  0  0  0  0  0  0  0  0  0  0  0
   40.6910   35.4150   37.6300 C   0  0  0  0  0  0  0  0  0  0  0  0
   41.3550   36.6350   37.0450 C   0  0  0  0  0  0  0  0  0  0  0  0
   43.6812   32.4376   40.3377 H   0  0  0  0  0  0  0  0  0  0  0  0
   43.1295   33.9499   39.5595 H   0  0  0  0  0  0  0  0  0  0  0  0
   42.7295   35.5946   42.0799 H   0  0  0  0  0  0  0  0  0  0  0  0
   44.4204   36.8542   43.4524 H   0  0  0  0  0  0  0  0  0  0  0  0
   47.3970   32.0226   41.8719 H   0  0  0  0  0  0  0  0  0  0  0  0
   49.8367   31.3875   42.0272 H   0  0  0  0  0  0  0  0  0  0  0  0
   51.4399   33.2175   42.4045 H   0  0  0  0  0  0  0  0  0  0  0  0
   50.8109   35.5891   42.6378 H   0  0  0  0  0  0  0  0  0  0  0  0
   42.1256   32.6597   42.1087 H   0  0  0  0  0  0  0  0  0  0  0  0
   41.7224   34.3626   41.5798 H   0  0  0  0  0  0  0  0  0  0  0  0
   40.3954   31.5163   39.0550 H   0  0  0  0  0  0  0  0  0  0  0  0
   41.5040   30.8493   40.1918 H   0  0  0  0  0  0  0  0  0  0  0  0
   39.1303   30.2946   40.8988 H   0  0  0  0  0  0  0  0  0  0  0  0
   39.8337   31.4952   42.0800 H   0  0  0  0  0  0  0  0  0  0  0  0
   37.6689   31.7091   40.1562 H   0  0  0  0  0  0  0  0  0  0  0  0
   38.0254   32.4750   41.8323 H   0  0  0  0  0  0  0  0  0  0  0  0
   37.7938   34.1819   39.9144 H   0  0  0  0  0  0  0  0  0  0  0  0
   41.3101   34.5343   37.4040 H   0  0  0  0  0  0  0  0  0  0  0  0
   39.6900   35.3328   37.1814 H   0  0  0  0  0  0  0  0  0  0  0  0
   41.7090   37.2854   37.8585 H   0  0  0  0  0  0  0  0  0  0  0  0
   42.2092   36.3257   36.4248 H   0  0  0  0  0  0  0  0  0  0  0  0
   40.6315   37.1844   36.4248 H   0  0  0  0  0  0  0  0  0  0  0  0
  1 14  1  0
  1  2  1  0
  2  7  1  0
  2  3  2  0
  3  4  1  0
  5  4  2  0
  6  8  1  0
  6  5  1  0
  7  6  2  0
  8 13  2  0
  9 10  2  0
  9  8  1  0
 10 11  1  0
 11 12  2  0
 13 12  1  0
 15 14  1  0
 16 15  1  0
 16 17  1  0
 18 17  1  0
 19 18  1  0
 20 19  2  0
 20 15  1  0
 21 20  1  0
 22 21  1  0
 23 22  1  0
  1 24  1  0
  1 25  1  0
  3 26  1  0
  4 27  1  0
  9 28  1  0
 10 29  1  0
 11 30  1  0
 12 31  1  0
 14 32  1  0
 14 33  1  0
 16 34  1  0
 16 35  1  0
 17 36  1  0
 17 37  1  0
 18 38  1  0
 18 39  1  0
 19 40  1  0
 22 41  1  0
 22 42  1  0
 23 43  1  0
 23 44  1  0
 23 45  1  0
M  ISO  8  24   8  25   8  26  14  27  14  28  14  29  14  30  14  31  14
M  ISO  8  32   8  33   8  34  13  35  13  36  13  37  13  38  13  39  13
M  ISO  6  40  13  41   8  42   8  43   8  44   8  45   8
M  END
>  <minimizedAffinity>  (1) 
-5.441607

>  <minimizedRMSD>  (1) 
0.889452696

$$$$
