
     RDKit          3D

 19 20  0  0  0  0  0  0  0  0999 V2000
   45.3540   35.9870   43.1180 C   0  0  0  0  0  0  0  0  0  0  0  0
   46.0370   34.7850   42.9530 C   0  0  0  0  0  0  0  0  0  0  0  0
   46.0220   33.8790   44.0020 C   0  0  0  0  0  0  0  0  0  0  0  0
   45.3480   34.1980   45.1390 N   0  0  0  0  0  0  0  0  0  0  0  0
   44.6850   35.3830   45.2760 C   0  0  0  0  0  0  0  0  0  0  0  0
   44.6960   36.2620   44.2660 N   0  0  0  0  0  0  0  0  0  0  0  0
   46.7250   34.5130   41.7350 C   0  0  0  0  0  0  0  0  0  0  0  0
   46.0600   34.3670   40.6890 O   0  0  0  0  0  0  0  0  0  0  0  0
   48.2040   34.3930   41.6510 C   0  0  0  0  0  0  0  0  0  0  0  0
   48.8950   35.6810   41.1940 C   0  0  0  0  0  0  0  0  0  0  0  0
   49.0750   35.1400   42.5630 C   0  0  0  0  0  0  0  0  0  0  0  0
   45.3499   36.7241   42.3015 H   0  0  0  0  0  0  0  0  0  0  0  0
   46.5475   32.9165   43.9159 H   0  0  0  0  0  0  0  0  0  0  0  0
   44.1468   35.6138   46.2072 H   0  0  0  0  0  0  0  0  0  0  0  0
   48.1666   33.3305   41.3687 H   0  0  0  0  0  0  0  0  0  0  0  0
   49.7206   35.6405   40.4682 H   0  0  0  0  0  0  0  0  0  0  0  0
   48.5707   36.6388   40.7610 H   0  0  0  0  0  0  0  0  0  0  0  0
   48.6352   35.6725   43.4192 H   0  0  0  0  0  0  0  0  0  0  0  0
   49.9542   34.8726   43.1676 H   0  0  0  0  0  0  0  0  0  0  0  0
  1  6  2  0
  2  1  1  0
  2  3  2  0
  3  4  1  0
  4  5  2  0
  6  5  1  0
  7  2  1  0
  8  7  2  0
  9  7  1  0
  9 11  1  0
 10  9  1  0
 10 11  1  0
  1 12  1  0
  3 13  1  0
  5 14  1  0
  9 15  1  0
 10 16  1  0
 10 17  1  0
 11 18  1  0
 11 19  1  0
M  ISO  8  12  14  13  14  14  14  15  13  16  13  17  13  18  13  19  13
M  END
>  <minimizedAffinity>  (1) 
-4.16375923

>  <minimizedRMSD>  (1) 
1.7745676

$$$$
