
     RDKit          3D

 32 33  0  0  0  0  0  0  0  0999 V2000
   44.5440   35.8700   44.5480 C   0  0  0  0  0  0  0  0  0  0  0  0
   45.1660   35.8350   43.2720 C   0  0  0  0  0  0  0  0  0  0  0  0
   46.1180   34.8510   43.0530 C   0  0  0  0  0  0  0  0  0  0  0  0
   46.4090   33.9800   44.0480 N   0  0  0  0  0  0  0  0  0  0  0  0
   45.8110   34.0260   45.2510 C   0  0  0  0  0  0  0  0  0  0  0  0
   44.8810   34.9630   45.5070 N   0  0  0  0  0  0  0  0  0  0  0  0
   46.2150   33.0160   46.2620 C   0  0  0  0  0  0  0  0  0  0  0  0
   46.1510   31.6380   45.6280 C   0  0  0  0  0  0  0  0  0  0  0  0
   46.8980   30.6460   46.4570 C   0  0  0  0  0  0  0  0  0  0  0  0
   46.6130   30.9070   47.9060 C   0  0  0  0  0  0  0  0  0  0  0  0
   45.3050   31.6380   48.1440 C   0  0  0  0  0  0  0  0  0  0  0  0
   45.2580   32.9620   47.4440 C   0  0  0  0  0  0  0  0  0  0  0  0
   46.7280   34.8190   41.7980 O   0  0  0  0  0  0  0  0  0  0  0  0
   48.7300   33.2560   41.0930 O   0  0  0  0  0  0  0  0  0  0  0  0
   48.4280   34.6140   41.6980 P   0  0  0  0  0  0  0  0  0  0  0  0
   49.0810   35.8550   40.7920 O   0  0  0  0  0  0  0  0  0  0  0  0
   49.0380   34.6310   43.2850 O   0  0  0  0  0  0  0  0  0  0  0  0
   43.7841   36.6355   44.7638 H   0  0  0  0  0  0  0  0  0  0  0  0
   44.9029   36.5602   42.4879 H   0  0  0  0  0  0  0  0  0  0  0  0
   47.2216   33.2968   46.6053 H   0  0  0  0  0  0  0  0  0  0  0  0
   45.0996   31.3246   45.5484 H   0  0  0  0  0  0  0  0  0  0  0  0
   46.6095   31.6842   44.6292 H   0  0  0  0  0  0  0  0  0  0  0  0
   46.5739   29.6280   46.1950 H   0  0  0  0  0  0  0  0  0  0  0  0
   47.9774   30.7414   46.2676 H   0  0  0  0  0  0  0  0  0  0  0  0
   46.5731   29.9419   48.4322 H   0  0  0  0  0  0  0  0  0  0  0  0
   47.4185   31.5547   48.2824 H   0  0  0  0  0  0  0  0  0  0  0  0
   44.4783   31.0132   47.7749 H   0  0  0  0  0  0  0  0  0  0  0  0
   45.2158   31.8251   49.2243 H   0  0  0  0  0  0  0  0  0  0  0  0
   45.5318   33.7517   48.1591 H   0  0  0  0  0  0  0  0  0  0  0  0
   44.2370   33.1082   47.0616 H   0  0  0  0  0  0  0  0  0  0  0  0
   49.4459   36.5485   41.3969 H   0  0  0  0  0  0  0  0  0  0  0  0
   48.2855   34.6100   43.9280 H   0  0  0  0  0  0  0  0  0  0  0  0
  1  6  2  0
  2  1  1  0
  3  2  2  0
  3  4  1  0
  4  5  2  0
  5  6  1  0
  5  7  1  0
  7 12  1  0
  8  7  1  0
  8  9  1  0
  9 10  1  0
 10 11  1  0
 12 11  1  0
 13  3  1  0
 14 15  2  0
 15 13  1  0
 15 17  1  0
 16 15  1  0
  1 18  1  0
  2 19  1  0
  7 20  1  0
  8 21  1  0
  8 22  1  0
  9 23  1  0
  9 24  1  0
 10 25  1  0
 10 26  1  0
 11 27  1  0
 11 28  1  0
 12 29  1  0
 12 30  1  0
 16 31  1  0
 17 32  1  0
M  ISO  8  18  14  19  14  20  13  21  13  22  13  23  13  24  13  25  13
M  ISO  7  26  13  27  13  28  13  29  13  30  13  31   3  32   3
M  END
>  <minimizedAffinity>  (1) 
-5.72670221

>  <minimizedRMSD>  (1) 
0.390707552

$$$$
