
     RDKit          3D

 19 19  0  0  0  0  0  0  0  0999 V2000
   44.5600   35.9880   44.4950 C   0  0  0  0  0  0  0  0  0  0  0  0
   45.1950   35.9700   43.2270 C   0  0  0  0  0  0  0  0  0  0  0  0
   46.0950   34.9480   42.9710 C   0  0  0  0  0  0  0  0  0  0  0  0
   46.3210   34.0270   43.9320 N   0  0  0  0  0  0  0  0  0  0  0  0
   45.7180   34.0500   45.1280 C   0  0  0  0  0  0  0  0  0  0  0  0
   44.8420   35.0240   45.4140 N   0  0  0  0  0  0  0  0  0  0  0  0
   46.0110   33.0030   46.1520 C   0  0  0  0  0  0  0  0  0  0  0  0
   46.7110   34.9400   41.7220 O   0  0  0  0  0  0  0  0  0  0  0  0
   48.6530   33.3050   40.9920 O   0  0  0  0  0  0  0  0  0  0  0  0
   48.3990   34.6620   41.6310 P   0  0  0  0  0  0  0  0  0  0  0  0
   49.1080   35.9130   40.7620 O   0  0  0  0  0  0  0  0  0  0  0  0
   48.9960   34.6100   43.2280 O   0  0  0  0  0  0  0  0  0  0  0  0
   43.8383   36.7823   44.7364 H   0  0  0  0  0  0  0  0  0  0  0  0
   44.9804   36.7411   42.4724 H   0  0  0  0  0  0  0  0  0  0  0  0
   45.8913   33.4307   47.1583 H   0  0  0  0  0  0  0  0  0  0  0  0
   45.3138   32.1615   46.0259 H   0  0  0  0  0  0  0  0  0  0  0  0
   47.0437   32.6456   46.0259 H   0  0  0  0  0  0  0  0  0  0  0  0
   49.4853   36.5787   41.3902 H   0  0  0  0  0  0  0  0  0  0  0  0
   48.2409   34.6758   43.8649 H   0  0  0  0  0  0  0  0  0  0  0  0
  1  6  2  0
  2  1  1  0
  3  2  2  0
  3  4  1  0
  4  5  2  0
  5  6  1  0
  5  7  1  0
  8  3  1  0
  9 10  2  0
 10  8  1  0
 10 12  1  0
 11 10  1  0
  1 13  1  0
  2 14  1  0
  7 15  1  0
  7 16  1  0
  7 17  1  0
 11 18  1  0
 12 19  1  0
M  ISO  7  13  14  14  14  15   8  16   8  17   8  18   3  19   3
M  END
>  <minimizedAffinity>  (1) 
-4.66230392

>  <minimizedRMSD>  (1) 
0.0496937297

$$$$
