
     RDKit          3D

 34 35  0  0  1  0  0  0  0  0999 V2000
   44.4500   35.8200   44.6300 C   0  0  0  0  0  0  0  0  0  0  0  0
   44.9600   35.8930   43.3030 C   0  0  0  0  0  0  0  0  0  0  0  0
   45.9780   35.0000   42.9820 C   0  0  0  0  0  0  0  0  0  0  0  0
   46.4190   34.1340   43.9120 N   0  0  0  0  0  0  0  0  0  0  0  0
   45.9220   34.0860   45.1510 C   0  0  0  0  0  0  0  0  0  0  0  0
   44.9270   34.9390   45.5120 N   0  0  0  0  0  0  0  0  0  0  0  0
   45.3220   32.7180   47.1670 C   0  0  1  0  0  0  0  0  0  0  0  0
   46.3700   33.1750   46.2080 C   0  0  1  0  0  0  0  0  0  0  0  0
   46.7780   31.8210   45.6080 C   0  0  0  0  0  0  0  0  0  0  0  0
   46.5390   30.8680   46.5420 O   0  0  0  0  0  0  0  0  0  0  0  0
   45.9960   31.4540   47.6820 C   0  0  0  0  0  0  0  0  0  0  0  0
   44.9950   33.6300   48.1280 O   0  0  0  0  0  0  0  0  0  0  0  0
   46.4600   35.0840   41.6910 O   0  0  0  0  0  0  0  0  0  0  0  0
   47.8020   32.9550   40.8230 O   0  0  0  0  0  0  0  0  0  0  0  0
   47.9690   34.3850   41.3020 P   0  0  1  0  0  0  0  0  0  0  0  0
   48.7200   35.3400   40.1580 O   0  0  0  0  0  0  0  0  0  0  0  0
   48.8650   34.3470   42.7460 O   0  0  0  0  0  0  0  0  0  0  0  0
   50.2000   34.5860   42.5160 C   0  0  0  0  0  0  0  0  0  0  0  0
   50.9100   33.2630   42.3240 C   0  0  0  0  0  0  0  0  0  0  0  0
   43.6451   36.5047   44.9353 H   0  0  0  0  0  0  0  0  0  0  0  0
   44.5706   36.6160   42.5711 H   0  0  0  0  0  0  0  0  0  0  0  0
   44.3263   32.5594   46.7272 H   0  0  0  0  0  0  0  0  0  0  0  0
   47.1516   33.7710   46.7019 H   0  0  0  0  0  0  0  0  0  0  0  0
   46.1845   31.6174   44.7045 H   0  0  0  0  0  0  0  0  0  0  0  0
   47.8418   31.8282   45.3281 H   0  0  0  0  0  0  0  0  0  0  0  0
   46.7852   31.7006   48.4076 H   0  0  0  0  0  0  0  0  0  0  0  0
   45.2959   30.7868   48.2061 H   0  0  0  0  0  0  0  0  0  0  0  0
   45.1378   33.2318   49.0231 H   0  0  0  0  0  0  0  0  0  0  0  0
   49.2640   36.0318   40.6113 H   0  0  0  0  0  0  0  0  0  0  0  0
   50.3143   35.2009   41.6111 H   0  0  0  0  0  0  0  0  0  0  0  0
   50.6354   35.1213   43.3727 H   0  0  0  0  0  0  0  0  0  0  0  0
   51.1442   32.8266   43.3062 H   0  0  0  0  0  0  0  0  0  0  0  0
   50.2595   32.5758   41.7631 H   0  0  0  0  0  0  0  0  0  0  0  0
   51.8423   33.4252   41.7631 H   0  0  0  0  0  0  0  0  0  0  0  0
  1  6  2  0
  2  1  1  0
  3  2  2  0
  3  4  1  0
  4  5  2  0
  5  6  1  0
  5  8  1  0
  7 11  1  0
  7 12  1  0
  8  7  1  0
  9  8  1  0
  9 10  1  0
 10 11  1  0
 13  3  1  0
 15 14  2  0
 15 13  1  0
 15 17  1  0
 16 15  1  0
 18 17  1  0
 19 18  1  0
  1 20  1  0
  2 21  1  0
  7 22  1  6
  8 23  1  1
  9 24  1  0
  9 25  1  0
 11 26  1  0
 11 27  1  0
 12 28  1  0
 16 29  1  0
 18 30  1  0
 18 31  1  0
 19 32  1  0
 19 33  1  0
 19 34  1  0
M  ISO  8  20  14  21  14  22  13  23  13  24  13  25  13  26  13  27  13
M  ISO  7  28   3  29   3  30   8  31   8  32   8  33   8  34   8
M  END
>  <minimizedAffinity>  (1) 
-5.73139429

>  <minimizedRMSD>  (1) 
0.558305681

$$$$
