
     RDKit          3D

 17 17  0  0  0  0  0  0  0  0999 V2000
   46.4820   34.3990   42.9470 C   0  0  0  0  0  0  0  0  0  0  0  0
   47.3190   33.4700   43.5600 C   0  0  0  0  0  0  0  0  0  0  0  0
   47.0570   33.1330   44.8920 C   0  0  0  0  0  0  0  0  0  0  0  0
   46.0010   33.7230   45.5260 N   0  0  0  0  0  0  0  0  0  0  0  0
   45.2230   34.6120   44.8970 C   0  0  0  0  0  0  0  0  0  0  0  0
   45.4430   34.9710   43.5990 N   0  0  0  0  0  0  0  0  0  0  0  0
   46.4920   34.9170   41.6640 O   0  0  0  0  0  0  0  0  0  0  0  0
   48.3330   32.9750   42.7790 O   0  0  0  0  0  0  0  0  0  0  0  0
   50.8640   33.1130   42.0460 O   0  0  0  0  0  0  0  0  0  0  0  0
   49.6470   33.9510   42.2630 P   0  0  0  0  0  0  0  0  0  0  0  0
   49.2630   34.6990   40.7910 O   0  0  0  0  0  0  0  0  0  0  0  0
   49.9870   35.1510   43.3950 O   0  0  0  0  0  0  0  0  0  0  0  0
   47.6907   32.4052   45.4199 H   0  0  0  0  0  0  0  0  0  0  0  0
   44.3823   35.0662   45.4419 H   0  0  0  0  0  0  0  0  0  0  0  0
   45.8094   35.5808   41.3929 H   0  0  0  0  0  0  0  0  0  0  0  0
   48.8181   35.5656   40.9674 H   0  0  0  0  0  0  0  0  0  0  0  0
   49.8826   34.7826   44.3079 H   0  0  0  0  0  0  0  0  0  0  0  0
  1  2  2  0
  1  6  1  0
  2  3  1  0
  3  4  2  0
  5  4  1  0
  6  5  2  0
  7  1  1  0
  8  2  1  0
  9 10  2  0
 10  8  1  0
 10 12  1  0
 11 10  1  0
  3 13  1  0
  5 14  1  0
  7 15  1  0
 11 16  1  0
 12 17  1  0
M  ISO  5  13  14  14  14  15   3  16   3  17   3
M  END
>  <minimizedAffinity>  (1) 
-4.10990524

>  <minimizedRMSD>  (1) 
0.835551798

$$$$
