
     RDKit          3D

 17 17  0  0  0  0  0  0  0  0999 V2000
   46.1900   34.0130   42.9460 C   0  0  0  0  0  0  0  0  0  0  0  0
   47.2540   33.3140   43.5080 C   0  0  0  0  0  0  0  0  0  0  0  0
   47.2430   33.1340   44.8900 C   0  0  0  0  0  0  0  0  0  0  0  0
   46.2130   33.6410   45.6320 N   0  0  0  0  0  0  0  0  0  0  0  0
   45.2120   34.3090   45.0390 C   0  0  0  0  0  0  0  0  0  0  0  0
   45.1850   34.5060   43.6840 N   0  0  0  0  0  0  0  0  0  0  0  0
   45.7040   34.4550   41.2850 S   0  0  0  0  0  0  0  0  0  0  0  0
   48.2010   32.8830   42.6120 O   0  0  0  0  0  0  0  0  0  0  0  0
   50.7610   33.0070   41.9600 O   0  0  0  0  0  0  0  0  0  0  0  0
   49.5460   33.8530   42.1800 P   0  0  0  0  0  0  0  0  0  0  0  0
   49.2230   34.6730   40.7400 O   0  0  0  0  0  0  0  0  0  0  0  0
   49.8830   35.0170   43.3580 O   0  0  0  0  0  0  0  0  0  0  0  0
   48.0602   32.5860   45.3818 H   0  0  0  0  0  0  0  0  0  0  0  0
   44.3933   34.7080   45.6559 H   0  0  0  0  0  0  0  0  0  0  0  0
   44.6912   35.3761   41.3354 H   0  0  0  0  0  0  0  0  0  0  0  0
   48.8681   35.5740   40.9458 H   0  0  0  0  0  0  0  0  0  0  0  0
   49.7679   34.6193   44.2573 H   0  0  0  0  0  0  0  0  0  0  0  0
  1  2  2  0
  1  6  1  0
  2  3  1  0
  3  4  2  0
  5  4  1  0
  6  5  2  0
  7  1  1  0
  8  2  1  0
  9 10  2  0
 10  8  1  0
 10 12  1  0
 11 10  1  0
  3 13  1  0
  5 14  1  0
  7 15  1  0
 11 16  1  0
 12 17  1  0
M  ISO  5  13  14  14  14  15  11  16   3  17   3
M  END
>  <minimizedAffinity>  (1) 
-3.7439611

>  <minimizedRMSD>  (1) 
1.09204602

$$$$
