
     RDKit          3D

 21 22  0  0  1  0  0  0  0  0999 V2000
   46.7400   34.5590   41.8220 C   0  0  0  0  0  0  0  0  0  0  0  0
   46.0930   34.3970   40.7860 O   0  0  0  0  0  0  0  0  0  0  0  0
   45.3280   36.0170   43.1930 C   0  0  0  0  0  0  0  0  0  0  0  0
   46.0310   34.8560   43.0320 C   0  0  0  0  0  0  0  0  0  0  0  0
   46.0310   33.9260   44.0900 C   0  0  0  0  0  0  0  0  0  0  0  0
   45.3470   34.2000   45.2200 N   0  0  0  0  0  0  0  0  0  0  0  0
   44.6490   35.3780   45.3470 C   0  0  0  0  0  0  0  0  0  0  0  0
   44.6500   36.2540   44.3510 N   0  0  0  0  0  0  0  0  0  0  0  0
   48.2180   34.4240   41.7460 C   0  0  1  0  0  0  0  0  0  0  0  0
   48.9010   35.7250   41.1970 C   0  0  0  0  0  0  0  0  0  0  0  0
   49.0800   35.2100   42.5870 C   0  0  2  0  0  0  0  0  0  0  0  0
   50.4440   34.8070   42.8970 N   0  0  0  0  0  0  0  0  0  0  0  0
   45.3095   36.7629   42.3847 H   0  0  0  0  0  0  0  0  0  0  0  0
   46.5860   32.9810   43.9952 H   0  0  0  0  0  0  0  0  0  0  0  0
   44.0920   35.5930   46.2709 H   0  0  0  0  0  0  0  0  0  0  0  0
   48.1884   33.3447   41.5356 H   0  0  0  0  0  0  0  0  0  0  0  0
   49.7205   35.6625   40.4659 H   0  0  0  0  0  0  0  0  0  0  0  0
   48.5735   36.6640   40.7270 H   0  0  0  0  0  0  0  0  0  0  0  0
   48.9095   35.5847   43.6071 H   0  0  0  0  0  0  0  0  0  0  0  0
   50.5674   34.7705   43.9189 H   0  0  0  0  0  0  0  0  0  0  0  0
   50.6266   33.8761   42.4957 H   0  0  0  0  0  0  0  0  0  0  0  0
  1  4  1  0
  2  1  2  0
  3  8  2  0
  4  3  1  0
  4  5  2  0
  5  6  1  0
  6  7  2  0
  8  7  1  0
  9  1  1  0
  9 11  1  0
 10  9  1  0
 10 11  1  0
 11 12  1  0
  3 13  1  0
  5 14  1  0
  7 15  1  0
  9 16  1  6
 10 17  1  0
 10 18  1  0
 11 19  1  1
 12 20  1  0
 12 21  1  0
M  ISO  8  13  14  14  14  15  14  16  13  17  13  18  13  19  13  20   5
M  ISO  1  21   5
M  END
>  <minimizedAffinity>  (1) 
-4.98689747

>  <minimizedRMSD>  (1) 
0.102676429

$$$$
