
     RDKit          3D

 41 43  0  0  1  0  0  0  0  0999 V2000
   50.3260   34.8390   42.6950 O   0  0  0  0  0  0  0  0  0  0  0  0
   49.0970   34.6080   41.9030 P   0  0  1  0  0  0  0  0  0  0  0  0
   49.0240   35.8360   40.7240 O   0  0  0  0  0  0  0  0  0  0  0  0
   49.2060   33.1110   41.0560 O   0  0  0  0  0  0  0  0  0  0  0  0
   49.6330   31.3210   42.5310 C   0  0  0  0  0  0  0  0  0  0  0  0
   50.0460   32.1020   41.4780 C   0  0  0  0  0  0  0  0  0  0  0  0
   51.3060   31.8280   40.8890 C   0  0  0  0  0  0  0  0  0  0  0  0
   52.0250   30.8140   41.3970 N   0  0  0  0  0  0  0  0  0  0  0  0
   51.5950   30.0800   42.4150 C   0  0  0  0  0  0  0  0  0  0  0  0
   50.3880   30.3490   42.9760 N   0  0  0  0  0  0  0  0  0  0  0  0
   47.2430   30.7220   42.8960 C   0  0  0  0  0  0  0  0  0  0  0  0
   47.0320   30.4490   41.6550 O   0  0  0  0  0  0  0  0  0  0  0  0
   48.5360   31.1820   43.4210 N   0  0  0  0  0  0  0  0  0  0  0  0
   47.7120   34.6650   42.8000 O   0  0  0  0  0  0  0  0  0  0  0  0
   46.5660   35.0250   42.2180 C   0  0  2  0  0  0  0  0  0  0  0  0
   45.5850   35.7840   43.0210 C   0  0  0  0  0  0  0  0  0  0  0  0
   44.2240   35.6860   42.3810 C   0  0  0  0  0  0  0  0  0  0  0  0
   43.6890   34.4060   42.5000 O   0  0  0  0  0  0  0  0  0  0  0  0
   44.6880   33.4520   42.5210 C   0  0  0  0  0  0  0  0  0  0  0  0
   45.8200   33.8290   41.6020 C   0  0  1  0  0  0  0  0  0  0  0  0
   45.4900   33.9720   40.1760 C   0  0  0  0  0  0  0  0  0  0  0  0
   44.8340   32.9010   39.3700 C   0  0  0  0  0  0  0  0  0  0  0  0
   46.2830   33.0060   39.2350 C   0  0  0  0  0  0  0  0  0  0  0  0
   48.9715   36.7185   41.1695 H   0  0  0  0  0  0  0  0  0  0  0  0
   51.6817   32.4253   40.0451 H   0  0  0  0  0  0  0  0  0  0  0  0
   52.2134   29.2572   42.8029 H   0  0  0  0  0  0  0  0  0  0  0  0
   46.4082   30.6041   43.6026 H   0  0  0  0  0  0  0  0  0  0  0  0
   48.6449   31.4007   44.4216 H   0  0  0  0  0  0  0  0  0  0  0  0
   46.9465   35.7243   41.4590 H   0  0  0  0  0  0  0  0  0  0  0  0
   45.5424   35.3661   44.0376 H   0  0  0  0  0  0  0  0  0  0  0  0
   45.8909   36.8395   43.0693 H   0  0  0  0  0  0  0  0  0  0  0  0
   44.3132   35.9371   41.3138 H   0  0  0  0  0  0  0  0  0  0  0  0
   43.5517   36.3875   42.8966 H   0  0  0  0  0  0  0  0  0  0  0  0
   45.0742   33.3593   43.5468 H   0  0  0  0  0  0  0  0  0  0  0  0
   44.2645   32.4964   42.1784 H   0  0  0  0  0  0  0  0  0  0  0  0
   46.4991   32.9655   41.5453 H   0  0  0  0  0  0  0  0  0  0  0  0
   45.2720   35.0425   40.3045 H   0  0  0  0  0  0  0  0  0  0  0  0
   44.4027   32.0287   39.8830 H   0  0  0  0  0  0  0  0  0  0  0  0
   44.0075   32.9037   38.6441 H   0  0  0  0  0  0  0  0  0  0  0  0
   46.9355   32.2304   39.6623 H   0  0  0  0  0  0  0  0  0  0  0  0
   46.9849   33.1296   38.3971 H   0  0  0  0  0  0  0  0  0  0  0  0
  2  1  2  0
  2 14  1  0
  3  2  1  0
  4  6  1  0
  4  2  1  0
  5 10  2  0
  5 13  1  0
  6  5  1  0
  7  8  1  0
  7  6  2  0
  8  9  2  0
  9 10  1  0
 11 13  1  0
 12 11  2  0
 15 14  1  0
 15 16  1  0
 17 18  1  0
 17 16  1  0
 18 19  1  0
 20 15  1  0
 20 19  1  0
 21 20  1  0
 22 21  1  0
 23 22  1  0
 23 21  1  0
  3 24  1  0
  7 25  1  0
  9 26  1  0
 11 27  1  0
 13 28  1  0
 15 29  1  6
 16 30  1  0
 16 31  1  0
 17 32  1  0
 17 33  1  0
 19 34  1  0
 19 35  1  0
 20 36  1  6
 21 37  1  0
 22 38  1  0
 22 39  1  0
 23 40  1  0
 23 41  1  0
M  ISO  8  24   3  25  14  26  14  27   6  29  13  30  13  31  13  32  13
M  ISO  8  33  13  34  13  35  13  36  13  37  13  38  13  39  13  40  13
M  ISO  1  41  13
M  END
>  <minimizedAffinity>  (1) 
-4.37480831

>  <minimizedRMSD>  (1) 
1.06685364

$$$$
