
     RDKit          3D

 37 38  0  0  1  0  0  0  0  0999 V2000
   50.2870   34.8610   42.6530 O   0  0  0  0  0  0  0  0  0  0  0  0
   49.0880   34.5600   41.8370 P   0  0  1  0  0  0  0  0  0  0  0  0
   48.9520   35.8020   40.6790 O   0  0  0  0  0  0  0  0  0  0  0  0
   49.3150   33.0900   40.9650 O   0  0  0  0  0  0  0  0  0  0  0  0
   49.6830   31.3660   42.5330 C   0  0  0  0  0  0  0  0  0  0  0  0
   50.1270   32.0830   41.4460 C   0  0  0  0  0  0  0  0  0  0  0  0
   51.3840   31.7510   40.8820 C   0  0  0  0  0  0  0  0  0  0  0  0
   52.0720   30.7430   41.4520 N   0  0  0  0  0  0  0  0  0  0  0  0
   51.6170   30.0740   42.4960 C   0  0  0  0  0  0  0  0  0  0  0  0
   50.4120   30.3980   43.0310 N   0  0  0  0  0  0  0  0  0  0  0  0
   47.2760   30.8450   42.9020 C   0  0  0  0  0  0  0  0  0  0  0  0
   47.0700   30.5130   41.6760 O   0  0  0  0  0  0  0  0  0  0  0  0
   48.5760   31.2980   43.4170 N   0  0  0  0  0  0  0  0  0  0  0  0
   47.6900   34.5050   42.7090 O   0  0  0  0  0  0  0  0  0  0  0  0
   46.5480   34.9190   42.1560 C   0  0  2  0  0  0  0  0  0  0  0  0
   45.6360   35.7610   42.9520 C   0  0  0  0  0  0  0  0  0  0  0  0
   44.2580   35.7110   42.3210 C   0  0  0  0  0  0  0  0  0  0  0  0
   43.6520   34.4840   42.5760 O   0  0  0  0  0  0  0  0  0  0  0  0
   44.5930   33.4630   42.5560 C   0  0  0  0  0  0  0  0  0  0  0  0
   45.7150   33.7500   41.5990 C   0  0  1  0  0  0  0  0  0  0  0  0
   45.2940   33.9310   40.1890 C   0  0  0  0  0  0  0  0  0  0  0  0
   48.8566   36.6733   41.1393 H   0  0  0  0  0  0  0  0  0  0  0  0
   51.7822   32.2951   40.0129 H   0  0  0  0  0  0  0  0  0  0  0  0
   52.2122   29.2573   42.9304 H   0  0  0  0  0  0  0  0  0  0  0  0
   46.4315   30.7865   43.6044 H   0  0  0  0  0  0  0  0  0  0  0  0
   48.6817   31.5626   44.4068 H   0  0  0  0  0  0  0  0  0  0  0  0
   46.9499   35.5782   41.3725 H   0  0  0  0  0  0  0  0  0  0  0  0
   45.5856   35.3809   43.9830 H   0  0  0  0  0  0  0  0  0  0  0  0
   46.0029   36.7978   42.9724 H   0  0  0  0  0  0  0  0  0  0  0  0
   44.3519   35.8500   41.2339 H   0  0  0  0  0  0  0  0  0  0  0  0
   43.6387   36.5114   42.7522 H   0  0  0  0  0  0  0  0  0  0  0  0
   45.0101   33.3447   43.5670 H   0  0  0  0  0  0  0  0  0  0  0  0
   44.0894   32.5435   42.2230 H   0  0  0  0  0  0  0  0  0  0  0  0
   46.3505   32.8543   41.5371 H   0  0  0  0  0  0  0  0  0  0  0  0
   44.2838   34.3653   40.1608 H   0  0  0  0  0  0  0  0  0  0  0  0
   45.9977   34.6061   39.6800 H   0  0  0  0  0  0  0  0  0  0  0  0
   45.2882   32.9559   39.6800 H   0  0  0  0  0  0  0  0  0  0  0  0
  2  1  2  0
  2 14  1  0
  3  2  1  0
  4  6  1  0
  4  2  1  0
  5 10  2  0
  5 13  1  0
  6  5  1  0
  7  6  2  0
  7  8  1  0
  8  9  2  0
  9 10  1  0
 11 13  1  0
 12 11  2  0
 15 14  1  0
 15 16  1  0
 17 18  1  0
 17 16  1  0
 19 18  1  0
 20 15  1  0
 20 19  1  0
 21 20  1  0
  3 22  1  0
  7 23  1  0
  9 24  1  0
 11 25  1  0
 13 26  1  0
 15 27  1  6
 16 28  1  0
 16 29  1  0
 17 30  1  0
 17 31  1  0
 19 32  1  0
 19 33  1  0
 20 34  1  6
 21 35  1  0
 21 36  1  0
 21 37  1  0
M  ISO  8  22   3  23  14  24  14  25   6  27  13  28  13  29  13  30  13
M  ISO  7  31  13  32  13  33  13  34  13  35   8  36   8  37   8
M  END
>  <minimizedAffinity>  (1) 
-4.24746323

>  <minimizedRMSD>  (1) 
0.401147366

$$$$
