
     RDKit          3D

 20 21  0  0  1  0  0  0  0  0999 V2000
   46.8260   34.5980   41.8540 C   0  0  0  0  0  0  0  0  0  0  0  0
   46.2100   34.4220   40.8010 O   0  0  0  0  0  0  0  0  0  0  0  0
   45.3410   36.0050   43.2040 C   0  0  0  0  0  0  0  0  0  0  0  0
   46.0860   34.8680   43.0550 C   0  0  0  0  0  0  0  0  0  0  0  0
   46.1140   33.9310   44.1090 C   0  0  0  0  0  0  0  0  0  0  0  0
   45.4000   34.1880   45.2370 N   0  0  0  0  0  0  0  0  0  0  0  0
   44.6700   35.3280   45.3540 C   0  0  0  0  0  0  0  0  0  0  0  0
   44.6480   36.2040   44.3590 N   0  0  0  0  0  0  0  0  0  0  0  0
   48.3120   34.5040   41.8030 C   0  0  1  0  0  0  0  0  0  0  0  0
   48.9720   35.8010   41.2210 C   0  0  0  0  0  0  0  0  0  0  0  0
   49.1420   35.3310   42.6280 C   0  0  2  0  0  0  0  0  0  0  0  0
   50.4370   34.9100   43.0040 O   0  0  0  0  0  0  0  0  0  0  0  0
   45.3019   36.7523   42.3978 H   0  0  0  0  0  0  0  0  0  0  0  0
   46.7042   33.0070   44.0197 H   0  0  0  0  0  0  0  0  0  0  0  0
   44.0980   35.5239   46.2730 H   0  0  0  0  0  0  0  0  0  0  0  0
   48.3099   33.4183   41.6265 H   0  0  0  0  0  0  0  0  0  0  0  0
   49.8025   35.7344   40.5027 H   0  0  0  0  0  0  0  0  0  0  0  0
   48.6308   36.7176   40.7175 H   0  0  0  0  0  0  0  0  0  0  0  0
   48.9650   35.7746   43.6189 H   0  0  0  0  0  0  0  0  0  0  0  0
   50.5032   34.8885   43.9915 H   0  0  0  0  0  0  0  0  0  0  0  0
  1  4  1  0
  2  1  2  0
  3  8  2  0
  4  3  1  0
  4  5  2  0
  5  6  1  0
  6  7  2  0
  8  7  1  0
  9  1  1  0
  9 11  1  0
 10  9  1  0
 10 11  1  0
 11 12  1  0
  3 13  1  0
  5 14  1  0
  7 15  1  0
  9 16  1  6
 10 17  1  0
 10 18  1  0
 11 19  1  1
 12 20  1  0
M  ISO  8  13  14  14  14  15  14  16  13  17  13  18  13  19  13  20   3
M  END
>  <minimizedAffinity>  (1) 
-4.94273663

>  <minimizedRMSD>  (1) 
0.190208331

$$$$
