
     RDKit          3D

 41 44  0  0  1  0  0  0  0  0999 V2000
   44.1670   35.3750   43.0820 C   0  0  0  0  0  0  0  0  0  0  0  0
   45.0220   34.2870   42.7860 C   0  0  0  0  0  0  0  0  0  0  0  0
   45.7160   33.7000   43.8190 C   0  0  0  0  0  0  0  0  0  0  0  0
   45.5660   34.1720   45.0810 N   0  0  0  0  0  0  0  0  0  0  0  0
   44.7340   35.2240   45.3530 C   0  0  0  0  0  0  0  0  0  0  0  0
   44.0660   35.7920   44.3630 N   0  0  0  0  0  0  0  0  0  0  0  0
   46.5980   32.5800   43.5200 C   0  0  0  0  0  0  0  0  0  0  0  0
   46.1600   31.2900   43.6960 C   0  0  0  0  0  0  0  0  0  0  0  0
   47.0210   30.2550   43.4030 C   0  0  0  0  0  0  0  0  0  0  0  0
   48.3120   30.4460   42.9370 C   0  0  0  0  0  0  0  0  0  0  0  0
   48.6860   31.7600   42.7830 C   0  0  0  0  0  0  0  0  0  0  0  0
   47.8370   32.7700   43.0720 N   0  0  0  0  0  0  0  0  0  0  0  0
   45.1380   33.8350   41.4310 C   0  0  0  0  0  0  0  0  0  0  0  0
   46.0450   34.3600   40.7220 O   0  0  0  0  0  0  0  0  0  0  0  0
   40.5100   34.3840   39.8570 C   0  0  0  0  0  0  0  0  0  0  0  0
   40.8220   33.2490   40.4330 C   0  0  0  0  0  0  0  0  0  0  0  0
   42.1740   32.9240   40.7300 N   0  0  0  0  0  0  0  0  0  0  0  0
   43.1460   32.3140   41.5700 C   0  0  0  0  0  0  0  0  0  0  0  0
   43.1150   31.5940   42.6160 O   0  0  0  0  0  0  0  0  0  0  0  0
   44.2850   32.8070   40.7980 C   0  0  1  0  0  0  0  0  0  0  0  0
   43.2740   33.3390   39.8450 C   0  0  2  0  0  0  0  0  0  0  0  0
   43.1660   35.1110   39.6800 S   0  0  0  0  0  0  0  0  0  0  0  0
   41.4280   35.4430   39.4460 C   0  0  0  0  0  0  0  0  0  0  0  0
   39.0860   34.6110   39.5970 C   0  0  0  0  0  0  0  0  0  0  0  0
   39.8010   32.2720   40.7950 C   0  0  0  0  0  0  0  0  0  0  0  0
   39.4240   31.2630   40.1500 O   0  0  0  0  0  0  0  0  0  0  0  0
   39.0680   32.3300   41.9700 O   0  0  0  0  0  0  0  0  0  0  0  0
   43.5954   35.8718   42.2842 H   0  0  0  0  0  0  0  0  0  0  0  0
   44.6222   35.5929   46.3833 H   0  0  0  0  0  0  0  0  0  0  0  0
   45.1431   31.0875   44.0632 H   0  0  0  0  0  0  0  0  0  0  0  0
   46.6653   29.2240   43.5464 H   0  0  0  0  0  0  0  0  0  0  0  0
   48.9873   29.6086   42.7074 H   0  0  0  0  0  0  0  0  0  0  0  0
   49.6968   31.9934   42.4171 H   0  0  0  0  0  0  0  0  0  0  0  0
   45.1078   32.1391   40.5033 H   0  0  0  0  0  0  0  0  0  0  0  0
   43.3909   33.0169   38.7997 H   0  0  0  0  0  0  0  0  0  0  0  0
   41.1781   36.3464   40.0216 H   0  0  0  0  0  0  0  0  0  0  0  0
   41.2910   35.5473   38.3596 H   0  0  0  0  0  0  0  0  0  0  0  0
   38.5479   34.6968   40.5526 H   0  0  0  0  0  0  0  0  0  0  0  0
   38.9619   35.5403   39.0216 H   0  0  0  0  0  0  0  0  0  0  0  0
   38.6791   33.7664   39.0216 H   0  0  0  0  0  0  0  0  0  0  0  0
   38.3868   31.6380   42.1632 H   0  0  0  0  0  0  0  0  0  0  0  0
  1  6  2  0
  2  1  1  0
  2  3  2  0
  3  4  1  0
  4  5  2  0
  6  5  1  0
  7  8  2  0
  7  3  1  0
  9  8  1  0
 10  9  2  0
 11 10  1  0
 11 12  2  0
 12  7  1  0
 13  2  1  0
 14 13  2  0
 15 16  2  0
 16 17  1  0
 16 25  1  0
 17 18  1  0
 18 19  2  0
 20 13  1  0
 20 18  1  0
 21 22  1  0
 21 17  1  0
 21 20  1  0
 23 22  1  0
 23 15  1  0
 24 15  1  0
 25 27  1  0
 26 25  2  0
  1 28  1  0
  5 29  1  0
  8 30  1  0
  9 31  1  0
 10 32  1  0
 11 33  1  0
 20 34  1  6
 21 35  1  6
 23 36  1  0
 23 37  1  0
 24 38  1  0
 24 39  1  0
 24 40  1  0
 27 41  1  0
M  ISO  8  28  14  29  14  30  14  31  14  32  14  33  14  34  13  35  13
M  ISO  6  36  13  37  13  38   8  39   8  40   8  41   3
M  END
>  <minimizedAffinity>  (1) 
-5.2793541

>  <minimizedRMSD>  (1) 
3.4167583

$$$$
