
     RDKit          3D

 21 22  0  0  0  0  0  0  0  0999 V2000
   45.2690   36.1630   43.1760 C   0  0  0  0  0  0  0  0  0  0  0  0
   45.8700   34.9180   42.9060 C   0  0  0  0  0  0  0  0  0  0  0  0
   45.8270   33.9510   43.8970 C   0  0  0  0  0  0  0  0  0  0  0  0
   45.2240   34.2240   45.0710 N   0  0  0  0  0  0  0  0  0  0  0  0
   44.6460   35.4410   45.3170 C   0  0  0  0  0  0  0  0  0  0  0  0
   44.6840   36.3730   44.3660 N   0  0  0  0  0  0  0  0  0  0  0  0
   46.4460   32.6530   43.6300 C   0  0  0  0  0  0  0  0  0  0  0  0
   45.6490   31.5750   43.2900 C   0  0  0  0  0  0  0  0  0  0  0  0
   46.2810   30.3700   43.0480 C   0  0  0  0  0  0  0  0  0  0  0  0
   47.6600   30.1810   43.1230 C   0  0  0  0  0  0  0  0  0  0  0  0
   48.3830   31.3080   43.4690 C   0  0  0  0  0  0  0  0  0  0  0  0
   47.7750   32.4880   43.7060 N   0  0  0  0  0  0  0  0  0  0  0  0
   46.4950   34.6800   41.6440 C   0  0  0  0  0  0  0  0  0  0  0  0
   47.6610   35.1330   41.4660 O   0  0  0  0  0  0  0  0  0  0  0  0
   45.2789   36.9585   42.4163 H   0  0  0  0  0  0  0  0  0  0  0  0
   44.1593   35.6451   46.2821 H   0  0  0  0  0  0  0  0  0  0  0  0
   44.5559   31.6728   43.2152 H   0  0  0  0  0  0  0  0  0  0  0  0
   45.6563   29.5054   42.7792 H   0  0  0  0  0  0  0  0  0  0  0  0
   48.1365   29.2101   42.9224 H   0  0  0  0  0  0  0  0  0  0  0  0
   49.4777   31.2403   43.5527 H   0  0  0  0  0  0  0  0  0  0  0  0
   45.9773   34.1197   40.8515 H   0  0  0  0  0  0  0  0  0  0  0  0
  1  6  2  0
  2  1  1  0
  2  3  2  0
  3  4  1  0
  4  5  2  0
  6  5  1  0
  7 12  1  0
  7  3  1  0
  8  7  2  0
  9 10  2  0
  9  8  1  0
 10 11  1  0
 11 12  2  0
 13  2  1  0
 14 13  2  0
  1 15  1  0
  5 16  1  0
  8 17  1  0
  9 18  1  0
 10 19  1  0
 11 20  1  0
 13 21  1  0
M  ISO  7  15  14  16  14  17  14  18  14  19  14  20  14  21   6
M  END
>  <minimizedAffinity>  (1) 
-3.56479883

>  <minimizedRMSD>  (1) 
1.00906289

$$$$
