
     RDKit          3D

 26 28  0  0  1  0  0  0  0  0999 V2000
   47.3280   34.3730   41.0630 C   0  0  1  0  0  0  0  0  0  0  0  0
   48.2660   35.4990   41.6050 C   0  0  0  0  0  0  0  0  0  0  0  0
   48.3610   34.0760   42.0200 C   0  0  2  0  0  0  0  0  0  0  0  0
   49.5040   33.2690   41.7050 C   0  0  0  0  0  0  0  0  0  0  0  0
   50.8270   32.9540   42.1160 C   0  0  0  0  0  0  0  0  0  0  0  0
   51.5480   32.0420   41.4090 C   0  0  0  0  0  0  0  0  0  0  0  0
   51.0020   31.3820   40.2490 C   0  0  0  0  0  0  0  0  0  0  0  0
   49.2740   32.1700   40.1860 S   0  0  0  0  0  0  0  0  0  0  0  0
   45.9120   34.5420   41.4950 C   0  0  0  0  0  0  0  0  0  0  0  0
   45.0440   34.4420   40.6270 O   0  0  0  0  0  0  0  0  0  0  0  0
   45.0540   36.0200   43.2450 C   0  0  0  0  0  0  0  0  0  0  0  0
   45.5180   34.7980   42.8490 C   0  0  0  0  0  0  0  0  0  0  0  0
   45.5970   33.7650   43.8030 C   0  0  0  0  0  0  0  0  0  0  0  0
   45.2110   34.0160   45.0840 N   0  0  0  0  0  0  0  0  0  0  0  0
   44.7550   35.2400   45.4470 C   0  0  0  0  0  0  0  0  0  0  0  0
   44.6850   36.2030   44.5420 N   0  0  0  0  0  0  0  0  0  0  0  0
   47.0567   33.9100   40.1028 H   0  0  0  0  0  0  0  0  0  0  0  0
   49.0354   35.9464   40.9585 H   0  0  0  0  0  0  0  0  0  0  0  0
   48.1414   36.4706   42.1055 H   0  0  0  0  0  0  0  0  0  0  0  0
   48.3482   33.5709   42.9971 H   0  0  0  0  0  0  0  0  0  0  0  0
   51.2649   33.4434   42.9985 H   0  0  0  0  0  0  0  0  0  0  0  0
   52.5724   31.8023   41.7302 H   0  0  0  0  0  0  0  0  0  0  0  0
   51.4582   30.6321   39.5860 H   0  0  0  0  0  0  0  0  0  0  0  0
   44.9794   36.8470   42.5236 H   0  0  0  0  0  0  0  0  0  0  0  0
   45.9656   32.7689   43.5169 H   0  0  0  0  0  0  0  0  0  0  0  0
   44.4457   35.4311   46.4852 H   0  0  0  0  0  0  0  0  0  0  0  0
  1  9  1  0
  1  2  1  0
  1  3  1  0
  2  3  1  0
  4  3  1  0
  4  5  2  0
  6  5  1  0
  7  6  2  0
  8  7  1  0
  8  4  1  0
  9 12  1  0
 10  9  2  0
 11 16  2  0
 12 11  1  0
 12 13  2  0
 13 14  1  0
 14 15  2  0
 16 15  1  0
  1 17  1  6
  2 18  1  0
  2 19  1  0
  3 20  1  1
  5 21  1  0
  6 22  1  0
  7 23  1  0
 11 24  1  0
 13 25  1  0
 15 26  1  0
M  ISO  8  17  13  18  13  19  13  20  13  21  14  22  14  23  14  24  14
M  ISO  2  25  14  26  14
M  END
>  <minimizedAffinity>  (1) 
-4.832901

>  <minimizedRMSD>  (1) 
1.75573599

$$$$
