
     RDKit          3D

 28 30  0  0  0  0  0  0  0  0999 V2000
   45.3540   36.1840   43.1500 C   0  0  0  0  0  0  0  0  0  0  0  0
   45.9700   34.9270   42.9320 C   0  0  0  0  0  0  0  0  0  0  0  0
   45.8680   33.9840   43.9290 C   0  0  0  0  0  0  0  0  0  0  0  0
   45.1990   34.2740   45.0610 N   0  0  0  0  0  0  0  0  0  0  0  0
   44.6100   35.4940   45.2560 C   0  0  0  0  0  0  0  0  0  0  0  0
   44.7060   36.4110   44.2930 N   0  0  0  0  0  0  0  0  0  0  0  0
   46.4970   32.6870   43.7170 C   0  0  0  0  0  0  0  0  0  0  0  0
   45.7170   31.5610   43.5330 C   0  0  0  0  0  0  0  0  0  0  0  0
   46.3410   30.3510   43.3360 C   0  0  0  0  0  0  0  0  0  0  0  0
   47.7290   30.2010   43.3120 C   0  0  0  0  0  0  0  0  0  0  0  0
   48.4530   31.3580   43.5020 C   0  0  0  0  0  0  0  0  0  0  0  0
   47.8350   32.5440   43.6960 N   0  0  0  0  0  0  0  0  0  0  0  0
   46.6650   34.6840   41.7060 C   0  0  0  0  0  0  0  0  0  0  0  0
   47.8440   35.1290   41.6030 O   0  0  0  0  0  0  0  0  0  0  0  0
   46.0680   33.9430   40.5680 C   0  0  0  0  0  0  0  0  0  0  0  0
   46.9120   33.7150   39.3450 C   0  0  0  0  0  0  0  0  0  0  0  0
   46.6230   32.5690   40.2120 C   0  0  0  0  0  0  0  0  0  0  0  0
   45.4100   36.9683   42.3807 H   0  0  0  0  0  0  0  0  0  0  0  0
   44.0686   35.7134   46.1881 H   0  0  0  0  0  0  0  0  0  0  0  0
   44.6193   31.6310   43.5439 H   0  0  0  0  0  0  0  0  0  0  0  0
   45.7158   29.4577   43.1902 H   0  0  0  0  0  0  0  0  0  0  0  0
   48.2117   29.2256   43.1523 H   0  0  0  0  0  0  0  0  0  0  0  0
   49.5522   31.3155   43.4956 H   0  0  0  0  0  0  0  0  0  0  0  0
   45.0714   34.3585   40.7781 H   0  0  0  0  0  0  0  0  0  0  0  0
   47.9326   34.1232   39.3032 H   0  0  0  0  0  0  0  0  0  0  0  0
   46.7792   33.9183   38.2721 H   0  0  0  0  0  0  0  0  0  0  0  0
   45.9444   31.7757   39.8654 H   0  0  0  0  0  0  0  0  0  0  0  0
   47.2338   31.8193   40.7363 H   0  0  0  0  0  0  0  0  0  0  0  0
  1  6  2  0
  2  1  1  0
  2  3  2  0
  3  4  1  0
  4  5  2  0
  6  5  1  0
  7  3  1  0
  8  7  2  0
  9  8  1  0
 10  9  2  0
 10 11  1  0
 11 12  2  0
 12  7  1  0
 13  2  1  0
 14 13  2  0
 15 13  1  0
 16 17  1  0
 16 15  1  0
 17 15  1  0
  1 18  1  0
  5 19  1  0
  8 20  1  0
  9 21  1  0
 10 22  1  0
 11 23  1  0
 15 24  1  0
 16 25  1  0
 16 26  1  0
 17 27  1  0
 17 28  1  0
M  ISO  8  18  14  19  14  20  14  21  14  22  14  23  14  24  13  25  13
M  ISO  3  26  13  27  13  28  13
M  END
>  <minimizedAffinity>  (1) 
-3.97796631

>  <minimizedRMSD>  (1) 
0.43628335

$$$$
