
     RDKit          3D

 25 26  0  0  1  0  0  0  0  0999 V2000
   46.5480   34.4770   41.6630 C   0  0  0  0  0  0  0  0  0  0  0  0
   45.8450   34.3280   40.6550 O   0  0  0  0  0  0  0  0  0  0  0  0
   45.2840   35.9840   43.1080 C   0  0  0  0  0  0  0  0  0  0  0  0
   45.9280   34.7960   42.9030 C   0  0  0  0  0  0  0  0  0  0  0  0
   45.9520   33.8660   43.9570 C   0  0  0  0  0  0  0  0  0  0  0  0
   45.3480   34.1630   45.1250 N   0  0  0  0  0  0  0  0  0  0  0  0
   44.7100   35.3600   45.3050 C   0  0  0  0  0  0  0  0  0  0  0  0
   44.6900   36.2330   44.3070 N   0  0  0  0  0  0  0  0  0  0  0  0
   48.0200   34.2940   41.4810 C   0  0  1  0  0  0  0  0  0  0  0  0
   48.7090   35.5630   40.8790 C   0  0  0  0  0  0  0  0  0  0  0  0
   48.9580   35.0660   42.2600 C   0  0  2  0  0  0  0  0  0  0  0  0
   50.3080   34.4920   42.6310 C   0  0  0  0  0  0  0  0  0  0  0  0
   50.3930   33.0620   42.0930 C   0  0  0  0  0  0  0  0  0  0  0  0
   45.2459   36.7365   42.3065 H   0  0  0  0  0  0  0  0  0  0  0  0
   46.4617   32.8996   43.8291 H   0  0  0  0  0  0  0  0  0  0  0  0
   44.2215   35.5944   46.2623 H   0  0  0  0  0  0  0  0  0  0  0  0
   47.9426   33.2157   41.2778 H   0  0  0  0  0  0  0  0  0  0  0  0
   49.4807   35.4652   40.1012 H   0  0  0  0  0  0  0  0  0  0  0  0
   48.3817   36.5058   40.4164 H   0  0  0  0  0  0  0  0  0  0  0  0
   48.8972   35.5371   43.2521 H   0  0  0  0  0  0  0  0  0  0  0  0
   51.1063   35.1039   42.1857 H   0  0  0  0  0  0  0  0  0  0  0  0
   50.4291   34.4908   43.7243 H   0  0  0  0  0  0  0  0  0  0  0  0
   50.4350   32.3554   42.9350 H   0  0  0  0  0  0  0  0  0  0  0  0
   49.5060   32.8480   41.4786 H   0  0  0  0  0  0  0  0  0  0  0  0
   51.2991   32.9546   41.4786 H   0  0  0  0  0  0  0  0  0  0  0  0
  1  4  1  0
  2  1  2  0
  3  8  2  0
  4  3  1  0
  4  5  2  0
  5  6  1  0
  6  7  2  0
  8  7  1  0
  9  1  1  0
  9 11  1  0
 10  9  1  0
 10 11  1  0
 11 12  1  0
 13 12  1  0
  3 14  1  0
  5 15  1  0
  7 16  1  0
  9 17  1  6
 10 18  1  0
 10 19  1  0
 11 20  1  1
 12 21  1  0
 12 22  1  0
 13 23  1  0
 13 24  1  0
 13 25  1  0
M  ISO  8  14  14  15  14  16  14  17  13  18  13  19  13  20  13  21   8
M  ISO  4  22   8  23   8  24   8  25   8
M  END
>  <minimizedAffinity>  (1) 
-4.71769857

>  <minimizedRMSD>  (1) 
0.814546645

$$$$
