
     RDKit          3D

 49 52  0  0  1  0  0  0  0  0999 V2000
   47.1650   33.7030   42.9320 C   0  0  0  0  0  0  0  0  0  0  0  0
   48.2870   33.5210   43.4710 O   0  0  0  0  0  0  0  0  0  0  0  0
   46.7880   33.1780   41.6450 N   0  0  0  0  0  0  0  0  0  0  0  0
   45.5600   32.5210   41.2380 C   0  0  0  0  0  0  0  0  0  0  0  0
   45.0110   33.2080   39.9750 C   0  0  0  0  0  0  0  0  0  0  0  0
   45.9960   33.0390   38.8400 C   0  0  0  0  0  0  0  0  0  0  0  0
   47.2900   32.5170   39.3990 C   0  0  0  0  0  0  0  0  0  0  0  0
   47.7480   33.3280   40.5900 C   0  0  2  0  0  0  0  0  0  0  0  0
   45.7820   35.7210   43.0940 C   0  0  0  0  0  0  0  0  0  0  0  0
   46.1970   34.4900   43.6610 C   0  0  0  0  0  0  0  0  0  0  0  0
   45.6770   34.0930   44.8670 C   0  0  0  0  0  0  0  0  0  0  0  0
   44.7800   34.8930   45.4800 N   0  0  0  0  0  0  0  0  0  0  0  0
   44.3700   36.0730   44.9540 C   0  0  0  0  0  0  0  0  0  0  0  0
   44.8810   36.4650   43.7680 N   0  0  0  0  0  0  0  0  0  0  0  0
   46.1150   32.8340   45.4340 C   0  0  0  0  0  0  0  0  0  0  0  0
   45.7390   31.6550   44.8620 C   0  0  0  0  0  0  0  0  0  0  0  0
   46.1610   30.4680   45.4120 C   0  0  0  0  0  0  0  0  0  0  0  0
   46.9590   30.4040   46.5310 C   0  0  0  0  0  0  0  0  0  0  0  0
   47.3130   31.6210   47.0730 C   0  0  0  0  0  0  0  0  0  0  0  0
   46.8850   32.7610   46.5140 N   0  0  0  0  0  0  0  0  0  0  0  0
   49.1670   33.0480   40.9260 C   0  0  0  0  0  0  0  0  0  0  0  0
   49.8240   33.8810   41.9510 C   0  0  0  0  0  0  0  0  0  0  0  0
   51.0890   33.0590   42.2490 C   0  0  0  0  0  0  0  0  0  0  0  0
   50.8200   31.6620   41.7000 C   0  0  0  0  0  0  0  0  0  0  0  0
   49.2830   31.6920   41.5990 C   0  0  0  0  0  0  0  0  0  0  0  0
   45.7641   31.4621   41.0212 H   0  0  0  0  0  0  0  0  0  0  0  0
   44.8186   32.5907   42.0476 H   0  0  0  0  0  0  0  0  0  0  0  0
   44.0498   32.7507   39.6974 H   0  0  0  0  0  0  0  0  0  0  0  0
   44.8633   34.2794   40.1755 H   0  0  0  0  0  0  0  0  0  0  0  0
   46.1684   34.0095   38.3518 H   0  0  0  0  0  0  0  0  0  0  0  0
   45.5957   32.3321   38.0983 H   0  0  0  0  0  0  0  0  0  0  0  0
   47.1482   31.4720   39.7117 H   0  0  0  0  0  0  0  0  0  0  0  0
   48.0586   32.5913   38.6156 H   0  0  0  0  0  0  0  0  0  0  0  0
   47.7696   34.4043   40.3641 H   0  0  0  0  0  0  0  0  0  0  0  0
   46.1846   36.0611   42.1285 H   0  0  0  0  0  0  0  0  0  0  0  0
   43.6358   36.6984   45.4830 H   0  0  0  0  0  0  0  0  0  0  0  0
   45.1016   31.6536   43.9655 H   0  0  0  0  0  0  0  0  0  0  0  0
   45.8467   29.5273   44.9363 H   0  0  0  0  0  0  0  0  0  0  0  0
   47.2913   29.4485   46.9629 H   0  0  0  0  0  0  0  0  0  0  0  0
   47.9501   31.6564   47.9690 H   0  0  0  0  0  0  0  0  0  0  0  0
   49.6352   33.1989   39.9421 H   0  0  0  0  0  0  0  0  0  0  0  0
   50.0754   34.8774   41.5585 H   0  0  0  0  0  0  0  0  0  0  0  0
   49.2000   34.0802   42.8347 H   0  0  0  0  0  0  0  0  0  0  0  0
   51.9614   33.5049   41.7490 H   0  0  0  0  0  0  0  0  0  0  0  0
   51.3090   33.0335   43.3265 H   0  0  0  0  0  0  0  0  0  0  0  0
   51.2890   31.5150   40.7159 H   0  0  0  0  0  0  0  0  0  0  0  0
   51.2235   30.8427   42.3132 H   0  0  0  0  0  0  0  0  0  0  0  0
   48.7961   31.6688   42.5851 H   0  0  0  0  0  0  0  0  0  0  0  0
   48.8073   30.8447   41.0834 H   0  0  0  0  0  0  0  0  0  0  0  0
  1  2  2  0
  1 10  1  0
  3  1  1  0
  4  3  1  0
  5  4  1  0
  6  7  1  0
  6  5  1  0
  7  8  1  0
  8 21  1  0
  8  3  1  0
  9 10  2  0
  9 14  1  0
 10 11  1  0
 11 15  1  0
 11 12  2  0
 13 12  1  0
 14 13  2  0
 15 20  2  0
 16 17  2  0
 16 15  1  0
 17 18  1  0
 18 19  2  0
 20 19  1  0
 21 25  1  0
 21 22  1  0
 22 23  1  0
 24 23  1  0
 25 24  1  0
  4 26  1  0
  4 27  1  0
  5 28  1  0
  5 29  1  0
  6 30  1  0
  6 31  1  0
  7 32  1  0
  7 33  1  0
  8 34  1  6
  9 35  1  0
 13 36  1  0
 16 37  1  0
 17 38  1  0
 18 39  1  0
 19 40  1  0
 21 41  1  0
 22 42  1  0
 22 43  1  0
 23 44  1  0
 23 45  1  0
 24 46  1  0
 24 47  1  0
 25 48  1  0
 25 49  1  0
M  ISO  8  26  13  27  13  28  13  29  13  30  13  31  13  32  13  33  13
M  ISO  8  34  13  35  14  36  14  37  14  38  14  39  14  40  14  41  13
M  ISO  8  42  13  43  13  44  13  45  13  46  13  47  13  48  13  49  13
M  END
>  <minimizedAffinity>  (1) 
-5.65161228

>  <minimizedRMSD>  (1) 
0.400717527

$$$$
