
     RDKit          3D

 46 49  0  0  1  0  0  0  0  0999 V2000
   46.9150   33.1030   43.3140 C   0  0  0  0  0  0  0  0  0  0  0  0
   48.0610   32.9050   43.8030 O   0  0  0  0  0  0  0  0  0  0  0  0
   46.4170   32.4430   42.1440 N   0  0  0  0  0  0  0  0  0  0  0  0
   45.1190   31.8370   41.8720 C   0  0  0  0  0  0  0  0  0  0  0  0
   44.5530   32.4090   40.5590 C   0  0  0  0  0  0  0  0  0  0  0  0
   45.4500   31.9980   39.4200 C   0  0  0  0  0  0  0  0  0  0  0  0
   46.7600   31.4870   39.9470 C   0  0  0  0  0  0  0  0  0  0  0  0
   47.3250   32.3540   41.0320 C   0  0  2  0  0  0  0  0  0  0  0  0
   49.3980   34.1430   41.1420 F   0  0  0  0  0  0  0  0  0  0  0  0
   49.7290   32.8510   41.4270 C   0  0  0  0  0  0  0  0  0  0  0  0
   48.6920   31.9120   41.3860 C   0  0  0  0  0  0  0  0  0  0  0  0
   49.1080   30.6310   41.6860 C   0  0  0  0  0  0  0  0  0  0  0  0
   50.4190   30.3330   41.9910 C   0  0  0  0  0  0  0  0  0  0  0  0
   51.3880   31.3110   42.0120 C   0  0  0  0  0  0  0  0  0  0  0  0
   51.0400   32.6110   41.7220 C   0  0  0  0  0  0  0  0  0  0  0  0
   45.6450   35.1950   43.2510 C   0  0  0  0  0  0  0  0  0  0  0  0
   46.0560   34.0550   43.9820 C   0  0  0  0  0  0  0  0  0  0  0  0
   45.6360   33.8890   45.2840 C   0  0  0  0  0  0  0  0  0  0  0  0
   44.8340   34.8360   45.8220 N   0  0  0  0  0  0  0  0  0  0  0  0
   44.4310   35.9330   45.1340 C   0  0  0  0  0  0  0  0  0  0  0  0
   44.8450   36.0920   43.8590 N   0  0  0  0  0  0  0  0  0  0  0  0
   46.0770   32.7200   46.0150 C   0  0  0  0  0  0  0  0  0  0  0  0
   45.5790   31.4930   45.6970 C   0  0  0  0  0  0  0  0  0  0  0  0
   46.0020   30.3840   46.3980 C   0  0  0  0  0  0  0  0  0  0  0  0
   46.9290   30.4630   47.4310 C   0  0  0  0  0  0  0  0  0  0  0  0
   47.4020   31.7410   47.7110 C   0  0  0  0  0  0  0  0  0  0  0  0
   46.9640   32.7890   47.0040 N   0  0  0  0  0  0  0  0  0  0  0  0
   45.2352   30.7472   41.7777 H   0  0  0  0  0  0  0  0  0  0  0  0
   44.4284   32.0609   42.6984 H   0  0  0  0  0  0  0  0  0  0  0  0
   43.5396   32.0153   40.3914 H   0  0  0  0  0  0  0  0  0  0  0  0
   44.5075   33.5064   40.6199 H   0  0  0  0  0  0  0  0  0  0  0  0
   45.6340   32.8670   38.7711 H   0  0  0  0  0  0  0  0  0  0  0  0
   44.9579   31.1979   38.8475 H   0  0  0  0  0  0  0  0  0  0  0  0
   46.6067   30.4748   40.3494 H   0  0  0  0  0  0  0  0  0  0  0  0
   47.4771   31.4889   39.1129 H   0  0  0  0  0  0  0  0  0  0  0  0
   47.4316   33.3860   40.6665 H   0  0  0  0  0  0  0  0  0  0  0  0
   48.3668   29.8182   41.6816 H   0  0  0  0  0  0  0  0  0  0  0  0
   50.6963   29.2939   42.2220 H   0  0  0  0  0  0  0  0  0  0  0  0
   52.4294   31.0562   42.2580 H   0  0  0  0  0  0  0  0  0  0  0  0
   51.7851   33.4202   41.7277 H   0  0  0  0  0  0  0  0  0  0  0  0
   45.9711   35.3449   42.2112 H   0  0  0  0  0  0  0  0  0  0  0  0
   43.7776   36.6808   45.6071 H   0  0  0  0  0  0  0  0  0  0  0  0
   44.8437   31.3875   44.8857 H   0  0  0  0  0  0  0  0  0  0  0  0
   45.5906   29.3996   46.1300 H   0  0  0  0  0  0  0  0  0  0  0  0
   47.2652   29.5763   47.9884 H   0  0  0  0  0  0  0  0  0  0  0  0
   48.1375   31.8901   48.5152 H   0  0  0  0  0  0  0  0  0  0  0  0
  1  2  2  0
  1 17  1  0
  3  1  1  0
  4  3  1  0
  5  4  1  0
  6  7  1  0
  6  5  1  0
  7  8  1  0
  8 11  1  0
  8  3  1  0
  9 10  1  0
 10 15  2  0
 11 10  1  0
 11 12  2  0
 12 13  1  0
 13 14  2  0
 15 14  1  0
 16 21  2  0
 16 17  1  0
 17 18  2  0
 18 19  1  0
 18 22  1  0
 20 19  2  0
 21 20  1  0
 22 27  1  0
 23 22  2  0
 23 24  1  0
 24 25  2  0
 25 26  1  0
 27 26  2  0
  4 28  1  0
  4 29  1  0
  5 30  1  0
  5 31  1  0
  6 32  1  0
  6 33  1  0
  7 34  1  0
  7 35  1  0
  8 36  1  6
 12 37  1  0
 13 38  1  0
 14 39  1  0
 15 40  1  0
 16 41  1  0
 20 42  1  0
 23 43  1  0
 24 44  1  0
 25 45  1  0
 26 46  1  0
M  ISO  8  28  13  29  13  30  13  31  13  32  13  33  13  34  13  35  13
M  ISO  8  36  13  37  14  38  14  39  14  40  14  41  14  42  14  43  14
M  ISO  3  44  14  45  14  46  14
M  END
>  <minimizedAffinity>  (1) 
-5.43705416

>  <minimizedRMSD>  (1) 
1.24842095

$$$$
