
     RDKit          3D

 37 39  0  0  1  0  0  0  0  0999 V2000
   47.5570   33.8220   42.6790 C   0  0  0  0  0  0  0  0  0  0  0  0
   48.6530   33.6850   43.3000 O   0  0  0  0  0  0  0  0  0  0  0  0
   47.3320   33.3070   41.3520 N   0  0  0  0  0  0  0  0  0  0  0  0
   46.1840   32.5940   40.7970 C   0  0  0  0  0  0  0  0  0  0  0  0
   45.7480   33.2860   39.5060 C   0  0  0  0  0  0  0  0  0  0  0  0
   46.8440   33.2080   38.4820 C   0  0  0  0  0  0  0  0  0  0  0  0
   48.1280   32.7720   39.1380 C   0  0  0  0  0  0  0  0  0  0  0  0
   48.3990   33.5220   40.4040 C   0  0  2  0  0  0  0  0  0  0  0  0
   46.1020   35.7870   42.8130 C   0  0  0  0  0  0  0  0  0  0  0  0
   46.4850   34.5260   43.3320 C   0  0  0  0  0  0  0  0  0  0  0  0
   45.8310   34.0240   44.4270 C   0  0  0  0  0  0  0  0  0  0  0  0
   44.8350   34.7530   44.9800 N   0  0  0  0  0  0  0  0  0  0  0  0
   44.4560   35.9620   44.4930 C   0  0  0  0  0  0  0  0  0  0  0  0
   45.1020   36.4520   43.4170 N   0  0  0  0  0  0  0  0  0  0  0  0
   46.2370   32.7340   44.9430 C   0  0  0  0  0  0  0  0  0  0  0  0
   45.8680   31.5860   44.3020 C   0  0  0  0  0  0  0  0  0  0  0  0
   46.2730   30.3760   44.8210 C   0  0  0  0  0  0  0  0  0  0  0  0
   47.0450   30.2570   45.9760 C   0  0  0  0  0  0  0  0  0  0  0  0
   47.3830   31.4550   46.5750 C   0  0  0  0  0  0  0  0  0  0  0  0
   46.9830   32.6200   46.0570 N   0  0  0  0  0  0  0  0  0  0  0  0
   49.6050   33.0270   40.9120 O   0  0  0  0  0  0  0  0  0  0  0  0
   46.4653   31.5528   40.5809 H   0  0  0  0  0  0  0  0  0  0  0  0
   45.3559   32.6003   41.5211 H   0  0  0  0  0  0  0  0  0  0  0  0
   44.8479   32.7902   39.1137 H   0  0  0  0  0  0  0  0  0  0  0  0
   45.5305   34.3428   39.7202 H   0  0  0  0  0  0  0  0  0  0  0  0
   46.9863   34.1979   38.0238 H   0  0  0  0  0  0  0  0  0  0  0  0
   46.5659   32.4769   37.7086 H   0  0  0  0  0  0  0  0  0  0  0  0
   48.0608   31.6987   39.3695 H   0  0  0  0  0  0  0  0  0  0  0  0
   48.9517   32.9801   38.4393 H   0  0  0  0  0  0  0  0  0  0  0  0
   48.4619   34.6041   40.2167 H   0  0  0  0  0  0  0  0  0  0  0  0
   46.6112   36.2125   41.9357 H   0  0  0  0  0  0  0  0  0  0  0  0
   43.6403   36.5286   44.9659 H   0  0  0  0  0  0  0  0  0  0  0  0
   45.2582   31.6268   43.3874 H   0  0  0  0  0  0  0  0  0  0  0  0
   45.9720   29.4566   44.2975 H   0  0  0  0  0  0  0  0  0  0  0  0
   47.3608   29.2836   46.3794 H   0  0  0  0  0  0  0  0  0  0  0  0
   47.9905   31.4499   47.4920 H   0  0  0  0  0  0  0  0  0  0  0  0
   49.5759   33.0389   41.9015 H   0  0  0  0  0  0  0  0  0  0  0  0
  1  2  2  0
  1 10  1  0
  3  1  1  0
  4  3  1  0
  5  4  1  0
  6  7  1  0
  6  5  1  0
  7  8  1  0
  8 21  1  0
  8  3  1  0
  9 10  2  0
  9 14  1  0
 10 11  1  0
 11 15  1  0
 11 12  2  0
 13 12  1  0
 14 13  2  0
 15 20  2  0
 16 17  2  0
 16 15  1  0
 17 18  1  0
 18 19  2  0
 20 19  1  0
  4 22  1  0
  4 23  1  0
  5 24  1  0
  5 25  1  0
  6 26  1  0
  6 27  1  0
  7 28  1  0
  7 29  1  0
  8 30  1  6
  9 31  1  0
 13 32  1  0
 16 33  1  0
 17 34  1  0
 18 35  1  0
 19 36  1  0
 21 37  1  0
M  ISO  8  22  13  23  13  24  13  25  13  26  13  27  13  28  13  29  13
M  ISO  8  30  13  31  14  32  14  33  14  34  14  35  14  36  14  37   3
M  END
>  <minimizedAffinity>  (1) 
-4.91531086

>  <minimizedRMSD>  (1) 
0.231356233

$$$$
