
     RDKit          3D

 53 57  0  0  1  0  0  0  0  0999 V2000
   47.1920   33.1680   43.1010 C   0  0  0  0  0  0  0  0  0  0  0  0
   48.3940   33.2090   43.4790 O   0  0  0  0  0  0  0  0  0  0  0  0
   46.7070   32.2530   42.1340 N   0  0  0  0  0  0  0  0  0  0  0  0
   45.4870   31.4280   42.1270 C   0  0  0  0  0  0  0  0  0  0  0  0
   44.7430   31.6310   40.8180 C   0  0  0  0  0  0  0  0  0  0  0  0
   45.5690   31.1250   39.6780 C   0  0  0  0  0  0  0  0  0  0  0  0
   46.9980   30.9050   40.1350 C   0  0  0  0  0  0  0  0  0  0  0  0
   47.5090   32.0650   40.9550 C   0  0  2  0  0  0  0  0  0  0  0  0
   45.8740   35.2260   42.9180 C   0  0  0  0  0  0  0  0  0  0  0  0
   46.2620   34.1060   43.6860 C   0  0  0  0  0  0  0  0  0  0  0  0
   45.7500   33.9390   44.9580 C   0  0  0  0  0  0  0  0  0  0  0  0
   44.8870   34.8610   45.4270 N   0  0  0  0  0  0  0  0  0  0  0  0
   44.5040   35.9470   44.6990 C   0  0  0  0  0  0  0  0  0  0  0  0
   45.0100   36.1060   43.4520 N   0  0  0  0  0  0  0  0  0  0  0  0
   46.1670   32.7760   45.7270 C   0  0  0  0  0  0  0  0  0  0  0  0
   45.6720   31.5450   45.4310 C   0  0  0  0  0  0  0  0  0  0  0  0
   46.0930   30.4630   46.1850 C   0  0  0  0  0  0  0  0  0  0  0  0
   46.9990   30.5840   47.2310 C   0  0  0  0  0  0  0  0  0  0  0  0
   47.4690   31.8580   47.4890 C   0  0  0  0  0  0  0  0  0  0  0  0
   47.0480   32.8910   46.7470 N   0  0  0  0  0  0  0  0  0  0  0  0
   48.9570   31.8420   41.2270 C   0  0  0  0  0  0  0  0  0  0  0  0
   49.7390   31.8430   39.9130 C   0  0  0  0  0  0  0  0  0  0  0  0
   49.1570   32.3000   38.7650 N   0  0  0  0  0  0  0  0  0  0  0  0
   49.8250   32.3460   37.5990 C   0  0  0  0  0  0  0  0  0  0  0  0
   51.1240   31.9350   37.5140 N   0  0  0  0  0  0  0  0  0  0  0  0
   51.7300   31.4770   38.6370 C   0  0  0  0  0  0  0  0  0  0  0  0
   53.0400   31.0610   38.5160 C   0  0  0  0  0  0  0  0  0  0  0  0
   53.6720   30.5830   39.6470 C   0  0  0  0  0  0  0  0  0  0  0  0
   52.9990   30.5290   40.8480 C   0  0  0  0  0  0  0  0  0  0  0  0
   51.6700   30.9480   40.9810 C   0  0  0  0  0  0  0  0  0  0  0  0
   51.0650   31.4210   39.8370 C   0  0  0  0  0  0  0  0  0  0  0  0
   45.7612   30.3679   42.2318 H   0  0  0  0  0  0  0  0  0  0  0  0
   44.8398   31.7252   42.9653 H   0  0  0  0  0  0  0  0  0  0  0  0
   43.7909   31.0810   40.8507 H   0  0  0  0  0  0  0  0  0  0  0  0
   44.5483   32.7042   40.6753 H   0  0  0  0  0  0  0  0  0  0  0  0
   45.5563   31.8630   38.8624 H   0  0  0  0  0  0  0  0  0  0  0  0
   45.1511   30.1715   39.3227 H   0  0  0  0  0  0  0  0  0  0  0  0
   47.0398   29.9912   40.7460 H   0  0  0  0  0  0  0  0  0  0  0  0
   47.6325   30.8122   39.2412 H   0  0  0  0  0  0  0  0  0  0  0  0
   47.4180   33.0120   40.4028 H   0  0  0  0  0  0  0  0  0  0  0  0
   46.2711   35.3750   41.9030 H   0  0  0  0  0  0  0  0  0  0  0  0
   43.7978   36.6805   45.1153 H   0  0  0  0  0  0  0  0  0  0  0  0
   44.9523   31.4115   44.6099 H   0  0  0  0  0  0  0  0  0  0  0  0
   45.6936   29.4663   45.9460 H   0  0  0  0  0  0  0  0  0  0  0  0
   47.3243   29.7145   47.8210 H   0  0  0  0  0  0  0  0  0  0  0  0
   48.1890   32.0238   48.3039 H   0  0  0  0  0  0  0  0  0  0  0  0
   49.3342   32.6456   41.8766 H   0  0  0  0  0  0  0  0  0  0  0  0
   49.0866   30.8698   41.7251 H   0  0  0  0  0  0  0  0  0  0  0  0
   49.3163   32.7210   36.6987 H   0  0  0  0  0  0  0  0  0  0  0  0
   53.5640   31.1086   37.5500 H   0  0  0  0  0  0  0  0  0  0  0  0
   54.7168   30.2440   39.5888 H   0  0  0  0  0  0  0  0  0  0  0  0
   53.5247   30.1429   41.7338 H   0  0  0  0  0  0  0  0  0  0  0  0
   51.1392   30.9023   41.9434 H   0  0  0  0  0  0  0  0  0  0  0  0
  1  2  2  0
  1 10  1  0
  3  1  1  0
  4  3  1  0
  5  4  1  0
  6  7  1  0
  6  5  1  0
  7  8  1  0
  8 21  1  0
  8  3  1  0
  9 14  2  0
  9 10  1  0
 10 11  2  0
 11 12  1  0
 11 15  1  0
 13 12  2  0
 14 13  1  0
 15 20  1  0
 16 15  2  0
 16 17  1  0
 17 18  2  0
 18 19  1  0
 20 19  2  0
 22 21  1  0
 23 22  2  0
 24 23  1  0
 25 24  2  0
 25 26  1  0
 26 31  2  0
 27 26  1  0
 27 28  2  0
 28 29  1  0
 29 30  2  0
 31 22  1  0
 31 30  1  0
  4 32  1  0
  4 33  1  0
  5 34  1  0
  5 35  1  0
  6 36  1  0
  6 37  1  0
  7 38  1  0
  7 39  1  0
  8 40  1  6
  9 41  1  0
 13 42  1  0
 16 43  1  0
 17 44  1  0
 18 45  1  0
 19 46  1  0
 21 47  1  0
 21 48  1  0
 24 49  1  0
 27 50  1  0
 28 51  1  0
 29 52  1  0
 30 53  1  0
M  ISO  8  32  13  33  13  34  13  35  13  36  13  37  13  38  13  39  13
M  ISO  8  40  13  41  14  42  14  43  14  44  14  45  14  46  14  47   8
M  ISO  6  48   8  49  14  50  14  51  14  52  14  53  14
M  END
>  <minimizedAffinity>  (1) 
-5.73435736

>  <minimizedRMSD>  (1) 
1.17115641

$$$$
