
     RDKit          3D

 55 58  0  0  1  0  0  0  0  0999 V2000
   47.5220   33.7460   42.7980 C   0  0  0  0  0  0  0  0  0  0  0  0
   48.5890   33.5920   43.4680 O   0  0  0  0  0  0  0  0  0  0  0  0
   47.3380   33.2150   41.4960 N   0  0  0  0  0  0  0  0  0  0  0  0
   46.1790   32.5200   40.9100 C   0  0  0  0  0  0  0  0  0  0  0  0
   45.8050   33.1780   39.5910 C   0  0  0  0  0  0  0  0  0  0  0  0
   46.9090   33.0210   38.6050 C   0  0  0  0  0  0  0  0  0  0  0  0
   48.1690   32.5760   39.3040 C   0  0  0  0  0  0  0  0  0  0  0  0
   48.4220   33.3310   40.5590 C   0  0  2  0  0  0  0  0  0  0  0  0
   46.0950   35.7280   42.8000 C   0  0  0  0  0  0  0  0  0  0  0  0
   46.4520   34.5010   43.4020 C   0  0  0  0  0  0  0  0  0  0  0  0
   45.7850   34.0530   44.5350 C   0  0  0  0  0  0  0  0  0  0  0  0
   44.7940   34.8340   45.0250 N   0  0  0  0  0  0  0  0  0  0  0  0
   44.4350   36.0220   44.4560 C   0  0  0  0  0  0  0  0  0  0  0  0
   45.0960   36.4440   43.3520 N   0  0  0  0  0  0  0  0  0  0  0  0
   46.1820   32.8030   45.1260 C   0  0  0  0  0  0  0  0  0  0  0  0
   45.8750   31.6270   44.5320 C   0  0  0  0  0  0  0  0  0  0  0  0
   46.2750   30.4440   45.1240 C   0  0  0  0  0  0  0  0  0  0  0  0
   46.9860   30.4040   46.3150 C   0  0  0  0  0  0  0  0  0  0  0  0
   47.2770   31.6320   46.8860 C   0  0  0  0  0  0  0  0  0  0  0  0
   46.8750   32.7590   46.2850 N   0  0  0  0  0  0  0  0  0  0  0  0
   49.7590   32.9940   41.1270 C   0  0  0  0  0  0  0  0  0  0  0  0
   50.2430   31.6040   40.7290 C   0  0  0  0  0  0  0  0  0  0  0  0
   50.0040   30.7320   41.9520 C   0  0  0  0  0  0  0  0  0  0  0  0
   51.2400   30.7940   42.8400 C   0  0  0  0  0  0  0  0  0  0  0  0
   52.2340   29.8300   42.2030 C   0  0  0  0  0  0  0  0  0  0  0  0
   52.2470   30.1550   40.7180 C   0  0  0  0  0  0  0  0  0  0  0  0
   51.7180   31.5550   40.4360 C   0  0  0  0  0  0  0  0  0  0  0  0
   46.4353   31.4650   40.7334 H   0  0  0  0  0  0  0  0  0  0  0  0
   45.3272   32.5801   41.6034 H   0  0  0  0  0  0  0  0  0  0  0  0
   44.8944   32.7050   39.1947 H   0  0  0  0  0  0  0  0  0  0  0  0
   45.6281   34.2500   39.7630 H   0  0  0  0  0  0  0  0  0  0  0  0
   47.0907   33.9843   38.1059 H   0  0  0  0  0  0  0  0  0  0  0  0
   46.6226   32.2624   37.8617 H   0  0  0  0  0  0  0  0  0  0  0  0
   48.0782   31.5072   39.5478 H   0  0  0  0  0  0  0  0  0  0  0  0
   49.0127   32.7662   38.6243 H   0  0  0  0  0  0  0  0  0  0  0  0
   48.4584   34.4021   40.3114 H   0  0  0  0  0  0  0  0  0  0  0  0
   46.6193   36.0898   41.9032 H   0  0  0  0  0  0  0  0  0  0  0  0
   43.6229   36.6259   44.8869 H   0  0  0  0  0  0  0  0  0  0  0  0
   45.3124   31.6125   43.5869 H   0  0  0  0  0  0  0  0  0  0  0  0
   46.0192   29.4947   44.6306 H   0  0  0  0  0  0  0  0  0  0  0  0
   47.2991   29.4561   46.7769 H   0  0  0  0  0  0  0  0  0  0  0  0
   47.8373   31.6813   47.8313 H   0  0  0  0  0  0  0  0  0  0  0  0
   50.4888   33.7350   40.7688 H   0  0  0  0  0  0  0  0  0  0  0  0
   49.6635   33.0076   42.2228 H   0  0  0  0  0  0  0  0  0  0  0  0
   49.7142   31.2843   39.8189 H   0  0  0  0  0  0  0  0  0  0  0  0
   49.1297   31.1030   42.5069 H   0  0  0  0  0  0  0  0  0  0  0  0
   49.8143   29.6936   41.6427 H   0  0  0  0  0  0  0  0  0  0  0  0
   51.6503   31.8144   42.8604 H   0  0  0  0  0  0  0  0  0  0  0  0
   51.0134   30.5241   43.8820 H   0  0  0  0  0  0  0  0  0  0  0  0
   53.2356   29.9750   42.6340 H   0  0  0  0  0  0  0  0  0  0  0  0
   51.9482   28.7830   42.3819 H   0  0  0  0  0  0  0  0  0  0  0  0
   53.2805   30.0846   40.3480 H   0  0  0  0  0  0  0  0  0  0  0  0
   51.5916   29.4346   40.2067 H   0  0  0  0  0  0  0  0  0  0  0  0
   52.2428   32.2805   41.0749 H   0  0  0  0  0  0  0  0  0  0  0  0
   51.8896   31.8050   39.3786 H   0  0  0  0  0  0  0  0  0  0  0  0
  1 10  1  0
  1  2  2  0
  3  1  1  0
  4  3  1  0
  5  4  1  0
  6  7  1  0
  6  5  1  0
  7  8  1  0
  8 21  1  0
  8  3  1  0
  9 14  2  0
  9 10  1  0
 10 11  2  0
 11 12  1  0
 11 15  1  0
 13 12  2  0
 14 13  1  0
 15 20  2  0
 16 17  2  0
 16 15  1  0
 17 18  1  0
 18 19  2  0
 20 19  1  0
 22 21  1  0
 22 23  1  0
 23 24  1  0
 25 24  1  0
 26 25  1  0
 27 26  1  0
 27 22  1  0
  4 28  1  0
  4 29  1  0
  5 30  1  0
  5 31  1  0
  6 32  1  0
  6 33  1  0
  7 34  1  0
  7 35  1  0
  8 36  1  6
  9 37  1  0
 13 38  1  0
 16 39  1  0
 17 40  1  0
 18 41  1  0
 19 42  1  0
 21 43  1  0
 21 44  1  0
 22 45  1  0
 23 46  1  0
 23 47  1  0
 24 48  1  0
 24 49  1  0
 25 50  1  0
 25 51  1  0
 26 52  1  0
 26 53  1  0
 27 54  1  0
 27 55  1  0
M  ISO  8  28  13  29  13  30  13  31  13  32  13  33  13  34  13  35  13
M  ISO  8  36  13  37  14  38  14  39  14  40  14  41  14  42  14  43   8
M  ISO  8  44   8  45  13  46  13  47  13  48  13  49  13  50  13  51  13
M  ISO  4  52  13  53  13  54  13  55  13
M  END
>  <minimizedAffinity>  (1) 
-5.17762804

>  <minimizedRMSD>  (1) 
1.71717751

$$$$
