
     RDKit          3D

 29 31  0  0  0  0  0  0  0  0999 V2000
   45.6630   33.9810   45.5440 C   0  0  0  0  0  0  0  0  0  0  0  0
   44.7110   34.9750   45.7750 C   0  0  0  0  0  0  0  0  0  0  0  0
   44.4540   35.8890   44.7270 C   0  0  0  0  0  0  0  0  0  0  0  0
   45.1440   35.7620   43.5390 N   0  0  0  0  0  0  0  0  0  0  0  0
   46.0520   34.7690   43.3950 C   0  0  0  0  0  0  0  0  0  0  0  0
   46.3240   33.8780   44.3700 N   0  0  0  0  0  0  0  0  0  0  0  0
   46.7640   34.6620   42.1250 C   0  0  0  0  0  0  0  0  0  0  0  0
   47.9580   35.3180   41.9340 C   0  0  0  0  0  0  0  0  0  0  0  0
   48.7230   35.3010   40.7920 C   0  0  0  0  0  0  0  0  0  0  0  0
   48.1740   34.5290   39.7750 C   0  0  0  0  0  0  0  0  0  0  0  0
   46.9560   33.8430   39.9300 C   0  0  0  0  0  0  0  0  0  0  0  0
   46.2750   33.9280   41.1130 N   0  0  0  0  0  0  0  0  0  0  0  0
   45.9910   32.9970   46.5670 C   0  0  0  0  0  0  0  0  0  0  0  0
   45.1840   32.8940   47.6790 C   0  0  0  0  0  0  0  0  0  0  0  0
   45.4510   31.9710   48.6860 C   0  0  0  0  0  0  0  0  0  0  0  0
   46.5370   31.1240   48.6060 C   0  0  0  0  0  0  0  0  0  0  0  0
   47.3600   31.2170   47.4910 C   0  0  0  0  0  0  0  0  0  0  0  0
   47.0580   32.1360   46.5310 C   0  0  0  0  0  0  0  0  0  0  0  0
   44.1805   35.0449   46.7361 H   0  0  0  0  0  0  0  0  0  0  0  0
   43.7130   36.6914   44.8574 H   0  0  0  0  0  0  0  0  0  0  0  0
   48.3375   35.9141   42.7770 H   0  0  0  0  0  0  0  0  0  0  0  0
   49.6745   35.8441   40.6930 H   0  0  0  0  0  0  0  0  0  0  0  0
   48.7097   34.4520   38.8174 H   0  0  0  0  0  0  0  0  0  0  0  0
   46.5526   33.2404   39.1029 H   0  0  0  0  0  0  0  0  0  0  0  0
   44.3100   33.5553   47.7729 H   0  0  0  0  0  0  0  0  0  0  0  0
   44.7852   31.9160   49.5599 H   0  0  0  0  0  0  0  0  0  0  0  0
   46.7454   30.3952   49.4031 H   0  0  0  0  0  0  0  0  0  0  0  0
   48.2376   30.5623   47.3850 H   0  0  0  0  0  0  0  0  0  0  0  0
   47.7235   32.1917   45.6570 H   0  0  0  0  0  0  0  0  0  0  0  0
  1  2  2  0
  1 13  1  0
  3  2  1  0
  4  3  2  0
  5  4  1  0
  5  6  2  0
  6  1  1  0
  7  5  1  0
  8  7  2  0
  9  8  1  0
 10 11  1  0
 10  9  2  0
 11 12  2  0
 12  7  1  0
 13 14  2  0
 14 15  1  0
 16 15  2  0
 17 16  1  0
 18 13  1  0
 18 17  2  0
  2 19  1  0
  3 20  1  0
  8 21  1  0
  9 22  1  0
 10 23  1  0
 11 24  1  0
 14 25  1  0
 15 26  1  0
 16 27  1  0
 17 28  1  0
 18 29  1  0
M  ISO  8  19  14  20  14  21  14  22  14  23  14  24  14  25  14  26  14
M  ISO  3  27  14  28  14  29  14
M  END
>  <minimizedAffinity>  (1) 
-6.37289143

>  <minimizedRMSD>  (1) 
0.36526686

$$$$
