
     RDKit          3D

 34 36  0  0  0  0  0  0  0  0999 V2000
   45.5960   33.9630   45.5100 C   0  0  0  0  0  0  0  0  0  0  0  0
   44.6890   34.9940   45.7570 C   0  0  0  0  0  0  0  0  0  0  0  0
   44.4900   35.9500   44.7330 C   0  0  0  0  0  0  0  0  0  0  0  0
   45.1930   35.8180   43.5600 N   0  0  0  0  0  0  0  0  0  0  0  0
   46.0510   34.7960   43.3950 C   0  0  0  0  0  0  0  0  0  0  0  0
   46.2520   33.8890   44.3420 N   0  0  0  0  0  0  0  0  0  0  0  0
   46.7770   34.6930   42.1300 C   0  0  0  0  0  0  0  0  0  0  0  0
   47.9690   35.3350   41.9300 C   0  0  0  0  0  0  0  0  0  0  0  0
   48.7250   35.3030   40.7840 C   0  0  0  0  0  0  0  0  0  0  0  0
   48.1720   34.5290   39.7680 C   0  0  0  0  0  0  0  0  0  0  0  0
   46.9680   33.8630   39.9310 C   0  0  0  0  0  0  0  0  0  0  0  0
   46.2780   33.9490   41.1100 N   0  0  0  0  0  0  0  0  0  0  0  0
   45.8570   32.9610   46.4790 N   0  0  0  0  0  0  0  0  0  0  0  0
   46.7860   31.8600   46.3740 C   0  0  0  0  0  0  0  0  0  0  0  0
   45.9300   30.5950   46.4440 C   0  0  0  0  0  0  0  0  0  0  0  0
   45.4700   30.4530   47.8650 C   0  0  0  0  0  0  0  0  0  0  0  0
   45.5310   31.7730   48.6000 C   0  0  0  0  0  0  0  0  0  0  0  0
   45.1800   32.9360   47.7420 C   0  0  0  0  0  0  0  0  0  0  0  0
   44.1485   35.0612   46.7127 H   0  0  0  0  0  0  0  0  0  0  0  0
   43.7857   36.7832   44.8735 H   0  0  0  0  0  0  0  0  0  0  0  0
   48.3585   35.9335   42.7667 H   0  0  0  0  0  0  0  0  0  0  0  0
   49.6795   35.8395   40.6787 H   0  0  0  0  0  0  0  0  0  0  0  0
   48.7052   34.4437   38.8097 H   0  0  0  0  0  0  0  0  0  0  0  0
   46.5629   33.2596   39.1053 H   0  0  0  0  0  0  0  0  0  0  0  0
   47.5057   31.8837   47.2056 H   0  0  0  0  0  0  0  0  0  0  0  0
   47.3702   31.9064   45.4431 H   0  0  0  0  0  0  0  0  0  0  0  0
   45.0626   30.6886   45.7740 H   0  0  0  0  0  0  0  0  0  0  0  0
   46.5072   29.7132   46.1289 H   0  0  0  0  0  0  0  0  0  0  0  0
   44.4323   30.0882   47.8703 H   0  0  0  0  0  0  0  0  0  0  0  0
   46.1367   29.7421   48.3749 H   0  0  0  0  0  0  0  0  0  0  0  0
   44.8272   31.7361   49.4446 H   0  0  0  0  0  0  0  0  0  0  0  0
   46.5693   31.9141   48.9346 H   0  0  0  0  0  0  0  0  0  0  0  0
   45.4345   33.8565   48.2879 H   0  0  0  0  0  0  0  0  0  0  0  0
   44.1053   32.8534   47.5225 H   0  0  0  0  0  0  0  0  0  0  0  0
  1  2  2  0
  1 13  1  0
  3  2  1  0
  4  3  2  0
  5  4  1  0
  5  6  2  0
  6  1  1  0
  7  5  1  0
  8  7  2  0
  9  8  1  0
 10 11  1  0
 10  9  2  0
 11 12  2  0
 12  7  1  0
 13 18  1  0
 14 15  1  0
 14 13  1  0
 15 16  1  0
 16 17  1  0
 18 17  1  0
  2 19  1  0
  3 20  1  0
  8 21  1  0
  9 22  1  0
 10 23  1  0
 11 24  1  0
 14 25  1  0
 14 26  1  0
 15 27  1  0
 15 28  1  0
 16 29  1  0
 16 30  1  0
 17 31  1  0
 17 32  1  0
 18 33  1  0
 18 34  1  0
M  ISO  8  19  14  20  14  21  14  22  14  23  14  24  14  25  13  26  13
M  ISO  8  27  13  28  13  29  13  30  13  31  13  32  13  33  13  34  13
M  END
>  <minimizedAffinity>  (1) 
-6.1483674

>  <minimizedRMSD>  (1) 
0.504172981

$$$$
