
     RDKit          3D

 48 52  0  0  1  0  0  0  0  0999 V2000
   46.2450   32.7460   47.2970 C   0  0  2  0  0  0  0  0  0  0  0  0
   47.6040   32.2480   47.4360 C   0  0  0  0  0  0  0  0  0  0  0  0
   47.8150   31.6050   48.7680 C   0  0  0  0  0  0  0  0  0  0  0  0
   46.6800   30.8170   49.3260 C   0  0  0  0  0  0  0  0  0  0  0  0
   45.3630   31.4660   49.1060 C   0  0  0  0  0  0  0  0  0  0  0  0
   45.1960   31.7620   47.6140 C   0  0  2  0  0  0  0  0  0  0  0  0
   45.7040   30.4820   45.6780 C   0  0  0  0  0  0  0  0  0  0  0  0
   45.0910   30.4930   46.9500 C   0  0  0  0  0  0  0  0  0  0  0  0
   44.5490   29.2800   47.2160 C   0  0  0  0  0  0  0  0  0  0  0  0
   44.5390   28.1420   46.4430 C   0  0  0  0  0  0  0  0  0  0  0  0
   44.0170   26.9240   46.6660 N   0  0  0  0  0  0  0  0  0  0  0  0
   44.3290   26.2290   45.5350 C   0  0  0  0  0  0  0  0  0  0  0  0
   45.0090   26.9980   44.6740 N   0  0  0  0  0  0  0  0  0  0  0  0
   45.1540   28.2150   45.2290 C   0  0  0  0  0  0  0  0  0  0  0  0
   45.7400   29.3690   44.8280 C   0  0  0  0  0  0  0  0  0  0  0  0
   45.9460   33.5520   46.1100 C   0  0  0  0  0  0  0  0  0  0  0  0
   44.9070   34.4670   46.1930 C   0  0  0  0  0  0  0  0  0  0  0  0
   44.6200   35.2220   45.0400 C   0  0  0  0  0  0  0  0  0  0  0  0
   45.3850   35.0050   43.9140 N   0  0  0  0  0  0  0  0  0  0  0  0
   46.3730   34.1100   43.9050 C   0  0  0  0  0  0  0  0  0  0  0  0
   46.6480   33.3970   44.9840 N   0  0  0  0  0  0  0  0  0  0  0  0
   47.1460   33.9310   42.6750 C   0  0  0  0  0  0  0  0  0  0  0  0
   47.6050   35.0280   41.9760 C   0  0  0  0  0  0  0  0  0  0  0  0
   48.3410   34.9690   40.8150 C   0  0  0  0  0  0  0  0  0  0  0  0
   48.5980   33.6630   40.3800 C   0  0  0  0  0  0  0  0  0  0  0  0
   48.1490   32.5460   41.0620 C   0  0  0  0  0  0  0  0  0  0  0  0
   47.4170   32.6730   42.2190 N   0  0  0  0  0  0  0  0  0  0  0  0
   46.2152   33.4918   48.1050 H   0  0  0  0  0  0  0  0  0  0  0  0
   47.7962   31.5068   46.6463 H   0  0  0  0  0  0  0  0  0  0  0  0
   48.2954   33.0991   47.3489 H   0  0  0  0  0  0  0  0  0  0  0  0
   48.6764   30.9271   48.6765 H   0  0  0  0  0  0  0  0  0  0  0  0
   47.9550   32.4405   49.4697 H   0  0  0  0  0  0  0  0  0  0  0  0
   46.6689   29.8281   48.8443 H   0  0  0  0  0  0  0  0  0  0  0  0
   46.8333   30.7412   50.4126 H   0  0  0  0  0  0  0  0  0  0  0  0
   44.5598   30.7930   49.4405 H   0  0  0  0  0  0  0  0  0  0  0  0
   45.3106   32.4036   49.6788 H   0  0  0  0  0  0  0  0  0  0  0  0
   44.2846   32.2601   47.2518 H   0  0  0  0  0  0  0  0  0  0  0  0
   46.1851   31.4086   45.3316 H   0  0  0  0  0  0  0  0  0  0  0  0
   44.0446   29.1926   48.1896 H   0  0  0  0  0  0  0  0  0  0  0  0
   43.5029   26.5935   47.4951 H   0  0  0  0  0  0  0  0  0  0  0  0
   44.0587   25.1782   45.3539 H   0  0  0  0  0  0  0  0  0  0  0  0
   46.2371   29.4311   43.8487 H   0  0  0  0  0  0  0  0  0  0  0  0
   44.3312   34.5973   47.1211 H   0  0  0  0  0  0  0  0  0  0  0  0
   43.8081   35.9642   45.0377 H   0  0  0  0  0  0  0  0  0  0  0  0
   47.3648   36.0239   42.3765 H   0  0  0  0  0  0  0  0  0  0  0  0
   48.6939   35.8627   40.2795 H   0  0  0  0  0  0  0  0  0  0  0  0
   49.1808   33.5192   39.4582 H   0  0  0  0  0  0  0  0  0  0  0  0
   48.3807   31.5433   40.6735 H   0  0  0  0  0  0  0  0  0  0  0  0
  1  2  1  0
  1  6  1  0
  2  3  1  0
  3  4  1  0
  5  4  1  0
  6  5  1  0
  7  8  2  0
  8  9  1  0
  8  6  1  0
 10 11  1  0
 10  9  2  0
 12 11  1  0
 13 14  1  0
 13 12  2  0
 14 10  1  0
 15 14  2  0
 15  7  1  0
 16 17  2  0
 16  1  1  0
 18 17  1  0
 19 18  2  0
 20 19  1  0
 20 21  2  0
 21 16  1  0
 22 20  1  0
 23 22  2  0
 24 23  1  0
 25 24  2  0
 25 26  1  0
 26 27  2  0
 27 22  1  0
  1 28  1  1
  2 29  1  0
  2 30  1  0
  3 31  1  0
  3 32  1  0
  4 33  1  0
  4 34  1  0
  5 35  1  0
  5 36  1  0
  6 37  1  1
  7 38  1  0
  9 39  1  0
 11 40  1  0
 12 41  1  0
 15 42  1  0
 17 43  1  0
 18 44  1  0
 23 45  1  0
 24 46  1  0
 25 47  1  0
 26 48  1  0
M  ISO  8  28  13  29  13  30  13  31  13  32  13  33  13  34  13  35  13
M  ISO  8  36  13  37  13  38  14  39  14  40   9  41  14  42  14  43  14
M  ISO  5  44  14  45  14  46  14  47  14  48  14
M  END
>  <minimizedAffinity>  (1) 
-6.18559217

>  <minimizedRMSD>  (1) 
3.23705769

$$$$
