
     RDKit          3D

 54 58  0  0  1  0  0  0  0  0999 V2000
   46.9480   32.7850   45.4380 C   0  0  0  0  0  0  0  0  0  0  0  0
   45.8530   33.4610   45.9530 C   0  0  0  0  0  0  0  0  0  0  0  0
   45.1770   34.4090   45.1480 C   0  0  0  0  0  0  0  0  0  0  0  0
   45.6780   34.6000   43.8630 N   0  0  0  0  0  0  0  0  0  0  0  0
   46.7400   33.9160   43.4310 C   0  0  0  0  0  0  0  0  0  0  0  0
   47.3650   33.0240   44.2020 N   0  0  0  0  0  0  0  0  0  0  0  0
   47.5910   31.8080   46.2940 C   0  0  2  0  0  0  0  0  0  0  0  0
   47.3270   30.3530   45.7970 C   0  0  0  0  0  0  0  0  0  0  0  0
   48.1410   29.4020   46.6090 C   0  0  0  0  0  0  0  0  0  0  0  0
   48.1430   29.6330   48.0820 C   0  0  0  0  0  0  0  0  0  0  0  0
   48.1560   31.0230   48.4680 C   0  0  0  0  0  0  0  0  0  0  0  0
   47.1620   31.8990   47.6750 C   0  0  2  0  0  0  0  0  0  0  0  0
   45.8200   31.3310   47.8200 N   0  0  0  0  0  0  0  0  0  0  0  0
   45.1660   30.7550   48.9230 C   0  0  0  0  0  0  0  0  0  0  0  0
   44.6680   31.4490   49.8810 O   0  0  0  0  0  0  0  0  0  0  0  0
   45.0910   29.3300   48.8940 N   0  0  0  0  0  0  0  0  0  0  0  0
   47.2310   34.1780   42.0730 C   0  0  0  0  0  0  0  0  0  0  0  0
   48.1820   35.1460   41.8360 C   0  0  0  0  0  0  0  0  0  0  0  0
   48.6900   35.4480   40.5910 C   0  0  0  0  0  0  0  0  0  0  0  0
   48.1740   34.6990   39.5580 C   0  0  0  0  0  0  0  0  0  0  0  0
   47.2260   33.7290   39.7770 C   0  0  0  0  0  0  0  0  0  0  0  0
   46.7540   33.4690   41.0360 N   0  0  0  0  0  0  0  0  0  0  0  0
   46.3980   31.5830   38.9260 C   0  0  0  0  0  0  0  0  0  0  0  0
   46.6600   32.9200   38.7050 C   0  0  0  0  0  0  0  0  0  0  0  0
   46.3550   33.3880   37.4560 C   0  0  0  0  0  0  0  0  0  0  0  0
   45.8200   32.6180   36.4440 C   0  0  0  0  0  0  0  0  0  0  0  0
   45.4600   32.9050   35.1660 N   0  0  0  0  0  0  0  0  0  0  0  0
   44.9910   31.7860   34.6100 C   0  0  0  0  0  0  0  0  0  0  0  0
   45.0490   30.7840   35.5320 N   0  0  0  0  0  0  0  0  0  0  0  0
   45.5620   31.2750   36.6830 C   0  0  0  0  0  0  0  0  0  0  0  0
   45.8550   30.7690   37.9300 C   0  0  0  0  0  0  0  0  0  0  0  0
   45.5118   33.2623   46.9797 H   0  0  0  0  0  0  0  0  0  0  0  0
   44.3028   34.9649   45.5178 H   0  0  0  0  0  0  0  0  0  0  0  0
   48.6651   32.0394   46.2421 H   0  0  0  0  0  0  0  0  0  0  0  0
   46.2594   30.1134   45.9105 H   0  0  0  0  0  0  0  0  0  0  0  0
   47.6077   30.2679   44.7368 H   0  0  0  0  0  0  0  0  0  0  0  0
   47.7535   28.3885   46.4282 H   0  0  0  0  0  0  0  0  0  0  0  0
   49.1814   29.5518   46.2848 H   0  0  0  0  0  0  0  0  0  0  0  0
   47.2404   29.1672   48.5044 H   0  0  0  0  0  0  0  0  0  0  0  0
   49.0741   29.1918   48.4673 H   0  0  0  0  0  0  0  0  0  0  0  0
   47.9008   31.0888   49.5360 H   0  0  0  0  0  0  0  0  0  0  0  0
   49.1641   31.4063   48.2518 H   0  0  0  0  0  0  0  0  0  0  0  0
   47.1380   32.9419   48.0239 H   0  0  0  0  0  0  0  0  0  0  0  0
   45.2540   31.3585   46.9599 H   0  0  0  0  0  0  0  0  0  0  0  0
   44.6288   28.8229   49.6622 H   0  0  0  0  0  0  0  0  0  0  0  0
   45.4991   28.8088   48.1049 H   0  0  0  0  0  0  0  0  0  0  0  0
   48.5610   35.7156   42.6974 H   0  0  0  0  0  0  0  0  0  0  0  0
   49.4497   36.2280   40.4348 H   0  0  0  0  0  0  0  0  0  0  0  0
   48.5290   34.8813   38.5329 H   0  0  0  0  0  0  0  0  0  0  0  0
   46.6225   31.1480   39.9111 H   0  0  0  0  0  0  0  0  0  0  0  0
   46.5495   34.4498   37.2445 H   0  0  0  0  0  0  0  0  0  0  0  0
   45.5356   33.8240   34.7071 H   0  0  0  0  0  0  0  0  0  0  0  0
   44.6195   31.6887   33.5792 H   0  0  0  0  0  0  0  0  0  0  0  0
   45.6584   29.7082   38.1444 H   0  0  0  0  0  0  0  0  0  0  0  0
  1  2  2  0
  1  7  1  0
  3  2  1  0
  4  3  2  0
  5  4  1  0
  5  6  2  0
  6  1  1  0
  7 12  1  0
  8  7  1  0
  8  9  1  0
  9 10  1  0
 10 11  1  0
 12 13  1  0
 12 11  1  0
 13 14  1  0
 14 15  2  0
 16 14  1  0
 17  5  1  0
 18 17  2  0
 19 18  1  0
 20 21  1  0
 20 19  2  0
 21 22  2  0
 22 17  1  0
 24 23  2  0
 24 21  1  0
 25 24  1  0
 26 30  1  0
 26 25  2  0
 27 26  1  0
 28 27  1  0
 28 29  2  0
 29 30  1  0
 30 31  2  0
 31 23  1  0
  2 32  1  0
  3 33  1  0
  7 34  1  1
  8 35  1  0
  8 36  1  0
  9 37  1  0
  9 38  1  0
 10 39  1  0
 10 40  1  0
 11 41  1  0
 11 42  1  0
 12 43  1  1
 13 44  1  0
 16 45  1  0
 16 46  1  0
 18 47  1  0
 19 48  1  0
 20 49  1  0
 23 50  1  0
 25 51  1  0
 27 52  1  0
 28 53  1  0
 31 54  1  0
M  ISO  8  32  14  33  14  34  13  35  13  36  13  37  13  38  13  39  13
M  ISO  8  40  13  41  13  42  13  43  13  47  14  48  14  49  14  50  14
M  ISO  4  51  14  52   9  53  14  54  14
M  END
>  <minimizedAffinity>  (1) 
-7.19082689

>  <minimizedRMSD>  (1) 
0.185936183

$$$$
