
     RDKit          3D

 51 54  0  0  1  0  0  0  0  0999 V2000
   46.9740   32.2300   45.2080 C   0  0  0  0  0  0  0  0  0  0  0  0
   45.9040   32.8620   45.8260 C   0  0  0  0  0  0  0  0  0  0  0  0
   45.4010   34.0680   45.2850 C   0  0  0  0  0  0  0  0  0  0  0  0
   46.0390   34.5470   44.1400 N   0  0  0  0  0  0  0  0  0  0  0  0
   47.0660   33.8890   43.5980 C   0  0  0  0  0  0  0  0  0  0  0  0
   47.5270   32.7520   44.1190 N   0  0  0  0  0  0  0  0  0  0  0  0
   47.4380   30.9840   45.7860 C   0  0  2  0  0  0  0  0  0  0  0  0
   46.6460   29.7650   45.2260 C   0  0  0  0  0  0  0  0  0  0  0  0
   47.2530   28.5020   45.7270 C   0  0  0  0  0  0  0  0  0  0  0  0
   47.6290   28.4800   47.1710 C   0  0  0  0  0  0  0  0  0  0  0  0
   48.1470   29.7260   47.6760 C   0  0  0  0  0  0  0  0  0  0  0  0
   47.3410   30.9650   47.2320 C   0  0  2  0  0  0  0  0  0  0  0  0
   45.9450   30.7810   47.6360 N   0  0  0  0  0  0  0  0  0  0  0  0
   45.3550   30.6120   48.9010 C   0  0  0  0  0  0  0  0  0  0  0  0
   45.1600   31.5710   49.7200 O   0  0  0  0  0  0  0  0  0  0  0  0
   44.9730   29.2760   49.2090 N   0  0  0  0  0  0  0  0  0  0  0  0
   47.7000   34.4610   42.4060 C   0  0  0  0  0  0  0  0  0  0  0  0
   48.5740   35.5210   42.5030 C   0  0  0  0  0  0  0  0  0  0  0  0
   49.2080   36.1150   41.4410 C   0  0  0  0  0  0  0  0  0  0  0  0
   48.9010   35.5550   40.2110 C   0  0  0  0  0  0  0  0  0  0  0  0
   48.0330   34.4970   40.0890 C   0  0  0  0  0  0  0  0  0  0  0  0
   47.4300   33.9480   41.1940 N   0  0  0  0  0  0  0  0  0  0  0  0
   47.6790   33.8750   38.8180 C   0  0  0  0  0  0  0  0  0  0  0  0
   46.5660   33.1030   38.7110 C   0  0  0  0  0  0  0  0  0  0  0  0
   46.1950   32.4960   37.5230 C   0  0  0  0  0  0  0  0  0  0  0  0
   46.9470   32.6470   36.3750 C   0  0  0  0  0  0  0  0  0  0  0  0
   48.0760   33.4270   36.4740 C   0  0  0  0  0  0  0  0  0  0  0  0
   48.4230   34.0200   37.6670 C   0  0  0  0  0  0  0  0  0  0  0  0
   45.4507   32.4283   46.7296 H   0  0  0  0  0  0  0  0  0  0  0  0
   44.5531   34.5995   45.7418 H   0  0  0  0  0  0  0  0  0  0  0  0
   48.4981   30.9084   45.5024 H   0  0  0  0  0  0  0  0  0  0  0  0
   46.6832   29.7781   44.1267 H   0  0  0  0  0  0  0  0  0  0  0  0
   45.5996   29.8248   45.5599 H   0  0  0  0  0  0  0  0  0  0  0  0
   46.5298   27.6910   45.5560 H   0  0  0  0  0  0  0  0  0  0  0  0
   48.1977   28.3897   45.1748 H   0  0  0  0  0  0  0  0  0  0  0  0
   46.7337   28.2192   47.7545 H   0  0  0  0  0  0  0  0  0  0  0  0
   48.4394   27.7429   47.2704 H   0  0  0  0  0  0  0  0  0  0  0  0
   48.1397   29.6839   48.7752 H   0  0  0  0  0  0  0  0  0  0  0  0
   49.1605   29.8404   47.2641 H   0  0  0  0  0  0  0  0  0  0  0  0
   47.7128   31.9004   47.6757 H   0  0  0  0  0  0  0  0  0  0  0  0
   45.2757   30.7742   46.8531 H   0  0  0  0  0  0  0  0  0  0  0  0
   44.5331   29.0621   50.1155 H   0  0  0  0  0  0  0  0  0  0  0  0
   45.1364   28.5230   48.5254 H   0  0  0  0  0  0  0  0  0  0  0  0
   48.7791   35.9213   43.5068 H   0  0  0  0  0  0  0  0  0  0  0  0
   49.9000   36.9623   41.5559 H   0  0  0  0  0  0  0  0  0  0  0  0
   49.3664   35.9702   39.3049 H   0  0  0  0  0  0  0  0  0  0  0  0
   45.9365   32.9548   39.6008 H   0  0  0  0  0  0  0  0  0  0  0  0
   45.2832   31.8814   37.4933 H   0  0  0  0  0  0  0  0  0  0  0  0
   46.6578   32.1675   35.4282 H   0  0  0  0  0  0  0  0  0  0  0  0
   48.7100   33.5789   35.5880 H   0  0  0  0  0  0  0  0  0  0  0  0
   49.3335   34.6362   37.7031 H   0  0  0  0  0  0  0  0  0  0  0  0
  1  7  1  0
  1  2  2  0
  3  2  1  0
  4  3  2  0
  5  6  2  0
  5  4  1  0
  6  1  1  0
  7 12  1  0
  8  9  1  0
  8  7  1  0
  9 10  1  0
 10 11  1  0
 12 13  1  0
 12 11  1  0
 13 14  1  0
 14 16  1  0
 14 15  2  0
 17 18  2  0
 17  5  1  0
 19 18  1  0
 20 19  2  0
 21 20  1  0
 21 22  2  0
 22 17  1  0
 23 21  1  0
 24 23  2  0
 25 24  1  0
 26 27  1  0
 26 25  2  0
 27 28  2  0
 28 23  1  0
  2 29  1  0
  3 30  1  0
  7 31  1  1
  8 32  1  0
  8 33  1  0
  9 34  1  0
  9 35  1  0
 10 36  1  0
 10 37  1  0
 11 38  1  0
 11 39  1  0
 12 40  1  1
 13 41  1  0
 16 42  1  0
 16 43  1  0
 18 44  1  0
 19 45  1  0
 20 46  1  0
 24 47  1  0
 25 48  1  0
 26 49  1  0
 27 50  1  0
 28 51  1  0
M  ISO  8  29  14  30  14  31  13  32  13  33  13  34  13  35  13  36  13
M  ISO  8  37  13  38  13  39  13  40  13  44  14  45  14  46  14  47  14
M  ISO  4  48  14  49  14  50  14  51  14
M  END
>  <minimizedAffinity>  (1) 
-6.52130413

>  <minimizedRMSD>  (1) 
1.36869168

$$$$
