
     RDKit          3D

 55 58  0  0  1  0  0  0  0  0999 V2000
   46.9810   32.7560   45.4320 C   0  0  0  0  0  0  0  0  0  0  0  0
   45.8650   33.4140   45.9330 C   0  0  0  0  0  0  0  0  0  0  0  0
   45.2030   34.3750   45.1320 C   0  0  0  0  0  0  0  0  0  0  0  0
   45.7350   34.6000   43.8660 N   0  0  0  0  0  0  0  0  0  0  0  0
   46.8120   33.9340   43.4460 C   0  0  0  0  0  0  0  0  0  0  0  0
   47.4250   33.0300   44.2100 N   0  0  0  0  0  0  0  0  0  0  0  0
   47.6090   31.7650   46.2800 C   0  0  2  0  0  0  0  0  0  0  0  0
   47.3030   30.3180   45.7870 C   0  0  0  0  0  0  0  0  0  0  0  0
   48.0900   29.3420   46.5910 C   0  0  0  0  0  0  0  0  0  0  0  0
   48.1200   29.5760   48.0630 C   0  0  0  0  0  0  0  0  0  0  0  0
   48.1750   30.9660   48.4480 C   0  0  0  0  0  0  0  0  0  0  0  0
   47.1970   31.8690   47.6650 C   0  0  2  0  0  0  0  0  0  0  0  0
   45.8420   31.3360   47.8270 N   0  0  0  0  0  0  0  0  0  0  0  0
   45.1830   30.7720   48.9350 C   0  0  0  0  0  0  0  0  0  0  0  0
   44.7120   31.4780   49.8990 O   0  0  0  0  0  0  0  0  0  0  0  0
   45.0680   29.3490   48.9020 N   0  0  0  0  0  0  0  0  0  0  0  0
   47.3370   34.2310   42.1060 C   0  0  0  0  0  0  0  0  0  0  0  0
   48.2240   35.2610   41.9020 C   0  0  0  0  0  0  0  0  0  0  0  0
   48.7670   35.6070   40.6820 C   0  0  0  0  0  0  0  0  0  0  0  0
   48.3520   34.8240   39.6340 C   0  0  0  0  0  0  0  0  0  0  0  0
   47.4530   33.7720   39.8140 C   0  0  0  0  0  0  0  0  0  0  0  0
   46.9540   33.4870   41.0540 N   0  0  0  0  0  0  0  0  0  0  0  0
   46.9700   32.8900   38.7070 C   0  0  0  0  0  0  0  0  0  0  0  0
   45.5130   32.5590   38.8030 C   0  0  0  0  0  0  0  0  0  0  0  0
   44.7100   33.1680   37.6520 C   0  0  0  0  0  0  0  0  0  0  0  0
   45.1410   32.7080   36.4120 O   0  0  0  0  0  0  0  0  0  0  0  0
   46.5350   32.6450   36.3310 C   0  0  0  0  0  0  0  0  0  0  0  0
   47.1950   33.5710   37.3510 C   0  0  0  0  0  0  0  0  0  0  0  0
   45.4982   33.1897   46.9455 H   0  0  0  0  0  0  0  0  0  0  0  0
   44.3149   34.9155   45.4913 H   0  0  0  0  0  0  0  0  0  0  0  0
   48.6883   31.9677   46.2163 H   0  0  0  0  0  0  0  0  0  0  0  0
   46.2295   30.1096   45.9058 H   0  0  0  0  0  0  0  0  0  0  0  0
   47.5794   30.2262   44.7263 H   0  0  0  0  0  0  0  0  0  0  0  0
   47.6630   28.3430   46.4184 H   0  0  0  0  0  0  0  0  0  0  0  0
   49.1310   29.4533   46.2534 H   0  0  0  0  0  0  0  0  0  0  0  0
   47.2120   29.1345   48.4995 H   0  0  0  0  0  0  0  0  0  0  0  0
   49.0457   29.1121   48.4343 H   0  0  0  0  0  0  0  0  0  0  0  0
   47.9330   31.0391   49.5186 H   0  0  0  0  0  0  0  0  0  0  0  0
   49.1909   31.3214   48.2206 H   0  0  0  0  0  0  0  0  0  0  0  0
   47.2044   32.9130   48.0113 H   0  0  0  0  0  0  0  0  0  0  0  0
   45.2666   31.3826   46.9740 H   0  0  0  0  0  0  0  0  0  0  0  0
   44.5996   28.8522   49.6731 H   0  0  0  0  0  0  0  0  0  0  0  0
   45.4535   28.8195   48.1071 H   0  0  0  0  0  0  0  0  0  0  0  0
   48.5237   35.8546   42.7783 H   0  0  0  0  0  0  0  0  0  0  0  0
   49.4737   36.4410   40.5593 H   0  0  0  0  0  0  0  0  0  0  0  0
   48.7384   35.0312   38.6252 H   0  0  0  0  0  0  0  0  0  0  0  0
   47.5474   31.9582   38.7983 H   0  0  0  0  0  0  0  0  0  0  0  0
   45.3949   31.4656   38.7790 H   0  0  0  0  0  0  0  0  0  0  0  0
   45.1302   32.9799   39.7444 H   0  0  0  0  0  0  0  0  0  0  0  0
   43.6501   32.9028   37.7798 H   0  0  0  0  0  0  0  0  0  0  0  0
   44.8548   34.2581   37.6777 H   0  0  0  0  0  0  0  0  0  0  0  0
   46.8584   31.6115   36.5241 H   0  0  0  0  0  0  0  0  0  0  0  0
   46.8382   32.9672   35.3239 H   0  0  0  0  0  0  0  0  0  0  0  0
   48.2703   33.6723   37.1426 H   0  0  0  0  0  0  0  0  0  0  0  0
   46.7724   34.5862   37.3226 H   0  0  0  0  0  0  0  0  0  0  0  0
  1  2  2  0
  1  7  1  0
  3  2  1  0
  4  3  2  0
  5  4  1  0
  5  6  2  0
  6  1  1  0
  7 12  1  0
  8  7  1  0
  8  9  1  0
  9 10  1  0
 10 11  1  0
 12 13  1  0
 12 11  1  0
 13 14  1  0
 14 15  2  0
 16 14  1  0
 17  5  1  0
 18 17  2  0
 19 18  1  0
 20 21  1  0
 20 19  2  0
 21 22  2  0
 22 17  1  0
 23 24  1  0
 23 21  1  0
 25 24  1  0
 26 25  1  0
 27 26  1  0
 27 28  1  0
 28 23  1  0
  2 29  1  0
  3 30  1  0
  7 31  1  1
  8 32  1  0
  8 33  1  0
  9 34  1  0
  9 35  1  0
 10 36  1  0
 10 37  1  0
 11 38  1  0
 11 39  1  0
 12 40  1  1
 13 41  1  0
 16 42  1  0
 16 43  1  0
 18 44  1  0
 19 45  1  0
 20 46  1  0
 23 47  1  0
 24 48  1  0
 24 49  1  0
 25 50  1  0
 25 51  1  0
 27 52  1  0
 27 53  1  0
 28 54  1  0
 28 55  1  0
M  ISO  8  29  14  30  14  31  13  32  13  33  13  34  13  35  13  36  13
M  ISO  8  37  13  38  13  39  13  40  13  44  14  45  14  46  14  47  13
M  ISO  8  48  13  49  13  50  13  51  13  52  13  53  13  54  13  55  13
M  END
>  <minimizedAffinity>  (1) 
-6.56111288

>  <minimizedRMSD>  (1) 
0.46226871

$$$$
