
     RDKit          3D

 54 57  0  0  1  0  0  0  0  0999 V2000
   46.9490   32.7410   45.5960 C   0  0  0  0  0  0  0  0  0  0  0  0
   45.8820   33.4340   46.1520 C   0  0  0  0  0  0  0  0  0  0  0  0
   45.1980   34.4020   45.3800 C   0  0  0  0  0  0  0  0  0  0  0  0
   45.6600   34.5970   44.0820 N   0  0  0  0  0  0  0  0  0  0  0  0
   46.6970   33.8960   43.6070 C   0  0  0  0  0  0  0  0  0  0  0  0
   47.3290   32.9850   44.3480 N   0  0  0  0  0  0  0  0  0  0  0  0
   47.6000   31.7440   46.4220 C   0  0  2  0  0  0  0  0  0  0  0  0
   47.3660   30.3040   45.8720 C   0  0  0  0  0  0  0  0  0  0  0  0
   48.1880   29.3390   46.6530 C   0  0  0  0  0  0  0  0  0  0  0  0
   48.1680   29.5140   48.1360 C   0  0  0  0  0  0  0  0  0  0  0  0
   48.1540   30.8880   48.5720 C   0  0  0  0  0  0  0  0  0  0  0  0
   47.1560   31.7790   47.8010 C   0  0  2  0  0  0  0  0  0  0  0  0
   45.8230   31.1840   47.9130 N   0  0  0  0  0  0  0  0  0  0  0  0
   45.1360   30.6290   49.0070 C   0  0  0  0  0  0  0  0  0  0  0  0
   44.5840   31.3430   49.9200 O   0  0  0  0  0  0  0  0  0  0  0  0
   45.0910   29.2030   49.0220 N   0  0  0  0  0  0  0  0  0  0  0  0
   47.1480   34.1650   42.2380 C   0  0  0  0  0  0  0  0  0  0  0  0
   48.1830   35.0250   41.9860 C   0  0  0  0  0  0  0  0  0  0  0  0
   48.6400   35.3080   40.7150 C   0  0  0  0  0  0  0  0  0  0  0  0
   47.9790   34.6600   39.6770 C   0  0  0  0  0  0  0  0  0  0  0  0
   46.9380   33.7940   39.9180 C   0  0  0  0  0  0  0  0  0  0  0  0
   46.5470   33.5670   41.2000 N   0  0  0  0  0  0  0  0  0  0  0  0
   44.8660   33.1420   38.7600 C   0  0  0  0  0  0  0  0  0  0  0  0
   46.2510   33.1200   38.8380 C   0  0  0  0  0  0  0  0  0  0  0  0
   46.9240   32.4350   37.8510 C   0  0  0  0  0  0  0  0  0  0  0  0
   46.3130   31.7760   36.8020 C   0  0  0  0  0  0  0  0  0  0  0  0
   44.9530   31.7840   36.7060 C   0  0  0  0  0  0  0  0  0  0  0  0
   44.2660   32.4680   37.6870 C   0  0  0  0  0  0  0  0  0  0  0  0
   43.8650   33.9680   39.9320 S   0  0  0  0  0  0  0  0  0  0  0  0
   42.8010   34.7400   39.1600 O   0  0  0  0  0  0  0  0  0  0  0  0
   43.1530   33.0180   40.8550 O   0  0  0  0  0  0  0  0  0  0  0  0
   45.5703   33.2313   47.1873 H   0  0  0  0  0  0  0  0  0  0  0  0
   44.3469   34.9699   45.7839 H   0  0  0  0  0  0  0  0  0  0  0  0
   48.6707   31.9940   46.3879 H   0  0  0  0  0  0  0  0  0  0  0  0
   46.3019   30.0424   45.9683 H   0  0  0  0  0  0  0  0  0  0  0  0
   47.6573   30.2627   44.8121 H   0  0  0  0  0  0  0  0  0  0  0  0
   47.8224   28.3261   46.4284 H   0  0  0  0  0  0  0  0  0  0  0  0
   49.2290   29.5193   46.3466 H   0  0  0  0  0  0  0  0  0  0  0  0
   47.2678   29.0189   48.5290 H   0  0  0  0  0  0  0  0  0  0  0  0
   49.1005   29.0724   48.5175 H   0  0  0  0  0  0  0  0  0  0  0  0
   47.8857   30.9102   49.6385 H   0  0  0  0  0  0  0  0  0  0  0  0
   49.1583   31.2939   48.3806 H   0  0  0  0  0  0  0  0  0  0  0  0
   47.1128   32.8089   48.1851 H   0  0  0  0  0  0  0  0  0  0  0  0
   45.2923   31.1693   47.0304 H   0  0  0  0  0  0  0  0  0  0  0  0
   44.6079   28.7110   49.7872 H   0  0  0  0  0  0  0  0  0  0  0  0
   45.5416   28.6656   48.2677 H   0  0  0  0  0  0  0  0  0  0  0  0
   48.6749   35.5149   42.8393 H   0  0  0  0  0  0  0  0  0  0  0  0
   49.4741   36.0020   40.5343 H   0  0  0  0  0  0  0  0  0  0  0  0
   48.2959   34.8442   38.6399 H   0  0  0  0  0  0  0  0  0  0  0  0
   48.0226   32.4110   37.9014 H   0  0  0  0  0  0  0  0  0  0  0  0
   46.9188   31.2490   36.0501 H   0  0  0  0  0  0  0  0  0  0  0  0
   44.4294   31.2701   35.8864 H   0  0  0  0  0  0  0  0  0  0  0  0
   43.1680   32.4860   37.6229 H   0  0  0  0  0  0  0  0  0  0  0  0
   44.6725   34.7737   40.6907 H   0  0  0  0  0  0  0  0  0  0  0  0
  1  2  2  0
  1  7  1  0
  3  2  1  0
  4  3  2  0
  5  4  1  0
  5  6  2  0
  6  1  1  0
  7 12  1  0
  8  7  1  0
  8  9  1  0
  9 10  1  0
 10 11  1  0
 12 13  1  0
 12 11  1  0
 13 14  1  0
 14 16  1  0
 14 15  2  0
 17  5  1  0
 18 17  2  0
 19 18  1  0
 20 21  1  0
 20 19  2  0
 21 22  2  0
 22 17  1  0
 23 24  2  0
 23 29  1  0
 24 21  1  0
 25 24  1  0
 26 25  2  0
 27 26  1  0
 27 28  2  0
 28 23  1  0
 29 31  2  0
 30 29  2  0
  2 32  1  0
  3 33  1  0
  7 34  1  1
  8 35  1  0
  8 36  1  0
  9 37  1  0
  9 38  1  0
 10 39  1  0
 10 40  1  0
 11 41  1  0
 11 42  1  0
 12 43  1  1
 13 44  1  0
 16 45  1  0
 16 46  1  0
 18 47  1  0
 19 48  1  0
 20 49  1  0
 25 50  1  0
 26 51  1  0
 27 52  1  0
 28 53  1  0
 29 54  1  0
M  ISO  8  32  14  33  14  34  13  35  13  36  13  37  13  38  13  39  13
M  ISO  8  40  13  41  13  42  13  43  13  47  14  48  14  49  14  50  14
M  ISO  4  51  14  52  14  53  14  54  11
M  END
>  <minimizedAffinity>  (1) 
-6.48686647

>  <minimizedRMSD>  (1) 
0.677872121

$$$$
