
     RDKit          3D

 48 51  0  0  1  0  0  0  0  0999 V2000
   47.4670   30.9760   45.8020 C   0  0  2  0  0  0  0  0  0  0  0  0
   46.7050   29.7430   45.2290 C   0  0  0  0  0  0  0  0  0  0  0  0
   47.3310   28.4920   45.7400 C   0  0  0  0  0  0  0  0  0  0  0  0
   47.6740   28.4730   47.1900 C   0  0  0  0  0  0  0  0  0  0  0  0
   48.1670   29.7280   47.7030 C   0  0  0  0  0  0  0  0  0  0  0  0
   47.3460   30.9550   47.2470 C   0  0  2  0  0  0  0  0  0  0  0  0
   46.9930   32.2130   45.2150 C   0  0  0  0  0  0  0  0  0  0  0  0
   45.9360   32.8590   45.8480 C   0  0  0  0  0  0  0  0  0  0  0  0
   45.4240   34.0550   45.2970 C   0  0  0  0  0  0  0  0  0  0  0  0
   46.0300   34.5150   44.1330 N   0  0  0  0  0  0  0  0  0  0  0  0
   47.0440   33.8460   43.5760 C   0  0  0  0  0  0  0  0  0  0  0  0
   47.5170   32.7160   44.1050 N   0  0  0  0  0  0  0  0  0  0  0  0
   47.6520   34.3950   42.3590 C   0  0  0  0  0  0  0  0  0  0  0  0
   48.5410   35.4450   42.4200 C   0  0  0  0  0  0  0  0  0  0  0  0
   49.1590   36.0220   41.3400 C   0  0  0  0  0  0  0  0  0  0  0  0
   48.8200   35.4620   40.1330 C   0  0  0  0  0  0  0  0  0  0  0  0
   47.9320   34.4070   40.0370 C   0  0  0  0  0  0  0  0  0  0  0  0
   47.3460   33.8740   41.1600 N   0  0  0  0  0  0  0  0  0  0  0  0
   47.5340   33.7650   38.7510 C   0  0  0  0  0  0  0  0  0  0  0  0
   48.1230   34.2400   37.4750 C   0  0  0  0  0  0  0  0  0  0  0  0
   48.6430   32.9430   38.0870 C   0  0  0  0  0  0  0  0  0  0  0  0
   45.9470   30.7470   47.6260 N   0  0  0  0  0  0  0  0  0  0  0  0
   45.3370   30.5630   48.8800 C   0  0  0  0  0  0  0  0  0  0  0  0
   45.1210   31.5260   49.7000 O   0  0  0  0  0  0  0  0  0  0  0  0
   44.9660   29.2160   49.1710 N   0  0  0  0  0  0  0  0  0  0  0  0
   48.5331   30.9189   45.5369 H   0  0  0  0  0  0  0  0  0  0  0  0
   46.7578   29.7573   44.1304 H   0  0  0  0  0  0  0  0  0  0  0  0
   45.6523   29.7825   45.5457 H   0  0  0  0  0  0  0  0  0  0  0  0
   46.6315   27.6646   45.5497 H   0  0  0  0  0  0  0  0  0  0  0  0
   48.2905   28.4048   45.2092 H   0  0  0  0  0  0  0  0  0  0  0  0
   46.7691   28.2027   47.7539 H   0  0  0  0  0  0  0  0  0  0  0  0
   48.4885   27.7435   47.3100 H   0  0  0  0  0  0  0  0  0  0  0  0
   48.1456   29.6856   48.8020 H   0  0  0  0  0  0  0  0  0  0  0  0
   49.1845   29.8584   47.3059 H   0  0  0  0  0  0  0  0  0  0  0  0
   47.6937   31.8958   47.6986 H   0  0  0  0  0  0  0  0  0  0  0  0
   45.5027   32.4424   46.7692 H   0  0  0  0  0  0  0  0  0  0  0  0
   44.5880   34.5952   45.7653 H   0  0  0  0  0  0  0  0  0  0  0  0
   48.7741   35.8536   43.4143 H   0  0  0  0  0  0  0  0  0  0  0  0
   49.8649   36.8605   41.4327 H   0  0  0  0  0  0  0  0  0  0  0  0
   49.2692   35.8656   39.2136 H   0  0  0  0  0  0  0  0  0  0  0  0
   46.4948   33.6047   39.0740 H   0  0  0  0  0  0  0  0  0  0  0  0
   48.7617   35.1356   37.4676 H   0  0  0  0  0  0  0  0  0  0  0  0
   47.7126   34.5188   36.4932 H   0  0  0  0  0  0  0  0  0  0  0  0
   48.4118   31.9755   37.6174 H   0  0  0  0  0  0  0  0  0  0  0  0
   49.6253   32.5522   38.3910 H   0  0  0  0  0  0  0  0  0  0  0  0
   45.2918   30.7329   46.8314 H   0  0  0  0  0  0  0  0  0  0  0  0
   44.5130   28.9889   50.0677 H   0  0  0  0  0  0  0  0  0  0  0  0
   45.1513   28.4710   48.4843 H   0  0  0  0  0  0  0  0  0  0  0  0
  1  6  1  0
  2  3  1  0
  2  1  1  0
  3  4  1  0
  4  5  1  0
  6 22  1  0
  6  5  1  0
  7  1  1  0
  7  8  2  0
  9  8  1  0
 10  9  2  0
 11 12  2  0
 11 10  1  0
 12  7  1  0
 13 14  2  0
 13 11  1  0
 15 14  1  0
 16 15  2  0
 17 16  1  0
 17 18  2  0
 18 13  1  0
 19 17  1  0
 20 21  1  0
 20 19  1  0
 21 19  1  0
 22 23  1  0
 23 25  1  0
 23 24  2  0
  1 26  1  1
  2 27  1  0
  2 28  1  0
  3 29  1  0
  3 30  1  0
  4 31  1  0
  4 32  1  0
  5 33  1  0
  5 34  1  0
  6 35  1  1
  8 36  1  0
  9 37  1  0
 14 38  1  0
 15 39  1  0
 16 40  1  0
 19 41  1  0
 20 42  1  0
 20 43  1  0
 21 44  1  0
 21 45  1  0
 22 46  1  0
 25 47  1  0
 25 48  1  0
M  ISO  8  26  13  27  13  28  13  29  13  30  13  31  13  32  13  33  13
M  ISO  8  34  13  35  13  36  14  37  14  38  14  39  14  40  14  41  13
M  ISO  4  42  13  43  13  44  13  45  13
M  END
>  <minimizedAffinity>  (1) 
-6.09681892

>  <minimizedRMSD>  (1) 
1.35265207

$$$$
