
     RDKit          3D

 47 49  0  0  1  0  0  0  0  0999 V2000
   47.5950   31.8210   46.3420 C   0  0  2  0  0  0  0  0  0  0  0  0
   47.3530   30.3710   45.8280 C   0  0  0  0  0  0  0  0  0  0  0  0
   48.1710   29.4190   46.6380 C   0  0  0  0  0  0  0  0  0  0  0  0
   48.1460   29.6330   48.1150 C   0  0  0  0  0  0  0  0  0  0  0  0
   48.1500   31.0220   48.5120 C   0  0  0  0  0  0  0  0  0  0  0  0
   47.1520   31.8970   47.7210 C   0  0  2  0  0  0  0  0  0  0  0  0
   46.9490   32.8000   45.4900 C   0  0  0  0  0  0  0  0  0  0  0  0
   45.8460   33.4650   46.0060 C   0  0  0  0  0  0  0  0  0  0  0  0
   45.1660   34.4130   45.2070 C   0  0  0  0  0  0  0  0  0  0  0  0
   45.6730   34.6170   43.9220 N   0  0  0  0  0  0  0  0  0  0  0  0
   46.7400   33.9440   43.4890 C   0  0  0  0  0  0  0  0  0  0  0  0
   47.3690   33.0510   44.2560 N   0  0  0  0  0  0  0  0  0  0  0  0
   47.2300   34.2210   42.1350 C   0  0  0  0  0  0  0  0  0  0  0  0
   48.2300   35.1390   41.9140 C   0  0  0  0  0  0  0  0  0  0  0  0
   48.7540   35.4650   40.6880 C   0  0  0  0  0  0  0  0  0  0  0  0
   48.1890   34.7800   39.6360 C   0  0  0  0  0  0  0  0  0  0  0  0
   47.1730   33.8430   39.8270 C   0  0  0  0  0  0  0  0  0  0  0  0
   46.7010   33.5720   41.0850 N   0  0  0  0  0  0  0  0  0  0  0  0
   46.5600   33.1050   38.7100 C   0  0  0  0  0  0  0  0  0  0  0  0
   47.1260   33.5430   37.3690 C   0  0  0  0  0  0  0  0  0  0  0  0
   45.8140   31.3130   47.8480 N   0  0  0  0  0  0  0  0  0  0  0  0
   45.1450   30.7320   48.9400 C   0  0  0  0  0  0  0  0  0  0  0  0
   44.6210   31.4240   49.8860 O   0  0  0  0  0  0  0  0  0  0  0  0
   45.0830   29.3030   48.9120 N   0  0  0  0  0  0  0  0  0  0  0  0
   48.6676   32.0617   46.3029 H   0  0  0  0  0  0  0  0  0  0  0  0
   46.2872   30.1181   45.9289 H   0  0  0  0  0  0  0  0  0  0  0  0
   47.6449   30.3008   44.7698 H   0  0  0  0  0  0  0  0  0  0  0  0
   47.8015   28.4024   46.4382 H   0  0  0  0  0  0  0  0  0  0  0  0
   49.2139   29.5853   46.3302 H   0  0  0  0  0  0  0  0  0  0  0  0
   47.2366   29.1620   48.5165 H   0  0  0  0  0  0  0  0  0  0  0  0
   49.0687   29.1872   48.5148 H   0  0  0  0  0  0  0  0  0  0  0  0
   47.8912   31.0788   49.5796 H   0  0  0  0  0  0  0  0  0  0  0  0
   49.1565   31.4132   48.3027 H   0  0  0  0  0  0  0  0  0  0  0  0
   47.1129   32.9358   48.0806 H   0  0  0  0  0  0  0  0  0  0  0  0
   45.5027   33.2561   47.0300 H   0  0  0  0  0  0  0  0  0  0  0  0
   44.2862   34.9596   45.5773 H   0  0  0  0  0  0  0  0  0  0  0  0
   48.6443   35.6548   42.7928 H   0  0  0  0  0  0  0  0  0  0  0  0
   49.5546   36.2079   40.5576 H   0  0  0  0  0  0  0  0  0  0  0  0
   48.5489   34.9771   38.6154 H   0  0  0  0  0  0  0  0  0  0  0  0
   46.7526   32.0304   38.8444 H   0  0  0  0  0  0  0  0  0  0  0  0
   45.4803   33.3152   38.7116 H   0  0  0  0  0  0  0  0  0  0  0  0
   47.9861   34.2086   37.5338 H   0  0  0  0  0  0  0  0  0  0  0  0
   47.4504   32.6584   36.8014 H   0  0  0  0  0  0  0  0  0  0  0  0
   46.3511   34.0790   36.8014 H   0  0  0  0  0  0  0  0  0  0  0  0
   45.2626   31.3314   46.9782 H   0  0  0  0  0  0  0  0  0  0  0  0
   44.6113   28.7930   49.6725 H   0  0  0  0  0  0  0  0  0  0  0  0
   45.5100   28.7842   48.1314 H   0  0  0  0  0  0  0  0  0  0  0  0
  1  6  1  0
  2  1  1  0
  2  3  1  0
  3  4  1  0
  4  5  1  0
  6 21  1  0
  6  5  1  0
  7  8  2  0
  7  1  1  0
  9  8  1  0
 10  9  2  0
 11 10  1  0
 11 12  2  0
 12  7  1  0
 13 11  1  0
 14 13  2  0
 15 14  1  0
 16 17  1  0
 16 15  2  0
 17 18  2  0
 18 13  1  0
 19 17  1  0
 20 19  1  0
 21 22  1  0
 22 23  2  0
 24 22  1  0
  1 25  1  1
  2 26  1  0
  2 27  1  0
  3 28  1  0
  3 29  1  0
  4 30  1  0
  4 31  1  0
  5 32  1  0
  5 33  1  0
  6 34  1  1
  8 35  1  0
  9 36  1  0
 14 37  1  0
 15 38  1  0
 16 39  1  0
 19 40  1  0
 19 41  1  0
 20 42  1  0
 20 43  1  0
 20 44  1  0
 21 45  1  0
 24 46  1  0
 24 47  1  0
M  ISO  8  25  13  26  13  27  13  28  13  29  13  30  13  31  13  32  13
M  ISO  8  33  13  34  13  35  14  36  14  37  14  38  14  39  14  40   8
M  ISO  4  41   8  42   8  43   8  44   8
M  END
>  <minimizedAffinity>  (1) 
-6.0053997

>  <minimizedRMSD>  (1) 
0.15894635

$$$$
