
     RDKit          3D

 30 33  0  0  0  0  0  0  0  0999 V2000
   45.4920   34.8280   43.5420 C   0  0  0  0  0  0  0  0  0  0  0  0
   46.2030   33.7440   44.1180 C   0  0  0  0  0  0  0  0  0  0  0  0
   46.0180   33.5200   45.4740 C   0  0  0  0  0  0  0  0  0  0  0  0
   45.1910   34.3210   46.1640 N   0  0  0  0  0  0  0  0  0  0  0  0
   44.5220   35.3500   45.5910 C   0  0  0  0  0  0  0  0  0  0  0  0
   44.6790   35.5900   44.2990 N   0  0  0  0  0  0  0  0  0  0  0  0
   47.0070   32.6910   47.5400 C   0  0  0  0  0  0  0  0  0  0  0  0
   46.6840   32.4410   46.2050 C   0  0  0  0  0  0  0  0  0  0  0  0
   47.0050   31.2260   45.6730 C   0  0  0  0  0  0  0  0  0  0  0  0
   47.6350   30.2390   46.4010 C   0  0  0  0  0  0  0  0  0  0  0  0
   48.0390   28.9880   46.0870 N   0  0  0  0  0  0  0  0  0  0  0  0
   48.6170   28.4480   47.2260 C   0  0  0  0  0  0  0  0  0  0  0  0
   48.5530   29.3750   48.2000 N   0  0  0  0  0  0  0  0  0  0  0  0
   47.9570   30.4730   47.7140 C   0  0  0  0  0  0  0  0  0  0  0  0
   47.6430   31.6980   48.2830 C   0  0  0  0  0  0  0  0  0  0  0  0
   45.6820   35.0520   42.1740 O   0  0  0  0  0  0  0  0  0  0  0  0
   44.6080   34.9380   41.3040 C   0  0  0  0  0  0  0  0  0  0  0  0
   45.0110   33.8190   40.6060 C   0  0  0  0  0  0  0  0  0  0  0  0
   43.5860   33.5820   39.3760 S   0  0  0  0  0  0  0  0  0  0  0  0
   42.7280   35.1100   40.1090 C   0  0  0  0  0  0  0  0  0  0  0  0
   43.4550   35.4180   40.9020 N   0  0  0  0  0  0  0  0  0  0  0  0
   46.8708   33.1099   43.5164 H   0  0  0  0  0  0  0  0  0  0  0  0
   43.8534   35.9812   46.1948 H   0  0  0  0  0  0  0  0  0  0  0  0
   46.7625   33.6599   47.9999 H   0  0  0  0  0  0  0  0  0  0  0  0
   46.7510   31.0261   44.6216 H   0  0  0  0  0  0  0  0  0  0  0  0
   47.9368   28.5232   45.1735 H   0  0  0  0  0  0  0  0  0  0  0  0
   49.0507   27.4412   47.3173 H   0  0  0  0  0  0  0  0  0  0  0  0
   47.8995   31.8887   49.3355 H   0  0  0  0  0  0  0  0  0  0  0  0
   45.9240   33.2182   40.7304 H   0  0  0  0  0  0  0  0  0  0  0  0
   41.7694   35.5706   39.8281 H   0  0  0  0  0  0  0  0  0  0  0  0
  1  2  2  0
  1  6  1  0
  2  3  1  0
  3  4  2  0
  3  8  1  0
  5  4  1  0
  6  5  2  0
  7 15  2  0
  8  7  1  0
  9  8  2  0
  9 10  1  0
 10 14  2  0
 11 10  1  0
 11 12  1  0
 12 13  2  0
 14 13  1  0
 14 15  1  0
 16  1  1  0
 17 16  1  0
 18 17  2  0
 19 20  1  0
 19 18  1  0
 20 21  2  0
 21 17  1  0
  2 22  1  0
  5 23  1  0
  7 24  1  0
  9 25  1  0
 11 26  1  0
 12 27  1  0
 15 28  1  0
 18 29  1  0
 20 30  1  0
M  ISO  8  22  14  23  14  24  14  25  14  26   9  27  14  28  14  29  14
M  ISO  1  30  14
M  END
>  <minimizedAffinity>  (1) 
-5.24427509

>  <minimizedRMSD>  (1) 
6.8848505

$$$$
