
     RDKit          3D

 43 48  0  0  0  0  0  0  0  0999 V2000
   45.8370   34.7140   43.6590 C   0  0  0  0  0  0  0  0  0  0  0  0
   46.5450   33.6760   44.2960 C   0  0  0  0  0  0  0  0  0  0  0  0
   46.2400   33.4050   45.6160 C   0  0  0  0  0  0  0  0  0  0  0  0
   45.2920   34.1290   46.2310 N   0  0  0  0  0  0  0  0  0  0  0  0
   44.6150   35.1280   45.6020 C   0  0  0  0  0  0  0  0  0  0  0  0
   44.8920   35.4080   44.3350 N   0  0  0  0  0  0  0  0  0  0  0  0
   47.1750   32.6400   47.7310 C   0  0  0  0  0  0  0  0  0  0  0  0
   46.8960   32.3560   46.3970 C   0  0  0  0  0  0  0  0  0  0  0  0
   47.2490   31.1230   45.9020 C   0  0  0  0  0  0  0  0  0  0  0  0
   47.8640   30.1700   46.6830 C   0  0  0  0  0  0  0  0  0  0  0  0
   48.2920   28.9080   46.4050 N   0  0  0  0  0  0  0  0  0  0  0  0
   48.8390   28.4070   47.5740 C   0  0  0  0  0  0  0  0  0  0  0  0
   48.7380   29.3490   48.5170 N   0  0  0  0  0  0  0  0  0  0  0  0
   48.1420   30.4410   47.9960 C   0  0  0  0  0  0  0  0  0  0  0  0
   47.8000   31.6690   48.5160 C   0  0  0  0  0  0  0  0  0  0  0  0
   46.1340   34.9980   42.3280 O   0  0  0  0  0  0  0  0  0  0  0  0
   45.2630   34.6110   41.3180 C   0  0  0  0  0  0  0  0  0  0  0  0
   46.0040   33.6720   40.6940 C   0  0  0  0  0  0  0  0  0  0  0  0
   44.8160   33.1230   39.2980 S   0  0  0  0  0  0  0  0  0  0  0  0
   43.5420   34.3610   39.9300 C   0  0  0  0  0  0  0  0  0  0  0  0
   44.0820   34.7970   40.7810 N   0  0  0  0  0  0  0  0  0  0  0  0
   41.9680   35.4630   38.3180 C   0  0  0  0  0  0  0  0  0  0  0  0
   42.2280   34.4470   39.1940 C   0  0  0  0  0  0  0  0  0  0  0  0
   41.4070   33.4160   39.5270 C   0  0  0  0  0  0  0  0  0  0  0  0
   40.1590   33.4110   38.8920 C   0  0  0  0  0  0  0  0  0  0  0  0
   39.8350   34.4230   37.9880 C   0  0  0  0  0  0  0  0  0  0  0  0
   40.7320   35.4470   37.6990 C   0  0  0  0  0  0  0  0  0  0  0  0
   38.5370   34.1600   37.5150 O   0  0  0  0  0  0  0  0  0  0  0  0
   38.2210   32.8070   37.8380 C   0  0  0  0  0  0  0  0  0  0  0  0
   39.0510   32.5470   38.9570 O   0  0  0  0  0  0  0  0  0  0  0  0
   47.3146   33.1007   43.7606 H   0  0  0  0  0  0  0  0  0  0  0  0
   43.8439   35.6991   46.1399 H   0  0  0  0  0  0  0  0  0  0  0  0
   46.9067   33.6163   48.1609 H   0  0  0  0  0  0  0  0  0  0  0  0
   47.0334   30.8903   44.8487 H   0  0  0  0  0  0  0  0  0  0  0  0
   48.2224   28.4204   45.5004 H   0  0  0  0  0  0  0  0  0  0  0  0
   49.2800   27.4077   47.7041 H   0  0  0  0  0  0  0  0  0  0  0  0
   48.0234   31.8895   49.5703 H   0  0  0  0  0  0  0  0  0  0  0  0
   47.0191   33.3171   40.9257 H   0  0  0  0  0  0  0  0  0  0  0  0
   42.7052   36.2539   38.1155 H   0  0  0  0  0  0  0  0  0  0  0  0
   41.7030   32.6384   40.2465 H   0  0  0  0  0  0  0  0  0  0  0  0
   40.4597   36.2372   36.9839 H   0  0  0  0  0  0  0  0  0  0  0  0
   37.1581   32.7006   38.1003 H   0  0  0  0  0  0  0  0  0  0  0  0
   38.3868   32.1107   37.0028 H   0  0  0  0  0  0  0  0  0  0  0  0
  1  2  2  0
  1  6  1  0
  2  3  1  0
  3  4  2  0
  3  8  1  0
  5  4  1  0
  6  5  2  0
  7 15  2  0
  8  7  1  0
  9  8  2  0
  9 10  1  0
 10 14  2  0
 11 10  1  0
 11 12  1  0
 12 13  2  0
 14 15  1  0
 14 13  1  0
 16  1  1  0
 17 16  1  0
 18 17  2  0
 19 20  1  0
 19 18  1  0
 20 21  2  0
 21 17  1  0
 22 23  2  0
 23 24  1  0
 23 20  1  0
 25 30  1  0
 25 24  2  0
 26 25  1  0
 27 26  2  0
 27 22  1  0
 28 29  1  0
 28 26  1  0
 29 30  1  0
  2 31  1  0
  5 32  1  0
  7 33  1  0
  9 34  1  0
 11 35  1  0
 12 36  1  0
 15 37  1  0
 18 38  1  0
 22 39  1  0
 24 40  1  0
 27 41  1  0
 29 42  1  0
 29 43  1  0
M  ISO  8  31  14  32  14  33  14  34  14  35   9  36  14  37  14  38  14
M  ISO  5  39  14  40  14  41  14  42  13  43  13
M  END
>  <minimizedAffinity>  (1) 
-7.32141972

>  <minimizedRMSD>  (1) 
1.52902365

$$$$
