
     RDKit          3D

 14 14  0  0  0  0  0  0  0  0999 V2000
   45.4210   35.0660   44.1770 C   0  0  0  0  0  0  0  0  0  0  0  0
   46.4560   34.3200   43.6040 C   0  0  0  0  0  0  0  0  0  0  0  0
   47.0240   33.2580   44.2960 C   0  0  0  0  0  0  0  0  0  0  0  0
   46.5210   32.9960   45.5400 N   0  0  0  0  0  0  0  0  0  0  0  0
   45.5290   33.7270   46.0640 C   0  0  0  0  0  0  0  0  0  0  0  0
   44.9600   34.7580   45.4200 N   0  0  0  0  0  0  0  0  0  0  0  0
   47.0500   34.7460   41.9570 S   0  0  0  0  0  0  0  0  0  0  0  0
   44.8050   36.1950   43.4620 C   0  0  0  0  0  0  0  0  0  0  0  0
   47.8383   32.6574   43.8644 H   0  0  0  0  0  0  0  0  0  0  0  0
   45.1633   33.4706   47.0692 H   0  0  0  0  0  0  0  0  0  0  0  0
   48.1599   35.5420   42.0636 H   0  0  0  0  0  0  0  0  0  0  0  0
   44.4101   36.9187   44.1903 H   0  0  0  0  0  0  0  0  0  0  0  0
   45.5606   36.6853   42.8306 H   0  0  0  0  0  0  0  0  0  0  0  0
   43.9838   35.8250   42.8306 H   0  0  0  0  0  0  0  0  0  0  0  0
  1  6  2  0
  2  1  1  0
  2  3  2  0
  3  4  1  0
  4  5  2  0
  6  5  1  0
  7  2  1  0
  8  1  1  0
  3  9  1  0
  5 10  1  0
  7 11  1  0
  8 12  1  0
  8 13  1  0
  8 14  1  0
M  ISO  6   9  14  10  14  11  11  12   8  13   8  14   8
M  END
>  <minimizedAffinity>  (1) 
-2.90223932

>  <minimizedRMSD>  (1) 
1.88446593

$$$$
