
     RDKit          3D

 12 12  0  0  0  0  0  0  0  0999 V2000
   44.7080   35.2350   44.2520 C   0  0  0  0  0  0  0  0  0  0  0  0
   45.0340   34.2660   43.2820 C   0  0  0  0  0  0  0  0  0  0  0  0
   45.5850   33.0490   43.6780 C   0  0  0  0  0  0  0  0  0  0  0  0
   45.7830   32.8580   45.0060 N   0  0  0  0  0  0  0  0  0  0  0  0
   45.4620   33.8020   45.9180 C   0  0  0  0  0  0  0  0  0  0  0  0
   44.9330   34.9770   45.5680 N   0  0  0  0  0  0  0  0  0  0  0  0
   44.7420   34.5940   41.5360 S   0  0  0  0  0  0  0  0  0  0  0  0
   44.1570   36.4540   43.8600 O   0  0  0  0  0  0  0  0  0  0  0  0
   45.8488   32.2743   42.9430 H   0  0  0  0  0  0  0  0  0  0  0  0
   45.6423   33.5958   46.9833 H   0  0  0  0  0  0  0  0  0  0  0  0
   43.8350   35.6128   41.4082 H   0  0  0  0  0  0  0  0  0  0  0  0
   43.9946   36.6383   42.9009 H   0  0  0  0  0  0  0  0  0  0  0  0
  1  6  2  0
  2  3  2  0
  2  1  1  0
  3  4  1  0
  4  5  2  0
  6  5  1  0
  7  2  1  0
  8  1  1  0
  3  9  1  0
  5 10  1  0
  7 11  1  0
  8 12  1  0
M  ISO  4   9  14  10  14  11  11  12   3
M  END
>  <minimizedAffinity>  (1) 
-2.93415928

>  <minimizedRMSD>  (1) 
0.813695073

$$$$
