
     RDKit          3D

 23 24  0  0  0  0  0  0  0  0999 V2000
   46.6920   34.2300   40.6860 C   0  0  0  0  0  0  0  0  0  0  0  0
   48.0440   34.1920   41.3060 C   0  0  0  0  0  0  0  0  0  0  0  0
   48.7380   32.9780   41.1680 C   0  0  0  0  0  0  0  0  0  0  0  0
   50.0050   32.8710   41.7220 C   0  0  0  0  0  0  0  0  0  0  0  0
   50.5240   33.9510   42.3790 N   0  0  0  0  0  0  0  0  0  0  0  0
   49.8270   35.0930   42.4880 C   0  0  0  0  0  0  0  0  0  0  0  0
   48.6110   35.2140   41.9630 N   0  0  0  0  0  0  0  0  0  0  0  0
   48.0070   31.5920   40.2950 S   0  0  0  0  0  0  0  0  0  0  0  0
   45.6150   34.5850   41.6560 C   0  0  0  0  0  0  0  0  0  0  0  0
   44.2550   34.6620   41.0600 C   0  0  0  0  0  0  0  0  0  0  0  0
   43.2320   35.4450   41.7040 C   0  0  0  0  0  0  0  0  0  0  0  0
   41.7770   35.2070   40.5860 S   0  0  0  0  0  0  0  0  0  0  0  0
   42.8160   34.0970   39.4540 C   0  0  0  0  0  0  0  0  0  0  0  0
   43.8390   34.0710   39.9510 N   0  0  0  0  0  0  0  0  0  0  0  0
   46.6973   34.9777   39.8792 H   0  0  0  0  0  0  0  0  0  0  0  0
   46.4748   33.2198   40.3086 H   0  0  0  0  0  0  0  0  0  0  0  0
   50.5796   31.9371   41.6344 H   0  0  0  0  0  0  0  0  0  0  0  0
   50.2705   35.9461   43.0224 H   0  0  0  0  0  0  0  0  0  0  0  0
   47.5276   30.6831   41.2011 H   0  0  0  0  0  0  0  0  0  0  0  0
   45.6008   33.8228   42.4490 H   0  0  0  0  0  0  0  0  0  0  0  0
   45.8506   35.5909   42.0336 H   0  0  0  0  0  0  0  0  0  0  0  0
   43.2989   36.0365   42.6290 H   0  0  0  0  0  0  0  0  0  0  0  0
   42.5016   33.5931   38.5281 H   0  0  0  0  0  0  0  0  0  0  0  0
  1  2  1  0
  1  9  1  0
  2  7  1  0
  3  2  2  0
  3  4  1  0
  4  5  2  0
  5  6  1  0
  7  6  2  0
  8  3  1  0
 10  9  1  0
 10 11  2  0
 12 11  1  0
 13 14  2  0
 13 12  1  0
 14 10  1  0
  1 15  1  0
  1 16  1  0
  4 17  1  0
  6 18  1  0
  8 19  1  0
  9 20  1  0
  9 21  1  0
 11 22  1  0
 13 23  1  0
M  ISO  8  15   8  16   8  17  14  18  14  19  11  20   8  21   8  22  14
M  ISO  1  23  14
M  END
>  <minimizedAffinity>  (1) 
-3.62919545

>  <minimizedRMSD>  (1) 
5.06068611

$$$$
