
     RDKit          3D

 32 34  0  0  1  0  0  0  0  0999 V2000
   48.2430   34.5390   41.2030 C   0  0  1  0  0  0  0  0  0  0  0  0
   48.8970   35.8720   41.7380 C   0  0  0  0  0  0  0  0  0  0  0  0
   49.1500   34.5610   42.3440 C   0  0  2  0  0  0  0  0  0  0  0  0
   46.7660   34.5240   41.4110 C   0  0  0  0  0  0  0  0  0  0  0  0
   46.0620   34.2850   40.4380 O   0  0  0  0  0  0  0  0  0  0  0  0
   45.4510   35.9060   42.9470 C   0  0  0  0  0  0  0  0  0  0  0  0
   46.1240   34.7660   42.6610 C   0  0  0  0  0  0  0  0  0  0  0  0
   46.1770   33.7680   43.6760 C   0  0  0  0  0  0  0  0  0  0  0  0
   45.5750   33.9730   44.8690 N   0  0  0  0  0  0  0  0  0  0  0  0
   44.9100   35.1420   45.1030 C   0  0  0  0  0  0  0  0  0  0  0  0
   44.8530   36.0730   44.1710 N   0  0  0  0  0  0  0  0  0  0  0  0
   50.4620   34.1230   42.2210 O   0  0  0  0  0  0  0  0  0  0  0  0
   49.0990   32.0210   42.8390 O   0  0  0  0  0  0  0  0  0  0  0  0
   50.4040   32.4220   42.1780 P   0  0  2  0  0  0  0  0  0  0  0  0
   51.7220   31.7060   42.9000 O   0  0  0  0  0  0  0  0  0  0  0  0
   50.2440   31.9570   40.5350 O   0  0  0  0  0  0  0  0  0  0  0  0
   51.3370   31.6750   39.7260 C   0  0  0  0  0  0  0  0  0  0  0  0
   51.3460   31.4980   38.3420 C   0  0  0  0  0  0  0  0  0  0  0  0
   52.6260   31.2330   37.8940 C   0  0  0  0  0  0  0  0  0  0  0  0
   53.3540   31.2640   39.0800 C   0  0  0  0  0  0  0  0  0  0  0  0
   52.5920   31.5200   40.1120 O   0  0  0  0  0  0  0  0  0  0  0  0
   48.2094   33.9247   40.2911 H   0  0  0  0  0  0  0  0  0  0  0  0
   49.6822   36.3798   41.1588 H   0  0  0  0  0  0  0  0  0  0  0  0
   48.5351   36.8512   42.0848 H   0  0  0  0  0  0  0  0  0  0  0  0
   49.0330   34.1216   43.3456 H   0  0  0  0  0  0  0  0  0  0  0  0
   45.3832   36.7039   42.1928 H   0  0  0  0  0  0  0  0  0  0  0  0
   46.7110   32.8248   43.4880 H   0  0  0  0  0  0  0  0  0  0  0  0
   44.4195   35.3081   46.0735 H   0  0  0  0  0  0  0  0  0  0  0  0
   51.6275   31.7573   43.8841 H   0  0  0  0  0  0  0  0  0  0  0  0
   50.4572   31.5607   37.6969 H   0  0  0  0  0  0  0  0  0  0  0  0
   52.9776   31.0464   36.8686 H   0  0  0  0  0  0  0  0  0  0  0  0
   54.4390   31.0938   39.1420 H   0  0  0  0  0  0  0  0  0  0  0  0
  1  4  1  0
  1  2  1  0
  1  3  1  0
  2  3  1  0
  4  7  1  0
  5  4  2  0
  6 11  2  0
  7  6  1  0
  7  8  2  0
  8  9  1  0
  9 10  2  0
 11 10  1  0
 12  3  1  0
 14 12  1  0
 14 13  2  0
 14 15  1  0
 16 14  1  0
 17 21  1  0
 17 16  1  0
 18 17  2  0
 19 18  1  0
 19 20  2  0
 20 21  1  0
  1 22  1  6
  2 23  1  0
  2 24  1  0
  3 25  1  1
  6 26  1  0
  8 27  1  0
 10 28  1  0
 15 29  1  0
 18 30  1  0
 19 31  1  0
 20 32  1  0
M  ISO  8  22  13  23  13  24  13  25  13  26  14  27  14  28  14  29   3
M  ISO  3  30  14  31  14  32  14
M  END
>  <minimizedAffinity>  (1) 
-5.08376789

>  <minimizedRMSD>  (1) 
1.07406187

$$$$
