
     RDKit          3D

 23 23  0  0  0  0  0  0  0  0999 V2000
   48.6090   35.4890   40.8830 C   0  0  0  0  0  0  0  0  0  0  0  0
   47.8240   34.8900   41.9740 C   0  0  0  0  0  0  0  0  0  0  0  0
   48.4740   33.9100   42.7320 C   0  0  0  0  0  0  0  0  0  0  0  0
   47.7810   33.3050   43.7810 C   0  0  0  0  0  0  0  0  0  0  0  0
   46.4910   33.6970   44.0250 N   0  0  0  0  0  0  0  0  0  0  0  0
   45.9060   34.6430   43.2690 C   0  0  0  0  0  0  0  0  0  0  0  0
   46.5500   35.2390   42.2570 N   0  0  0  0  0  0  0  0  0  0  0  0
   50.1590   33.4430   42.3640 S   0  0  0  0  0  0  0  0  0  0  0  0
   48.5770   34.6930   39.6140 C   0  0  0  0  0  0  0  0  0  0  0  0
   47.3550   34.0990   39.3510 O   0  0  0  0  0  0  0  0  0  0  0  0
   48.6340   34.1070   37.0140 O   0  0  0  0  0  0  0  0  0  0  0  0
   47.4340   33.5350   37.7420 P   0  0  0  0  0  0  0  0  0  0  0  0
   46.0040   34.0660   36.9780 O   0  0  0  0  0  0  0  0  0  0  0  0
   47.5160   31.8590   37.7750 O   0  0  0  0  0  0  0  0  0  0  0  0
   48.2068   36.4915   40.6749 H   0  0  0  0  0  0  0  0  0  0  0  0
   49.6562   35.5197   41.2182 H   0  0  0  0  0  0  0  0  0  0  0  0
   48.2596   32.5306   44.3984 H   0  0  0  0  0  0  0  0  0  0  0  0
   44.8686   34.9358   43.4881 H   0  0  0  0  0  0  0  0  0  0  0  0
   50.8460   33.2526   43.5339 H   0  0  0  0  0  0  0  0  0  0  0  0
   48.8216   35.3651   38.7782 H   0  0  0  0  0  0  0  0  0  0  0  0
   49.3071   33.8787   39.7315 H   0  0  0  0  0  0  0  0  0  0  0  0
   45.3356   34.3142   37.6648 H   0  0  0  0  0  0  0  0  0  0  0  0
   47.5312   31.5478   38.7147 H   0  0  0  0  0  0  0  0  0  0  0  0
  1  2  1  0
  2  7  2  0
  2  3  1  0
  3  4  2  0
  4  5  1  0
  6  5  2  0
  7  6  1  0
  8  3  1  0
  9  1  1  0
 10  9  1  0
 11 12  2  0
 12 14  1  0
 12 10  1  0
 13 12  1  0
  1 15  1  0
  1 16  1  0
  4 17  1  0
  6 18  1  0
  8 19  1  0
  9 20  1  0
  9 21  1  0
 13 22  1  0
 14 23  1  0
M  ISO  8  15   8  16   8  17  14  18  14  19  11  20   8  21   8  22   3
M  ISO  1  23   3
M  END
>  <minimizedAffinity>  (1) 
-3.61613917

>  <minimizedRMSD>  (1) 
0.729884744

$$$$
