
     RDKit          3D

 36 39  0  0  0  0  0  0  0  0999 V2000
   44.3610   34.1590   41.4410 C   0  0  0  0  0  0  0  0  0  0  0  0
   44.0120   35.3000   42.2400 C   0  0  0  0  0  0  0  0  0  0  0  0
   42.2820   35.6560   41.6660 S   0  0  0  0  0  0  0  0  0  0  0  0
   42.3550   34.2050   40.4610 C   0  0  0  0  0  0  0  0  0  0  0  0
   43.4010   33.7810   40.6300 N   0  0  0  0  0  0  0  0  0  0  0  0
   40.2240   34.8020   39.3400 C   0  0  0  0  0  0  0  0  0  0  0  0
   41.2120   33.8780   39.6030 C   0  0  0  0  0  0  0  0  0  0  0  0
   41.1190   32.6120   39.0380 C   0  0  0  0  0  0  0  0  0  0  0  0
   40.0600   32.2650   38.2240 C   0  0  0  0  0  0  0  0  0  0  0  0
   39.7470   31.1120   37.5650 N   0  0  0  0  0  0  0  0  0  0  0  0
   38.6020   31.3240   36.9180 N   0  0  0  0  0  0  0  0  0  0  0  0
   38.1480   32.5690   37.1250 C   0  0  0  0  0  0  0  0  0  0  0  0
   39.0610   33.1770   37.9500 C   0  0  0  0  0  0  0  0  0  0  0  0
   39.1780   34.4260   38.5230 C   0  0  0  0  0  0  0  0  0  0  0  0
   45.7050   33.5270   41.5830 C   0  0  0  0  0  0  0  0  0  0  0  0
   46.7670   34.1050   40.7120 C   0  0  0  0  0  0  0  0  0  0  0  0
   48.1220   34.0340   41.3060 C   0  0  0  0  0  0  0  0  0  0  0  0
   48.9060   32.9240   40.9870 C   0  0  0  0  0  0  0  0  0  0  0  0
   50.1690   32.8360   41.5300 C   0  0  0  0  0  0  0  0  0  0  0  0
   50.6130   33.8220   42.3510 N   0  0  0  0  0  0  0  0  0  0  0  0
   49.8300   34.8780   42.6370 C   0  0  0  0  0  0  0  0  0  0  0  0
   48.6160   34.9650   42.1180 N   0  0  0  0  0  0  0  0  0  0  0  0
   48.2590   31.6510   39.8900 S   0  0  0  0  0  0  0  0  0  0  0  0
   44.6133   35.8265   42.9958 H   0  0  0  0  0  0  0  0  0  0  0  0
   40.2683   35.8133   39.7705 H   0  0  0  0  0  0  0  0  0  0  0  0
   41.9056   31.8711   39.2438 H   0  0  0  0  0  0  0  0  0  0  0  0
   40.2945   30.2395   37.5673 H   0  0  0  0  0  0  0  0  0  0  0  0
   37.2287   33.0134   36.7158 H   0  0  0  0  0  0  0  0  0  0  0  0
   38.3908   35.1660   38.3164 H   0  0  0  0  0  0  0  0  0  0  0  0
   46.0249   33.6365   42.6298 H   0  0  0  0  0  0  0  0  0  0  0  0
   45.5869   32.4790   41.2702 H   0  0  0  0  0  0  0  0  0  0  0  0
   46.5250   35.1611   40.5221 H   0  0  0  0  0  0  0  0  0  0  0  0
   46.7873   33.5089   39.7877 H   0  0  0  0  0  0  0  0  0  0  0  0
   50.8125   31.9739   41.3003 H   0  0  0  0  0  0  0  0  0  0  0  0
   50.1999   35.6708   43.3038 H   0  0  0  0  0  0  0  0  0  0  0  0
   47.7384   30.6267   40.6361 H   0  0  0  0  0  0  0  0  0  0  0  0
  1 15  1  0
  1  2  2  0
  3  2  1  0
  4  5  2  0
  4  3  1  0
  5  1  1  0
  6  7  2  0
  7  4  1  0
  8  7  1  0
  9  8  2  0
 10  9  1  0
 11 12  2  0
 11 10  1  0
 12 13  1  0
 13  9  1  0
 13 14  2  0
 14  6  1  0
 16 17  1  0
 16 15  1  0
 17 22  1  0
 18 17  2  0
 18 19  1  0
 19 20  2  0
 20 21  1  0
 22 21  2  0
 23 18  1  0
  2 24  1  0
  6 25  1  0
  8 26  1  0
 10 27  1  0
 12 28  1  0
 14 29  1  0
 15 30  1  0
 15 31  1  0
 16 32  1  0
 16 33  1  0
 19 34  1  0
 21 35  1  0
 23 36  1  0
M  ISO  8  24  14  25  14  26  14  27   9  28  14  29  14  30   8  31   8
M  ISO  5  32   8  33   8  34  14  35  14  36  11
M  END
>  <minimizedAffinity>  (1) 
-5.13095951

>  <minimizedRMSD>  (1) 
2.02277327

$$$$
