
     RDKit          3D

 24 25  0  0  0  0  0  0  0  0999 V2000
   46.6610   34.2340   40.6680 C   0  0  0  0  0  0  0  0  0  0  0  0
   48.0010   34.1920   41.2870 C   0  0  0  0  0  0  0  0  0  0  0  0
   48.7030   32.9960   41.1660 C   0  0  0  0  0  0  0  0  0  0  0  0
   49.9740   32.8910   41.7300 C   0  0  0  0  0  0  0  0  0  0  0  0
   50.4900   33.9830   42.3890 N   0  0  0  0  0  0  0  0  0  0  0  0
   49.7680   35.1240   42.4780 C   0  0  0  0  0  0  0  0  0  0  0  0
   48.5600   35.2060   41.9370 N   0  0  0  0  0  0  0  0  0  0  0  0
   47.9980   31.5960   40.2980 S   0  0  0  0  0  0  0  0  0  0  0  0
   45.5760   34.5580   41.6570 C   0  0  0  0  0  0  0  0  0  0  0  0
   44.2270   34.6570   41.0490 C   0  0  0  0  0  0  0  0  0  0  0  0
   43.1750   35.3210   41.7830 C   0  0  0  0  0  0  0  0  0  0  0  0
   41.7390   35.1930   40.6460 S   0  0  0  0  0  0  0  0  0  0  0  0
   42.8070   34.2600   39.3670 C   0  0  0  0  0  0  0  0  0  0  0  0
   43.8260   34.2090   39.8820 N   0  0  0  0  0  0  0  0  0  0  0  0
   42.3840   33.7770   38.1130 O   0  0  0  0  0  0  0  0  0  0  0  0
   46.6607   35.0023   39.8808 H   0  0  0  0  0  0  0  0  0  0  0  0
   46.4515   33.2342   40.2600 H   0  0  0  0  0  0  0  0  0  0  0  0
   50.5503   31.9575   41.6499 H   0  0  0  0  0  0  0  0  0  0  0  0
   50.1879   35.9934   43.0051 H   0  0  0  0  0  0  0  0  0  0  0  0
   47.5369   30.6803   41.2067 H   0  0  0  0  0  0  0  0  0  0  0  0
   45.5554   33.7675   42.4216 H   0  0  0  0  0  0  0  0  0  0  0  0
   45.8113   35.5453   42.0812 H   0  0  0  0  0  0  0  0  0  0  0  0
   43.2224   35.7881   42.7778 H   0  0  0  0  0  0  0  0  0  0  0  0
   41.4477   33.9116   37.8209 H   0  0  0  0  0  0  0  0  0  0  0  0
  1  2  1  0
  1  9  1  0
  2  7  1  0
  3  2  2  0
  3  4  1  0
  4  5  2  0
  5  6  1  0
  7  6  2  0
  8  3  1  0
 10  9  1  0
 10 11  2  0
 12 11  1  0
 13 14  2  0
 13 12  1  0
 14 10  1  0
 15 13  1  0
  1 16  1  0
  1 17  1  0
  4 18  1  0
  6 19  1  0
  8 20  1  0
  9 21  1  0
  9 22  1  0
 11 23  1  0
 15 24  1  0
M  ISO  8  16   8  17   8  18  14  19  14  20  11  21   8  22   8  23  14
M  ISO  1  24   3
M  END
>  <minimizedAffinity>  (1) 
-3.96987128

>  <minimizedRMSD>  (1) 
0.107913703

$$$$
