
     RDKit          3D

 36 38  0  0  1  0  0  0  0  0999 V2000
   48.1910   34.5750   41.2630 C   0  0  1  0  0  0  0  0  0  0  0  0
   48.8330   35.9470   41.7140 C   0  0  0  0  0  0  0  0  0  0  0  0
   49.1020   34.6780   42.3970 C   0  0  2  0  0  0  0  0  0  0  0  0
   46.7170   34.5620   41.4730 C   0  0  0  0  0  0  0  0  0  0  0  0
   46.0120   34.3230   40.4970 O   0  0  0  0  0  0  0  0  0  0  0  0
   45.3860   35.9360   42.9990 C   0  0  0  0  0  0  0  0  0  0  0  0
   46.0780   34.8040   42.7240 C   0  0  0  0  0  0  0  0  0  0  0  0
   46.1500   33.8210   43.7460 C   0  0  0  0  0  0  0  0  0  0  0  0
   45.5470   34.0240   44.9400 N   0  0  0  0  0  0  0  0  0  0  0  0
   44.8610   35.1830   45.1690 C   0  0  0  0  0  0  0  0  0  0  0  0
   44.7900   36.1030   44.2190 N   0  0  0  0  0  0  0  0  0  0  0  0
   50.4190   34.2470   42.2920 O   0  0  0  0  0  0  0  0  0  0  0  0
   49.1010   32.1040   42.8500 O   0  0  0  0  0  0  0  0  0  0  0  0
   50.3670   32.5530   42.1480 P   0  0  2  0  0  0  0  0  0  0  0  0
   51.7190   31.7950   42.7530 O   0  0  0  0  0  0  0  0  0  0  0  0
   50.1190   32.1750   40.4870 O   0  0  0  0  0  0  0  0  0  0  0  0
   53.0330   31.4560   40.1320 O   0  0  0  0  0  0  0  0  0  0  0  0
   51.9580   30.7740   40.2490 C   0  0  0  0  0  0  0  0  0  0  0  0
   50.4740   30.8820   40.2100 C   0  0  1  0  0  0  0  0  0  0  0  0
   50.0920   29.9540   41.3700 C   0  0  0  0  0  0  0  0  0  0  0  0
   51.0240   28.7780   41.1490 C   0  0  0  0  0  0  0  0  0  0  0  0
   52.1750   29.3730   40.5190 N   0  0  0  0  0  0  0  0  0  0  0  0
   48.1614   33.9028   40.3928 H   0  0  0  0  0  0  0  0  0  0  0  0
   49.6107   36.4271   41.1019 H   0  0  0  0  0  0  0  0  0  0  0  0
   48.4617   36.9415   42.0022 H   0  0  0  0  0  0  0  0  0  0  0  0
   48.9934   34.3004   43.4244 H   0  0  0  0  0  0  0  0  0  0  0  0
   45.3030   36.7251   42.2371 H   0  0  0  0  0  0  0  0  0  0  0  0
   46.7009   32.8862   43.5654 H   0  0  0  0  0  0  0  0  0  0  0  0
   44.3696   35.3514   46.1386 H   0  0  0  0  0  0  0  0  0  0  0  0
   51.6911   31.8106   43.7425 H   0  0  0  0  0  0  0  0  0  0  0  0
   49.9988   30.6226   39.2524 H   0  0  0  0  0  0  0  0  0  0  0  0
   50.2759   30.4331   42.3430 H   0  0  0  0  0  0  0  0  0  0  0  0
   49.0268   29.6800   41.3880 H   0  0  0  0  0  0  0  0  0  0  0  0
   51.2982   28.3088   42.1054 H   0  0  0  0  0  0  0  0  0  0  0  0
   50.5696   27.9799   40.5436 H   0  0  0  0  0  0  0  0  0  0  0  0
   53.0410   28.8642   40.2908 H   0  0  0  0  0  0  0  0  0  0  0  0
  1  4  1  0
  1  2  1  0
  1  3  1  0
  2  3  1  0
  4  7  1  0
  5  4  2  0
  6 11  2  0
  7  6  1  0
  7  8  2  0
  8  9  1  0
  9 10  2  0
 11 10  1  0
 12  3  1  0
 14 12  1  0
 14 15  1  0
 14 13  2  0
 16 14  1  0
 17 18  2  0
 18 22  1  0
 19 18  1  0
 19 16  1  0
 19 20  1  0
 21 20  1  0
 22 21  1  0
  1 23  1  6
  2 24  1  0
  2 25  1  0
  3 26  1  1
  6 27  1  0
  8 28  1  0
 10 29  1  0
 15 30  1  0
 19 31  1  6
 20 32  1  0
 20 33  1  0
 21 34  1  0
 21 35  1  0
 22 36  1  0
M  ISO  8  23  13  24  13  25  13  26  13  27  14  28  14  29  14  30   3
M  ISO  6  31  13  32  13  33  13  34  13  35  13  36  10
M  END
>  <minimizedAffinity>  (1) 
-4.95379353

>  <minimizedRMSD>  (1) 
1.20046687

$$$$
