
     RDKit          3D

 25 26  0  0  0  0  0  0  0  0999 V2000
   46.6520   34.2480   40.6970 C   0  0  0  0  0  0  0  0  0  0  0  0
   48.0070   34.1900   41.3040 C   0  0  0  0  0  0  0  0  0  0  0  0
   48.7050   32.9900   41.1560 C   0  0  0  0  0  0  0  0  0  0  0  0
   49.9750   32.8690   41.6970 C   0  0  0  0  0  0  0  0  0  0  0  0
   50.4980   33.9490   42.3630 N   0  0  0  0  0  0  0  0  0  0  0  0
   49.7820   35.0920   42.4810 C   0  0  0  0  0  0  0  0  0  0  0  0
   48.5650   35.2010   41.9600 N   0  0  0  0  0  0  0  0  0  0  0  0
   47.9570   31.6110   40.2690 S   0  0  0  0  0  0  0  0  0  0  0  0
   45.5790   34.5670   41.6700 C   0  0  0  0  0  0  0  0  0  0  0  0
   44.2200   34.6840   41.0980 C   0  0  0  0  0  0  0  0  0  0  0  0
   43.1720   35.3440   41.8080 C   0  0  0  0  0  0  0  0  0  0  0  0
   41.7300   35.1940   40.6630 S   0  0  0  0  0  0  0  0  0  0  0  0
   42.7990   34.2590   39.4190 C   0  0  0  0  0  0  0  0  0  0  0  0
   43.8170   34.2200   39.9370 N   0  0  0  0  0  0  0  0  0  0  0  0
   42.4080   33.7140   38.1000 N   0  0  0  0  0  0  0  0  0  0  0  0
   46.6539   35.0218   39.9152 H   0  0  0  0  0  0  0  0  0  0  0  0
   46.4356   33.2474   40.2945 H   0  0  0  0  0  0  0  0  0  0  0  0
   50.5470   31.9349   41.5956 H   0  0  0  0  0  0  0  0  0  0  0  0
   50.2167   35.9473   43.0190 H   0  0  0  0  0  0  0  0  0  0  0  0
   47.4644   30.7028   41.1686 H   0  0  0  0  0  0  0  0  0  0  0  0
   45.5608   33.7707   42.4287 H   0  0  0  0  0  0  0  0  0  0  0  0
   45.8235   35.5591   42.0773 H   0  0  0  0  0  0  0  0  0  0  0  0
   43.2131   35.8249   42.7965 H   0  0  0  0  0  0  0  0  0  0  0  0
   41.4418   33.8277   37.7617 H   0  0  0  0  0  0  0  0  0  0  0  0
   43.1020   33.2210   37.5202 H   0  0  0  0  0  0  0  0  0  0  0  0
  1  2  1  0
  1  9  1  0
  2  7  1  0
  3  2  2  0
  3  4  1  0
  4  5  2  0
  5  6  1  0
  7  6  2  0
  8  3  1  0
 10  9  1  0
 10 11  2  0
 12 11  1  0
 13 14  2  0
 13 12  1  0
 14 10  1  0
 15 13  1  0
  1 16  1  0
  1 17  1  0
  4 18  1  0
  6 19  1  0
  8 20  1  0
  9 21  1  0
  9 22  1  0
 11 23  1  0
 15 24  1  0
 15 25  1  0
M  ISO  8  16   8  17   8  18  14  19  14  20  11  21   8  22   8  23  14
M  END
>  <minimizedAffinity>  (1) 
-3.99828076

>  <minimizedRMSD>  (1) 
0.11915268

$$$$
