
     RDKit          3D

 32 34  0  0  1  0  0  0  0  0999 V2000
   48.1970   34.5800   41.2530 C   0  0  1  0  0  0  0  0  0  0  0  0
   48.8400   35.9370   41.7360 C   0  0  0  0  0  0  0  0  0  0  0  0
   49.1050   34.6500   42.3940 C   0  0  2  0  0  0  0  0  0  0  0  0
   46.7230   34.5620   41.4650 C   0  0  0  0  0  0  0  0  0  0  0  0
   46.0160   34.3210   40.4920 O   0  0  0  0  0  0  0  0  0  0  0  0
   45.3910   35.9340   42.9940 C   0  0  0  0  0  0  0  0  0  0  0  0
   46.0810   34.8020   42.7140 C   0  0  0  0  0  0  0  0  0  0  0  0
   46.1560   33.8130   43.7360 C   0  0  0  0  0  0  0  0  0  0  0  0
   45.5530   34.0160   44.9320 N   0  0  0  0  0  0  0  0  0  0  0  0
   44.8710   35.1750   45.1590 C   0  0  0  0  0  0  0  0  0  0  0  0
   44.7950   36.0980   44.2200 N   0  0  0  0  0  0  0  0  0  0  0  0
   50.4230   34.2210   42.2710 O   0  0  0  0  0  0  0  0  0  0  0  0
   49.1000   32.0790   42.8410 O   0  0  0  0  0  0  0  0  0  0  0  0
   50.3680   32.5260   42.1390 P   0  0  2  0  0  0  0  0  0  0  0  0
   51.7220   31.7810   42.7580 O   0  0  0  0  0  0  0  0  0  0  0  0
   50.1260   32.1450   40.4810 O   0  0  0  0  0  0  0  0  0  0  0  0
   50.9630   31.1160   40.0850 C   0  0  0  0  0  0  0  0  0  0  0  0
   50.9480   30.8670   38.5840 C   0  0  0  0  0  0  0  0  0  0  0  0
   52.1670   31.4040   39.2560 C   0  0  0  0  0  0  0  0  0  0  0  0
   48.1682   33.9325   40.3642 H   0  0  0  0  0  0  0  0  0  0  0  0
   49.6209   36.4285   41.1371 H   0  0  0  0  0  0  0  0  0  0  0  0
   48.4699   36.9257   42.0450 H   0  0  0  0  0  0  0  0  0  0  0  0
   48.9931   34.2486   43.4120 H   0  0  0  0  0  0  0  0  0  0  0  0
   45.3079   36.7259   42.2350 H   0  0  0  0  0  0  0  0  0  0  0  0
   46.7069   32.8786   43.5531 H   0  0  0  0  0  0  0  0  0  0  0  0
   44.3818   35.3408   46.1302 H   0  0  0  0  0  0  0  0  0  0  0  0
   51.6863   31.8006   43.7472 H   0  0  0  0  0  0  0  0  0  0  0  0
   50.8199   30.5446   41.0140 H   0  0  0  0  0  0  0  0  0  0  0  0
   50.3519   31.5134   37.9231 H   0  0  0  0  0  0  0  0  0  0  0  0
   50.7272   30.0059   37.9361 H   0  0  0  0  0  0  0  0  0  0  0  0
   53.0611   30.7706   39.3529 H   0  0  0  0  0  0  0  0  0  0  0  0
   52.8033   32.2883   39.1040 H   0  0  0  0  0  0  0  0  0  0  0  0
  1  4  1  0
  1  2  1  0
  1  3  1  0
  2  3  1  0
  4  7  1  0
  5  4  2  0
  6 11  2  0
  7  6  1  0
  7  8  2  0
  8  9  1  0
  9 10  2  0
 11 10  1  0
 12  3  1  0
 14 12  1  0
 14 15  1  0
 14 13  2  0
 16 14  1  0
 17 16  1  0
 18 19  1  0
 18 17  1  0
 19 17  1  0
  1 20  1  6
  2 21  1  0
  2 22  1  0
  3 23  1  1
  6 24  1  0
  8 25  1  0
 10 26  1  0
 15 27  1  0
 17 28  1  0
 18 29  1  0
 18 30  1  0
 19 31  1  0
 19 32  1  0
M  ISO  8  20  13  21  13  22  13  23  13  24  14  25  14  26  14  27   3
M  ISO  5  28  13  29  13  30  13  31  13  32  13
M  END
>  <minimizedAffinity>  (1) 
-4.75474262

>  <minimizedRMSD>  (1) 
1.26877964

$$$$
