
     RDKit          3D

 29 30  0  0  1  0  0  0  0  0999 V2000
   46.9160   34.9400   42.1070 C   0  0  2  0  0  0  0  0  0  0  0  0
   46.2910   34.1940   40.9740 C   0  0  0  0  0  0  0  0  0  0  0  0
   47.4740   34.1410   40.0080 C   0  0  0  0  0  0  0  0  0  0  0  0
   48.7000   34.0480   40.9050 C   0  0  1  0  0  0  0  0  0  0  0  0
   48.1760   34.0970   42.3340 C   0  0  0  0  0  0  0  0  0  0  0  0
   44.4360   36.0390   44.7260 C   0  0  0  0  0  0  0  0  0  0  0  0
   45.1620   36.0780   43.5170 C   0  0  0  0  0  0  0  0  0  0  0  0
   46.0860   35.0390   43.3260 C   0  0  0  0  0  0  0  0  0  0  0  0
   46.2410   34.0610   44.2870 N   0  0  0  0  0  0  0  0  0  0  0  0
   45.5060   34.0980   45.4180 C   0  0  0  0  0  0  0  0  0  0  0  0
   44.6160   35.0670   45.6410 N   0  0  0  0  0  0  0  0  0  0  0  0
   49.3890   32.7130   40.7210 C   0  0  0  0  0  0  0  0  0  0  0  0
   50.4900   32.5830   41.7220 C   0  0  0  0  0  0  0  0  0  0  0  0
   47.0868   36.0017   41.8755 H   0  0  0  0  0  0  0  0  0  0  0  0
   45.9660   33.1878   41.2774 H   0  0  0  0  0  0  0  0  0  0  0  0
   45.3783   34.6517   40.5648 H   0  0  0  0  0  0  0  0  0  0  0  0
   47.5125   35.0510   39.3913 H   0  0  0  0  0  0  0  0  0  0  0  0
   47.4038   33.2943   39.3094 H   0  0  0  0  0  0  0  0  0  0  0  0
   49.4104   34.8549   40.6723 H   0  0  0  0  0  0  0  0  0  0  0  0
   48.8844   34.5914   43.0150 H   0  0  0  0  0  0  0  0  0  0  0  0
   48.0079   33.1182   42.8070 H   0  0  0  0  0  0  0  0  0  0  0  0
   43.6979   36.8291   44.9283 H   0  0  0  0  0  0  0  0  0  0  0  0
   45.0133   36.8726   42.7711 H   0  0  0  0  0  0  0  0  0  0  0  0
   45.6437   33.3109   46.1740 H   0  0  0  0  0  0  0  0  0  0  0  0
   48.6616   31.9009   40.8674 H   0  0  0  0  0  0  0  0  0  0  0  0
   49.8058   32.6506   39.7049 H   0  0  0  0  0  0  0  0  0  0  0  0
   50.0701   32.6326   42.7375 H   0  0  0  0  0  0  0  0  0  0  0  0
   51.0001   31.6184   41.5828 H   0  0  0  0  0  0  0  0  0  0  0  0
   51.2107   33.4023   41.5828 H   0  0  0  0  0  0  0  0  0  0  0  0
  1  5  1  0
  1  8  1  0
  2  1  1  0
  3  4  1  0
  3  2  1  0
  4  5  1  0
  6 11  2  0
  7  6  1  0
  8  7  2  0
  8  9  1  0
  9 10  2  0
 10 11  1  0
 12  4  1  0
 12 13  1  0
  1 14  1  6
  2 15  1  0
  2 16  1  0
  3 17  1  0
  3 18  1  0
  4 19  1  6
  5 20  1  0
  5 21  1  0
  6 22  1  0
  7 23  1  0
 10 24  1  0
 12 25  1  0
 12 26  1  0
 13 27  1  0
 13 28  1  0
 13 29  1  0
M  ISO  8  14  13  15  13  16  13  17  13  18  13  19  13  20  13  21  13
M  ISO  8  22  14  23  14  24  14  25   8  26   8  27   8  28   8  29   8
M  END
>  <minimizedAffinity>  (1) 
-4.39225721

>  <minimizedRMSD>  (1) 
1.02580667

$$$$
