
     RDKit          3D

 25 26  0  0  1  0  0  0  0  0999 V2000
   46.7280   34.9650   42.0030 C   0  0  2  0  0  0  0  0  0  0  0  0
   46.1770   33.9750   41.0230 C   0  0  0  0  0  0  0  0  0  0  0  0
   47.2620   34.0500   39.9480 C   0  0  0  0  0  0  0  0  0  0  0  0
   48.5400   34.3560   40.6990 C   0  0  1  0  0  0  0  0  0  0  0  0
   48.1490   34.4060   42.1770 C   0  0  0  0  0  0  0  0  0  0  0  0
   44.4480   35.9690   44.8450 C   0  0  0  0  0  0  0  0  0  0  0  0
   45.0810   36.0410   43.5860 C   0  0  0  0  0  0  0  0  0  0  0  0
   45.9980   35.0130   43.2900 C   0  0  0  0  0  0  0  0  0  0  0  0
   46.2300   34.0120   44.2140 N   0  0  0  0  0  0  0  0  0  0  0  0
   45.5890   34.0080   45.3950 C   0  0  0  0  0  0  0  0  0  0  0  0
   44.7040   34.9780   45.7140 N   0  0  0  0  0  0  0  0  0  0  0  0
   49.4720   33.2930   40.4430 N   0  0  0  0  0  0  0  0  0  0  0  0
   46.6611   36.0074   41.6580 H   0  0  0  0  0  0  0  0  0  0  0  0
   46.0995   32.9675   41.4577 H   0  0  0  0  0  0  0  0  0  0  0  0
   45.1558   34.1839   40.6717 H   0  0  0  0  0  0  0  0  0  0  0  0
   47.0368   34.8496   39.2270 H   0  0  0  0  0  0  0  0  0  0  0  0
   47.3362   33.1163   39.3712 H   0  0  0  0  0  0  0  0  0  0  0  0
   49.0099   35.3030   40.3951 H   0  0  0  0  0  0  0  0  0  0  0  0
   48.7948   35.0823   42.7563 H   0  0  0  0  0  0  0  0  0  0  0  0
   48.2310   33.4590   42.7305 H   0  0  0  0  0  0  0  0  0  0  0  0
   43.7230   36.7482   45.1229 H   0  0  0  0  0  0  0  0  0  0  0  0
   44.8704   36.8540   42.8755 H   0  0  0  0  0  0  0  0  0  0  0  0
   45.7883   33.2006   46.1150 H   0  0  0  0  0  0  0  0  0  0  0  0
   49.8088   32.9089   41.3374 H   0  0  0  0  0  0  0  0  0  0  0  0
   49.0053   32.5496   39.9040 H   0  0  0  0  0  0  0  0  0  0  0  0
  1  5  1  0
  1  8  1  0
  2  1  1  0
  3  4  1  0
  3  2  1  0
  4  5  1  0
  6 11  2  0
  7  6  1  0
  8  7  2  0
  8  9  1  0
  9 10  2  0
 10 11  1  0
 12  4  1  0
  1 13  1  6
  2 14  1  0
  2 15  1  0
  3 16  1  0
  3 17  1  0
  4 18  1  6
  5 19  1  0
  5 20  1  0
  6 21  1  0
  7 22  1  0
 10 23  1  0
 12 24  1  0
 12 25  1  0
M  ISO  8  13  13  14  13  15  13  16  13  17  13  18  13  19  13  20  13
M  ISO  5  21  14  22  14  23  14  24   5  25   5
M  END
>  <minimizedAffinity>  (1) 
-4.46449089

>  <minimizedRMSD>  (1) 
0.6920591

$$$$
