
     RDKit          3D

 36 38  0  0  1  0  0  0  0  0999 V2000
   47.0470   34.8030   41.9460 C   0  0  2  0  0  0  0  0  0  0  0  0
   46.3090   34.1990   40.7760 C   0  0  0  0  0  0  0  0  0  0  0  0
   47.5060   33.9990   39.8310 C   0  0  0  0  0  0  0  0  0  0  0  0
   48.6600   33.6440   40.7380 C   0  0  1  0  0  0  0  0  0  0  0  0
   48.1140   33.7350   42.1330 C   0  0  0  0  0  0  0  0  0  0  0  0
   44.5350   35.9850   44.5050 C   0  0  0  0  0  0  0  0  0  0  0  0
   45.2700   35.9600   43.3140 C   0  0  0  0  0  0  0  0  0  0  0  0
   46.1960   34.9240   43.1600 C   0  0  0  0  0  0  0  0  0  0  0  0
   46.3550   33.9790   44.1680 N   0  0  0  0  0  0  0  0  0  0  0  0
   45.6130   34.0630   45.2980 C   0  0  0  0  0  0  0  0  0  0  0  0
   44.7130   35.0570   45.4610 N   0  0  0  0  0  0  0  0  0  0  0  0
   49.1490   32.2360   40.5640 C   0  0  2  0  0  0  0  0  0  0  0  0
   49.7180   31.5610   41.7130 C   0  0  0  0  0  0  0  0  0  0  0  0
   50.5440   31.8840   40.4830 C   0  0  1  0  0  0  0  0  0  0  0  0
   50.9640   30.7710   39.7400 O   0  0  0  0  0  0  0  0  0  0  0  0
   52.0370   30.2040   37.4180 O   0  0  0  0  0  0  0  0  0  0  0  0
   51.8700   31.3140   38.4180 P   0  0  0  0  0  0  0  0  0  0  0  0
   51.1050   32.6230   37.6460 O   0  0  0  0  0  0  0  0  0  0  0  0
   53.3960   31.8390   38.8870 O   0  0  0  0  0  0  0  0  0  0  0  0
   47.4084   35.8288   41.7813 H   0  0  0  0  0  0  0  0  0  0  0  0
   45.8243   33.2470   41.0383 H   0  0  0  0  0  0  0  0  0  0  0  0
   45.4780   34.7976   40.3746 H   0  0  0  0  0  0  0  0  0  0  0  0
   47.7201   34.9243   39.2760 H   0  0  0  0  0  0  0  0  0  0  0  0
   47.3148   33.2196   39.0787 H   0  0  0  0  0  0  0  0  0  0  0  0
   49.5007   34.3174   40.5148 H   0  0  0  0  0  0  0  0  0  0  0  0
   48.8848   34.0528   42.8505 H   0  0  0  0  0  0  0  0  0  0  0  0
   47.7427   32.7838   42.5421 H   0  0  0  0  0  0  0  0  0  0  0  0
   43.7943   36.7829   44.6623 H   0  0  0  0  0  0  0  0  0  0  0  0
   45.1254   36.7218   42.5338 H   0  0  0  0  0  0  0  0  0  0  0  0
   45.7448   33.3132   46.0920 H   0  0  0  0  0  0  0  0  0  0  0  0
   48.3121   32.0515   39.8744 H   0  0  0  0  0  0  0  0  0  0  0  0
   49.8838   32.1084   42.6526 H   0  0  0  0  0  0  0  0  0  0  0  0
   49.4847   30.6545   42.2908 H   0  0  0  0  0  0  0  0  0  0  0  0
   51.4506   32.4536   40.2307 H   0  0  0  0  0  0  0  0  0  0  0  0
   50.7429   33.2425   38.3280 H   0  0  0  0  0  0  0  0  0  0  0  0
   53.4493   31.8573   39.8754 H   0  0  0  0  0  0  0  0  0  0  0  0
  1  5  1  0
  1  8  1  0
  2  1  1  0
  3  4  1  0
  3  2  1  0
  4  5  1  0
  6 11  2  0
  7  6  1  0
  8  7  2  0
  8  9  1  0
  9 10  2  0
 10 11  1  0
 12  4  1  0
 12 13  1  0
 14 12  1  0
 14 13  1  0
 15 14  1  0
 16 17  2  0
 17 19  1  0
 17 15  1  0
 18 17  1  0
  1 20  1  6
  2 21  1  0
  2 22  1  0
  3 23  1  0
  3 24  1  0
  4 25  1  1
  5 26  1  0
  5 27  1  0
  6 28  1  0
  7 29  1  0
 10 30  1  0
 12 31  1  6
 13 32  1  0
 13 33  1  0
 14 34  1  1
 18 35  1  0
 19 36  1  0
M  ISO  8  20  13  21  13  22  13  23  13  24  13  25  13  26  13  27  13
M  ISO  8  28  14  29  14  30  14  31  13  32  13  33  13  34  13  35   3
M  ISO  1  36   3
M  END
>  <minimizedAffinity>  (1) 
-5.31912565

>  <minimizedRMSD>  (1) 
1.70259881

$$$$
