
     RDKit          3D

 43 46  0  0  1  0  0  0  0  0999 V2000
   47.1280   34.8200   42.1010 C   0  0  2  0  0  0  0  0  0  0  0  0
   46.3400   34.3380   40.8820 C   0  0  0  0  0  0  0  0  0  0  0  0
   47.5250   34.1700   39.9130 C   0  0  0  0  0  0  0  0  0  0  0  0
   48.6570   33.6850   40.7650 C   0  0  1  0  0  0  0  0  0  0  0  0
   48.1550   33.7260   42.1790 C   0  0  0  0  0  0  0  0  0  0  0  0
   44.5430   35.7800   44.6670 C   0  0  0  0  0  0  0  0  0  0  0  0
   45.2750   35.8300   43.4860 C   0  0  0  0  0  0  0  0  0  0  0  0
   46.2610   34.8580   43.3130 C   0  0  0  0  0  0  0  0  0  0  0  0
   46.4830   33.8870   44.3010 N   0  0  0  0  0  0  0  0  0  0  0  0
   45.7320   33.8950   45.4320 C   0  0  0  0  0  0  0  0  0  0  0  0
   44.7740   34.8360   45.6060 N   0  0  0  0  0  0  0  0  0  0  0  0
   49.0850   32.2610   40.4860 C   0  0  2  0  0  0  0  0  0  0  0  0
   49.8770   31.6220   41.5270 C   0  0  0  0  0  0  0  0  0  0  0  0
   50.4800   31.9300   40.1930 C   0  0  1  0  0  0  0  0  0  0  0  0
   50.7200   30.8330   39.3280 O   0  0  0  0  0  0  0  0  0  0  0  0
   51.3180   30.3520   36.8370 O   0  0  0  0  0  0  0  0  0  0  0  0
   51.3600   31.4290   37.8920 P   0  0  1  0  0  0  0  0  0  0  0  0
   50.4040   32.7370   37.3250 O   0  0  0  0  0  0  0  0  0  0  0  0
   52.9180   31.9930   38.0100 O   0  0  0  0  0  0  0  0  0  0  0  0
   54.0200   31.1390   37.9930 C   0  0  0  0  0  0  0  0  0  0  0  0
   54.1450   30.2870   39.0930 C   0  0  0  0  0  0  0  0  0  0  0  0
   55.2700   29.5610   38.8600 N   0  0  0  0  0  0  0  0  0  0  0  0
   55.8250   29.9260   37.6910 C   0  0  0  0  0  0  0  0  0  0  0  0
   55.0530   30.8920   37.1660 N   0  0  0  0  0  0  0  0  0  0  0  0
   47.5411   35.8372   42.0331 H   0  0  0  0  0  0  0  0  0  0  0  0
   45.8191   33.3879   41.0717 H   0  0  0  0  0  0  0  0  0  0  0  0
   45.5276   34.9967   40.5412 H   0  0  0  0  0  0  0  0  0  0  0  0
   47.7793   35.1315   39.4430 H   0  0  0  0  0  0  0  0  0  0  0  0
   47.2943   33.4710   39.0956 H   0  0  0  0  0  0  0  0  0  0  0  0
   49.5297   34.3228   40.5611 H   0  0  0  0  0  0  0  0  0  0  0  0
   48.9602   33.9803   42.8840 H   0  0  0  0  0  0  0  0  0  0  0  0
   47.7605   32.7658   42.5427 H   0  0  0  0  0  0  0  0  0  0  0  0
   43.7556   36.5280   44.8415 H   0  0  0  0  0  0  0  0  0  0  0  0
   45.0856   36.5999   42.7236 H   0  0  0  0  0  0  0  0  0  0  0  0
   45.9022   33.1351   46.2090 H   0  0  0  0  0  0  0  0  0  0  0  0
   48.1497   32.0483   39.9475 H   0  0  0  0  0  0  0  0  0  0  0  0
   50.1833   32.1930   42.4159 H   0  0  0  0  0  0  0  0  0  0  0  0
   49.7704   30.7193   42.1465 H   0  0  0  0  0  0  0  0  0  0  0  0
   51.3585   32.4877   39.8365 H   0  0  0  0  0  0  0  0  0  0  0  0
   50.0383   33.2374   38.0970 H   0  0  0  0  0  0  0  0  0  0  0  0
   53.4752   30.2183   39.9629 H   0  0  0  0  0  0  0  0  0  0  0  0
   55.6437   28.8356   39.4885 H   0  0  0  0  0  0  0  0  0  0  0  0
   56.7415   29.5105   37.2467 H   0  0  0  0  0  0  0  0  0  0  0  0
  1  5  1  0
  1  8  1  0
  2  1  1  0
  3  4  1  0
  3  2  1  0
  4  5  1  0
  6 11  2  0
  7  6  1  0
  8  7  2  0
  8  9  1  0
  9 10  2  0
 10 11  1  0
 12  4  1  0
 12 13  1  0
 14 12  1  0
 14 13  1  0
 15 14  1  0
 17 16  2  0
 17 19  1  0
 17 15  1  0
 18 17  1  0
 20 19  1  0
 20 21  2  0
 22 21  1  0
 23 22  1  0
 24 23  2  0
 24 20  1  0
  1 25  1  6
  2 26  1  0
  2 27  1  0
  3 28  1  0
  3 29  1  0
  4 30  1  1
  5 31  1  0
  5 32  1  0
  6 33  1  0
  7 34  1  0
 10 35  1  0
 12 36  1  6
 13 37  1  0
 13 38  1  0
 14 39  1  1
 18 40  1  0
 21 41  1  0
 22 42  1  0
 23 43  1  0
M  ISO  8  25  13  26  13  27  13  28  13  29  13  30  13  31  13  32  13
M  ISO  8  33  14  34  14  35  14  36  13  37  13  38  13  39  13  40   3
M  ISO  3  41  14  42   9  43  14
M  END
>  <minimizedAffinity>  (1) 
-5.34843922

>  <minimizedRMSD>  (1) 
1.21175301

$$$$
