
     RDKit          3D

 29 31  0  0  1  0  0  0  0  0999 V2000
   46.8260   32.4750   45.7520 C   0  0  1  0  0  0  0  0  0  0  0  0
   47.0550   32.8270   47.1870 C   0  0  0  0  0  0  0  0  0  0  0  0
   45.7770   32.2110   46.7880 C   0  0  2  0  0  0  0  0  0  0  0  0
   45.2010   31.4000   49.7480 Cl  0  0  0  0  0  0  0  0  0  0  0  0
   45.1850   30.2710   48.4130 C   0  0  0  0  0  0  0  0  0  0  0  0
   45.4550   30.8480   47.1980 C   0  0  0  0  0  0  0  0  0  0  0  0
   45.4440   29.9940   46.0870 C   0  0  0  0  0  0  0  0  0  0  0  0
   45.1730   28.6260   46.2150 C   0  0  0  0  0  0  0  0  0  0  0  0
   44.9080   28.0850   47.4530 C   0  0  0  0  0  0  0  0  0  0  0  0
   44.5540   26.3980   47.7540 Cl  0  0  0  0  0  0  0  0  0  0  0  0
   44.9200   28.9230   48.5310 C   0  0  0  0  0  0  0  0  0  0  0  0
   46.8730   34.7060   42.8370 C   0  0  0  0  0  0  0  0  0  0  0  0
   45.7180   35.5070   43.0230 C   0  0  0  0  0  0  0  0  0  0  0  0
   44.9350   35.2590   44.1540 C   0  0  0  0  0  0  0  0  0  0  0  0
   45.3230   34.2730   45.0010 N   0  0  0  0  0  0  0  0  0  0  0  0
   46.4450   33.5350   44.7670 C   0  0  0  0  0  0  0  0  0  0  0  0
   47.2290   33.7270   43.7070 N   0  0  0  0  0  0  0  0  0  0  0  0
   47.6400   35.0150   41.6670 C   0  0  0  0  0  0  0  0  0  0  0  0
   48.6470   35.7890   41.6410 O   0  0  0  0  0  0  0  0  0  0  0  0
   47.4182   31.9081   45.0185 H   0  0  0  0  0  0  0  0  0  0  0  0
   47.7781   32.2520   47.7840 H   0  0  0  0  0  0  0  0  0  0  0  0
   47.3381   33.7446   47.7235 H   0  0  0  0  0  0  0  0  0  0  0  0
   44.7158   32.4787   46.8983 H   0  0  0  0  0  0  0  0  0  0  0  0
   45.6534   30.4084   45.0898 H   0  0  0  0  0  0  0  0  0  0  0  0
   45.1719   27.9816   45.3235 H   0  0  0  0  0  0  0  0  0  0  0  0
   44.7110   28.5083   49.5282 H   0  0  0  0  0  0  0  0  0  0  0  0
   45.4481   36.2944   42.3039 H   0  0  0  0  0  0  0  0  0  0  0  0
   44.0275   35.8482   44.3521 H   0  0  0  0  0  0  0  0  0  0  0  0
   47.3339   34.5468   40.7199 H   0  0  0  0  0  0  0  0  0  0  0  0
  1  3  1  0
  1  2  1  0
  3  2  1  0
  3  6  1  0
  5 11  2  0
  5  4  1  0
  6  5  1  0
  7  8  1  0
  7  6  2  0
  8  9  2  0
  9 10  1  0
  9 11  1  0
 12 13  2  0
 12 17  1  0
 13 14  1  0
 14 15  2  0
 16 15  1  0
 16  1  1  0
 17 16  2  0
 18 12  1  0
 19 18  2  0
  1 20  1  6
  2 21  1  0
  2 22  1  0
  3 23  1  6
  7 24  1  0
  8 25  1  0
 11 26  1  0
 13 27  1  0
 14 28  1  0
 18 29  1  0
M  ISO  8  20  13  21  13  22  13  23  13  24  14  25  14  26  14  27  14
M  ISO  2  28  14  29   6
M  END
>  <minimizedAffinity>  (1) 
-5.26171541

>  <minimizedRMSD>  (1) 
1.46170604

$$$$
