
     RDKit          3D

 23 24  0  0  1  0  0  0  0  0999 V2000
   45.7740   32.6360   45.9020 C   0  0  1  0  0  0  0  0  0  0  0  0
   46.8450   32.6060   46.9460 C   0  0  0  0  0  0  0  0  0  0  0  0
   45.4520   32.9730   47.3260 C   0  0  2  0  0  0  0  0  0  0  0  0
   46.3000   34.8990   43.0590 C   0  0  0  0  0  0  0  0  0  0  0  0
   45.4340   35.9900   43.3320 C   0  0  0  0  0  0  0  0  0  0  0  0
   44.6730   35.9120   44.5110 C   0  0  0  0  0  0  0  0  0  0  0  0
   44.8120   34.8110   45.3020 N   0  0  0  0  0  0  0  0  0  0  0  0
   45.6670   33.8010   44.9690 C   0  0  0  0  0  0  0  0  0  0  0  0
   46.4020   33.8370   43.8690 N   0  0  0  0  0  0  0  0  0  0  0  0
   47.0570   35.0460   41.8490 C   0  0  0  0  0  0  0  0  0  0  0  0
   48.2220   35.5410   41.7720 O   0  0  0  0  0  0  0  0  0  0  0  0
   45.2070   31.3580   49.2240 C   0  0  0  0  0  0  0  0  0  0  0  0
   46.4400   31.5360   49.4540 O   0  0  0  0  0  0  0  0  0  0  0  0
   44.6530   32.0850   48.1280 N   0  0  0  0  0  0  0  0  0  0  0  0
   45.4556   31.9070   45.1423 H   0  0  0  0  0  0  0  0  0  0  0  0
   47.2679   31.6442   47.2716 H   0  0  0  0  0  0  0  0  0  0  0  0
   47.8313   33.0795   47.0603 H   0  0  0  0  0  0  0  0  0  0  0  0
   44.9846   33.8286   47.8354 H   0  0  0  0  0  0  0  0  0  0  0  0
   45.3621   36.8536   42.6545 H   0  0  0  0  0  0  0  0  0  0  0  0
   43.9812   36.7209   44.7889 H   0  0  0  0  0  0  0  0  0  0  0  0
   46.5899   34.7022   40.9143 H   0  0  0  0  0  0  0  0  0  0  0  0
   44.5957   30.6790   49.8366 H   0  0  0  0  0  0  0  0  0  0  0  0
   43.6539   31.9709   47.9050 H   0  0  0  0  0  0  0  0  0  0  0  0
  1  2  1  0
  1  3  1  0
  2  3  1  0
  3 14  1  0
  4  5  2  0
  4  9  1  0
  5  6  1  0
  6  7  2  0
  8  7  1  0
  8  1  1  0
  9  8  2  0
 10  4  1  0
 11 10  2  0
 12 13  2  0
 14 12  1  0
  1 15  1  6
  2 16  1  0
  2 17  1  0
  3 18  1  6
  5 19  1  0
  6 20  1  0
 10 21  1  0
 12 22  1  0
 14 23  1  0
M  ISO  8  15  13  16  13  17  13  18  13  19  14  20  14  21   6  22   6
M  END
>  <minimizedAffinity>  (1) 
-4.7390337

>  <minimizedRMSD>  (1) 
0.975462735

$$$$
