
     RDKit          3D

 28 30  0  0  1  0  0  0  0  0999 V2000
   46.7300   32.3350   46.0670 C   0  0  1  0  0  0  0  0  0  0  0  0
   46.9970   32.4030   47.5350 C   0  0  0  0  0  0  0  0  0  0  0  0
   45.8020   31.6630   47.0350 C   0  0  2  0  0  0  0  0  0  0  0  0
   45.9060   34.8120   43.4880 C   0  0  0  0  0  0  0  0  0  0  0  0
   44.9500   35.6520   44.1170 C   0  0  0  0  0  0  0  0  0  0  0  0
   44.6060   35.3330   45.4420 C   0  0  0  0  0  0  0  0  0  0  0  0
   45.1840   34.2720   46.0350 N   0  0  0  0  0  0  0  0  0  0  0  0
   46.0970   33.5040   45.3730 C   0  0  0  0  0  0  0  0  0  0  0  0
   46.4720   33.7490   44.1120 N   0  0  0  0  0  0  0  0  0  0  0  0
   46.2220   35.1880   42.1380 C   0  0  0  0  0  0  0  0  0  0  0  0
   47.3580   35.0330   41.5940 O   0  0  0  0  0  0  0  0  0  0  0  0
   45.8740   30.1630   47.1550 C   0  0  0  0  0  0  0  0  0  0  0  0
   47.1310   29.6170   47.3820 C   0  0  0  0  0  0  0  0  0  0  0  0
   47.1460   28.2350   47.4850 C   0  0  0  0  0  0  0  0  0  0  0  0
   46.0030   27.4570   47.3710 C   0  0  0  0  0  0  0  0  0  0  0  0
   44.7730   28.0750   47.1430 C   0  0  0  0  0  0  0  0  0  0  0  0
   44.7500   29.4300   47.0400 N   0  0  0  0  0  0  0  0  0  0  0  0
   47.3631   32.0581   45.2111 H   0  0  0  0  0  0  0  0  0  0  0  0
   47.8450   31.8500   47.9651 H   0  0  0  0  0  0  0  0  0  0  0  0
   47.1597   33.2166   48.2572 H   0  0  0  0  0  0  0  0  0  0  0  0
   44.7160   31.7012   47.2056 H   0  0  0  0  0  0  0  0  0  0  0  0
   44.5011   36.5092   43.5939 H   0  0  0  0  0  0  0  0  0  0  0  0
   43.8723   35.9439   45.9884 H   0  0  0  0  0  0  0  0  0  0  0  0
   45.4232   35.6422   41.5334 H   0  0  0  0  0  0  0  0  0  0  0  0
   48.0393   30.2308   47.4725 H   0  0  0  0  0  0  0  0  0  0  0  0
   48.1076   27.7322   47.6653 H   0  0  0  0  0  0  0  0  0  0  0  0
   46.0659   26.3624   47.4596 H   0  0  0  0  0  0  0  0  0  0  0  0
   43.8502   27.4837   47.0495 H   0  0  0  0  0  0  0  0  0  0  0  0
  1  3  1  0
  1  2  1  0
  3 12  1  0
  3  2  1  0
  4  9  2  0
  4  5  1  0
  5  6  2  0
  6  7  1  0
  8  7  2  0
  8  1  1  0
  9  8  1  0
 10  4  1  0
 11 10  2  0
 12 13  2  0
 13 14  1  0
 15 14  2  0
 16 15  1  0
 17 16  2  0
 17 12  1  0
  1 18  1  6
  2 19  1  0
  2 20  1  0
  3 21  1  1
  5 22  1  0
  6 23  1  0
 10 24  1  0
 13 25  1  0
 14 26  1  0
 15 27  1  0
 16 28  1  0
M  ISO  8  18  13  19  13  20  13  21  13  22  14  23  14  24   6  25  14
M  ISO  3  26  14  27  14  28  14
M  END
>  <minimizedAffinity>  (1) 
-4.51465797

>  <minimizedRMSD>  (1) 
1.63091695

$$$$
