
     RDKit          3D

 22 23  0  0  1  0  0  0  0  0999 V2000
   45.8940   34.5430   43.8360 C   0  0  0  0  0  0  0  0  0  0  0  0
   44.8830   35.3010   44.4810 C   0  0  0  0  0  0  0  0  0  0  0  0
   44.6250   34.9930   45.8210 C   0  0  0  0  0  0  0  0  0  0  0  0
   45.3490   33.9960   46.4130 N   0  0  0  0  0  0  0  0  0  0  0  0
   46.2960   33.3120   45.7420 C   0  0  0  0  0  0  0  0  0  0  0  0
   46.5840   33.5650   44.4640 N   0  0  0  0  0  0  0  0  0  0  0  0
   47.0300   32.2560   46.4690 C   0  0  1  0  0  0  0  0  0  0  0  0
   47.3760   32.3920   47.9070 C   0  0  0  0  0  0  0  0  0  0  0  0
   46.2420   31.5160   47.4900 C   0  0  1  0  0  0  0  0  0  0  0  0
   44.9270   32.0210   48.0140 C   0  0  0  0  0  0  0  0  0  0  0  0
   46.1300   34.9060   42.4640 C   0  0  0  0  0  0  0  0  0  0  0  0
   47.2590   35.2250   41.9810 O   0  0  0  0  0  0  0  0  0  0  0  0
   44.3294   36.0918   43.9536 H   0  0  0  0  0  0  0  0  0  0  0  0
   43.8565   35.5410   46.3858 H   0  0  0  0  0  0  0  0  0  0  0  0
   47.6359   32.0204   45.5816 H   0  0  0  0  0  0  0  0  0  0  0  0
   48.3032   31.9447   48.2945 H   0  0  0  0  0  0  0  0  0  0  0  0
   47.4925   33.2357   48.6031 H   0  0  0  0  0  0  0  0  0  0  0  0
   45.9339   30.4609   47.5335 H   0  0  0  0  0  0  0  0  0  0  0  0
   44.9437   32.0146   49.1139 H   0  0  0  0  0  0  0  0  0  0  0  0
   44.7594   33.0475   47.6558 H   0  0  0  0  0  0  0  0  0  0  0  0
   44.1154   31.3706   47.6558 H   0  0  0  0  0  0  0  0  0  0  0  0
   45.2666   34.9070   41.7824 H   0  0  0  0  0  0  0  0  0  0  0  0
  1  6  2  0
  1  2  1  0
  2  3  2  0
  3  4  1  0
  5  4  2  0
  5  7  1  0
  6  5  1  0
  7  9  1  0
  7  8  1  0
  9  8  1  0
  9 10  1  0
 11  1  1  0
 12 11  2  0
  2 13  1  0
  3 14  1  0
  7 15  1  6
  8 16  1  0
  8 17  1  0
  9 18  1  6
 10 19  1  0
 10 20  1  0
 10 21  1  0
 11 22  1  0
M  ISO  8  13  14  14  14  15  13  16  13  17  13  18  13  19   8  20   8
M  ISO  2  21   8  22   6
M  END
>  <minimizedAffinity>  (1) 
-3.85302639

>  <minimizedRMSD>  (1) 
0.978788614

$$$$
