
     RDKit          3D

 36 38  0  0  1  0  0  0  0  0999 V2000
   46.2650   34.8220   43.2380 C   0  0  0  0  0  0  0  0  0  0  0  0
   45.3170   35.8450   43.5300 C   0  0  0  0  0  0  0  0  0  0  0  0
   44.6180   35.7030   44.7250 C   0  0  0  0  0  0  0  0  0  0  0  0
   44.8790   34.6280   45.5150 N   0  0  0  0  0  0  0  0  0  0  0  0
   45.8030   33.6860   45.1720 C   0  0  0  0  0  0  0  0  0  0  0  0
   46.5000   33.7580   44.0560 N   0  0  0  0  0  0  0  0  0  0  0  0
   46.9980   34.9860   42.0000 C   0  0  0  0  0  0  0  0  0  0  0  0
   48.0800   35.6640   41.9100 O   0  0  0  0  0  0  0  0  0  0  0  0
   46.4470   34.3400   40.8420 N   0  0  0  0  0  0  0  0  0  0  0  0
   45.0270   34.0780   40.5910 C   0  0  0  0  0  0  0  0  0  0  0  0
   44.8810   32.5780   40.4760 C   0  0  0  0  0  0  0  0  0  0  0  0
   45.6940   32.0760   39.3200 C   0  0  0  0  0  0  0  0  0  0  0  0
   46.6320   33.0990   38.7620 C   0  0  0  0  0  0  0  0  0  0  0  0
   47.3740   33.8890   39.7960 C   0  0  0  0  0  0  0  0  0  0  0  0
   46.0320   32.5450   46.1080 C   0  0  1  0  0  0  0  0  0  0  0  0
   46.8320   32.7790   47.3690 C   0  0  0  0  0  0  0  0  0  0  0  0
   45.3350   32.6620   47.4070 C   0  0  1  0  0  0  0  0  0  0  0  0
   44.6980   33.9340   47.7650 N   0  0  0  0  0  0  0  0  0  0  0  0
   45.1480   36.6949   42.8524 H   0  0  0  0  0  0  0  0  0  0  0  0
   43.8668   36.4483   45.0253 H   0  0  0  0  0  0  0  0  0  0  0  0
   44.4176   34.4563   41.4250 H   0  0  0  0  0  0  0  0  0  0  0  0
   44.6854   34.5822   39.6750 H   0  0  0  0  0  0  0  0  0  0  0  0
   45.2342   32.1044   41.4039 H   0  0  0  0  0  0  0  0  0  0  0  0
   43.8226   32.3275   40.3118 H   0  0  0  0  0  0  0  0  0  0  0  0
   46.2833   31.2109   39.6582 H   0  0  0  0  0  0  0  0  0  0  0  0
   44.9885   31.8121   38.5183 H   0  0  0  0  0  0  0  0  0  0  0  0
   47.3690   32.5815   38.1304 H   0  0  0  0  0  0  0  0  0  0  0  0
   46.0153   33.8172   38.2017 H   0  0  0  0  0  0  0  0  0  0  0  0
   48.1535   33.2575   40.2472 H   0  0  0  0  0  0  0  0  0  0  0  0
   47.8354   34.7661   39.3188 H   0  0  0  0  0  0  0  0  0  0  0  0
   46.1030   31.8022   45.2998 H   0  0  0  0  0  0  0  0  0  0  0  0
   47.4605   31.9765   47.7826 H   0  0  0  0  0  0  0  0  0  0  0  0
   47.5700   33.5229   47.7037 H   0  0  0  0  0  0  0  0  0  0  0  0
   44.5775   32.0275   47.8904 H   0  0  0  0  0  0  0  0  0  0  0  0
   44.6550   34.0198   48.7905 H   0  0  0  0  0  0  0  0  0  0  0  0
   45.2478   34.7142   47.3779 H   0  0  0  0  0  0  0  0  0  0  0  0
  1  2  2  0
  1  6  1  0
  2  3  1  0
  3  4  2  0
  5  4  1  0
  5 15  1  0
  6  5  2  0
  7  1  1  0
  8  7  2  0
  9  7  1  0
 10  9  1  0
 11 10  1  0
 12 11  1  0
 13 12  1  0
 13 14  1  0
 14  9  1  0
 15 16  1  0
 15 17  1  0
 16 17  1  0
 17 18  1  0
  2 19  1  0
  3 20  1  0
 10 21  1  0
 10 22  1  0
 11 23  1  0
 11 24  1  0
 12 25  1  0
 12 26  1  0
 13 27  1  0
 13 28  1  0
 14 29  1  0
 14 30  1  0
 15 31  1  6
 16 32  1  0
 16 33  1  0
 17 34  1  1
 18 35  1  0
 18 36  1  0
M  ISO  8  19  14  20  14  21  13  22  13  23  13  24  13  25  13  26  13
M  ISO  8  27  13  28  13  29  13  30  13  31  13  32  13  33  13  34  13
M  ISO  2  35   5  36   5
M  END
>  <minimizedAffinity>  (1) 
-5.71935034

>  <minimizedRMSD>  (1) 
0.336091608

$$$$
