
     RDKit          3D

 20 21  0  0  1  0  0  0  0  0999 V2000
   45.9630   35.3950   42.6390 C   0  0  0  0  0  0  0  0  0  0  0  0
   46.7280   34.2040   42.7120 C   0  0  0  0  0  0  0  0  0  0  0  0
   46.6420   33.4550   43.8840 C   0  0  0  0  0  0  0  0  0  0  0  0
   45.8350   33.9050   44.8830 N   0  0  0  0  0  0  0  0  0  0  0  0
   45.1170   35.0500   44.7770 C   0  0  0  0  0  0  0  0  0  0  0  0
   45.1720   35.8090   43.6540 N   0  0  0  0  0  0  0  0  0  0  0  0
   47.5830   33.8020   41.5730 C   0  0  1  0  0  0  0  0  0  0  0  0
   48.0710   34.7810   40.6040 C   0  0  0  0  0  0  0  0  0  0  0  0
   49.0400   34.2110   41.5890 C   0  0  1  0  0  0  0  0  0  0  0  0
   49.5250   35.0970   42.6910 C   0  0  0  0  0  0  0  0  0  0  0  0
   46.0148   36.0038   41.7243 H   0  0  0  0  0  0  0  0  0  0  0  0
   47.2131   32.5219   43.9989 H   0  0  0  0  0  0  0  0  0  0  0  0
   44.4796   35.3687   45.6150 H   0  0  0  0  0  0  0  0  0  0  0  0
   47.0237   32.8592   41.4818 H   0  0  0  0  0  0  0  0  0  0  0  0
   48.1474   34.5059   39.5417 H   0  0  0  0  0  0  0  0  0  0  0  0
   47.7700   35.8015   40.3246 H   0  0  0  0  0  0  0  0  0  0  0  0
   50.0040   33.6837   41.5383 H   0  0  0  0  0  0  0  0  0  0  0  0
   49.2769   34.6437   43.6620 H   0  0  0  0  0  0  0  0  0  0  0  0
   50.6153   35.2184   42.6109 H   0  0  0  0  0  0  0  0  0  0  0  0
   49.0397   36.0809   42.6109 H   0  0  0  0  0  0  0  0  0  0  0  0
  1  2  2  0
  1  6  1  0
  2  3  1  0
  3  4  2  0
  5  4  1  0
  6  5  2  0
  7  9  1  0
  7  2  1  0
  8  7  1  0
  8  9  1  0
  9 10  1  0
  1 11  1  0
  3 12  1  0
  5 13  1  0
  7 14  1  6
  8 15  1  0
  8 16  1  0
  9 17  1  6
 10 18  1  0
 10 19  1  0
 10 20  1  0
M  ISO  8  11  14  12  14  13  14  14  13  15  13  16  13  17  13  18   8
M  ISO  2  19   8  20   8
M  END
>  <minimizedAffinity>  (1) 
-3.53316808

>  <minimizedRMSD>  (1) 
0.937235773

$$$$
