
     RDKit          3D

 49 53  0  0  1  0  0  0  0  0999 V2000
   42.2050   33.3260   41.0310 C   0  0  0  0  0  0  0  0  0  0  0  0
   42.8580   34.4720   41.3760 C   0  0  0  0  0  0  0  0  0  0  0  0
   42.1110   35.6610   41.4800 C   0  0  0  0  0  0  0  0  0  0  0  0
   40.7610   35.7220   41.2520 C   0  0  0  0  0  0  0  0  0  0  0  0
   40.1060   34.5690   40.9060 C   0  0  0  0  0  0  0  0  0  0  0  0
   40.8240   33.4140   40.8030 C   0  0  0  0  0  0  0  0  0  0  0  0
   42.9800   31.8350   40.9230 S   0  0  0  0  0  0  0  0  0  0  0  0
   41.9140   30.9920   40.1910 O   0  0  0  0  0  0  0  0  0  0  0  0
   43.1820   31.2180   42.2930 O   0  0  0  0  0  0  0  0  0  0  0  0
   44.1380   31.2480   39.8830 C   0  0  0  0  0  0  0  0  0  0  0  0
   45.1860   30.3070   40.0550 C   0  0  0  0  0  0  0  0  0  0  0  0
   46.2090   29.9200   39.2140 C   0  0  0  0  0  0  0  0  0  0  0  0
   46.1100   30.6220   38.0430 C   0  0  0  0  0  0  0  0  0  0  0  0
   47.0730   30.3360   37.1590 N   0  0  0  0  0  0  0  0  0  0  0  0
   47.2070   30.8990   35.9490 C   0  0  0  0  0  0  0  0  0  0  0  0
   46.2940   31.8530   35.5560 C   0  0  0  0  0  0  0  0  0  0  0  0
   45.2930   32.1630   36.4490 C   0  0  0  0  0  0  0  0  0  0  0  0
   45.1860   31.5620   37.6860 C   0  0  0  0  0  0  0  0  0  0  0  0
   44.2150   31.8620   38.6050 C   0  0  0  0  0  0  0  0  0  0  0  0
   44.2960   34.5110   41.6300 C   0  0  0  0  0  0  0  0  0  0  0  0
   45.1900   34.5190   40.7190 O   0  0  0  0  0  0  0  0  0  0  0  0
   44.6190   34.5440   43.0260 C   0  0  0  0  0  0  0  0  0  0  0  0
   44.3060   35.7740   43.7020 C   0  0  0  0  0  0  0  0  0  0  0  0
   44.6030   35.8230   45.0580 C   0  0  0  0  0  0  0  0  0  0  0  0
   45.1560   34.7310   45.6470 N   0  0  0  0  0  0  0  0  0  0  0  0
   45.4270   33.5980   44.9490 C   0  0  0  0  0  0  0  0  0  0  0  0
   45.1630   33.5260   43.6920 N   0  0  0  0  0  0  0  0  0  0  0  0
   46.0240   32.4500   45.6760 C   0  0  1  0  0  0  0  0  0  0  0  0
   46.9730   32.7220   46.8240 C   0  0  0  0  0  0  0  0  0  0  0  0
   45.5660   32.2800   47.0710 C   0  0  1  0  0  0  0  0  0  0  0  0
   44.7770   33.3280   47.7050 N   0  0  0  0  0  0  0  0  0  0  0  0
   42.6368   36.5864   41.7579 H   0  0  0  0  0  0  0  0  0  0  0  0
   40.2164   36.6733   41.3445 H   0  0  0  0  0  0  0  0  0  0  0  0
   39.0227   34.5750   40.7151 H   0  0  0  0  0  0  0  0  0  0  0  0
   40.2871   32.4953   40.5241 H   0  0  0  0  0  0  0  0  0  0  0  0
   45.1822   29.7967   41.0295 H   0  0  0  0  0  0  0  0  0  0  0  0
   46.9788   29.1695   39.4466 H   0  0  0  0  0  0  0  0  0  0  0  0
   48.0310   30.6044   35.2825 H   0  0  0  0  0  0  0  0  0  0  0  0
   46.3617   32.3443   34.5741 H   0  0  0  0  0  0  0  0  0  0  0  0
   44.5482   32.9208   36.1644 H   0  0  0  0  0  0  0  0  0  0  0  0
   43.4583   32.6151   38.3399 H   0  0  0  0  0  0  0  0  0  0  0  0
   43.8565   36.6283   43.1747 H   0  0  0  0  0  0  0  0  0  0  0  0
   44.3941   36.7299   45.6444 H   0  0  0  0  0  0  0  0  0  0  0  0
   46.0876   31.8255   44.7727 H   0  0  0  0  0  0  0  0  0  0  0  0
   47.8109   32.0377   47.0231 H   0  0  0  0  0  0  0  0  0  0  0  0
   47.5963   33.5706   47.1426 H   0  0  0  0  0  0  0  0  0  0  0  0
   45.0440   31.4484   47.5669 H   0  0  0  0  0  0  0  0  0  0  0  0
   44.8452   33.2374   48.7287 H   0  0  0  0  0  0  0  0  0  0  0  0
   45.1359   34.2496   47.4172 H   0  0  0  0  0  0  0  0  0  0  0  0
  1  2  1  0
  2  3  2  0
  2 20  1  0
  4  3  1  0
  5  4  2  0
  6  5  1  0
  6  1  2  0
  7  1  1  0
  7  9  2  0
  8  7  2  0
 10 11  2  0
 10  7  1  0
 12 11  1  0
 13 12  2  0
 14 13  1  0
 15 14  2  0
 16 15  1  0
 16 17  2  0
 17 18  1  0
 18 13  1  0
 18 19  2  0
 19 10  1  0
 20 22  1  0
 21 20  2  0
 22 27  1  0
 22 23  2  0
 23 24  1  0
 24 25  2  0
 26 25  1  0
 26 28  1  0
 27 26  2  0
 28 29  1  0
 28 30  1  0
 29 30  1  0
 30 31  1  0
  3 32  1  0
  4 33  1  0
  5 34  1  0
  6 35  1  0
 11 36  1  0
 12 37  1  0
 15 38  1  0
 16 39  1  0
 17 40  1  0
 19 41  1  0
 23 42  1  0
 24 43  1  0
 28 44  1  6
 29 45  1  0
 29 46  1  0
 30 47  1  6
 31 48  1  0
 31 49  1  0
M  ISO  8  32  14  33  14  34  14  35  14  36  14  37  14  38  14  39  14
M  ISO  8  40  14  41  14  42  14  43  14  44  13  45  13  46  13  47  13
M  ISO  2  48   5  49   5
M  END
>  <minimizedAffinity>  (1) 
-6.16344261

>  <minimizedRMSD>  (1) 
2.27421284

$$$$
