
     RDKit          3D

 43 46  0  0  1  0  0  0  0  0999 V2000
   49.0010   31.9600   43.0910 O   0  0  0  0  0  0  0  0  0  0  0  0
   50.1930   32.2780   42.2030 P   0  0  2  0  0  0  0  0  0  0  0  0
   51.5790   31.5540   42.7330 O   0  0  0  0  0  0  0  0  0  0  0  0
   50.2630   33.9630   42.0620 O   0  0  0  0  0  0  0  0  0  0  0  0
   48.0370   34.4790   41.1370 C   0  0  1  0  0  0  0  0  0  0  0  0
   48.7570   35.7630   41.7100 C   0  0  0  0  0  0  0  0  0  0  0  0
   48.9870   34.4550   42.2740 C   0  0  2  0  0  0  0  0  0  0  0  0
   46.5680   34.5080   41.4020 C   0  0  0  0  0  0  0  0  0  0  0  0
   45.8220   34.2650   40.4620 O   0  0  0  0  0  0  0  0  0  0  0  0
   45.3630   35.9440   42.9830 C   0  0  0  0  0  0  0  0  0  0  0  0
   45.9750   34.7930   42.6580 C   0  0  0  0  0  0  0  0  0  0  0  0
   46.0140   33.7870   43.6800 C   0  0  0  0  0  0  0  0  0  0  0  0
   45.4620   34.0040   44.8980 N   0  0  0  0  0  0  0  0  0  0  0  0
   44.8560   35.1920   45.1630 C   0  0  0  0  0  0  0  0  0  0  0  0
   44.8140   36.1240   44.2320 N   0  0  0  0  0  0  0  0  0  0  0  0
   49.7180   31.6600   40.6470 O   0  0  0  0  0  0  0  0  0  0  0  0
   50.5810   31.5120   39.5880 C   0  0  0  0  0  0  0  0  0  0  0  0
   50.3980   31.8580   38.2540 C   0  0  0  0  0  0  0  0  0  0  0  0
   51.4010   31.6220   37.3360 C   0  0  0  0  0  0  0  0  0  0  0  0
   52.5660   31.0500   37.7410 N   0  0  0  0  0  0  0  0  0  0  0  0
   52.7270   30.7190   39.0470 C   0  0  0  0  0  0  0  0  0  0  0  0
   51.7640   30.9370   39.9730 N   0  0  0  0  0  0  0  0  0  0  0  0
   54.6720   30.3160   36.8190 Cl  0  0  0  0  0  0  0  0  0  0  0  0
   54.9830   29.8660   38.5040 C   0  0  0  0  0  0  0  0  0  0  0  0
   53.9960   30.1080   39.4340 C   0  0  0  0  0  0  0  0  0  0  0  0
   54.3310   29.7240   40.7160 C   0  0  0  0  0  0  0  0  0  0  0  0
   55.5440   29.1490   41.0290 C   0  0  0  0  0  0  0  0  0  0  0  0
   56.4930   28.9330   40.0520 C   0  0  0  0  0  0  0  0  0  0  0  0
   56.2130   29.2970   38.7620 C   0  0  0  0  0  0  0  0  0  0  0  0
   51.5904   31.5480   43.7229 H   0  0  0  0  0  0  0  0  0  0  0  0
   47.9566   33.8981   40.2063 H   0  0  0  0  0  0  0  0  0  0  0  0
   49.5459   36.2620   41.1281 H   0  0  0  0  0  0  0  0  0  0  0  0
   48.4321   36.7402   42.0967 H   0  0  0  0  0  0  0  0  0  0  0  0
   48.8938   34.0199   43.2800 H   0  0  0  0  0  0  0  0  0  0  0  0
   45.2999   36.7534   42.2408 H   0  0  0  0  0  0  0  0  0  0  0  0
   46.5005   32.8228   43.4711 H   0  0  0  0  0  0  0  0  0  0  0  0
   44.4033   35.3742   46.1488 H   0  0  0  0  0  0  0  0  0  0  0  0
   49.4537   32.3199   37.9302 H   0  0  0  0  0  0  0  0  0  0  0  0
   51.2584   31.8957   36.2802 H   0  0  0  0  0  0  0  0  0  0  0  0
   53.5996   29.8833   41.5220 H   0  0  0  0  0  0  0  0  0  0  0  0
   55.7572   28.8595   42.0686 H   0  0  0  0  0  0  0  0  0  0  0  0
   57.4606   28.4751   40.3052 H   0  0  0  0  0  0  0  0  0  0  0  0
   56.9458   29.1406   37.9567 H   0  0  0  0  0  0  0  0  0  0  0  0
  2  3  1  0
  2  1  2  0
  4  2  1  0
  4  7  1  0
  5  8  1  0
  5  6  1  0
  5  7  1  0
  6  7  1  0
  8 11  1  0
  9  8  2  0
 10 15  2  0
 11 10  1  0
 11 12  2  0
 12 13  1  0
 13 14  2  0
 15 14  1  0
 16  2  1  0
 17 22  1  0
 17 16  1  0
 18 17  2  0
 19 20  2  0
 19 18  1  0
 20 21  1  0
 21 25  1  0
 21 22  2  0
 23 24  1  0
 24 29  2  0
 24 25  1  0
 25 26  2  0
 26 27  1  0
 28 27  2  0
 29 28  1  0
  3 30  1  0
  5 31  1  6
  6 32  1  0
  6 33  1  0
  7 34  1  1
 10 35  1  0
 12 36  1  0
 14 37  1  0
 18 38  1  0
 19 39  1  0
 26 40  1  0
 27 41  1  0
 28 42  1  0
 29 43  1  0
M  ISO  8  30   3  31  13  32  13  33  13  34  13  35  14  36  14  37  14
M  ISO  6  38  14  39  14  40  14  41  14  42  14  43  14
M  END
>  <minimizedAffinity>  (1) 
-5.42787981

>  <minimizedRMSD>  (1) 
0.82900542

$$$$
