
     RDKit          3D

 44 47  0  0  1  0  0  0  0  0999 V2000
   42.0370   33.2860   41.1030 C   0  0  0  0  0  0  0  0  0  0  0  0
   42.7890   34.4070   41.3050 C   0  0  0  0  0  0  0  0  0  0  0  0
   42.1340   35.6540   41.2870 C   0  0  0  0  0  0  0  0  0  0  0  0
   40.7840   35.7960   41.0790 C   0  0  0  0  0  0  0  0  0  0  0  0
   40.0360   34.6660   40.8770 C   0  0  0  0  0  0  0  0  0  0  0  0
   40.6630   33.4590   40.8920 C   0  0  0  0  0  0  0  0  0  0  0  0
   42.6700   31.7320   41.2050 S   0  0  0  0  0  0  0  0  0  0  0  0
   41.5290   30.9200   40.5140 O   0  0  0  0  0  0  0  0  0  0  0  0
   42.7740   31.2330   42.5990 O   0  0  0  0  0  0  0  0  0  0  0  0
   43.1250   32.5840   38.4990 F   0  0  0  0  0  0  0  0  0  0  0  0
   43.8660   31.4890   38.8970 C   0  0  0  0  0  0  0  0  0  0  0  0
   43.7410   30.9150   40.1920 C   0  0  0  0  0  0  0  0  0  0  0  0
   44.6030   29.8310   40.3210 C   0  0  0  0  0  0  0  0  0  0  0  0
   45.5010   29.2480   39.4620 C   0  0  0  0  0  0  0  0  0  0  0  0
   45.4760   29.9330   38.2780 C   0  0  0  0  0  0  0  0  0  0  0  0
   44.7210   31.0180   37.9310 C   0  0  0  0  0  0  0  0  0  0  0  0
   44.2240   34.3640   41.5330 C   0  0  0  0  0  0  0  0  0  0  0  0
   45.0950   34.2630   40.6150 O   0  0  0  0  0  0  0  0  0  0  0  0
   44.5780   34.4480   42.9290 C   0  0  0  0  0  0  0  0  0  0  0  0
   44.3050   35.7100   43.5610 C   0  0  0  0  0  0  0  0  0  0  0  0
   44.6320   35.8170   44.8980 C   0  0  0  0  0  0  0  0  0  0  0  0
   45.1830   34.7390   45.5250 N   0  0  0  0  0  0  0  0  0  0  0  0
   45.4220   33.5580   44.8710 C   0  0  0  0  0  0  0  0  0  0  0  0
   45.1200   33.4490   43.6240 N   0  0  0  0  0  0  0  0  0  0  0  0
   46.0110   32.4360   45.6330 C   0  0  1  0  0  0  0  0  0  0  0  0
   46.9650   32.7390   46.7660 C   0  0  0  0  0  0  0  0  0  0  0  0
   45.5540   32.3290   47.0360 C   0  0  1  0  0  0  0  0  0  0  0  0
   44.7680   33.3980   47.6310 N   0  0  0  0  0  0  0  0  0  0  0  0
   42.7351   36.5611   41.4479 H   0  0  0  0  0  0  0  0  0  0  0  0
   40.3153   36.7912   41.0747 H   0  0  0  0  0  0  0  0  0  0  0  0
   38.9514   34.7334   40.7063 H   0  0  0  0  0  0  0  0  0  0  0  0
   40.0510   32.5598   40.7277 H   0  0  0  0  0  0  0  0  0  0  0  0
   44.5557   29.3447   41.3065 H   0  0  0  0  0  0  0  0  0  0  0  0
   46.1339   28.3770   39.6875 H   0  0  0  0  0  0  0  0  0  0  0  0
   46.1566   29.5594   37.4988 H   0  0  0  0  0  0  0  0  0  0  0  0
   44.7937   31.4857   36.9381 H   0  0  0  0  0  0  0  0  0  0  0  0
   43.8579   36.5485   43.0070 H   0  0  0  0  0  0  0  0  0  0  0  0
   44.4516   36.7533   45.4465 H   0  0  0  0  0  0  0  0  0  0  0  0
   46.0676   31.7768   44.7542 H   0  0  0  0  0  0  0  0  0  0  0  0
   47.7933   32.0508   46.9903 H   0  0  0  0  0  0  0  0  0  0  0  0
   47.6015   33.5906   47.0483 H   0  0  0  0  0  0  0  0  0  0  0  0
   45.0250   31.5261   47.5703 H   0  0  0  0  0  0  0  0  0  0  0  0
   44.8178   33.3303   48.6576 H   0  0  0  0  0  0  0  0  0  0  0  0
   45.1423   34.3086   47.3284 H   0  0  0  0  0  0  0  0  0  0  0  0
  1  7  1  0
  1  2  1  0
  2 17  1  0
  3  2  2  0
  4  3  1  0
  5  6  1  0
  5  4  2  0
  6  1  2  0
  7  9  2  0
  8  7  2  0
 10 11  1  0
 11 12  2  0
 12 13  1  0
 12  7  1  0
 14 13  2  0
 15 14  1  0
 16 15  2  0
 16 11  1  0
 17 19  1  0
 18 17  2  0
 19 20  2  0
 19 24  1  0
 20 21  1  0
 21 22  2  0
 23 22  1  0
 23 25  1  0
 24 23  2  0
 25 26  1  0
 25 27  1  0
 26 27  1  0
 27 28  1  0
  3 29  1  0
  4 30  1  0
  5 31  1  0
  6 32  1  0
 13 33  1  0
 14 34  1  0
 15 35  1  0
 16 36  1  0
 20 37  1  0
 21 38  1  0
 25 39  1  6
 26 40  1  0
 26 41  1  0
 27 42  1  1
 28 43  1  0
 28 44  1  0
M  ISO  8  29  14  30  14  31  14  32  14  33  14  34  14  35  14  36  14
M  ISO  8  37  14  38  14  39  13  40  13  41  13  42  13  43   5  44   5
M  END
>  <minimizedAffinity>  (1) 
-5.84734392

>  <minimizedRMSD>  (1) 
1.31362689

$$$$
