
     RDKit          3D

 36 38  0  0  0  0  0  0  0  0999 V2000
   45.1390   36.0190   42.9180 C   0  0  0  0  0  0  0  0  0  0  0  0
   45.3730   34.6430   42.9070 C   0  0  0  0  0  0  0  0  0  0  0  0
   45.2110   33.9230   44.0770 C   0  0  0  0  0  0  0  0  0  0  0  0
   44.8120   34.6020   45.2010 N   0  0  0  0  0  0  0  0  0  0  0  0
   44.5910   35.9220   45.1880 C   0  0  0  0  0  0  0  0  0  0  0  0
   44.7590   36.6170   44.0450 N   0  0  0  0  0  0  0  0  0  0  0  0
   45.4190   32.5210   44.2010 C   0  0  0  0  0  0  0  0  0  0  0  0
   44.9510   31.5560   43.3210 C   0  0  0  0  0  0  0  0  0  0  0  0
   45.0950   30.2050   43.5150 C   0  0  0  0  0  0  0  0  0  0  0  0
   45.7320   29.7350   44.6440 C   0  0  0  0  0  0  0  0  0  0  0  0
   46.2180   30.7070   45.5560 C   0  0  0  0  0  0  0  0  0  0  0  0
   46.8500   30.2480   46.6780 C   0  0  0  0  0  0  0  0  0  0  0  0
   47.3570   31.1400   47.6120 C   0  0  0  0  0  0  0  0  0  0  0  0
   47.2170   32.5130   47.3930 C   0  0  0  0  0  0  0  0  0  0  0  0
   46.5600   32.9490   46.2290 C   0  0  0  0  0  0  0  0  0  0  0  0
   46.0610   32.0370   45.3240 C   0  0  0  0  0  0  0  0  0  0  0  0
   45.7440   34.0900   41.7200 O   0  0  0  0  0  0  0  0  0  0  0  0
   47.6860   32.4340   41.0890 O   0  0  0  0  0  0  0  0  0  0  0  0
   47.3670   33.8830   41.2440 P   0  0  1  0  0  0  0  0  0  0  0  0
   47.6490   34.6130   39.7420 O   0  0  0  0  0  0  0  0  0  0  0  0
   48.3580   34.5940   42.3840 O   0  0  0  0  0  0  0  0  0  0  0  0
   49.5330   35.2910   42.1440 C   0  0  0  0  0  0  0  0  0  0  0  0
   49.2000   36.2110   41.3720 O   0  0  0  0  0  0  0  0  0  0  0  0
   50.6390   34.6970   42.8580 N   0  0  0  0  0  0  0  0  0  0  0  0
   45.2682   36.6077   41.9978 H   0  0  0  0  0  0  0  0  0  0  0  0
   44.2736   36.4378   46.1063 H   0  0  0  0  0  0  0  0  0  0  0  0
   44.4326   31.8945   42.4118 H   0  0  0  0  0  0  0  0  0  0  0  0
   44.7024   29.4973   42.7700 H   0  0  0  0  0  0  0  0  0  0  0  0
   45.8574   28.6579   44.8287 H   0  0  0  0  0  0  0  0  0  0  0  0
   46.9572   29.1655   46.8412 H   0  0  0  0  0  0  0  0  0  0  0  0
   47.8639   30.7702   48.5155 H   0  0  0  0  0  0  0  0  0  0  0  0
   47.6135   33.2392   48.1179 H   0  0  0  0  0  0  0  0  0  0  0  0
   46.4433   34.0262   46.0391 H   0  0  0  0  0  0  0  0  0  0  0  0
   48.0022   35.5274   39.8806 H   0  0  0  0  0  0  0  0  0  0  0  0
   51.5815   35.1049   42.7791 H   0  0  0  0  0  0  0  0  0  0  0  0
   50.4853   33.8655   43.4461 H   0  0  0  0  0  0  0  0  0  0  0  0
  1  6  2  0
  2  1  1  0
  2  3  2  0
  3  7  1  0
  3  4  1  0
  5  4  2  0
  6  5  1  0
  7 16  2  0
  8  9  2  0
  8  7  1  0
  9 10  1  0
 10 11  2  0
 11 12  1  0
 12 13  2  0
 14 13  1  0
 15 14  2  0
 16 11  1  0
 16 15  1  0
 17  2  1  0
 19 18  2  0
 19 17  1  0
 19 21  1  0
 20 19  1  0
 22 21  1  0
 22 24  1  0
 23 22  2  0
  1 25  1  0
  5 26  1  0
  8 27  1  0
  9 28  1  0
 10 29  1  0
 12 30  1  0
 13 31  1  0
 14 32  1  0
 15 33  1  0
 20 34  1  0
 24 35  1  0
 24 36  1  0
M  ISO  8  25  14  26  14  27  14  28  14  29  14  30  14  31  14  32  14
M  ISO  2  33  14  34   3
M  END
>  <minimizedAffinity>  (1) 
-5.82524776

>  <minimizedRMSD>  (1) 
1.92883861

$$$$
