
     RDKit          3D

 47 50  0  0  1  0  0  0  0  0999 V2000
   48.9500   32.0920   43.3660 O   0  0  0  0  0  0  0  0  0  0  0  0
   50.0310   32.3210   42.3210 P   0  0  2  0  0  0  0  0  0  0  0  0
   51.4560   31.5900   42.7260 O   0  0  0  0  0  0  0  0  0  0  0  0
   50.1190   33.9900   42.0630 O   0  0  0  0  0  0  0  0  0  0  0  0
   47.8790   34.4830   41.1610 C   0  0  1  0  0  0  0  0  0  0  0  0
   48.6300   35.7890   41.6390 C   0  0  0  0  0  0  0  0  0  0  0  0
   48.8580   34.5160   42.2750 C   0  0  2  0  0  0  0  0  0  0  0  0
   46.4190   34.5550   41.4580 C   0  0  0  0  0  0  0  0  0  0  0  0
   45.6470   34.3460   40.5270 O   0  0  0  0  0  0  0  0  0  0  0  0
   45.2810   36.0030   43.0760 C   0  0  0  0  0  0  0  0  0  0  0  0
   45.8580   34.8420   42.7270 C   0  0  0  0  0  0  0  0  0  0  0  0
   45.8940   33.8250   43.7400 C   0  0  0  0  0  0  0  0  0  0  0  0
   45.3710   34.0470   44.9690 N   0  0  0  0  0  0  0  0  0  0  0  0
   44.8010   35.2490   45.2550 C   0  0  0  0  0  0  0  0  0  0  0  0
   44.7630   36.1860   44.3340 N   0  0  0  0  0  0  0  0  0  0  0  0
   49.3580   31.6210   40.8780 O   0  0  0  0  0  0  0  0  0  0  0  0
   49.9790   31.6400   39.6520 C   0  0  0  0  0  0  0  0  0  0  0  0
   49.4910   32.0710   38.4280 C   0  0  0  0  0  0  0  0  0  0  0  0
   50.2840   32.0040   37.3000 C   0  0  0  0  0  0  0  0  0  0  0  0
   51.5510   31.5110   37.4010 N   0  0  0  0  0  0  0  0  0  0  0  0
   52.0140   31.0920   38.6060 C   0  0  0  0  0  0  0  0  0  0  0  0
   51.2450   31.1520   39.7210 N   0  0  0  0  0  0  0  0  0  0  0  0
   53.4010   30.5670   38.6370 C   0  0  0  0  0  0  0  0  0  0  0  0
   53.4620   29.0650   38.3610 C   0  0  0  0  0  0  0  0  0  0  0  0
   54.7600   28.6050   38.9920 C   0  0  0  0  0  0  0  0  0  0  0  0
   55.7050   29.6330   38.8710 O   0  0  0  0  0  0  0  0  0  0  0  0
   55.5770   30.3140   37.6390 C   0  0  0  0  0  0  0  0  0  0  0  0
   54.3340   31.2140   37.6690 C   0  0  0  0  0  0  0  0  0  0  0  0
   51.5371   31.5484   43.7118 H   0  0  0  0  0  0  0  0  0  0  0  0
   47.7679   33.8459   40.2712 H   0  0  0  0  0  0  0  0  0  0  0  0
   49.4103   36.2411   41.0092 H   0  0  0  0  0  0  0  0  0  0  0  0
   48.3269   36.7920   41.9740 H   0  0  0  0  0  0  0  0  0  0  0  0
   48.7859   34.1468   43.3087 H   0  0  0  0  0  0  0  0  0  0  0  0
   45.2224   36.8205   42.3423 H   0  0  0  0  0  0  0  0  0  0  0  0
   46.3532   32.8513   43.5143 H   0  0  0  0  0  0  0  0  0  0  0  0
   44.3743   35.4355   46.2516 H   0  0  0  0  0  0  0  0  0  0  0  0
   48.4677   32.4680   38.3554 H   0  0  0  0  0  0  0  0  0  0  0  0
   49.8971   32.3453   36.3285 H   0  0  0  0  0  0  0  0  0  0  0  0
   53.7260   30.8021   39.6613 H   0  0  0  0  0  0  0  0  0  0  0  0
   52.6048   28.5518   38.8213 H   0  0  0  0  0  0  0  0  0  0  0  0
   53.4221   28.8398   37.2850 H   0  0  0  0  0  0  0  0  0  0  0  0
   54.5947   28.3769   40.0553 H   0  0  0  0  0  0  0  0  0  0  0  0
   55.1236   27.6988   38.4855 H   0  0  0  0  0  0  0  0  0  0  0  0
   55.4774   29.5808   36.8251 H   0  0  0  0  0  0  0  0  0  0  0  0
   56.4703   30.9339   37.4722 H   0  0  0  0  0  0  0  0  0  0  0  0
   54.5996   32.2262   38.0080 H   0  0  0  0  0  0  0  0  0  0  0  0
   53.8811   31.3201   36.6722 H   0  0  0  0  0  0  0  0  0  0  0  0
  2  3  1  0
  2  1  2  0
  4  7  1  0
  4  2  1  0
  5  8  1  0
  5  6  1  0
  5  7  1  0
  6  7  1  0
  8 11  1  0
  9  8  2  0
 10 15  2  0
 11 10  1  0
 11 12  2  0
 12 13  1  0
 13 14  2  0
 15 14  1  0
 16  2  1  0
 17 22  1  0
 17 16  1  0
 18 17  2  0
 19 20  2  0
 19 18  1  0
 20 21  1  0
 21 23  1  0
 21 22  2  0
 24 23  1  0
 24 25  1  0
 26 25  1  0
 27 28  1  0
 27 26  1  0
 28 23  1  0
  3 29  1  0
  5 30  1  6
  6 31  1  0
  6 32  1  0
  7 33  1  1
 10 34  1  0
 12 35  1  0
 14 36  1  0
 18 37  1  0
 19 38  1  0
 23 39  1  0
 24 40  1  0
 24 41  1  0
 25 42  1  0
 25 43  1  0
 27 44  1  0
 27 45  1  0
 28 46  1  0
 28 47  1  0
M  ISO  8  29   3  30  13  31  13  32  13  33  13  34  14  35  14  36  14
M  ISO  8  37  14  38  14  39  13  40  13  41  13  42  13  43  13  44  13
M  ISO  3  45  13  46  13  47  13
M  END
>  <minimizedAffinity>  (1) 
-5.31498528

>  <minimizedRMSD>  (1) 
1.12504923

$$$$
