
     RDKit          3D

 52 55  0  0  0  0  0  0  0  0999 V2000
   45.2940   35.4970   43.1680 C   0  0  0  0  0  0  0  0  0  0  0  0
   45.6370   34.1600   43.2880 C   0  0  0  0  0  0  0  0  0  0  0  0
   45.4580   33.5080   44.4830 C   0  0  0  0  0  0  0  0  0  0  0  0
   44.9290   34.2430   45.5250 N   0  0  0  0  0  0  0  0  0  0  0  0
   44.6010   35.5300   45.4020 C   0  0  0  0  0  0  0  0  0  0  0  0
   44.7890   36.1450   44.2170 N   0  0  0  0  0  0  0  0  0  0  0  0
   45.7570   32.1550   44.7660 C   0  0  0  0  0  0  0  0  0  0  0  0
   45.3750   31.0820   43.9560 C   0  0  0  0  0  0  0  0  0  0  0  0
   45.6080   29.7670   44.2600 C   0  0  0  0  0  0  0  0  0  0  0  0
   46.2570   29.4410   45.4300 C   0  0  0  0  0  0  0  0  0  0  0  0
   46.6590   30.5210   46.2720 C   0  0  0  0  0  0  0  0  0  0  0  0
   47.3040   30.2040   47.4350 C   0  0  0  0  0  0  0  0  0  0  0  0
   47.7220   31.2010   48.2920 C   0  0  0  0  0  0  0  0  0  0  0  0
   47.4800   32.5440   47.9590 C   0  0  0  0  0  0  0  0  0  0  0  0
   46.8110   32.8140   46.7520 C   0  0  0  0  0  0  0  0  0  0  0  0
   46.4050   31.8060   45.9220 C   0  0  0  0  0  0  0  0  0  0  0  0
   46.1470   33.5450   42.1780 O   0  0  0  0  0  0  0  0  0  0  0  0
   48.2880   32.0390   42.2440 O   0  0  0  0  0  0  0  0  0  0  0  0
   47.7970   33.3830   41.8400 P   0  0  1  0  0  0  0  0  0  0  0  0
   48.0990   33.5420   40.1840 O   0  0  0  0  0  0  0  0  0  0  0  0
   47.3330   32.6810   39.4030 C   0  0  0  0  0  0  0  0  0  0  0  0
   46.8240   33.4960   38.2280 C   0  0  0  0  0  0  0  0  0  0  0  0
   48.0100   34.1130   37.5470 C   0  0  0  0  0  0  0  0  0  0  0  0
   49.1150   33.1650   37.2270 C   0  0  0  0  0  0  0  0  0  0  0  0
   49.4560   32.2070   38.3410 C   0  0  0  0  0  0  0  0  0  0  0  0
   48.1810   31.5770   38.7950 C   0  0  0  0  0  0  0  0  0  0  0  0
   48.6230   34.5960   42.6590 O   0  0  0  0  0  0  0  0  0  0  0  0
   49.7630   35.2570   42.2320 C   0  0  0  0  0  0  0  0  0  0  0  0
   49.3430   36.3000   41.6990 O   0  0  0  0  0  0  0  0  0  0  0  0
   50.9470   34.5020   42.5630 N   0  0  0  0  0  0  0  0  0  0  0  0
   45.4379   36.0209   42.2115 H   0  0  0  0  0  0  0  0  0  0  0  0
   44.1826   36.0824   46.2562 H   0  0  0  0  0  0  0  0  0  0  0  0
   44.8539   31.3081   43.0140 H   0  0  0  0  0  0  0  0  0  0  0  0
   45.2780   28.9744   43.5723 H   0  0  0  0  0  0  0  0  0  0  0  0
   46.4568   28.3944   45.7035 H   0  0  0  0  0  0  0  0  0  0  0  0
   47.4904   29.1499   47.6884 H   0  0  0  0  0  0  0  0  0  0  0  0
   48.2404   30.9464   49.2282 H   0  0  0  0  0  0  0  0  0  0  0  0
   47.8039   33.3596   48.6222 H   0  0  0  0  0  0  0  0  0  0  0  0
   46.6101   33.8580   46.4696 H   0  0  0  0  0  0  0  0  0  0  0  0
   46.5426   32.2428   40.0301 H   0  0  0  0  0  0  0  0  0  0  0  0
   46.2871   32.8427   37.5245 H   0  0  0  0  0  0  0  0  0  0  0  0
   46.1316   34.2773   38.5747 H   0  0  0  0  0  0  0  0  0  0  0  0
   47.6657   34.5663   36.6057 H   0  0  0  0  0  0  0  0  0  0  0  0
   48.4266   34.8435   38.2561 H   0  0  0  0  0  0  0  0  0  0  0  0
   48.8193   32.5768   36.3458 H   0  0  0  0  0  0  0  0  0  0  0  0
   50.0127   33.7764   37.0528 H   0  0  0  0  0  0  0  0  0  0  0  0
   50.1472   31.4341   37.9737 H   0  0  0  0  0  0  0  0  0  0  0  0
   49.9447   32.7365   39.1722 H   0  0  0  0  0  0  0  0  0  0  0  0
   47.6570   31.1256   37.9397 H   0  0  0  0  0  0  0  0  0  0  0  0
   48.3755   30.7814   39.5293 H   0  0  0  0  0  0  0  0  0  0  0  0
   51.8769   34.8650   42.3093 H   0  0  0  0  0  0  0  0  0  0  0  0
   50.8624   33.6000   43.0530 H   0  0  0  0  0  0  0  0  0  0  0  0
  1  2  2  0
  1  6  1  0
  2  3  1  0
  3  7  1  0
  3  4  2  0
  5  4  1  0
  6  5  2  0
  7 16  2  0
  8  9  2  0
  8  7  1  0
  9 10  1  0
 10 11  2  0
 11 12  1  0
 12 13  2  0
 14 13  1  0
 15 14  2  0
 16 11  1  0
 16 15  1  0
 17  2  1  0
 19 17  1  0
 19 18  2  0
 19 27  1  0
 20 19  1  0
 21 20  1  0
 22 21  1  0
 23 22  1  0
 24 23  1  0
 24 25  1  0
 25 26  1  0
 26 21  1  0
 28 30  1  0
 28 27  1  0
 29 28  2  0
  1 31  1  0
  5 32  1  0
  8 33  1  0
  9 34  1  0
 10 35  1  0
 12 36  1  0
 13 37  1  0
 14 38  1  0
 15 39  1  0
 21 40  1  0
 22 41  1  0
 22 42  1  0
 23 43  1  0
 23 44  1  0
 24 45  1  0
 24 46  1  0
 25 47  1  0
 25 48  1  0
 26 49  1  0
 26 50  1  0
 30 51  1  0
 30 52  1  0
M  ISO  8  31  14  32  14  33  14  34  14  35  14  36  14  37  14  38  14
M  ISO  8  39  14  40  13  41  13  42  13  43  13  44  13  45  13  46  13
M  ISO  4  47  13  48  13  49  13  50  13
M  END
>  <minimizedAffinity>  (1) 
-6.03174639

>  <minimizedRMSD>  (1) 
0.95547986

$$$$
