
     RDKit          3D

 25 26  0  0  1  0  0  0  0  0999 V2000
   46.7810   31.7850   47.5080 C   0  0  0  0  0  0  0  0  0  0  0  0
   45.4410   31.1440   47.7480 C   0  0  1  0  0  0  0  0  0  0  0  0
   45.3790   29.9540   48.6250 C   0  0  0  0  0  0  0  0  0  0  0  0
   44.8700   31.2330   49.1340 C   0  0  1  0  0  0  0  0  0  0  0  0
   45.5670   32.0190   50.0500 O   0  0  0  0  0  0  0  0  0  0  0  0
   45.5670   33.3470   46.1740 C   0  0  0  0  0  0  0  0  0  0  0  0
   46.7010   32.7570   46.3560 C   0  0  0  0  0  0  0  0  0  0  0  0
   44.5710   36.2900   44.2350 C   0  0  0  0  0  0  0  0  0  0  0  0
   45.3040   36.1530   43.0490 C   0  0  0  0  0  0  0  0  0  0  0  0
   46.1150   35.0510   42.9360 C   0  0  0  0  0  0  0  0  0  0  0  0
   46.1950   34.1450   43.9330 N   0  0  0  0  0  0  0  0  0  0  0  0
   45.4710   34.3080   45.0700 C   0  0  0  0  0  0  0  0  0  0  0  0
   44.6760   35.3770   45.1950 N   0  0  0  0  0  0  0  0  0  0  0  0
   47.0930   32.3232   48.4152 H   0  0  0  0  0  0  0  0  0  0  0  0
   47.5126   31.0010   47.2630 H   0  0  0  0  0  0  0  0  0  0  0  0
   45.0905   31.3827   46.7330 H   0  0  0  0  0  0  0  0  0  0  0  0
   44.6767   29.1399   48.3926 H   0  0  0  0  0  0  0  0  0  0  0  0
   46.1175   29.2215   48.9829 H   0  0  0  0  0  0  0  0  0  0  0  0
   43.9192   31.5172   49.6086 H   0  0  0  0  0  0  0  0  0  0  0  0
   45.3250   31.7461   50.9704 H   0  0  0  0  0  0  0  0  0  0  0  0
   44.7043   33.1366   46.8232 H   0  0  0  0  0  0  0  0  0  0  0  0
   47.5653   32.9529   45.7043 H   0  0  0  0  0  0  0  0  0  0  0  0
   43.9066   37.1559   44.3720 H   0  0  0  0  0  0  0  0  0  0  0  0
   45.2327   36.8972   42.2421 H   0  0  0  0  0  0  0  0  0  0  0  0
   46.7074   34.9046   42.0208 H   0  0  0  0  0  0  0  0  0  0  0  0
  1  2  1  0
  2  3  1  0
  2  4  1  0
  3  4  1  0
  4  5  1  0
  6  7  2  0
  7  1  1  0
  8 13  2  0
  9  8  1  0
 10  9  2  0
 10 11  1  0
 11 12  2  0
 12 13  1  0
 12  6  1  0
  1 14  1  0
  1 15  1  0
  2 16  1  6
  3 17  1  0
  3 18  1  0
  4 19  1  6
  5 20  1  0
  6 21  1  0
  7 22  1  0
  8 23  1  0
  9 24  1  0
 10 25  1  0
M  ISO  8  14   8  15   8  16  13  17  13  18  13  19  13  20   3  23  14
M  ISO  2  24  14  25  14
M  END
>  <minimizedAffinity>  (1) 
-4.66120529

>  <minimizedRMSD>  (1) 
0.317071795

$$$$
