
     RDKit          3D

 40 43  0  0  1  0  0  0  0  0999 V2000
   48.9500   32.1020   43.3860 O   0  0  0  0  0  0  0  0  0  0  0  0
   50.0320   32.3190   42.3410 P   0  0  2  0  0  0  0  0  0  0  0  0
   51.4560   31.5930   42.7590 O   0  0  0  0  0  0  0  0  0  0  0  0
   50.1180   33.9830   42.0640 O   0  0  0  0  0  0  0  0  0  0  0  0
   47.8800   34.4780   41.1570 C   0  0  1  0  0  0  0  0  0  0  0  0
   48.6330   35.7860   41.6370 C   0  0  0  0  0  0  0  0  0  0  0  0
   48.8560   34.5120   42.2730 C   0  0  2  0  0  0  0  0  0  0  0  0
   46.4190   34.5510   41.4540 C   0  0  0  0  0  0  0  0  0  0  0  0
   45.6470   34.3480   40.5220 O   0  0  0  0  0  0  0  0  0  0  0  0
   45.2820   36.0000   43.0730 C   0  0  0  0  0  0  0  0  0  0  0  0
   45.8580   34.8350   42.7250 C   0  0  0  0  0  0  0  0  0  0  0  0
   45.8940   33.8180   43.7350 C   0  0  0  0  0  0  0  0  0  0  0  0
   45.3720   34.0400   44.9650 N   0  0  0  0  0  0  0  0  0  0  0  0
   44.8030   35.2410   45.2530 C   0  0  0  0  0  0  0  0  0  0  0  0
   44.7640   36.1810   44.3350 N   0  0  0  0  0  0  0  0  0  0  0  0
   49.3610   31.6000   40.9060 O   0  0  0  0  0  0  0  0  0  0  0  0
   49.9580   31.6560   39.6670 C   0  0  0  0  0  0  0  0  0  0  0  0
   49.4400   32.1140   38.4630 C   0  0  0  0  0  0  0  0  0  0  0  0
   50.2120   32.0850   37.3200 C   0  0  0  0  0  0  0  0  0  0  0  0
   51.4800   31.6060   37.3870 N   0  0  0  0  0  0  0  0  0  0  0  0
   51.9900   31.1580   38.5590 C   0  0  0  0  0  0  0  0  0  0  0  0
   51.2380   31.1770   39.7080 N   0  0  0  0  0  0  0  0  0  0  0  0
   53.3600   30.6540   38.5670 C   0  0  0  0  0  0  0  0  0  0  0  0
   54.1840   30.9770   37.4880 C   0  0  0  0  0  0  0  0  0  0  0  0
   55.4210   30.3820   37.7360 C   0  0  0  0  0  0  0  0  0  0  0  0
   55.3110   29.7350   38.9230 N   0  0  0  0  0  0  0  0  0  0  0  0
   54.0740   29.9000   39.4160 N   0  0  0  0  0  0  0  0  0  0  0  0
   51.5300   31.5553   43.7455 H   0  0  0  0  0  0  0  0  0  0  0  0
   47.7702   33.8411   40.2669 H   0  0  0  0  0  0  0  0  0  0  0  0
   49.4159   36.2366   41.0093 H   0  0  0  0  0  0  0  0  0  0  0  0
   48.3311   36.7897   41.9708 H   0  0  0  0  0  0  0  0  0  0  0  0
   48.7800   34.1439   43.3068 H   0  0  0  0  0  0  0  0  0  0  0  0
   45.2244   36.8179   42.3397 H   0  0  0  0  0  0  0  0  0  0  0  0
   46.3519   32.8440   43.5078 H   0  0  0  0  0  0  0  0  0  0  0  0
   44.3770   35.4252   46.2503 H   0  0  0  0  0  0  0  0  0  0  0  0
   48.4112   32.5010   38.4203 H   0  0  0  0  0  0  0  0  0  0  0  0
   49.8041   32.4463   36.3645 H   0  0  0  0  0  0  0  0  0  0  0  0
   53.9109   31.5833   36.6117 H   0  0  0  0  0  0  0  0  0  0  0  0
   56.3127   30.4285   37.0936 H   0  0  0  0  0  0  0  0  0  0  0  0
   56.0634   29.1981   39.3774 H   0  0  0  0  0  0  0  0  0  0  0  0
  2  3  1  0
  2  1  2  0
  4  7  1  0
  4  2  1  0
  5  8  1  0
  5  6  1  0
  5  7  1  0
  6  7  1  0
  8 11  1  0
  9  8  2  0
 10 15  2  0
 11 10  1  0
 11 12  2  0
 12 13  1  0
 13 14  2  0
 15 14  1  0
 16  2  1  0
 17 22  1  0
 17 16  1  0
 18 17  2  0
 19 20  2  0
 19 18  1  0
 20 21  1  0
 21 23  1  0
 21 22  2  0
 23 27  2  0
 24 25  2  0
 24 23  1  0
 25 26  1  0
 26 27  1  0
  3 28  1  0
  5 29  1  6
  6 30  1  0
  6 31  1  0
  7 32  1  1
 10 33  1  0
 12 34  1  0
 14 35  1  0
 18 36  1  0
 19 37  1  0
 24 38  1  0
 25 39  1  0
 26 40  1  0
M  ISO  8  28   3  29  13  30  13  31  13  32  13  33  14  34  14  35  14
M  ISO  5  36  14  37  14  38  14  39  14  40   9
M  END
>  <minimizedAffinity>  (1) 
-5.20985508

>  <minimizedRMSD>  (1) 
1.05071032

$$$$
