
     RDKit          3D

 31 33  0  0  1  0  0  0  0  0999 V2000
   47.1710   31.2770   46.7080 C   0  0  0  0  0  0  0  0  0  0  0  0
   46.7750   31.7490   48.0770 C   0  0  1  0  0  0  0  0  0  0  0  0
   46.1780   30.7510   49.0080 C   0  0  0  0  0  0  0  0  0  0  0  0
   47.5130   31.2780   49.2770 C   0  0  1  0  0  0  0  0  0  0  0  0
   48.7660   30.5120   49.0430 C   0  0  0  0  0  0  0  0  0  0  0  0
   49.5920   30.2490   50.3410 C   0  0  0  0  0  0  0  0  0  0  0  0
   50.0910   31.2380   49.3550 C   0  0  0  0  0  0  0  0  0  0  0  0
   45.9660   33.2040   45.9500 C   0  0  0  0  0  0  0  0  0  0  0  0
   46.8900   32.3450   45.6820 C   0  0  0  0  0  0  0  0  0  0  0  0
   44.4920   36.1520   44.3480 C   0  0  0  0  0  0  0  0  0  0  0  0
   45.1130   36.1780   43.0940 C   0  0  0  0  0  0  0  0  0  0  0  0
   46.0210   35.1830   42.8270 C   0  0  0  0  0  0  0  0  0  0  0  0
   46.2450   34.2640   43.7770 N   0  0  0  0  0  0  0  0  0  0  0  0
   45.6520   34.2380   44.9730 C   0  0  0  0  0  0  0  0  0  0  0  0
   44.7730   35.1960   45.2440 N   0  0  0  0  0  0  0  0  0  0  0  0
   48.2458   31.0427   46.7022 H   0  0  0  0  0  0  0  0  0  0  0  0
   46.5870   30.3792   46.4574 H   0  0  0  0  0  0  0  0  0  0  0  0
   46.5015   32.7382   47.6811 H   0  0  0  0  0  0  0  0  0  0  0  0
   45.3345   31.0382   49.6530 H   0  0  0  0  0  0  0  0  0  0  0  0
   45.7507   29.7438   48.8945 H   0  0  0  0  0  0  0  0  0  0  0  0
   47.9600   31.7175   50.1809 H   0  0  0  0  0  0  0  0  0  0  0  0
   48.3774   29.9299   48.1944 H   0  0  0  0  0  0  0  0  0  0  0  0
   49.2078   30.5910   51.3133 H   0  0  0  0  0  0  0  0  0  0  0  0
   50.0154   29.3536   50.8195 H   0  0  0  0  0  0  0  0  0  0  0  0
   50.9891   31.0099   48.7623 H   0  0  0  0  0  0  0  0  0  0  0  0
   50.3888   32.2952   49.4149 H   0  0  0  0  0  0  0  0  0  0  0  0
   45.4217   33.1564   46.9047 H   0  0  0  0  0  0  0  0  0  0  0  0
   47.4531   32.3901   44.7381 H   0  0  0  0  0  0  0  0  0  0  0  0
   43.7590   36.9315   44.6030 H   0  0  0  0  0  0  0  0  0  0  0  0
   44.8840   36.9604   42.3554 H   0  0  0  0  0  0  0  0  0  0  0  0
   46.5486   35.1413   41.8627 H   0  0  0  0  0  0  0  0  0  0  0  0
  1  2  1  0
  2  3  1  0
  2  4  1  0
  3  4  1  0
  5  4  1  0
  5  7  1  0
  5  6  1  0
  7  6  1  0
  9  8  2  0
  9  1  1  0
 10 15  2  0
 11 10  1  0
 12 11  2  0
 12 13  1  0
 13 14  2  0
 14 15  1  0
 14  8  1  0
  1 16  1  0
  1 17  1  0
  2 18  1  6
  3 19  1  0
  3 20  1  0
  4 21  1  1
  5 22  1  0
  6 23  1  0
  6 24  1  0
  7 25  1  0
  7 26  1  0
  8 27  1  0
  9 28  1  0
 10 29  1  0
 11 30  1  0
 12 31  1  0
M  ISO  8  16   8  17   8  18  13  19  13  20  13  21  13  22  13  23  13
M  ISO  6  24  13  25  13  26  13  29  14  30  14  31  14
M  END
>  <minimizedAffinity>  (1) 
-4.58398342

>  <minimizedRMSD>  (1) 
1.66429257

$$$$
