
     RDKit          3D

 37 39  0  0  1  0  0  0  0  0999 V2000
   47.1430   31.1270   46.7780 C   0  0  0  0  0  0  0  0  0  0  0  0
   46.7610   31.6560   48.1420 C   0  0  1  0  0  0  0  0  0  0  0  0
   46.2050   30.6760   49.1110 C   0  0  0  0  0  0  0  0  0  0  0  0
   47.5320   31.2200   49.3290 C   0  0  1  0  0  0  0  0  0  0  0  0
   48.8080   30.5030   49.1080 C   0  0  0  0  0  0  0  0  0  0  0  0
   49.6390   30.2570   50.3970 C   0  0  0  0  0  0  0  0  0  0  0  0
   50.0860   31.2980   49.4480 C   0  0  0  0  0  0  0  0  0  0  0  0
   46.0080   33.0710   46.0310 C   0  0  0  0  0  0  0  0  0  0  0  0
   46.8840   32.1950   45.7250 C   0  0  0  0  0  0  0  0  0  0  0  0
   44.5530   36.0380   44.4100 C   0  0  0  0  0  0  0  0  0  0  0  0
   45.1350   36.0360   43.1490 C   0  0  0  0  0  0  0  0  0  0  0  0
   46.0190   35.0310   42.8880 C   0  0  0  0  0  0  0  0  0  0  0  0
   46.2840   34.1010   43.8430 N   0  0  0  0  0  0  0  0  0  0  0  0
   45.7110   34.1150   45.0620 C   0  0  0  0  0  0  0  0  0  0  0  0
   44.8510   35.1030   45.3050 N   0  0  0  0  0  0  0  0  0  0  0  0
   46.6170   35.0040   41.6350 O   0  0  0  0  0  0  0  0  0  0  0  0
   48.5060   33.3110   40.9910 O   0  0  0  0  0  0  0  0  0  0  0  0
   48.2990   34.6930   41.5630 P   0  0  0  0  0  0  0  0  0  0  0  0
   49.1030   35.8790   40.6600 O   0  0  0  0  0  0  0  0  0  0  0  0
   48.9320   34.7090   43.1360 O   0  0  0  0  0  0  0  0  0  0  0  0
   48.2103   30.8607   46.7744 H   0  0  0  0  0  0  0  0  0  0  0  0
   46.5401   30.2356   46.5500 H   0  0  0  0  0  0  0  0  0  0  0  0
   46.4625   32.6311   47.7296 H   0  0  0  0  0  0  0  0  0  0  0  0
   45.3767   30.9688   49.7729 H   0  0  0  0  0  0  0  0  0  0  0  0
   45.7870   29.6615   49.0330 H   0  0  0  0  0  0  0  0  0  0  0  0
   47.9944   31.6757   50.2170 H   0  0  0  0  0  0  0  0  0  0  0  0
   48.4519   29.9054   48.2559 H   0  0  0  0  0  0  0  0  0  0  0  0
   49.2296   30.5485   51.3755 H   0  0  0  0  0  0  0  0  0  0  0  0
   50.1121   29.3747   50.8527 H   0  0  0  0  0  0  0  0  0  0  0  0
   50.9997   31.1397   48.8563 H   0  0  0  0  0  0  0  0  0  0  0  0
   50.3216   32.3686   49.5392 H   0  0  0  0  0  0  0  0  0  0  0  0
   45.4912   33.0377   47.0015 H   0  0  0  0  0  0  0  0  0  0  0  0
   47.4171   32.2107   44.7630 H   0  0  0  0  0  0  0  0  0  0  0  0
   43.8330   36.8273   44.6720 H   0  0  0  0  0  0  0  0  0  0  0  0
   44.8954   36.8050   42.3998 H   0  0  0  0  0  0  0  0  0  0  0  0
   49.5389   36.5220   41.2737 H   0  0  0  0  0  0  0  0  0  0  0  0
   48.1896   34.6902   43.7907 H   0  0  0  0  0  0  0  0  0  0  0  0
  1  2  1  0
  2  3  1  0
  2  4  1  0
  3  4  1  0
  5  4  1  0
  5  7  1  0
  5  6  1  0
  7  6  1  0
  9  8  2  0
  9  1  1  0
 10 15  2  0
 11 10  1  0
 12 11  2  0
 12 13  1  0
 13 14  2  0
 14 15  1  0
 14  8  1  0
 16 12  1  0
 17 18  2  0
 18 16  1  0
 18 20  1  0
 19 18  1  0
  1 21  1  0
  1 22  1  0
  2 23  1  6
  3 24  1  0
  3 25  1  0
  4 26  1  1
  5 27  1  0
  6 28  1  0
  6 29  1  0
  7 30  1  0
  7 31  1  0
  8 32  1  0
  9 33  1  0
 10 34  1  0
 11 35  1  0
 19 36  1  0
 20 37  1  0
M  ISO  8  21   8  22   8  23  13  24  13  25  13  26  13  27  13  28  13
M  ISO  7  29  13  30  13  31  13  34  14  35  14  36   3  37   3
M  END
>  <minimizedAffinity>  (1) 
-5.7744627

>  <minimizedRMSD>  (1) 
0.627396584

$$$$
