
     RDKit          3D

 34 36  0  0  1  0  0  0  0  0999 V2000
   47.1220   31.1020   46.7870 C   0  0  0  0  0  0  0  0  0  0  0  0
   46.7710   31.6720   48.1370 C   0  0  1  0  0  0  0  0  0  0  0  0
   46.2160   30.6980   49.1250 C   0  0  0  0  0  0  0  0  0  0  0  0
   47.5440   31.2420   49.3280 C   0  0  1  0  0  0  0  0  0  0  0  0
   48.8150   30.5150   49.1090 C   0  0  0  0  0  0  0  0  0  0  0  0
   49.6310   30.2560   50.3990 C   0  0  0  0  0  0  0  0  0  0  0  0
   50.1030   31.2930   49.4370 C   0  0  0  0  0  0  0  0  0  0  0  0
   46.0800   33.0930   46.0320 C   0  0  0  0  0  0  0  0  0  0  0  0
   46.8700   32.1460   45.7070 C   0  0  0  0  0  0  0  0  0  0  0  0
   44.5090   35.9620   44.3620 C   0  0  0  0  0  0  0  0  0  0  0  0
   45.1290   35.9890   43.1210 C   0  0  0  0  0  0  0  0  0  0  0  0
   46.0960   35.0240   42.8980 C   0  0  0  0  0  0  0  0  0  0  0  0
   46.3850   34.1260   43.8680 N   0  0  0  0  0  0  0  0  0  0  0  0
   45.7660   34.1220   45.0630 C   0  0  0  0  0  0  0  0  0  0  0  0
   44.8380   35.0470   45.2840 N   0  0  0  0  0  0  0  0  0  0  0  0
   46.8350   34.9530   41.5980 C   0  0  0  0  0  0  0  0  0  0  0  0
   48.1836   30.8142   46.7765 H   0  0  0  0  0  0  0  0  0  0  0  0
   46.4973   30.2179   46.5915 H   0  0  0  0  0  0  0  0  0  0  0  0
   46.4880   32.6484   47.7168 H   0  0  0  0  0  0  0  0  0  0  0  0
   45.3924   30.9992   49.7890 H   0  0  0  0  0  0  0  0  0  0  0  0
   45.7958   29.6835   49.0607 H   0  0  0  0  0  0  0  0  0  0  0  0
   48.0112   31.7074   50.2084 H   0  0  0  0  0  0  0  0  0  0  0  0
   48.4541   29.9224   48.2554 H   0  0  0  0  0  0  0  0  0  0  0  0
   49.2236   30.5592   51.3748 H   0  0  0  0  0  0  0  0  0  0  0  0
   50.0848   29.3667   50.8609 H   0  0  0  0  0  0  0  0  0  0  0  0
   51.0136   31.1155   48.8460 H   0  0  0  0  0  0  0  0  0  0  0  0
   50.3576   32.3600   49.5193 H   0  0  0  0  0  0  0  0  0  0  0  0
   45.6409   33.1277   47.0400 H   0  0  0  0  0  0  0  0  0  0  0  0
   47.3380   32.0871   44.7133 H   0  0  0  0  0  0  0  0  0  0  0  0
   43.7325   36.7060   44.5934 H   0  0  0  0  0  0  0  0  0  0  0  0
   44.8667   36.7356   42.3570 H   0  0  0  0  0  0  0  0  0  0  0  0
   47.9125   34.8495   41.7939 H   0  0  0  0  0  0  0  0  0  0  0  0
   46.4819   34.0846   41.0224 H   0  0  0  0  0  0  0  0  0  0  0  0
   46.6537   35.8727   41.0224 H   0  0  0  0  0  0  0  0  0  0  0  0
  1  2  1  0
  2  3  1  0
  2  4  1  0
  3  4  1  0
  5  4  1  0
  5  7  1  0
  5  6  1  0
  7  6  1  0
  9  8  2  0
  9  1  1  0
 10 15  2  0
 11 10  1  0
 12 11  2  0
 12 13  1  0
 13 14  2  0
 14 15  1  0
 14  8  1  0
 16 12  1  0
  1 17  1  0
  1 18  1  0
  2 19  1  6
  3 20  1  0
  3 21  1  0
  4 22  1  1
  5 23  1  0
  6 24  1  0
  6 25  1  0
  7 26  1  0
  7 27  1  0
  8 28  1  0
  9 29  1  0
 10 30  1  0
 11 31  1  0
 16 32  1  0
 16 33  1  0
 16 34  1  0
M  ISO  8  17   8  18   8  19  13  20  13  21  13  22  13  23  13  24  13
M  ISO  8  25  13  26  13  27  13  30  14  31  14  32   8  33   8  34   8
M  END
>  <minimizedAffinity>  (1) 
-4.85597372

>  <minimizedRMSD>  (1) 
0.16659151

$$$$
