
     RDKit          3D

 53 57  0  0  1  0  0  0  0  0999 V2000
   47.0930   31.0220   46.9700 C   0  0  0  0  0  0  0  0  0  0  0  0
   47.2230   31.6530   48.3040 C   0  0  1  0  0  0  0  0  0  0  0  0
   46.8220   30.7740   49.4400 C   0  0  0  0  0  0  0  0  0  0  0  0
   48.2260   31.1630   49.2790 C   0  0  1  0  0  0  0  0  0  0  0  0
   49.2570   30.2270   48.7920 C   0  0  2  0  0  0  0  0  0  0  0  0
   49.8970   29.3350   49.8810 C   0  0  0  0  0  0  0  0  0  0  0  0
   50.6980   30.4110   49.2920 C   0  0  2  0  0  0  0  0  0  0  0  0
   51.0330   31.5560   50.1580 C   0  0  0  0  0  0  0  0  0  0  0  0
   51.2980   32.8550   49.7770 C   0  0  0  0  0  0  0  0  0  0  0  0
   51.6160   33.8770   50.6190 C   0  0  0  0  0  0  0  0  0  0  0  0
   51.6940   33.6460   51.9760 C   0  0  0  0  0  0  0  0  0  0  0  0
   51.4460   32.3770   52.4530 C   0  0  0  0  0  0  0  0  0  0  0  0
   51.1300   31.3940   51.5430 C   0  0  0  0  0  0  0  0  0  0  0  0
   46.0790   32.9940   46.1910 C   0  0  0  0  0  0  0  0  0  0  0  0
   46.9040   32.0520   45.8750 C   0  0  0  0  0  0  0  0  0  0  0  0
   44.5410   35.8360   44.4470 C   0  0  0  0  0  0  0  0  0  0  0  0
   45.1920   35.8660   43.2250 C   0  0  0  0  0  0  0  0  0  0  0  0
   46.1600   34.9270   43.0400 C   0  0  0  0  0  0  0  0  0  0  0  0
   46.4550   34.0180   44.0100 N   0  0  0  0  0  0  0  0  0  0  0  0
   45.8130   34.0020   45.1890 C   0  0  0  0  0  0  0  0  0  0  0  0
   44.8700   34.9250   45.3640 N   0  0  0  0  0  0  0  0  0  0  0  0
   46.9270   34.8490   41.8060 C   0  0  0  0  0  0  0  0  0  0  0  0
   48.1360   35.4950   41.6030 C   0  0  0  0  0  0  0  0  0  0  0  0
   48.8660   35.4240   40.4380 C   0  0  0  0  0  0  0  0  0  0  0  0
   48.3960   34.6760   39.3910 C   0  0  0  0  0  0  0  0  0  0  0  0
   47.2060   34.0140   39.5300 C   0  0  0  0  0  0  0  0  0  0  0  0
   46.5170   34.1210   40.7220 C   0  0  0  0  0  0  0  0  0  0  0  0
   48.0042   30.4426   46.7601 H   0  0  0  0  0  0  0  0  0  0  0  0
   46.2053   30.3725   46.9846 H   0  0  0  0  0  0  0  0  0  0  0  0
   46.9847   32.6549   47.9176 H   0  0  0  0  0  0  0  0  0  0  0  0
   46.2295   31.1853   50.2706 H   0  0  0  0  0  0  0  0  0  0  0  0
   46.2863   29.8175   49.5307 H   0  0  0  0  0  0  0  0  0  0  0  0
   48.9592   31.6091   49.9671 H   0  0  0  0  0  0  0  0  0  0  0  0
   48.7841   30.0985   47.8072 H   0  0  0  0  0  0  0  0  0  0  0  0
   49.5558   29.4158   50.9236 H   0  0  0  0  0  0  0  0  0  0  0  0
   50.0359   28.2509   50.0051 H   0  0  0  0  0  0  0  0  0  0  0  0
   51.6693   30.4709   48.7791 H   0  0  0  0  0  0  0  0  0  0  0  0
   51.2483   33.0847   48.7024 H   0  0  0  0  0  0  0  0  0  0  0  0
   51.8099   34.8828   50.2180 H   0  0  0  0  0  0  0  0  0  0  0  0
   51.9503   34.4622   52.6675 H   0  0  0  0  0  0  0  0  0  0  0  0
   51.4991   32.1563   53.5293 H   0  0  0  0  0  0  0  0  0  0  0  0
   50.9358   30.3877   51.9426 H   0  0  0  0  0  0  0  0  0  0  0  0
   45.1195   32.5214   46.4481 H   0  0  0  0  0  0  0  0  0  0  0  0
   46.5675   33.5347   47.0150 H   0  0  0  0  0  0  0  0  0  0  0  0
   46.5225   31.5412   44.9786 H   0  0  0  0  0  0  0  0  0  0  0  0
   47.8826   32.5235   45.7017 H   0  0  0  0  0  0  0  0  0  0  0  0
   43.7482   36.5675   44.6625 H   0  0  0  0  0  0  0  0  0  0  0  0
   44.9416   36.6050   42.4496 H   0  0  0  0  0  0  0  0  0  0  0  0
   48.5384   36.1039   42.4260 H   0  0  0  0  0  0  0  0  0  0  0  0
   49.8201   35.9641   40.3485 H   0  0  0  0  0  0  0  0  0  0  0  0
   48.9663   34.6084   38.4528 H   0  0  0  0  0  0  0  0  0  0  0  0
   46.8049   33.4065   38.7054 H   0  0  0  0  0  0  0  0  0  0  0  0
   45.5638   33.5785   40.8069 H   0  0  0  0  0  0  0  0  0  0  0  0
  1  2  1  0
  2  4  1  0
  2  3  1  0
  4  3  1  0
  5  4  1  0
  5  7  1  0
  5  6  1  0
  7  6  1  0
  7  8  1  0
  8 13  1  0
  9  8  2  0
  9 10  1  0
 10 11  2  0
 11 12  1  0
 13 12  2  0
 15 14  1  0
 15  1  1  0
 16 21  2  0
 17 16  1  0
 18 17  2  0
 18 19  1  0
 19 20  2  0
 20 21  1  0
 20 14  1  0
 22 18  1  0
 23 22  2  0
 24 23  1  0
 25 26  1  0
 25 24  2  0
 26 27  2  0
 27 22  1  0
  1 28  1  0
  1 29  1  0
  2 30  1  6
  3 31  1  0
  3 32  1  0
  4 33  1  1
  5 34  1  6
  6 35  1  0
  6 36  1  0
  7 37  1  6
  9 38  1  0
 10 39  1  0
 11 40  1  0
 12 41  1  0
 13 42  1  0
 14 43  1  0
 14 44  1  0
 15 45  1  0
 15 46  1  0
 16 47  1  0
 17 48  1  0
 23 49  1  0
 24 50  1  0
 25 51  1  0
 26 52  1  0
 27 53  1  0
M  ISO  8  28   8  29   8  30  13  31  13  32  13  33  13  34  13  35  13
M  ISO  8  36  13  37  13  38  14  39  14  40  14  41  14  42  14  43   8
M  ISO  8  44   8  45   8  46   8  47  14  48  14  49  14  50  14  51  14
M  ISO  2  52  14  53  14
M  END
>  <minimizedAffinity>  (1) 
-7.03149843

>  <minimizedRMSD>  (1) 
1.51296711

$$$$
