
     RDKit          3D

 32 33  0  0  0  0  0  0  0  0999 V2000
   44.5840   33.6900   41.1570 C   0  0  0  0  0  0  0  0  0  0  0  0
   45.9680   34.1800   41.0700 C   0  0  0  0  0  0  0  0  0  0  0  0
   46.8110   33.9820   39.9990 C   0  0  0  0  0  0  0  0  0  0  0  0
   48.0990   34.4360   39.9110 C   0  0  0  0  0  0  0  0  0  0  0  0
   48.5750   35.1520   41.0050 C   0  0  0  0  0  0  0  0  0  0  0  0
   47.7660   35.3720   42.0980 C   0  0  0  0  0  0  0  0  0  0  0  0
   46.4690   34.9040   42.1590 C   0  0  0  0  0  0  0  0  0  0  0  0
   45.6110   35.1460   43.3330 C   0  0  0  0  0  0  0  0  0  0  0  0
   45.0950   36.5580   43.3640 C   0  0  0  0  0  0  0  0  0  0  0  0
   43.8680   33.8520   39.8240 C   0  0  0  0  0  0  0  0  0  0  0  0
   41.0800   35.6560   41.5990 C   0  0  0  0  0  0  0  0  0  0  0  0
   42.2950   34.9720   41.3600 C   0  0  0  0  0  0  0  0  0  0  0  0
   42.5980   34.5660   40.0710 C   0  0  0  0  0  0  0  0  0  0  0  0
   41.6800   34.8630   39.1010 N   0  0  0  0  0  0  0  0  0  0  0  0
   40.5410   35.5080   39.3400 C   0  0  0  0  0  0  0  0  0  0  0  0
   40.2310   35.9090   40.5880 N   0  0  0  0  0  0  0  0  0  0  0  0
   44.5952   32.6253   41.4332 H   0  0  0  0  0  0  0  0  0  0  0  0
   44.0494   34.2776   41.9178 H   0  0  0  0  0  0  0  0  0  0  0  0
   46.4168   33.4124   39.1445 H   0  0  0  0  0  0  0  0  0  0  0  0
   48.7229   34.2456   39.0253 H   0  0  0  0  0  0  0  0  0  0  0  0
   49.6026   35.5444   40.9970 H   0  0  0  0  0  0  0  0  0  0  0  0
   48.1670   35.9396   42.9506 H   0  0  0  0  0  0  0  0  0  0  0  0
   44.7560   34.4548   43.2980 H   0  0  0  0  0  0  0  0  0  0  0  0
   46.2144   34.9818   44.2380 H   0  0  0  0  0  0  0  0  0  0  0  0
   44.9765   36.8822   44.4084 H   0  0  0  0  0  0  0  0  0  0  0  0
   45.8091   37.2206   42.8531 H   0  0  0  0  0  0  0  0  0  0  0  0
   44.1219   36.6041   42.8531 H   0  0  0  0  0  0  0  0  0  0  0  0
   43.6616   32.8631   39.3886 H   0  0  0  0  0  0  0  0  0  0  0  0
   44.4947   34.4197   39.1204 H   0  0  0  0  0  0  0  0  0  0  0  0
   40.8284   35.9829   42.6187 H   0  0  0  0  0  0  0  0  0  0  0  0
   42.9901   34.7653   42.1871 H   0  0  0  0  0  0  0  0  0  0  0  0
   39.8472   35.7154   38.5120 H   0  0  0  0  0  0  0  0  0  0  0  0
  2  1  1  0
  2  7  1  0
  3  2  2  0
  4  3  1  0
  4  5  2  0
  5  6  1  0
  6  7  2  0
  7  8  1  0
  8  9  1  0
 10 13  1  0
 10  1  1  0
 12 11  2  0
 13 12  1  0
 14 15  1  0
 14 13  2  0
 15 16  2  0
 16 11  1  0
  1 17  1  0
  1 18  1  0
  3 19  1  0
  4 20  1  0
  5 21  1  0
  6 22  1  0
  8 23  1  0
  8 24  1  0
  9 25  1  0
  9 26  1  0
  9 27  1  0
 10 28  1  0
 10 29  1  0
 11 30  1  0
 12 31  1  0
 15 32  1  0
M  ISO  8  17   8  18   8  19  14  20  14  21  14  22  14  23   8  24   8
M  ISO  8  25   8  26   8  27   8  28   8  29   8  30  14  31  14  32  14
M  END
>  <minimizedAffinity>  (1) 
-4.96387529

>  <minimizedRMSD>  (1) 
1.54564857

$$$$
