
     RDKit          3D

 40 42  0  0  0  0  0  0  0  0999 V2000
   46.3220   33.9720   40.8940 C   0  0  0  0  0  0  0  0  0  0  0  0
   46.8620   33.7820   39.6280 C   0  0  0  0  0  0  0  0  0  0  0  0
   48.0590   34.3090   39.2110 C   0  0  0  0  0  0  0  0  0  0  0  0
   48.7490   35.0780   40.1400 C   0  0  0  0  0  0  0  0  0  0  0  0
   48.2300   35.2790   41.3980 C   0  0  0  0  0  0  0  0  0  0  0  0
   47.0330   34.7550   41.8250 C   0  0  0  0  0  0  0  0  0  0  0  0
   46.5240   35.0140   43.1930 C   0  0  0  0  0  0  0  0  0  0  0  0
   46.2240   33.7650   43.9820 C   0  0  0  0  0  0  0  0  0  0  0  0
   45.6440   34.2620   45.3140 C   0  0  0  0  0  0  0  0  0  0  0  0
   44.4150   34.8460   45.0150 O   0  0  0  0  0  0  0  0  0  0  0  0
   44.6530   36.0940   44.4470 C   0  0  0  0  0  0  0  0  0  0  0  0
   45.3860   35.9730   43.1250 C   0  0  0  0  0  0  0  0  0  0  0  0
   45.0380   33.3960   41.3270 C   0  0  0  0  0  0  0  0  0  0  0  0
   44.0440   33.3250   40.1920 C   0  0  0  0  0  0  0  0  0  0  0  0
   41.3140   35.6380   41.4240 C   0  0  0  0  0  0  0  0  0  0  0  0
   42.5820   35.2170   40.9430 C   0  0  0  0  0  0  0  0  0  0  0  0
   42.7410   33.8430   40.6980 C   0  0  0  0  0  0  0  0  0  0  0  0
   41.6670   33.0140   40.9400 N   0  0  0  0  0  0  0  0  0  0  0  0
   40.4950   33.4670   41.3930 C   0  0  0  0  0  0  0  0  0  0  0  0
   40.3200   34.7840   41.6360 N   0  0  0  0  0  0  0  0  0  0  0  0
   46.2932   33.1693   38.9132 H   0  0  0  0  0  0  0  0  0  0  0  0
   48.4500   34.1324   38.1981 H   0  0  0  0  0  0  0  0  0  0  0  0
   49.7151   35.5283   39.8682 H   0  0  0  0  0  0  0  0  0  0  0  0
   48.8066   35.8951   42.1036 H   0  0  0  0  0  0  0  0  0  0  0  0
   47.3321   35.4829   43.7735 H   0  0  0  0  0  0  0  0  0  0  0  0
   45.4910   33.1398   43.4511 H   0  0  0  0  0  0  0  0  0  0  0  0
   47.1209   33.1454   44.1290 H   0  0  0  0  0  0  0  0  0  0  0  0
   45.5059   33.4189   46.0069 H   0  0  0  0  0  0  0  0  0  0  0  0
   46.3198   34.9817   45.7991 H   0  0  0  0  0  0  0  0  0  0  0  0
   43.6905   36.5986   44.2770 H   0  0  0  0  0  0  0  0  0  0  0  0
   45.2825   36.6733   45.1386 H   0  0  0  0  0  0  0  0  0  0  0  0
   45.7745   36.9631   42.8445 H   0  0  0  0  0  0  0  0  0  0  0  0
   44.6720   35.5943   42.3788 H   0  0  0  0  0  0  0  0  0  0  0  0
   45.2146   32.3800   41.7098 H   0  0  0  0  0  0  0  0  0  0  0  0
   44.6182   34.0457   42.1091 H   0  0  0  0  0  0  0  0  0  0  0  0
   43.9291   32.2829   39.8592 H   0  0  0  0  0  0  0  0  0  0  0  0
   44.3913   33.9243   39.3375 H   0  0  0  0  0  0  0  0  0  0  0  0
   41.1501   36.7065   41.6276 H   0  0  0  0  0  0  0  0  0  0  0  0
   43.3999   35.9320   40.7706 H   0  0  0  0  0  0  0  0  0  0  0  0
   39.6678   32.7636   41.5691 H   0  0  0  0  0  0  0  0  0  0  0  0
  1 13  1  0
  1  6  1  0
  2  1  2  0
  3  2  1  0
  3  4  2  0
  4  5  1  0
  5  6  2  0
  6  7  1  0
  7  8  1  0
  8  9  1  0
 10  9  1  0
 11 10  1  0
 12  7  1  0
 12 11  1  0
 14 17  1  0
 14 13  1  0
 15 20  2  0
 16 15  1  0
 17 18  1  0
 17 16  2  0
 18 19  2  0
 19 20  1  0
  2 21  1  0
  3 22  1  0
  4 23  1  0
  5 24  1  0
  7 25  1  0
  8 26  1  0
  8 27  1  0
  9 28  1  0
  9 29  1  0
 11 30  1  0
 11 31  1  0
 12 32  1  0
 12 33  1  0
 13 34  1  0
 13 35  1  0
 14 36  1  0
 14 37  1  0
 15 38  1  0
 16 39  1  0
 19 40  1  0
M  ISO  8  21  14  22  14  23  14  24  14  25  13  26  13  27  13  28  13
M  ISO  8  29  13  30  13  31  13  32  13  33  13  34   8  35   8  36   8
M  ISO  4  37   8  38  14  39  14  40  14
M  END
>  <minimizedAffinity>  (1) 
-5.46352482

>  <minimizedRMSD>  (1) 
0.83529526

$$$$
