
     RDKit          3D

 27 28  0  0  0  0  0  0  0  0999 V2000
   44.8910   33.6120   41.4180 C   0  0  0  0  0  0  0  0  0  0  0  0
   46.2140   34.1960   41.2180 C   0  0  0  0  0  0  0  0  0  0  0  0
   46.9910   34.0550   40.0950 C   0  0  0  0  0  0  0  0  0  0  0  0
   48.2440   34.6030   39.9070 C   0  0  0  0  0  0  0  0  0  0  0  0
   48.7450   35.3670   40.9690 C   0  0  0  0  0  0  0  0  0  0  0  0
   47.9870   35.5350   42.1280 C   0  0  0  0  0  0  0  0  0  0  0  0
   46.7330   34.9600   42.2600 C   0  0  0  0  0  0  0  0  0  0  0  0
   45.9980   35.1470   43.4320 O   0  0  0  0  0  0  0  0  0  0  0  0
   44.0030   33.8780   40.1980 C   0  0  0  0  0  0  0  0  0  0  0  0
   40.8730   35.5870   41.3990 C   0  0  0  0  0  0  0  0  0  0  0  0
   42.1970   35.4020   40.9380 C   0  0  0  0  0  0  0  0  0  0  0  0
   42.6170   34.1020   40.6820 C   0  0  0  0  0  0  0  0  0  0  0  0
   41.7240   33.0840   40.8920 N   0  0  0  0  0  0  0  0  0  0  0  0
   40.4760   33.2890   41.3290 C   0  0  0  0  0  0  0  0  0  0  0  0
   40.0430   34.5440   41.5860 N   0  0  0  0  0  0  0  0  0  0  0  0
   44.9917   32.5264   41.5639 H   0  0  0  0  0  0  0  0  0  0  0  0
   44.4279   34.0697   42.3046 H   0  0  0  0  0  0  0  0  0  0  0  0
   46.5788   33.4522   39.2724 H   0  0  0  0  0  0  0  0  0  0  0  0
   48.8146   34.4491   38.9793 H   0  0  0  0  0  0  0  0  0  0  0  0
   49.7373   35.8350   40.8889 H   0  0  0  0  0  0  0  0  0  0  0  0
   48.3932   36.1365   42.9545 H   0  0  0  0  0  0  0  0  0  0  0  0
   46.3722   35.6912   44.1695 H   0  0  0  0  0  0  0  0  0  0  0  0
   44.0271   33.0106   39.5220 H   0  0  0  0  0  0  0  0  0  0  0  0
   44.3633   34.7591   39.6468 H   0  0  0  0  0  0  0  0  0  0  0  0
   40.5137   36.6052   41.6093 H   0  0  0  0  0  0  0  0  0  0  0  0
   42.8715   36.2577   40.7871 H   0  0  0  0  0  0  0  0  0  0  0  0
   39.8003   32.4341   41.4796 H   0  0  0  0  0  0  0  0  0  0  0  0
  2  1  1  0
  2  7  1  0
  3  2  2  0
  4  3  1  0
  4  5  2  0
  5  6  1  0
  6  7  2  0
  7  8  1  0
  9 12  1  0
  9  1  1  0
 10 15  2  0
 11 10  1  0
 12 13  1  0
 12 11  2  0
 13 14  2  0
 14 15  1  0
  1 16  1  0
  1 17  1  0
  3 18  1  0
  4 19  1  0
  5 20  1  0
  6 21  1  0
  8 22  1  0
  9 23  1  0
  9 24  1  0
 10 25  1  0
 11 26  1  0
 14 27  1  0
M  ISO  8  16   8  17   8  18  14  19  14  20  14  21  14  22   3  23   8
M  ISO  4  24   8  25  14  26  14  27  14
M  END
>  <minimizedAffinity>  (1) 
-4.47404432

>  <minimizedRMSD>  (1) 
0.608826458

$$$$
