
     RDKit          3D

 49 53  0  0  1  0  0  0  0  0999 V2000
   46.3210   32.4240   46.1230 C   0  0  1  0  0  0  0  0  0  0  0  0
   46.8830   32.5610   47.4740 C   0  0  0  0  0  0  0  0  0  0  0  0
   45.4610   31.9310   47.1800 C   0  0  2  0  0  0  0  0  0  0  0  0
   45.2170   30.5190   47.4840 C   0  0  0  0  0  0  0  0  0  0  0  0
   45.0950   29.9450   48.7130 C   0  0  0  0  0  0  0  0  0  0  0  0
   44.9880   28.5850   48.9690 C   0  0  0  0  0  0  0  0  0  0  0  0
   45.0100   27.7380   47.8490 C   0  0  0  0  0  0  0  0  0  0  0  0
   45.1300   28.2940   46.5800 C   0  0  0  0  0  0  0  0  0  0  0  0
   45.0900   27.4290   45.5000 C   0  0  0  0  0  0  0  0  0  0  0  0
   45.1410   27.9520   44.2170 C   0  0  0  0  0  0  0  0  0  0  0  0
   45.2280   29.3090   44.0070 C   0  0  0  0  0  0  0  0  0  0  0  0
   45.2670   30.1300   45.1120 C   0  0  0  0  0  0  0  0  0  0  0  0
   45.2280   29.6630   46.4100 C   0  0  0  0  0  0  0  0  0  0  0  0
   44.6160   35.5590   45.1740 C   0  0  0  0  0  0  0  0  0  0  0  0
   45.0760   35.7740   43.8280 C   0  0  0  0  0  0  0  0  0  0  0  0
   45.9960   34.8000   43.2970 C   0  0  0  0  0  0  0  0  0  0  0  0
   46.3640   33.7830   44.0540 N   0  0  0  0  0  0  0  0  0  0  0  0
   45.8930   33.6200   45.3420 C   0  0  0  0  0  0  0  0  0  0  0  0
   45.0450   34.4870   45.8770 N   0  0  0  0  0  0  0  0  0  0  0  0
   46.4850   34.9980   41.9040 C   0  0  0  0  0  0  0  0  0  0  0  0
   47.9540   35.3150   41.9350 C   0  0  0  0  0  0  0  0  0  0  0  0
   48.6450   35.2240   40.6270 C   0  0  0  0  0  0  0  0  0  0  0  0
   48.3520   33.9550   39.8930 C   0  0  0  0  0  0  0  0  0  0  0  0
   46.8560   33.8370   39.7380 C   0  0  0  0  0  0  0  0  0  0  0  0
   46.1680   33.7900   41.0570 C   0  0  0  0  0  0  0  0  0  0  0  0
   46.7269   31.9716   45.2062 H   0  0  0  0  0  0  0  0  0  0  0  0
   47.7201   31.9255   47.7987 H   0  0  0  0  0  0  0  0  0  0  0  0
   47.2806   33.3785   48.0933 H   0  0  0  0  0  0  0  0  0  0  0  0
   44.4090   32.1102   47.4468 H   0  0  0  0  0  0  0  0  0  0  0  0
   45.0799   30.6202   49.5812 H   0  0  0  0  0  0  0  0  0  0  0  0
   44.8914   28.1925   49.9920 H   0  0  0  0  0  0  0  0  0  0  0  0
   44.9332   26.6478   47.9740 H   0  0  0  0  0  0  0  0  0  0  0  0
   45.0188   26.3427   45.6574 H   0  0  0  0  0  0  0  0  0  0  0  0
   45.1114   27.2714   43.3534 H   0  0  0  0  0  0  0  0  0  0  0  0
   45.2652   29.7247   42.9893 H   0  0  0  0  0  0  0  0  0  0  0  0
   45.3328   31.2162   44.9514 H   0  0  0  0  0  0  0  0  0  0  0  0
   43.9126   36.2695   45.6328 H   0  0  0  0  0  0  0  0  0  0  0  0
   44.7425   36.6379   43.2343 H   0  0  0  0  0  0  0  0  0  0  0  0
   45.9675   35.8499   41.4388 H   0  0  0  0  0  0  0  0  0  0  0  0
   48.0732   36.3413   42.3126 H   0  0  0  0  0  0  0  0  0  0  0  0
   48.4178   34.5541   42.5799 H   0  0  0  0  0  0  0  0  0  0  0  0
   48.3244   36.0710   40.0026 H   0  0  0  0  0  0  0  0  0  0  0  0
   49.7265   35.2438   40.8267 H   0  0  0  0  0  0  0  0  0  0  0  0
   48.8286   33.9791   38.9019 H   0  0  0  0  0  0  0  0  0  0  0  0
   48.7462   33.0928   40.4508 H   0  0  0  0  0  0  0  0  0  0  0  0
   46.4864   34.7060   39.1739 H   0  0  0  0  0  0  0  0  0  0  0  0
   46.6394   32.8997   39.2046 H   0  0  0  0  0  0  0  0  0  0  0  0
   45.0816   33.7491   40.8895 H   0  0  0  0  0  0  0  0  0  0  0  0
   46.5222   32.8971   41.5930 H   0  0  0  0  0  0  0  0  0  0  0  0
  1  3  1  0
  1  2  1  0
  3  2  1  0
  3  4  1  0
  4  5  2  0
  5  6  1  0
  7  6  2  0
  8  7  1  0
  9  8  2  0
 10  9  1  0
 11 10  2  0
 11 12  1  0
 12 13  2  0
 13  8  1  0
 13  4  1  0
 14 19  2  0
 15 14  1  0
 16 15  2  0
 16 17  1  0
 17 18  2  0
 18 19  1  0
 18  1  1  0
 20 21  1  0
 20 16  1  0
 22 21  1  0
 23 22  1  0
 24 23  1  0
 24 25  1  0
 25 20  1  0
  1 26  1  6
  2 27  1  0
  2 28  1  0
  3 29  1  1
  5 30  1  0
  6 31  1  0
  7 32  1  0
  9 33  1  0
 10 34  1  0
 11 35  1  0
 12 36  1  0
 14 37  1  0
 15 38  1  0
 20 39  1  0
 21 40  1  0
 21 41  1  0
 22 42  1  0
 22 43  1  0
 23 44  1  0
 23 45  1  0
 24 46  1  0
 24 47  1  0
 25 48  1  0
 25 49  1  0
M  ISO  8  26  13  27  13  28  13  29  13  30  14  31  14  32  14  33  14
M  ISO  8  34  14  35  14  36  14  37  14  38  14  39  13  40  13  41  13
M  ISO  8  42  13  43  13  44  13  45  13  46  13  47  13  48  13  49  13
M  END
>  <minimizedAffinity>  (1) 
-6.2088275

>  <minimizedRMSD>  (1) 
0.493613452

$$$$
