
     RDKit          3D

 33 35  0  0  1  0  0  0  0  0999 V2000
   40.5630   32.8130   39.3560 N   0  0  0  0  0  0  0  0  0  0  0  0
   40.8850   32.6890   40.7790 C   0  0  2  0  0  0  0  0  0  0  0  0
   39.7620   33.0910   41.6560 C   0  0  0  0  0  0  0  0  0  0  0  0
   38.5230   33.3300   40.9320 N   0  0  0  0  0  0  0  0  0  0  0  0
   38.6390   34.1310   39.7690 C   0  0  0  0  0  0  0  0  0  0  0  0
   40.0440   34.1950   39.2240 C   0  0  2  0  0  0  0  0  0  0  0  0
   44.0900   34.2720   41.2360 C   0  0  0  0  0  0  0  0  0  0  0  0
   43.1700   35.2270   41.6880 C   0  0  0  0  0  0  0  0  0  0  0  0
   41.8820   34.7330   41.5710 C   0  0  0  0  0  0  0  0  0  0  0  0
   42.0430   33.5160   41.0590 N   0  0  0  0  0  0  0  0  0  0  0  0
   43.3270   33.2450   40.8630 N   0  0  0  0  0  0  0  0  0  0  0  0
   47.6510   35.1190   42.0980 C   0  0  0  0  0  0  0  0  0  0  0  0
   46.2270   35.0360   42.2630 C   0  0  0  0  0  0  0  0  0  0  0  0
   45.5420   34.4490   41.2290 C   0  0  0  0  0  0  0  0  0  0  0  0
   46.2170   33.9880   40.1350 N   0  0  0  0  0  0  0  0  0  0  0  0
   47.5600   34.0870   40.0210 C   0  0  0  0  0  0  0  0  0  0  0  0
   48.2480   34.6480   41.0010 N   0  0  0  0  0  0  0  0  0  0  0  0
   39.9940   34.5770   37.7830 C   0  0  0  0  0  0  0  0  0  0  0  0
   40.6930   35.5440   37.4610 O   0  0  0  0  0  0  0  0  0  0  0  0
   41.4049   32.6814   38.7774 H   0  0  0  0  0  0  0  0  0  0  0  0
   41.0908   31.6296   40.9921 H   0  0  0  0  0  0  0  0  0  0  0  0
   39.5885   32.2903   42.3901 H   0  0  0  0  0  0  0  0  0  0  0  0
   40.0468   34.0390   42.1358 H   0  0  0  0  0  0  0  0  0  0  0  0
   38.1389   32.4166   40.6508 H   0  0  0  0  0  0  0  0  0  0  0  0
   37.9820   33.7142   38.9915 H   0  0  0  0  0  0  0  0  0  0  0  0
   38.3525   35.1552   40.0499 H   0  0  0  0  0  0  0  0  0  0  0  0
   40.6718   34.9289   39.7506 H   0  0  0  0  0  0  0  0  0  0  0  0
   43.4321   36.2216   42.0779 H   0  0  0  0  0  0  0  0  0  0  0  0
   40.9400   35.2331   41.8402 H   0  0  0  0  0  0  0  0  0  0  0  0
   48.2607   35.5789   42.8897 H   0  0  0  0  0  0  0  0  0  0  0  0
   45.7182   35.4182   43.1602 H   0  0  0  0  0  0  0  0  0  0  0  0
   48.0734   33.7063   39.1258 H   0  0  0  0  0  0  0  0  0  0  0  0
   39.3751   34.0332   37.0541 H   0  0  0  0  0  0  0  0  0  0  0  0
  1  2  1  0
  2 10  1  0
  2  3  1  0
  4  3  1  0
  5  4  1  0
  6  1  1  0
  6  5  1  0
  7  8  1  0
  9  8  2  0
 10  9  1  0
 11 10  1  0
 11  7  2  0
 12 13  2  0
 14  7  1  0
 14 13  1  0
 15 14  2  0
 16 15  1  0
 16 17  2  0
 17 12  1  0
 18  6  1  0
 19 18  2  0
  1 20  1  0
  2 21  1  6
  3 22  1  0
  3 23  1  0
  4 24  1  0
  5 25  1  0
  5 26  1  0
  6 27  1  1
  8 28  1  0
  9 29  1  0
 12 30  1  0
 13 31  1  0
 16 32  1  0
 18 33  1  0
M  ISO  8  20   5  21  13  22  13  23  13  24   5  25  13  26  13  27  13
M  ISO  6  28  14  29  14  30  14  31  14  32  14  33   6
M  END
>  <minimizedAffinity>  (1) 
-5.35946655

>  <minimizedRMSD>  (1) 
2.35266256

$$$$
