
     RDKit          3D

 32 34  0  0  1  0  0  0  0  0999 V2000
   45.5510   34.5870   42.0820 C   0  0  0  0  0  0  0  0  0  0  0  0
   44.8420   35.6610   42.6350 C   0  0  0  0  0  0  0  0  0  0  0  0
   43.4870   35.4910   42.4110 C   0  0  0  0  0  0  0  0  0  0  0  0
   43.4000   34.3450   41.7420 N   0  0  0  0  0  0  0  0  0  0  0  0
   44.6010   33.8180   41.5500 N   0  0  0  0  0  0  0  0  0  0  0  0
   42.2270   33.3700   39.9430 N   0  0  0  0  0  0  0  0  0  0  0  0
   42.1040   33.8540   41.3200 C   0  0  2  0  0  0  0  0  0  0  0  0
   41.0980   34.9370   41.4540 C   0  0  0  0  0  0  0  0  0  0  0  0
   40.2950   35.1210   40.2570 N   0  0  0  0  0  0  0  0  0  0  0  0
   41.0370   35.2190   39.0470 C   0  0  0  0  0  0  0  0  0  0  0  0
   42.3970   34.5840   39.1340 C   0  0  1  0  0  0  0  0  0  0  0  0
   43.4150   35.3890   39.5240 O   0  0  0  0  0  0  0  0  0  0  0  0
   49.2710   35.0990   41.9360 C   0  0  0  0  0  0  0  0  0  0  0  0
   47.8830   35.4250   41.8150 C   0  0  0  0  0  0  0  0  0  0  0  0
   47.0030   34.4220   42.1410 C   0  0  0  0  0  0  0  0  0  0  0  0
   47.4790   33.2140   42.5450 N   0  0  0  0  0  0  0  0  0  0  0  0
   48.7870   32.9240   42.6520 C   0  0  0  0  0  0  0  0  0  0  0  0
   49.6650   33.8890   42.3400 N   0  0  0  0  0  0  0  0  0  0  0  0
   45.2940   36.5111   43.1670 H   0  0  0  0  0  0  0  0  0  0  0  0
   42.6656   36.1553   42.7177 H   0  0  0  0  0  0  0  0  0  0  0  0
   43.0455   32.7522   39.8470 H   0  0  0  0  0  0  0  0  0  0  0  0
   41.7641   33.0197   41.9512 H   0  0  0  0  0  0  0  0  0  0  0  0
   40.4277   34.6905   42.2906 H   0  0  0  0  0  0  0  0  0  0  0  0
   41.6467   35.8744   41.6279 H   0  0  0  0  0  0  0  0  0  0  0  0
   39.6541   34.3188   40.1752 H   0  0  0  0  0  0  0  0  0  0  0  0
   41.1631   36.2833   38.7993 H   0  0  0  0  0  0  0  0  0  0  0  0
   40.4727   34.6790   38.2725 H   0  0  0  0  0  0  0  0  0  0  0  0
   42.7464   34.3376   38.1205 H   0  0  0  0  0  0  0  0  0  0  0  0
   43.4522   35.4184   40.5129 H   0  0  0  0  0  0  0  0  0  0  0  0
   50.0274   35.8594   41.6916 H   0  0  0  0  0  0  0  0  0  0  0  0
   47.5422   36.4164   41.4819 H   0  0  0  0  0  0  0  0  0  0  0  0
   49.1253   31.9312   42.9834 H   0  0  0  0  0  0  0  0  0  0  0  0
  1 15  1  0
  1  2  1  0
  3  2  2  0
  4  3  1  0
  5  4  1  0
  5  1  2  0
  6  7  1  0
  7  8  1  0
  7  4  1  0
  9  8  1  0
 10 11  1  0
 10  9  1  0
 11 12  1  0
 11  6  1  0
 13 18  2  0
 14 13  1  0
 14 15  2  0
 15 16  1  0
 16 17  2  0
 18 17  1  0
  2 19  1  0
  3 20  1  0
  6 21  1  0
  7 22  1  1
  8 23  1  0
  8 24  1  0
  9 25  1  0
 10 26  1  0
 10 27  1  0
 11 28  1  6
 12 29  1  0
 13 30  1  0
 14 31  1  0
 17 32  1  0
M  ISO  8  19  14  20  14  21   5  22  13  23  13  24  13  25   5  26  13
M  ISO  6  27  13  28  13  29   3  30  14  31  14  32  14
M  END
>  <minimizedAffinity>  (1) 
-4.81935787

>  <minimizedRMSD>  (1) 
0.248741716

$$$$
