
     RDKit          3D

 37 40  0  0  1  0  0  0  0  0999 V2000
   44.8300   34.6650   42.4620 N   0  0  0  0  0  0  0  0  0  0  0  0
   45.4790   33.7760   41.5770 C   0  0  1  0  0  0  0  0  0  0  0  0
   45.2440   34.0150   40.1310 C   0  0  0  0  0  0  0  0  0  0  0  0
   43.9460   34.4090   39.7820 N   0  0  0  0  0  0  0  0  0  0  0  0
   43.2470   35.2310   40.6870 C   0  0  0  0  0  0  0  0  0  0  0  0
   44.1320   35.7300   41.7970 C   0  0  0  0  0  0  0  0  0  0  0  0
   47.6070   34.9140   41.7470 C   0  0  0  0  0  0  0  0  0  0  0  0
   46.9700   33.6800   41.7870 C   0  0  0  0  0  0  0  0  0  0  0  0
   47.7550   32.5700   41.9910 C   0  0  0  0  0  0  0  0  0  0  0  0
   49.0950   32.6820   42.1470 C   0  0  0  0  0  0  0  0  0  0  0  0
   49.9680   31.6890   42.3510 N   0  0  0  0  0  0  0  0  0  0  0  0
   51.1670   32.2170   42.4480 N   0  0  0  0  0  0  0  0  0  0  0  0
   51.0790   33.5390   42.3110 C   0  0  0  0  0  0  0  0  0  0  0  0
   49.7550   33.8920   42.1120 C   0  0  0  0  0  0  0  0  0  0  0  0
   48.9950   35.0070   41.9100 C   0  0  0  0  0  0  0  0  0  0  0  0
   44.4450   35.4840   44.6730 C   0  0  0  0  0  0  0  0  0  0  0  0
   44.9260   34.4400   43.8540 C   0  0  0  0  0  0  0  0  0  0  0  0
   45.4440   33.3130   44.4650 C   0  0  0  0  0  0  0  0  0  0  0  0
   45.4870   33.2200   45.8200 N   0  0  0  0  0  0  0  0  0  0  0  0
   45.0150   34.2440   46.5940 C   0  0  0  0  0  0  0  0  0  0  0  0
   44.5050   35.3540   46.0230 N   0  0  0  0  0  0  0  0  0  0  0  0
   44.9951   32.8264   41.8492 H   0  0  0  0  0  0  0  0  0  0  0  0
   45.9362   34.8042   39.8024 H   0  0  0  0  0  0  0  0  0  0  0  0
   45.4050   33.0452   39.6375 H   0  0  0  0  0  0  0  0  0  0  0  0
   44.0085   34.9181   38.8888 H   0  0  0  0  0  0  0  0  0  0  0  0
   42.8414   36.0954   40.1408 H   0  0  0  0  0  0  0  0  0  0  0  0
   42.4428   34.6313   41.1382 H   0  0  0  0  0  0  0  0  0  0  0  0
   44.8709   36.4263   41.3737 H   0  0  0  0  0  0  0  0  0  0  0  0
   43.4903   36.2258   42.5403 H   0  0  0  0  0  0  0  0  0  0  0  0
   47.0153   35.8272   41.5857 H   0  0  0  0  0  0  0  0  0  0  0  0
   47.2869   31.5753   42.0280 H   0  0  0  0  0  0  0  0  0  0  0  0
   49.7402   30.6869   42.4199 H   0  0  0  0  0  0  0  0  0  0  0  0
   51.9255   34.2404   42.3499 H   0  0  0  0  0  0  0  0  0  0  0  0
   49.4797   35.9938   41.8746 H   0  0  0  0  0  0  0  0  0  0  0  0
   44.0252   36.3950   44.2214 H   0  0  0  0  0  0  0  0  0  0  0  0
   45.8245   32.4848   43.8491 H   0  0  0  0  0  0  0  0  0  0  0  0
   45.0517   34.1615   47.6903 H   0  0  0  0  0  0  0  0  0  0  0  0
  1 17  1  0
  2  8  1  0
  2  1  1  0
  3  2  1  0
  4  3  1  0
  4  5  1  0
  5  6  1  0
  6  1  1  0
  7  8  2  0
  7 15  1  0
  8  9  1  0
  9 10  2  0
 10 11  1  0
 11 12  1  0
 13 12  2  0
 14 10  1  0
 14 13  1  0
 15 14  2  0
 16 21  2  0
 17 18  2  0
 17 16  1  0
 18 19  1  0
 19 20  2  0
 21 20  1  0
  2 22  1  1
  3 23  1  0
  3 24  1  0
  4 25  1  0
  5 26  1  0
  5 27  1  0
  6 28  1  0
  6 29  1  0
  7 30  1  0
  9 31  1  0
 11 32  1  0
 13 33  1  0
 15 34  1  0
 16 35  1  0
 18 36  1  0
 20 37  1  0
M  ISO  8  22  13  23  13  24  13  25   5  26  13  27  13  28  13  29  13
M  ISO  8  30  14  31  14  32   9  33  14  34  14  35  14  36  14  37  14
M  END
>  <minimizedAffinity>  (1) 
-5.27491331

>  <minimizedRMSD>  (1) 
1.69056273

$$$$
