
     RDKit          3D

 34 36  0  0  1  0  0  0  0  0999 V2000
   45.4210   34.3880   41.9860 N   0  0  0  0  0  0  0  0  0  0  0  0
   46.7030   34.0230   41.4420 C   0  0  1  0  0  0  0  0  0  0  0  0
   46.7390   34.0140   39.9520 C   0  0  0  0  0  0  0  0  0  0  0  0
   45.5960   33.5240   39.3040 N   0  0  0  0  0  0  0  0  0  0  0  0
   44.3550   33.6930   39.9260 C   0  0  0  0  0  0  0  0  0  0  0  0
   44.4220   34.7320   41.0340 C   0  0  0  0  0  0  0  0  0  0  0  0
   44.6900   35.4650   43.9840 C   0  0  0  0  0  0  0  0  0  0  0  0
   45.2980   34.3620   43.3920 C   0  0  0  0  0  0  0  0  0  0  0  0
   45.7300   33.3370   44.2380 C   0  0  0  0  0  0  0  0  0  0  0  0
   45.5540   33.4340   45.5710 N   0  0  0  0  0  0  0  0  0  0  0  0
   44.9630   34.5110   46.1130 C   0  0  0  0  0  0  0  0  0  0  0  0
   44.5360   35.5160   45.3390 N   0  0  0  0  0  0  0  0  0  0  0  0
   47.7110   35.0660   41.9000 C   0  0  0  0  0  0  0  0  0  0  0  0
   48.9910   34.3540   42.1520 C   0  0  0  0  0  0  0  0  0  0  0  0
   49.1860   32.9710   42.0750 C   0  0  0  0  0  0  0  0  0  0  0  0
   50.4960   32.6260   42.3690 C   0  0  0  0  0  0  0  0  0  0  0  0
   51.0750   33.8300   42.6230 N   0  0  0  0  0  0  0  0  0  0  0  0
   50.2060   34.8210   42.4980 N   0  0  0  0  0  0  0  0  0  0  0  0
   46.9253   33.0042   41.7922 H   0  0  0  0  0  0  0  0  0  0  0  0
   46.8972   35.0490   39.6147 H   0  0  0  0  0  0  0  0  0  0  0  0
   47.5481   33.3189   39.6833 H   0  0  0  0  0  0  0  0  0  0  0  0
   45.7332   32.5123   39.1680 H   0  0  0  0  0  0  0  0  0  0  0  0
   43.6205   34.0189   39.1748 H   0  0  0  0  0  0  0  0  0  0  0  0
   44.0598   32.7320   40.3725 H   0  0  0  0  0  0  0  0  0  0  0  0
   44.6627   35.7119   40.5960 H   0  0  0  0  0  0  0  0  0  0  0  0
   43.4473   34.7702   41.5424 H   0  0  0  0  0  0  0  0  0  0  0  0
   44.3331   36.2968   43.3589 H   0  0  0  0  0  0  0  0  0  0  0  0
   46.2163   32.4462   43.8139 H   0  0  0  0  0  0  0  0  0  0  0  0
   44.8285   34.5679   47.2033 H   0  0  0  0  0  0  0  0  0  0  0  0
   47.8497   35.8263   41.1172 H   0  0  0  0  0  0  0  0  0  0  0  0
   47.3610   35.5767   42.8092 H   0  0  0  0  0  0  0  0  0  0  0  0
   48.3989   32.2482   41.8140 H   0  0  0  0  0  0  0  0  0  0  0  0
   50.9538   31.6260   42.3913 H   0  0  0  0  0  0  0  0  0  0  0  0
   52.0645   33.9551   42.8801 H   0  0  0  0  0  0  0  0  0  0  0  0
  1  8  1  0
  2 13  1  0
  2  1  1  0
  3  2  1  0
  4  5  1  0
  4  3  1  0
  5  6  1  0
  6  1  1  0
  7 12  2  0
  8  7  1  0
  8  9  2  0
  9 10  1  0
 10 11  2  0
 12 11  1  0
 13 14  1  0
 14 18  2  0
 15 14  1  0
 15 16  2  0
 16 17  1  0
 18 17  1  0
  2 19  1  1
  3 20  1  0
  3 21  1  0
  4 22  1  0
  5 23  1  0
  5 24  1  0
  6 25  1  0
  6 26  1  0
  7 27  1  0
  9 28  1  0
 11 29  1  0
 13 30  1  0
 13 31  1  0
 15 32  1  0
 16 33  1  0
 17 34  1  0
M  ISO  8  19  13  20  13  21  13  22   5  23  13  24  13  25  13  26  13
M  ISO  8  27  14  28  14  29  14  30   8  31   8  32  14  33  14  34   9
M  END
>  <minimizedAffinity>  (1) 
-5.22527075

>  <minimizedRMSD>  (1) 
0.939566016

$$$$
