
     RDKit          3D

 23 24  0  0  0  0  0  0  0  0999 V2000
   44.9030   35.0410   43.5590 C   0  0  0  0  0  0  0  0  0  0  0  0
   45.2850   34.9180   42.2130 C   0  0  0  0  0  0  0  0  0  0  0  0
   46.3920   34.1300   41.8660 C   0  0  0  0  0  0  0  0  0  0  0  0
   47.0310   33.5240   42.8950 N   0  0  0  0  0  0  0  0  0  0  0  0
   46.6580   33.6490   44.1710 C   0  0  0  0  0  0  0  0  0  0  0  0
   45.5930   34.4080   44.5000 N   0  0  0  0  0  0  0  0  0  0  0  0
   43.7820   35.8470   43.8620 N   0  0  0  0  0  0  0  0  0  0  0  0
   47.9630   34.6400   40.1010 C   0  0  0  0  0  0  0  0  0  0  0  0
   46.8130   33.9820   40.4840 C   0  0  0  0  0  0  0  0  0  0  0  0
   46.1660   33.2470   39.5310 C   0  0  0  0  0  0  0  0  0  0  0  0
   46.6070   33.1370   38.2230 C   0  0  0  0  0  0  0  0  0  0  0  0
   47.7640   33.8100   37.8760 C   0  0  0  0  0  0  0  0  0  0  0  0
   48.4460   34.5620   38.8070 C   0  0  0  0  0  0  0  0  0  0  0  0
   49.3270   36.0720   41.8080 N   0  0  0  0  0  0  0  0  0  0  0  0
   48.7060   35.4350   41.0400 C   0  0  0  0  0  0  0  0  0  0  0  0
   44.7153   35.4403   41.4302 H   0  0  0  0  0  0  0  0  0  0  0  0
   47.2231   33.1295   44.9589 H   0  0  0  0  0  0  0  0  0  0  0  0
   43.2706   36.3233   43.1054 H   0  0  0  0  0  0  0  0  0  0  0  0
   43.4766   35.9580   44.8394 H   0  0  0  0  0  0  0  0  0  0  0  0
   45.2469   32.7150   39.8178 H   0  0  0  0  0  0  0  0  0  0  0  0
   46.0559   32.5350   37.4855 H   0  0  0  0  0  0  0  0  0  0  0  0
   48.1438   33.7442   36.8457 H   0  0  0  0  0  0  0  0  0  0  0  0
   49.3656   35.0953   38.5243 H   0  0  0  0  0  0  0  0  0  0  0  0
  1  7  1  0
  1  6  2  0
  2  1  1  0
  3  2  2  0
  3  4  1  0
  4  5  2  0
  5  6  1  0
  8  9  2  0
  8 15  1  0
  9  3  1  0
 10  9  1  0
 11 10  2  0
 12 11  1  0
 12 13  2  0
 13  8  1  0
 15 14  3  0
  2 16  1  0
  5 17  1  0
  7 18  1  0
  7 19  1  0
 10 20  1  0
 11 21  1  0
 12 22  1  0
 13 23  1  0
M  ISO  6  16  14  17  14  20  14  21  14  22  14  23  14
M  END
>  <minimizedAffinity>  (1) 
-4.90315914

>  <minimizedRMSD>  (1) 
2.82835507

$$$$
