
     RDKit          3D

 31 33  0  0  0  0  0  0  0  0999 V2000
   46.4340   33.9600   40.8670 C   0  0  0  0  0  0  0  0  0  0  0  0
   47.1410   33.8080   39.6820 C   0  0  0  0  0  0  0  0  0  0  0  0
   48.3140   34.4890   39.5650 C   0  0  0  0  0  0  0  0  0  0  0  0
   48.8130   35.3120   40.5670 C   0  0  0  0  0  0  0  0  0  0  0  0
   48.0850   35.4370   41.7240 C   0  0  0  0  0  0  0  0  0  0  0  0
   46.9030   34.7670   41.8750 C   0  0  0  0  0  0  0  0  0  0  0  0
   45.5490   32.5800   36.4860 C   0  0  0  0  0  0  0  0  0  0  0  0
   46.1050   33.4430   37.4410 C   0  0  0  0  0  0  0  0  0  0  0  0
   46.5640   32.9370   38.6760 C   0  0  0  0  0  0  0  0  0  0  0  0
   46.4230   31.6030   38.8420 N   0  0  0  0  0  0  0  0  0  0  0  0
   45.8940   30.7930   37.9270 C   0  0  0  0  0  0  0  0  0  0  0  0
   45.4550   31.2920   36.7420 N   0  0  0  0  0  0  0  0  0  0  0  0
   45.1030   33.1300   35.2740 N   0  0  0  0  0  0  0  0  0  0  0  0
   46.1280   34.8990   43.1030 C   0  0  0  0  0  0  0  0  0  0  0  0
   45.2380   35.9080   43.3360 C   0  0  0  0  0  0  0  0  0  0  0  0
   44.5030   36.0380   44.4960 C   0  0  0  0  0  0  0  0  0  0  0  0
   44.6410   35.1390   45.4770 N   0  0  0  0  0  0  0  0  0  0  0  0
   45.5160   34.1300   45.2720 C   0  0  0  0  0  0  0  0  0  0  0  0
   46.2180   34.0300   44.1320 N   0  0  0  0  0  0  0  0  0  0  0  0
   44.1580   32.7220   41.2430 N   0  0  0  0  0  0  0  0  0  0  0  0
   45.1930   33.2730   41.0700 C   0  0  0  0  0  0  0  0  0  0  0  0
   48.8926   34.3829   38.6355 H   0  0  0  0  0  0  0  0  0  0  0  0
   49.7646   35.8483   40.4368 H   0  0  0  0  0  0  0  0  0  0  0  0
   48.4553   36.0808   42.5354 H   0  0  0  0  0  0  0  0  0  0  0  0
   46.1838   34.5191   37.2268 H   0  0  0  0  0  0  0  0  0  0  0  0
   45.8121   29.7153   38.1314 H   0  0  0  0  0  0  0  0  0  0  0  0
   45.1908   34.1422   35.1045 H   0  0  0  0  0  0  0  0  0  0  0  0
   44.6879   32.5214   34.5541 H   0  0  0  0  0  0  0  0  0  0  0  0
   45.0984   36.6644   42.5496 H   0  0  0  0  0  0  0  0  0  0  0  0
   43.8045   36.8795   44.6142 H   0  0  0  0  0  0  0  0  0  0  0  0
   45.6564   33.3728   46.0575 H   0  0  0  0  0  0  0  0  0  0  0  0
  1 21  1  0
  1  6  2  0
  2  1  1  0
  3  2  2  0
  3  4  1  0
  4  5  2  0
  5  6  1  0
  6 14  1  0
  7 12  2  0
  7  8  1  0
  8  9  2  0
  9 10  1  0
  9  2  1  0
 11 10  2  0
 12 11  1  0
 13  7  1  0
 14 15  2  0
 14 19  1  0
 15 16  1  0
 16 17  2  0
 18 17  1  0
 19 18  2  0
 21 20  3  0
  3 22  1  0
  4 23  1  0
  5 24  1  0
  8 25  1  0
 11 26  1  0
 13 27  1  0
 13 28  1  0
 15 29  1  0
 16 30  1  0
 18 31  1  0
M  ISO  8  22  14  23  14  24  14  25  14  26  14  29  14  30  14  31  14
M  END
>  <minimizedAffinity>  (1) 
-6.03198147

>  <minimizedRMSD>  (1) 
6.40576506

$$$$
