
     RDKit          3D

 43 46  0  0  0  0  0  0  0  0999 V2000
   45.1110   33.9800   40.7510 C   0  0  0  0  0  0  0  0  0  0  0  0
   44.0690   33.6260   39.9470 C   0  0  0  0  0  0  0  0  0  0  0  0
   44.3690   33.0820   38.7260 C   0  0  0  0  0  0  0  0  0  0  0  0
   45.6550   32.8760   38.2710 C   0  0  0  0  0  0  0  0  0  0  0  0
   46.6830   33.2430   39.1050 C   0  0  0  0  0  0  0  0  0  0  0  0
   46.4290   33.7950   40.3450 C   0  0  0  0  0  0  0  0  0  0  0  0
   40.8020   35.3020   40.8130 C   0  0  0  0  0  0  0  0  0  0  0  0
   42.0990   35.1060   40.3090 C   0  0  0  0  0  0  0  0  0  0  0  0
   42.7320   33.8560   40.4570 C   0  0  0  0  0  0  0  0  0  0  0  0
   42.0060   32.9210   41.0960 N   0  0  0  0  0  0  0  0  0  0  0  0
   40.7800   33.1170   41.5680 C   0  0  0  0  0  0  0  0  0  0  0  0
   40.1760   34.3020   41.4290 N   0  0  0  0  0  0  0  0  0  0  0  0
   40.2150   36.5820   40.6340 N   0  0  0  0  0  0  0  0  0  0  0  0
   47.5820   34.1500   41.1480 C   0  0  0  0  0  0  0  0  0  0  0  0
   48.1310   35.3870   40.8890 C   0  0  0  0  0  0  0  0  0  0  0  0
   49.2410   35.9030   41.5580 C   0  0  0  0  0  0  0  0  0  0  0  0
   49.8160   35.1130   42.5370 C   0  0  0  0  0  0  0  0  0  0  0  0
   49.2870   33.8680   42.8180 C   0  0  0  0  0  0  0  0  0  0  0  0
   48.1840   33.4050   42.1250 C   0  0  0  0  0  0  0  0  0  0  0  0
   46.8600   33.1860   44.4900 F   0  0  0  0  0  0  0  0  0  0  0  0
   46.9560   32.1020   43.6470 C   0  0  0  0  0  0  0  0  0  0  0  0
   47.6090   32.0950   42.4090 C   0  0  0  0  0  0  0  0  0  0  0  0
   47.6170   30.9180   41.6780 C   0  0  0  0  0  0  0  0  0  0  0  0
   46.9870   29.8100   42.1900 C   0  0  0  0  0  0  0  0  0  0  0  0
   46.3450   29.8250   43.4110 C   0  0  0  0  0  0  0  0  0  0  0  0
   46.3250   31.0020   44.1650 C   0  0  0  0  0  0  0  0  0  0  0  0
   44.7030   35.0280   43.1030 N   0  0  0  0  0  0  0  0  0  0  0  0
   44.8960   34.5600   42.0510 C   0  0  0  0  0  0  0  0  0  0  0  0
   43.5352   32.7923   38.0696 H   0  0  0  0  0  0  0  0  0  0  0  0
   45.8491   32.4362   37.2816 H   0  0  0  0  0  0  0  0  0  0  0  0
   47.7235   33.0950   38.7804 H   0  0  0  0  0  0  0  0  0  0  0  0
   42.6205   35.9291   39.7985 H   0  0  0  0  0  0  0  0  0  0  0  0
   40.2559   32.2957   42.0787 H   0  0  0  0  0  0  0  0  0  0  0  0
   40.7386   37.3256   40.1504 H   0  0  0  0  0  0  0  0  0  0  0  0
   39.2655   36.7672   40.9877 H   0  0  0  0  0  0  0  0  0  0  0  0
   47.6657   36.0052   40.1071 H   0  0  0  0  0  0  0  0  0  0  0  0
   49.6428   36.8981   41.3167 H   0  0  0  0  0  0  0  0  0  0  0  0
   50.6940   35.4758   43.0915 H   0  0  0  0  0  0  0  0  0  0  0  0
   49.7459   33.2418   43.5973 H   0  0  0  0  0  0  0  0  0  0  0  0
   48.1208   30.8715   40.7013 H   0  0  0  0  0  0  0  0  0  0  0  0
   46.9946   28.8779   41.6059 H   0  0  0  0  0  0  0  0  0  0  0  0
   45.8522   28.9170   43.7887 H   0  0  0  0  0  0  0  0  0  0  0  0
   45.8197   31.0434   45.1412 H   0  0  0  0  0  0  0  0  0  0  0  0
  1 28  1  0
  2  9  1  0
  2  1  2  0
  3  2  1  0
  4  3  2  0
  4  5  1  0
  5  6  2  0
  6  1  1  0
  6 14  1  0
  7 12  2  0
  8  9  2  0
  8  7  1  0
  9 10  1  0
 10 11  2  0
 12 11  1  0
 13  7  1  0
 14 19  1  0
 15 14  2  0
 15 16  1  0
 16 17  2  0
 17 18  1  0
 19 22  1  0
 19 18  2  0
 21 26  2  0
 21 20  1  0
 22 21  1  0
 23 24  1  0
 23 22  2  0
 24 25  2  0
 25 26  1  0
 28 27  3  0
  3 29  1  0
  4 30  1  0
  5 31  1  0
  8 32  1  0
 11 33  1  0
 13 34  1  0
 13 35  1  0
 15 36  1  0
 16 37  1  0
 17 38  1  0
 18 39  1  0
 23 40  1  0
 24 41  1  0
 25 42  1  0
 26 43  1  0
M  ISO  8  29  14  30  14  31  14  32  14  33  14  36  14  37  14  38  14
M  ISO  5  39  14  40  14  41  14  42  14  43  14
M  END
>  <minimizedAffinity>  (1) 
-6.25272894

>  <minimizedRMSD>  (1) 
0.348503798

$$$$
