
     RDKit          3D

 44 47  0  0  1  0  0  0  0  0999 V2000
   45.0980   33.9880   40.7350 C   0  0  0  0  0  0  0  0  0  0  0  0
   44.0540   33.6400   39.9260 C   0  0  0  0  0  0  0  0  0  0  0  0
   44.3670   33.1030   38.7110 C   0  0  0  0  0  0  0  0  0  0  0  0
   45.6530   32.8960   38.2660 C   0  0  0  0  0  0  0  0  0  0  0  0
   46.6740   33.2590   39.1110 C   0  0  0  0  0  0  0  0  0  0  0  0
   46.4250   33.8050   40.3470 C   0  0  0  0  0  0  0  0  0  0  0  0
   40.7710   35.2680   40.8070 C   0  0  0  0  0  0  0  0  0  0  0  0
   42.0790   35.1090   40.2940 C   0  0  0  0  0  0  0  0  0  0  0  0
   42.7190   33.8730   40.4270 C   0  0  0  0  0  0  0  0  0  0  0  0
   41.9990   32.9050   41.0590 N   0  0  0  0  0  0  0  0  0  0  0  0
   40.7660   33.0790   41.5340 C   0  0  0  0  0  0  0  0  0  0  0  0
   40.1580   34.2620   41.4060 N   0  0  0  0  0  0  0  0  0  0  0  0
   40.1780   36.5510   40.6380 N   0  0  0  0  0  0  0  0  0  0  0  0
   47.5710   34.1550   41.1640 C   0  0  0  0  0  0  0  0  0  0  0  0
   48.1590   35.3740   40.8670 C   0  0  0  0  0  0  0  0  0  0  0  0
   49.2680   35.8810   41.5420 C   0  0  0  0  0  0  0  0  0  0  0  0
   49.7940   35.1080   42.5620 C   0  0  0  0  0  0  0  0  0  0  0  0
   49.2180   33.8910   42.8690 C   0  0  0  0  0  0  0  0  0  0  0  0
   48.1120   33.4110   42.1780 C   0  0  0  0  0  0  0  0  0  0  0  0
   49.1330   30.9710   41.0580 O   0  0  0  0  0  0  0  0  0  0  0  0
   48.3210   30.9590   42.0450 C   0  0  0  0  0  0  0  0  0  0  0  0
   47.4900   32.1250   42.4860 C   0  0  1  0  0  0  0  0  0  0  0  0
   47.3250   31.8570   43.9530 C   0  0  0  0  0  0  0  0  0  0  0  0
   47.7440   30.4360   44.2050 C   0  0  0  0  0  0  0  0  0  0  0  0
   48.0480   29.8610   42.9080 N   0  0  0  0  0  0  0  0  0  0  0  0
   44.6760   35.0180   43.1140 N   0  0  0  0  0  0  0  0  0  0  0  0
   44.8600   34.5650   42.0420 C   0  0  0  0  0  0  0  0  0  0  0  0
   43.5392   32.8175   38.0452 H   0  0  0  0  0  0  0  0  0  0  0  0
   45.8546   32.4590   37.2769 H   0  0  0  0  0  0  0  0  0  0  0  0
   47.7154   33.1089   38.7903 H   0  0  0  0  0  0  0  0  0  0  0  0
   42.5872   35.9479   39.7961 H   0  0  0  0  0  0  0  0  0  0  0  0
   40.2476   32.2468   42.0326 H   0  0  0  0  0  0  0  0  0  0  0  0
   40.7002   37.3012   40.1632 H   0  0  0  0  0  0  0  0  0  0  0  0
   39.2268   36.7292   40.9905 H   0  0  0  0  0  0  0  0  0  0  0  0
   47.7266   35.9749   40.0534 H   0  0  0  0  0  0  0  0  0  0  0  0
   49.7063   36.8540   41.2753 H   0  0  0  0  0  0  0  0  0  0  0  0
   50.6689   35.4620   43.1270 H   0  0  0  0  0  0  0  0  0  0  0  0
   49.6459   33.2857   43.6818 H   0  0  0  0  0  0  0  0  0  0  0  0
   46.5262   32.2101   41.9626 H   0  0  0  0  0  0  0  0  0  0  0  0
   47.9589   32.5435   44.5334 H   0  0  0  0  0  0  0  0  0  0  0  0
   46.2798   32.0117   44.2589 H   0  0  0  0  0  0  0  0  0  0  0  0
   48.6346   30.4109   44.8502 H   0  0  0  0  0  0  0  0  0  0  0  0
   46.9497   29.8711   44.7147 H   0  0  0  0  0  0  0  0  0  0  0  0
   48.0631   28.8610   42.6619 H   0  0  0  0  0  0  0  0  0  0  0  0
  1 27  1  0
  2  9  1  0
  2  1  2  0
  3  2  1  0
  4  3  2  0
  4  5  1  0
  5  6  2  0
  6  1  1  0
  6 14  1  0
  7 12  2  0
  8  9  2  0
  8  7  1  0
  9 10  1  0
 10 11  2  0
 12 11  1  0
 13  7  1  0
 14 19  1  0
 15 14  2  0
 15 16  1  0
 16 17  2  0
 17 18  1  0
 19 18  2  0
 20 21  2  0
 21 22  1  0
 21 25  1  0
 22 19  1  0
 22 23  1  0
 23 24  1  0
 25 24  1  0
 27 26  3  0
  3 28  1  0
  4 29  1  0
  5 30  1  0
  8 31  1  0
 11 32  1  0
 13 33  1  0
 13 34  1  0
 15 35  1  0
 16 36  1  0
 17 37  1  0
 18 38  1  0
 22 39  1  6
 23 40  1  0
 23 41  1  0
 24 42  1  0
 24 43  1  0
 25 44  1  0
M  ISO  8  28  14  29  14  30  14  31  14  32  14  35  14  36  14  37  14
M  ISO  7  38  14  39  13  40  13  41  13  42  13  43  13  44  10
M  END
>  <minimizedAffinity>  (1) 
-6.18736792

>  <minimizedRMSD>  (1) 
0.768393934

$$$$
