
     RDKit          3D

 48 51  0  0  0  0  0  0  0  0999 V2000
   45.1410   33.9710   40.7290 C   0  0  0  0  0  0  0  0  0  0  0  0
   44.0910   33.6280   39.9220 C   0  0  0  0  0  0  0  0  0  0  0  0
   44.3830   33.1020   38.6970 C   0  0  0  0  0  0  0  0  0  0  0  0
   45.6720   32.9010   38.2380 C   0  0  0  0  0  0  0  0  0  0  0  0
   46.7030   33.2600   39.0840 C   0  0  0  0  0  0  0  0  0  0  0  0
   46.4450   33.7970   40.3330 C   0  0  0  0  0  0  0  0  0  0  0  0
   40.8070   35.2690   40.8060 C   0  0  0  0  0  0  0  0  0  0  0  0
   42.1080   35.0900   40.2970 C   0  0  0  0  0  0  0  0  0  0  0  0
   42.7520   33.8510   40.4320 C   0  0  0  0  0  0  0  0  0  0  0  0
   42.0360   32.8880   41.0700 N   0  0  0  0  0  0  0  0  0  0  0  0
   40.8010   33.0870   41.5440 C   0  0  0  0  0  0  0  0  0  0  0  0
   40.1930   34.2720   41.4100 N   0  0  0  0  0  0  0  0  0  0  0  0
   40.2150   36.5470   40.6340 N   0  0  0  0  0  0  0  0  0  0  0  0
   47.6020   34.1410   41.1390 C   0  0  0  0  0  0  0  0  0  0  0  0
   48.1400   35.3860   40.9160 C   0  0  0  0  0  0  0  0  0  0  0  0
   49.2470   35.8880   41.5940 C   0  0  0  0  0  0  0  0  0  0  0  0
   49.8290   35.0830   42.5390 C   0  0  0  0  0  0  0  0  0  0  0  0
   49.3150   33.8270   42.7900 C   0  0  0  0  0  0  0  0  0  0  0  0
   48.2070   33.3610   42.0920 C   0  0  0  0  0  0  0  0  0  0  0  0
   47.6290   32.0670   42.3070 N   0  0  0  0  0  0  0  0  0  0  0  0
   47.7900   30.8880   41.4990 C   0  0  0  0  0  0  0  0  0  0  0  0
   47.7650   29.6500   42.3850 C   0  0  0  0  0  0  0  0  0  0  0  0
   46.3410   29.5630   42.9040 C   0  0  0  0  0  0  0  0  0  0  0  0
   45.8230   30.8440   43.4680 C   0  0  0  0  0  0  0  0  0  0  0  0
   46.7960   31.9790   43.4790 C   0  0  0  0  0  0  0  0  0  0  0  0
   44.7250   34.9960   43.1030 N   0  0  0  0  0  0  0  0  0  0  0  0
   44.9100   34.5350   42.0410 C   0  0  0  0  0  0  0  0  0  0  0  0
   43.5473   32.8226   38.0386 H   0  0  0  0  0  0  0  0  0  0  0  0
   45.8675   32.4741   37.2432 H   0  0  0  0  0  0  0  0  0  0  0  0
   47.7445   33.1170   38.7602 H   0  0  0  0  0  0  0  0  0  0  0  0
   42.6199   35.9230   39.7929 H   0  0  0  0  0  0  0  0  0  0  0  0
   40.2769   32.2640   42.0518 H   0  0  0  0  0  0  0  0  0  0  0  0
   40.7355   37.2954   40.1546 H   0  0  0  0  0  0  0  0  0  0  0  0
   39.2647   36.7263   40.9886 H   0  0  0  0  0  0  0  0  0  0  0  0
   47.6669   36.0245   40.1554 H   0  0  0  0  0  0  0  0  0  0  0  0
   49.6401   36.8928   41.3797 H   0  0  0  0  0  0  0  0  0  0  0  0
   50.7070   35.4388   43.0980 H   0  0  0  0  0  0  0  0  0  0  0  0
   49.7872   33.1879   43.5506 H   0  0  0  0  0  0  0  0  0  0  0  0
   46.9698   30.8310   40.7682 H   0  0  0  0  0  0  0  0  0  0  0  0
   48.7535   30.9378   40.9706 H   0  0  0  0  0  0  0  0  0  0  0  0
   48.0188   28.7526   41.8017 H   0  0  0  0  0  0  0  0  0  0  0  0
   48.4982   29.7137   43.2025 H   0  0  0  0  0  0  0  0  0  0  0  0
   45.6872   29.2614   42.0724 H   0  0  0  0  0  0  0  0  0  0  0  0
   46.3449   28.8313   43.7253 H   0  0  0  0  0  0  0  0  0  0  0  0
   44.9513   31.1499   42.8709 H   0  0  0  0  0  0  0  0  0  0  0  0
   45.5859   30.6375   44.5221 H   0  0  0  0  0  0  0  0  0  0  0  0
   47.4494   31.8621   44.3562 H   0  0  0  0  0  0  0  0  0  0  0  0
   46.1978   32.9018   43.5060 H   0  0  0  0  0  0  0  0  0  0  0  0
  1 27  1  0
  2  9  1  0
  2  1  2  0
  3  2  1  0
  4  3  2  0
  4  5  1  0
  5  6  2  0
  6  1  1  0
  6 14  1  0
  7 12  2  0
  8  9  2  0
  8  7  1  0
  9 10  1  0
 10 11  2  0
 12 11  1  0
 13  7  1  0
 14 19  1  0
 15 14  2  0
 15 16  1  0
 16 17  2  0
 17 18  1  0
 19 20  1  0
 19 18  2  0
 20 25  1  0
 21 20  1  0
 21 22  1  0
 22 23  1  0
 23 24  1  0
 24 25  1  0
 27 26  3  0
  3 28  1  0
  4 29  1  0
  5 30  1  0
  8 31  1  0
 11 32  1  0
 13 33  1  0
 13 34  1  0
 15 35  1  0
 16 36  1  0
 17 37  1  0
 18 38  1  0
 21 39  1  0
 21 40  1  0
 22 41  1  0
 22 42  1  0
 23 43  1  0
 23 44  1  0
 24 45  1  0
 24 46  1  0
 25 47  1  0
 25 48  1  0
M  ISO  8  28  14  29  14  30  14  31  14  32  14  35  14  36  14  37  14
M  ISO  8  38  14  39  13  40  13  41  13  42  13  43  13  44  13  45  13
M  ISO  3  46  13  47  13  48  13
M  END
>  <minimizedAffinity>  (1) 
-5.98534489

>  <minimizedRMSD>  (1) 
0.152914926

$$$$
