
     RDKit          3D

 39 41  0  0  0  0  0  0  0  0999 V2000
   45.1210   33.9510   40.7210 C   0  0  0  0  0  0  0  0  0  0  0  0
   44.0800   33.6380   39.8840 C   0  0  0  0  0  0  0  0  0  0  0  0
   44.3800   33.1490   38.6450 C   0  0  0  0  0  0  0  0  0  0  0  0
   45.6650   32.9550   38.1940 C   0  0  0  0  0  0  0  0  0  0  0  0
   46.6940   33.2730   39.0430 C   0  0  0  0  0  0  0  0  0  0  0  0
   46.4430   33.7730   40.3150 C   0  0  0  0  0  0  0  0  0  0  0  0
   40.7960   35.2550   40.7930 C   0  0  0  0  0  0  0  0  0  0  0  0
   42.0920   35.0970   40.2760 C   0  0  0  0  0  0  0  0  0  0  0  0
   42.7420   33.8540   40.4000 C   0  0  0  0  0  0  0  0  0  0  0  0
   42.0270   32.8810   41.0340 N   0  0  0  0  0  0  0  0  0  0  0  0
   40.7950   33.0620   41.5130 C   0  0  0  0  0  0  0  0  0  0  0  0
   40.1820   34.2560   41.3900 N   0  0  0  0  0  0  0  0  0  0  0  0
   40.1940   36.5270   40.6400 N   0  0  0  0  0  0  0  0  0  0  0  0
   47.5960   34.0820   41.1340 C   0  0  0  0  0  0  0  0  0  0  0  0
   48.1390   35.3410   40.9400 C   0  0  0  0  0  0  0  0  0  0  0  0
   49.2480   35.8200   41.6350 C   0  0  0  0  0  0  0  0  0  0  0  0
   49.8240   34.9740   42.5640 C   0  0  0  0  0  0  0  0  0  0  0  0
   49.2960   33.7210   42.7690 C   0  0  0  0  0  0  0  0  0  0  0  0
   48.1840   33.2650   42.0590 C   0  0  0  0  0  0  0  0  0  0  0  0
   47.6570   31.9020   42.2900 C   0  0  0  0  0  0  0  0  0  0  0  0
   48.4010   31.0690   43.2630 C   0  0  0  0  0  0  0  0  0  0  0  0
   44.7060   34.8820   43.1140 N   0  0  0  0  0  0  0  0  0  0  0  0
   44.8910   34.4720   42.0360 C   0  0  0  0  0  0  0  0  0  0  0  0
   43.5486   32.8963   37.9705 H   0  0  0  0  0  0  0  0  0  0  0  0
   45.8605   32.5584   37.1868 H   0  0  0  0  0  0  0  0  0  0  0  0
   47.7333   33.1302   38.7122 H   0  0  0  0  0  0  0  0  0  0  0  0
   42.5959   35.9383   39.7777 H   0  0  0  0  0  0  0  0  0  0  0  0
   40.2757   32.2306   42.0120 H   0  0  0  0  0  0  0  0  0  0  0  0
   40.7057   37.2854   40.1668 H   0  0  0  0  0  0  0  0  0  0  0  0
   39.2443   36.6942   41.0019 H   0  0  0  0  0  0  0  0  0  0  0  0
   47.6686   36.0001   40.1955 H   0  0  0  0  0  0  0  0  0  0  0  0
   49.6478   36.8283   41.4520 H   0  0  0  0  0  0  0  0  0  0  0  0
   50.7029   35.3024   43.1381 H   0  0  0  0  0  0  0  0  0  0  0  0
   49.7630   33.0594   43.5134 H   0  0  0  0  0  0  0  0  0  0  0  0
   46.6231   31.9990   42.6528 H   0  0  0  0  0  0  0  0  0  0  0  0
   47.7516   31.3825   41.3250 H   0  0  0  0  0  0  0  0  0  0  0  0
   48.1314   31.3709   44.2858 H   0  0  0  0  0  0  0  0  0  0  0  0
   48.1422   30.0105   43.1129 H   0  0  0  0  0  0  0  0  0  0  0  0
   49.4819   31.2071   43.1129 H   0  0  0  0  0  0  0  0  0  0  0  0
  1 23  1  0
  2  9  1  0
  2  1  2  0
  3  2  1  0
  4  3  2  0
  4  5  1  0
  5  6  2  0
  6  1  1  0
  6 14  1  0
  7 12  2  0
  8  9  2  0
  8  7  1  0
  9 10  1  0
 10 11  2  0
 12 11  1  0
 13  7  1  0
 14 19  1  0
 15 14  2  0
 15 16  1  0
 16 17  2  0
 17 18  1  0
 19 20  1  0
 19 18  2  0
 20 21  1  0
 23 22  3  0
  3 24  1  0
  4 25  1  0
  5 26  1  0
  8 27  1  0
 11 28  1  0
 13 29  1  0
 13 30  1  0
 15 31  1  0
 16 32  1  0
 17 33  1  0
 18 34  1  0
 20 35  1  0
 20 36  1  0
 21 37  1  0
 21 38  1  0
 21 39  1  0
M  ISO  8  24  14  25  14  26  14  27  14  28  14  31  14  32  14  33  14
M  ISO  6  34  14  35   8  36   8  37   8  38   8  39   8
M  END
>  <minimizedAffinity>  (1) 
-5.83250093

>  <minimizedRMSD>  (1) 
0.0454392433

$$$$
