
     RDKit          3D

 46 48  0  0  0  0  0  0  0  0999 V2000
   43.0990   32.5590   41.6200 C   0  0  0  0  0  0  0  0  0  0  0  0
   43.7080   34.9730   41.9090 C   0  0  0  0  0  0  0  0  0  0  0  0
   43.9540   33.6360   42.1930 C   0  0  0  0  0  0  0  0  0  0  0  0
   45.0090   33.3250   43.0180 C   0  0  0  0  0  0  0  0  0  0  0  0
   45.7920   34.3170   43.5420 C   0  0  0  0  0  0  0  0  0  0  0  0
   45.5750   35.6340   43.2810 C   0  0  0  0  0  0  0  0  0  0  0  0
   44.5060   35.9060   42.4490 C   0  0  0  0  0  0  0  0  0  0  0  0
   40.3100   35.8580   40.5120 C   0  0  0  0  0  0  0  0  0  0  0  0
   41.3250   35.6190   41.4550 C   0  0  0  0  0  0  0  0  0  0  0  0
   42.5840   35.2460   41.0340 C   0  0  0  0  0  0  0  0  0  0  0  0
   42.7710   35.1280   39.6880 N   0  0  0  0  0  0  0  0  0  0  0  0
   41.7870   35.3600   38.7860 C   0  0  0  0  0  0  0  0  0  0  0  0
   40.5630   35.7240   39.2180 N   0  0  0  0  0  0  0  0  0  0  0  0
   42.7040   31.5450   42.5360 N   0  0  0  0  0  0  0  0  0  0  0  0
   41.0240   31.2570   42.5480 S   0  0  0  0  0  0  0  0  0  0  0  0
   40.2570   32.5620   42.6450 O   0  0  0  0  0  0  0  0  0  0  0  0
   40.6360   30.3460   43.6570 O   0  0  0  0  0  0  0  0  0  0  0  0
   40.6100   30.5380   41.0790 O   0  0  0  0  0  0  0  0  0  0  0  0
   39.4970   29.7480   41.3130 C   0  0  0  0  0  0  0  0  0  0  0  0
   38.2410   30.5070   40.9660 C   0  0  0  0  0  0  0  0  0  0  0  0
   38.3140   31.3230   39.7570 C   0  0  0  0  0  0  0  0  0  0  0  0
   38.2240   32.6990   39.7600 C   0  0  0  0  0  0  0  0  0  0  0  0
   38.3140   33.3310   38.5150 C   0  0  0  0  0  0  0  0  0  0  0  0
   38.4850   32.5910   37.3580 C   0  0  0  0  0  0  0  0  0  0  0  0
   38.5730   31.1960   37.3900 C   0  0  0  0  0  0  0  0  0  0  0  0
   38.4830   30.6080   38.6060 N   0  0  0  0  0  0  0  0  0  0  0  0
   42.1885   33.0262   41.2167 H   0  0  0  0  0  0  0  0  0  0  0  0
   43.7120   32.0575   40.8566 H   0  0  0  0  0  0  0  0  0  0  0  0
   45.2246   32.2734   43.2579 H   0  0  0  0  0  0  0  0  0  0  0  0
   46.6289   34.0388   44.1994 H   0  0  0  0  0  0  0  0  0  0  0  0
   46.2075   36.4286   43.7035 H   0  0  0  0  0  0  0  0  0  0  0  0
   44.2950   36.9596   42.2134 H   0  0  0  0  0  0  0  0  0  0  0  0
   39.3060   36.1562   40.8482 H   0  0  0  0  0  0  0  0  0  0  0  0
   41.1147   35.7296   42.5290 H   0  0  0  0  0  0  0  0  0  0  0  0
   41.9853   35.2522   37.7094 H   0  0  0  0  0  0  0  0  0  0  0  0
   43.1830   30.6698   42.2801 H   0  0  0  0  0  0  0  0  0  0  0  0
   40.1204   32.7945   43.5976 H   0  0  0  0  0  0  0  0  0  0  0  0
   40.8227   30.7844   44.5248 H   0  0  0  0  0  0  0  0  0  0  0  0
   39.5574   28.8414   40.6929 H   0  0  0  0  0  0  0  0  0  0  0  0
   39.4686   29.4720   42.3774 H   0  0  0  0  0  0  0  0  0  0  0  0
   37.4292   29.7766   40.8336 H   0  0  0  0  0  0  0  0  0  0  0  0
   38.0737   31.2099   41.7954 H   0  0  0  0  0  0  0  0  0  0  0  0
   38.0887   33.2690   40.6910 H   0  0  0  0  0  0  0  0  0  0  0  0
   38.2482   34.4274   38.4551 H   0  0  0  0  0  0  0  0  0  0  0  0
   38.5532   33.1120   36.3916 H   0  0  0  0  0  0  0  0  0  0  0  0
   38.7087   30.6052   36.4721 H   0  0  0  0  0  0  0  0  0  0  0  0
  1  3  1  0
  1 14  1  0
  2  3  1  0
  2  7  2  0
  3  4  2  0
  4  5  1  0
  6  5  2  0
  7  6  1  0
  8  9  2  0
 10  9  1  0
 10  2  1  0
 11 10  2  0
 12 13  2  0
 12 11  1  0
 13  8  1  0
 14 15  1  0
 15 16  1  0
 15 17  1  0
 18 19  1  0
 18 15  1  0
 20 19  1  0
 21 22  2  0
 21 20  1  0
 23 22  1  0
 24 25  1  0
 24 23  2  0
 25 26  2  0
 26 21  1  0
  1 27  1  0
  1 28  1  0
  4 29  1  0
  5 30  1  0
  6 31  1  0
  7 32  1  0
  8 33  1  0
  9 34  1  0
 12 35  1  0
 14 36  1  0
 16 37  1  0
 17 38  1  0
 19 39  1  0
 19 40  1  0
 20 41  1  0
 20 42  1  0
 22 43  1  0
 23 44  1  0
 24 45  1  0
 25 46  1  0
M  ISO  8  27   8  28   8  29  14  30  14  31  14  32  14  33  14  34  14
M  ISO  8  35  14  36   5  37   3  38   3  39   8  40   8  41   8  42   8
M  ISO  4  43  14  44  14  45  14  46  14
M  END
>  <minimizedAffinity>  (1) 
-5.80620146

>  <minimizedRMSD>  (1) 
3.86151266

$$$$
