
     RDKit          3D

 47 49  0  0  0  0  0  0  0  0999 V2000
   42.6670   31.3730   42.5760 N   0  0  0  0  0  0  0  0  0  0  0  0
   42.9640   32.4380   41.6610 C   0  0  0  0  0  0  0  0  0  0  0  0
   43.6570   34.8290   41.9020 C   0  0  0  0  0  0  0  0  0  0  0  0
   43.8640   33.4900   42.2180 C   0  0  0  0  0  0  0  0  0  0  0  0
   44.9060   33.1650   43.0340 C   0  0  0  0  0  0  0  0  0  0  0  0
   45.7280   34.1420   43.5290 C   0  0  0  0  0  0  0  0  0  0  0  0
   45.5520   35.4700   43.2370 C   0  0  0  0  0  0  0  0  0  0  0  0
   44.4780   35.7620   42.4020 C   0  0  0  0  0  0  0  0  0  0  0  0
   40.2430   35.7450   40.5380 C   0  0  0  0  0  0  0  0  0  0  0  0
   41.2640   35.4870   41.4920 C   0  0  0  0  0  0  0  0  0  0  0  0
   42.5160   35.1180   41.0230 C   0  0  0  0  0  0  0  0  0  0  0  0
   42.6950   35.0250   39.6880 N   0  0  0  0  0  0  0  0  0  0  0  0
   41.7050   35.2770   38.7910 C   0  0  0  0  0  0  0  0  0  0  0  0
   40.4940   35.6330   39.2360 N   0  0  0  0  0  0  0  0  0  0  0  0
   40.9980   31.0210   42.6650 S   0  0  0  0  0  0  0  0  0  0  0  0
   40.1660   32.2560   42.4870 O   0  0  0  0  0  0  0  0  0  0  0  0
   40.6670   30.3480   43.9640 O   0  0  0  0  0  0  0  0  0  0  0  0
   40.6350   29.9620   41.4070 O   0  0  0  0  0  0  0  0  0  0  0  0
   39.2560   29.8020   41.3820 C   0  0  0  0  0  0  0  0  0  0  0  0
   38.9020   28.3730   41.7830 C   0  0  0  0  0  0  0  0  0  0  0  0
   37.9740   25.7990   41.7900 F   0  0  0  0  0  0  0  0  0  0  0  0
   37.2760   26.7410   41.0670 C   0  0  0  0  0  0  0  0  0  0  0  0
   37.6690   28.0640   40.9960 C   0  0  0  0  0  0  0  0  0  0  0  0
   36.9310   28.9580   40.2550 C   0  0  0  0  0  0  0  0  0  0  0  0
   35.7970   28.5660   39.5720 C   0  0  0  0  0  0  0  0  0  0  0  0
   35.4210   27.2350   39.6570 C   0  0  0  0  0  0  0  0  0  0  0  0
   36.1480   26.3170   40.3980 C   0  0  0  0  0  0  0  0  0  0  0  0
   42.9965   31.6435   43.5136 H   0  0  0  0  0  0  0  0  0  0  0  0
   42.0171   32.9144   41.3671 H   0  0  0  0  0  0  0  0  0  0  0  0
   43.4953   31.9853   40.8108 H   0  0  0  0  0  0  0  0  0  0  0  0
   45.0877   32.1123   43.2964 H   0  0  0  0  0  0  0  0  0  0  0  0
   46.5609   33.8504   44.1857 H   0  0  0  0  0  0  0  0  0  0  0  0
   46.2151   36.2518   43.6359 H   0  0  0  0  0  0  0  0  0  0  0  0
   44.2934   36.8139   42.1387 H   0  0  0  0  0  0  0  0  0  0  0  0
   39.2390   36.0391   40.8778 H   0  0  0  0  0  0  0  0  0  0  0  0
   41.0672   35.5773   42.5705 H   0  0  0  0  0  0  0  0  0  0  0  0
   41.8971   35.1893   37.7115 H   0  0  0  0  0  0  0  0  0  0  0  0
   39.9210   32.6196   43.3746 H   0  0  0  0  0  0  0  0  0  0  0  0
   40.9509   30.9253   44.7165 H   0  0  0  0  0  0  0  0  0  0  0  0
   38.7923   30.5065   42.0882 H   0  0  0  0  0  0  0  0  0  0  0  0
   38.8823   30.0010   40.3667 H   0  0  0  0  0  0  0  0  0  0  0  0
   39.7159   27.6813   41.5199 H   0  0  0  0  0  0  0  0  0  0  0  0
   38.7469   28.2665   42.8668 H   0  0  0  0  0  0  0  0  0  0  0  0
   37.2518   30.0090   40.2056 H   0  0  0  0  0  0  0  0  0  0  0  0
   35.2120   29.2857   38.9806 H   0  0  0  0  0  0  0  0  0  0  0  0
   34.5210   26.8980   39.1218 H   0  0  0  0  0  0  0  0  0  0  0  0
   35.8296   25.2655   40.4515 H   0  0  0  0  0  0  0  0  0  0  0  0
  1 15  1  0
  2  4  1  0
  2  1  1  0
  3  4  1  0
  3  8  2  0
  4  5  2  0
  5  6  1  0
  7  6  2  0
  8  7  1  0
  9 10  2  0
 11 10  1  0
 11  3  1  0
 12 11  2  0
 13 14  2  0
 13 12  1  0
 14  9  1  0
 15 17  1  0
 16 15  1  0
 18 15  1  0
 19 18  1  0
 19 20  1  0
 22 21  1  0
 23 22  2  0
 23 20  1  0
 24 23  1  0
 25 26  1  0
 25 24  2  0
 26 27  2  0
 27 22  1  0
  1 28  1  0
  2 29  1  0
  2 30  1  0
  5 31  1  0
  6 32  1  0
  7 33  1  0
  8 34  1  0
  9 35  1  0
 10 36  1  0
 13 37  1  0
 16 38  1  0
 17 39  1  0
 19 40  1  0
 19 41  1  0
 20 42  1  0
 20 43  1  0
 24 44  1  0
 25 45  1  0
 26 46  1  0
 27 47  1  0
M  ISO  8  28   5  29   8  30   8  31  14  32  14  33  14  34  14  35  14
M  ISO  8  36  14  37  14  38   3  39   3  40   8  41   8  42   8  43   8
M  ISO  4  44  14  45  14  46  14  47  14
M  END
>  <minimizedAffinity>  (1) 
-5.69186878

>  <minimizedRMSD>  (1) 
2.21339297

$$$$
