
     RDKit          3D

 44 45  0  0  0  0  0  0  0  0999 V2000
   43.1390   32.5550   41.6490 C   0  0  0  0  0  0  0  0  0  0  0  0
   43.6830   34.9910   41.8990 C   0  0  0  0  0  0  0  0  0  0  0  0
   43.9700   33.6590   42.1980 C   0  0  0  0  0  0  0  0  0  0  0  0
   45.0520   33.4080   43.0210 C   0  0  0  0  0  0  0  0  0  0  0  0
   45.8000   34.4340   43.5130 C   0  0  0  0  0  0  0  0  0  0  0  0
   45.5350   35.7450   43.2320 C   0  0  0  0  0  0  0  0  0  0  0  0
   44.4490   35.9650   42.4090 C   0  0  0  0  0  0  0  0  0  0  0  0
   40.2240   35.7420   40.5430 C   0  0  0  0  0  0  0  0  0  0  0  0
   41.2660   35.5530   41.4730 C   0  0  0  0  0  0  0  0  0  0  0  0
   42.5310   35.2100   41.0260 C   0  0  0  0  0  0  0  0  0  0  0  0
   42.7040   35.0720   39.6850 N   0  0  0  0  0  0  0  0  0  0  0  0
   41.6900   35.2580   38.8000 C   0  0  0  0  0  0  0  0  0  0  0  0
   40.4580   35.5920   39.2450 N   0  0  0  0  0  0  0  0  0  0  0  0
   42.7880   31.5540   42.6170 N   0  0  0  0  0  0  0  0  0  0  0  0
   41.1460   31.0910   42.4960 S   0  0  0  0  0  0  0  0  0  0  0  0
   40.2600   32.3110   42.3440 O   0  0  0  0  0  0  0  0  0  0  0  0
   40.7300   30.3010   43.6970 O   0  0  0  0  0  0  0  0  0  0  0  0
   40.9730   30.1410   41.1270 O   0  0  0  0  0  0  0  0  0  0  0  0
   40.2390   30.8670   40.1990 C   0  0  0  0  0  0  0  0  0  0  0  0
   39.0350   30.0180   39.7380 C   0  0  0  0  0  0  0  0  0  0  0  0
   37.8460   30.6980   40.3210 C   0  0  0  0  0  0  0  0  0  0  0  0
   37.2120   30.3180   41.3980 C   0  0  0  0  0  0  0  0  0  0  0  0
   37.6600   29.1270   42.1410 C   0  0  0  0  0  0  0  0  0  0  0  0
   42.2113   32.9873   41.2459 H   0  0  0  0  0  0  0  0  0  0  0  0
   43.7422   32.0549   40.8770 H   0  0  0  0  0  0  0  0  0  0  0  0
   45.3109   32.3709   43.2806 H   0  0  0  0  0  0  0  0  0  0  0  0
   46.6541   34.1975   44.1645 H   0  0  0  0  0  0  0  0  0  0  0  0
   46.1448   36.5676   43.6338 H   0  0  0  0  0  0  0  0  0  0  0  0
   44.1965   37.0053   42.1559 H   0  0  0  0  0  0  0  0  0  0  0  0
   39.2171   36.0137   40.8927 H   0  0  0  0  0  0  0  0  0  0  0  0
   41.0753   35.6774   42.5492 H   0  0  0  0  0  0  0  0  0  0  0  0
   41.8715   35.1369   37.7219 H   0  0  0  0  0  0  0  0  0  0  0  0
   43.3792   30.7242   42.4661 H   0  0  0  0  0  0  0  0  0  0  0  0
   40.0121   32.6524   43.2396 H   0  0  0  0  0  0  0  0  0  0  0  0
   40.9873   30.7896   44.5187 H   0  0  0  0  0  0  0  0  0  0  0  0
   39.8788   31.7984   40.6603 H   0  0  0  0  0  0  0  0  0  0  0  0
   40.8726   31.1148   39.3347 H   0  0  0  0  0  0  0  0  0  0  0  0
   38.9714   29.9995   38.6400 H   0  0  0  0  0  0  0  0  0  0  0  0
   39.1160   28.9705   40.0638 H   0  0  0  0  0  0  0  0  0  0  0  0
   37.4709   31.5929   39.8029 H   0  0  0  0  0  0  0  0  0  0  0  0
   36.3408   30.8890   41.7515 H   0  0  0  0  0  0  0  0  0  0  0  0
   37.5874   29.3201   43.2215 H   0  0  0  0  0  0  0  0  0  0  0  0
   37.0229   28.2697   41.8781 H   0  0  0  0  0  0  0  0  0  0  0  0
   38.7042   28.9021   41.8781 H   0  0  0  0  0  0  0  0  0  0  0  0
  1  3  1  0
  1 14  1  0
  2  3  2  0
  2  7  1  0
  3  4  1  0
  4  5  2  0
  6  5  1  0
  7  6  2  0
  8  9  2  0
 10  9  1  0
 10  2  1  0
 11 10  2  0
 12 13  2  0
 12 11  1  0
 13  8  1  0
 15 14  1  0
 15 17  1  0
 16 15  1  0
 18 15  1  0
 19 18  1  0
 20 19  1  0
 20 21  1  0
 21 22  2  0
 22 23  1  0
  1 24  1  0
  1 25  1  0
  4 26  1  0
  5 27  1  0
  6 28  1  0
  7 29  1  0
  8 30  1  0
  9 31  1  0
 12 32  1  0
 14 33  1  0
 16 34  1  0
 17 35  1  0
 19 36  1  0
 19 37  1  0
 20 38  1  0
 20 39  1  0
 21 40  1  0
 22 41  1  0
 23 42  1  0
 23 43  1  0
 23 44  1  0
M  ISO  8  24   8  25   8  26  14  27  14  28  14  29  14  30  14  31  14
M  ISO  8  32  14  33   5  34   3  35   3  36   8  37   8  38   8  39   8
M  ISO  3  42   8  43   8  44   8
M  END
>  <minimizedAffinity>  (1) 
-5.28128624

>  <minimizedRMSD>  (1) 
2.18705797

$$$$
