
     RDKit          3D

 27 29  0  0  0  0  0  0  0  0999 V2000
   45.9000   34.2150   41.0150 C   0  0  0  0  0  0  0  0  0  0  0  0
   46.5060   34.7930   42.1220 C   0  0  0  0  0  0  0  0  0  0  0  0
   47.8710   35.1070   41.9990 C   0  0  0  0  0  0  0  0  0  0  0  0
   48.4950   34.8280   40.8250 N   0  0  0  0  0  0  0  0  0  0  0  0
   47.8710   34.2740   39.7920 C   0  0  0  0  0  0  0  0  0  0  0  0
   46.5660   33.9630   39.8790 N   0  0  0  0  0  0  0  0  0  0  0  0
   45.7380   35.0450   43.3260 C   0  0  0  0  0  0  0  0  0  0  0  0
   45.1010   36.2410   43.5790 C   0  0  0  0  0  0  0  0  0  0  0  0
   44.5080   36.0470   44.8050 C   0  0  0  0  0  0  0  0  0  0  0  0
   44.7670   34.8090   45.2730 N   0  0  0  0  0  0  0  0  0  0  0  0
   45.5110   34.2250   44.3600 N   0  0  0  0  0  0  0  0  0  0  0  0
   44.5580   33.8930   41.0990 O   0  0  0  0  0  0  0  0  0  0  0  0
   43.5000   34.6010   40.6050 C   0  0  0  0  0  0  0  0  0  0  0  0
   43.1770   35.8100   40.8970 O   0  0  0  0  0  0  0  0  0  0  0  0
   42.5280   34.0410   39.6170 C   0  0  0  0  0  0  0  0  0  0  0  0
   41.4100   34.6700   39.0570 C   0  0  0  0  0  0  0  0  0  0  0  0
   40.7480   33.8400   38.1810 C   0  0  0  0  0  0  0  0  0  0  0  0
   41.5140   32.6970   38.2420 C   0  0  0  0  0  0  0  0  0  0  0  0
   42.4950   32.8600   39.0570 O   0  0  0  0  0  0  0  0  0  0  0  0
   48.4204   35.5675   42.8333 H   0  0  0  0  0  0  0  0  0  0  0  0
   48.4232   34.0691   38.8630 H   0  0  0  0  0  0  0  0  0  0  0  0
   45.0733   37.1412   42.9474 H   0  0  0  0  0  0  0  0  0  0  0  0
   43.9041   36.8000   45.3324 H   0  0  0  0  0  0  0  0  0  0  0  0
   44.4471   34.4036   46.1642 H   0  0  0  0  0  0  0  0  0  0  0  0
   41.0991   35.6995   39.2882 H   0  0  0  0  0  0  0  0  0  0  0  0
   39.8434   34.0379   37.5873 H   0  0  0  0  0  0  0  0  0  0  0  0
   41.3149   31.7760   37.6744 H   0  0  0  0  0  0  0  0  0  0  0  0
  1 12  1  0
  1  2  1  0
  2  7  1  0
  3  2  2  0
  4  3  1  0
  5  6  1  0
  5  4  2  0
  6  1  2  0
  7  8  1  0
  7 11  2  0
  8  9  2  0
  9 10  1  0
 11 10  1  0
 13 14  2  0
 13 12  1  0
 15 13  1  0
 16 15  2  0
 17 18  2  0
 17 16  1  0
 18 19  1  0
 19 15  1  0
  3 20  1  0
  5 21  1  0
  8 22  1  0
  9 23  1  0
 10 24  1  0
 16 25  1  0
 17 26  1  0
 18 27  1  0
M  ISO  8  20  14  21  14  22  14  23  14  24   9  25  14  26  14  27  14
M  END
>  <minimizedAffinity>  (1) 
-5.17583942

>  <minimizedRMSD>  (1) 
0.585875571

$$$$
