
     RDKit          3D

 48 51  0  0  1  0  0  0  0  0999 V2000
   43.3160   34.4890   40.7880 C   0  0  0  0  0  0  0  0  0  0  0  0
   43.2740   35.7400   40.5130 O   0  0  0  0  0  0  0  0  0  0  0  0
   41.9560   34.1270   40.4290 N   0  0  0  0  0  0  0  0  0  0  0  0
   41.6040   34.3570   39.0490 C   0  0  0  0  0  0  0  0  0  0  0  0
   40.8120   35.6760   39.0600 C   0  0  0  0  0  0  0  0  0  0  0  0
   39.9990   35.6780   40.3500 C   0  0  0  0  0  0  0  0  0  0  0  0
   39.6370   34.2620   40.8000 C   0  0  0  0  0  0  0  0  0  0  0  0
   40.9130   33.5710   41.2630 C   0  0  1  0  0  0  0  0  0  0  0  0
   40.7210   32.1720   41.0980 N   0  0  0  0  0  0  0  0  0  0  0  0
   39.3940   31.9570   40.5610 C   0  0  0  0  0  0  0  0  0  0  0  0
   38.6140   30.9430   41.3650 C   0  0  0  0  0  0  0  0  0  0  0  0
   39.3000   29.7480   41.5310 O   0  0  0  0  0  0  0  0  0  0  0  0
   40.6190   29.9260   41.8890 C   0  0  0  0  0  0  0  0  0  0  0  0
   40.8830   31.3770   42.2770 C   0  0  0  0  0  0  0  0  0  0  0  0
   44.3700   33.7800   41.2720 O   0  0  0  0  0  0  0  0  0  0  0  0
   45.7100   34.0750   41.1280 C   0  0  0  0  0  0  0  0  0  0  0  0
   46.3570   34.6840   42.1990 C   0  0  0  0  0  0  0  0  0  0  0  0
   47.7260   34.9710   42.0170 C   0  0  0  0  0  0  0  0  0  0  0  0
   48.3120   34.6420   40.8320 N   0  0  0  0  0  0  0  0  0  0  0  0
   47.6390   34.0620   39.8460 C   0  0  0  0  0  0  0  0  0  0  0  0
   46.3380   33.7730   39.9800 N   0  0  0  0  0  0  0  0  0  0  0  0
   45.6360   34.9890   43.4140 C   0  0  0  0  0  0  0  0  0  0  0  0
   45.0280   36.2300   43.6280 C   0  0  0  0  0  0  0  0  0  0  0  0
   44.4660   36.1040   44.8740 C   0  0  0  0  0  0  0  0  0  0  0  0
   44.7150   34.8710   45.3870 N   0  0  0  0  0  0  0  0  0  0  0  0
   45.4220   34.2320   44.4750 N   0  0  0  0  0  0  0  0  0  0  0  0
   40.9820   33.5347   38.6655 H   0  0  0  0  0  0  0  0  0  0  0  0
   42.4891   34.4095   38.3979 H   0  0  0  0  0  0  0  0  0  0  0  0
   41.5006   36.5336   39.0428 H   0  0  0  0  0  0  0  0  0  0  0  0
   40.1606   35.7578   38.1774 H   0  0  0  0  0  0  0  0  0  0  0  0
   40.5897   36.1623   41.1415 H   0  0  0  0  0  0  0  0  0  0  0  0
   39.0633   36.2247   40.1616 H   0  0  0  0  0  0  0  0  0  0  0  0
   38.9158   34.3074   41.6293 H   0  0  0  0  0  0  0  0  0  0  0  0
   39.1814   33.7033   39.9692 H   0  0  0  0  0  0  0  0  0  0  0  0
   41.1797   33.7257   42.3189 H   0  0  0  0  0  0  0  0  0  0  0  0
   38.8486   32.9122   40.5697 H   0  0  0  0  0  0  0  0  0  0  0  0
   39.5011   31.5685   39.5375 H   0  0  0  0  0  0  0  0  0  0  0  0
   38.4027   31.3681   42.3573 H   0  0  0  0  0  0  0  0  0  0  0  0
   37.6894   30.7210   40.8119 H   0  0  0  0  0  0  0  0  0  0  0  0
   40.8514   29.2756   42.7452 H   0  0  0  0  0  0  0  0  0  0  0  0
   41.2557   29.6691   41.0296 H   0  0  0  0  0  0  0  0  0  0  0  0
   41.9074   31.4823   42.6636 H   0  0  0  0  0  0  0  0  0  0  0  0
   40.1854   31.7017   43.0631 H   0  0  0  0  0  0  0  0  0  0  0  0
   48.3092   35.4512   42.8165 H   0  0  0  0  0  0  0  0  0  0  0  0
   48.1562   33.8155   38.9070 H   0  0  0  0  0  0  0  0  0  0  0  0
   45.0054   37.1011   42.9567 H   0  0  0  0  0  0  0  0  0  0  0  0
   43.8937   36.8917   45.3858 H   0  0  0  0  0  0  0  0  0  0  0  0
   44.4129   34.5085   46.3026 H   0  0  0  0  0  0  0  0  0  0  0  0
  1 15  1  0
  2  1  2  0
  3  1  1  0
  3  8  1  0
  4  5  1  0
  4  3  1  0
  5  6  1  0
  6  7  1  0
  7  8  1  0
  9  8  1  0
  9 14  1  0
 10  9  1  0
 10 11  1  0
 11 12  1  0
 12 13  1  0
 13 14  1  0
 16 15  1  0
 16 17  1  0
 17 22  1  0
 18 17  2  0
 19 18  1  0
 20 21  1  0
 20 19  2  0
 21 16  2  0
 22 23  1  0
 22 26  2  0
 23 24  2  0
 24 25  1  0
 26 25  1  0
  4 27  1  0
  4 28  1  0
  5 29  1  0
  5 30  1  0
  6 31  1  0
  6 32  1  0
  7 33  1  0
  7 34  1  0
  8 35  1  1
 10 36  1  0
 10 37  1  0
 11 38  1  0
 11 39  1  0
 13 40  1  0
 13 41  1  0
 14 42  1  0
 14 43  1  0
 18 44  1  0
 20 45  1  0
 23 46  1  0
 24 47  1  0
 25 48  1  0
M  ISO  8  27  13  28  13  29  13  30  13  31  13  32  13  33  13  34  13
M  ISO  8  35  13  36  13  37  13  38  13  39  13  40  13  41  13  42  13
M  ISO  6  43  13  44  14  45  14  46  14  47  14  48   9
M  END
>  <minimizedAffinity>  (1) 
-6.80192375

>  <minimizedRMSD>  (1) 
0.255810469

$$$$
