
     RDKit          3D

 42 45  0  0  1  0  0  0  0  0999 V2000
   43.3270   34.4450   40.7160 C   0  0  0  0  0  0  0  0  0  0  0  0
   43.2740   35.6290   40.2770 O   0  0  0  0  0  0  0  0  0  0  0  0
   41.9690   34.0260   40.4580 N   0  0  0  0  0  0  0  0  0  0  0  0
   41.5560   34.0540   39.0730 C   0  0  0  0  0  0  0  0  0  0  0  0
   40.7540   35.3630   38.9260 C   0  0  0  0  0  0  0  0  0  0  0  0
   39.9890   35.5350   40.2280 C   0  0  0  0  0  0  0  0  0  0  0  0
   39.6470   34.1850   40.8660 C   0  0  0  0  0  0  0  0  0  0  0  0
   40.9340   33.5730   41.3880 C   0  0  1  0  0  0  0  0  0  0  0  0
   40.8940   32.1180   41.5100 C   0  0  0  0  0  0  0  0  0  0  0  0
   41.4590   31.1660   40.6770 C   0  0  0  0  0  0  0  0  0  0  0  0
   41.1210   29.9540   41.2470 C   0  0  0  0  0  0  0  0  0  0  0  0
   40.3710   30.2520   42.3900 C   0  0  0  0  0  0  0  0  0  0  0  0
   40.2470   31.5690   42.5290 O   0  0  0  0  0  0  0  0  0  0  0  0
   44.3950   33.7840   41.2720 O   0  0  0  0  0  0  0  0  0  0  0  0
   45.7240   34.1180   41.1160 C   0  0  0  0  0  0  0  0  0  0  0  0
   46.3680   34.7480   42.1920 C   0  0  0  0  0  0  0  0  0  0  0  0
   47.7250   35.0720   41.9950 C   0  0  0  0  0  0  0  0  0  0  0  0
   48.3150   34.7590   40.7970 N   0  0  0  0  0  0  0  0  0  0  0  0
   47.6480   34.1640   39.8220 C   0  0  0  0  0  0  0  0  0  0  0  0
   46.3500   33.8340   39.9610 N   0  0  0  0  0  0  0  0  0  0  0  0
   45.6460   35.0280   43.4100 C   0  0  0  0  0  0  0  0  0  0  0  0
   45.0030   36.2430   43.6300 C   0  0  0  0  0  0  0  0  0  0  0  0
   44.4530   36.0890   44.8870 C   0  0  0  0  0  0  0  0  0  0  0  0
   44.7440   34.8670   45.3860 N   0  0  0  0  0  0  0  0  0  0  0  0
   45.4660   34.2420   44.4760 N   0  0  0  0  0  0  0  0  0  0  0  0
   42.4320   34.0597   38.4077 H   0  0  0  0  0  0  0  0  0  0  0  0
   40.9609   33.1702   38.7998 H   0  0  0  0  0  0  0  0  0  0  0  0
   41.4347   36.2124   38.7678 H   0  0  0  0  0  0  0  0  0  0  0  0
   40.0744   35.3239   38.0619 H   0  0  0  0  0  0  0  0  0  0  0  0
   40.6059   36.1152   40.9301 H   0  0  0  0  0  0  0  0  0  0  0  0
   39.0472   36.0582   40.0061 H   0  0  0  0  0  0  0  0  0  0  0  0
   38.9405   34.3328   41.6961 H   0  0  0  0  0  0  0  0  0  0  0  0
   39.1807   33.5194   40.1247 H   0  0  0  0  0  0  0  0  0  0  0  0
   41.1277   33.8995   42.4204 H   0  0  0  0  0  0  0  0  0  0  0  0
   42.0470   31.3375   39.7633 H   0  0  0  0  0  0  0  0  0  0  0  0
   41.3883   28.9535   40.8761 H   0  0  0  0  0  0  0  0  0  0  0  0
   39.9450   29.5044   43.0753 H   0  0  0  0  0  0  0  0  0  0  0  0
   48.3020   35.5681   42.7893 H   0  0  0  0  0  0  0  0  0  0  0  0
   48.1643   33.9341   38.8783 H   0  0  0  0  0  0  0  0  0  0  0  0
   44.9467   37.1158   42.9628 H   0  0  0  0  0  0  0  0  0  0  0  0
   43.8604   36.8543   45.4097 H   0  0  0  0  0  0  0  0  0  0  0  0
   44.4567   34.4947   46.3024 H   0  0  0  0  0  0  0  0  0  0  0  0
  1 14  1  0
  2  1  2  0
  3  1  1  0
  3  8  1  0
  4  3  1  0
  5  4  1  0
  5  6  1  0
  6  7  1  0
  7  8  1  0
  8  9  1  0
  9 13  1  0
 10 11  1  0
 10  9  2  0
 11 12  2  0
 12 13  1  0
 15 14  1  0
 15 16  1  0
 16 21  1  0
 17 16  2  0
 18 17  1  0
 19 20  1  0
 19 18  2  0
 20 15  2  0
 21 22  1  0
 21 25  2  0
 22 23  2  0
 23 24  1  0
 25 24  1  0
  4 26  1  0
  4 27  1  0
  5 28  1  0
  5 29  1  0
  6 30  1  0
  6 31  1  0
  7 32  1  0
  7 33  1  0
  8 34  1  1
 10 35  1  0
 11 36  1  0
 12 37  1  0
 17 38  1  0
 19 39  1  0
 22 40  1  0
 23 41  1  0
 24 42  1  0
M  ISO  8  26  13  27  13  28  13  29  13  30  13  31  13  32  13  33  13
M  ISO  8  34  13  35  14  36  14  37  14  38  14  39  14  40  14  41  14
M  ISO  1  42   9
M  END
>  <minimizedAffinity>  (1) 
-6.59689379

>  <minimizedRMSD>  (1) 
0.370248646

$$$$
