
     RDKit          3D

 26 27  0  0  0  0  0  0  0  0999 V2000
   46.4360   34.5170   41.5660 C   0  0  0  0  0  0  0  0  0  0  0  0
   44.6170   36.1320   44.4320 C   0  0  0  0  0  0  0  0  0  0  0  0
   45.1640   35.9210   43.1490 C   0  0  0  0  0  0  0  0  0  0  0  0
   45.8610   34.7470   42.9080 C   0  0  0  0  0  0  0  0  0  0  0  0
   45.9740   33.8640   43.9320 N   0  0  0  0  0  0  0  0  0  0  0  0
   45.4400   34.0870   45.1560 C   0  0  0  0  0  0  0  0  0  0  0  0
   44.7690   35.2060   45.4090 N   0  0  0  0  0  0  0  0  0  0  0  0
   47.7910   35.2170   41.4990 C   0  0  0  0  0  0  0  0  0  0  0  0
   50.0060   35.3180   43.1270 F   0  0  0  0  0  0  0  0  0  0  0  0
   49.8700   34.2640   42.2830 C   0  0  0  0  0  0  0  0  0  0  0  0
   48.7870   34.1160   41.4180 C   0  0  0  0  0  0  0  0  0  0  0  0
   48.7760   32.9930   40.6110 C   0  0  0  0  0  0  0  0  0  0  0  0
   49.8090   32.0870   40.6930 C   0  0  0  0  0  0  0  0  0  0  0  0
   50.8810   32.2300   41.5490 C   0  0  0  0  0  0  0  0  0  0  0  0
   50.8930   33.3660   42.3640 C   0  0  0  0  0  0  0  0  0  0  0  0
   46.5660   33.4379   41.3970 H   0  0  0  0  0  0  0  0  0  0  0  0
   45.7642   34.9167   40.7921 H   0  0  0  0  0  0  0  0  0  0  0  0
   44.0613   37.0580   44.6413 H   0  0  0  0  0  0  0  0  0  0  0  0
   45.0400   36.6728   42.3557 H   0  0  0  0  0  0  0  0  0  0  0  0
   45.5627   33.3346   45.9489 H   0  0  0  0  0  0  0  0  0  0  0  0
   47.8510   35.8595   40.6081 H   0  0  0  0  0  0  0  0  0  0  0  0
   47.9638   35.8685   42.3683 H   0  0  0  0  0  0  0  0  0  0  0  0
   47.9469   32.8248   39.9079 H   0  0  0  0  0  0  0  0  0  0  0  0
   49.7779   31.2016   40.0410 H   0  0  0  0  0  0  0  0  0  0  0  0
   51.6891   31.4848   41.5887 H   0  0  0  0  0  0  0  0  0  0  0  0
   51.7227   33.5343   43.0663 H   0  0  0  0  0  0  0  0  0  0  0  0
  1  4  1  0
  2  7  2  0
  3  2  1  0
  4  3  2  0
  4  5  1  0
  5  6  2  0
  6  7  1  0
  8  1  1  0
 10 15  2  0
 10  9  1  0
 11  8  1  0
 11 10  1  0
 12 13  1  0
 12 11  2  0
 13 14  2  0
 14 15  1  0
  1 16  1  0
  1 17  1  0
  2 18  1  0
  3 19  1  0
  6 20  1  0
  8 21  1  0
  8 22  1  0
 12 23  1  0
 13 24  1  0
 14 25  1  0
 15 26  1  0
M  ISO  8  16   8  17   8  18  14  19  14  20  14  21   8  22   8  23  14
M  ISO  3  24  14  25  14  26  14
M  END
>  <minimizedAffinity>  (1) 
-5.04468489

>  <minimizedRMSD>  (1) 
2.30476832

$$$$
