
     RDKit          3D

 36 38  0  0  1  0  0  0  0  0999 V2000
   43.3810   34.4810   40.7700 C   0  0  0  0  0  0  0  0  0  0  0  0
   43.2950   35.7340   40.5490 O   0  0  0  0  0  0  0  0  0  0  0  0
   42.0400   34.0770   40.3940 N   0  0  0  0  0  0  0  0  0  0  0  0
   41.6770   34.3520   39.0160 C   0  0  0  0  0  0  0  0  0  0  0  0
   40.8330   35.6410   39.0840 C   0  0  0  0  0  0  0  0  0  0  0  0
   40.0210   35.5560   40.3720 C   0  0  0  0  0  0  0  0  0  0  0  0
   39.7060   34.1070   40.7510 C   0  0  0  0  0  0  0  0  0  0  0  0
   41.0050   33.4380   41.1980 C   0  0  1  0  0  0  0  0  0  0  0  0
   40.9560   32.0610   41.0040 O   0  0  0  0  0  0  0  0  0  0  0  0
   44.4580   33.7810   41.2290 O   0  0  0  0  0  0  0  0  0  0  0  0
   45.7840   34.1230   41.0860 C   0  0  0  0  0  0  0  0  0  0  0  0
   46.4090   34.7530   42.1610 C   0  0  0  0  0  0  0  0  0  0  0  0
   47.7610   35.0960   41.9990 C   0  0  0  0  0  0  0  0  0  0  0  0
   48.3680   34.7870   40.8020 N   0  0  0  0  0  0  0  0  0  0  0  0
   47.7200   34.1910   39.8240 C   0  0  0  0  0  0  0  0  0  0  0  0
   46.4210   33.8500   39.9510 N   0  0  0  0  0  0  0  0  0  0  0  0
   45.6780   35.0310   43.3780 C   0  0  0  0  0  0  0  0  0  0  0  0
   45.0430   36.2380   43.6110 C   0  0  0  0  0  0  0  0  0  0  0  0
   44.4840   36.0800   44.8580 C   0  0  0  0  0  0  0  0  0  0  0  0
   44.7590   34.8560   45.3530 N   0  0  0  0  0  0  0  0  0  0  0  0
   45.4820   34.2440   44.4370 N   0  0  0  0  0  0  0  0  0  0  0  0
   41.0869   33.5234   38.5974 H   0  0  0  0  0  0  0  0  0  0  0  0
   42.5585   34.4651   38.3677 H   0  0  0  0  0  0  0  0  0  0  0  0
   41.4883   36.5242   39.1049 H   0  0  0  0  0  0  0  0  0  0  0  0
   40.1783   35.7360   38.2052 H   0  0  0  0  0  0  0  0  0  0  0  0
   40.5962   36.0201   41.1867 H   0  0  0  0  0  0  0  0  0  0  0  0
   39.0684   36.0820   40.2109 H   0  0  0  0  0  0  0  0  0  0  0  0
   38.9750   34.0874   41.5727 H   0  0  0  0  0  0  0  0  0  0  0  0
   39.2800   33.5725   39.8891 H   0  0  0  0  0  0  0  0  0  0  0  0
   41.1970   33.5622   42.2740 H   0  0  0  0  0  0  0  0  0  0  0  0
   40.9398   31.6044   41.8823 H   0  0  0  0  0  0  0  0  0  0  0  0
   48.3187   35.5966   42.8042 H   0  0  0  0  0  0  0  0  0  0  0  0
   48.2475   33.9666   38.8852 H   0  0  0  0  0  0  0  0  0  0  0  0
   44.9961   37.1182   42.9529 H   0  0  0  0  0  0  0  0  0  0  0  0
   43.8934   36.8472   45.3801 H   0  0  0  0  0  0  0  0  0  0  0  0
   44.4634   34.4761   46.2636 H   0  0  0  0  0  0  0  0  0  0  0  0
  1 10  1  0
  2  1  2  0
  3  1  1  0
  3  8  1  0
  4  5  1  0
  4  3  1  0
  5  6  1  0
  6  7  1  0
  7  8  1  0
  9  8  1  0
 11 10  1  0
 11 12  1  0
 12 17  1  0
 13 12  2  0
 14 13  1  0
 15 16  1  0
 15 14  2  0
 16 11  2  0
 17 18  1  0
 17 21  2  0
 18 19  2  0
 19 20  1  0
 21 20  1  0
  4 22  1  0
  4 23  1  0
  5 24  1  0
  5 25  1  0
  6 26  1  0
  6 27  1  0
  7 28  1  0
  7 29  1  0
  8 30  1  1
  9 31  1  0
 13 32  1  0
 15 33  1  0
 18 34  1  0
 19 35  1  0
 20 36  1  0
M  ISO  8  22  13  23  13  24  13  25  13  26  13  27  13  28  13  29  13
M  ISO  7  30  13  31   3  32  14  33  14  34  14  35  14  36   9
M  END
>  <minimizedAffinity>  (1) 
-6.27890587

>  <minimizedRMSD>  (1) 
0.0161235109

$$$$
