
     RDKit          3D

 22 23  0  0  0  0  0  0  0  0999 V2000
   45.5730   34.4830   41.2100 C   0  0  0  0  0  0  0  0  0  0  0  0
   44.6090   35.9750   44.5330 C   0  0  0  0  0  0  0  0  0  0  0  0
   44.8100   35.8390   43.1350 C   0  0  0  0  0  0  0  0  0  0  0  0
   45.3530   34.6500   42.6690 C   0  0  0  0  0  0  0  0  0  0  0  0
   45.6580   33.6910   43.5760 N   0  0  0  0  0  0  0  0  0  0  0  0
   45.4580   33.8400   44.9060 C   0  0  0  0  0  0  0  0  0  0  0  0
   44.9380   34.9740   45.3670 N   0  0  0  0  0  0  0  0  0  0  0  0
   47.0370   34.2310   40.9570 C   0  0  0  0  0  0  0  0  0  0  0  0
   47.2270   33.9190   39.4980 C   0  0  0  0  0  0  0  0  0  0  0  0
   46.4000   33.0020   38.7400 C   0  0  0  0  0  0  0  0  0  0  0  0
   47.1310   33.0750   37.1090 S   0  0  0  0  0  0  0  0  0  0  0  0
   48.4410   34.3300   37.6910 C   0  0  0  0  0  0  0  0  0  0  0  0
   48.1900   34.4790   38.7920 N   0  0  0  0  0  0  0  0  0  0  0  0
   44.9838   33.6292   40.8441 H   0  0  0  0  0  0  0  0  0  0  0  0
   45.2574   35.3945   40.6812 H   0  0  0  0  0  0  0  0  0  0  0  0
   44.1815   36.9049   44.9363 H   0  0  0  0  0  0  0  0  0  0  0  0
   44.5437   36.6508   42.4421 H   0  0  0  0  0  0  0  0  0  0  0  0
   45.7235   33.0294   45.6006 H   0  0  0  0  0  0  0  0  0  0  0  0
   47.6182   35.1263   41.2229 H   0  0  0  0  0  0  0  0  0  0  0  0
   47.3833   33.3855   41.5695 H   0  0  0  0  0  0  0  0  0  0  0  0
   45.5386   32.4095   39.0818 H   0  0  0  0  0  0  0  0  0  0  0  0
   49.2458   34.7979   37.1050 H   0  0  0  0  0  0  0  0  0  0  0  0
  1  4  1  0
  2  7  2  0
  3  2  1  0
  4  3  2  0
  4  5  1  0
  5  6  2  0
  6  7  1  0
  8  1  1  0
  9  8  1  0
 10  9  2  0
 11 12  1  0
 11 10  1  0
 12 13  2  0
 13  9  1  0
  1 14  1  0
  1 15  1  0
  2 16  1  0
  3 17  1  0
  6 18  1  0
  8 19  1  0
  8 20  1  0
 10 21  1  0
 12 22  1  0
M  ISO  8  14   8  15   8  16  14  17  14  18  14  19   8  20   8  21  14
M  ISO  1  22  14
M  END
>  <minimizedAffinity>  (1) 
-3.82877755

>  <minimizedRMSD>  (1) 
1.88780963

$$$$
