
     RDKit          3D

 40 42  0  0  0  0  0  0  0  0999 V2000
   48.4660   33.1470   41.3680 C   0  0  0  0  0  0  0  0  0  0  0  0
   47.9340   34.3090   41.9220 C   0  0  0  0  0  0  0  0  0  0  0  0
   48.7820   35.1810   42.6050 C   0  0  0  0  0  0  0  0  0  0  0  0
   50.1350   34.8470   42.7040 C   0  0  0  0  0  0  0  0  0  0  0  0
   50.6030   33.6990   42.1440 C   0  0  0  0  0  0  0  0  0  0  0  0
   49.7840   32.7980   41.4490 C   0  0  0  0  0  0  0  0  0  0  0  0
   46.4930   34.5090   41.7220 C   0  0  0  0  0  0  0  0  0  0  0  0
   45.8350   34.8010   43.0530 C   0  0  0  0  0  0  0  0  0  0  0  0
   45.9430   33.8340   44.0360 C   0  0  0  0  0  0  0  0  0  0  0  0
   45.3490   34.0920   45.2710 C   0  0  0  0  0  0  0  0  0  0  0  0
   44.7080   35.2700   45.4280 N   0  0  0  0  0  0  0  0  0  0  0  0
   44.6210   36.1990   44.4390 C   0  0  0  0  0  0  0  0  0  0  0  0
   45.1840   35.9630   43.2560 N   0  0  0  0  0  0  0  0  0  0  0  0
   47.6910   32.2160   40.6680 O   0  0  0  0  0  0  0  0  0  0  0  0
   50.3520   31.6710   40.9110 O   0  0  0  0  0  0  0  0  0  0  0  0
   53.5800   31.6890   38.6130 N   0  0  0  0  0  0  0  0  0  0  0  0
   52.3450   31.7050   37.8500 C   0  0  0  0  0  0  0  0  0  0  0  0
   51.1860   31.1880   38.7020 C   0  0  0  0  0  0  0  0  0  0  0  0
   51.4820   31.6660   40.1290 C   0  0  0  0  0  0  0  0  0  0  0  0
   52.5550   30.7090   40.6380 C   0  0  0  0  0  0  0  0  0  0  0  0
   53.6040   30.6070   39.5690 C   0  0  0  0  0  0  0  0  0  0  0  0
   48.3954   36.1077   43.0541 H   0  0  0  0  0  0  0  0  0  0  0  0
   50.8258   35.5162   43.2378 H   0  0  0  0  0  0  0  0  0  0  0  0
   51.6738   33.4668   42.2410 H   0  0  0  0  0  0  0  0  0  0  0  0
   46.3316   35.3564   41.0394 H   0  0  0  0  0  0  0  0  0  0  0  0
   46.0533   33.5992   41.2873 H   0  0  0  0  0  0  0  0  0  0  0  0
   46.4799   32.8922   43.8497 H   0  0  0  0  0  0  0  0  0  0  0  0
   45.4009   33.3599   46.0904 H   0  0  0  0  0  0  0  0  0  0  0  0
   44.0864   37.1439   44.6161 H   0  0  0  0  0  0  0  0  0  0  0  0
   46.7203   32.3697   40.5490 H   0  0  0  0  0  0  0  0  0  0  0  0
   53.6721   32.5822   39.1176 H   0  0  0  0  0  0  0  0  0  0  0  0
   52.1291   32.7354   37.5312 H   0  0  0  0  0  0  0  0  0  0  0  0
   52.4600   31.0539   36.9709 H   0  0  0  0  0  0  0  0  0  0  0  0
   50.2320   31.6048   38.3470 H   0  0  0  0  0  0  0  0  0  0  0  0
   51.0967   30.0929   38.6485 H   0  0  0  0  0  0  0  0  0  0  0  0
   51.8297   32.7092   40.1598 H   0  0  0  0  0  0  0  0  0  0  0  0
   52.9991   31.0999   41.5654 H   0  0  0  0  0  0  0  0  0  0  0  0
   52.1241   29.7209   40.8570 H   0  0  0  0  0  0  0  0  0  0  0  0
   53.4525   29.6627   39.0256 H   0  0  0  0  0  0  0  0  0  0  0  0
   54.5789   30.6541   40.0763 H   0  0  0  0  0  0  0  0  0  0  0  0
  1  6  2  0
  1  2  1  0
  2  3  2  0
  3  4  1  0
  5  4  2  0
  6  5  1  0
  7  2  1  0
  7  8  1  0
  8 13  1  0
  8  9  2  0
  9 10  1  0
 10 11  2  0
 12 11  1  0
 13 12  2  0
 14  1  1  0
 15  6  1  0
 16 21  1  0
 17 16  1  0
 17 18  1  0
 18 19  1  0
 19 20  1  0
 19 15  1  0
 21 20  1  0
  3 22  1  0
  4 23  1  0
  5 24  1  0
  7 25  1  0
  7 26  1  0
  9 27  1  0
 10 28  1  0
 12 29  1  0
 14 30  1  0
 16 31  1  0
 17 32  1  0
 17 33  1  0
 18 34  1  0
 18 35  1  0
 19 36  1  0
 20 37  1  0
 20 38  1  0
 21 39  1  0
 21 40  1  0
M  ISO  8  22  14  23  14  24  14  25   8  26   8  27  14  28  14  29  14
M  ISO  8  30   3  31   5  32  13  33  13  34  13  35  13  36  13  37  13
M  ISO  3  38  13  39  13  40  13
M  END
>  <minimizedAffinity>  (1) 
-5.43458462

>  <minimizedRMSD>  (1) 
1.49843967

$$$$
