
     RDKit          3D

 37 38  0  0  1  0  0  0  0  0999 V2000
   47.1940   34.1690   43.1000 N   0  0  0  0  0  0  0  0  0  0  0  0
   46.6570   35.3550   42.5230 C   0  0  0  0  0  0  0  0  0  0  0  0
   45.1890   35.5950   42.7440 C   0  0  0  0  0  0  0  0  0  0  0  0
   44.6480   35.0510   44.0340 C   0  0  0  0  0  0  0  0  0  0  0  0
   45.7250   34.4560   44.8920 C   0  0  0  0  0  0  0  0  0  0  0  0
   46.4050   33.4020   43.9630 C   0  0  2  0  0  0  0  0  0  0  0  0
   48.1490   33.4990   42.2670 C   0  0  0  0  0  0  0  0  0  0  0  0
   47.4410   32.6560   41.2560 C   0  0  0  0  0  0  0  0  0  0  0  0
   49.3280   32.2820   38.0250 C   0  0  0  0  0  0  0  0  0  0  0  0
   48.8070   32.0150   39.3050 C   0  0  0  0  0  0  0  0  0  0  0  0
   47.9930   32.9480   39.9050 C   0  0  0  0  0  0  0  0  0  0  0  0
   47.7300   34.0800   39.2330 N   0  0  0  0  0  0  0  0  0  0  0  0
   48.2370   34.3210   38.0060 C   0  0  0  0  0  0  0  0  0  0  0  0
   49.0340   33.4310   37.3940 N   0  0  0  0  0  0  0  0  0  0  0  0
   47.2130   32.6920   44.8460 O   0  0  0  0  0  0  0  0  0  0  0  0
   46.0090   30.5410   43.8670 O   0  0  0  0  0  0  0  0  0  0  0  0
   46.6500   31.1250   45.1220 P   0  0  0  0  0  0  0  0  0  0  0  0
   45.4050   31.2420   46.2760 O   0  0  0  0  0  0  0  0  0  0  0  0
   47.8420   30.1280   45.7390 O   0  0  0  0  0  0  0  0  0  0  0  0
   46.8297   35.3082   41.4377 H   0  0  0  0  0  0  0  0  0  0  0  0
   47.1705   36.1866   43.0278 H   0  0  0  0  0  0  0  0  0  0  0  0
   45.0143   36.6810   42.7309 H   0  0  0  0  0  0  0  0  0  0  0  0
   44.6638   35.0603   41.9388 H   0  0  0  0  0  0  0  0  0  0  0  0
   44.1642   35.8686   44.5884 H   0  0  0  0  0  0  0  0  0  0  0  0
   43.9301   34.2539   43.7906 H   0  0  0  0  0  0  0  0  0  0  0  0
   46.4462   35.2255   45.2046 H   0  0  0  0  0  0  0  0  0  0  0  0
   45.3327   34.0138   45.8197 H   0  0  0  0  0  0  0  0  0  0  0  0
   45.7427   32.7356   43.3909 H   0  0  0  0  0  0  0  0  0  0  0  0
   48.7686   34.2460   41.7492 H   0  0  0  0  0  0  0  0  0  0  0  0
   48.7858   32.8558   42.8921 H   0  0  0  0  0  0  0  0  0  0  0  0
   47.5913   31.5924   41.4932 H   0  0  0  0  0  0  0  0  0  0  0  0
   46.3648   32.8827   41.2732 H   0  0  0  0  0  0  0  0  0  0  0  0
   49.9814   31.5437   37.5372 H   0  0  0  0  0  0  0  0  0  0  0  0
   49.0475   31.0727   39.8190 H   0  0  0  0  0  0  0  0  0  0  0  0
   47.9924   35.2652   37.4973 H   0  0  0  0  0  0  0  0  0  0  0  0
   45.7938   31.2055   47.1857 H   0  0  0  0  0  0  0  0  0  0  0  0
   47.8131   30.1522   46.7283 H   0  0  0  0  0  0  0  0  0  0  0  0
  1  6  1  0
  2  3  1  0
  2  1  1  0
  3  4  1  0
  4  5  1  0
  6 15  1  0
  6  5  1  0
  7  1  1  0
  8  7  1  0
  9 10  2  0
 10 11  1  0
 11  8  1  0
 12 11  2  0
 13 12  1  0
 14 13  2  0
 14  9  1  0
 15 17  1  0
 16 17  2  0
 17 19  1  0
 17 18  1  0
  2 20  1  0
  2 21  1  0
  3 22  1  0
  3 23  1  0
  4 24  1  0
  4 25  1  0
  5 26  1  0
  5 27  1  0
  6 28  1  6
  7 29  1  0
  7 30  1  0
  8 31  1  0
  8 32  1  0
  9 33  1  0
 10 34  1  0
 13 35  1  0
 18 36  1  0
 19 37  1  0
M  ISO  8  20  13  21  13  22  13  23  13  24  13  25  13  26  13  27  13
M  ISO  8  28  13  29   8  30   8  31   8  32   8  33  14  34  14  35  14
M  ISO  2  36   3  37   3
M  END
>  <minimizedAffinity>  (1) 
-3.79906249

>  <minimizedRMSD>  (1) 
6.95390415

$$$$
