
     RDKit          3D

 47 49  0  0  1  0  0  0  0  0999 V2000
   46.6680   31.5970   44.7050 N   0  0  0  0  0  0  0  0  0  0  0  0
   45.4220   31.6200   44.0150 C   0  0  0  0  0  0  0  0  0  0  0  0
   44.7730   30.2820   43.8040 C   0  0  0  0  0  0  0  0  0  0  0  0
   45.0410   29.2750   44.8860 C   0  0  0  0  0  0  0  0  0  0  0  0
   45.8150   29.8890   46.0310 C   0  0  0  0  0  0  0  0  0  0  0  0
   47.1080   30.4410   45.3280 C   0  0  2  0  0  0  0  0  0  0  0  0
   47.6370   32.5250   44.2030 C   0  0  0  0  0  0  0  0  0  0  0  0
   48.0010   32.1450   42.8080 C   0  0  0  0  0  0  0  0  0  0  0  0
   48.1590   34.5970   39.9650 C   0  0  0  0  0  0  0  0  0  0  0  0
   47.8910   33.4380   40.7180 C   0  0  0  0  0  0  0  0  0  0  0  0
   48.2930   33.3750   42.0290 C   0  0  0  0  0  0  0  0  0  0  0  0
   48.9340   34.4400   42.5360 N   0  0  0  0  0  0  0  0  0  0  0  0
   49.1890   35.5440   41.8160 C   0  0  0  0  0  0  0  0  0  0  0  0
   48.8070   35.6380   40.5270 N   0  0  0  0  0  0  0  0  0  0  0  0
   47.9190   30.7250   46.4210 O   0  0  0  0  0  0  0  0  0  0  0  0
   45.6030   31.2160   47.6370 O   0  0  0  0  0  0  0  0  0  0  0  0
   47.1020   31.5490   47.6380 P   0  0  2  0  0  0  0  0  0  0  0  0
   47.1720   33.2070   47.2230 O   0  0  0  0  0  0  0  0  0  0  0  0
   47.7990   31.3540   49.1320 O   0  0  0  0  0  0  0  0  0  0  0  0
   49.1200   31.0810   49.4290 C   0  0  0  0  0  0  0  0  0  0  0  0
   49.4730   29.7330   49.4810 C   0  0  0  0  0  0  0  0  0  0  0  0
   50.7990   29.4610   49.7800 C   0  0  0  0  0  0  0  0  0  0  0  0
   51.7620   30.4170   50.0230 C   0  0  0  0  0  0  0  0  0  0  0  0
   51.3090   31.7250   49.9480 C   0  0  0  0  0  0  0  0  0  0  0  0
   50.0160   32.0810   49.6590 C   0  0  0  0  0  0  0  0  0  0  0  0
   44.7265   32.2463   44.5929 H   0  0  0  0  0  0  0  0  0  0  0  0
   45.6413   32.0102   43.0102 H   0  0  0  0  0  0  0  0  0  0  0  0
   43.6856   30.4352   43.7406 H   0  0  0  0  0  0  0  0  0  0  0  0
   45.2072   29.8689   42.8816 H   0  0  0  0  0  0  0  0  0  0  0  0
   44.0816   28.8939   45.2660 H   0  0  0  0  0  0  0  0  0  0  0  0
   45.6430   28.4594   44.4588 H   0  0  0  0  0  0  0  0  0  0  0  0
   45.2440   30.7020   46.5032 H   0  0  0  0  0  0  0  0  0  0  0  0
   46.0322   29.1753   46.8394 H   0  0  0  0  0  0  0  0  0  0  0  0
   47.6263   29.8010   44.5988 H   0  0  0  0  0  0  0  0  0  0  0  0
   47.2126   33.5398   44.2093 H   0  0  0  0  0  0  0  0  0  0  0  0
   48.5344   32.5032   44.8387 H   0  0  0  0  0  0  0  0  0  0  0  0
   48.8909   31.4986   42.8228 H   0  0  0  0  0  0  0  0  0  0  0  0
   47.1657   31.6014   42.3424 H   0  0  0  0  0  0  0  0  0  0  0  0
   47.8387   34.6538   38.9142 H   0  0  0  0  0  0  0  0  0  0  0  0
   47.3632   32.5890   40.2590 H   0  0  0  0  0  0  0  0  0  0  0  0
   49.7185   36.3859   42.2859 H   0  0  0  0  0  0  0  0  0  0  0  0
   47.1951   33.7531   48.0484 H   0  0  0  0  0  0  0  0  0  0  0  0
   48.7420   28.9322   49.2956 H   0  0  0  0  0  0  0  0  0  0  0  0
   51.1051   28.4055   49.8268 H   0  0  0  0  0  0  0  0  0  0  0  0
   52.8061   30.1624   50.2576 H   0  0  0  0  0  0  0  0  0  0  0  0
   52.0345   32.5310   50.1325 H   0  0  0  0  0  0  0  0  0  0  0  0
   49.7132   33.1376   49.6145 H   0  0  0  0  0  0  0  0  0  0  0  0
  1  6  1  0
  2  1  1  0
  3  2  1  0
  3  4  1  0
  4  5  1  0
  6  5  1  0
  6 15  1  0
  7  1  1  0
  8  7  1  0
  9 14  2  0
  9 10  1  0
 10 11  2  0
 11 12  1  0
 11  8  1  0
 13 12  2  0
 14 13  1  0
 15 17  1  0
 17 16  2  0
 17 19  1  0
 18 17  1  0
 19 20  1  0
 20 21  2  0
 20 25  1  0
 21 22  1  0
 22 23  2  0
 24 23  1  0
 25 24  2  0
  2 26  1  0
  2 27  1  0
  3 28  1  0
  3 29  1  0
  4 30  1  0
  4 31  1  0
  5 32  1  0
  5 33  1  0
  6 34  1  6
  7 35  1  0
  7 36  1  0
  8 37  1  0
  8 38  1  0
  9 39  1  0
 10 40  1  0
 13 41  1  0
 18 42  1  0
 21 43  1  0
 22 44  1  0
 23 45  1  0
 24 46  1  0
 25 47  1  0
M  ISO  8  26  13  27  13  28  13  29  13  30  13  31  13  32  13  33  13
M  ISO  8  34  13  35   8  36   8  37   8  38   8  39  14  40  14  41  14
M  ISO  6  42   3  43  14  44  14  45  14  46  14  47  14
M  END
>  <minimizedAffinity>  (1) 
-4.66343737

>  <minimizedRMSD>  (1) 
3.55874467

$$$$
