
     RDKit          3D

 48 51  0  0  1  0  0  0  0  0999 V2000
   46.9860   34.2400   43.1510 N   0  0  0  0  0  0  0  0  0  0  0  0
   46.5350   35.4890   42.6470 C   0  0  0  0  0  0  0  0  0  0  0  0
   45.0610   35.7690   42.8630 C   0  0  0  0  0  0  0  0  0  0  0  0
   44.5020   35.2050   44.1370 C   0  0  0  0  0  0  0  0  0  0  0  0
   45.5650   34.5280   44.9690 C   0  0  0  0  0  0  0  0  0  0  0  0
   46.1860   33.4720   43.9840 C   0  0  2  0  0  0  0  0  0  0  0  0
   47.9440   33.5760   42.3130 C   0  0  0  0  0  0  0  0  0  0  0  0
   47.2010   32.7790   41.2770 C   0  0  0  0  0  0  0  0  0  0  0  0
   49.3110   32.2070   38.2150 C   0  0  0  0  0  0  0  0  0  0  0  0
   48.6910   32.0210   39.4660 C   0  0  0  0  0  0  0  0  0  0  0  0
   47.8490   32.9880   39.9530 C   0  0  0  0  0  0  0  0  0  0  0  0
   47.6530   34.0800   39.1970 N   0  0  0  0  0  0  0  0  0  0  0  0
   48.2440   34.2560   38.0060 C   0  0  0  0  0  0  0  0  0  0  0  0
   49.0790   33.3180   37.5030 N   0  0  0  0  0  0  0  0  0  0  0  0
   46.9450   32.6950   44.8520 O   0  0  0  0  0  0  0  0  0  0  0  0
   45.2410   30.8150   44.0560 O   0  0  0  0  0  0  0  0  0  0  0  0
   46.2640   31.1810   45.1300 P   0  0  2  0  0  0  0  0  0  0  0  0
   45.3530   31.3280   46.5710 O   0  0  0  0  0  0  0  0  0  0  0  0
   47.4010   29.9970   45.3720 O   0  0  0  0  0  0  0  0  0  0  0  0
   48.8400   30.4960   43.5790 N   0  0  0  0  0  0  0  0  0  0  0  0
   48.6310   29.8580   44.7660 C   0  0  0  0  0  0  0  0  0  0  0  0
   49.7660   29.1860   45.1000 N   0  0  0  0  0  0  0  0  0  0  0  0
   50.7070   29.3850   44.1340 C   0  0  0  0  0  0  0  0  0  0  0  0
   52.0050   28.9290   44.0040 C   0  0  0  0  0  0  0  0  0  0  0  0
   52.6830   29.3180   42.9060 N   0  0  0  0  0  0  0  0  0  0  0  0
   52.0900   30.1140   42.0000 C   0  0  0  0  0  0  0  0  0  0  0  0
   50.8160   30.5730   42.1130 N   0  0  0  0  0  0  0  0  0  0  0  0
   50.0980   30.2020   43.2080 C   0  0  0  0  0  0  0  0  0  0  0  0
   46.7324   35.5124   41.5651 H   0  0  0  0  0  0  0  0  0  0  0  0
   47.0815   36.2630   43.2059 H   0  0  0  0  0  0  0  0  0  0  0  0
   44.9166   36.8594   42.8771 H   0  0  0  0  0  0  0  0  0  0  0  0
   44.5241   35.2755   42.0395 H   0  0  0  0  0  0  0  0  0  0  0  0
   44.0592   36.0233   44.7237 H   0  0  0  0  0  0  0  0  0  0  0  0
   43.7457   34.4513   43.8724 H   0  0  0  0  0  0  0  0  0  0  0  0
   46.3249   35.2512   45.3000 H   0  0  0  0  0  0  0  0  0  0  0  0
   45.1649   34.0734   45.8873 H   0  0  0  0  0  0  0  0  0  0  0  0
   45.5088   32.8515   43.3787 H   0  0  0  0  0  0  0  0  0  0  0  0
   48.5842   34.3215   41.8187 H   0  0  0  0  0  0  0  0  0  0  0  0
   48.5765   32.9101   42.9184 H   0  0  0  0  0  0  0  0  0  0  0  0
   47.2329   31.7112   41.5395 H   0  0  0  0  0  0  0  0  0  0  0  0
   46.1521   33.1076   41.2350 H   0  0  0  0  0  0  0  0  0  0  0  0
   49.9892   31.4360   37.8205 H   0  0  0  0  0  0  0  0  0  0  0  0
   48.8807   31.1071   40.0480 H   0  0  0  0  0  0  0  0  0  0  0  0
   48.0476   35.1734   37.4317 H   0  0  0  0  0  0  0  0  0  0  0  0
   45.9533   31.2311   47.3523 H   0  0  0  0  0  0  0  0  0  0  0  0
   48.1676   31.0859   43.0683 H   0  0  0  0  0  0  0  0  0  0  0  0
   52.4642   28.2779   44.7624 H   0  0  0  0  0  0  0  0  0  0  0  0
   52.6704   30.4117   41.1143 H   0  0  0  0  0  0  0  0  0  0  0  0
  1  6  1  0
  2  3  1  0
  2  1  1  0
  3  4  1  0
  4  5  1  0
  6 15  1  0
  6  5  1  0
  7  1  1  0
  8  7  1  0
  9 10  2  0
 10 11  1  0
 11  8  1  0
 12 11  2  0
 13 12  1  0
 14 13  2  0
 14  9  1  0
 15 17  1  0
 17 16  2  0
 17 19  1  0
 17 18  1  0
 20 21  1  0
 21 22  2  0
 21 19  1  0
 23 22  1  0
 24 23  2  0
 25 24  1  0
 26 27  1  0
 26 25  2  0
 27 28  2  0
 28 20  1  0
 28 23  1  0
  2 29  1  0
  2 30  1  0
  3 31  1  0
  3 32  1  0
  4 33  1  0
  4 34  1  0
  5 35  1  0
  5 36  1  0
  6 37  1  6
  7 38  1  0
  7 39  1  0
  8 40  1  0
  8 41  1  0
  9 42  1  0
 10 43  1  0
 13 44  1  0
 18 45  1  0
 20 46  1  0
 24 47  1  0
 26 48  1  0
M  ISO  8  29  13  30  13  31  13  32  13  33  13  34  13  35  13  36  13
M  ISO  8  37  13  38   8  39   8  40   8  41   8  42  14  43  14  44  14
M  ISO  4  45   3  46   9  47  14  48  14
M  END
>  <minimizedAffinity>  (1) 
-4.18336105

>  <minimizedRMSD>  (1) 
0.876017869

$$$$
