
     RDKit          3D

 54 56  0  0  1  0  0  0  0  0999 V2000
   46.8990   34.4530   43.2370 N   0  0  0  0  0  0  0  0  0  0  0  0
   46.5640   34.8810   41.9290 C   0  0  0  0  0  0  0  0  0  0  0  0
   45.1300   34.6300   41.5190 C   0  0  0  0  0  0  0  0  0  0  0  0
   44.1460   34.7380   42.6520 C   0  0  0  0  0  0  0  0  0  0  0  0
   44.8160   35.1650   43.9420 C   0  0  0  0  0  0  0  0  0  0  0  0
   45.9260   34.0770   44.1430 C   0  0  2  0  0  0  0  0  0  0  0  0
   48.2110   33.8580   43.3470 C   0  0  0  0  0  0  0  0  0  0  0  0
   48.1290   32.4240   42.9550 C   0  0  0  0  0  0  0  0  0  0  0  0
   51.4070   31.9630   41.1760 C   0  0  0  0  0  0  0  0  0  0  0  0
   50.4480   32.2200   42.1730 C   0  0  0  0  0  0  0  0  0  0  0  0
   49.1190   32.1470   41.8830 C   0  0  0  0  0  0  0  0  0  0  0  0
   48.7810   31.8270   40.6310 N   0  0  0  0  0  0  0  0  0  0  0  0
   49.6770   31.5790   39.6700 C   0  0  0  0  0  0  0  0  0  0  0  0
   51.0010   31.6430   39.9260 N   0  0  0  0  0  0  0  0  0  0  0  0
   46.3110   34.3000   45.4500 O   0  0  0  0  0  0  0  0  0  0  0  0
   45.5890   31.7490   45.6470 O   0  0  0  0  0  0  0  0  0  0  0  0
   46.0410   32.9640   46.4500 P   0  0  2  0  0  0  0  0  0  0  0  0
   44.7340   33.3840   47.4540 O   0  0  0  0  0  0  0  0  0  0  0  0
   47.3480   32.6040   47.4240 O   0  0  0  0  0  0  0  0  0  0  0  0
   46.9180   32.0240   48.5870 C   0  0  0  0  0  0  0  0  0  0  0  0
   47.7250   30.9730   49.1190 N   0  0  0  0  0  0  0  0  0  0  0  0
   49.0770   31.3450   49.3920 C   0  0  0  0  0  0  0  0  0  0  0  0
   49.8180   30.0910   49.8450 C   0  0  0  0  0  0  0  0  0  0  0  0
   49.8880   29.0930   48.8200 N   0  0  0  0  0  0  0  0  0  0  0  0
   49.1200   29.5290   47.6890 C   0  0  0  0  0  0  0  0  0  0  0  0
   47.7380   29.9000   48.1420 C   0  0  0  0  0  0  0  0  0  0  0  0
   46.7520   35.9630   41.8660 H   0  0  0  0  0  0  0  0  0  0  0  0
   47.1868   34.2873   41.2437 H   0  0  0  0  0  0  0  0  0  0  0  0
   44.8553   35.3668   40.7498 H   0  0  0  0  0  0  0  0  0  0  0  0
   45.0794   33.5955   41.1486 H   0  0  0  0  0  0  0  0  0  0  0  0
   43.3784   35.4801   42.3871 H   0  0  0  0  0  0  0  0  0  0  0  0
   43.6990   33.7457   42.8117 H   0  0  0  0  0  0  0  0  0  0  0  0
   45.2586   36.1673   43.8442 H   0  0  0  0  0  0  0  0  0  0  0  0
   44.1184   35.2327   44.7898 H   0  0  0  0  0  0  0  0  0  0  0  0
   45.6681   33.0186   43.9904 H   0  0  0  0  0  0  0  0  0  0  0  0
   48.9108   34.3829   42.6801 H   0  0  0  0  0  0  0  0  0  0  0  0
   48.5695   33.9393   44.3838 H   0  0  0  0  0  0  0  0  0  0  0  0
   48.3476   31.7920   43.8283 H   0  0  0  0  0  0  0  0  0  0  0  0
   47.1168   32.2018   42.5860 H   0  0  0  0  0  0  0  0  0  0  0  0
   52.4799   32.0219   41.4115 H   0  0  0  0  0  0  0  0  0  0  0  0
   50.7728   32.4810   43.1910 H   0  0  0  0  0  0  0  0  0  0  0  0
   49.3311   31.3197   38.6585 H   0  0  0  0  0  0  0  0  0  0  0  0
   45.0050   33.2969   48.4022 H   0  0  0  0  0  0  0  0  0  0  0  0
   46.8555   32.8142   49.3497 H   0  0  0  0  0  0  0  0  0  0  0  0
   45.9580   31.5501   48.3345 H   0  0  0  0  0  0  0  0  0  0  0  0
   49.5456   31.7497   48.4828 H   0  0  0  0  0  0  0  0  0  0  0  0
   49.1145   32.1191   50.1727 H   0  0  0  0  0  0  0  0  0  0  0  0
   50.8415   30.3716   50.1342 H   0  0  0  0  0  0  0  0  0  0  0  0
   49.2610   29.6618   50.6909 H   0  0  0  0  0  0  0  0  0  0  0  0
   50.8692   28.9554   48.5386 H   0  0  0  0  0  0  0  0  0  0  0  0
   49.0589   28.7159   46.9507 H   0  0  0  0  0  0  0  0  0  0  0  0
   49.6044   30.4030   47.2291 H   0  0  0  0  0  0  0  0  0  0  0  0
   47.1565   30.2192   47.2645 H   0  0  0  0  0  0  0  0  0  0  0  0
   47.3034   29.0126   48.6255 H   0  0  0  0  0  0  0  0  0  0  0  0
  1  7  1  0
  1  6  1  0
  2  1  1  0
  3  2  1  0
  3  4  1  0
  4  5  1  0
  5  6  1  0
  6 15  1  0
  8  7  1  0
  9 10  2  0
 11 10  1  0
 11  8  1  0
 12 11  2  0
 13 14  2  0
 13 12  1  0
 14  9  1  0
 15 17  1  0
 17 16  2  0
 17 19  1  0
 17 18  1  0
 19 20  1  0
 20 21  1  0
 21 22  1  0
 22 23  1  0
 24 23  1  0
 25 26  1  0
 25 24  1  0
 26 21  1  0
  2 27  1  0
  2 28  1  0
  3 29  1  0
  3 30  1  0
  4 31  1  0
  4 32  1  0
  5 33  1  0
  5 34  1  0
  6 35  1  1
  7 36  1  0
  7 37  1  0
  8 38  1  0
  8 39  1  0
  9 40  1  0
 10 41  1  0
 13 42  1  0
 18 43  1  0
 20 44  1  0
 20 45  1  0
 22 46  1  0
 22 47  1  0
 23 48  1  0
 23 49  1  0
 24 50  1  0
 25 51  1  0
 25 52  1  0
 26 53  1  0
 26 54  1  0
M  ISO  8  27  13  28  13  29  13  30  13  31  13  32  13  33  13  34  13
M  ISO  8  35  13  36   8  37   8  38   8  39   8  40  14  41  14  42  14
M  ISO  8  43   3  44   8  45   8  46  13  47  13  48  13  49  13  50   5
M  ISO  4  51  13  52  13  53  13  54  13
M  END
>  <minimizedAffinity>  (1) 
-4.98197365

>  <minimizedRMSD>  (1) 
3.45235324

$$$$
