
     RDKit          3D

 29 30  0  0  0  0  0  0  0  0999 V2000
   48.4900   33.1410   41.3250 C   0  0  0  0  0  0  0  0  0  0  0  0
   48.0350   34.3320   41.8330 C   0  0  0  0  0  0  0  0  0  0  0  0
   48.9180   35.1470   42.5090 C   0  0  0  0  0  0  0  0  0  0  0  0
   50.2340   34.7540   42.6630 C   0  0  0  0  0  0  0  0  0  0  0  0
   50.6380   33.5670   42.1440 C   0  0  0  0  0  0  0  0  0  0  0  0
   49.7790   32.7120   41.4510 C   0  0  0  0  0  0  0  0  0  0  0  0
   46.6030   34.6240   41.5960 C   0  0  0  0  0  0  0  0  0  0  0  0
   45.9140   34.8830   42.9150 C   0  0  0  0  0  0  0  0  0  0  0  0
   45.9780   33.8700   43.8830 C   0  0  0  0  0  0  0  0  0  0  0  0
   45.3580   34.1030   45.1000 C   0  0  0  0  0  0  0  0  0  0  0  0
   44.7280   35.2740   45.3000 N   0  0  0  0  0  0  0  0  0  0  0  0
   44.6840   36.2440   44.3300 C   0  0  0  0  0  0  0  0  0  0  0  0
   45.2740   36.0410   43.1530 N   0  0  0  0  0  0  0  0  0  0  0  0
   47.6770   32.2320   40.6180 O   0  0  0  0  0  0  0  0  0  0  0  0
   50.3060   31.5160   40.9570 O   0  0  0  0  0  0  0  0  0  0  0  0
   50.9530   31.5240   39.7460 C   0  0  0  0  0  0  0  0  0  0  0  0
   50.4100   31.3410   38.6130 O   0  0  0  0  0  0  0  0  0  0  0  0
   52.3550   31.7610   39.7950 N   0  0  0  0  0  0  0  0  0  0  0  0
   48.5763   36.1066   42.9243 H   0  0  0  0  0  0  0  0  0  0  0  0
   50.9466   35.3967   43.2007 H   0  0  0  0  0  0  0  0  0  0  0  0
   51.6877   33.2654   42.2750 H   0  0  0  0  0  0  0  0  0  0  0  0
   46.5119   35.5129   40.9545 H   0  0  0  0  0  0  0  0  0  0  0  0
   46.1315   33.7626   41.1004 H   0  0  0  0  0  0  0  0  0  0  0  0
   46.5020   32.9238   43.6830 H   0  0  0  0  0  0  0  0  0  0  0  0
   45.3808   33.3401   45.8921 H   0  0  0  0  0  0  0  0  0  0  0  0
   44.1602   37.1914   44.5250 H   0  0  0  0  0  0  0  0  0  0  0  0
   46.7209   32.4384   40.4651 H   0  0  0  0  0  0  0  0  0  0  0  0
   52.9047   31.7808   38.9242 H   0  0  0  0  0  0  0  0  0  0  0  0
   52.8203   31.9128   40.7013 H   0  0  0  0  0  0  0  0  0  0  0  0
  1  6  2  0
  1  2  1  0
  2  3  2  0
  3  4  1  0
  5  4  2  0
  6  5  1  0
  7  2  1  0
  7  8  1  0
  8 13  1  0
  8  9  2  0
  9 10  1  0
 10 11  2  0
 12 11  1  0
 13 12  2  0
 14  1  1  0
 15  6  1  0
 16 18  1  0
 16 15  1  0
 17 16  2  0
  3 19  1  0
  4 20  1  0
  5 21  1  0
  7 22  1  0
  7 23  1  0
  9 24  1  0
 10 25  1  0
 12 26  1  0
 14 27  1  0
 18 28  1  0
 18 29  1  0
M  ISO  8  19  14  20  14  21  14  22   8  23   8  24  14  25  14  26  14
M  ISO  1  27   3
M  END
>  <minimizedAffinity>  (1) 
-5.04339027

>  <minimizedRMSD>  (1) 
0.423838437

$$$$
