
     RDKit          3D

 36 38  0  0  1  0  0  0  0  0999 V2000
   48.5000   33.1010   41.3740 C   0  0  0  0  0  0  0  0  0  0  0  0
   48.0550   34.3310   41.8300 C   0  0  0  0  0  0  0  0  0  0  0  0
   48.9590   35.1720   42.4800 C   0  0  0  0  0  0  0  0  0  0  0  0
   50.2680   34.7200   42.6320 C   0  0  0  0  0  0  0  0  0  0  0  0
   50.6550   33.4950   42.1630 C   0  0  0  0  0  0  0  0  0  0  0  0
   49.7780   32.6380   41.5120 C   0  0  0  0  0  0  0  0  0  0  0  0
   46.6430   34.6420   41.5780 C   0  0  0  0  0  0  0  0  0  0  0  0
   45.9400   34.9040   42.8870 C   0  0  0  0  0  0  0  0  0  0  0  0
   45.9870   33.9030   43.8430 C   0  0  0  0  0  0  0  0  0  0  0  0
   45.3510   34.1320   45.0620 C   0  0  0  0  0  0  0  0  0  0  0  0
   44.7250   35.3130   45.2400 N   0  0  0  0  0  0  0  0  0  0  0  0
   44.6970   36.2820   44.2690 C   0  0  0  0  0  0  0  0  0  0  0  0
   45.3030   36.0690   43.1040 N   0  0  0  0  0  0  0  0  0  0  0  0
   47.6550   32.1860   40.7050 O   0  0  0  0  0  0  0  0  0  0  0  0
   50.2500   31.4310   41.0650 O   0  0  0  0  0  0  0  0  0  0  0  0
   51.3310   31.2990   40.2170 C   0  0  2  0  0  0  0  0  0  0  0  0
   50.8440   31.4780   38.7700 C   0  0  0  0  0  0  0  0  0  0  0  0
   51.1280   30.1430   38.1500 C   0  0  0  0  0  0  0  0  0  0  0  0
   52.2320   29.6880   38.8680 O   0  0  0  0  0  0  0  0  0  0  0  0
   51.8930   29.8800   40.2030 C   0  0  0  0  0  0  0  0  0  0  0  0
   48.6491   36.1570   42.8590 H   0  0  0  0  0  0  0  0  0  0  0  0
   51.0045   35.3608   43.1390 H   0  0  0  0  0  0  0  0  0  0  0  0
   51.6983   33.1774   42.3067 H   0  0  0  0  0  0  0  0  0  0  0  0
   46.5733   35.5354   40.9400 H   0  0  0  0  0  0  0  0  0  0  0  0
   46.1663   33.7895   41.0720 H   0  0  0  0  0  0  0  0  0  0  0  0
   46.5105   32.9558   43.6462 H   0  0  0  0  0  0  0  0  0  0  0  0
   45.3595   33.3710   45.8562 H   0  0  0  0  0  0  0  0  0  0  0  0
   44.1749   37.2325   44.4533 H   0  0  0  0  0  0  0  0  0  0  0  0
   46.7046   32.4141   40.5474 H   0  0  0  0  0  0  0  0  0  0  0  0
   52.0773   32.0308   40.5598 H   0  0  0  0  0  0  0  0  0  0  0  0
   49.7684   31.7067   38.7405 H   0  0  0  0  0  0  0  0  0  0  0  0
   51.3359   32.3117   38.2475 H   0  0  0  0  0  0  0  0  0  0  0  0
   50.2720   29.4625   38.2691 H   0  0  0  0  0  0  0  0  0  0  0  0
   51.3110   30.2001   37.0668 H   0  0  0  0  0  0  0  0  0  0  0  0
   51.1347   29.1518   40.5265 H   0  0  0  0  0  0  0  0  0  0  0  0
   52.7426   29.7447   40.8885 H   0  0  0  0  0  0  0  0  0  0  0  0
  1  6  2  0
  1  2  1  0
  2  3  2  0
  3  4  1  0
  5  4  2  0
  6  5  1  0
  7  2  1  0
  7  8  1  0
  8 13  1  0
  8  9  2  0
  9 10  1  0
 10 11  2  0
 12 11  1  0
 13 12  2  0
 14  1  1  0
 15  6  1  0
 16 15  1  0
 17 16  1  0
 18 17  1  0
 18 19  1  0
 19 20  1  0
 20 16  1  0
  3 21  1  0
  4 22  1  0
  5 23  1  0
  7 24  1  0
  7 25  1  0
  9 26  1  0
 10 27  1  0
 12 28  1  0
 14 29  1  0
 16 30  1  1
 17 31  1  0
 17 32  1  0
 18 33  1  0
 18 34  1  0
 20 35  1  0
 20 36  1  0
M  ISO  8  21  14  22  14  23  14  24   8  25   8  26  14  27  14  28  14
M  ISO  8  29   3  30  13  31  13  32  13  33  13  34  13  35  13  36  13
M  END
>  <minimizedAffinity>  (1) 
-4.84399176

>  <minimizedRMSD>  (1) 
1.03713226

$$$$
