
     RDKit          3D

 40 43  0  0  0  0  0  0  0  0999 V2000
   45.3430   35.9430   43.5530 Cl  0  0  0  0  0  0  0  0  0  0  0  0
   44.9210   35.1230   42.0740 C   0  0  0  0  0  0  0  0  0  0  0  0
   45.8400   34.4450   41.3530 C   0  0  0  0  0  0  0  0  0  0  0  0
   45.4130   33.8340   40.1880 C   0  0  0  0  0  0  0  0  0  0  0  0
   44.1110   33.9030   39.7590 C   0  0  0  0  0  0  0  0  0  0  0  0
   43.1960   34.5870   40.4930 C   0  0  0  0  0  0  0  0  0  0  0  0
   43.6110   35.2000   41.6590 C   0  0  0  0  0  0  0  0  0  0  0  0
   46.2900   31.7390   39.1400 C   0  0  0  0  0  0  0  0  0  0  0  0
   46.3730   33.0750   39.3890 C   0  0  0  0  0  0  0  0  0  0  0  0
   47.4290   33.7930   38.8580 C   0  0  0  0  0  0  0  0  0  0  0  0
   48.3800   33.1630   38.0900 C   0  0  0  0  0  0  0  0  0  0  0  0
   48.3130   31.8020   37.8230 C   0  0  0  0  0  0  0  0  0  0  0  0
   47.2470   31.0890   38.3610 C   0  0  0  0  0  0  0  0  0  0  0  0
   45.0120   30.8160   39.7230 S   0  0  0  0  0  0  0  0  0  0  0  0
   43.6740   31.1930   39.1380 O   0  0  0  0  0  0  0  0  0  0  0  0
   45.2630   29.3910   39.1440 O   0  0  0  0  0  0  0  0  0  0  0  0
   44.7130   30.4150   41.3550 C   0  0  0  0  0  0  0  0  0  0  0  0
   46.0070   30.5510   42.2010 C   0  0  0  0  0  0  0  0  0  0  0  0
   44.8250   31.3240   42.5360 C   0  0  0  0  0  0  0  0  0  0  0  0
   49.4310   35.4010   42.0780 C   0  0  0  0  0  0  0  0  0  0  0  0
   48.1100   35.4500   41.6180 C   0  0  0  0  0  0  0  0  0  0  0  0
   47.2180   34.4030   41.8280 C   0  0  0  0  0  0  0  0  0  0  0  0
   47.7210   33.3610   42.4970 N   0  0  0  0  0  0  0  0  0  0  0  0
   48.9810   33.3040   42.9410 C   0  0  0  0  0  0  0  0  0  0  0  0
   49.8280   34.3150   42.7340 N   0  0  0  0  0  0  0  0  0  0  0  0
   43.8101   33.4064   38.8247 H   0  0  0  0  0  0  0  0  0  0  0  0
   42.1476   34.6514   40.1662 H   0  0  0  0  0  0  0  0  0  0  0  0
   42.8830   35.7586   42.2656 H   0  0  0  0  0  0  0  0  0  0  0  0
   47.5086   34.8730   39.0509 H   0  0  0  0  0  0  0  0  0  0  0  0
   49.2132   33.7509   37.6776 H   0  0  0  0  0  0  0  0  0  0  0  0
   49.0769   31.3048   37.2071 H   0  0  0  0  0  0  0  0  0  0  0  0
   47.1584   30.0091   38.1715 H   0  0  0  0  0  0  0  0  0  0  0  0
   43.9064   29.7223   41.0728 H   0  0  0  0  0  0  0  0  0  0  0  0
   46.3287   29.7254   42.8528 H   0  0  0  0  0  0  0  0  0  0  0  0
   47.0592   30.7882   41.9850 H   0  0  0  0  0  0  0  0  0  0  0  0
   44.8301   32.4129   42.3806 H   0  0  0  0  0  0  0  0  0  0  0  0
   44.2355   31.4435   43.4570 H   0  0  0  0  0  0  0  0  0  0  0  0
   50.1220   36.2385   41.9015 H   0  0  0  0  0  0  0  0  0  0  0  0
   47.7669   36.3426   41.0744 H   0  0  0  0  0  0  0  0  0  0  0  0
   49.3245   32.4115   43.4845 H   0  0  0  0  0  0  0  0  0  0  0  0
  2  1  1  0
  3 22  1  0
  3  2  2  0
  4  3  1  0
  5  4  2  0
  5  6  1  0
  6  7  2  0
  7  2  1  0
  8  9  1  0
  8 14  1  0
  9  4  1  0
 10  9  2  0
 11 10  1  0
 12 11  2  0
 12 13  1  0
 13  8  2  0
 14 17  1  0
 15 14  2  0
 16 14  2  0
 17 18  1  0
 17 19  1  0
 18 19  1  0
 20 25  2  0
 21 22  2  0
 21 20  1  0
 22 23  1  0
 23 24  2  0
 25 24  1  0
  5 26  1  0
  6 27  1  0
  7 28  1  0
 10 29  1  0
 11 30  1  0
 12 31  1  0
 13 32  1  0
 17 33  1  0
 18 34  1  0
 18 35  1  0
 19 36  1  0
 19 37  1  0
 20 38  1  0
 21 39  1  0
 24 40  1  0
M  ISO  8  26  14  27  14  28  14  29  14  30  14  31  14  32  14  33  13
M  ISO  7  34  13  35  13  36  13  37  13  38  14  39  14  40  14
M  END
>  <minimizedAffinity>  (1) 
-4.57359362

>  <minimizedRMSD>  (1) 
1.50068808

$$$$
