
     RDKit          3D

 26 28  0  0  0  0  0  0  0  0999 V2000
   47.5590   32.2230   44.3510 C   0  0  0  0  0  0  0  0  0  0  0  0
   46.9390   33.3610   43.8340 C   0  0  0  0  0  0  0  0  0  0  0  0
   45.9850   34.0940   44.5280 C   0  0  0  0  0  0  0  0  0  0  0  0
   45.6230   33.6740   45.8150 C   0  0  0  0  0  0  0  0  0  0  0  0
   44.7650   34.0880   46.7670 N   0  0  0  0  0  0  0  0  0  0  0  0
   44.8340   33.2590   47.8340 C   0  0  0  0  0  0  0  0  0  0  0  0
   45.7500   32.3250   47.5250 N   0  0  0  0  0  0  0  0  0  0  0  0
   46.2570   32.5350   46.3070 C   0  0  0  0  0  0  0  0  0  0  0  0
   47.2110   31.7930   45.6270 C   0  0  0  0  0  0  0  0  0  0  0  0
   46.9240   33.8190   40.1870 C   0  0  0  0  0  0  0  0  0  0  0  0
   47.9980   34.6760   39.9770 C   0  0  0  0  0  0  0  0  0  0  0  0
   48.7250   35.0930   41.0970 C   0  0  0  0  0  0  0  0  0  0  0  0
   48.3520   34.6440   42.3380 N   0  0  0  0  0  0  0  0  0  0  0  0
   47.3070   33.8160   42.5100 C   0  0  0  0  0  0  0  0  0  0  0  0
   46.6310   33.4320   41.4360 N   0  0  0  0  0  0  0  0  0  0  0  0
   45.2620   35.2730   44.0460 C   0  0  0  0  0  0  0  0  0  0  0  0
   44.7540   35.9720   45.1160 F   0  0  0  0  0  0  0  0  0  0  0  0
   45.9050   36.0660   43.1620 F   0  0  0  0  0  0  0  0  0  0  0  0
   44.1730   34.7440   43.2960 F   0  0  0  0  0  0  0  0  0  0  0  0
   48.3089   31.6762   43.7605 H   0  0  0  0  0  0  0  0  0  0  0  0
   44.1497   34.9108   46.6939 H   0  0  0  0  0  0  0  0  0  0  0  0
   44.2564   33.3342   48.7671 H   0  0  0  0  0  0  0  0  0  0  0  0
   47.6729   30.9022   46.0777 H   0  0  0  0  0  0  0  0  0  0  0  0
   46.3219   33.4628   39.3382 H   0  0  0  0  0  0  0  0  0  0  0  0
   48.2669   35.0145   38.9655 H   0  0  0  0  0  0  0  0  0  0  0  0
   49.5835   35.7713   40.9839 H   0  0  0  0  0  0  0  0  0  0  0  0
  1  9  2  0
  2  1  1  0
  2  3  2  0
  3  4  1  0
  4  8  2  0
  4  5  1  0
  5  6  1  0
  7  6  2  0
  8  7  1  0
  9  8  1  0
 10 15  2  0
 11 10  1  0
 11 12  2  0
 12 13  1  0
 13 14  2  0
 14  2  1  0
 15 14  1  0
 16  3  1  0
 16 17  1  0
 18 16  1  0
 19 16  1  0
  1 20  1  0
  5 21  1  0
  6 22  1  0
  9 23  1  0
 10 24  1  0
 11 25  1  0
 12 26  1  0
M  ISO  7  20  14  21   9  22  14  23  14  24  14  25  14  26  14
M  END
>  <minimizedAffinity>  (1) 
-5.50184679

>  <minimizedRMSD>  (1) 
2.02771473

$$$$
