
     RDKit          3D

 28 29  0  0  0  0  0  0  0  0999 V2000
   48.3800   33.0160   41.5050 C   0  0  0  0  0  0  0  0  0  0  0  0
   48.0390   34.3000   41.8620 C   0  0  0  0  0  0  0  0  0  0  0  0
   49.0010   35.1160   42.4060 C   0  0  0  0  0  0  0  0  0  0  0  0
   50.2880   34.6370   42.5850 C   0  0  0  0  0  0  0  0  0  0  0  0
   50.5980   33.3440   42.2160 C   0  0  0  0  0  0  0  0  0  0  0  0
   49.6340   32.4970   41.6610 C   0  0  0  0  0  0  0  0  0  0  0  0
   46.6300   34.6770   41.6200 C   0  0  0  0  0  0  0  0  0  0  0  0
   45.9330   34.9090   42.9490 C   0  0  0  0  0  0  0  0  0  0  0  0
   46.0000   33.8960   43.8950 C   0  0  0  0  0  0  0  0  0  0  0  0
   45.3670   34.1160   45.1090 C   0  0  0  0  0  0  0  0  0  0  0  0
   44.7310   35.2810   45.3050 N   0  0  0  0  0  0  0  0  0  0  0  0
   44.6820   36.2630   44.3490 C   0  0  0  0  0  0  0  0  0  0  0  0
   45.2850   36.0720   43.1720 N   0  0  0  0  0  0  0  0  0  0  0  0
   47.4800   32.0900   40.9380 O   0  0  0  0  0  0  0  0  0  0  0  0
   50.0400   31.2050   41.3170 O   0  0  0  0  0  0  0  0  0  0  0  0
   51.3890   30.8560   41.5520 C   0  0  0  0  0  0  0  0  0  0  0  0
   48.7499   36.1463   42.6984 H   0  0  0  0  0  0  0  0  0  0  0  0
   51.0618   35.2862   43.0206 H   0  0  0  0  0  0  0  0  0  0  0  0
   51.6232   32.9726   42.3613 H   0  0  0  0  0  0  0  0  0  0  0  0
   46.5947   35.5993   41.0215 H   0  0  0  0  0  0  0  0  0  0  0  0
   46.1219   33.8673   41.0758 H   0  0  0  0  0  0  0  0  0  0  0  0
   46.5338   32.9563   43.6901 H   0  0  0  0  0  0  0  0  0  0  0  0
   45.3860   33.3490   45.8973 H   0  0  0  0  0  0  0  0  0  0  0  0
   44.1486   37.2038   44.5502 H   0  0  0  0  0  0  0  0  0  0  0  0
   46.5388   32.3504   40.7756 H   0  0  0  0  0  0  0  0  0  0  0  0
   51.5721   30.8086   42.6356 H   0  0  0  0  0  0  0  0  0  0  0  0
   51.5976   29.8743   41.1017 H   0  0  0  0  0  0  0  0  0  0  0  0
   52.0475   31.6134   41.1017 H   0  0  0  0  0  0  0  0  0  0  0  0
  1  6  2  0
  1  2  1  0
  2  3  2  0
  3  4  1  0
  5  4  2  0
  6  5  1  0
  7  2  1  0
  7  8  1  0
  8 13  1  0
  8  9  2  0
  9 10  1  0
 10 11  2  0
 12 11  1  0
 13 12  2  0
 14  1  1  0
 15 16  1  0
 15  6  1  0
  3 17  1  0
  4 18  1  0
  5 19  1  0
  7 20  1  0
  7 21  1  0
  9 22  1  0
 10 23  1  0
 12 24  1  0
 14 25  1  0
 16 26  1  0
 16 27  1  0
 16 28  1  0
M  ISO  8  17  14  18  14  19  14  20   8  21   8  22  14  23  14  24  14
M  ISO  4  25   3  26   8  27   8  28   8
M  END
>  <minimizedAffinity>  (1) 
-4.67476654

>  <minimizedRMSD>  (1) 
0.0281759501

$$$$
