
     RDKit          3D

 26 28  0  0  0  0  0  0  0  0999 V2000
   47.4480   31.5990   44.8410 C   0  0  0  0  0  0  0  0  0  0  0  0
   46.7910   32.7870   44.5610 C   0  0  0  0  0  0  0  0  0  0  0  0
   45.9370   33.3840   45.4630 C   0  0  0  0  0  0  0  0  0  0  0  0
   45.6970   32.8140   46.7060 C   0  0  0  0  0  0  0  0  0  0  0  0
   44.9590   33.0990   47.7980 N   0  0  0  0  0  0  0  0  0  0  0  0
   45.1600   32.1070   48.7280 C   0  0  0  0  0  0  0  0  0  0  0  0
   46.0230   31.2240   48.1930 N   0  0  0  0  0  0  0  0  0  0  0  0
   46.3740   31.6240   46.9530 C   0  0  0  0  0  0  0  0  0  0  0  0
   47.2350   30.9960   46.0800 C   0  0  0  0  0  0  0  0  0  0  0  0
   46.3690   33.7980   41.0550 C   0  0  0  0  0  0  0  0  0  0  0  0
   47.4290   34.7120   40.8800 C   0  0  0  0  0  0  0  0  0  0  0  0
   48.2900   34.9770   41.9750 C   0  0  0  0  0  0  0  0  0  0  0  0
   48.0230   34.3130   43.1490 N   0  0  0  0  0  0  0  0  0  0  0  0
   46.9940   33.4420   43.2770 C   0  0  0  0  0  0  0  0  0  0  0  0
   46.1920   33.1990   42.2420 N   0  0  0  0  0  0  0  0  0  0  0  0
   45.2510   34.6490   45.1330 C   0  0  0  0  0  0  0  0  0  0  0  0
   48.1226   31.1420   44.1020 H   0  0  0  0  0  0  0  0  0  0  0  0
   44.3486   33.9203   47.9153 H   0  0  0  0  0  0  0  0  0  0  0  0
   44.7002   32.0462   49.7255 H   0  0  0  0  0  0  0  0  0  0  0  0
   47.7355   30.0545   46.3502 H   0  0  0  0  0  0  0  0  0  0  0  0
   45.6887   33.5768   40.2194 H   0  0  0  0  0  0  0  0  0  0  0  0
   47.5849   35.2101   39.9117 H   0  0  0  0  0  0  0  0  0  0  0  0
   49.1315   35.6803   41.8893 H   0  0  0  0  0  0  0  0  0  0  0  0
   44.9701   35.1669   46.0619 H   0  0  0  0  0  0  0  0  0  0  0  0
   45.9254   35.2894   44.5456 H   0  0  0  0  0  0  0  0  0  0  0  0
   44.3464   34.4331   44.5456 H   0  0  0  0  0  0  0  0  0  0  0  0
  1  9  2  0
  2  1  1  0
  2  3  2  0
  3  4  1  0
  4  8  2  0
  4  5  1  0
  5  6  1  0
  7  6  2  0
  8  7  1  0
  9  8  1  0
 10 15  2  0
 11 10  1  0
 11 12  2  0
 12 13  1  0
 13 14  2  0
 14  2  1  0
 15 14  1  0
 16  3  1  0
  1 17  1  0
  5 18  1  0
  6 19  1  0
  9 20  1  0
 10 21  1  0
 11 22  1  0
 12 23  1  0
 16 24  1  0
 16 25  1  0
 16 26  1  0
M  ISO  8  17  14  18   9  19  14  20  14  21  14  22  14  23  14  24   8
M  ISO  2  25   8  26   8
M  END
>  <minimizedAffinity>  (1) 
-4.94568014

>  <minimizedRMSD>  (1) 
0.993139684

$$$$
