
     RDKit          3D

 33 36  0  0  0  0  0  0  0  0999 V2000
   43.8390   34.5720   40.5260 C   0  0  0  0  0  0  0  0  0  0  0  0
   44.8360   33.9090   41.2060 C   0  0  0  0  0  0  0  0  0  0  0  0
   44.5720   32.7850   41.9630 C   0  0  0  0  0  0  0  0  0  0  0  0
   43.2870   32.2720   42.0740 C   0  0  0  0  0  0  0  0  0  0  0  0
   42.6860   31.2300   42.7060 N   0  0  0  0  0  0  0  0  0  0  0  0
   41.3570   31.2650   42.4130 C   0  0  0  0  0  0  0  0  0  0  0  0
   41.1480   32.3370   41.5970 N   0  0  0  0  0  0  0  0  0  0  0  0
   42.3220   32.9620   41.3820 C   0  0  0  0  0  0  0  0  0  0  0  0
   42.5340   34.0860   40.6140 C   0  0  0  0  0  0  0  0  0  0  0  0
   45.1850   33.7730   44.7880 Cl  0  0  0  0  0  0  0  0  0  0  0  0
   45.9780   32.4280   43.9960 C   0  0  0  0  0  0  0  0  0  0  0  0
   45.6190   32.0610   42.6980 C   0  0  0  0  0  0  0  0  0  0  0  0
   46.2900   30.9840   42.1310 C   0  0  0  0  0  0  0  0  0  0  0  0
   47.2790   30.2800   42.7950 C   0  0  0  0  0  0  0  0  0  0  0  0
   47.6220   30.6570   44.0750 C   0  0  0  0  0  0  0  0  0  0  0  0
   48.8820   29.7260   44.8610 Cl  0  0  0  0  0  0  0  0  0  0  0  0
   46.9640   31.7210   44.6480 C   0  0  0  0  0  0  0  0  0  0  0  0
   47.9860   35.5920   42.0840 C   0  0  0  0  0  0  0  0  0  0  0  0
   48.8050   35.2750   40.9900 C   0  0  0  0  0  0  0  0  0  0  0  0
   48.2700   34.4890   39.9640 C   0  0  0  0  0  0  0  0  0  0  0  0
   46.9690   34.0680   40.0820 N   0  0  0  0  0  0  0  0  0  0  0  0
   46.2080   34.3870   41.1400 C   0  0  0  0  0  0  0  0  0  0  0  0
   46.7120   35.1400   42.1300 N   0  0  0  0  0  0  0  0  0  0  0  0
   44.0664   35.4656   39.9263 H   0  0  0  0  0  0  0  0  0  0  0  0
   43.1548   30.5341   43.3034 H   0  0  0  0  0  0  0  0  0  0  0  0
   40.5927   30.5586   42.7690 H   0  0  0  0  0  0  0  0  0  0  0  0
   41.7044   34.5824   40.0891 H   0  0  0  0  0  0  0  0  0  0  0  0
   46.0229   30.6776   41.1088 H   0  0  0  0  0  0  0  0  0  0  0  0
   47.7836   29.4323   42.3084 H   0  0  0  0  0  0  0  0  0  0  0  0
   47.2372   32.0198   45.6708 H   0  0  0  0  0  0  0  0  0  0  0  0
   48.3803   36.2087   42.9051 H   0  0  0  0  0  0  0  0  0  0  0  0
   49.8429   35.6359   40.9402 H   0  0  0  0  0  0  0  0  0  0  0  0
   48.8752   34.2159   39.0870 H   0  0  0  0  0  0  0  0  0  0  0  0
  1  9  2  0
  1  2  1  0
  2  3  2  0
  3  4  1  0
  3 12  1  0
  4  5  1  0
  6  5  1  0
  7  6  2  0
  8  7  1  0
  8  4  2  0
  9  8  1  0
 11 17  2  0
 11 10  1  0
 12 11  1  0
 13 12  2  0
 13 14  1  0
 14 15  2  0
 15 17  1  0
 15 16  1  0
 18 23  2  0
 19 18  1  0
 20 21  1  0
 20 19  2  0
 21 22  2  0
 22  2  1  0
 22 23  1  0
  1 24  1  0
  5 25  1  0
  6 26  1  0
  9 27  1  0
 13 28  1  0
 14 29  1  0
 17 30  1  0
 18 31  1  0
 19 32  1  0
 20 33  1  0
M  ISO  8  24  14  25   9  26  14  27  14  28  14  29  14  30  14  31  14
M  ISO  2  32  14  33  14
M  END
>  <minimizedAffinity>  (1) 
-5.10230064

>  <minimizedRMSD>  (1) 
5.83485794

$$$$
