
     RDKit          3D

 27 28  0  0  0  0  0  0  0  0999 V2000
   48.3510   32.9790   41.6200 C   0  0  0  0  0  0  0  0  0  0  0  0
   47.9830   34.2610   41.9350 C   0  0  0  0  0  0  0  0  0  0  0  0
   48.9240   35.1530   42.4110 C   0  0  0  0  0  0  0  0  0  0  0  0
   50.2310   34.7350   42.5620 C   0  0  0  0  0  0  0  0  0  0  0  0
   50.5800   33.4420   42.2370 C   0  0  0  0  0  0  0  0  0  0  0  0
   49.6340   32.5280   41.7530 C   0  0  0  0  0  0  0  0  0  0  0  0
   46.5460   34.5710   41.7160 C   0  0  0  0  0  0  0  0  0  0  0  0
   45.8800   34.8360   43.0410 C   0  0  0  0  0  0  0  0  0  0  0  0
   45.9800   33.8550   44.0140 C   0  0  0  0  0  0  0  0  0  0  0  0
   45.3740   34.0920   45.2450 C   0  0  0  0  0  0  0  0  0  0  0  0
   44.7230   35.2700   45.4140 N   0  0  0  0  0  0  0  0  0  0  0  0
   44.6460   36.2050   44.4410 C   0  0  0  0  0  0  0  0  0  0  0  0
   45.2200   35.9950   43.2560 N   0  0  0  0  0  0  0  0  0  0  0  0
   47.4850   32.0030   41.1340 O   0  0  0  0  0  0  0  0  0  0  0  0
   50.1030   31.2480   41.4550 O   0  0  0  0  0  0  0  0  0  0  0  0
   51.3490   30.7800   41.8660 C   0  0  0  0  0  0  0  0  0  0  0  0
   52.2320   30.5380   40.9810 O   0  0  0  0  0  0  0  0  0  0  0  0
   48.6357   36.1833   42.6665 H   0  0  0  0  0  0  0  0  0  0  0  0
   50.9924   35.4326   42.9410 H   0  0  0  0  0  0  0  0  0  0  0  0
   51.6246   33.1200   42.3602 H   0  0  0  0  0  0  0  0  0  0  0  0
   46.4567   35.4615   41.0765 H   0  0  0  0  0  0  0  0  0  0  0  0
   46.0578   33.7159   41.2256 H   0  0  0  0  0  0  0  0  0  0  0  0
   46.5216   32.9174   43.8200 H   0  0  0  0  0  0  0  0  0  0  0  0
   45.4216   33.3482   46.0540 H   0  0  0  0  0  0  0  0  0  0  0  0
   44.1064   37.1451   44.6279 H   0  0  0  0  0  0  0  0  0  0  0  0
   46.5278   32.2148   40.9962 H   0  0  0  0  0  0  0  0  0  0  0  0
   51.5656   30.6228   42.9329 H   0  0  0  0  0  0  0  0  0  0  0  0
  1  6  2  0
  1  2  1  0
  2  3  2  0
  3  4  1  0
  5  4  2  0
  6  5  1  0
  7  2  1  0
  7  8  1  0
  8 13  1  0
  8  9  2  0
  9 10  1  0
 10 11  2  0
 12 11  1  0
 13 12  2  0
 14  1  1  0
 15  6  1  0
 15 16  1  0
 17 16  2  0
  3 18  1  0
  4 19  1  0
  5 20  1  0
  7 21  1  0
  7 22  1  0
  9 23  1  0
 10 24  1  0
 12 25  1  0
 14 26  1  0
 16 27  1  0
M  ISO  8  18  14  19  14  20  14  21   8  22   8  23  14  24  14  25  14
M  ISO  2  26   3  27   6
M  END
>  <minimizedAffinity>  (1) 
-4.53299999

>  <minimizedRMSD>  (1) 
0.663620532

$$$$
