
     RDKit          3D

 37 40  0  0  1  0  0  0  0  0999 V2000
   47.5370   32.6760   44.2720 C   0  0  0  0  0  0  0  0  0  0  0  0
   46.8380   33.6500   43.5570 C   0  0  0  0  0  0  0  0  0  0  0  0
   45.7810   34.3680   44.0950 C   0  0  0  0  0  0  0  0  0  0  0  0
   45.3910   34.1140   45.4160 C   0  0  0  0  0  0  0  0  0  0  0  0
   44.4470   34.5890   46.2480 N   0  0  0  0  0  0  0  0  0  0  0  0
   44.5230   33.9640   47.4370 C   0  0  0  0  0  0  0  0  0  0  0  0
   45.5360   33.0920   47.3210 N   0  0  0  0  0  0  0  0  0  0  0  0
   46.0920   33.1550   46.0990 C   0  0  0  0  0  0  0  0  0  0  0  0
   47.1520   32.4190   45.5900 C   0  0  0  0  0  0  0  0  0  0  0  0
   47.0590   33.4310   39.9060 C   0  0  0  0  0  0  0  0  0  0  0  0
   47.9750   34.4410   39.5860 C   0  0  0  0  0  0  0  0  0  0  0  0
   48.5050   35.1850   40.6380 C   0  0  0  0  0  0  0  0  0  0  0  0
   48.1180   34.9090   41.9270 N   0  0  0  0  0  0  0  0  0  0  0  0
   47.2320   33.9240   42.1780 C   0  0  0  0  0  0  0  0  0  0  0  0
   46.6870   33.1690   41.1850 N   0  0  0  0  0  0  0  0  0  0  0  0
   44.9130   35.6050   43.1680 S   0  0  0  0  0  0  0  0  0  0  0  0
   42.3260   35.6120   42.6980 N   0  0  0  0  0  0  0  0  0  0  0  0
   43.5190   34.9460   42.2180 C   0  0  1  0  0  0  0  0  0  0  0  0
   43.8030   35.2940   40.7530 C   0  0  0  0  0  0  0  0  0  0  0  0
   42.6840   35.2810   39.9620 O   0  0  0  0  0  0  0  0  0  0  0  0
   41.5440   34.7710   40.5270 C   0  0  0  0  0  0  0  0  0  0  0  0
   41.2220   35.5370   41.7860 C   0  0  0  0  0  0  0  0  0  0  0  0
   48.3693   32.1252   43.8096 H   0  0  0  0  0  0  0  0  0  0  0  0
   43.7656   35.3237   46.0098 H   0  0  0  0  0  0  0  0  0  0  0  0
   43.8879   34.1326   48.3191 H   0  0  0  0  0  0  0  0  0  0  0  0
   47.6687   31.6633   46.1998 H   0  0  0  0  0  0  0  0  0  0  0  0
   46.6262   32.8294   39.0931 H   0  0  0  0  0  0  0  0  0  0  0  0
   48.2650   34.6393   38.5436 H   0  0  0  0  0  0  0  0  0  0  0  0
   49.2290   35.9886   40.4377 H   0  0  0  0  0  0  0  0  0  0  0  0
   42.0443   35.1752   43.5873 H   0  0  0  0  0  0  0  0  0  0  0  0
   43.3833   33.8593   42.3215 H   0  0  0  0  0  0  0  0  0  0  0  0
   44.2458   36.3002   40.7135 H   0  0  0  0  0  0  0  0  0  0  0  0
   44.4842   34.5233   40.3632 H   0  0  0  0  0  0  0  0  0  0  0  0
   40.7091   34.8646   39.8170 H   0  0  0  0  0  0  0  0  0  0  0  0
   41.6988   33.7099   40.7723 H   0  0  0  0  0  0  0  0  0  0  0  0
   40.9280   36.5598   41.5077 H   0  0  0  0  0  0  0  0  0  0  0  0
   40.4103   34.9993   42.2979 H   0  0  0  0  0  0  0  0  0  0  0  0
  1  9  2  0
  2  3  2  0
  2  1  1  0
  3  4  1  0
  4  8  2  0
  4  5  1  0
  5  6  1  0
  7  6  2  0
  8  7  1  0
  9  8  1  0
 10 15  2  0
 11 10  1  0
 11 12  2  0
 12 13  1  0
 13 14  2  0
 14  2  1  0
 15 14  1  0
 16  3  1  0
 18 17  1  0
 18 16  1  0
 19 18  1  0
 20 21  1  0
 20 19  1  0
 21 22  1  0
 22 17  1  0
  1 23  1  0
  5 24  1  0
  6 25  1  0
  9 26  1  0
 10 27  1  0
 11 28  1  0
 12 29  1  0
 17 30  1  0
 18 31  1  6
 19 32  1  0
 19 33  1  0
 21 34  1  0
 21 35  1  0
 22 36  1  0
 22 37  1  0
M  ISO  8  23  14  24   9  25  14  26  14  27  14  28  14  29  14  30   5
M  ISO  7  31  13  32  13  33  13  34  13  35  13  36  13  37  13
M  END
>  <minimizedAffinity>  (1) 
-5.8241024

>  <minimizedRMSD>  (1) 
1.71776676

$$$$
