
     RDKit          3D

 39 42  0  0  1  0  0  0  0  0999 V2000
   47.5200   32.6780   44.1820 C   0  0  0  0  0  0  0  0  0  0  0  0
   46.8030   33.6130   43.4430 C   0  0  0  0  0  0  0  0  0  0  0  0
   45.7510   34.3430   43.9700 C   0  0  0  0  0  0  0  0  0  0  0  0
   45.3760   34.1410   45.3100 C   0  0  0  0  0  0  0  0  0  0  0  0
   44.4430   34.6430   46.1380 N   0  0  0  0  0  0  0  0  0  0  0  0
   44.5450   34.0660   47.3500 C   0  0  0  0  0  0  0  0  0  0  0  0
   45.5590   33.1990   47.2500 N   0  0  0  0  0  0  0  0  0  0  0  0
   46.0990   33.2120   46.0150 C   0  0  0  0  0  0  0  0  0  0  0  0
   47.1550   32.4680   45.5160 C   0  0  0  0  0  0  0  0  0  0  0  0
   46.9560   33.2910   39.8010 C   0  0  0  0  0  0  0  0  0  0  0  0
   47.8700   34.2770   39.4310 C   0  0  0  0  0  0  0  0  0  0  0  0
   48.4250   35.0430   40.4390 C   0  0  0  0  0  0  0  0  0  0  0  0
   48.0670   34.8170   41.7480 N   0  0  0  0  0  0  0  0  0  0  0  0
   47.1730   33.8430   42.0480 C   0  0  0  0  0  0  0  0  0  0  0  0
   46.5940   33.0570   41.1000 N   0  0  0  0  0  0  0  0  0  0  0  0
   44.8480   35.5310   43.0190 S   0  0  0  0  0  0  0  0  0  0  0  0
   42.2800   35.2510   42.5320 N   0  0  0  0  0  0  0  0  0  0  0  0
   43.5490   34.8130   41.9880 C   0  0  1  0  0  0  0  0  0  0  0  0
   43.7690   35.3760   40.5840 C   0  0  0  0  0  0  0  0  0  0  0  0
   42.6460   35.3070   39.7820 O   0  0  0  0  0  0  0  0  0  0  0  0
   41.6050   34.5700   40.2900 C   0  0  0  0  0  0  0  0  0  0  0  0
   41.1950   35.1760   41.6170 C   0  0  1  0  0  0  0  0  0  0  0  0
   40.0130   34.5190   42.1600 N   0  0  0  0  0  0  0  0  0  0  0  0
   48.3520   32.1185   43.7295 H   0  0  0  0  0  0  0  0  0  0  0  0
   43.7521   35.3629   45.8826 H   0  0  0  0  0  0  0  0  0  0  0  0
   43.9249   34.2655   48.2364 H   0  0  0  0  0  0  0  0  0  0  0  0
   47.6869   31.7391   46.1451 H   0  0  0  0  0  0  0  0  0  0  0  0
   46.5046   32.6721   39.0116 H   0  0  0  0  0  0  0  0  0  0  0  0
   48.1392   34.4391   38.3768 H   0  0  0  0  0  0  0  0  0  0  0  0
   49.1517   35.8319   40.1949 H   0  0  0  0  0  0  0  0  0  0  0  0
   42.0569   34.6608   43.3461 H   0  0  0  0  0  0  0  0  0  0  0  0
   43.5628   33.7135   41.9596 H   0  0  0  0  0  0  0  0  0  0  0  0
   44.0684   36.4306   40.6744 H   0  0  0  0  0  0  0  0  0  0  0  0
   44.5467   34.7619   40.1065 H   0  0  0  0  0  0  0  0  0  0  0  0
   40.7557   34.5954   39.5914 H   0  0  0  0  0  0  0  0  0  0  0  0
   41.9149   33.5240   40.4310 H   0  0  0  0  0  0  0  0  0  0  0  0
   40.9033   36.2205   41.4329 H   0  0  0  0  0  0  0  0  0  0  0  0
   40.0508   34.5400   43.1891 H   0  0  0  0  0  0  0  0  0  0  0  0
   39.1678   35.0114   41.8374 H   0  0  0  0  0  0  0  0  0  0  0  0
  1  9  2  0
  2  3  2  0
  2  1  1  0
  3  4  1  0
  4  8  2  0
  4  5  1  0
  5  6  1  0
  7  6  2  0
  8  7  1  0
  9  8  1  0
 10 15  2  0
 11 10  1  0
 11 12  2  0
 12 13  1  0
 13 14  2  0
 14  2  1  0
 15 14  1  0
 16  3  1  0
 18 17  1  0
 18 16  1  0
 19 18  1  0
 20 21  1  0
 20 19  1  0
 21 22  1  0
 22 23  1  0
 22 17  1  0
  1 24  1  0
  5 25  1  0
  6 26  1  0
  9 27  1  0
 10 28  1  0
 11 29  1  0
 12 30  1  0
 17 31  1  0
 18 32  1  6
 19 33  1  0
 19 34  1  0
 21 35  1  0
 21 36  1  0
 22 37  1  6
 23 38  1  0
 23 39  1  0
M  ISO  8  24  14  25   9  26  14  27  14  28  14  29  14  30  14  31   5
M  ISO  8  32  13  33  13  34  13  35  13  36  13  37  13  38   5  39   5
M  END
>  <minimizedAffinity>  (1) 
-5.92371225

>  <minimizedRMSD>  (1) 
0.249445587

$$$$
