
     RDKit          3D

 18 19  0  0  0  0  0  0  0  0999 V2000
   44.5480   35.7920   44.6660 C   0  0  0  0  0  0  0  0  0  0  0  0
   45.2600   35.5520   43.4620 C   0  0  0  0  0  0  0  0  0  0  0  0
   46.1450   34.4570   43.4210 C   0  0  0  0  0  0  0  0  0  0  0  0
   46.2680   33.6780   44.5550 N   0  0  0  0  0  0  0  0  0  0  0  0
   45.5610   33.9580   45.6710 C   0  0  0  0  0  0  0  0  0  0  0  0
   44.7020   35.0060   45.7410 N   0  0  0  0  0  0  0  0  0  0  0  0
   45.8520   33.0010   46.7390 C   0  0  0  0  0  0  0  0  0  0  0  0
   45.0810   32.8380   47.9140 C   0  0  0  0  0  0  0  0  0  0  0  0
   45.4770   31.9060   48.8180 C   0  0  0  0  0  0  0  0  0  0  0  0
   46.6290   31.1380   48.5610 C   0  0  0  0  0  0  0  0  0  0  0  0
   47.1870   31.7730   46.9460 S   0  0  0  0  0  0  0  0  0  0  0  0
   47.2630   30.1870   49.2070 O   0  0  0  0  0  0  0  0  0  0  0  0
   43.8532   36.6432   44.7184 H   0  0  0  0  0  0  0  0  0  0  0  0
   45.1245   36.2028   42.5856 H   0  0  0  0  0  0  0  0  0  0  0  0
   46.7214   34.2289   42.5123 H   0  0  0  0  0  0  0  0  0  0  0  0
   44.1844   33.4503   48.0903 H   0  0  0  0  0  0  0  0  0  0  0  0
   44.9028   31.7520   49.7435 H   0  0  0  0  0  0  0  0  0  0  0  0
   48.0784   29.7827   48.8175 H   0  0  0  0  0  0  0  0  0  0  0  0
  1  6  2  0
  2  1  1  0
  3  2  2  0
  3  4  1  0
  4  5  2  0
  5  6  1  0
  5  7  1  0
  7 11  1  0
  7  8  2  0
  8  9  1  0
 10  9  2  0
 10 12  1  0
 11 10  1  0
  1 13  1  0
  2 14  1  0
  3 15  1  0
  8 16  1  0
  9 17  1  0
 12 18  1  0
M  ISO  6  13  14  14  14  15  14  16  14  17  14  18   3
M  END
>  <minimizedAffinity>  (1) 
-4.61775732

>  <minimizedRMSD>  (1) 
0.101697348

$$$$
