
     RDKit          3D

 18 19  0  0  0  0  0  0  0  0999 V2000
   44.4960   36.0650   44.5750 C   0  0  0  0  0  0  0  0  0  0  0  0
   45.0960   36.1530   43.2910 C   0  0  0  0  0  0  0  0  0  0  0  0
   46.0020   35.1440   42.9170 C   0  0  0  0  0  0  0  0  0  0  0  0
   46.2470   34.1410   43.8170 N   0  0  0  0  0  0  0  0  0  0  0  0
   45.6450   34.1120   45.0260 C   0  0  0  0  0  0  0  0  0  0  0  0
   44.7670   35.0740   45.4110 N   0  0  0  0  0  0  0  0  0  0  0  0
   46.0680   32.9420   45.8060 C   0  0  0  0  0  0  0  0  0  0  0  0
   45.7320   32.7310   47.1650 C   0  0  0  0  0  0  0  0  0  0  0  0
   46.1850   31.6100   47.7690 C   0  0  0  0  0  0  0  0  0  0  0  0
   46.9760   30.6880   47.0320 C   0  0  0  0  0  0  0  0  0  0  0  0
   47.0700   31.4800   45.3840 S   0  0  0  0  0  0  0  0  0  0  0  0
   47.7150   29.1520   47.5140 S   0  0  0  0  0  0  0  0  0  0  0  0
   43.7840   36.8441   44.8850 H   0  0  0  0  0  0  0  0  0  0  0  0
   44.8597   36.9841   42.6102 H   0  0  0  0  0  0  0  0  0  0  0  0
   46.4970   35.1600   41.9348 H   0  0  0  0  0  0  0  0  0  0  0  0
   45.1186   33.4600   47.7147 H   0  0  0  0  0  0  0  0  0  0  0  0
   45.9430   31.4128   48.8238 H   0  0  0  0  0  0  0  0  0  0  0  0
   47.7531   29.0727   48.8812 H   0  0  0  0  0  0  0  0  0  0  0  0
  1  6  2  0
  2  1  1  0
  3  2  2  0
  3  4  1  0
  4  5  2  0
  5  6  1  0
  5  7  1  0
  7  8  2  0
  8  9  1  0
 10 12  1  0
 10  9  2  0
 11  7  1  0
 11 10  1  0
  1 13  1  0
  2 14  1  0
  3 15  1  0
  8 16  1  0
  9 17  1  0
 12 18  1  0
M  ISO  6  13  14  14  14  15  14  16  14  17  14  18  11
M  END
>  <minimizedAffinity>  (1) 
-3.99172735

>  <minimizedRMSD>  (1) 
1.09624684

$$$$
