
     RDKit          3D

 20 21  0  0  0  0  0  0  0  0999 V2000
   44.4580   36.0640   44.3880 C   0  0  0  0  0  0  0  0  0  0  0  0
   45.1560   35.8610   43.1660 C   0  0  0  0  0  0  0  0  0  0  0  0
   46.0630   34.7990   43.0810 C   0  0  0  0  0  0  0  0  0  0  0  0
   46.2160   34.0200   44.1920 N   0  0  0  0  0  0  0  0  0  0  0  0
   45.5310   34.2520   45.3330 C   0  0  0  0  0  0  0  0  0  0  0  0
   44.6450   35.2750   45.4420 N   0  0  0  0  0  0  0  0  0  0  0  0
   45.8670   33.2840   46.3810 C   0  0  0  0  0  0  0  0  0  0  0  0
   45.1440   33.1290   47.5930 C   0  0  0  0  0  0  0  0  0  0  0  0
   45.5560   32.2070   48.4720 C   0  0  0  0  0  0  0  0  0  0  0  0
   46.6900   31.4180   48.1760 C   0  0  0  0  0  0  0  0  0  0  0  0
   47.1770   32.0550   46.5320 S   0  0  0  0  0  0  0  0  0  0  0  0
   47.3650   30.3410   48.9510 C   0  0  0  0  0  0  0  0  0  0  0  0
   43.7434   36.8969   44.4636 H   0  0  0  0  0  0  0  0  0  0  0  0
   44.9865   36.5249   42.3055 H   0  0  0  0  0  0  0  0  0  0  0  0
   46.6286   34.6001   42.1587 H   0  0  0  0  0  0  0  0  0  0  0  0
   44.2637   33.7534   47.8054 H   0  0  0  0  0  0  0  0  0  0  0  0
   45.0148   32.0646   49.4190 H   0  0  0  0  0  0  0  0  0  0  0  0
   47.2445   30.5332   50.0274 H   0  0  0  0  0  0  0  0  0  0  0  0
   46.9136   29.3700   48.6991 H   0  0  0  0  0  0  0  0  0  0  0  0
   48.4356   30.3240   48.6991 H   0  0  0  0  0  0  0  0  0  0  0  0
  1  6  2  0
  2  1  1  0
  3  2  2  0
  3  4  1  0
  4  5  2  0
  5  6  1  0
  5  7  1  0
  7 11  1  0
  7  8  2  0
  8  9  1  0
 10  9  2  0
 10 12  1  0
 11 10  1  0
  1 13  1  0
  2 14  1  0
  3 15  1  0
  8 16  1  0
  9 17  1  0
 12 18  1  0
 12 19  1  0
 12 20  1  0
M  ISO  8  13  14  14  14  15  14  16  14  17  14  18   8  19   8  20   8
M  END
>  <minimizedAffinity>  (1) 
-4.01241112

>  <minimizedRMSD>  (1) 
0.488657206

$$$$
