
     RDKit          3D

 29 31  0  0  0  0  0  0  0  0999 V2000
   45.8840   33.1160   46.2690 C   0  0  0  0  0  0  0  0  0  0  0  0
   45.3690   32.9630   47.5740 C   0  0  0  0  0  0  0  0  0  0  0  0
   45.9200   32.1190   48.4420 C   0  0  0  0  0  0  0  0  0  0  0  0
   47.0360   31.3850   48.0110 C   0  0  0  0  0  0  0  0  0  0  0  0
   47.2660   31.9600   46.2920 S   0  0  0  0  0  0  0  0  0  0  0  0
   44.2930   35.9350   44.4270 C   0  0  0  0  0  0  0  0  0  0  0  0
   44.3340   35.3990   43.1220 C   0  0  0  0  0  0  0  0  0  0  0  0
   44.8950   34.1200   42.9340 C   0  0  0  0  0  0  0  0  0  0  0  0
   45.3750   33.4590   44.0310 N   0  0  0  0  0  0  0  0  0  0  0  0
   45.3070   34.0320   45.2770 C   0  0  0  0  0  0  0  0  0  0  0  0
   44.7690   35.2620   45.4720 N   0  0  0  0  0  0  0  0  0  0  0  0
   48.0130   30.3500   48.5140 N   0  0  0  0  0  0  0  0  0  0  0  0
   48.2820   29.0390   47.9600 C   0  0  0  0  0  0  0  0  0  0  0  0
   49.8150   29.1140   48.0110 C   0  0  0  0  0  0  0  0  0  0  0  0
   50.0020   29.5470   49.4690 C   0  0  0  0  0  0  0  0  0  0  0  0
   48.8540   30.5490   49.6740 C   0  0  0  0  0  0  0  0  0  0  0  0
   44.4933   33.5543   47.8799 H   0  0  0  0  0  0  0  0  0  0  0  0
   45.5165   32.0008   49.4585 H   0  0  0  0  0  0  0  0  0  0  0  0
   43.8573   36.9327   44.5842 H   0  0  0  0  0  0  0  0  0  0  0  0
   43.9361   35.9681   42.2689 H   0  0  0  0  0  0  0  0  0  0  0  0
   44.9454   33.6661   41.9333 H   0  0  0  0  0  0  0  0  0  0  0  0
   47.9014   28.9315   46.9335 H   0  0  0  0  0  0  0  0  0  0  0  0
   47.8171   28.1858   48.4756 H   0  0  0  0  0  0  0  0  0  0  0  0
   50.2800   28.1374   47.8107 H   0  0  0  0  0  0  0  0  0  0  0  0
   50.2752   29.7776   47.2641 H   0  0  0  0  0  0  0  0  0  0  0  0
   49.9075   28.6903   50.1524 H   0  0  0  0  0  0  0  0  0  0  0  0
   50.9952   29.9733   49.6738 H   0  0  0  0  0  0  0  0  0  0  0  0
   49.2352   31.5802   49.7097 H   0  0  0  0  0  0  0  0  0  0  0  0
   48.3169   30.3935   50.6213 H   0  0  0  0  0  0  0  0  0  0  0  0
  1  5  1  0
  1  2  2  0
  2  3  1  0
  4  3  2  0
  4 12  1  0
  5  4  1  0
  6 11  2  0
  7  6  1  0
  8  7  2  0
  8  9  1  0
  9 10  2  0
 10 11  1  0
 10  1  1  0
 12 16  1  0
 13 14  1  0
 13 12  1  0
 14 15  1  0
 15 16  1  0
  2 17  1  0
  3 18  1  0
  6 19  1  0
  7 20  1  0
  8 21  1  0
 13 22  1  0
 13 23  1  0
 14 24  1  0
 14 25  1  0
 15 26  1  0
 15 27  1  0
 16 28  1  0
 16 29  1  0
M  ISO  8  17  14  18  14  19  14  20  14  21  14  22  13  23  13  24  13
M  ISO  5  25  13  26  13  27  13  28  13  29  13
M  END
>  <minimizedAffinity>  (1) 
-4.3922801

>  <minimizedRMSD>  (1) 
0.952128947

$$$$
