
     RDKit          3D

 45 48  0  0  1  0  0  0  0  0999 V2000
   49.1950   28.8700   48.3620 C   0  0  1  0  0  0  0  0  0  0  0  0
   49.4020   28.0800   47.1180 C   0  0  0  0  0  0  0  0  0  0  0  0
   50.8060   27.5670   46.9420 C   0  0  0  0  0  0  0  0  0  0  0  0
   51.3880   26.9960   48.2070 C   0  0  0  0  0  0  0  0  0  0  0  0
   51.1290   27.8650   49.3960 C   0  0  0  0  0  0  0  0  0  0  0  0
   50.5740   29.2400   48.9570 C   0  0  2  0  0  0  0  0  0  0  0  0
   46.9850   32.0470   47.0190 C   0  0  0  0  0  0  0  0  0  0  0  0
   47.0480   31.9810   48.4060 C   0  0  0  0  0  0  0  0  0  0  0  0
   47.7360   30.9860   48.9540 C   0  0  0  0  0  0  0  0  0  0  0  0
   48.3840   30.0290   48.1490 C   0  0  0  0  0  0  0  0  0  0  0  0
   47.9720   30.5900   46.4680 S   0  0  0  0  0  0  0  0  0  0  0  0
   44.7210   34.7650   45.8510 C   0  0  0  0  0  0  0  0  0  0  0  0
   45.1500   34.9080   44.5300 C   0  0  0  0  0  0  0  0  0  0  0  0
   46.1920   34.0790   44.1030 C   0  0  0  0  0  0  0  0  0  0  0  0
   46.7330   33.1790   44.9870 N   0  0  0  0  0  0  0  0  0  0  0  0
   46.2820   33.0850   46.2440 C   0  0  0  0  0  0  0  0  0  0  0  0
   45.2740   33.8830   46.6670 N   0  0  0  0  0  0  0  0  0  0  0  0
   50.4260   30.0930   50.1190 C   0  0  0  0  0  0  0  0  0  0  0  0
   49.8020   29.7200   51.1190 O   0  0  0  0  0  0  0  0  0  0  0  0
   50.7550   31.3690   50.6620 C   0  0  0  0  0  0  0  0  0  0  0  0
   51.1590   31.7380   51.9280 C   0  0  0  0  0  0  0  0  0  0  0  0
   51.6350   32.8760   52.4930 C   0  0  0  0  0  0  0  0  0  0  0  0
   51.7270   33.8760   51.5800 C   0  0  0  0  0  0  0  0  0  0  0  0
   51.3900   33.7890   50.2530 C   0  0  0  0  0  0  0  0  0  0  0  0
   50.9250   32.5450   49.8720 C   0  0  0  0  0  0  0  0  0  0  0  0
   48.6398   28.2492   49.0806 H   0  0  0  0  0  0  0  0  0  0  0  0
   48.7193   27.2178   47.1388 H   0  0  0  0  0  0  0  0  0  0  0  0
   49.2043   28.7584   46.2750 H   0  0  0  0  0  0  0  0  0  0  0  0
   50.7975   26.7797   46.1739 H   0  0  0  0  0  0  0  0  0  0  0  0
   51.4334   28.4215   46.6484 H   0  0  0  0  0  0  0  0  0  0  0  0
   50.9400   26.0077   48.3874 H   0  0  0  0  0  0  0  0  0  0  0  0
   52.4776   26.9261   48.0734 H   0  0  0  0  0  0  0  0  0  0  0  0
   50.3956   27.3718   50.0509 H   0  0  0  0  0  0  0  0  0  0  0  0
   52.0761   28.0209   49.9334 H   0  0  0  0  0  0  0  0  0  0  0  0
   51.2152   29.7852   48.2488 H   0  0  0  0  0  0  0  0  0  0  0  0
   46.5425   32.7313   49.0317 H   0  0  0  0  0  0  0  0  0  0  0  0
   47.8005   30.9084   50.0494 H   0  0  0  0  0  0  0  0  0  0  0  0
   43.9037   35.4010   46.2219 H   0  0  0  0  0  0  0  0  0  0  0  0
   44.6877   35.6420   43.8536 H   0  0  0  0  0  0  0  0  0  0  0  0
   46.5728   34.1471   43.0733 H   0  0  0  0  0  0  0  0  0  0  0  0
   51.0754   30.9138   52.6517 H   0  0  0  0  0  0  0  0  0  0  0  0
   51.9106   32.9753   53.5533 H   0  0  0  0  0  0  0  0  0  0  0  0
   52.1065   34.8449   51.9367 H   0  0  0  0  0  0  0  0  0  0  0  0
   51.4818   34.6340   49.5548 H   0  0  0  0  0  0  0  0  0  0  0  0
   50.6472   32.4476   48.8121 H   0  0  0  0  0  0  0  0  0  0  0  0
  1  6  1  0
  2  1  1  0
  3  2  1  0
  3  4  1  0
  4  5  1  0
  6  5  1  0
  6 18  1  0
  7  8  2  0
  8  9  1  0
 10  1  1  0
 10  9  2  0
 11  7  1  0
 11 10  1  0
 12 17  2  0
 13 12  1  0
 14 13  2  0
 14 15  1  0
 15 16  2  0
 16 17  1  0
 16  7  1  0
 18 20  1  0
 18 19  2  0
 20 21  2  0
 21 22  1  0
 23 22  2  0
 24 23  1  0
 25 24  2  0
 25 20  1  0
  1 26  1  1
  2 27  1  0
  2 28  1  0
  3 29  1  0
  3 30  1  0
  4 31  1  0
  4 32  1  0
  5 33  1  0
  5 34  1  0
  6 35  1  6
  8 36  1  0
  9 37  1  0
 12 38  1  0
 13 39  1  0
 14 40  1  0
 21 41  1  0
 22 42  1  0
 23 43  1  0
 24 44  1  0
 25 45  1  0
M  ISO  8  26  13  27  13  28  13  29  13  30  13  31  13  32  13  33  13
M  ISO  8  34  13  35  13  36  14  37  14  38  14  39  14  40  14  41  14
M  ISO  4  42  14  43  14  44  14  45  14
M  END
>  <minimizedAffinity>  (1) 
-5.43950272

>  <minimizedRMSD>  (1) 
2.61797547

$$$$
