
     RDKit          3D

 20 21  0  0  0  0  0  0  0  0999 V2000
   45.4250   34.0200   44.7390 C   0  0  0  0  0  0  0  0  0  0  0  0
   45.7430   34.8490   43.6140 C   0  0  0  0  0  0  0  0  0  0  0  0
   46.9210   34.5010   42.9830 C   0  0  0  0  0  0  0  0  0  0  0  0
   47.7060   33.4450   43.4100 N   0  0  0  0  0  0  0  0  0  0  0  0
   47.3460   32.6980   44.4820 C   0  0  0  0  0  0  0  0  0  0  0  0
   46.2100   32.9950   45.1330 N   0  0  0  0  0  0  0  0  0  0  0  0
   47.2790   35.2540   41.7310 C   0  0  0  0  0  0  0  0  0  0  0  0
   48.7750   35.6060   41.7120 C   0  0  0  0  0  0  0  0  0  0  0  0
   48.0880   34.5980   40.7440 C   0  0  0  0  0  0  0  0  0  0  0  0
   44.8300   35.9280   43.2560 C   0  0  0  0  0  0  0  0  0  0  0  0
   44.2650   35.7120   42.0140 F   0  0  0  0  0  0  0  0  0  0  0  0
   45.4290   37.1660   43.3380 F   0  0  0  0  0  0  0  0  0  0  0  0
   43.7780   35.9490   44.1530 F   0  0  0  0  0  0  0  0  0  0  0  0
   44.5043   34.2273   45.3041 H   0  0  0  0  0  0  0  0  0  0  0  0
   47.9760   31.8597   44.8142 H   0  0  0  0  0  0  0  0  0  0  0  0
   46.3234   35.7900   41.6338 H   0  0  0  0  0  0  0  0  0  0  0  0
   49.1176   36.5874   41.3521 H   0  0  0  0  0  0  0  0  0  0  0  0
   49.6135   35.5940   42.4238 H   0  0  0  0  0  0  0  0  0  0  0  0
   47.9690   34.8569   39.6815 H   0  0  0  0  0  0  0  0  0  0  0  0
   48.2691   33.5470   40.4745 H   0  0  0  0  0  0  0  0  0  0  0  0
  1  6  2  0
  2  1  1  0
  3  4  1  0
  3  2  2  0
  4  5  2  0
  5  6  1  0
  7  3  1  0
  8  7  1  0
  9  8  1  0
  9  7  1  0
 10 12  1  0
 10  2  1  0
 10 13  1  0
 11 10  1  0
  1 14  1  0
  5 15  1  0
  7 16  1  0
  8 17  1  0
  8 18  1  0
  9 19  1  0
  9 20  1  0
M  ISO  7  14  14  15  14  16  13  17  13  18  13  19  13  20  13
M  END
>  <minimizedAffinity>  (1) 
-4.58436298

>  <minimizedRMSD>  (1) 
1.63859081

$$$$
