
     RDKit          3D

 31 33  0  0  0  0  0  0  0  0999 V2000
   45.2940   33.9720   45.1330 C   0  0  0  0  0  0  0  0  0  0  0  0
   45.8690   33.3890   43.9880 C   0  0  0  0  0  0  0  0  0  0  0  0
   46.8490   32.4400   44.2530 C   0  0  0  0  0  0  0  0  0  0  0  0
   47.2040   32.1190   45.5550 N   0  0  0  0  0  0  0  0  0  0  0  0
   46.6190   32.7090   46.6030 C   0  0  0  0  0  0  0  0  0  0  0  0
   45.6640   33.6360   46.3870 N   0  0  0  0  0  0  0  0  0  0  0  0
   45.4340   33.7800   42.7170 N   0  0  0  0  0  0  0  0  0  0  0  0
   44.6250   33.0760   41.7200 C   0  0  0  0  0  0  0  0  0  0  0  0
   43.4430   33.9780   41.3760 C   0  0  0  0  0  0  0  0  0  0  0  0
   43.8820   35.2530   40.8990 N   0  0  0  0  0  0  0  0  0  0  0  0
   44.5950   35.8940   41.9970 C   0  0  0  0  0  0  0  0  0  0  0  0
   45.8360   35.1000   42.2800 C   0  0  0  0  0  0  0  0  0  0  0  0
   47.4450   31.7030   43.0720 C   0  0  0  0  0  0  0  0  0  0  0  0
   48.7820   32.3490   42.6660 C   0  0  0  0  0  0  0  0  0  0  0  0
   48.6340   30.9310   43.3010 C   0  0  0  0  0  0  0  0  0  0  0  0
   44.5107   34.7329   45.0004 H   0  0  0  0  0  0  0  0  0  0  0  0
   46.9133   32.4413   47.6285 H   0  0  0  0  0  0  0  0  0  0  0  0
   45.2244   32.8808   40.8186 H   0  0  0  0  0  0  0  0  0  0  0  0
   44.2761   32.1098   42.1133 H   0  0  0  0  0  0  0  0  0  0  0  0
   42.8376   33.4930   40.5961 H   0  0  0  0  0  0  0  0  0  0  0  0
   42.8497   34.1350   42.2889 H   0  0  0  0  0  0  0  0  0  0  0  0
   44.5101   35.1319   40.0917 H   0  0  0  0  0  0  0  0  0  0  0  0
   44.8673   36.9215   41.7141 H   0  0  0  0  0  0  0  0  0  0  0  0
   43.9570   35.9320   42.8923 H   0  0  0  0  0  0  0  0  0  0  0  0
   46.4449   35.0215   41.3673 H   0  0  0  0  0  0  0  0  0  0  0  0
   46.4355   35.5937   43.0590 H   0  0  0  0  0  0  0  0  0  0  0  0
   46.4979   31.4350   42.5809 H   0  0  0  0  0  0  0  0  0  0  0  0
   49.0518   32.4657   41.6060 H   0  0  0  0  0  0  0  0  0  0  0  0
   49.3277   33.2778   42.8887 H   0  0  0  0  0  0  0  0  0  0  0  0
   48.9805   30.7555   44.3301 H   0  0  0  0  0  0  0  0  0  0  0  0
   48.9620   29.9218   43.0113 H   0  0  0  0  0  0  0  0  0  0  0  0
  1  6  2  0
  2  3  2  0
  2  1  1  0
  3  4  1  0
  4  5  2  0
  6  5  1  0
  7  2  1  0
  8  7  1  0
  9  8  1  0
 10  9  1  0
 10 11  1  0
 11 12  1  0
 12  7  1  0
 13 15  1  0
 13  3  1  0
 14 13  1  0
 14 15  1  0
  1 16  1  0
  5 17  1  0
  8 18  1  0
  8 19  1  0
  9 20  1  0
  9 21  1  0
 10 22  1  0
 11 23  1  0
 11 24  1  0
 12 25  1  0
 12 26  1  0
 13 27  1  0
 14 28  1  0
 14 29  1  0
 15 30  1  0
 15 31  1  0
M  ISO  8  16  14  17  14  18  13  19  13  20  13  21  13  22   5  23  13
M  ISO  8  24  13  25  13  26  13  27  13  28  13  29  13  30  13  31  13
M  END
>  <minimizedAffinity>  (1) 
-3.29503584

>  <minimizedRMSD>  (1) 
3.06317449

$$$$
