
     RDKit          3D

 28 30  0  0  1  0  0  0  0  0999 V2000
   46.5180   35.0290   41.9470 C   0  0  1  0  0  0  0  0  0  0  0  0
   48.0460   35.3090   41.9270 C   0  0  0  0  0  0  0  0  0  0  0  0
   47.3540   34.0420   41.3690 C   0  0  2  0  0  0  0  0  0  0  0  0
   44.6550   35.4230   45.1760 C   0  0  0  0  0  0  0  0  0  0  0  0
   45.1170   35.7240   43.8560 C   0  0  0  0  0  0  0  0  0  0  0  0
   46.0430   34.8450   43.3660 C   0  0  0  0  0  0  0  0  0  0  0  0
   46.4960   33.7510   44.1050 N   0  0  0  0  0  0  0  0  0  0  0  0
   46.0210   33.5320   45.3330 C   0  0  0  0  0  0  0  0  0  0  0  0
   45.0970   34.3670   45.8760 N   0  0  0  0  0  0  0  0  0  0  0  0
   44.6730   36.8590   43.1390 N   0  0  0  0  0  0  0  0  0  0  0  0
   47.3400   33.9040   39.8770 C   0  0  0  0  0  0  0  0  0  0  0  0
   48.3440   34.5500   39.1860 C   0  0  0  0  0  0  0  0  0  0  0  0
   48.2950   34.3970   37.8090 C   0  0  0  0  0  0  0  0  0  0  0  0
   47.3080   33.6490   37.1900 C   0  0  0  0  0  0  0  0  0  0  0  0
   46.3180   33.0170   37.9410 C   0  0  0  0  0  0  0  0  0  0  0  0
   46.3770   33.1740   39.2840 N   0  0  0  0  0  0  0  0  0  0  0  0
   45.5976   35.4959   41.5665 H   0  0  0  0  0  0  0  0  0  0  0  0
   48.4732   36.0638   41.2504 H   0  0  0  0  0  0  0  0  0  0  0  0
   48.8351   35.5457   42.6559 H   0  0  0  0  0  0  0  0  0  0  0  0
   47.4696   32.9618   41.5415 H   0  0  0  0  0  0  0  0  0  0  0  0
   43.9064   36.0846   45.6362 H   0  0  0  0  0  0  0  0  0  0  0  0
   46.3809   32.6677   45.9105 H   0  0  0  0  0  0  0  0  0  0  0  0
   45.0299   37.0408   42.1901 H   0  0  0  0  0  0  0  0  0  0  0  0
   43.9927   37.5040   43.5657 H   0  0  0  0  0  0  0  0  0  0  0  0
   49.1236   35.1411   39.6889 H   0  0  0  0  0  0  0  0  0  0  0  0
   49.0628   34.8842   37.1901 H   0  0  0  0  0  0  0  0  0  0  0  0
   47.3049   33.5524   36.0943 H   0  0  0  0  0  0  0  0  0  0  0  0
   45.5268   32.4193   37.4648 H   0  0  0  0  0  0  0  0  0  0  0  0
  1  6  1  0
  2  1  1  0
  3  2  1  0
  3  1  1  0
  4  9  2  0
  5  4  1  0
  6  5  2  0
  6  7  1  0
  7  8  2  0
  8  9  1  0
 10  5  1  0
 11  3  1  0
 12 11  2  0
 13 12  1  0
 14 13  2  0
 14 15  1  0
 15 16  2  0
 16 11  1  0
  1 17  1  6
  2 18  1  0
  2 19  1  0
  3 20  1  1
  4 21  1  0
  8 22  1  0
 10 23  1  0
 10 24  1  0
 12 25  1  0
 13 26  1  0
 14 27  1  0
 15 28  1  0
M  ISO  8  17  13  18  13  19  13  20  13  21  14  22  14  25  14  26  14
M  ISO  2  27  14  28  14
M  END
>  <minimizedAffinity>  (1) 
-5.40142775

>  <minimizedRMSD>  (1) 
0.340195775

$$$$
