
     RDKit          3D

 47 51  0  0  0  0  0  0  0  0999 V2000
   48.3960   33.0040   41.7430 C   0  0  0  0  0  0  0  0  0  0  0  0
   47.8830   34.2500   41.9980 C   0  0  0  0  0  0  0  0  0  0  0  0
   48.7240   35.2500   42.3870 C   0  0  0  0  0  0  0  0  0  0  0  0
   50.0860   35.0010   42.5210 C   0  0  0  0  0  0  0  0  0  0  0  0
   50.5720   33.7340   42.2570 C   0  0  0  0  0  0  0  0  0  0  0  0
   49.7150   32.7070   41.8580 C   0  0  0  0  0  0  0  0  0  0  0  0
   46.4340   34.4270   41.8330 C   0  0  0  0  0  0  0  0  0  0  0  0
   45.7860   34.7680   43.1570 C   0  0  0  0  0  0  0  0  0  0  0  0
   45.8910   33.8320   44.1840 C   0  0  0  0  0  0  0  0  0  0  0  0
   45.2930   34.1590   45.3910 C   0  0  0  0  0  0  0  0  0  0  0  0
   44.6570   35.3410   45.5000 N   0  0  0  0  0  0  0  0  0  0  0  0
   44.5740   36.2290   44.4780 C   0  0  0  0  0  0  0  0  0  0  0  0
   45.1430   35.9240   43.3220 N   0  0  0  0  0  0  0  0  0  0  0  0
   47.6120   31.9120   41.3380 O   0  0  0  0  0  0  0  0  0  0  0  0
   50.3210   31.4680   41.6190 O   0  0  0  0  0  0  0  0  0  0  0  0
   51.0400   31.4000   40.4320 C   0  0  0  0  0  0  0  0  0  0  0  0
   52.4090   31.2990   40.4910 C   0  0  0  0  0  0  0  0  0  0  0  0
   53.2110   31.2250   39.3510 C   0  0  0  0  0  0  0  0  0  0  0  0
   52.6170   31.2540   38.1420 N   0  0  0  0  0  0  0  0  0  0  0  0
   51.2820   31.3530   38.0830 C   0  0  0  0  0  0  0  0  0  0  0  0
   50.5240   31.4230   39.1950 N   0  0  0  0  0  0  0  0  0  0  0  0
   51.1550   30.7280   35.6950 C   0  0  0  0  0  0  0  0  0  0  0  0
   50.6220   31.3860   36.7790 C   0  0  0  0  0  0  0  0  0  0  0  0
   49.4580   32.0570   36.5590 C   0  0  0  0  0  0  0  0  0  0  0  0
   48.8570   32.0660   35.2980 C   0  0  0  0  0  0  0  0  0  0  0  0
   47.7420   32.6310   34.8200 N   0  0  0  0  0  0  0  0  0  0  0  0
   47.5930   32.3330   33.4960 C   0  0  0  0  0  0  0  0  0  0  0  0
   48.6770   31.5350   33.1180 C   0  0  0  0  0  0  0  0  0  0  0  0
   49.4560   31.3810   34.2630 C   0  0  0  0  0  0  0  0  0  0  0  0
   50.6350   30.6800   34.4180 C   0  0  0  0  0  0  0  0  0  0  0  0
   48.3255   36.2540   42.5949 H   0  0  0  0  0  0  0  0  0  0  0  0
   50.7694   35.8041   42.8339 H   0  0  0  0  0  0  0  0  0  0  0  0
   51.6482   33.5325   42.3628 H   0  0  0  0  0  0  0  0  0  0  0  0
   46.2483   35.2427   41.1187 H   0  0  0  0  0  0  0  0  0  0  0  0
   46.0020   33.4875   41.4578 H   0  0  0  0  0  0  0  0  0  0  0  0
   46.4229   32.8794   44.0436 H   0  0  0  0  0  0  0  0  0  0  0  0
   45.3371   33.4659   46.2440 H   0  0  0  0  0  0  0  0  0  0  0  0
   44.0441   37.1843   44.6071 H   0  0  0  0  0  0  0  0  0  0  0  0
   46.6346   32.0199   41.2230 H   0  0  0  0  0  0  0  0  0  0  0  0
   52.8934   31.2755   41.4783 H   0  0  0  0  0  0  0  0  0  0  0  0
   54.3046   31.1447   39.4378 H   0  0  0  0  0  0  0  0  0  0  0  0
   52.0951   30.1825   35.8642 H   0  0  0  0  0  0  0  0  0  0  0  0
   48.9827   32.6013   37.3883 H   0  0  0  0  0  0  0  0  0  0  0  0
   47.0903   33.2074   35.3713 H   0  0  0  0  0  0  0  0  0  0  0  0
   46.7695   32.6612   32.8448 H   0  0  0  0  0  0  0  0  0  0  0  0
   48.8745   31.1147   32.1208 H   0  0  0  0  0  0  0  0  0  0  0  0
   51.1175   30.1314   33.5957 H   0  0  0  0  0  0  0  0  0  0  0  0
  1  6  2  0
  1  2  1  0
  2  3  2  0
  3  4  1  0
  5  4  2  0
  6  5  1  0
  7  2  1  0
  7  8  1  0
  8 13  1  0
  8  9  2  0
  9 10  1  0
 10 11  2  0
 12 11  1  0
 13 12  2  0
 14  1  1  0
 15  6  1  0
 16 17  2  0
 16 15  1  0
 18 17  1  0
 19 18  2  0
 20 19  1  0
 20 21  2  0
 21 16  1  0
 22 23  2  0
 23 20  1  0
 24 23  1  0
 25 24  2  0
 26 25  1  0
 27 26  1  0
 28 27  2  0
 28 29  1  0
 29 30  2  0
 29 25  1  0
 30 22  1  0
  3 31  1  0
  4 32  1  0
  5 33  1  0
  7 34  1  0
  7 35  1  0
  9 36  1  0
 10 37  1  0
 12 38  1  0
 14 39  1  0
 17 40  1  0
 18 41  1  0
 22 42  1  0
 24 43  1  0
 26 44  1  0
 27 45  1  0
 28 46  1  0
 30 47  1  0
M  ISO  8  31  14  32  14  33  14  34   8  35   8  36  14  37  14  38  14
M  ISO  8  39   3  40  14  41  14  42  14  43  14  44   9  45  14  46  14
M  ISO  1  47  14
M  END
>  <minimizedAffinity>  (1) 
-6.58664846

>  <minimizedRMSD>  (1) 
0.889282107

$$$$
