
     RDKit          3D

 34 36  0  0  1  0  0  0  0  0999 V2000
   46.5440   34.9740   41.9710 C   0  0  1  0  0  0  0  0  0  0  0  0
   48.0800   35.1670   41.9760 C   0  0  0  0  0  0  0  0  0  0  0  0
   47.3140   33.9320   41.3970 C   0  0  2  0  0  0  0  0  0  0  0  0
   44.6120   35.4500   45.1610 C   0  0  0  0  0  0  0  0  0  0  0  0
   45.0860   35.7050   43.8490 C   0  0  0  0  0  0  0  0  0  0  0  0
   46.0370   34.8300   43.3900 C   0  0  0  0  0  0  0  0  0  0  0  0
   46.4900   33.7730   44.1810 N   0  0  0  0  0  0  0  0  0  0  0  0
   46.0070   33.5850   45.4090 C   0  0  0  0  0  0  0  0  0  0  0  0
   45.0580   34.4300   45.9050 N   0  0  0  0  0  0  0  0  0  0  0  0
   44.6500   36.8070   43.0520 N   0  0  0  0  0  0  0  0  0  0  0  0
   47.4830   33.6610   40.0040 N   0  0  0  0  0  0  0  0  0  0  0  0
   48.2260   34.6570   39.3000 C   0  0  0  0  0  0  0  0  0  0  0  0
   48.4170   34.3140   37.8640 C   0  0  0  0  0  0  0  0  0  0  0  0
   47.2770   33.6250   37.1940 C   0  0  0  0  0  0  0  0  0  0  0  0
   46.6350   32.5680   38.0710 C   0  0  0  0  0  0  0  0  0  0  0  0
   46.2470   33.2740   39.3540 C   0  0  0  0  0  0  0  0  0  0  0  0
   45.6589   35.4943   41.5762 H   0  0  0  0  0  0  0  0  0  0  0  0
   48.5602   35.8981   41.3090 H   0  0  0  0  0  0  0  0  0  0  0  0
   48.8707   35.3557   42.7171 H   0  0  0  0  0  0  0  0  0  0  0  0
   47.2615   32.8453   41.5594 H   0  0  0  0  0  0  0  0  0  0  0  0
   43.8469   36.1172   45.5847 H   0  0  0  0  0  0  0  0  0  0  0  0
   46.3736   32.7486   46.0223 H   0  0  0  0  0  0  0  0  0  0  0  0
   45.0314   36.9401   42.1045 H   0  0  0  0  0  0  0  0  0  0  0  0
   43.9542   37.4687   43.4247 H   0  0  0  0  0  0  0  0  0  0  0  0
   47.6858   35.6130   39.3659 H   0  0  0  0  0  0  0  0  0  0  0  0
   49.2211   34.7232   39.7640 H   0  0  0  0  0  0  0  0  0  0  0  0
   48.6111   35.2493   37.3186 H   0  0  0  0  0  0  0  0  0  0  0  0
   49.2494   33.5952   37.8414 H   0  0  0  0  0  0  0  0  0  0  0  0
   46.5163   34.3756   36.9334 H   0  0  0  0  0  0  0  0  0  0  0  0
   47.6729   33.1198   36.3006 H   0  0  0  0  0  0  0  0  0  0  0  0
   45.7438   32.1517   37.5786 H   0  0  0  0  0  0  0  0  0  0  0  0
   47.3214   31.7300   38.2624 H   0  0  0  0  0  0  0  0  0  0  0  0
   45.6416   34.1644   39.1290 H   0  0  0  0  0  0  0  0  0  0  0  0
   45.6468   32.6181   40.0017 H   0  0  0  0  0  0  0  0  0  0  0  0
  1  2  1  0
  1  6  1  0
  3  1  1  0
  3  2  1  0
  4  9  2  0
  5  4  1  0
  6  5  2  0
  6  7  1  0
  7  8  2  0
  8  9  1  0
 10  5  1  0
 11  3  1  0
 12 11  1  0
 13 12  1  0
 14 13  1  0
 14 15  1  0
 15 16  1  0
 16 11  1  0
  1 17  1  6
  2 18  1  0
  2 19  1  0
  3 20  1  1
  4 21  1  0
  8 22  1  0
 10 23  1  0
 10 24  1  0
 12 25  1  0
 12 26  1  0
 13 27  1  0
 13 28  1  0
 14 29  1  0
 14 30  1  0
 15 31  1  0
 15 32  1  0
 16 33  1  0
 16 34  1  0
M  ISO  8  17  13  18  13  19  13  20  13  21  14  22  14  25  13  26  13
M  ISO  8  27  13  28  13  29  13  30  13  31  13  32  13  33  13  34  13
M  END
>  <minimizedAffinity>  (1) 
-5.07620716

>  <minimizedRMSD>  (1) 
0.110878348

$$$$
