
     RDKit          3D

 25 26  0  0  1  0  0  0  0  0999 V2000
   46.3510   35.0410   42.0820 C   0  0  1  0  0  0  0  0  0  0  0  0
   47.8760   35.2500   41.9000 C   0  0  0  0  0  0  0  0  0  0  0  0
   47.0680   34.1020   41.2980 C   0  0  2  0  0  0  0  0  0  0  0  0
   44.7990   35.0090   45.4940 C   0  0  0  0  0  0  0  0  0  0  0  0
   45.0910   35.4580   44.1620 C   0  0  0  0  0  0  0  0  0  0  0  0
   46.0360   34.6980   43.5260 C   0  0  0  0  0  0  0  0  0  0  0  0
   46.6390   33.6100   44.1230 N   0  0  0  0  0  0  0  0  0  0  0  0
   46.3210   33.2430   45.3720 C   0  0  0  0  0  0  0  0  0  0  0  0
   45.3920   33.9490   46.0620 N   0  0  0  0  0  0  0  0  0  0  0  0
   44.4780   36.5910   43.5730 N   0  0  0  0  0  0  0  0  0  0  0  0
   46.8290   34.0150   39.9620 O   0  0  0  0  0  0  0  0  0  0  0  0
   49.0450   32.5880   39.5930 O   0  0  0  0  0  0  0  0  0  0  0  0
   48.0580   33.5130   38.9880 P   0  0  0  0  0  0  0  0  0  0  0  0
   47.3960   32.7170   37.6320 O   0  0  0  0  0  0  0  0  0  0  0  0
   48.7900   34.9060   38.3250 O   0  0  0  0  0  0  0  0  0  0  0  0
   45.4192   35.5887   41.8775 H   0  0  0  0  0  0  0  0  0  0  0  0
   48.2620   36.0612   41.2652 H   0  0  0  0  0  0  0  0  0  0  0  0
   48.7578   35.3630   42.5479 H   0  0  0  0  0  0  0  0  0  0  0  0
   47.1914   33.0093   41.3266 H   0  0  0  0  0  0  0  0  0  0  0  0
   44.0501   35.5632   46.0788 H   0  0  0  0  0  0  0  0  0  0  0  0
   46.8111   32.3737   45.8347 H   0  0  0  0  0  0  0  0  0  0  0  0
   44.7249   36.8691   42.6125 H   0  0  0  0  0  0  0  0  0  0  0  0
   43.7854   37.1368   44.1052 H   0  0  0  0  0  0  0  0  0  0  0  0
   46.7936   31.9926   37.9361 H   0  0  0  0  0  0  0  0  0  0  0  0
   49.1000   35.4960   39.0570 H   0  0  0  0  0  0  0  0  0  0  0  0
  1  6  1  0
  2  1  1  0
  3  2  1  0
  3  1  1  0
  4  9  2  0
  5  4  1  0
  6  7  1  0
  6  5  2  0
  7  8  2  0
  8  9  1  0
 10  5  1  0
 11  3  1  0
 13 12  2  0
 13 11  1  0
 14 13  1  0
 15 13  1  0
  1 16  1  6
  2 17  1  0
  2 18  1  0
  3 19  1  1
  4 20  1  0
  8 21  1  0
 10 22  1  0
 10 23  1  0
 14 24  1  0
 15 25  1  0
M  ISO  8  16  13  17  13  18  13  19  13  20  14  21  14  24   3  25   3
M  END
>  <minimizedAffinity>  (1) 
-4.71645403

>  <minimizedRMSD>  (1) 
1.12155735

$$$$
