
     RDKit          3D

 22 23  0  0  1  0  0  0  0  0999 V2000
   44.6630   35.3660   45.1440 C   0  0  0  0  0  0  0  0  0  0  0  0
   45.1310   35.6990   43.8320 C   0  0  0  0  0  0  0  0  0  0  0  0
   46.0930   34.8590   43.3440 C   0  0  0  0  0  0  0  0  0  0  0  0
   46.5680   33.7850   44.0660 N   0  0  0  0  0  0  0  0  0  0  0  0
   46.0940   33.5160   45.2980 C   0  0  0  0  0  0  0  0  0  0  0  0
   45.1310   34.3170   45.8360 N   0  0  0  0  0  0  0  0  0  0  0  0
   46.5680   35.0650   41.9320 C   0  0  1  0  0  0  0  0  0  0  0  0
   48.1010   35.2950   41.9130 C   0  0  0  0  0  0  0  0  0  0  0  0
   47.3620   34.0650   41.3180 C   0  0  2  0  0  0  0  0  0  0  0  0
   47.3840   33.9110   39.8020 C   0  0  0  0  0  0  0  0  0  0  0  0
   44.6630   36.8290   43.1240 N   0  0  0  0  0  0  0  0  0  0  0  0
   43.8876   35.9968   45.6030 H   0  0  0  0  0  0  0  0  0  0  0  0
   46.4810   32.6568   45.8654 H   0  0  0  0  0  0  0  0  0  0  0  0
   45.6629   35.5746   41.5700 H   0  0  0  0  0  0  0  0  0  0  0  0
   48.5502   36.0558   41.2577 H   0  0  0  0  0  0  0  0  0  0  0  0
   48.9006   35.4832   42.6446 H   0  0  0  0  0  0  0  0  0  0  0  0
   47.4168   32.9752   41.4572 H   0  0  0  0  0  0  0  0  0  0  0  0
   47.5352   32.8526   39.5431 H   0  0  0  0  0  0  0  0  0  0  0  0
   46.4272   34.2576   39.3843 H   0  0  0  0  0  0  0  0  0  0  0  0
   48.2055   34.5116   39.3843 H   0  0  0  0  0  0  0  0  0  0  0  0
   45.0257   37.0330   42.1818 H   0  0  0  0  0  0  0  0  0  0  0  0
   43.9592   37.4486   43.5502 H   0  0  0  0  0  0  0  0  0  0  0  0
  1  6  2  0
  2  1  1  0
  3  2  2  0
  3  4  1  0
  4  5  2  0
  5  6  1  0
  7  3  1  0
  8  7  1  0
  9  8  1  0
  9  7  1  0
 10  9  1  0
 11  2  1  0
  1 12  1  0
  5 13  1  0
  7 14  1  6
  8 15  1  0
  8 16  1  0
  9 17  1  1
 10 18  1  0
 10 19  1  0
 10 20  1  0
 11 21  1  0
 11 22  1  0
M  ISO  8  12  14  13  14  14  13  15  13  16  13  17  13  18   8  19   8
M  ISO  1  20   8
M  END
>  <minimizedAffinity>  (1) 
-4.27395248

>  <minimizedRMSD>  (1) 
0.129661977

$$$$
