
     RDKit          3D

 31 33  0  0  1  0  0  0  0  0999 V2000
   49.2150   33.2770   42.7100 C   0  0  1  0  0  0  0  0  0  0  0  0
   50.4380   34.2170   42.5170 C   0  0  0  0  0  0  0  0  0  0  0  0
   49.1410   34.1920   41.6500 C   0  0  2  0  0  0  0  0  0  0  0  0
   49.3000   29.5280   42.6710 C   0  0  0  0  0  0  0  0  0  0  0  0
   48.9040   30.8410   43.0360 C   0  0  0  0  0  0  0  0  0  0  0  0
   49.6070   31.8410   42.4510 C   0  0  0  0  0  0  0  0  0  0  0  0
   50.6410   31.5920   41.5630 N   0  0  0  0  0  0  0  0  0  0  0  0
   50.9830   30.3240   41.2470 C   0  0  0  0  0  0  0  0  0  0  0  0
   50.3090   29.2890   41.8050 N   0  0  0  0  0  0  0  0  0  0  0  0
   47.8820   31.0890   43.9650 N   0  0  0  0  0  0  0  0  0  0  0  0
   48.2240   35.3890   41.6930 C   0  0  0  0  0  0  0  0  0  0  0  0
   46.7940   34.9970   41.7480 C   0  0  0  0  0  0  0  0  0  0  0  0
   46.1110   34.2060   40.8550 C   0  0  0  0  0  0  0  0  0  0  0  0
   44.7890   33.9790   41.1140 C   0  0  0  0  0  0  0  0  0  0  0  0
   44.1450   34.4990   42.2030 C   0  0  0  0  0  0  0  0  0  0  0  0
   44.8580   35.2990   43.0960 C   0  0  0  0  0  0  0  0  0  0  0  0
   46.1480   35.5050   42.8190 N   0  0  0  0  0  0  0  0  0  0  0  0
   48.4760   33.0488   43.4922 H   0  0  0  0  0  0  0  0  0  0  0  0
   50.6358   35.0414   43.2179 H   0  0  0  0  0  0  0  0  0  0  0  0
   51.5227   34.1199   42.3619 H   0  0  0  0  0  0  0  0  0  0  0  0
   48.9205   34.0666   40.5797 H   0  0  0  0  0  0  0  0  0  0  0  0
   48.7653   28.6727   43.1097 H   0  0  0  0  0  0  0  0  0  0  0  0
   51.8041   30.1325   40.5406 H   0  0  0  0  0  0  0  0  0  0  0  0
   47.6254   32.0580   44.2020 H   0  0  0  0  0  0  0  0  0  0  0  0
   47.3884   30.3021   44.4099 H   0  0  0  0  0  0  0  0  0  0  0  0
   48.4623   35.9861   42.5855 H   0  0  0  0  0  0  0  0  0  0  0  0
   48.3805   35.9680   40.7709 H   0  0  0  0  0  0  0  0  0  0  0  0
   46.6063   33.7755   39.9722 H   0  0  0  0  0  0  0  0  0  0  0  0
   44.2170   33.3502   40.4158 H   0  0  0  0  0  0  0  0  0  0  0  0
   43.0786   34.2890   42.3724 H   0  0  0  0  0  0  0  0  0  0  0  0
   44.3812   35.7385   43.9845 H   0  0  0  0  0  0  0  0  0  0  0  0
  2  1  1  0
  3 11  1  0
  3  2  1  0
  3  1  1  0
  4  5  2  0
  5 10  1  0
  6  1  1  0
  6  5  1  0
  7  6  2  0
  8  7  1  0
  8  9  2  0
  9  4  1  0
 11 12  1  0
 12 17  2  0
 13 14  2  0
 13 12  1  0
 14 15  1  0
 15 16  2  0
 17 16  1  0
  1 18  1  1
  2 19  1  0
  2 20  1  0
  3 21  1  6
  4 22  1  0
  8 23  1  0
 10 24  1  0
 10 25  1  0
 11 26  1  0
 11 27  1  0
 13 28  1  0
 14 29  1  0
 15 30  1  0
 16 31  1  0
M  ISO  8  18  13  19  13  20  13  21  13  22  14  23  14  26   8  27   8
M  ISO  4  28  14  29  14  30  14  31  14
M  END
>  <minimizedAffinity>  (1) 
-3.79939389

>  <minimizedRMSD>  (1) 
5.38075781

$$$$
