
     RDKit          3D

 26 28  0  0  1  0  0  0  0  0999 V2000
   46.8690   32.6060   43.7820 C   0  0  1  0  0  0  0  0  0  0  0  0
   47.2420   32.2200   42.4420 C   0  0  0  0  0  0  0  0  0  0  0  0
   48.2940   32.8680   43.2910 C   0  0  1  0  0  0  0  0  0  0  0  0
   45.6580   34.6740   43.0190 C   0  0  0  0  0  0  0  0  0  0  0  0
   46.0130   33.8010   44.0410 C   0  0  0  0  0  0  0  0  0  0  0  0
   45.5560   34.0820   45.3150 C   0  0  0  0  0  0  0  0  0  0  0  0
   44.7870   35.1920   45.5090 N   0  0  0  0  0  0  0  0  0  0  0  0
   44.4550   36.0300   44.4940 C   0  0  0  0  0  0  0  0  0  0  0  0
   44.9020   35.7610   43.2210 N   0  0  0  0  0  0  0  0  0  0  0  0
   48.6810   34.1980   43.1920 N   0  0  0  0  0  0  0  0  0  0  0  0
   49.3670   34.6770   42.0510 C   0  0  0  0  0  0  0  0  0  0  0  0
   48.6560   35.1980   40.8700 C   0  0  0  0  0  0  0  0  0  0  0  0
   49.1450   36.2130   41.8450 C   0  0  0  0  0  0  0  0  0  0  0  0
   46.3935   32.0626   44.6118 H   0  0  0  0  0  0  0  0  0  0  0  0
   46.8245   32.7669   41.5837 H   0  0  0  0  0  0  0  0  0  0  0  0
   47.1917   31.2765   41.8788 H   0  0  0  0  0  0  0  0  0  0  0  0
   49.3320   32.5966   43.5337 H   0  0  0  0  0  0  0  0  0  0  0  0
   46.0136   34.4628   41.9997 H   0  0  0  0  0  0  0  0  0  0  0  0
   45.8081   33.4218   46.1580 H   0  0  0  0  0  0  0  0  0  0  0  0
   43.8337   36.9168   44.6877 H   0  0  0  0  0  0  0  0  0  0  0  0
   47.8213   34.7594   43.2732 H   0  0  0  0  0  0  0  0  0  0  0  0
   50.1825   33.9446   42.1440 H   0  0  0  0  0  0  0  0  0  0  0  0
   47.5746   35.0227   40.7708 H   0  0  0  0  0  0  0  0  0  0  0  0
   48.7928   35.0645   39.7867 H   0  0  0  0  0  0  0  0  0  0  0  0
   49.9908   36.8682   41.5892 H   0  0  0  0  0  0  0  0  0  0  0  0
   48.6972   37.0330   42.4256 H   0  0  0  0  0  0  0  0  0  0  0  0
  1  5  1  0
  2  3  1  0
  2  1  1  0
  3  1  1  0
  4  9  2  0
  4  5  1  0
  5  6  2  0
  6  7  1  0
  8  7  2  0
  9  8  1  0
 10  3  1  0
 11 10  1  0
 12 13  1  0
 12 11  1  0
 13 11  1  0
  1 14  1  1
  2 15  1  0
  2 16  1  0
  3 17  1  1
  4 18  1  0
  6 19  1  0
  8 20  1  0
 10 21  1  0
 11 22  1  0
 12 23  1  0
 12 24  1  0
 13 25  1  0
 13 26  1  0
M  ISO  8  14  13  15  13  16  13  17  13  18  14  19  14  20  14  21   5
M  ISO  5  22  13  23  13  24  13  25  13  26  13
M  END
>  <minimizedAffinity>  (1) 
-4.35719347

>  <minimizedRMSD>  (1) 
2.54605007

$$$$
