
     RDKit          3D

 34 35  0  0  0  0  0  0  0  0999 V2000
   48.2490   33.1880   43.5450 O   0  0  0  0  0  0  0  0  0  0  0  0
   46.9440   33.3110   43.0530 C   0  0  0  0  0  0  0  0  0  0  0  0
   45.0800   34.2930   46.1230 C   0  0  0  0  0  0  0  0  0  0  0  0
   45.9040   33.5680   45.2450 C   0  0  0  0  0  0  0  0  0  0  0  0
   46.0950   34.0500   43.9690 C   0  0  0  0  0  0  0  0  0  0  0  0
   45.4680   35.2210   43.6110 N   0  0  0  0  0  0  0  0  0  0  0  0
   44.6780   35.8920   44.4850 C   0  0  0  0  0  0  0  0  0  0  0  0
   44.4880   35.4360   45.7180 N   0  0  0  0  0  0  0  0  0  0  0  0
   50.2970   32.7760   41.9780 O   0  0  0  0  0  0  0  0  0  0  0  0
   49.2850   33.8230   42.3600 P   0  0  2  0  0  0  0  0  0  0  0  0
   49.9670   35.2240   42.9880 O   0  0  0  0  0  0  0  0  0  0  0  0
   48.3410   34.1680   41.0010 O   0  0  0  0  0  0  0  0  0  0  0  0
   47.4040   32.2990   37.4840 N   0  0  0  0  0  0  0  0  0  0  0  0
   47.1050   33.6350   37.9610 C   0  0  0  0  0  0  0  0  0  0  0  0
   48.3140   34.2040   38.6620 C   0  0  0  0  0  0  0  0  0  0  0  0
   48.6680   33.4140   39.9060 C   0  0  0  0  0  0  0  0  0  0  0  0
   47.9310   32.1000   39.8390 C   0  0  0  0  0  0  0  0  0  0  0  0
   48.1850   31.5410   38.4360 C   0  0  0  0  0  0  0  0  0  0  0  0
   46.9744   33.8399   42.0890 H   0  0  0  0  0  0  0  0  0  0  0  0
   46.5246   32.3011   42.9341 H   0  0  0  0  0  0  0  0  0  0  0  0
   44.9166   33.9262   47.1471 H   0  0  0  0  0  0  0  0  0  0  0  0
   46.3866   32.6346   45.5703 H   0  0  0  0  0  0  0  0  0  0  0  0
   44.1886   36.8251   44.1692 H   0  0  0  0  0  0  0  0  0  0  0  0
   49.9482   35.1855   43.9771 H   0  0  0  0  0  0  0  0  0  0  0  0
   46.5182   31.8024   37.3115 H   0  0  0  0  0  0  0  0  0  0  0  0
   46.8400   34.2775   37.1084 H   0  0  0  0  0  0  0  0  0  0  0  0
   46.2610   33.5914   38.6652 H   0  0  0  0  0  0  0  0  0  0  0  0
   49.1694   34.1817   37.9708 H   0  0  0  0  0  0  0  0  0  0  0  0
   48.0785   35.2342   38.9672 H   0  0  0  0  0  0  0  0  0  0  0  0
   49.7424   33.1897   39.9792 H   0  0  0  0  0  0  0  0  0  0  0  0
   48.3162   31.4070   40.6015 H   0  0  0  0  0  0  0  0  0  0  0  0
   46.8558   32.2323   40.0300 H   0  0  0  0  0  0  0  0  0  0  0  0
   47.8865   30.4829   38.4000 H   0  0  0  0  0  0  0  0  0  0  0  0
   49.2542   31.6205   38.1899 H   0  0  0  0  0  0  0  0  0  0  0  0
  2  1  1  0
  2  5  1  0
  4  3  2  0
  5  4  1  0
  6  5  2  0
  6  7  1  0
  7  8  2  0
  8  3  1  0
 10  9  2  0
 10 11  1  0
 10  1  1  0
 12 10  1  0
 13 14  1  0
 13 18  1  0
 14 15  1  0
 15 16  1  0
 16 12  1  0
 17 16  1  0
 18 17  1  0
  2 19  1  0
  2 20  1  0
  3 21  1  0
  4 22  1  0
  7 23  1  0
 11 24  1  0
 13 25  1  0
 14 26  1  0
 14 27  1  0
 15 28  1  0
 15 29  1  0
 16 30  1  0
 17 31  1  0
 17 32  1  0
 18 33  1  0
 18 34  1  0
M  ISO  8  19   8  20   8  21  14  22  14  23  14  24   3  25   5  26  13
M  ISO  8  27  13  28  13  29  13  30  13  31  13  32  13  33  13  34  13
M  END
>  <minimizedAffinity>  (1) 
-4.42377949

>  <minimizedRMSD>  (1) 
1.06114066

$$$$
