
     RDKit          3D

 33 34  0  0  1  0  0  0  0  0999 V2000
   44.6910   34.9930   45.4710 O   0  0  0  0  0  0  0  0  0  0  0  0
   45.4700   34.1570   44.5100 P   0  0  2  0  0  0  0  0  0  0  0  0
   44.5450   32.9390   43.8210 O   0  0  0  0  0  0  0  0  0  0  0  0
   46.7270   33.3700   45.3380 O   0  0  0  0  0  0  0  0  0  0  0  0
   46.4380   32.0400   45.3850 C   0  0  0  0  0  0  0  0  0  0  0  0
   45.8960   32.0170   49.0670 C   0  0  0  0  0  0  0  0  0  0  0  0
   46.2770   32.4470   47.7890 C   0  0  0  0  0  0  0  0  0  0  0  0
   46.0410   31.5950   46.7240 C   0  0  0  0  0  0  0  0  0  0  0  0
   45.4470   30.3790   46.9680 N   0  0  0  0  0  0  0  0  0  0  0  0
   45.0960   30.0070   48.2190 C   0  0  0  0  0  0  0  0  0  0  0  0
   45.3200   30.8150   49.2460 N   0  0  0  0  0  0  0  0  0  0  0  0
   46.1690   35.1440   43.3410 O   0  0  0  0  0  0  0  0  0  0  0  0
   46.8350   34.3510   42.4050 C   0  0  1  0  0  0  0  0  0  0  0  0
   46.3280   34.5330   41.0000 C   0  0  0  0  0  0  0  0  0  0  0  0
   47.4440   33.8710   40.2080 C   0  0  0  0  0  0  0  0  0  0  0  0
   48.6980   34.0070   41.0390 C   0  0  0  0  0  0  0  0  0  0  0  0
   48.2830   34.8350   42.2550 C   0  0  2  0  0  0  0  0  0  0  0  0
   48.9740   34.4780   43.3950 O   0  0  0  0  0  0  0  0  0  0  0  0
   44.1312   32.3941   44.5365 H   0  0  0  0  0  0  0  0  0  0  0  0
   45.6134   31.8340   44.6867 H   0  0  0  0  0  0  0  0  0  0  0  0
   47.3507   31.4914   45.1093 H   0  0  0  0  0  0  0  0  0  0  0  0
   46.0702   32.6706   49.9345 H   0  0  0  0  0  0  0  0  0  0  0  0
   46.7481   33.4293   47.6371 H   0  0  0  0  0  0  0  0  0  0  0  0
   44.6219   29.0286   48.3860 H   0  0  0  0  0  0  0  0  0  0  0  0
   46.7022   33.3234   42.7743 H   0  0  0  0  0  0  0  0  0  0  0  0
   45.3654   34.0229   40.8475 H   0  0  0  0  0  0  0  0  0  0  0  0
   46.1273   35.5775   40.7194 H   0  0  0  0  0  0  0  0  0  0  0  0
   47.2126   32.8088   40.0402 H   0  0  0  0  0  0  0  0  0  0  0  0
   47.5667   34.3433   39.2222 H   0  0  0  0  0  0  0  0  0  0  0  0
   49.0629   33.0176   41.3520 H   0  0  0  0  0  0  0  0  0  0  0  0
   49.5152   34.4823   40.4766 H   0  0  0  0  0  0  0  0  0  0  0  0
   48.4492   35.9153   42.1308 H   0  0  0  0  0  0  0  0  0  0  0  0
   48.4542   34.7465   44.1936 H   0  0  0  0  0  0  0  0  0  0  0  0
  2  4  1  0
  2  1  2  0
  3  2  1  0
  4  5  1  0
  5  8  1  0
  6 11  2  0
  7  6  1  0
  8  9  1  0
  8  7  2  0
  9 10  2  0
 10 11  1  0
 12  2  1  0
 13 12  1  0
 14 13  1  0
 15 14  1  0
 15 16  1  0
 16 17  1  0
 17 13  1  0
 17 18  1  0
  3 19  1  0
  5 20  1  0
  5 21  1  0
  6 22  1  0
  7 23  1  0
 10 24  1  0
 13 25  1  1
 14 26  1  0
 14 27  1  0
 15 28  1  0
 15 29  1  0
 16 30  1  0
 16 31  1  0
 17 32  1  6
 18 33  1  0
M  ISO  8  19   3  20   8  21   8  22  14  23  14  24  14  25  13  26  13
M  ISO  7  27  13  28  13  29  13  30  13  31  13  32  13  33   3
M  END
>  <minimizedAffinity>  (1) 
-5.04574776

>  <minimizedRMSD>  (1) 
0.406813473

$$$$
