
     RDKit          3D

 46 48  0  0  1  0  0  0  0  0999 V2000
   45.9440   33.6140   41.9460 C   0  0  1  0  0  0  0  0  0  0  0  0
   45.6850   34.2450   40.6050 C   0  0  0  0  0  0  0  0  0  0  0  0
   45.8050   33.0650   39.6720 C   0  0  0  0  0  0  0  0  0  0  0  0
   46.6980   32.0690   40.3650 C   0  0  0  0  0  0  0  0  0  0  0  0
   47.1680   32.7600   41.6370 C   0  0  1  0  0  0  0  0  0  0  0  0
   48.3890   33.5900   41.4100 C   0  0  0  0  0  0  0  0  0  0  0  0
   49.1790   33.6550   42.7000 C   0  0  0  0  0  0  0  0  0  0  0  0
   50.6820   33.7120   42.3920 C   0  0  0  0  0  0  0  0  0  0  0  0
   51.1160   32.5580   41.7730 O   0  0  0  0  0  0  0  0  0  0  0  0
   50.1620   31.9050   41.0210 C   0  0  0  0  0  0  0  0  0  0  0  0
   49.2870   32.9840   40.3990 C   0  0  0  0  0  0  0  0  0  0  0  0
   46.1870   34.5030   42.9640 O   0  0  0  0  0  0  0  0  0  0  0  0
   44.7880   34.9710   45.1010 O   0  0  0  0  0  0  0  0  0  0  0  0
   45.5830   33.9020   44.4140 P   0  0  1  0  0  0  0  0  0  0  0  0
   44.6980   32.4970   44.1800 O   0  0  0  0  0  0  0  0  0  0  0  0
   46.9090   33.4620   45.3810 O   0  0  0  0  0  0  0  0  0  0  0  0
   46.9490   32.1020   45.4530 C   0  0  0  0  0  0  0  0  0  0  0  0
   46.6660   31.5450   49.1220 C   0  0  0  0  0  0  0  0  0  0  0  0
   47.1200   32.0360   47.8930 C   0  0  0  0  0  0  0  0  0  0  0  0
   46.4820   31.5930   46.7480 C   0  0  0  0  0  0  0  0  0  0  0  0
   45.4480   30.7030   46.8750 N   0  0  0  0  0  0  0  0  0  0  0  0
   45.0380   30.2520   48.0810 C   0  0  0  0  0  0  0  0  0  0  0  0
   45.6460   30.6720   49.1820 N   0  0  0  0  0  0  0  0  0  0  0  0
   45.0699   33.0660   42.3276 H   0  0  0  0  0  0  0  0  0  0  0  0
   44.6795   34.6889   40.5601 H   0  0  0  0  0  0  0  0  0  0  0  0
   46.3707   35.0709   40.3646 H   0  0  0  0  0  0  0  0  0  0  0  0
   46.2523   33.3781   38.7171 H   0  0  0  0  0  0  0  0  0  0  0  0
   44.8197   32.6307   39.4469 H   0  0  0  0  0  0  0  0  0  0  0  0
   46.1373   31.1546   40.6090 H   0  0  0  0  0  0  0  0  0  0  0  0
   47.5429   31.7668   39.7288 H   0  0  0  0  0  0  0  0  0  0  0  0
   47.4712   32.0784   42.4453 H   0  0  0  0  0  0  0  0  0  0  0  0
   48.0557   34.5797   41.0645 H   0  0  0  0  0  0  0  0  0  0  0  0
   48.8875   34.5553   43.2609 H   0  0  0  0  0  0  0  0  0  0  0  0
   48.9667   32.7575   43.2995 H   0  0  0  0  0  0  0  0  0  0  0  0
   50.8789   34.5682   41.7301 H   0  0  0  0  0  0  0  0  0  0  0  0
   51.2250   33.8185   43.3427 H   0  0  0  0  0  0  0  0  0  0  0  0
   50.6434   31.3060   40.2340 H   0  0  0  0  0  0  0  0  0  0  0  0
   49.5666   31.2201   41.6426 H   0  0  0  0  0  0  0  0  0  0  0  0
   49.9308   33.7682   39.9741 H   0  0  0  0  0  0  0  0  0  0  0  0
   48.6694   32.5238   39.6137 H   0  0  0  0  0  0  0  0  0  0  0  0
   44.4544   32.1103   45.0582 H   0  0  0  0  0  0  0  0  0  0  0  0
   46.3091   31.6879   44.6598 H   0  0  0  0  0  0  0  0  0  0  0  0
   47.9973   31.7918   45.3307 H   0  0  0  0  0  0  0  0  0  0  0  0
   47.1505   31.8780   50.0517 H   0  0  0  0  0  0  0  0  0  0  0  0
   47.9554   32.7496   47.8390 H   0  0  0  0  0  0  0  0  0  0  0  0
   44.2030   29.5391   48.1491 H   0  0  0  0  0  0  0  0  0  0  0  0
  1 12  1  0
  2  1  1  0
  3  4  1  0
  3  2  1  0
  4  5  1  0
  5  1  1  0
  6  5  1  0
  6  7  1  0
  8  7  1  0
  9  8  1  0
 10  9  1  0
 11 10  1  0
 11  6  1  0
 12 14  1  0
 14 13  2  0
 14 16  1  0
 15 14  1  0
 16 17  1  0
 17 20  1  0
 18 23  2  0
 19 18  1  0
 20 21  1  0
 20 19  2  0
 21 22  2  0
 22 23  1  0
  1 24  1  1
  2 25  1  0
  2 26  1  0
  3 27  1  0
  3 28  1  0
  4 29  1  0
  4 30  1  0
  5 31  1  1
  6 32  1  0
  7 33  1  0
  7 34  1  0
  8 35  1  0
  8 36  1  0
 10 37  1  0
 10 38  1  0
 11 39  1  0
 11 40  1  0
 15 41  1  0
 17 42  1  0
 17 43  1  0
 18 44  1  0
 19 45  1  0
 22 46  1  0
M  ISO  8  24  13  25  13  26  13  27  13  28  13  29  13  30  13  31  13
M  ISO  8  32  13  33  13  34  13  35  13  36  13  37  13  38  13  39  13
M  ISO  7  40  13  41   3  42   8  43   8  44  14  45  14  46  14
M  END
>  <minimizedAffinity>  (1) 
-4.77926493

>  <minimizedRMSD>  (1) 
2.44729686

$$$$
