
     RDKit          3D

 39 42  0  0  0  0  0  0  0  0999 V2000
   48.5440   33.0850   41.4400 C   0  0  0  0  0  0  0  0  0  0  0  0
   48.0860   34.3050   41.8510 C   0  0  0  0  0  0  0  0  0  0  0  0
   48.9440   35.1710   42.4640 C   0  0  0  0  0  0  0  0  0  0  0  0
   50.2750   34.7810   42.6560 C   0  0  0  0  0  0  0  0  0  0  0  0
   50.7020   33.5490   42.2310 C   0  0  0  0  0  0  0  0  0  0  0  0
   49.8210   32.6620   41.6030 C   0  0  0  0  0  0  0  0  0  0  0  0
   46.6690   34.6140   41.6000 C   0  0  0  0  0  0  0  0  0  0  0  0
   45.9520   34.8940   42.9030 C   0  0  0  0  0  0  0  0  0  0  0  0
   45.9800   33.9050   43.8840 C   0  0  0  0  0  0  0  0  0  0  0  0
   45.3260   34.1640   45.0710 C   0  0  0  0  0  0  0  0  0  0  0  0
   44.7020   35.3570   45.2060 N   0  0  0  0  0  0  0  0  0  0  0  0
   44.6910   36.3040   44.2320 C   0  0  0  0  0  0  0  0  0  0  0  0
   45.3200   36.0500   43.0920 N   0  0  0  0  0  0  0  0  0  0  0  0
   47.7370   32.1290   40.8010 O   0  0  0  0  0  0  0  0  0  0  0  0
   50.3600   31.4260   41.2070 O   0  0  0  0  0  0  0  0  0  0  0  0
   50.9080   31.4320   39.9340 C   0  0  0  0  0  0  0  0  0  0  0  0
   52.2710   31.3510   39.7960 C   0  0  0  0  0  0  0  0  0  0  0  0
   52.9350   31.3470   38.5790 C   0  0  0  0  0  0  0  0  0  0  0  0
   52.1920   31.4270   37.4680 N   0  0  0  0  0  0  0  0  0  0  0  0
   50.8540   31.5070   37.5900 C   0  0  0  0  0  0  0  0  0  0  0  0
   50.2370   31.5090   38.7760 N   0  0  0  0  0  0  0  0  0  0  0  0
   50.0520   31.5970   36.3460 C   0  0  0  0  0  0  0  0  0  0  0  0
   50.2430   30.8380   35.0150 C   0  0  0  0  0  0  0  0  0  0  0  0
   48.7930   31.6140   34.1260 S   0  0  0  0  0  0  0  0  0  0  0  0
   48.2710   32.6770   35.5360 C   0  0  0  0  0  0  0  0  0  0  0  0
   49.0920   32.4930   36.6030 N   0  0  0  0  0  0  0  0  0  0  0  0
   48.5960   36.1584   42.8015 H   0  0  0  0  0  0  0  0  0  0  0  0
   50.9808   35.4653   43.1496 H   0  0  0  0  0  0  0  0  0  0  0  0
   51.7505   33.2545   42.3858 H   0  0  0  0  0  0  0  0  0  0  0  0
   46.6004   35.4994   40.9509 H   0  0  0  0  0  0  0  0  0  0  0  0
   46.1962   33.7496   41.1108 H   0  0  0  0  0  0  0  0  0  0  0  0
   46.5044   32.9524   43.7182 H   0  0  0  0  0  0  0  0  0  0  0  0
   45.3123   33.4226   45.8835 H   0  0  0  0  0  0  0  0  0  0  0  0
   44.1714   37.2613   44.3854 H   0  0  0  0  0  0  0  0  0  0  0  0
   46.7823   32.3243   40.6262 H   0  0  0  0  0  0  0  0  0  0  0  0
   52.8768   31.2849   40.7117 H   0  0  0  0  0  0  0  0  0  0  0  0
   54.0318   31.2806   38.5280 H   0  0  0  0  0  0  0  0  0  0  0  0
   50.9844   30.0905   34.6964 H   0  0  0  0  0  0  0  0  0  0  0  0
   47.4134   33.3656   35.5172 H   0  0  0  0  0  0  0  0  0  0  0  0
  1  6  2  0
  1  2  1  0
  2  3  2  0
  3  4  1  0
  5  4  2  0
  6  5  1  0
  7  2  1  0
  7  8  1  0
  8 13  1  0
  8  9  2  0
  9 10  1  0
 10 11  2  0
 12 11  1  0
 13 12  2  0
 14  1  1  0
 15  6  1  0
 16 15  1  0
 17 16  2  0
 18 17  1  0
 19 20  1  0
 19 18  2  0
 20 21  2  0
 21 16  1  0
 22 26  1  0
 22 20  1  0
 23 22  2  0
 24 23  1  0
 24 25  1  0
 25 26  2  0
  3 27  1  0
  4 28  1  0
  5 29  1  0
  7 30  1  0
  7 31  1  0
  9 32  1  0
 10 33  1  0
 12 34  1  0
 14 35  1  0
 17 36  1  0
 18 37  1  0
 23 38  1  0
 25 39  1  0
M  ISO  8  27  14  28  14  29  14  30   8  31   8  32  14  33  14  34  14
M  ISO  5  35   3  36  14  37  14  38  14  39  14
M  END
>  <minimizedAffinity>  (1) 
-5.87126446

>  <minimizedRMSD>  (1) 
0.613686979

$$$$
