
     RDKit          3D

 25 26  0  0  1  0  0  0  0  0999 V2000
   46.8270   32.7580   43.1540 C   0  0  1  0  0  0  0  0  0  0  0  0
   47.3580   32.7440   41.8140 C   0  0  0  0  0  0  0  0  0  0  0  0
   48.3180   33.0190   42.9290 C   0  0  1  0  0  0  0  0  0  0  0  0
   45.6900   34.9770   42.8160 C   0  0  0  0  0  0  0  0  0  0  0  0
   46.0130   33.9080   43.6560 C   0  0  0  0  0  0  0  0  0  0  0  0
   45.5820   33.9570   44.9890 C   0  0  0  0  0  0  0  0  0  0  0  0
   44.8690   35.0480   45.3970 N   0  0  0  0  0  0  0  0  0  0  0  0
   44.5760   36.0550   44.5700 C   0  0  0  0  0  0  0  0  0  0  0  0
   44.9860   36.0340   43.2590 N   0  0  0  0  0  0  0  0  0  0  0  0
   48.7980   34.2620   43.2810 N   0  0  0  0  0  0  0  0  0  0  0  0
   49.7330   34.9960   42.5490 C   0  0  0  0  0  0  0  0  0  0  0  0
   49.1000   35.9650   41.5490 C   0  0  0  0  0  0  0  0  0  0  0  0
   46.2137   32.0439   43.7232 H   0  0  0  0  0  0  0  0  0  0  0  0
   47.0912   33.5517   41.1165 H   0  0  0  0  0  0  0  0  0  0  0  0
   47.3340   32.0121   40.9932 H   0  0  0  0  0  0  0  0  0  0  0  0
   49.2981   32.5955   43.1938 H   0  0  0  0  0  0  0  0  0  0  0  0
   46.0196   34.9535   41.7668 H   0  0  0  0  0  0  0  0  0  0  0  0
   45.8119   33.1389   45.6875 H   0  0  0  0  0  0  0  0  0  0  0  0
   43.9983   36.9132   44.9439 H   0  0  0  0  0  0  0  0  0  0  0  0
   47.9676   34.8673   43.3509 H   0  0  0  0  0  0  0  0  0  0  0  0
   50.3492   35.5750   43.2526 H   0  0  0  0  0  0  0  0  0  0  0  0
   50.3280   34.2752   41.9690 H   0  0  0  0  0  0  0  0  0  0  0  0
   48.5775   36.7649   42.0940 H   0  0  0  0  0  0  0  0  0  0  0  0
   49.8856   36.4047   40.9169 H   0  0  0  0  0  0  0  0  0  0  0  0
   48.3817   35.4223   40.9169 H   0  0  0  0  0  0  0  0  0  0  0  0
  1  5  1  0
  2  3  1  0
  2  1  1  0
  3  1  1  0
  3 10  1  0
  4  9  2  0
  4  5  1  0
  5  6  2  0
  6  7  1  0
  8  7  2  0
  9  8  1  0
 11 10  1  0
 12 11  1  0
  1 13  1  1
  2 14  1  0
  2 15  1  0
  3 16  1  1
  4 17  1  0
  6 18  1  0
  8 19  1  0
 10 20  1  0
 11 21  1  0
 11 22  1  0
 12 23  1  0
 12 24  1  0
 12 25  1  0
M  ISO  8  13  13  14  13  15  13  16  13  17  14  18  14  19  14  20   5
M  ISO  5  21   8  22   8  23   8  24   8  25   8
M  END
>  <minimizedAffinity>  (1) 
-4.16236067

>  <minimizedRMSD>  (1) 
1.97759318

$$$$
