
     RDKit          3D

 36 38  0  0  0  0  0  0  0  0999 V2000
   48.4920   33.1000   41.4000 C   0  0  0  0  0  0  0  0  0  0  0  0
   48.0610   34.3230   41.8350 C   0  0  0  0  0  0  0  0  0  0  0  0
   48.9410   35.1590   42.4570 C   0  0  0  0  0  0  0  0  0  0  0  0
   50.2630   34.7590   42.6440 C   0  0  0  0  0  0  0  0  0  0  0  0
   50.6650   33.5280   42.1970 C   0  0  0  0  0  0  0  0  0  0  0  0
   49.7730   32.6610   41.5560 C   0  0  0  0  0  0  0  0  0  0  0  0
   46.6530   34.6630   41.5990 C   0  0  0  0  0  0  0  0  0  0  0  0
   45.9410   34.9190   42.9140 C   0  0  0  0  0  0  0  0  0  0  0  0
   45.9800   33.9090   43.8740 C   0  0  0  0  0  0  0  0  0  0  0  0
   45.3300   34.1580   45.0640 C   0  0  0  0  0  0  0  0  0  0  0  0
   44.7060   35.3400   45.2290 N   0  0  0  0  0  0  0  0  0  0  0  0
   44.6860   36.3030   44.2730 C   0  0  0  0  0  0  0  0  0  0  0  0
   45.3040   36.0880   43.1210 N   0  0  0  0  0  0  0  0  0  0  0  0
   47.6640   32.1710   40.7490 O   0  0  0  0  0  0  0  0  0  0  0  0
   50.2900   31.4300   41.1420 O   0  0  0  0  0  0  0  0  0  0  0  0
   50.8010   31.4280   39.8430 C   0  0  0  0  0  0  0  0  0  0  0  0
   52.1650   31.3880   39.6700 C   0  0  0  0  0  0  0  0  0  0  0  0
   52.7700   31.3840   38.4150 C   0  0  0  0  0  0  0  0  0  0  0  0
   51.9790   31.4190   37.3330 N   0  0  0  0  0  0  0  0  0  0  0  0
   50.6550   31.4570   37.5020 C   0  0  0  0  0  0  0  0  0  0  0  0
   50.0750   31.4620   38.7190 N   0  0  0  0  0  0  0  0  0  0  0  0
   49.8000   31.4960   36.2690 C   0  0  0  0  0  0  0  0  0  0  0  0
   48.6083   36.1462   42.8101 H   0  0  0  0  0  0  0  0  0  0  0  0
   50.9782   35.4267   43.1467 H   0  0  0  0  0  0  0  0  0  0  0  0
   51.7091   33.2150   42.3448 H   0  0  0  0  0  0  0  0  0  0  0  0
   46.5986   35.5677   40.9757 H   0  0  0  0  0  0  0  0  0  0  0  0
   46.1643   33.8205   41.0877 H   0  0  0  0  0  0  0  0  0  0  0  0
   46.5040   32.9593   43.6909 H   0  0  0  0  0  0  0  0  0  0  0  0
   45.3212   33.4041   45.8650 H   0  0  0  0  0  0  0  0  0  0  0  0
   44.1616   37.2531   44.4529 H   0  0  0  0  0  0  0  0  0  0  0  0
   46.7122   32.3872   40.5832 H   0  0  0  0  0  0  0  0  0  0  0  0
   52.8070   31.3578   40.5627 H   0  0  0  0  0  0  0  0  0  0  0  0
   53.8650   31.3530   38.3147 H   0  0  0  0  0  0  0  0  0  0  0  0
   48.7401   31.5443   36.5592 H   0  0  0  0  0  0  0  0  0  0  0  0
   50.0576   32.3833   35.6721 H   0  0  0  0  0  0  0  0  0  0  0  0
   49.9757   30.5889   35.6721 H   0  0  0  0  0  0  0  0  0  0  0  0
  1  6  2  0
  1  2  1  0
  2  3  2  0
  3  4  1  0
  5  4  2  0
  6  5  1  0
  7  2  1  0
  7  8  1  0
  8 13  1  0
  8  9  2  0
  9 10  1  0
 10 11  2  0
 12 11  1  0
 13 12  2  0
 14  1  1  0
 15  6  1  0
 16 15  1  0
 17 16  2  0
 18 17  1  0
 19 20  1  0
 19 18  2  0
 20 21  2  0
 21 16  1  0
 22 20  1  0
  3 23  1  0
  4 24  1  0
  5 25  1  0
  7 26  1  0
  7 27  1  0
  9 28  1  0
 10 29  1  0
 12 30  1  0
 14 31  1  0
 17 32  1  0
 18 33  1  0
 22 34  1  0
 22 35  1  0
 22 36  1  0
M  ISO  8  23  14  24  14  25  14  26   8  27   8  28  14  29  14  30  14
M  ISO  6  31   3  32  14  33  14  34   8  35   8  36   8
M  END
>  <minimizedAffinity>  (1) 
-5.48566771

>  <minimizedRMSD>  (1) 
0.472077578

$$$$
