
     RDKit          3D

 12 12  0  0  0  0  0  0  0  0999 V2000
   45.0970   35.3590   44.1760 C   0  0  0  0  0  0  0  0  0  0  0  0
   46.1240   34.7910   43.3870 C   0  0  0  0  0  0  0  0  0  0  0  0
   46.8640   33.7110   43.9160 C   0  0  0  0  0  0  0  0  0  0  0  0
   46.5330   33.2870   45.1690 N   0  0  0  0  0  0  0  0  0  0  0  0
   45.5510   33.8500   45.8940 C   0  0  0  0  0  0  0  0  0  0  0  0
   44.8440   34.8760   45.3970 N   0  0  0  0  0  0  0  0  0  0  0  0
   44.3510   36.4480   43.6450 N   0  0  0  0  0  0  0  0  0  0  0  0
   46.3418   35.1823   42.3823 H   0  0  0  0  0  0  0  0  0  0  0  0
   47.6718   33.2328   43.3426 H   0  0  0  0  0  0  0  0  0  0  0  0
   45.3259   33.4673   46.9004 H   0  0  0  0  0  0  0  0  0  0  0  0
   44.5615   36.8054   42.7022 H   0  0  0  0  0  0  0  0  0  0  0  0
   43.6004   36.8790   44.2034 H   0  0  0  0  0  0  0  0  0  0  0  0
  1  6  2  0
  2  3  2  0
  2  1  1  0
  3  4  1  0
  4  5  2  0
  6  5  1  0
  7  1  1  0
  2  8  1  0
  3  9  1  0
  5 10  1  0
  7 11  1  0
  7 12  1  0
M  ISO  3   8  14   9  14  10  14
M  END
>  <minimizedAffinity>  (1) 
-2.93673515

>  <minimizedRMSD>  (1) 
0.891784728

$$$$
