
     RDKit          3D

 22 23  0  0  0  0  0  0  0  0999 V2000
   44.9860   35.0760   45.2180 C   0  0  0  0  0  0  0  0  0  0  0  0
   44.4360   35.9260   44.2290 C   0  0  0  0  0  0  0  0  0  0  0  0
   44.9700   35.8300   42.9160 C   0  0  0  0  0  0  0  0  0  0  0  0
   45.9660   34.9360   42.6990 N   0  0  0  0  0  0  0  0  0  0  0  0
   46.4570   34.1470   43.6780 C   0  0  0  0  0  0  0  0  0  0  0  0
   45.9730   34.2170   44.9170 N   0  0  0  0  0  0  0  0  0  0  0  0
   44.4670   35.1520   46.5510 N   0  0  0  0  0  0  0  0  0  0  0  0
   48.8270   35.3880   42.2430 Cl  0  0  0  0  0  0  0  0  0  0  0  0
   48.6500   33.7120   42.6730 C   0  0  0  0  0  0  0  0  0  0  0  0
   47.5230   33.2240   43.3340 C   0  0  0  0  0  0  0  0  0  0  0  0
   47.4010   31.8790   43.6690 C   0  0  0  0  0  0  0  0  0  0  0  0
   48.4530   31.0620   43.3110 C   0  0  0  0  0  0  0  0  0  0  0  0
   49.5920   31.5040   42.6530 C   0  0  0  0  0  0  0  0  0  0  0  0
   49.6770   32.8530   42.3360 C   0  0  0  0  0  0  0  0  0  0  0  0
   43.6274   36.6327   44.4674 H   0  0  0  0  0  0  0  0  0  0  0  0
   44.5873   36.4614   42.1007 H   0  0  0  0  0  0  0  0  0  0  0  0
   44.8506   34.5438   47.2885 H   0  0  0  0  0  0  0  0  0  0  0  0
   43.7102   35.8148   46.7720 H   0  0  0  0  0  0  0  0  0  0  0  0
   46.5145   31.4889   44.1905 H   0  0  0  0  0  0  0  0  0  0  0  0
   48.3849   29.9934   43.5628 H   0  0  0  0  0  0  0  0  0  0  0  0
   50.4020   30.8075   42.3908 H   0  0  0  0  0  0  0  0  0  0  0  0
   50.5655   33.2387   41.8146 H   0  0  0  0  0  0  0  0  0  0  0  0
  1  7  1  0
  2  1  2  0
  3  2  1  0
  4  3  2  0
  4  5  1  0
  5  6  2  0
  6  1  1  0
  8  9  1  0
  9 10  2  0
 10 11  1  0
 10  5  1  0
 12 11  2  0
 13 12  1  0
 14 13  2  0
 14  9  1  0
  2 15  1  0
  3 16  1  0
  7 17  1  0
  7 18  1  0
 11 19  1  0
 12 20  1  0
 13 21  1  0
 14 22  1  0
M  ISO  6  15  14  16  14  19  14  20  14  21  14  22  14
M  END
>  <minimizedAffinity>  (1) 
-4.90506983

>  <minimizedRMSD>  (1) 
4.99388885

$$$$
