
     RDKit          3D

 15 15  0  0  0  0  0  0  0  0999 V2000
   45.1160   33.8800   46.6430 C   0  0  0  0  0  0  0  0  0  0  0  0
   46.0210   33.5960   45.6030 C   0  0  0  0  0  0  0  0  0  0  0  0
   46.8510   32.4700   45.7120 C   0  0  0  0  0  0  0  0  0  0  0  0
   46.7200   31.7160   46.8410 N   0  0  0  0  0  0  0  0  0  0  0  0
   45.8450   32.0100   47.8250 C   0  0  0  0  0  0  0  0  0  0  0  0
   45.0480   33.0880   47.7240 N   0  0  0  0  0  0  0  0  0  0  0  0
   44.2770   35.0140   46.5390 N   0  0  0  0  0  0  0  0  0  0  0  0
   45.7830   31.1180   49.0180 C   0  0  0  0  0  0  0  0  0  0  0  0
   45.1250   31.7740   50.0470 F   0  0  0  0  0  0  0  0  0  0  0  0
   45.0610   29.9600   48.7330 F   0  0  0  0  0  0  0  0  0  0  0  0
   47.0470   30.8080   49.4900 F   0  0  0  0  0  0  0  0  0  0  0  0
   46.0767   34.2470   44.7181 H   0  0  0  0  0  0  0  0  0  0  0  0
   47.5729   32.2078   44.9245 H   0  0  0  0  0  0  0  0  0  0  0  0
   44.3312   35.6203   45.7081 H   0  0  0  0  0  0  0  0  0  0  0  0
   43.6118   35.2335   47.2942 H   0  0  0  0  0  0  0  0  0  0  0  0
  1  6  2  0
  2  3  2  0
  2  1  1  0
  3  4  1  0
  4  5  2  0
  5  8  1  0
  6  5  1  0
  7  1  1  0
  8 11  1  0
  8  9  1  0
 10  8  1  0
  2 12  1  0
  3 13  1  0
  7 14  1  0
  7 15  1  0
M  ISO  2  12  14  13  14
M  END
>  <minimizedAffinity>  (1) 
-4.36699533

>  <minimizedRMSD>  (1) 
2.81443644

$$$$
