
     RDKit          3D

 26 27  0  0  0  0  0  0  0  0999 V2000
   45.9480   32.7440   46.6230 C   0  0  0  0  0  0  0  0  0  0  0  0
   45.0510   32.9590   47.5040 O   0  0  0  0  0  0  0  0  0  0  0  0
   44.9590   35.1330   44.0870 C   0  0  0  0  0  0  0  0  0  0  0  0
   45.9950   35.0800   43.1500 C   0  0  0  0  0  0  0  0  0  0  0  0
   47.0650   34.2070   43.3810 C   0  0  0  0  0  0  0  0  0  0  0  0
   47.0320   33.4640   44.5020 N   0  0  0  0  0  0  0  0  0  0  0  0
   46.0350   33.5190   45.4000 C   0  0  0  0  0  0  0  0  0  0  0  0
   45.0020   34.3560   45.1850 N   0  0  0  0  0  0  0  0  0  0  0  0
   43.8770   36.0170   43.8540 N   0  0  0  0  0  0  0  0  0  0  0  0
   47.2920   31.5010   48.2720 C   0  0  0  0  0  0  0  0  0  0  0  0
   46.8560   31.6560   46.9750 C   0  0  0  0  0  0  0  0  0  0  0  0
   47.3470   30.7170   46.0930 C   0  0  0  0  0  0  0  0  0  0  0  0
   48.2050   29.6920   46.4290 C   0  0  0  0  0  0  0  0  0  0  0  0
   48.6170   29.5740   47.7390 C   0  0  0  0  0  0  0  0  0  0  0  0
   48.1550   30.4880   48.6620 C   0  0  0  0  0  0  0  0  0  0  0  0
   46.8880   32.3720   49.3020 O   0  0  0  0  0  0  0  0  0  0  0  0
   48.5720   30.3650   49.9810 O   0  0  0  0  0  0  0  0  0  0  0  0
   45.9701   35.7113   42.2495 H   0  0  0  0  0  0  0  0  0  0  0  0
   47.9023   34.1314   42.6716 H   0  0  0  0  0  0  0  0  0  0  0  0
   43.8639   36.6029   43.0070 H   0  0  0  0  0  0  0  0  0  0  0  0
   43.1033   36.0739   44.5316 H   0  0  0  0  0  0  0  0  0  0  0  0
   47.0302   30.7914   45.0422 H   0  0  0  0  0  0  0  0  0  0  0  0
   48.5545   28.9812   45.6657 H   0  0  0  0  0  0  0  0  0  0  0  0
   49.3005   28.7671   48.0419 H   0  0  0  0  0  0  0  0  0  0  0  0
   46.2720   33.1212   49.1036 H   0  0  0  0  0  0  0  0  0  0  0  0
   49.1885   29.6347   50.2392 H   0  0  0  0  0  0  0  0  0  0  0  0
  1 11  1  0
  1  2  2  0
  3  8  2  0
  4  5  2  0
  4  3  1  0
  5  6  1  0
  6  7  2  0
  7  1  1  0
  8  7  1  0
  9  3  1  0
 10 15  2  0
 10 16  1  0
 11 10  1  0
 12 13  1  0
 12 11  2  0
 13 14  2  0
 14 15  1  0
 15 17  1  0
  4 18  1  0
  5 19  1  0
  9 20  1  0
  9 21  1  0
 12 22  1  0
 13 23  1  0
 14 24  1  0
 16 25  1  0
 17 26  1  0
M  ISO  7  18  14  19  14  22  14  23  14  24  14  25   3  26   3
M  END
>  <minimizedAffinity>  (1) 
-5.53227091

>  <minimizedRMSD>  (1) 
1.40973043

$$$$
