
     RDKit          3D

 30 32  0  0  1  0  0  0  0  0999 V2000
   45.8990   32.2280   45.0740 C   0  0  0  0  0  0  0  0  0  0  0  0
   45.5730   31.2740   44.2480 O   0  0  0  0  0  0  0  0  0  0  0  0
   45.9680   33.4290   44.2680 C   0  0  0  0  0  0  0  0  0  0  0  0
   44.9280   34.2710   44.2630 N   0  0  0  0  0  0  0  0  0  0  0  0
   44.9130   35.4250   43.5270 C   0  0  0  0  0  0  0  0  0  0  0  0
   45.9540   35.7830   42.7570 N   0  0  0  0  0  0  0  0  0  0  0  0
   47.0550   34.9890   42.6950 C   0  0  0  0  0  0  0  0  0  0  0  0
   48.1270   35.3090   41.9000 C   0  0  0  0  0  0  0  0  0  0  0  0
   49.2300   34.4910   41.8190 C   0  0  0  0  0  0  0  0  0  0  0  0
   49.2070   33.3210   42.5780 C   0  0  0  0  0  0  0  0  0  0  0  0
   48.1110   33.0480   43.3560 C   0  0  0  0  0  0  0  0  0  0  0  0
   46.9970   33.8470   43.4600 C   0  0  0  0  0  0  0  0  0  0  0  0
   47.1630   30.4670   47.9630 C   0  0  0  0  0  0  0  0  0  0  0  0
   46.6510   31.1970   49.0660 C   0  0  0  0  0  0  0  0  0  0  0  0
   45.8490   32.3180   48.8180 C   0  0  0  0  0  0  0  0  0  0  0  0
   45.6100   32.6410   47.5440 N   0  0  0  0  0  0  0  0  0  0  0  0
   46.1030   31.9410   46.4930 C   0  0  0  0  0  0  0  0  0  0  0  0
   46.8720   30.8660   46.7030 N   0  0  0  0  0  0  0  0  0  0  0  0
   47.9650   29.3330   48.2290 N   0  0  0  0  0  0  0  0  0  0  0  0
   44.8341   32.4249   45.2669 H   0  0  0  0  0  0  0  0  0  0  0  0
   45.2992   30.4727   44.7609 H   0  0  0  0  0  0  0  0  0  0  0  0
   44.0267   36.0753   43.5670 H   0  0  0  0  0  0  0  0  0  0  0  0
   48.1037   36.2401   41.3147 H   0  0  0  0  0  0  0  0  0  0  0  0
   50.0910   34.7479   41.1845 H   0  0  0  0  0  0  0  0  0  0  0  0
   50.0584   32.6250   42.5529 H   0  0  0  0  0  0  0  0  0  0  0  0
   48.1243   32.1174   43.9424 H   0  0  0  0  0  0  0  0  0  0  0  0
   46.8795   30.8885   50.0968 H   0  0  0  0  0  0  0  0  0  0  0  0
   45.4303   32.9120   49.6438 H   0  0  0  0  0  0  0  0  0  0  0  0
   48.3519   28.7816   47.4498 H   0  0  0  0  0  0  0  0  0  0  0  0
   48.1622   29.0585   49.2019 H   0  0  0  0  0  0  0  0  0  0  0  0
  1  2  1  0
  1 17  1  0
  3  1  1  0
  4  3  2  0
  5  4  1  0
  6  5  2  0
  7  6  1  0
  7 12  2  0
  8  7  1  0
  9  8  2  0
  9 10  1  0
 10 11  2  0
 11 12  1  0
 12  3  1  0
 13 19  1  0
 13 14  2  0
 15 14  1  0
 16 15  2  0
 17 18  2  0
 17 16  1  0
 18 13  1  0
  1 20  1  0
  2 21  1  0
  5 22  1  0
  8 23  1  0
  9 24  1  0
 10 25  1  0
 11 26  1  0
 14 27  1  0
 15 28  1  0
 19 29  1  0
 19 30  1  0
M  ISO  8  20   8  21   3  22  14  23  14  24  14  25  14  26  14  27  14
M  ISO  1  28  14
M  END
>  <minimizedAffinity>  (1) 
-5.50971889

>  <minimizedRMSD>  (1) 
6.51730108

$$$$
