
     RDKit          3D

 21 22  0  0  1  0  0  0  0  0999 V2000
   46.3140   33.5660   42.0850 C   0  0  1  0  0  0  0  0  0  0  0  0
   46.8050   34.3670   40.9880 C   0  0  0  0  0  0  0  0  0  0  0  0
   47.8160   33.7370   41.8610 C   0  0  1  0  0  0  0  0  0  0  0  0
   45.1940   35.5570   43.2390 C   0  0  0  0  0  0  0  0  0  0  0  0
   45.7150   34.2480   43.2890 C   0  0  0  0  0  0  0  0  0  0  0  0
   45.6860   33.5630   44.4890 C   0  0  0  0  0  0  0  0  0  0  0  0
   45.1540   34.1850   45.5730 N   0  0  0  0  0  0  0  0  0  0  0  0
   44.6520   35.4450   45.5270 C   0  0  0  0  0  0  0  0  0  0  0  0
   44.6770   36.1320   44.3350 N   0  0  0  0  0  0  0  0  0  0  0  0
   48.5080   34.3570   42.9180 N   0  0  0  0  0  0  0  0  0  0  0  0
   49.8130   34.8690   42.6580 C   0  0  0  0  0  0  0  0  0  0  0  0
   50.8570   34.1580   42.5280 O   0  0  0  0  0  0  0  0  0  0  0  0
   45.6148   32.7208   42.1663 H   0  0  0  0  0  0  0  0  0  0  0  0
   46.6728   35.4587   41.0133 H   0  0  0  0  0  0  0  0  0  0  0  0
   46.6277   34.3581   39.9024 H   0  0  0  0  0  0  0  0  0  0  0  0
   48.7200   33.1563   41.6253 H   0  0  0  0  0  0  0  0  0  0  0  0
   45.2117   36.1133   42.2902 H   0  0  0  0  0  0  0  0  0  0  0  0
   46.0836   32.5401   44.5643 H   0  0  0  0  0  0  0  0  0  0  0  0
   44.2309   35.9107   46.4302 H   0  0  0  0  0  0  0  0  0  0  0  0
   48.0837   34.4386   43.8530 H   0  0  0  0  0  0  0  0  0  0  0  0
   49.9235   35.9593   42.5631 H   0  0  0  0  0  0  0  0  0  0  0  0
  1  5  1  0
  2  3  1  0
  2  1  1  0
  3  1  1  0
  3 10  1  0
  4  5  2  0
  4  9  1  0
  5  6  1  0
  6  7  2  0
  8  7  1  0
  9  8  2  0
 11 10  1  0
 12 11  2  0
  1 13  1  6
  2 14  1  0
  2 15  1  0
  3 16  1  6
  4 17  1  0
  6 18  1  0
  8 19  1  0
 10 20  1  0
 11 21  1  0
M  ISO  8  13  13  14  13  15  13  16  13  17  14  18  14  19  14  21   6
M  END
>  <minimizedAffinity>  (1) 
-3.9147253

>  <minimizedRMSD>  (1) 
1.70654082

$$$$
