
     RDKit          3D

 40 42  0  0  1  0  0  0  0  0999 V2000
   47.2520   31.8740   47.3070 C   0  0  1  0  0  0  0  0  0  0  0  0
   47.7930   32.3710   48.6340 C   0  0  0  0  0  0  0  0  0  0  0  0
   48.9980   31.5640   49.0210 C   0  0  0  0  0  0  0  0  0  0  0  0
   48.6660   30.1100   49.0320 C   0  0  0  0  0  0  0  0  0  0  0  0
   48.0840   29.6330   47.7330 C   0  0  0  0  0  0  0  0  0  0  0  0
   46.7930   30.4080   47.5220 C   0  0  2  0  0  0  0  0  0  0  0  0
   45.9580   29.8680   46.4740 C   0  0  0  0  0  0  0  0  0  0  0  0
   46.1480   29.8310   45.0850 C   0  0  0  0  0  0  0  0  0  0  0  0
   45.2210   29.2620   44.2390 C   0  0  0  0  0  0  0  0  0  0  0  0
   44.0600   28.7020   44.7220 C   0  0  0  0  0  0  0  0  0  0  0  0
   43.8350   28.7160   46.0620 C   0  0  0  0  0  0  0  0  0  0  0  0
   44.7600   29.2830   46.9010 C   0  0  0  0  0  0  0  0  0  0  0  0
   46.1060   32.7320   46.9080 C   0  0  0  0  0  0  0  0  0  0  0  0
   45.2050   32.7160   47.7900 O   0  0  0  0  0  0  0  0  0  0  0  0
   44.8940   35.0620   44.4260 C   0  0  0  0  0  0  0  0  0  0  0  0
   45.8240   34.9480   43.3830 C   0  0  0  0  0  0  0  0  0  0  0  0
   46.8910   34.0570   43.5330 C   0  0  0  0  0  0  0  0  0  0  0  0
   46.9360   33.3690   44.6930 N   0  0  0  0  0  0  0  0  0  0  0  0
   46.0650   33.4740   45.6730 C   0  0  0  0  0  0  0  0  0  0  0  0
   45.0280   34.3330   45.5390 N   0  0  0  0  0  0  0  0  0  0  0  0
   43.8190   35.9610   44.2720 N   0  0  0  0  0  0  0  0  0  0  0  0
   48.0105   31.9168   46.5115 H   0  0  0  0  0  0  0  0  0  0  0  0
   48.0762   33.4298   48.5403 H   0  0  0  0  0  0  0  0  0  0  0  0
   47.0181   32.2639   49.4074 H   0  0  0  0  0  0  0  0  0  0  0  0
   49.8049   31.7464   48.2960 H   0  0  0  0  0  0  0  0  0  0  0  0
   49.3213   31.8647   50.0285 H   0  0  0  0  0  0  0  0  0  0  0  0
   49.5859   29.5416   49.2340 H   0  0  0  0  0  0  0  0  0  0  0  0
   47.9065   29.9511   49.8117 H   0  0  0  0  0  0  0  0  0  0  0  0
   48.7843   29.8313   46.9083 H   0  0  0  0  0  0  0  0  0  0  0  0
   47.8955   28.5496   47.7580 H   0  0  0  0  0  0  0  0  0  0  0  0
   46.1170   30.3345   48.3867 H   0  0  0  0  0  0  0  0  0  0  0  0
   47.0628   30.2685   44.6588 H   0  0  0  0  0  0  0  0  0  0  0  0
   45.4126   29.2551   43.1558 H   0  0  0  0  0  0  0  0  0  0  0  0
   43.3278   28.2514   44.0358 H   0  0  0  0  0  0  0  0  0  0  0  0
   42.9148   28.2744   46.4721 H   0  0  0  0  0  0  0  0  0  0  0  0
   44.5466   29.2777   47.9801 H   0  0  0  0  0  0  0  0  0  0  0  0
   45.7165   35.5466   42.4664 H   0  0  0  0  0  0  0  0  0  0  0  0
   47.6513   33.9243   42.7492 H   0  0  0  0  0  0  0  0  0  0  0  0
   43.7306   36.5150   43.4082 H   0  0  0  0  0  0  0  0  0  0  0  0
   43.1220   36.0638   45.0233 H   0  0  0  0  0  0  0  0  0  0  0  0
  1  6  1  0
  1  2  1  0
  2  3  1  0
  3  4  1  0
  5  4  1  0
  6  5  1  0
  7 12  1  0
  7  6  1  0
  8  7  2  0
  9 10  2  0
  9  8  1  0
 10 11  1  0
 11 12  2  0
 13  1  1  0
 13 14  2  0
 15 20  2  0
 16 17  2  0
 16 15  1  0
 17 18  1  0
 18 19  2  0
 19 13  1  0
 20 19  1  0
 21 15  1  0
  1 22  1  6
  2 23  1  0
  2 24  1  0
  3 25  1  0
  3 26  1  0
  4 27  1  0
  4 28  1  0
  5 29  1  0
  5 30  1  0
  6 31  1  1
  8 32  1  0
  9 33  1  0
 10 34  1  0
 11 35  1  0
 12 36  1  0
 16 37  1  0
 17 38  1  0
 21 39  1  0
 21 40  1  0
M  ISO  8  22  13  23  13  24  13  25  13  26  13  27  13  28  13  29  13
M  ISO  8  30  13  31  13  32  14  33  14  34  14  35  14  36  14  37  14
M  ISO  1  38  14
M  END
>  <minimizedAffinity>  (1) 
-5.77863693

>  <minimizedRMSD>  (1) 
1.41773152

$$$$
