
     RDKit          3D

 37 39  0  0  1  0  0  0  0  0999 V2000
   47.2750   31.8440   47.3390 C   0  0  1  0  0  0  0  0  0  0  0  0
   47.8130   32.3600   48.6610 C   0  0  0  0  0  0  0  0  0  0  0  0
   49.0440   31.5920   49.0370 C   0  0  0  0  0  0  0  0  0  0  0  0
   48.7230   30.1250   49.0790 C   0  0  0  0  0  0  0  0  0  0  0  0
   48.1350   29.6210   47.7940 C   0  0  0  0  0  0  0  0  0  0  0  0
   46.8380   30.3840   47.5690 C   0  0  2  0  0  0  0  0  0  0  0  0
   45.9310   29.8040   46.6770 C   0  0  0  0  0  0  0  0  0  0  0  0
   44.7040   29.2670   46.8440 C   0  0  0  0  0  0  0  0  0  0  0  0
   43.8840   28.7320   45.9500 C   0  0  0  0  0  0  0  0  0  0  0  0
   44.5650   28.8080   44.5960 C   0  0  0  0  0  0  0  0  0  0  0  0
   46.2630   29.6320   44.8230 S   0  0  0  0  0  0  0  0  0  0  0  0
   46.1260   32.6900   46.9320 C   0  0  0  0  0  0  0  0  0  0  0  0
   45.2160   32.6690   47.8030 O   0  0  0  0  0  0  0  0  0  0  0  0
   44.9340   35.0140   44.4290 C   0  0  0  0  0  0  0  0  0  0  0  0
   45.8490   34.8930   43.3940 C   0  0  0  0  0  0  0  0  0  0  0  0
   46.9040   34.0040   43.5510 C   0  0  0  0  0  0  0  0  0  0  0  0
   46.9380   33.3270   44.7170 N   0  0  0  0  0  0  0  0  0  0  0  0
   46.0760   33.4340   45.7040 C   0  0  0  0  0  0  0  0  0  0  0  0
   45.0520   34.2930   45.5620 N   0  0  0  0  0  0  0  0  0  0  0  0
   43.8470   35.9260   44.3090 N   0  0  0  0  0  0  0  0  0  0  0  0
   48.0292   31.8838   46.5392 H   0  0  0  0  0  0  0  0  0  0  0  0
   48.0627   33.4268   48.5633 H   0  0  0  0  0  0  0  0  0  0  0  0
   47.0490   32.2307   49.4418 H   0  0  0  0  0  0  0  0  0  0  0  0
   49.8322   31.7741   48.2916 H   0  0  0  0  0  0  0  0  0  0  0  0
   49.3940   31.9202   50.0268 H   0  0  0  0  0  0  0  0  0  0  0  0
   49.6494   29.5683   49.2837 H   0  0  0  0  0  0  0  0  0  0  0  0
   47.9724   29.9729   49.8686 H   0  0  0  0  0  0  0  0  0  0  0  0
   48.8309   29.8052   46.9622 H   0  0  0  0  0  0  0  0  0  0  0  0
   47.9495   28.5380   47.8453 H   0  0  0  0  0  0  0  0  0  0  0  0
   46.1717   30.3417   48.4432 H   0  0  0  0  0  0  0  0  0  0  0  0
   44.3276   29.2743   47.8776 H   0  0  0  0  0  0  0  0  0  0  0  0
   42.8891   28.3091   46.1532 H   0  0  0  0  0  0  0  0  0  0  0  0
   44.1470   28.4474   43.6445 H   0  0  0  0  0  0  0  0  0  0  0  0
   45.7419   35.4854   42.4734 H   0  0  0  0  0  0  0  0  0  0  0  0
   47.6664   33.8605   42.7711 H   0  0  0  0  0  0  0  0  0  0  0  0
   43.7376   36.4870   43.4521 H   0  0  0  0  0  0  0  0  0  0  0  0
   43.1701   36.0247   45.0791 H   0  0  0  0  0  0  0  0  0  0  0  0
  1  6  1  0
  1  2  1  0
  2  3  1  0
  3  4  1  0
  5  4  1  0
  6  5  1  0
  7  8  2  0
  7  6  1  0
  9  8  1  0
 10 11  1  0
 10  9  2  0
 11  7  1  0
 12  1  1  0
 12 13  2  0
 14 19  2  0
 15 16  2  0
 15 14  1  0
 16 17  1  0
 17 18  2  0
 18 12  1  0
 19 18  1  0
 20 14  1  0
  1 21  1  6
  2 22  1  0
  2 23  1  0
  3 24  1  0
  3 25  1  0
  4 26  1  0
  4 27  1  0
  5 28  1  0
  5 29  1  0
  6 30  1  1
  8 31  1  0
  9 32  1  0
 10 33  1  0
 15 34  1  0
 16 35  1  0
 20 36  1  0
 20 37  1  0
M  ISO  8  21  13  22  13  23  13  24  13  25  13  26  13  27  13  28  13
M  ISO  7  29  13  30  13  31  14  32  14  33  14  34  14  35  14
M  END
>  <minimizedAffinity>  (1) 
-5.63461399

>  <minimizedRMSD>  (1) 
1.28613305

$$$$
