
     RDKit          3D

 42 44  0  0  1  0  0  0  0  0999 V2000
   47.2100   31.8710   47.3510 C   0  0  1  0  0  0  0  0  0  0  0  0
   47.8550   32.3770   48.6220 C   0  0  0  0  0  0  0  0  0  0  0  0
   49.0380   31.5590   49.0100 C   0  0  0  0  0  0  0  0  0  0  0  0
   48.6960   30.1130   49.0190 C   0  0  0  0  0  0  0  0  0  0  0  0
   48.1240   29.6740   47.6920 C   0  0  0  0  0  0  0  0  0  0  0  0
   46.7910   30.4170   47.5350 C   0  0  2  0  0  0  0  0  0  0  0  0
   45.9480   29.8420   46.5980 N   0  0  0  0  0  0  0  0  0  0  0  0
   44.6830   29.3600   46.9790 C   0  0  0  0  0  0  0  0  0  0  0  0
   44.6700   27.8480   46.6590 C   0  0  0  0  0  0  0  0  0  0  0  0
   45.5260   27.8500   45.4110 C   0  0  0  0  0  0  0  0  0  0  0  0
   46.6450   28.7950   45.8770 C   0  0  0  0  0  0  0  0  0  0  0  0
   46.1200   32.7650   46.9500 C   0  0  0  0  0  0  0  0  0  0  0  0
   45.2560   32.7980   47.8540 O   0  0  0  0  0  0  0  0  0  0  0  0
   44.9120   35.0440   44.4220 C   0  0  0  0  0  0  0  0  0  0  0  0
   45.8300   34.9090   43.3790 C   0  0  0  0  0  0  0  0  0  0  0  0
   46.8910   34.0250   43.5430 C   0  0  0  0  0  0  0  0  0  0  0  0
   46.9580   33.3520   44.7130 N   0  0  0  0  0  0  0  0  0  0  0  0
   46.0690   33.4910   45.7050 C   0  0  0  0  0  0  0  0  0  0  0  0
   45.0390   34.3430   45.5590 N   0  0  0  0  0  0  0  0  0  0  0  0
   43.8260   35.9430   44.2660 N   0  0  0  0  0  0  0  0  0  0  0  0
   47.9278   31.8823   46.5176 H   0  0  0  0  0  0  0  0  0  0  0  0
   48.1776   33.4172   48.4671 H   0  0  0  0  0  0  0  0  0  0  0  0
   47.1131   32.3075   49.4311 H   0  0  0  0  0  0  0  0  0  0  0  0
   49.8501   31.7336   48.2888 H   0  0  0  0  0  0  0  0  0  0  0  0
   49.3558   31.8537   50.0210 H   0  0  0  0  0  0  0  0  0  0  0  0
   49.6062   29.5312   49.2265 H   0  0  0  0  0  0  0  0  0  0  0  0
   47.9374   29.9414   49.7969 H   0  0  0  0  0  0  0  0  0  0  0  0
   48.8088   29.9420   46.8739 H   0  0  0  0  0  0  0  0  0  0  0  0
   47.9823   28.5837   47.6571 H   0  0  0  0  0  0  0  0  0  0  0  0
   46.1209   30.3488   48.4047 H   0  0  0  0  0  0  0  0  0  0  0  0
   44.5242   29.5212   48.0555 H   0  0  0  0  0  0  0  0  0  0  0  0
   43.8804   29.8856   46.4409 H   0  0  0  0  0  0  0  0  0  0  0  0
   45.1228   27.2537   47.4663 H   0  0  0  0  0  0  0  0  0  0  0  0
   43.6711   27.4027   46.5411 H   0  0  0  0  0  0  0  0  0  0  0  0
   44.9844   28.2515   44.5418 H   0  0  0  0  0  0  0  0  0  0  0  0
   45.8600   26.8593   45.0691 H   0  0  0  0  0  0  0  0  0  0  0  0
   47.3501   28.2691   46.5375 H   0  0  0  0  0  0  0  0  0  0  0  0
   47.2429   29.1854   45.0403 H   0  0  0  0  0  0  0  0  0  0  0  0
   45.7169   35.4876   42.4503 H   0  0  0  0  0  0  0  0  0  0  0  0
   47.6436   33.8798   42.7540 H   0  0  0  0  0  0  0  0  0  0  0  0
   43.7254   36.4828   43.3945 H   0  0  0  0  0  0  0  0  0  0  0  0
   43.1380   36.0561   45.0242 H   0  0  0  0  0  0  0  0  0  0  0  0
  1  6  1  0
  1  2  1  0
  2  3  1  0
  3  4  1  0
  5  4  1  0
  6  5  1  0
  7  8  1  0
  7  6  1  0
  9  8  1  0
 10 11  1  0
 10  9  1  0
 11  7  1  0
 12  1  1  0
 12 13  2  0
 14 19  2  0
 15 16  2  0
 15 14  1  0
 16 17  1  0
 17 18  2  0
 18 12  1  0
 19 18  1  0
 20 14  1  0
  1 21  1  6
  2 22  1  0
  2 23  1  0
  3 24  1  0
  3 25  1  0
  4 26  1  0
  4 27  1  0
  5 28  1  0
  5 29  1  0
  6 30  1  1
  8 31  1  0
  8 32  1  0
  9 33  1  0
  9 34  1  0
 10 35  1  0
 10 36  1  0
 11 37  1  0
 11 38  1  0
 15 39  1  0
 16 40  1  0
 20 41  1  0
 20 42  1  0
M  ISO  8  21  13  22  13  23  13  24  13  25  13  26  13  27  13  28  13
M  ISO  8  29  13  30  13  31  13  32  13  33  13  34  13  35  13  36  13
M  ISO  4  37  13  38  13  39  14  40  14
M  END
>  <minimizedAffinity>  (1) 
-5.51534176

>  <minimizedRMSD>  (1) 
1.06413436

$$$$
