
     RDKit          3D

 36 37  0  0  1  0  0  0  0  0999 V2000
   47.1430   32.0920   47.0810 C   0  0  1  0  0  0  0  0  0  0  0  0
   47.1400   31.9980   48.5810 C   0  0  0  0  0  0  0  0  0  0  0  0
   48.2650   31.1220   49.0470 C   0  0  0  0  0  0  0  0  0  0  0  0
   48.2350   29.8050   48.3600 C   0  0  0  0  0  0  0  0  0  0  0  0
   48.2230   29.9280   46.8630 C   0  0  0  0  0  0  0  0  0  0  0  0
   46.9290   30.6670   46.4840 C   0  0  1  0  0  0  0  0  0  0  0  0
   45.5080   30.1780   48.4070 C   0  0  0  0  0  0  0  0  0  0  0  0
   46.2120   30.7840   49.2610 O   0  0  0  0  0  0  0  0  0  0  0  0
   45.7550   30.0480   47.0030 N   0  0  0  0  0  0  0  0  0  0  0  0
   46.0540   33.0020   46.6440 C   0  0  0  0  0  0  0  0  0  0  0  0
   45.1650   33.0810   47.5340 O   0  0  0  0  0  0  0  0  0  0  0  0
   44.8490   35.1560   44.0040 C   0  0  0  0  0  0  0  0  0  0  0  0
   45.8360   35.0500   43.0090 C   0  0  0  0  0  0  0  0  0  0  0  0
   46.9420   34.2270   43.2530 C   0  0  0  0  0  0  0  0  0  0  0  0
   46.9650   33.5940   44.4430 N   0  0  0  0  0  0  0  0  0  0  0  0
   46.0210   33.7000   45.3860 C   0  0  0  0  0  0  0  0  0  0  0  0
   44.9550   34.4890   45.1600 N   0  0  0  0  0  0  0  0  0  0  0  0
   43.7420   35.9830   43.7480 N   0  0  0  0  0  0  0  0  0  0  0  0
   48.1045   32.4924   46.7273 H   0  0  0  0  0  0  0  0  0  0  0  0
   47.2619   33.0042   49.0084 H   0  0  0  0  0  0  0  0  0  0  0  0
   46.1854   31.5628   48.9116 H   0  0  0  0  0  0  0  0  0  0  0  0
   49.2218   31.6193   48.8295 H   0  0  0  0  0  0  0  0  0  0  0  0
   48.1540   30.9553   50.1286 H   0  0  0  0  0  0  0  0  0  0  0  0
   49.1260   29.2329   48.6582 H   0  0  0  0  0  0  0  0  0  0  0  0
   47.3052   29.2980   48.6575 H   0  0  0  0  0  0  0  0  0  0  0  0
   49.0986   30.5009   46.5238 H   0  0  0  0  0  0  0  0  0  0  0  0
   48.2635   28.9372   46.3870 H   0  0  0  0  0  0  0  0  0  0  0  0
   46.7595   30.6685   45.3971 H   0  0  0  0  0  0  0  0  0  0  0  0
   45.4467   29.1441   48.7775 H   0  0  0  0  0  0  0  0  0  0  0  0
   44.6563   30.8729   48.3656 H   0  0  0  0  0  0  0  0  0  0  0  0
   45.9173   30.5304   50.1715 H   0  0  0  0  0  0  0  0  0  0  0  0
   44.9475   30.4533   46.5083 H   0  0  0  0  0  0  0  0  0  0  0  0
   45.7417   35.6005   42.0613 H   0  0  0  0  0  0  0  0  0  0  0  0
   47.7478   34.1037   42.5144 H   0  0  0  0  0  0  0  0  0  0  0  0
   43.6738   36.4901   42.8541 H   0  0  0  0  0  0  0  0  0  0  0  0
   42.9988   36.0820   44.4543 H   0  0  0  0  0  0  0  0  0  0  0  0
  1  2  1  0
  2  3  1  0
  4  3  1  0
  5  4  1  0
  6  5  1  0
  6  9  1  0
  6  1  1  0
  7  8  1  0
  9  7  1  0
 10  1  1  0
 10 11  2  0
 12 17  2  0
 13 14  2  0
 13 12  1  0
 14 15  1  0
 15 16  2  0
 16 10  1  0
 17 16  1  0
 18 12  1  0
  1 19  1  6
  2 20  1  0
  2 21  1  0
  3 22  1  0
  3 23  1  0
  4 24  1  0
  4 25  1  0
  5 26  1  0
  5 27  1  0
  6 28  1  6
  7 29  1  0
  7 30  1  0
  8 31  1  0
  9 32  1  0
 13 33  1  0
 14 34  1  0
 18 35  1  0
 18 36  1  0
M  ISO  8  19  13  20  13  21  13  22  13  23  13  24  13  25  13  26  13
M  ISO  8  27  13  28  13  29   8  30   8  31   3  32   5  33  14  34  14
M  END
>  <minimizedAffinity>  (1) 
-5.49755526

>  <minimizedRMSD>  (1) 
0.32901454

$$$$
