
     RDKit          3D

 33 34  0  0  1  0  0  0  0  0999 V2000
   47.2590   31.9420   47.1830 C   0  0  1  0  0  0  0  0  0  0  0  0
   47.3030   31.7820   48.6750 C   0  0  0  0  0  0  0  0  0  0  0  0
   48.4820   30.9480   49.0760 C   0  0  0  0  0  0  0  0  0  0  0  0
   48.5010   29.6590   48.3280 C   0  0  0  0  0  0  0  0  0  0  0  0
   48.4160   29.8330   46.8440 C   0  0  0  0  0  0  0  0  0  0  0  0
   47.1130   30.5560   46.5160 C   0  0  1  0  0  0  0  0  0  0  0  0
   46.1370   32.8360   46.8090 C   0  0  0  0  0  0  0  0  0  0  0  0
   45.2760   32.8510   47.7270 O   0  0  0  0  0  0  0  0  0  0  0  0
   44.8440   35.1120   44.3150 C   0  0  0  0  0  0  0  0  0  0  0  0
   45.7590   35.0320   43.2770 C   0  0  0  0  0  0  0  0  0  0  0  0
   46.8540   34.1790   43.4330 C   0  0  0  0  0  0  0  0  0  0  0  0
   46.9450   33.4910   44.5840 N   0  0  0  0  0  0  0  0  0  0  0  0
   46.0510   33.5800   45.5780 C   0  0  0  0  0  0  0  0  0  0  0  0
   44.9930   34.3960   45.4420 N   0  0  0  0  0  0  0  0  0  0  0  0
   43.7220   35.9740   44.1770 N   0  0  0  0  0  0  0  0  0  0  0  0
   45.9110   29.8150   46.9370 C   0  0  0  0  0  0  0  0  0  0  0  0
   48.1955   32.3984   46.8299 H   0  0  0  0  0  0  0  0  0  0  0  0
   47.3843   32.7738   49.1437 H   0  0  0  0  0  0  0  0  0  0  0  0
   46.3818   31.2813   49.0077 H   0  0  0  0  0  0  0  0  0  0  0  0
   49.4064   31.5036   48.8596 H   0  0  0  0  0  0  0  0  0  0  0  0
   48.4080   30.7291   50.1515 H   0  0  0  0  0  0  0  0  0  0  0  0
   49.4372   29.1322   48.5645 H   0  0  0  0  0  0  0  0  0  0  0  0
   47.6136   29.0888   48.6400 H   0  0  0  0  0  0  0  0  0  0  0  0
   49.2703   30.4290   46.4906 H   0  0  0  0  0  0  0  0  0  0  0  0
   48.4384   28.8518   46.3472 H   0  0  0  0  0  0  0  0  0  0  0  0
   46.9586   30.6487   45.4309 H   0  0  0  0  0  0  0  0  0  0  0  0
   45.6268   35.6223   42.3583 H   0  0  0  0  0  0  0  0  0  0  0  0
   47.6131   34.0743   42.6438 H   0  0  0  0  0  0  0  0  0  0  0  0
   43.5999   36.5266   43.3164 H   0  0  0  0  0  0  0  0  0  0  0  0
   43.0312   36.0459   44.9376 H   0  0  0  0  0  0  0  0  0  0  0  0
   45.8641   29.7861   48.0356 H   0  0  0  0  0  0  0  0  0  0  0  0
   45.0144   30.3174   46.5448 H   0  0  0  0  0  0  0  0  0  0  0  0
   45.9571   28.7883   46.5448 H   0  0  0  0  0  0  0  0  0  0  0  0
  1  2  1  0
  2  3  1  0
  4  3  1  0
  5  4  1  0
  6  5  1  0
  6 16  1  0
  6  1  1  0
  7  1  1  0
  7  8  2  0
  9 14  2  0
 10 11  2  0
 10  9  1  0
 11 12  1  0
 12 13  2  0
 13  7  1  0
 14 13  1  0
 15  9  1  0
  1 17  1  6
  2 18  1  0
  2 19  1  0
  3 20  1  0
  3 21  1  0
  4 22  1  0
  4 23  1  0
  5 24  1  0
  5 25  1  0
  6 26  1  6
 10 27  1  0
 11 28  1  0
 15 29  1  0
 15 30  1  0
 16 31  1  0
 16 32  1  0
 16 33  1  0
M  ISO  8  17  13  18  13  19  13  20  13  21  13  22  13  23  13  24  13
M  ISO  7  25  13  26  13  27  14  28  14  31   8  32   8  33   8
M  END
>  <minimizedAffinity>  (1) 
-5.2750597

>  <minimizedRMSD>  (1) 
0.110259332

$$$$
