
     RDKit          3D

 36 37  0  0  1  0  0  0  0  0999 V2000
   47.2750   31.9660   47.1910 C   0  0  1  0  0  0  0  0  0  0  0  0
   47.3230   31.8250   48.6930 C   0  0  0  0  0  0  0  0  0  0  0  0
   48.5280   31.0080   49.0690 C   0  0  0  0  0  0  0  0  0  0  0  0
   48.4890   29.6930   48.3610 C   0  0  0  0  0  0  0  0  0  0  0  0
   48.3600   29.8090   46.8790 C   0  0  0  0  0  0  0  0  0  0  0  0
   47.0980   30.5650   46.5610 C   0  0  1  0  0  0  0  0  0  0  0  0
   46.1430   32.8500   46.8160 C   0  0  0  0  0  0  0  0  0  0  0  0
   45.2760   32.8650   47.7290 O   0  0  0  0  0  0  0  0  0  0  0  0
   44.8470   35.1110   44.3100 C   0  0  0  0  0  0  0  0  0  0  0  0
   45.7600   35.0210   43.2700 C   0  0  0  0  0  0  0  0  0  0  0  0
   46.8530   34.1740   43.4200 C   0  0  0  0  0  0  0  0  0  0  0  0
   46.9380   33.4980   44.5840 N   0  0  0  0  0  0  0  0  0  0  0  0
   46.0550   33.5860   45.5850 C   0  0  0  0  0  0  0  0  0  0  0  0
   44.9880   34.4060   45.4520 N   0  0  0  0  0  0  0  0  0  0  0  0
   43.7190   35.9750   44.1790 N   0  0  0  0  0  0  0  0  0  0  0  0
   45.8330   29.9010   46.9390 C   0  0  0  0  0  0  0  0  0  0  0  0
   45.1610   29.4360   45.6460 C   0  0  0  0  0  0  0  0  0  0  0  0
   48.2095   32.4126   46.8205 H   0  0  0  0  0  0  0  0  0  0  0  0
   47.3937   32.8208   49.1550 H   0  0  0  0  0  0  0  0  0  0  0  0
   46.4096   31.3262   49.0491 H   0  0  0  0  0  0  0  0  0  0  0  0
   49.4409   31.5503   48.7819 H   0  0  0  0  0  0  0  0  0  0  0  0
   48.5253   30.8357   50.1554 H   0  0  0  0  0  0  0  0  0  0  0  0
   49.4189   29.1503   48.5865 H   0  0  0  0  0  0  0  0  0  0  0  0
   47.5940   29.1633   48.7194 H   0  0  0  0  0  0  0  0  0  0  0  0
   49.2276   30.3501   46.4734 H   0  0  0  0  0  0  0  0  0  0  0  0
   48.3199   28.8069   46.4272 H   0  0  0  0  0  0  0  0  0  0  0  0
   46.9769   30.6219   45.4692 H   0  0  0  0  0  0  0  0  0  0  0  0
   45.6230   35.6056   42.3483 H   0  0  0  0  0  0  0  0  0  0  0  0
   47.6096   34.0612   42.6295 H   0  0  0  0  0  0  0  0  0  0  0  0
   43.5882   36.5241   43.3174 H   0  0  0  0  0  0  0  0  0  0  0  0
   43.0356   36.0496   44.9460 H   0  0  0  0  0  0  0  0  0  0  0  0
   46.0402   29.0371   47.5876 H   0  0  0  0  0  0  0  0  0  0  0  0
   45.1796   30.5923   47.4914 H   0  0  0  0  0  0  0  0  0  0  0  0
   44.2790   28.8257   45.8901 H   0  0  0  0  0  0  0  0  0  0  0  0
   44.8493   30.3125   45.0590 H   0  0  0  0  0  0  0  0  0  0  0  0
   45.8714   28.8354   45.0590 H   0  0  0  0  0  0  0  0  0  0  0  0
  1  2  1  0
  2  3  1  0
  4  3  1  0
  5  4  1  0
  6  5  1  0
  6 16  1  0
  6  1  1  0
  7  1  1  0
  7  8  2  0
  9 14  2  0
 10 11  2  0
 10  9  1  0
 11 12  1  0
 12 13  2  0
 13  7  1  0
 14 13  1  0
 15  9  1  0
 17 16  1  0
  1 18  1  6
  2 19  1  0
  2 20  1  0
  3 21  1  0
  3 22  1  0
  4 23  1  0
  4 24  1  0
  5 25  1  0
  5 26  1  0
  6 27  1  6
 10 28  1  0
 11 29  1  0
 15 30  1  0
 15 31  1  0
 16 32  1  0
 16 33  1  0
 17 34  1  0
 17 35  1  0
 17 36  1  0
M  ISO  8  18  13  19  13  20  13  21  13  22  13  23  13  24  13  25  13
M  ISO  8  26  13  27  13  28  14  29  14  32   8  33   8  34   8  35   8
M  ISO  1  36   8
M  END
>  <minimizedAffinity>  (1) 
-5.18447161

>  <minimizedRMSD>  (1) 
0.0951773599

$$$$
