
     RDKit          3D

 32 33  0  0  1  0  0  0  0  0999 V2000
   47.3150   31.9710   47.1480 C   0  0  1  0  0  0  0  0  0  0  0  0
   47.5100   32.0650   48.6380 C   0  0  0  0  0  0  0  0  0  0  0  0
   48.7400   31.3010   49.0410 C   0  0  0  0  0  0  0  0  0  0  0  0
   48.6620   29.8940   48.5310 C   0  0  0  0  0  0  0  0  0  0  0  0
   48.4250   29.8110   47.0560 C   0  0  0  0  0  0  0  0  0  0  0  0
   47.0600   30.4720   46.7930 C   0  0  2  0  0  0  0  0  0  0  0  0
   46.6400   30.3380   45.4360 N   0  0  0  0  0  0  0  0  0  0  0  0
   46.1460   32.7970   46.7520 C   0  0  0  0  0  0  0  0  0  0  0  0
   45.2450   32.7310   47.6320 O   0  0  0  0  0  0  0  0  0  0  0  0
   44.8500   35.1310   44.3190 C   0  0  0  0  0  0  0  0  0  0  0  0
   45.7600   35.0640   43.2690 C   0  0  0  0  0  0  0  0  0  0  0  0
   46.8540   34.2010   43.3930 C   0  0  0  0  0  0  0  0  0  0  0  0
   46.9400   33.4950   44.5360 N   0  0  0  0  0  0  0  0  0  0  0  0
   46.0590   33.5670   45.5400 C   0  0  0  0  0  0  0  0  0  0  0  0
   44.9990   34.3930   45.4400 N   0  0  0  0  0  0  0  0  0  0  0  0
   43.7380   36.0060   44.2000 N   0  0  0  0  0  0  0  0  0  0  0  0
   48.2021   32.3400   46.6124 H   0  0  0  0  0  0  0  0  0  0  0  0
   47.6257   33.1206   48.9250 H   0  0  0  0  0  0  0  0  0  0  0  0
   46.6339   31.6359   49.1462 H   0  0  0  0  0  0  0  0  0  0  0  0
   49.6286   31.7926   48.6181 H   0  0  0  0  0  0  0  0  0  0  0  0
   48.8093   31.2829   50.1387 H   0  0  0  0  0  0  0  0  0  0  0  0
   49.6102   29.3862   48.7613 H   0  0  0  0  0  0  0  0  0  0  0  0
   47.8042   29.4153   49.0261 H   0  0  0  0  0  0  0  0  0  0  0  0
   49.2174   30.3473   46.5133 H   0  0  0  0  0  0  0  0  0  0  0  0
   48.4336   28.7667   46.7106 H   0  0  0  0  0  0  0  0  0  0  0  0
   46.2554   30.0071   47.3816 H   0  0  0  0  0  0  0  0  0  0  0  0
   45.6591   30.0250   45.4095 H   0  0  0  0  0  0  0  0  0  0  0  0
   46.7233   31.2473   44.9594 H   0  0  0  0  0  0  0  0  0  0  0  0
   45.6228   35.6742   42.3641 H   0  0  0  0  0  0  0  0  0  0  0  0
   47.6063   34.1041   42.5964 H   0  0  0  0  0  0  0  0  0  0  0  0
   43.6171   36.5723   43.3482 H   0  0  0  0  0  0  0  0  0  0  0  0
   43.0522   36.0744   44.9655 H   0  0  0  0  0  0  0  0  0  0  0  0
  1  2  1  0
  2  3  1  0
  4  3  1  0
  5  4  1  0
  6  5  1  0
  6  1  1  0
  7  6  1  0
  8  1  1  0
  8  9  2  0
 10 15  2  0
 11 12  2  0
 11 10  1  0
 12 13  1  0
 13 14  2  0
 14  8  1  0
 15 14  1  0
 16 10  1  0
  1 17  1  6
  2 18  1  0
  2 19  1  0
  3 20  1  0
  3 21  1  0
  4 22  1  0
  4 23  1  0
  5 24  1  0
  5 25  1  0
  6 26  1  1
  7 27  1  0
  7 28  1  0
 11 29  1  0
 12 30  1  0
 16 31  1  0
 16 32  1  0
M  ISO  8  17  13  18  13  19  13  20  13  21  13  22  13  23  13  24  13
M  ISO  6  25  13  26  13  27   5  28   5  29  14  30  14
M  END
>  <minimizedAffinity>  (1) 
-5.14378834

>  <minimizedRMSD>  (1) 
0.142804995

$$$$
