
     RDKit          3D

 22 23  0  0  0  0  0  0  0  0999 V2000
   48.3360   34.2360   42.4880 C   0  0  0  0  0  0  0  0  0  0  0  0
   49.5340   34.3470   42.8840 O   0  0  0  0  0  0  0  0  0  0  0  0
   47.1430   34.3770   43.2640 C   0  0  0  0  0  0  0  0  0  0  0  0
   46.2990   35.3880   42.8050 C   0  0  0  0  0  0  0  0  0  0  0  0
   45.1010   35.5900   43.5160 C   0  0  0  0  0  0  0  0  0  0  0  0
   44.8560   34.7850   44.5980 N   0  0  0  0  0  0  0  0  0  0  0  0
   45.7190   33.8200   44.9900 C   0  0  0  0  0  0  0  0  0  0  0  0
   46.8680   33.6150   44.3180 N   0  0  0  0  0  0  0  0  0  0  0  0
   48.8620   35.9420   40.2720 F   0  0  0  0  0  0  0  0  0  0  0  0
   48.3520   34.7230   39.9830 C   0  0  0  0  0  0  0  0  0  0  0  0
   48.1080   33.9240   41.0610 C   0  0  0  0  0  0  0  0  0  0  0  0
   47.5850   32.6630   40.8490 C   0  0  0  0  0  0  0  0  0  0  0  0
   47.2980   32.1770   39.5860 C   0  0  0  0  0  0  0  0  0  0  0  0
   47.5480   32.9920   38.5000 C   0  0  0  0  0  0  0  0  0  0  0  0
   48.0720   34.2570   38.7140 C   0  0  0  0  0  0  0  0  0  0  0  0
   46.5576   35.9993   41.9278 H   0  0  0  0  0  0  0  0  0  0  0  0
   44.3850   36.3683   43.2132 H   0  0  0  0  0  0  0  0  0  0  0  0
   45.4804   33.1975   45.8649 H   0  0  0  0  0  0  0  0  0  0  0  0
   47.3889   32.0196   41.7194 H   0  0  0  0  0  0  0  0  0  0  0  0
   46.8816   31.1679   39.4506 H   0  0  0  0  0  0  0  0  0  0  0  0
   47.3343   32.6422   37.4792 H   0  0  0  0  0  0  0  0  0  0  0  0
   48.2702   34.9074   37.8493 H   0  0  0  0  0  0  0  0  0  0  0  0
  1  2  2  0
  1  3  1  0
  3  8  1  0
  4  3  2  0
  4  5  1  0
  5  6  2  0
  6  7  1  0
  8  7  2  0
 10  9  1  0
 10 11  2  0
 11  1  1  0
 12 11  1  0
 13 12  2  0
 14 15  2  0
 14 13  1  0
 15 10  1  0
  4 16  1  0
  5 17  1  0
  7 18  1  0
 12 19  1  0
 13 20  1  0
 14 21  1  0
 15 22  1  0
M  ISO  7  16  14  17  14  18  14  19  14  20  14  21  14  22  14
M  END
>  <minimizedAffinity>  (1) 
-4.51623964

>  <minimizedRMSD>  (1) 
1.82227862

$$$$
