
     RDKit          3D

 23 24  0  0  1  0  0  0  0  0999 V2000
   46.0200   33.5240   41.8870 C   0  0  1  0  0  0  0  0  0  0  0  0
   46.7590   34.2910   40.9300 C   0  0  0  0  0  0  0  0  0  0  0  0
   47.5070   33.2880   41.7690 C   0  0  1  0  0  0  0  0  0  0  0  0
   45.1170   35.5710   43.1790 C   0  0  0  0  0  0  0  0  0  0  0  0
   45.5390   34.2110   43.1540 C   0  0  0  0  0  0  0  0  0  0  0  0
   45.5150   33.5030   44.3280 C   0  0  0  0  0  0  0  0  0  0  0  0
   45.0910   34.1210   45.4620 N   0  0  0  0  0  0  0  0  0  0  0  0
   44.6930   35.4080   45.4800 C   0  0  0  0  0  0  0  0  0  0  0  0
   44.7070   36.1510   44.3090 N   0  0  0  0  0  0  0  0  0  0  0  0
   48.3030   33.7860   42.8450 N   0  0  0  0  0  0  0  0  0  0  0  0
   49.6580   34.0470   42.6730 C   0  0  0  0  0  0  0  0  0  0  0  0
   50.5900   33.3340   42.2310 O   0  0  0  0  0  0  0  0  0  0  0  0
   50.2880   35.3130   43.0080 N   0  0  0  0  0  0  0  0  0  0  0  0
   45.1214   32.8930   41.8207 H   0  0  0  0  0  0  0  0  0  0  0  0
   46.9157   35.3668   41.0978 H   0  0  0  0  0  0  0  0  0  0  0  0
   46.6625   34.4664   39.8484 H   0  0  0  0  0  0  0  0  0  0  0  0
   48.1771   32.4387   41.5698 H   0  0  0  0  0  0  0  0  0  0  0  0
   45.1292   36.1557   42.2474 H   0  0  0  0  0  0  0  0  0  0  0  0
   45.8341   32.4506   44.3518 H   0  0  0  0  0  0  0  0  0  0  0  0
   44.3578   35.8684   46.4211 H   0  0  0  0  0  0  0  0  0  0  0  0
   47.8667   33.9545   43.7627 H   0  0  0  0  0  0  0  0  0  0  0  0
   51.2985   35.4416   42.8558 H   0  0  0  0  0  0  0  0  0  0  0  0
   49.7240   36.0817   43.3977 H   0  0  0  0  0  0  0  0  0  0  0  0
  1  5  1  0
  2  3  1  0
  2  1  1  0
  3  1  1  0
  3 10  1  0
  4  9  2  0
  5  4  1  0
  5  6  2  0
  6  7  1  0
  7  8  2  0
  9  8  1  0
 11 10  1  0
 11 13  1  0
 12 11  2  0
  1 14  1  6
  2 15  1  0
  2 16  1  0
  3 17  1  6
  4 18  1  0
  6 19  1  0
  8 20  1  0
 10 21  1  0
 13 22  1  0
 13 23  1  0
M  ISO  7  14  13  15  13  16  13  17  13  18  14  19  14  20  14
M  END
>  <minimizedAffinity>  (1) 
-4.54404831

>  <minimizedRMSD>  (1) 
0.50673759

$$$$
