
     RDKit          3D

 22 23  0  0  0  0  0  0  0  0999 V2000
   46.9110   34.8410   42.0520 C   0  0  0  0  0  0  0  0  0  0  0  0
   47.9750   35.4640   41.8100 O   0  0  0  0  0  0  0  0  0  0  0  0
   46.1800   34.8500   43.2770 C   0  0  0  0  0  0  0  0  0  0  0  0
   45.2740   35.9140   43.4130 C   0  0  0  0  0  0  0  0  0  0  0  0
   44.5070   36.0240   44.5660 C   0  0  0  0  0  0  0  0  0  0  0  0
   44.6970   35.0650   45.5060 N   0  0  0  0  0  0  0  0  0  0  0  0
   45.5630   34.0550   45.3680 C   0  0  0  0  0  0  0  0  0  0  0  0
   46.3030   33.9510   44.2530 N   0  0  0  0  0  0  0  0  0  0  0  0
   48.3610   34.7280   39.4950 Cl  0  0  0  0  0  0  0  0  0  0  0  0
   46.8550   33.8450   39.7670 C   0  0  0  0  0  0  0  0  0  0  0  0
   46.2970   34.0000   41.0180 C   0  0  0  0  0  0  0  0  0  0  0  0
   45.1040   33.3290   41.2980 C   0  0  0  0  0  0  0  0  0  0  0  0
   44.5720   32.5470   40.2770 C   0  0  0  0  0  0  0  0  0  0  0  0
   45.1380   32.3970   39.0270 C   0  0  0  0  0  0  0  0  0  0  0  0
   46.3320   33.0740   38.7570 C   0  0  0  0  0  0  0  0  0  0  0  0
   45.1719   36.6580   42.6092 H   0  0  0  0  0  0  0  0  0  0  0  0
   43.7863   36.8427   44.7085 H   0  0  0  0  0  0  0  0  0  0  0  0
   45.6689   33.3088   46.1692 H   0  0  0  0  0  0  0  0  0  0  0  0
   44.6097   33.4145   42.2769 H   0  0  0  0  0  0  0  0  0  0  0  0
   43.6337   32.0103   40.4807 H   0  0  0  0  0  0  0  0  0  0  0  0
   44.6632   31.7625   38.2641 H   0  0  0  0  0  0  0  0  0  0  0  0
   46.8301   32.9927   37.7796 H   0  0  0  0  0  0  0  0  0  0  0  0
  1  3  1  0
  2  1  2  0
  3  4  2  0
  3  8  1  0
  4  5  1  0
  5  6  2  0
  7  6  1  0
  8  7  2  0
  9 10  1  0
 10 11  2  0
 11 12  1  0
 11  1  1  0
 13 12  2  0
 14 13  1  0
 15 14  2  0
 15 10  1  0
  4 16  1  0
  5 17  1  0
  7 18  1  0
 12 19  1  0
 13 20  1  0
 14 21  1  0
 15 22  1  0
M  ISO  7  16  14  17  14  18  14  19  14  20  14  21  14  22  14
M  END
>  <minimizedAffinity>  (1) 
-4.4060564

>  <minimizedRMSD>  (1) 
0.108771212

$$$$
