
     RDKit          3D

 19 20  0  0  0  0  0  0  0  0999 V2000
   46.7870   34.9210   42.1110 C   0  0  0  0  0  0  0  0  0  0  0  0
   47.9090   35.4280   41.8570 O   0  0  0  0  0  0  0  0  0  0  0  0
   46.0880   34.8950   43.3570 C   0  0  0  0  0  0  0  0  0  0  0  0
   45.2300   35.9760   43.5560 C   0  0  0  0  0  0  0  0  0  0  0  0
   44.5190   35.9980   44.7630 C   0  0  0  0  0  0  0  0  0  0  0  0
   44.7100   34.9730   45.6580 N   0  0  0  0  0  0  0  0  0  0  0  0
   45.5490   33.9620   45.4080 C   0  0  0  0  0  0  0  0  0  0  0  0
   46.2400   33.9240   44.2550 N   0  0  0  0  0  0  0  0  0  0  0  0
   46.1240   34.2760   40.9560 C   0  0  0  0  0  0  0  0  0  0  0  0
   44.7770   34.3290   40.6620 C   0  0  0  0  0  0  0  0  0  0  0  0
   44.4920   33.6450   39.5560 N   0  0  0  0  0  0  0  0  0  0  0  0
   45.6740   33.1520   39.1420 C   0  0  0  0  0  0  0  0  0  0  0  0
   46.6680   33.5190   39.9690 N   0  0  0  0  0  0  0  0  0  0  0  0
   45.1172   36.7707   42.8039 H   0  0  0  0  0  0  0  0  0  0  0  0
   43.8224   36.8187   44.9895 H   0  0  0  0  0  0  0  0  0  0  0  0
   45.6744   33.1583   46.1485 H   0  0  0  0  0  0  0  0  0  0  0  0
   44.0323   34.8685   41.2655 H   0  0  0  0  0  0  0  0  0  0  0  0
   43.5699   33.5205   39.1143 H   0  0  0  0  0  0  0  0  0  0  0  0
   45.8088   32.5303   38.2446 H   0  0  0  0  0  0  0  0  0  0  0  0
  1  3  1  0
  2  1  2  0
  3  4  2  0
  3  8  1  0
  4  5  1  0
  5  6  2  0
  7  6  1  0
  8  7  2  0
  9  1  1  0
 10  9  2  0
 11 10  1  0
 12 11  1  0
 12 13  2  0
 13  9  1  0
  4 14  1  0
  5 15  1  0
  7 16  1  0
 10 17  1  0
 11 18  1  0
 12 19  1  0
M  ISO  6  14  14  15  14  16  14  17  14  18   9  19  14
M  END
>  <minimizedAffinity>  (1) 
-4.03309727

>  <minimizedRMSD>  (1) 
0.497763932

$$$$
