
     RDKit          3D

 19 20  0  0  0  0  0  0  0  0999 V2000
   46.6770   34.2690   43.5650 C   0  0  0  0  0  0  0  0  0  0  0  0
   46.1860   35.2690   42.7100 C   0  0  0  0  0  0  0  0  0  0  0  0
   45.0940   36.0010   43.1610 C   0  0  0  0  0  0  0  0  0  0  0  0
   44.5560   35.7230   44.3880 N   0  0  0  0  0  0  0  0  0  0  0  0
   45.0610   34.7590   45.1660 C   0  0  0  0  0  0  0  0  0  0  0  0
   46.1090   34.0470   44.7520 N   0  0  0  0  0  0  0  0  0  0  0  0
   47.8030   33.5160   43.1010 C   0  0  0  0  0  0  0  0  0  0  0  0
   48.0520   32.3220   43.4870 O   0  0  0  0  0  0  0  0  0  0  0  0
   48.7650   34.0970   42.1180 C   0  0  0  0  0  0  0  0  0  0  0  0
   50.2160   33.7960   42.3820 C   0  0  0  0  0  0  0  0  0  0  0  0
   49.6940   35.1720   42.5170 C   0  0  0  0  0  0  0  0  0  0  0  0
   46.6443   35.4639   41.7292 H   0  0  0  0  0  0  0  0  0  0  0  0
   44.6653   36.7982   42.5360 H   0  0  0  0  0  0  0  0  0  0  0  0
   44.6109   34.5537   46.1485 H   0  0  0  0  0  0  0  0  0  0  0  0
   48.0512   33.9922   41.2877 H   0  0  0  0  0  0  0  0  0  0  0  0
   50.5076   33.2260   43.2765 H   0  0  0  0  0  0  0  0  0  0  0  0
   51.0314   33.3210   41.8169 H   0  0  0  0  0  0  0  0  0  0  0  0
   49.9856   35.9412   41.7867 H   0  0  0  0  0  0  0  0  0  0  0  0
   49.7027   35.9238   43.3200 H   0  0  0  0  0  0  0  0  0  0  0  0
  1  6  2  0
  2  3  2  0
  2  1  1  0
  3  4  1  0
  4  5  2  0
  6  5  1  0
  7  8  2  0
  7  1  1  0
  9 10  1  0
  9 11  1  0
  9  7  1  0
 10 11  1  0
  2 12  1  0
  3 13  1  0
  5 14  1  0
  9 15  1  0
 10 16  1  0
 10 17  1  0
 11 18  1  0
 11 19  1  0
M  ISO  8  12  14  13  14  14  14  15  13  16  13  17  13  18  13  19  13
M  END
>  <minimizedAffinity>  (1) 
-3.92178798

>  <minimizedRMSD>  (1) 
2.63332176

$$$$
