
     RDKit          3D

 26 28  0  0  0  0  0  0  0  0999 V2000
   46.3050   33.6840   40.1810 C   0  0  0  0  0  0  0  0  0  0  0  0
   47.4440   34.4280   40.4760 C   0  0  0  0  0  0  0  0  0  0  0  0
   48.4100   34.5520   39.4990 C   0  0  0  0  0  0  0  0  0  0  0  0
   48.3390   33.9910   38.2390 C   0  0  0  0  0  0  0  0  0  0  0  0
   49.1520   33.9910   37.1690 N   0  0  0  0  0  0  0  0  0  0  0  0
   48.5780   33.2720   36.1930 C   0  0  0  0  0  0  0  0  0  0  0  0
   47.3560   32.8020   36.6670 C   0  0  0  0  0  0  0  0  0  0  0  0
   47.1950   33.2540   37.9670 C   0  0  0  0  0  0  0  0  0  0  0  0
   46.2060   33.1050   38.9140 C   0  0  0  0  0  0  0  0  0  0  0  0
   47.6870   35.0970   41.7710 C   0  0  0  0  0  0  0  0  0  0  0  0
   48.6970   35.8470   41.7700 O   0  0  0  0  0  0  0  0  0  0  0  0
   46.7990   34.8520   42.8720 C   0  0  0  0  0  0  0  0  0  0  0  0
   45.6890   35.6890   42.9620 C   0  0  0  0  0  0  0  0  0  0  0  0
   44.8200   35.4450   44.0450 C   0  0  0  0  0  0  0  0  0  0  0  0
   45.1100   34.4310   44.9170 N   0  0  0  0  0  0  0  0  0  0  0  0
   46.1980   33.6640   44.7710 C   0  0  0  0  0  0  0  0  0  0  0  0
   47.0430   33.8770   43.7450 N   0  0  0  0  0  0  0  0  0  0  0  0
   45.5052   33.5557   40.9252 H   0  0  0  0  0  0  0  0  0  0  0  0
   49.3054   35.1429   39.7421 H   0  0  0  0  0  0  0  0  0  0  0  0
   50.0646   34.4646   37.1084 H   0  0  0  0  0  0  0  0  0  0  0  0
   48.9987   33.0863   35.1937 H   0  0  0  0  0  0  0  0  0  0  0  0
   46.6424   32.1800   36.1068 H   0  0  0  0  0  0  0  0  0  0  0  0
   45.3128   32.5131   38.6653 H   0  0  0  0  0  0  0  0  0  0  0  0
   45.5020   36.4911   42.2328 H   0  0  0  0  0  0  0  0  0  0  0  0
   43.9204   36.0618   44.1872 H   0  0  0  0  0  0  0  0  0  0  0  0
   46.4017   32.8579   45.4913 H   0  0  0  0  0  0  0  0  0  0  0  0
  1  2  2  0
  2 10  1  0
  3  2  1  0
  4  3  2  0
  5  4  1  0
  6  7  2  0
  6  5  1  0
  7  8  1  0
  8  4  1  0
  8  9  2  0
  9  1  1  0
 10 12  1  0
 11 10  2  0
 12 13  2  0
 12 17  1  0
 13 14  1  0
 14 15  2  0
 16 15  1  0
 17 16  2  0
  1 18  1  0
  3 19  1  0
  5 20  1  0
  6 21  1  0
  7 22  1  0
  9 23  1  0
 13 24  1  0
 14 25  1  0
 16 26  1  0
M  ISO  8  18  14  19  14  20   9  21  14  22  14  23  14  24  14  25  14
M  ISO  1  26  14
M  END
>  <minimizedAffinity>  (1) 
-5.29833937

>  <minimizedRMSD>  (1) 
2.49981475

$$$$
