
     RDKit          3D

 33 36  0  0  0  0  0  0  0  0999 V2000
   47.6820   35.1190   41.7970 C   0  0  0  0  0  0  0  0  0  0  0  0
   48.6940   35.8550   41.7980 O   0  0  0  0  0  0  0  0  0  0  0  0
   46.3030   33.6810   40.2140 C   0  0  0  0  0  0  0  0  0  0  0  0
   47.4470   34.4390   40.5040 C   0  0  0  0  0  0  0  0  0  0  0  0
   48.4150   34.5670   39.5270 C   0  0  0  0  0  0  0  0  0  0  0  0
   48.3290   33.9890   38.2670 C   0  0  0  0  0  0  0  0  0  0  0  0
   49.1380   33.9860   37.1890 N   0  0  0  0  0  0  0  0  0  0  0  0
   48.5650   33.2600   36.2210 C   0  0  0  0  0  0  0  0  0  0  0  0
   47.3450   32.7840   36.7020 C   0  0  0  0  0  0  0  0  0  0  0  0
   47.1980   33.2480   38.0010 C   0  0  0  0  0  0  0  0  0  0  0  0
   46.2180   33.1040   38.9560 C   0  0  0  0  0  0  0  0  0  0  0  0
   46.7880   34.8920   42.8810 C   0  0  0  0  0  0  0  0  0  0  0  0
   45.6620   35.7270   42.9220 C   0  0  0  0  0  0  0  0  0  0  0  0
   44.7600   35.5230   43.9860 C   0  0  0  0  0  0  0  0  0  0  0  0
   45.0300   34.5480   44.8930 N   0  0  0  0  0  0  0  0  0  0  0  0
   46.1220   33.7750   44.8110 C   0  0  0  0  0  0  0  0  0  0  0  0
   46.9990   33.9590   43.7940 N   0  0  0  0  0  0  0  0  0  0  0  0
   46.3190   32.7550   45.8380 C   0  0  0  0  0  0  0  0  0  0  0  0
   45.7230   32.7360   47.0870 C   0  0  0  0  0  0  0  0  0  0  0  0
   46.2180   31.5790   47.6960 C   0  0  0  0  0  0  0  0  0  0  0  0
   47.0620   30.9490   46.8500 N   0  0  0  0  0  0  0  0  0  0  0  0
   47.1210   31.6690   45.7210 N   0  0  0  0  0  0  0  0  0  0  0  0
   45.5028   33.5491   40.9571 H   0  0  0  0  0  0  0  0  0  0  0  0
   49.3091   35.1634   39.7613 H   0  0  0  0  0  0  0  0  0  0  0  0
   50.0479   34.4639   37.1210 H   0  0  0  0  0  0  0  0  0  0  0  0
   48.9831   33.0717   35.2211 H   0  0  0  0  0  0  0  0  0  0  0  0
   46.6298   32.1552   36.1514 H   0  0  0  0  0  0  0  0  0  0  0  0
   45.3285   32.5051   38.7109 H   0  0  0  0  0  0  0  0  0  0  0  0
   45.4910   36.5030   42.1613 H   0  0  0  0  0  0  0  0  0  0  0  0
   43.8550   36.1412   44.0801 H   0  0  0  0  0  0  0  0  0  0  0  0
   45.0173   33.4679   47.5068 H   0  0  0  0  0  0  0  0  0  0  0  0
   45.9599   31.2346   48.7083 H   0  0  0  0  0  0  0  0  0  0  0  0
   47.5692   30.0726   47.0387 H   0  0  0  0  0  0  0  0  0  0  0  0
  1  2  2  0
  1 12  1  0
  3  4  2  0
  4  1  1  0
  5  4  1  0
  6  5  2  0
  7  6  1  0
  8  9  2  0
  8  7  1  0
  9 10  1  0
 10  6  1  0
 10 11  2  0
 11  3  1  0
 12 13  2  0
 12 17  1  0
 13 14  1  0
 14 15  2  0
 16 15  1  0
 16 18  1  0
 17 16  2  0
 18 19  1  0
 19 20  2  0
 21 20  1  0
 22 18  2  0
 22 21  1  0
  3 23  1  0
  5 24  1  0
  7 25  1  0
  8 26  1  0
  9 27  1  0
 11 28  1  0
 13 29  1  0
 14 30  1  0
 19 31  1  0
 20 32  1  0
 21 33  1  0
M  ISO  8  23  14  24  14  25   9  26  14  27  14  28  14  29  14  30  14
M  ISO  3  31  14  32  14  33   9
M  END
>  <minimizedAffinity>  (1) 
-6.22984123

>  <minimizedRMSD>  (1) 
0.146670789

$$$$
