
     RDKit          3D

 30 32  0  0  0  0  0  0  0  0999 V2000
   46.3220   33.6890   40.2030 C   0  0  0  0  0  0  0  0  0  0  0  0
   47.4610   34.4330   40.4990 C   0  0  0  0  0  0  0  0  0  0  0  0
   48.4270   34.5600   39.5200 C   0  0  0  0  0  0  0  0  0  0  0  0
   48.3400   33.9950   38.2610 C   0  0  0  0  0  0  0  0  0  0  0  0
   49.1380   33.9900   37.1790 N   0  0  0  0  0  0  0  0  0  0  0  0
   48.5660   33.2800   36.2100 C   0  0  0  0  0  0  0  0  0  0  0  0
   47.3400   32.8030   36.6880 C   0  0  0  0  0  0  0  0  0  0  0  0
   47.1960   33.2580   37.9900 C   0  0  0  0  0  0  0  0  0  0  0  0
   46.2180   33.1120   38.9410 C   0  0  0  0  0  0  0  0  0  0  0  0
   47.6960   35.0980   41.7990 C   0  0  0  0  0  0  0  0  0  0  0  0
   48.6850   35.8580   41.7960 O   0  0  0  0  0  0  0  0  0  0  0  0
   46.8180   34.8350   42.9060 C   0  0  0  0  0  0  0  0  0  0  0  0
   45.6750   35.6480   42.9640 C   0  0  0  0  0  0  0  0  0  0  0  0
   44.8060   35.3960   44.0470 C   0  0  0  0  0  0  0  0  0  0  0  0
   45.1280   34.4020   44.9450 N   0  0  0  0  0  0  0  0  0  0  0  0
   46.2430   33.6720   44.8170 C   0  0  0  0  0  0  0  0  0  0  0  0
   47.0880   33.8930   43.7910 N   0  0  0  0  0  0  0  0  0  0  0  0
   45.8610   32.6010   47.0110 C   0  0  0  0  0  0  0  0  0  0  0  0
   44.9760   33.4370   47.3310 O   0  0  0  0  0  0  0  0  0  0  0  0
   46.5410   32.6560   45.7650 N   0  0  0  0  0  0  0  0  0  0  0  0
   45.5236   33.5604   40.9487 H   0  0  0  0  0  0  0  0  0  0  0  0
   49.3248   35.1495   39.7576 H   0  0  0  0  0  0  0  0  0  0  0  0
   50.0507   34.4625   37.1108 H   0  0  0  0  0  0  0  0  0  0  0  0
   48.9835   33.0995   35.2085 H   0  0  0  0  0  0  0  0  0  0  0  0
   46.6223   32.1812   36.1327 H   0  0  0  0  0  0  0  0  0  0  0  0
   45.3232   32.5200   38.6982 H   0  0  0  0  0  0  0  0  0  0  0  0
   45.4706   36.4284   42.2162 H   0  0  0  0  0  0  0  0  0  0  0  0
   43.8852   35.9845   44.1723 H   0  0  0  0  0  0  0  0  0  0  0  0
   46.1166   31.8003   47.7206 H   0  0  0  0  0  0  0  0  0  0  0  0
   47.2590   31.9507   45.5459 H   0  0  0  0  0  0  0  0  0  0  0  0
  1  2  2  0
  2 10  1  0
  3  2  1  0
  4  3  2  0
  5  4  1  0
  6  7  2  0
  6  5  1  0
  7  8  1  0
  8  4  1  0
  8  9  2  0
  9  1  1  0
 10 12  1  0
 11 10  2  0
 12 13  2  0
 12 17  1  0
 13 14  1  0
 14 15  2  0
 16 15  1  0
 16 20  1  0
 17 16  2  0
 18 19  2  0
 20 18  1  0
  1 21  1  0
  3 22  1  0
  5 23  1  0
  6 24  1  0
  7 25  1  0
  9 26  1  0
 13 27  1  0
 14 28  1  0
 18 29  1  0
 20 30  1  0
M  ISO  8  21  14  22  14  23   9  24  14  25  14  26  14  27  14  28  14
M  ISO  1  29   6
M  END
>  <minimizedAffinity>  (1) 
-6.15372133

>  <minimizedRMSD>  (1) 
0.0529699475

$$$$
