
     RDKit          3D

 13 13  0  0  0  0  0  0  0  0999 V2000
   45.4530   34.1660   45.4090 C   0  0  0  0  0  0  0  0  0  0  0  0
   46.3080   33.7520   44.3580 C   0  0  0  0  0  0  0  0  0  0  0  0
   47.1060   32.6290   44.6100 C   0  0  0  0  0  0  0  0  0  0  0  0
   47.0270   32.0040   45.8140 N   0  0  0  0  0  0  0  0  0  0  0  0
   46.1930   32.4400   46.7820 C   0  0  0  0  0  0  0  0  0  0  0  0
   45.4080   33.5170   46.5820 N   0  0  0  0  0  0  0  0  0  0  0  0
   44.6600   35.2660   45.1830 O   0  0  0  0  0  0  0  0  0  0  0  0
   44.6050   35.7740   43.8810 C   0  0  0  0  0  0  0  0  0  0  0  0
   45.0850   36.9010   43.5330 O   0  0  0  0  0  0  0  0  0  0  0  0
   46.3432   34.2839   43.3958 H   0  0  0  0  0  0  0  0  0  0  0  0
   47.7934   32.2547   43.8371 H   0  0  0  0  0  0  0  0  0  0  0  0
   46.1538   31.9100   47.7451 H   0  0  0  0  0  0  0  0  0  0  0  0
   44.1163   35.1614   43.1090 H   0  0  0  0  0  0  0  0  0  0  0  0
  1  6  2  0
  2  3  2  0
  2  1  1  0
  3  4  1  0
  4  5  2  0
  6  5  1  0
  7  1  1  0
  8  7  1  0
  9  8  2  0
  2 10  1  0
  3 11  1  0
  5 12  1  0
  8 13  1  0
M  ISO  4  10  14  11  14  12  14  13   6
M  END
>  <minimizedAffinity>  (1) 
-2.91790938

>  <minimizedRMSD>  (1) 
1.87066293

$$$$
