
     RDKit          3D

 22 23  0  0  0  0  0  0  0  0999 V2000
   45.5180   33.8450   45.3020 C   0  0  0  0  0  0  0  0  0  0  0  0
   45.3760   33.1620   44.0830 C   0  0  0  0  0  0  0  0  0  0  0  0
   45.9920   31.9080   43.9840 C   0  0  0  0  0  0  0  0  0  0  0  0
   46.6860   31.4330   45.0640 N   0  0  0  0  0  0  0  0  0  0  0  0
   46.7810   32.1320   46.1930 C   0  0  0  0  0  0  0  0  0  0  0  0
   46.2150   33.3210   46.3320 N   0  0  0  0  0  0  0  0  0  0  0  0
   47.5370   31.5210   47.2530 C   0  0  0  0  0  0  0  0  0  0  0  0
   47.8760   31.9470   48.4760 C   0  0  0  0  0  0  0  0  0  0  0  0
   48.6150   31.1510   49.3040 C   0  0  0  0  0  0  0  0  0  0  0  0
   48.9870   29.9100   48.8200 C   0  0  0  0  0  0  0  0  0  0  0  0
   48.2580   29.8630   47.1160 S   0  0  0  0  0  0  0  0  0  0  0  0
   44.9170   35.0720   45.4030 O   0  0  0  0  0  0  0  0  0  0  0  0
   44.5100   35.8160   44.3030 C   0  0  0  0  0  0  0  0  0  0  0  0
   45.2170   36.6300   43.6340 O   0  0  0  0  0  0  0  0  0  0  0  0
   43.2130   35.7800   43.7440 N   0  0  0  0  0  0  0  0  0  0  0  0
   44.8075   33.5919   43.2451 H   0  0  0  0  0  0  0  0  0  0  0  0
   45.9197   31.3178   43.0586 H   0  0  0  0  0  0  0  0  0  0  0  0
   47.5576   32.9436   48.8159 H   0  0  0  0  0  0  0  0  0  0  0  0
   48.9021   31.4828   50.3127 H   0  0  0  0  0  0  0  0  0  0  0  0
   49.5773   29.1327   49.3273 H   0  0  0  0  0  0  0  0  0  0  0  0
   42.9886   36.3635   42.9254 H   0  0  0  0  0  0  0  0  0  0  0  0
   42.4918   35.1703   44.1551 H   0  0  0  0  0  0  0  0  0  0  0  0
  1 12  1  0
  1  6  2  0
  2  1  1  0
  3  2  2  0
  3  4  1  0
  4  5  2  0
  5  6  1  0
  5  7  1  0
  7  8  2  0
  8  9  1  0
 10  9  2  0
 11  7  1  0
 11 10  1  0
 13 12  1  0
 14 13  2  0
 15 13  1  0
  2 16  1  0
  3 17  1  0
  8 18  1  0
  9 19  1  0
 10 20  1  0
 15 21  1  0
 15 22  1  0
M  ISO  5  16  14  17  14  18  14  19  14  20  14
M  END
>  <minimizedAffinity>  (1) 
-4.56628275

>  <minimizedRMSD>  (1) 
1.16641307

$$$$
