
     RDKit          3D

 18 18  0  0  0  0  0  0  0  0999 V2000
   45.5220   34.0310   45.5940 C   0  0  0  0  0  0  0  0  0  0  0  0
   46.2360   33.8880   44.3760 C   0  0  0  0  0  0  0  0  0  0  0  0
   47.0760   32.7730   44.2760 C   0  0  0  0  0  0  0  0  0  0  0  0
   47.1480   31.9160   45.3340 N   0  0  0  0  0  0  0  0  0  0  0  0
   46.4560   32.0940   46.4590 C   0  0  0  0  0  0  0  0  0  0  0  0
   45.6340   33.1500   46.6080 N   0  0  0  0  0  0  0  0  0  0  0  0
   46.5920   31.1110   47.5690 C   0  0  0  0  0  0  0  0  0  0  0  0
   44.7000   35.1190   45.6980 O   0  0  0  0  0  0  0  0  0  0  0  0
   44.3870   35.9580   44.6340 C   0  0  0  0  0  0  0  0  0  0  0  0
   45.0220   37.0070   44.3160 O   0  0  0  0  0  0  0  0  0  0  0  0
   43.2890   35.7370   43.7490 N   0  0  0  0  0  0  0  0  0  0  0  0
   46.1348   34.6136   43.5555 H   0  0  0  0  0  0  0  0  0  0  0  0
   47.6647   32.5922   43.3646 H   0  0  0  0  0  0  0  0  0  0  0  0
   46.5195   31.6348   48.5336 H   0  0  0  0  0  0  0  0  0  0  0  0
   45.7888   30.3629   47.4967 H   0  0  0  0  0  0  0  0  0  0  0  0
   47.5681   30.6091   47.4967 H   0  0  0  0  0  0  0  0  0  0  0  0
   43.1084   36.3956   42.9780 H   0  0  0  0  0  0  0  0  0  0  0  0
   42.6774   34.9189   43.8814 H   0  0  0  0  0  0  0  0  0  0  0  0
  1  8  1  0
  1  6  2  0
  2  1  1  0
  3  2  2  0
  3  4  1  0
  4  5  2  0
  5  6  1  0
  5  7  1  0
  9  8  1  0
 10  9  2  0
 11  9  1  0
  2 12  1  0
  3 13  1  0
  7 14  1  0
  7 15  1  0
  7 16  1  0
 11 17  1  0
 11 18  1  0
M  ISO  5  12  14  13  14  14   8  15   8  16   8
M  END
>  <minimizedAffinity>  (1) 
-3.89811182

>  <minimizedRMSD>  (1) 
0.0410933346

$$$$
