
     RDKit          3D

 30 31  0  0  0  0  0  0  0  0999 V2000
   45.6310   34.3410   45.0360 C   0  0  0  0  0  0  0  0  0  0  0  0
   46.4340   34.0650   43.9080 C   0  0  0  0  0  0  0  0  0  0  0  0
   47.2580   32.9350   43.9650 C   0  0  0  0  0  0  0  0  0  0  0  0
   47.2300   32.1750   45.1090 N   0  0  0  0  0  0  0  0  0  0  0  0
   46.4480   32.4880   46.1460 C   0  0  0  0  0  0  0  0  0  0  0  0
   45.6490   33.5640   46.1180 N   0  0  0  0  0  0  0  0  0  0  0  0
   46.5000   31.6180   47.2960 N   0  0  0  0  0  0  0  0  0  0  0  0
   46.2520   32.1720   48.5890 C   0  0  0  0  0  0  0  0  0  0  0  0
   45.4860   31.2450   49.4500 C   0  0  0  0  0  0  0  0  0  0  0  0
   44.9910   29.9810   48.8500 C   0  0  0  0  0  0  0  0  0  0  0  0
   45.8550   29.3430   47.8300 C   0  0  0  0  0  0  0  0  0  0  0  0
   46.8000   30.2220   47.1050 C   0  0  0  0  0  0  0  0  0  0  0  0
   44.8480   35.4540   44.9270 O   0  0  0  0  0  0  0  0  0  0  0  0
   44.4790   36.0650   43.7460 C   0  0  0  0  0  0  0  0  0  0  0  0
   45.1190   37.0000   43.1770 O   0  0  0  0  0  0  0  0  0  0  0  0
   43.3160   35.7090   43.0160 N   0  0  0  0  0  0  0  0  0  0  0  0
   46.4129   34.7127   43.0191 H   0  0  0  0  0  0  0  0  0  0  0  0
   47.9079   32.6639   43.1199 H   0  0  0  0  0  0  0  0  0  0  0  0
   47.2154   32.3917   49.0722 H   0  0  0  0  0  0  0  0  0  0  0  0
   45.6553   33.0868   48.4585 H   0  0  0  0  0  0  0  0  0  0  0  0
   46.1350   30.9730   50.2955 H   0  0  0  0  0  0  0  0  0  0  0  0
   44.5728   31.8018   49.7069 H   0  0  0  0  0  0  0  0  0  0  0  0
   44.8504   29.2576   49.6667 H   0  0  0  0  0  0  0  0  0  0  0  0
   44.0702   30.2572   48.3154 H   0  0  0  0  0  0  0  0  0  0  0  0
   46.4463   28.5653   48.3354 H   0  0  0  0  0  0  0  0  0  0  0  0
   45.1622   28.9718   47.0604 H   0  0  0  0  0  0  0  0  0  0  0  0
   46.7452   29.9916   46.0308 H   0  0  0  0  0  0  0  0  0  0  0  0
   47.8082   30.0356   47.5034 H   0  0  0  0  0  0  0  0  0  0  0  0
   43.0883   36.1990   42.1391 H   0  0  0  0  0  0  0  0  0  0  0  0
   42.6993   34.9605   43.3628 H   0  0  0  0  0  0  0  0  0  0  0  0
  1  6  2  0
  2  3  2  0
  2  1  1  0
  3  4  1  0
  4  5  2  0
  5  7  1  0
  6  5  1  0
  7  8  1  0
  8  9  1  0
 10  9  1  0
 11 10  1  0
 12  7  1  0
 12 11  1  0
 13  1  1  0
 14 13  1  0
 15 14  2  0
 16 14  1  0
  2 17  1  0
  3 18  1  0
  8 19  1  0
  8 20  1  0
  9 21  1  0
  9 22  1  0
 10 23  1  0
 10 24  1  0
 11 25  1  0
 11 26  1  0
 12 27  1  0
 12 28  1  0
 16 29  1  0
 16 30  1  0
M  ISO  8  17  14  18  14  19  13  20  13  21  13  22  13  23  13  24  13
M  ISO  4  25  13  26  13  27  13  28  13
M  END
>  <minimizedAffinity>  (1) 
-5.28078842

>  <minimizedRMSD>  (1) 
0.700610876

$$$$
