
     RDKit          3D

 45 47  0  0  1  0  0  0  0  0999 V2000
   45.6080   34.3570   44.9950 C   0  0  0  0  0  0  0  0  0  0  0  0
   46.4050   34.1070   43.8460 C   0  0  0  0  0  0  0  0  0  0  0  0
   47.2580   33.0020   43.8900 C   0  0  0  0  0  0  0  0  0  0  0  0
   47.2690   32.2340   45.0360 N   0  0  0  0  0  0  0  0  0  0  0  0
   46.4910   32.5310   46.0830 C   0  0  0  0  0  0  0  0  0  0  0  0
   45.6660   33.5810   46.0670 N   0  0  0  0  0  0  0  0  0  0  0  0
   46.5850   31.6550   47.2330 N   0  0  0  0  0  0  0  0  0  0  0  0
   46.3380   32.1950   48.5230 C   0  0  0  0  0  0  0  0  0  0  0  0
   45.6180   31.2490   49.3940 C   0  0  0  0  0  0  0  0  0  0  0  0
   45.1190   29.9860   48.7950 C   0  0  0  0  0  0  0  0  0  0  0  0
   45.9840   29.3650   47.7490 C   0  0  0  0  0  0  0  0  0  0  0  0
   46.9260   30.2700   47.0410 C   0  0  2  0  0  0  0  0  0  0  0  0
   48.2620   30.0580   47.5920 N   0  0  0  0  0  0  0  0  0  0  0  0
   48.6530   31.0410   48.5510 C   0  0  0  0  0  0  0  0  0  0  0  0
   49.0530   30.4900   49.8840 C   0  0  0  0  0  0  0  0  0  0  0  0
   50.0860   29.3960   49.7920 C   0  0  0  0  0  0  0  0  0  0  0  0
   49.8990   28.6220   48.5310 C   0  0  0  0  0  0  0  0  0  0  0  0
   48.4310   28.7410   48.1310 C   0  0  0  0  0  0  0  0  0  0  0  0
   44.7970   35.4490   44.8920 O   0  0  0  0  0  0  0  0  0  0  0  0
   44.4460   36.0800   43.7120 C   0  0  0  0  0  0  0  0  0  0  0  0
   45.0950   37.0350   43.1770 O   0  0  0  0  0  0  0  0  0  0  0  0
   43.3000   35.7310   42.9460 N   0  0  0  0  0  0  0  0  0  0  0  0
   46.3526   34.7560   42.9594 H   0  0  0  0  0  0  0  0  0  0  0  0
   47.9029   32.7511   43.0349 H   0  0  0  0  0  0  0  0  0  0  0  0
   47.3007   32.4461   48.9922 H   0  0  0  0  0  0  0  0  0  0  0  0
   45.7075   33.0879   48.4002 H   0  0  0  0  0  0  0  0  0  0  0  0
   46.3001   30.9749   50.2123 H   0  0  0  0  0  0  0  0  0  0  0  0
   44.7068   31.7896   49.6897 H   0  0  0  0  0  0  0  0  0  0  0  0
   44.9974   29.2545   49.6075 H   0  0  0  0  0  0  0  0  0  0  0  0
   44.1834   30.2534   48.2821 H   0  0  0  0  0  0  0  0  0  0  0  0
   46.5790   28.5765   48.2330 H   0  0  0  0  0  0  0  0  0  0  0  0
   45.2901   29.0057   46.9748 H   0  0  0  0  0  0  0  0  0  0  0  0
   46.8783   30.0433   45.9657 H   0  0  0  0  0  0  0  0  0  0  0  0
   49.5074   31.5992   48.1406 H   0  0  0  0  0  0  0  0  0  0  0  0
   47.7690   31.6713   48.7279 H   0  0  0  0  0  0  0  0  0  0  0  0
   49.4656   31.3095   50.4909 H   0  0  0  0  0  0  0  0  0  0  0  0
   48.1527   30.0503   50.3380 H   0  0  0  0  0  0  0  0  0  0  0  0
   51.0912   29.8427   49.7995 H   0  0  0  0  0  0  0  0  0  0  0  0
   49.9720   28.7188   50.6513 H   0  0  0  0  0  0  0  0  0  0  0  0
   50.5388   29.0364   47.7380 H   0  0  0  0  0  0  0  0  0  0  0  0
   50.1750   27.5676   48.6799 H   0  0  0  0  0  0  0  0  0  0  0  0
   47.7851   28.6046   49.0109 H   0  0  0  0  0  0  0  0  0  0  0  0
   48.1555   27.9714   47.3949 H   0  0  0  0  0  0  0  0  0  0  0  0
   43.0895   36.2375   42.0742 H   0  0  0  0  0  0  0  0  0  0  0  0
   42.6804   34.9717   43.2629 H   0  0  0  0  0  0  0  0  0  0  0  0
  1  6  2  0
  2  3  2  0
  2  1  1  0
  3  4  1  0
  4  5  2  0
  5  7  1  0
  6  5  1  0
  7  8  1  0
  8  9  1  0
 10  9  1  0
 11 10  1  0
 12  7  1  0
 12 13  1  0
 12 11  1  0
 13 18  1  0
 13 14  1  0
 14 15  1  0
 16 15  1  0
 17 16  1  0
 18 17  1  0
 19  1  1  0
 20 19  1  0
 21 20  2  0
 22 20  1  0
  2 23  1  0
  3 24  1  0
  8 25  1  0
  8 26  1  0
  9 27  1  0
  9 28  1  0
 10 29  1  0
 10 30  1  0
 11 31  1  0
 11 32  1  0
 12 33  1  6
 14 34  1  0
 14 35  1  0
 15 36  1  0
 15 37  1  0
 16 38  1  0
 16 39  1  0
 17 40  1  0
 17 41  1  0
 18 42  1  0
 18 43  1  0
 22 44  1  0
 22 45  1  0
M  ISO  8  23  14  24  14  25  13  26  13  27  13  28  13  29  13  30  13
M  ISO  8  31  13  32  13  33  13  34  13  35  13  36  13  37  13  38  13
M  ISO  5  39  13  40  13  41  13  42  13  43  13
M  END
>  <minimizedAffinity>  (1) 
-6.08607101

>  <minimizedRMSD>  (1) 
0.195815757

$$$$
