
     RDKit          3D

 33 34  0  0  1  0  0  0  0  0999 V2000
   45.6410   34.3340   45.0280 C   0  0  0  0  0  0  0  0  0  0  0  0
   46.4440   34.0620   43.8990 C   0  0  0  0  0  0  0  0  0  0  0  0
   47.2660   32.9310   43.9620 C   0  0  0  0  0  0  0  0  0  0  0  0
   47.2300   32.1780   45.1080 N   0  0  0  0  0  0  0  0  0  0  0  0
   46.4460   32.4900   46.1430 C   0  0  0  0  0  0  0  0  0  0  0  0
   45.6430   33.5680   46.1190 N   0  0  0  0  0  0  0  0  0  0  0  0
   46.5020   31.6150   47.2880 N   0  0  0  0  0  0  0  0  0  0  0  0
   46.2610   32.1740   48.5820 C   0  0  0  0  0  0  0  0  0  0  0  0
   45.4970   31.2540   49.4550 C   0  0  0  0  0  0  0  0  0  0  0  0
   44.9750   29.9940   48.8460 C   0  0  0  0  0  0  0  0  0  0  0  0
   45.8540   29.3510   47.8430 C   0  0  0  0  0  0  0  0  0  0  0  0
   46.7920   30.2290   47.0940 C   0  0  2  0  0  0  0  0  0  0  0  0
   48.2620   29.9720   47.4000 C   0  0  0  0  0  0  0  0  0  0  0  0
   44.8500   35.4530   44.9240 O   0  0  0  0  0  0  0  0  0  0  0  0
   44.4660   36.0500   43.7440 C   0  0  0  0  0  0  0  0  0  0  0  0
   45.1170   36.9900   43.1800 O   0  0  0  0  0  0  0  0  0  0  0  0
   43.3110   35.7050   43.0050 N   0  0  0  0  0  0  0  0  0  0  0  0
   46.4244   34.7097   43.0101 H   0  0  0  0  0  0  0  0  0  0  0  0
   47.9190   32.6552   43.1208 H   0  0  0  0  0  0  0  0  0  0  0  0
   47.2277   32.3937   49.0587 H   0  0  0  0  0  0  0  0  0  0  0  0
   45.6634   33.0879   48.4492 H   0  0  0  0  0  0  0  0  0  0  0  0
   46.1561   30.9681   50.2880 H   0  0  0  0  0  0  0  0  0  0  0  0
   44.5973   31.8206   49.7371 H   0  0  0  0  0  0  0  0  0  0  0  0
   44.8049   29.2718   49.6581 H   0  0  0  0  0  0  0  0  0  0  0  0
   44.0620   30.2803   48.3034 H   0  0  0  0  0  0  0  0  0  0  0  0
   46.4569   28.5956   48.3682 H   0  0  0  0  0  0  0  0  0  0  0  0
   45.1681   28.9549   47.0796 H   0  0  0  0  0  0  0  0  0  0  0  0
   46.6271   29.9645   46.0391 H   0  0  0  0  0  0  0  0  0  0  0  0
   48.4106   29.9460   48.4896 H   0  0  0  0  0  0  0  0  0  0  0  0
   48.5638   29.0075   46.9657 H   0  0  0  0  0  0  0  0  0  0  0  0
   48.8731   30.7769   46.9657 H   0  0  0  0  0  0  0  0  0  0  0  0
   43.0929   36.2009   42.1290 H   0  0  0  0  0  0  0  0  0  0  0  0
   42.6877   34.9578   43.3427 H   0  0  0  0  0  0  0  0  0  0  0  0
  1  6  2  0
  2  3  2  0
  2  1  1  0
  3  4  1  0
  4  5  2  0
  5  7  1  0
  6  5  1  0
  7  8  1  0
  8  9  1  0
 10  9  1  0
 11 10  1  0
 12  7  1  0
 12 13  1  0
 12 11  1  0
 14  1  1  0
 15 14  1  0
 16 15  2  0
 17 15  1  0
  2 18  1  0
  3 19  1  0
  8 20  1  0
  8 21  1  0
  9 22  1  0
  9 23  1  0
 10 24  1  0
 10 25  1  0
 11 26  1  0
 11 27  1  0
 12 28  1  6
 13 29  1  0
 13 30  1  0
 13 31  1  0
 17 32  1  0
 17 33  1  0
M  ISO  8  18  14  19  14  20  13  21  13  22  13  23  13  24  13  25  13
M  ISO  6  26  13  27  13  28  13  29   8  30   8  31   8
M  END
>  <minimizedAffinity>  (1) 
-5.48192263

>  <minimizedRMSD>  (1) 
0.00684282929

$$$$
