
     RDKit          3D

 38 39  0  0  1  0  0  0  0  0999 V2000
   45.5710   34.2980   45.0200 C   0  0  0  0  0  0  0  0  0  0  0  0
   46.4420   34.0490   43.9330 C   0  0  0  0  0  0  0  0  0  0  0  0
   47.3190   32.9790   44.0600 C   0  0  0  0  0  0  0  0  0  0  0  0
   47.2800   32.2450   45.2190 N   0  0  0  0  0  0  0  0  0  0  0  0
   46.4410   32.5260   46.2080 C   0  0  0  0  0  0  0  0  0  0  0  0
   45.5860   33.5450   46.1200 N   0  0  0  0  0  0  0  0  0  0  0  0
   46.5060   31.6720   47.3650 N   0  0  0  0  0  0  0  0  0  0  0  0
   46.1650   32.2330   48.6430 C   0  0  0  0  0  0  0  0  0  0  0  0
   45.4230   31.2900   49.4930 C   0  0  0  0  0  0  0  0  0  0  0  0
   45.0050   29.9950   48.8880 C   0  0  0  0  0  0  0  0  0  0  0  0
   45.9390   29.3820   47.9260 C   0  0  0  0  0  0  0  0  0  0  0  0
   46.8990   30.3110   47.2470 C   0  0  1  0  0  0  0  0  0  0  0  0
   47.0140   29.8920   45.8710 N   0  0  0  0  0  0  0  0  0  0  0  0
   45.7230   28.9360   45.3020 S   0  0  0  0  0  0  0  0  0  0  0  0
   45.9220   28.7590   43.8220 O   0  0  0  0  0  0  0  0  0  0  0  0
   45.6160   27.5890   45.9080 O   0  0  0  0  0  0  0  0  0  0  0  0
   44.2480   29.7740   45.4660 O   0  0  0  0  0  0  0  0  0  0  0  0
   44.7170   35.3630   44.8640 O   0  0  0  0  0  0  0  0  0  0  0  0
   44.4450   35.9910   43.6750 C   0  0  0  0  0  0  0  0  0  0  0  0
   45.1060   36.9610   43.1780 O   0  0  0  0  0  0  0  0  0  0  0  0
   43.3530   35.6060   42.8460 N   0  0  0  0  0  0  0  0  0  0  0  0
   46.4255   34.6744   43.0282 H   0  0  0  0  0  0  0  0  0  0  0  0
   48.0246   32.7273   43.2545 H   0  0  0  0  0  0  0  0  0  0  0  0
   47.0921   32.5200   49.1608 H   0  0  0  0  0  0  0  0  0  0  0  0
   45.5157   33.1026   48.4634 H   0  0  0  0  0  0  0  0  0  0  0  0
   46.0596   31.0576   50.3595 H   0  0  0  0  0  0  0  0  0  0  0  0
   44.4797   31.8065   49.7241 H   0  0  0  0  0  0  0  0  0  0  0  0
   44.8525   29.2778   49.7079 H   0  0  0  0  0  0  0  0  0  0  0  0
   44.1007   30.2262   48.3060 H   0  0  0  0  0  0  0  0  0  0  0  0
   46.5289   28.6271   48.4665 H   0  0  0  0  0  0  0  0  0  0  0  0
   45.3070   28.9756   47.1226 H   0  0  0  0  0  0  0  0  0  0  0  0
   47.8822   30.2557   47.7372 H   0  0  0  0  0  0  0  0  0  0  0  0
   47.0706   30.7359   45.2832 H   0  0  0  0  0  0  0  0  0  0  0  0
   46.6521   28.1096   43.6625 H   0  0  0  0  0  0  0  0  0  0  0  0
   45.6224   27.6696   46.8947 H   0  0  0  0  0  0  0  0  0  0  0  0
   44.0405   29.8919   46.4268 H   0  0  0  0  0  0  0  0  0  0  0  0
   43.1798   36.1011   41.9596 H   0  0  0  0  0  0  0  0  0  0  0  0
   42.7364   34.8324   43.1328 H   0  0  0  0  0  0  0  0  0  0  0  0
  1  6  2  0
  2  3  2  0
  2  1  1  0
  3  4  1  0
  4  5  2  0
  5  7  1  0
  6  5  1  0
  7  8  1  0
  8  9  1  0
 10  9  1  0
 11 10  1  0
 12  7  1  0
 12 11  1  0
 13 12  1  0
 14 17  1  0
 14 13  1  0
 14 16  1  0
 15 14  1  0
 18  1  1  0
 19 18  1  0
 20 19  2  0
 21 19  1  0
  2 22  1  0
  3 23  1  0
  8 24  1  0
  8 25  1  0
  9 26  1  0
  9 27  1  0
 10 28  1  0
 10 29  1  0
 11 30  1  0
 11 31  1  0
 12 32  1  1
 13 33  1  0
 15 34  1  0
 16 35  1  0
 17 36  1  0
 21 37  1  0
 21 38  1  0
M  ISO  8  22  14  23  14  24  13  25  13  26  13  27  13  28  13  29  13
M  ISO  7  30  13  31  13  32  13  33   5  34   3  35   3  36   3
M  END
>  <minimizedAffinity>  (1) 
-5.38566637

>  <minimizedRMSD>  (1) 
0.20848757

$$$$
