
     RDKit          3D

 26 27  0  0  1  0  0  0  0  0999 V2000
   47.2430   34.6390   42.3150 N   0  0  0  0  0  0  0  0  0  0  0  0
   48.6940   34.7360   42.3150 C   0  0  0  0  0  0  0  0  0  0  0  0
   48.8490   35.5520   41.0370 C   0  0  0  0  0  0  0  0  0  0  0  0
   48.0830   34.6310   40.1120 C   0  0  0  0  0  0  0  0  0  0  0  0
   46.8680   34.2890   40.9660 C   0  0  1  0  0  0  0  0  0  0  0  0
   44.5160   35.9800   44.4650 C   0  0  0  0  0  0  0  0  0  0  0  0
   45.3810   35.8810   43.3710 C   0  0  0  0  0  0  0  0  0  0  0  0
   46.3260   34.8290   43.3670 C   0  0  0  0  0  0  0  0  0  0  0  0
   46.3390   33.9770   44.4250 N   0  0  0  0  0  0  0  0  0  0  0  0
   45.4830   34.1080   45.4670 C   0  0  0  0  0  0  0  0  0  0  0  0
   44.5720   35.1070   45.4880 N   0  0  0  0  0  0  0  0  0  0  0  0
   47.3660   32.0270   40.1370 C   0  0  0  0  0  0  0  0  0  0  0  0
   48.4750   32.5000   39.7370 O   0  0  0  0  0  0  0  0  0  0  0  0
   46.4650   32.9220   40.7970 N   0  0  0  0  0  0  0  0  0  0  0  0
   49.0765   35.2680   43.1986 H   0  0  0  0  0  0  0  0  0  0  0  0
   49.2426   33.7832   42.3503 H   0  0  0  0  0  0  0  0  0  0  0  0
   48.3834   36.5454   41.1168 H   0  0  0  0  0  0  0  0  0  0  0  0
   49.8797   35.7927   40.7373 H   0  0  0  0  0  0  0  0  0  0  0  0
   48.6670   33.7321   39.8651 H   0  0  0  0  0  0  0  0  0  0  0  0
   47.8362   35.0767   39.1371 H   0  0  0  0  0  0  0  0  0  0  0  0
   45.9700   34.8507   40.6692 H   0  0  0  0  0  0  0  0  0  0  0  0
   43.7724   36.7902   44.4903 H   0  0  0  0  0  0  0  0  0  0  0  0
   45.3281   36.5990   42.5394 H   0  0  0  0  0  0  0  0  0  0  0  0
   45.5296   33.3952   46.3035 H   0  0  0  0  0  0  0  0  0  0  0  0
   47.1078   30.9690   39.9819 H   0  0  0  0  0  0  0  0  0  0  0  0
   45.5515   32.5937   41.1416 H   0  0  0  0  0  0  0  0  0  0  0  0
  1  8  1  0
  2  1  1  0
  3  2  1  0
  4  5  1  0
  4  3  1  0
  5  1  1  0
  6 11  2  0
  7  6  1  0
  8  7  2  0
  8  9  1  0
  9 10  2  0
 10 11  1  0
 12 14  1  0
 13 12  2  0
 14  5  1  0
  2 15  1  0
  2 16  1  0
  3 17  1  0
  3 18  1  0
  4 19  1  0
  4 20  1  0
  5 21  1  6
  6 22  1  0
  7 23  1  0
 10 24  1  0
 12 25  1  0
 14 26  1  0
M  ISO  8  15  13  16  13  17  13  18  13  19  13  20  13  21  13  22  14
M  ISO  3  23  14  24  14  25   6
M  END
>  <minimizedAffinity>  (1) 
-4.57596731

>  <minimizedRMSD>  (1) 
1.4062053

$$$$
