
     RDKit          3D

 37 40  0  0  1  0  0  0  0  0999 V2000
   47.1640   34.3540   42.6490 N   0  0  0  0  0  0  0  0  0  0  0  0
   48.5330   33.8310   42.5940 C   0  0  0  0  0  0  0  0  0  0  0  0
   49.1070   34.8690   41.6500 C   0  0  0  0  0  0  0  0  0  0  0  0
   48.1120   34.7850   40.5240 C   0  0  0  0  0  0  0  0  0  0  0  0
   46.7890   34.6830   41.2480 C   0  0  1  0  0  0  0  0  0  0  0  0
   45.9710   33.5730   40.7990 C   0  0  0  0  0  0  0  0  0  0  0  0
   46.4960   32.3340   40.6150 N   0  0  0  0  0  0  0  0  0  0  0  0
   45.8160   31.2630   40.1980 C   0  0  0  0  0  0  0  0  0  0  0  0
   44.4980   31.4060   39.9360 N   0  0  0  0  0  0  0  0  0  0  0  0
   43.9360   32.5880   40.0980 C   0  0  0  0  0  0  0  0  0  0  0  0
   42.5770   32.6780   39.8190 C   0  0  0  0  0  0  0  0  0  0  0  0
   41.9810   33.9310   39.9940 C   0  0  0  0  0  0  0  0  0  0  0  0
   42.6440   35.0780   40.4230 C   0  0  0  0  0  0  0  0  0  0  0  0
   43.9890   34.8940   40.6760 C   0  0  0  0  0  0  0  0  0  0  0  0
   44.6310   33.7150   40.5300 C   0  0  0  0  0  0  0  0  0  0  0  0
   44.5360   35.6890   44.9130 C   0  0  0  0  0  0  0  0  0  0  0  0
   45.3550   35.5760   43.7990 C   0  0  0  0  0  0  0  0  0  0  0  0
   46.2910   34.5550   43.7310 C   0  0  0  0  0  0  0  0  0  0  0  0
   46.3730   33.6880   44.7740 N   0  0  0  0  0  0  0  0  0  0  0  0
   45.5700   33.7960   45.8710 C   0  0  0  0  0  0  0  0  0  0  0  0
   44.6530   34.8030   45.9290 N   0  0  0  0  0  0  0  0  0  0  0  0
   45.7190   32.6240   47.2250 S   0  0  0  0  0  0  0  0  0  0  0  0
   49.0250   33.8428   43.5777 H   0  0  0  0  0  0  0  0  0  0  0  0
   48.6404   32.7806   42.2854 H   0  0  0  0  0  0  0  0  0  0  0  0
   49.1226   35.8699   42.1060 H   0  0  0  0  0  0  0  0  0  0  0  0
   50.1526   34.6963   41.3553 H   0  0  0  0  0  0  0  0  0  0  0  0
   48.2923   33.8956   39.9023 H   0  0  0  0  0  0  0  0  0  0  0  0
   48.1643   35.6400   39.8339 H   0  0  0  0  0  0  0  0  0  0  0  0
   46.2200   35.6115   41.0930 H   0  0  0  0  0  0  0  0  0  0  0  0
   46.3151   30.2910   40.0712 H   0  0  0  0  0  0  0  0  0  0  0  0
   41.9990   31.8066   39.4774 H   0  0  0  0  0  0  0  0  0  0  0  0
   40.9062   34.0171   39.7761 H   0  0  0  0  0  0  0  0  0  0  0  0
   42.1396   36.0473   40.5495 H   0  0  0  0  0  0  0  0  0  0  0  0
   44.5734   35.7611   41.0175 H   0  0  0  0  0  0  0  0  0  0  0  0
   43.7925   36.4977   44.9703 H   0  0  0  0  0  0  0  0  0  0  0  0
   45.2622   36.2947   42.9714 H   0  0  0  0  0  0  0  0  0  0  0  0
   45.6341   33.2916   48.4183 H   0  0  0  0  0  0  0  0  0  0  0  0
  1 18  1  0
  2  1  1  0
  3  2  1  0
  4  5  1  0
  4  3  1  0
  5  1  1  0
  6  5  1  0
  7  6  2  0
  8  7  1  0
  9 10  1  0
  9  8  2  0
 10 15  2  0
 11 12  2  0
 11 10  1  0
 12 13  1  0
 13 14  2  0
 15 14  1  0
 15  6  1  0
 16 21  2  0
 17 16  1  0
 18 17  2  0
 18 19  1  0
 19 20  2  0
 20 21  1  0
 20 22  1  0
  2 23  1  0
  2 24  1  0
  3 25  1  0
  3 26  1  0
  4 27  1  0
  4 28  1  0
  5 29  1  1
  8 30  1  0
 11 31  1  0
 12 32  1  0
 13 33  1  0
 14 34  1  0
 16 35  1  0
 17 36  1  0
 22 37  1  0
M  ISO  8  23  13  24  13  25  13  26  13  27  13  28  13  29  13  30  14
M  ISO  7  31  14  32  14  33  14  34  14  35  14  36  14  37  11
M  END
>  <minimizedAffinity>  (1) 
-5.76372576

>  <minimizedRMSD>  (1) 
0.044349432

$$$$
