
     RDKit          3D

 23 23  0  0  0  0  0  0  0  0999 V2000
   44.9040   37.8060   44.6460 C   0  0  0  0  0  0  0  0  0  0  0  0
   45.3620   38.8160   43.9070 C   0  0  0  0  0  0  0  0  0  0  0  0
   44.9760   36.4670   44.0680 C   0  0  0  0  0  0  0  0  0  0  0  0
   45.0160   36.3440   42.6600 C   0  0  0  0  0  0  0  0  0  0  0  0
   45.0840   35.0510   42.1130 C   0  0  0  0  0  0  0  0  0  0  0  0
   45.1090   33.9860   42.9610 N   0  0  0  0  0  0  0  0  0  0  0  0
   45.0690   34.1440   44.3100 C   0  0  0  0  0  0  0  0  0  0  0  0
   45.0040   35.3670   44.8390 N   0  0  0  0  0  0  0  0  0  0  0  0
   45.3470   40.2210   44.3770 C   0  0  0  0  0  0  0  0  0  0  0  0
   44.7260   40.3630   45.5900 O   0  0  0  0  0  0  0  0  0  0  0  0
   42.8920   42.1710   45.6010 O   0  0  0  0  0  0  0  0  0  0  0  0
   44.3490   41.9690   45.9440 P   0  0  0  0  0  0  0  0  0  0  0  0
   44.6230   42.3140   47.5660 O   0  0  0  0  0  0  0  0  0  0  0  0
   45.2580   43.0650   45.0350 O   0  0  0  0  0  0  0  0  0  0  0  0
   44.4886   37.9742   45.6506 H   0  0  0  0  0  0  0  0  0  0  0  0
   45.7674   38.5978   42.9080 H   0  0  0  0  0  0  0  0  0  0  0  0
   44.9946   37.2330   42.0125 H   0  0  0  0  0  0  0  0  0  0  0  0
   45.1163   34.9027   41.0235 H   0  0  0  0  0  0  0  0  0  0  0  0
   45.0902   33.2620   44.9670 H   0  0  0  0  0  0  0  0  0  0  0  0
   46.3851   40.5731   44.4690 H   0  0  0  0  0  0  0  0  0  0  0  0
   44.7822   40.8129   43.6416 H   0  0  0  0  0  0  0  0  0  0  0  0
   44.1166   41.6764   48.1291 H   0  0  0  0  0  0  0  0  0  0  0  0
   45.7562   43.6657   45.6442 H   0  0  0  0  0  0  0  0  0  0  0  0
  2  9  1  0
  2  1  2  0
  3  1  1  0
  3  8  2  0
  4  3  1  0
  5  4  2  0
  5  6  1  0
  6  7  2  0
  7  8  1  0
  9 10  1  0
 10 12  1  0
 11 12  2  0
 12 13  1  0
 14 12  1  0
  1 15  1  0
  2 16  1  0
  4 17  1  0
  5 18  1  0
  7 19  1  0
  9 20  1  0
  9 21  1  0
 13 22  1  0
 14 23  1  0
M  ISO  7  17  14  18  14  19  14  20   8  21   8  22   3  23   3
M  END
>  <minimizedAffinity>  (1) 
-2.4341774

>  <minimizedRMSD>  (1) 
1.21034074

$$$$
