
     RDKit          3D

 26 26  0  0  0  0  0  0  0  0999 V2000
   45.3090   40.3360   44.3790 C   0  0  0  0  0  0  0  0  0  0  0  0
   44.9040   37.9210   44.6970 C   0  0  0  0  0  0  0  0  0  0  0  0
   45.3200   38.9320   43.9390 C   0  0  0  0  0  0  0  0  0  0  0  0
   45.0000   36.5760   44.1150 C   0  0  0  0  0  0  0  0  0  0  0  0
   45.1660   36.4400   42.7290 C   0  0  0  0  0  0  0  0  0  0  0  0
   45.2620   35.1390   42.2050 C   0  0  0  0  0  0  0  0  0  0  0  0
   45.1880   34.0810   43.0580 N   0  0  0  0  0  0  0  0  0  0  0  0
   45.0270   34.2600   44.3890 C   0  0  0  0  0  0  0  0  0  0  0  0
   44.9330   35.4850   44.9140 N   0  0  0  0  0  0  0  0  0  0  0  0
   44.6880   40.4900   45.6010 O   0  0  0  0  0  0  0  0  0  0  0  0
   42.8270   42.2640   45.5510 O   0  0  0  0  0  0  0  0  0  0  0  0
   44.2810   42.1020   45.9080 P   0  0  1  0  0  0  0  0  0  0  0  0
   44.5430   42.4740   47.5320 O   0  0  0  0  0  0  0  0  0  0  0  0
   45.1870   43.1880   45.0090 O   0  0  0  0  0  0  0  0  0  0  0  0
   45.3110   44.4370   45.5950 C   0  0  0  0  0  0  0  0  0  0  0  0
   45.6620   44.3850   46.9320 F   0  0  0  0  0  0  0  0  0  0  0  0
   44.0580   45.0200   45.5330 F   0  0  0  0  0  0  0  0  0  0  0  0
   46.1850   45.2790   44.9450 F   0  0  0  0  0  0  0  0  0  0  0  0
   44.7738   40.9386   43.6303 H   0  0  0  0  0  0  0  0  0  0  0  0
   46.3527   40.6671   44.4843 H   0  0  0  0  0  0  0  0  0  0  0  0
   44.5076   38.0844   45.7100 H   0  0  0  0  0  0  0  0  0  0  0  0
   45.6923   38.7062   42.9288 H   0  0  0  0  0  0  0  0  0  0  0  0
   45.2193   37.3219   42.0738 H   0  0  0  0  0  0  0  0  0  0  0  0
   45.3946   34.9790   41.1248 H   0  0  0  0  0  0  0  0  0  0  0  0
   44.9726   33.3825   45.0501 H   0  0  0  0  0  0  0  0  0  0  0  0
   44.0767   41.8120   48.1016 H   0  0  0  0  0  0  0  0  0  0  0  0
  1 10  1  0
  3  1  1  0
  3  2  2  0
  4  2  1  0
  4  9  2  0
  5  4  1  0
  6  5  2  0
  6  7  1  0
  7  8  2  0
  8  9  1  0
 10 12  1  0
 12 11  2  0
 12 13  1  0
 14 15  1  0
 14 12  1  0
 15 16  1  0
 17 15  1  0
 18 15  1  0
  1 19  1  0
  1 20  1  0
  2 21  1  0
  3 22  1  0
  5 23  1  0
  6 24  1  0
  8 25  1  0
 13 26  1  0
M  ISO  6  19   8  20   8  23  14  24  14  25  14  26   3
M  END
>  <minimizedAffinity>  (1) 
-2.39520836

>  <minimizedRMSD>  (1) 
1.06642246

$$$$
