
     RDKit          3D

 20 21  0  0  0  0  0  0  0  0999 V2000
   44.4770   35.9580   44.7520 C   0  0  0  0  0  0  0  0  0  0  0  0
   45.1760   35.8830   43.5410 C   0  0  0  0  0  0  0  0  0  0  0  0
   46.0870   34.8600   43.2850 C   0  0  0  0  0  0  0  0  0  0  0  0
   46.2430   33.9530   44.2850 N   0  0  0  0  0  0  0  0  0  0  0  0
   45.5710   34.0280   45.4440 C   0  0  0  0  0  0  0  0  0  0  0  0
   44.6990   35.0140   45.6800 N   0  0  0  0  0  0  0  0  0  0  0  0
   45.1030   33.3500   41.1700 F   0  0  0  0  0  0  0  0  0  0  0  0
   46.2930   33.9970   41.0270 C   0  0  0  0  0  0  0  0  0  0  0  0
   46.8290   34.7560   42.0350 C   0  0  0  0  0  0  0  0  0  0  0  0
   48.0370   35.3650   41.7780 C   0  0  0  0  0  0  0  0  0  0  0  0
   48.7170   35.2530   40.5950 C   0  0  0  0  0  0  0  0  0  0  0  0
   48.1310   34.4750   39.6120 C   0  0  0  0  0  0  0  0  0  0  0  0
   46.9190   33.8390   39.8110 C   0  0  0  0  0  0  0  0  0  0  0  0
   43.7617   36.7726   44.9387 H   0  0  0  0  0  0  0  0  0  0  0  0
   45.0017   36.6507   42.7727 H   0  0  0  0  0  0  0  0  0  0  0  0
   45.7409   33.2628   46.2158 H   0  0  0  0  0  0  0  0  0  0  0  0
   48.4837   35.9801   42.5731 H   0  0  0  0  0  0  0  0  0  0  0  0
   49.6816   35.7566   40.4339 H   0  0  0  0  0  0  0  0  0  0  0  0
   48.6433   34.3592   38.6455 H   0  0  0  0  0  0  0  0  0  0  0  0
   46.4674   33.2235   39.0190 H   0  0  0  0  0  0  0  0  0  0  0  0
  1  6  2  0
  2  1  1  0
  3  2  2  0
  3  4  1  0
  4  5  2  0
  5  6  1  0
  8  7  1  0
  8  9  2  0
  9  3  1  0
 10  9  1  0
 11 10  2  0
 12 13  2  0
 12 11  1  0
 13  8  1  0
  1 14  1  0
  2 15  1  0
  5 16  1  0
 10 17  1  0
 11 18  1  0
 12 19  1  0
 13 20  1  0
M  ISO  7  14  14  15  14  16  14  17  14  18  14  19  14  20  14
M  END
>  <minimizedAffinity>  (1) 
-5.03796101

>  <minimizedRMSD>  (1) 
0.842186511

$$$$
