
     RDKit          3D

 36 39  0  0  0  0  0  0  0  0999 V2000
   44.9770   33.5360   41.1930 F   0  0  0  0  0  0  0  0  0  0  0  0
   46.2130   34.1100   41.0790 C   0  0  0  0  0  0  0  0  0  0  0  0
   46.8100   34.7720   42.1340 C   0  0  0  0  0  0  0  0  0  0  0  0
   48.0510   35.3060   41.8970 C   0  0  0  0  0  0  0  0  0  0  0  0
   48.7110   35.2210   40.7060 C   0  0  0  0  0  0  0  0  0  0  0  0
   48.0760   34.5510   39.6830 C   0  0  0  0  0  0  0  0  0  0  0  0
   46.8320   33.9920   39.8530 C   0  0  0  0  0  0  0  0  0  0  0  0
   46.1600   33.2760   38.7480 C   0  0  0  0  0  0  0  0  0  0  0  0
   44.8430   32.9020   38.9790 C   0  0  0  0  0  0  0  0  0  0  0  0
   44.2010   32.2330   37.9590 C   0  0  0  0  0  0  0  0  0  0  0  0
   44.8070   31.9280   36.7470 C   0  0  0  0  0  0  0  0  0  0  0  0
   46.1040   32.3250   36.5880 C   0  0  0  0  0  0  0  0  0  0  0  0
   46.8130   32.0780   35.4250 C   0  0  0  0  0  0  0  0  0  0  0  0
   48.1370   32.4780   35.2500 C   0  0  0  0  0  0  0  0  0  0  0  0
   48.7680   33.1450   36.2740 C   0  0  0  0  0  0  0  0  0  0  0  0
   48.1180   33.4300   37.4770 C   0  0  0  0  0  0  0  0  0  0  0  0
   46.8240   32.9970   37.5500 C   0  0  0  0  0  0  0  0  0  0  0  0
   44.4580   35.9290   44.8660 C   0  0  0  0  0  0  0  0  0  0  0  0
   45.1580   35.8690   43.6550 C   0  0  0  0  0  0  0  0  0  0  0  0
   46.0770   34.8440   43.3890 C   0  0  0  0  0  0  0  0  0  0  0  0
   46.2330   33.9320   44.3700 N   0  0  0  0  0  0  0  0  0  0  0  0
   45.5570   33.9970   45.5280 C   0  0  0  0  0  0  0  0  0  0  0  0
   44.6830   34.9730   45.7800 N   0  0  0  0  0  0  0  0  0  0  0  0
   48.5471   35.8382   42.7221 H   0  0  0  0  0  0  0  0  0  0  0  0
   49.7067   35.6679   40.5684 H   0  0  0  0  0  0  0  0  0  0  0  0
   48.5764   34.4614   38.7075 H   0  0  0  0  0  0  0  0  0  0  0  0
   44.3369   33.1284   39.9291 H   0  0  0  0  0  0  0  0  0  0  0  0
   43.1562   31.9252   38.1126 H   0  0  0  0  0  0  0  0  0  0  0  0
   44.2675   31.3918   35.9524 H   0  0  0  0  0  0  0  0  0  0  0  0
   46.3109   31.5439   34.6049 H   0  0  0  0  0  0  0  0  0  0  0  0
   48.6672   32.2641   34.3103 H   0  0  0  0  0  0  0  0  0  0  0  0
   49.8128   33.4626   36.1420 H   0  0  0  0  0  0  0  0  0  0  0  0
   48.6107   33.9630   38.3035 H   0  0  0  0  0  0  0  0  0  0  0  0
   43.7413   36.7399   45.0632 H   0  0  0  0  0  0  0  0  0  0  0  0
   44.9829   36.6441   42.8944 H   0  0  0  0  0  0  0  0  0  0  0  0
   45.7286   33.2234   46.2909 H   0  0  0  0  0  0  0  0  0  0  0  0
  2  1  1  0
  2  3  2  0
  3 20  1  0
  4  3  1  0
  5  4  2  0
  6  7  2  0
  6  5  1  0
  7  2  1  0
  8  9  2  0
  8  7  1  0
 10  9  1  0
 11 10  2  0
 12 11  1  0
 12 17  2  0
 13 12  1  0
 14 13  2  0
 14 15  1  0
 15 16  2  0
 16 17  1  0
 17  8  1  0
 18 23  2  0
 19 18  1  0
 20 19  2  0
 20 21  1  0
 21 22  2  0
 22 23  1  0
  4 24  1  0
  5 25  1  0
  6 26  1  0
  9 27  1  0
 10 28  1  0
 11 29  1  0
 13 30  1  0
 14 31  1  0
 15 32  1  0
 16 33  1  0
 18 34  1  0
 19 35  1  0
 22 36  1  0
M  ISO  8  24  14  25  14  26  14  27  14  28  14  29  14  30  14  31  14
M  ISO  5  32  14  33  14  34  14  35  14  36  14
M  END
>  <minimizedAffinity>  (1) 
-6.55944633

>  <minimizedRMSD>  (1) 
0.26001358

$$$$
