
     RDKit          3D

 27 29  0  0  0  0  0  0  0  0999 V2000
   45.1110   33.2760   41.1850 F   0  0  0  0  0  0  0  0  0  0  0  0
   46.2890   33.9360   41.0060 C   0  0  0  0  0  0  0  0  0  0  0  0
   46.8190   34.7300   41.9930 C   0  0  0  0  0  0  0  0  0  0  0  0
   48.0110   35.3580   41.7260 C   0  0  0  0  0  0  0  0  0  0  0  0
   48.6870   35.2350   40.5370 C   0  0  0  0  0  0  0  0  0  0  0  0
   48.1150   34.4300   39.5820 C   0  0  0  0  0  0  0  0  0  0  0  0
   46.9260   33.7780   39.7960 C   0  0  0  0  0  0  0  0  0  0  0  0
   44.4830   35.9470   44.7270 C   0  0  0  0  0  0  0  0  0  0  0  0
   45.1720   35.8690   43.5080 C   0  0  0  0  0  0  0  0  0  0  0  0
   46.0830   34.8470   43.2470 C   0  0  0  0  0  0  0  0  0  0  0  0
   46.2490   33.9410   44.2590 N   0  0  0  0  0  0  0  0  0  0  0  0
   45.5790   34.0310   45.4250 C   0  0  0  0  0  0  0  0  0  0  0  0
   44.7110   35.0150   45.6590 N   0  0  0  0  0  0  0  0  0  0  0  0
   46.3310   32.9270   38.7710 C   0  0  0  0  0  0  0  0  0  0  0  0
   46.7420   31.6660   38.4000 C   0  0  0  0  0  0  0  0  0  0  0  0
   45.9020   31.2110   37.3890 C   0  0  0  0  0  0  0  0  0  0  0  0
   45.0150   32.2000   37.1800 N   0  0  0  0  0  0  0  0  0  0  0  0
   45.2570   33.2300   37.9960 N   0  0  0  0  0  0  0  0  0  0  0  0
   48.4487   35.9952   42.5085 H   0  0  0  0  0  0  0  0  0  0  0  0
   49.6395   35.7554   40.3581 H   0  0  0  0  0  0  0  0  0  0  0  0
   48.6256   34.3039   38.6159 H   0  0  0  0  0  0  0  0  0  0  0  0
   43.7670   36.7610   44.9136 H   0  0  0  0  0  0  0  0  0  0  0  0
   44.9888   36.6335   42.7386 H   0  0  0  0  0  0  0  0  0  0  0  0
   45.7529   33.2732   46.2031 H   0  0  0  0  0  0  0  0  0  0  0  0
   47.5901   31.1129   38.8299 H   0  0  0  0  0  0  0  0  0  0  0  0
   45.9527   30.2432   36.8685 H   0  0  0  0  0  0  0  0  0  0  0  0
   44.2541   32.1679   36.4866 H   0  0  0  0  0  0  0  0  0  0  0  0
  2  1  1  0
  2  3  2  0
  3 10  1  0
  4  3  1  0
  5  4  2  0
  6  7  2  0
  6  5  1  0
  7  2  1  0
  8 13  2  0
  9  8  1  0
 10  9  2  0
 10 11  1  0
 11 12  2  0
 12 13  1  0
 14  7  1  0
 15 14  1  0
 16 15  2  0
 17 16  1  0
 17 18  1  0
 18 14  2  0
  4 19  1  0
  5 20  1  0
  6 21  1  0
  8 22  1  0
  9 23  1  0
 12 24  1  0
 15 25  1  0
 16 26  1  0
 17 27  1  0
M  ISO  8  19  14  20  14  21  14  22  14  23  14  24  14  25  14  26  14
M  ISO  1  27   9
M  END
>  <minimizedAffinity>  (1) 
-5.39835739

>  <minimizedRMSD>  (1) 
0.0807384178

$$$$
