
     RDKit          3D

 23 24  0  0  0  0  0  0  0  0999 V2000
   45.1040   33.3650   41.1670 F   0  0  0  0  0  0  0  0  0  0  0  0
   46.3030   34.0140   41.0280 C   0  0  0  0  0  0  0  0  0  0  0  0
   46.8420   34.7630   42.0370 C   0  0  0  0  0  0  0  0  0  0  0  0
   48.0510   35.3700   41.7920 C   0  0  0  0  0  0  0  0  0  0  0  0
   48.7240   35.2580   40.6040 C   0  0  0  0  0  0  0  0  0  0  0  0
   48.1450   34.4970   39.6180 C   0  0  0  0  0  0  0  0  0  0  0  0
   46.9310   33.8660   39.8130 C   0  0  0  0  0  0  0  0  0  0  0  0
   44.4790   35.9550   44.7500 C   0  0  0  0  0  0  0  0  0  0  0  0
   45.1810   35.8890   43.5370 C   0  0  0  0  0  0  0  0  0  0  0  0
   46.0980   34.8590   43.2840 C   0  0  0  0  0  0  0  0  0  0  0  0
   46.2340   33.9670   44.2850 N   0  0  0  0  0  0  0  0  0  0  0  0
   45.5730   34.0180   45.4440 C   0  0  0  0  0  0  0  0  0  0  0  0
   44.6990   35.0050   45.6770 N   0  0  0  0  0  0  0  0  0  0  0  0
   46.3150   33.0390   38.7260 C   0  0  0  0  0  0  0  0  0  0  0  0
   48.5013   35.9770   42.5912 H   0  0  0  0  0  0  0  0  0  0  0  0
   49.6908   35.7582   40.4459 H   0  0  0  0  0  0  0  0  0  0  0  0
   48.6590   34.3873   38.6517 H   0  0  0  0  0  0  0  0  0  0  0  0
   43.7625   36.7678   44.9395 H   0  0  0  0  0  0  0  0  0  0  0  0
   45.0088   36.6592   42.7707 H   0  0  0  0  0  0  0  0  0  0  0  0
   45.7470   33.2472   46.2092 H   0  0  0  0  0  0  0  0  0  0  0  0
   45.7148   32.2332   39.1738 H   0  0  0  0  0  0  0  0  0  0  0  0
   45.6687   33.6748   38.1031 H   0  0  0  0  0  0  0  0  0  0  0  0
   47.1093   32.6018   38.1031 H   0  0  0  0  0  0  0  0  0  0  0  0
  2  1  1  0
  2  3  2  0
  3 10  1  0
  4  3  1  0
  5  4  2  0
  6  7  2  0
  6  5  1  0
  7  2  1  0
  8 13  2  0
  9  8  1  0
 10  9  2  0
 10 11  1  0
 11 12  2  0
 12 13  1  0
 14  7  1  0
  4 15  1  0
  5 16  1  0
  6 17  1  0
  8 18  1  0
  9 19  1  0
 12 20  1  0
 14 21  1  0
 14 22  1  0
 14 23  1  0
M  ISO  8  15  14  16  14  17  14  18  14  19  14  20  14  21   8  22   8
M  ISO  1  23   8
M  END
>  <minimizedAffinity>  (1) 
-5.23932552

>  <minimizedRMSD>  (1) 
0.0161724743

$$$$
