
     RDKit          3D

 41 44  0  0  1  0  0  0  0  0999 V2000
   48.0710   33.2360   43.5470 N   0  0  0  0  0  0  0  0  0  0  0  0
   49.0660   33.1320   42.5920 C   0  0  0  0  0  0  0  0  0  0  0  0
   50.1840   32.5510   42.6370 O   0  0  0  0  0  0  0  0  0  0  0  0
   46.1950   32.1930   44.7880 C   0  0  1  0  0  0  0  0  0  0  0  0
   46.4520   31.3380   43.6890 C   0  0  0  0  0  0  0  0  0  0  0  0
   47.6120   32.1240   44.3210 C   0  0  1  0  0  0  0  0  0  0  0  0
   44.9590   33.8570   43.2390 C   0  0  0  0  0  0  0  0  0  0  0  0
   45.4540   33.5030   44.5240 C   0  0  0  0  0  0  0  0  0  0  0  0
   45.2650   34.3950   45.5520 C   0  0  0  0  0  0  0  0  0  0  0  0
   44.6260   35.5620   45.3070 N   0  0  0  0  0  0  0  0  0  0  0  0
   44.1580   35.8940   44.0750 C   0  0  0  0  0  0  0  0  0  0  0  0
   44.3330   35.0060   43.0080 N   0  0  0  0  0  0  0  0  0  0  0  0
   48.8830   33.7830   41.2290 C   0  0  2  0  0  0  0  0  0  0  0  0
   48.6200   35.3220   41.2240 C   0  0  0  0  0  0  0  0  0  0  0  0
   47.5860   34.3010   40.8010 C   0  0  1  0  0  0  0  0  0  0  0  0
   47.2650   34.1420   39.4090 N   0  0  0  0  0  0  0  0  0  0  0  0
   48.3960   34.3130   38.5370 C   0  0  0  0  0  0  0  0  0  0  0  0
   47.8570   34.1170   37.1140 C   0  0  0  0  0  0  0  0  0  0  0  0
   47.4560   32.8130   36.9150 O   0  0  0  0  0  0  0  0  0  0  0  0
   47.1830   32.1500   38.1100 C   0  0  0  0  0  0  0  0  0  0  0  0
   46.4090   33.0820   39.0520 C   0  0  0  0  0  0  0  0  0  0  0  0
   47.6402   34.1575   43.7085 H   0  0  0  0  0  0  0  0  0  0  0  0
   45.6994   32.0338   45.7570 H   0  0  0  0  0  0  0  0  0  0  0  0
   46.0880   31.6086   42.6869 H   0  0  0  0  0  0  0  0  0  0  0  0
   46.2630   30.2760   43.4734 H   0  0  0  0  0  0  0  0  0  0  0  0
   48.5900   31.9031   44.7734 H   0  0  0  0  0  0  0  0  0  0  0  0
   45.0995   33.1535   42.4051 H   0  0  0  0  0  0  0  0  0  0  0  0
   45.6294   34.1626   46.5635 H   0  0  0  0  0  0  0  0  0  0  0  0
   43.6451   36.8543   43.9178 H   0  0  0  0  0  0  0  0  0  0  0  0
   49.5990   33.0851   40.7704 H   0  0  0  0  0  0  0  0  0  0  0  0
   48.5074   35.8728   42.1695 H   0  0  0  0  0  0  0  0  0  0  0  0
   49.0923   36.2095   40.7776 H   0  0  0  0  0  0  0  0  0  0  0  0
   46.5421   34.1388   41.1077 H   0  0  0  0  0  0  0  0  0  0  0  0
   48.8192   35.3219   38.6512 H   0  0  0  0  0  0  0  0  0  0  0  0
   49.1990   33.5979   38.7689 H   0  0  0  0  0  0  0  0  0  0  0  0
   46.9974   34.7857   36.9592 H   0  0  0  0  0  0  0  0  0  0  0  0
   48.6595   34.3509   36.3989 H   0  0  0  0  0  0  0  0  0  0  0  0
   46.5779   31.2552   37.9020 H   0  0  0  0  0  0  0  0  0  0  0  0
   48.1288   31.8530   38.5867 H   0  0  0  0  0  0  0  0  0  0  0  0
   46.1001   32.5311   39.9526 H   0  0  0  0  0  0  0  0  0  0  0  0
   45.5069   33.4678   38.5546 H   0  0  0  0  0  0  0  0  0  0  0  0
  1  6  1  0
  2  3  2  0
  2  1  1  0
  5  6  1  0
  5  4  1  0
  6  4  1  0
  7  8  2  0
  8  4  1  0
  8  9  1  0
 10  9  2  0
 11 10  1  0
 12  7  1  0
 12 11  2  0
 13  2  1  0
 14 13  1  0
 15 14  1  0
 15 13  1  0
 16 21  1  0
 16 15  1  0
 17 16  1  0
 18 17  1  0
 19 18  1  0
 19 20  1  0
 20 21  1  0
  1 22  1  0
  4 23  1  1
  5 24  1  0
  5 25  1  0
  6 26  1  1
  7 27  1  0
  9 28  1  0
 11 29  1  0
 13 30  1  6
 14 31  1  0
 14 32  1  0
 15 33  1  1
 17 34  1  0
 17 35  1  0
 18 36  1  0
 18 37  1  0
 20 38  1  0
 20 39  1  0
 21 40  1  0
 21 41  1  0
M  ISO  8  23  13  24  13  25  13  26  13  27  14  28  14  29  14  30  13
M  ISO  8  31  13  32  13  33  13  34  13  35  13  36  13  37  13  38  13
M  ISO  3  39  13  40  13  41  13
M  END
>  <minimizedAffinity>  (1) 
-4.81009722

>  <minimizedRMSD>  (1) 
0.895949602

$$$$
