
     RDKit          3D

 42 45  0  0  0  0  0  0  0  0999 V2000
   45.4980   33.4350   41.1000 F   0  0  0  0  0  0  0  0  0  0  0  0
   46.6500   34.1670   41.0520 C   0  0  0  0  0  0  0  0  0  0  0  0
   47.0750   34.8840   42.1420 C   0  0  0  0  0  0  0  0  0  0  0  0
   48.2440   35.5940   42.0090 C   0  0  0  0  0  0  0  0  0  0  0  0
   48.9950   35.6200   40.8570 C   0  0  0  0  0  0  0  0  0  0  0  0
   48.5210   34.8870   39.8020 C   0  0  0  0  0  0  0  0  0  0  0  0
   47.3550   34.1570   39.8780 C   0  0  0  0  0  0  0  0  0  0  0  0
   44.5080   35.6710   44.8150 C   0  0  0  0  0  0  0  0  0  0  0  0
   45.2540   35.7580   43.6300 C   0  0  0  0  0  0  0  0  0  0  0  0
   46.2680   34.8440   43.3540 C   0  0  0  0  0  0  0  0  0  0  0  0
   46.4610   33.8900   44.3090 N   0  0  0  0  0  0  0  0  0  0  0  0
   45.7410   33.8190   45.4390 C   0  0  0  0  0  0  0  0  0  0  0  0
   44.7780   34.6910   45.6960 N   0  0  0  0  0  0  0  0  0  0  0  0
   46.8670   33.3770   38.7340 C   0  0  0  0  0  0  0  0  0  0  0  0
   45.5800   32.9220   38.5520 C   0  0  0  0  0  0  0  0  0  0  0  0
   45.5720   32.2320   37.3330 C   0  0  0  0  0  0  0  0  0  0  0  0
   46.8110   32.2920   36.8390 N   0  0  0  0  0  0  0  0  0  0  0  0
   47.6050   32.9820   37.6780 N   0  0  0  0  0  0  0  0  0  0  0  0
   47.6960   32.1710   32.8500 N   0  0  0  0  0  0  0  0  0  0  0  0
   48.8210   32.5020   33.6780 C   0  0  0  0  0  0  0  0  0  0  0  0
   48.4900   32.6770   35.1240 C   0  0  0  0  0  0  0  0  0  0  0  0
   47.4120   31.7730   35.6300 C   0  0  0  0  0  0  0  0  0  0  0  0
   46.2990   31.5510   34.6400 C   0  0  0  0  0  0  0  0  0  0  0  0
   46.9520   31.0300   33.3670 C   0  0  0  0  0  0  0  0  0  0  0  0
   48.5994   36.1746   42.8731 H   0  0  0  0  0  0  0  0  0  0  0  0
   49.9275   36.1993   40.7869 H   0  0  0  0  0  0  0  0  0  0  0  0
   49.0909   34.8808   38.8612 H   0  0  0  0  0  0  0  0  0  0  0  0
   43.7090   36.3981   45.0219 H   0  0  0  0  0  0  0  0  0  0  0  0
   45.0350   36.5592   42.9088 H   0  0  0  0  0  0  0  0  0  0  0  0
   45.9547   33.0214   46.1657 H   0  0  0  0  0  0  0  0  0  0  0  0
   44.7267   33.0710   39.2300 H   0  0  0  0  0  0  0  0  0  0  0  0
   44.7074   31.7342   36.8697 H   0  0  0  0  0  0  0  0  0  0  0  0
   48.0349   31.9454   31.9039 H   0  0  0  0  0  0  0  0  0  0  0  0
   49.5630   31.6947   33.5897 H   0  0  0  0  0  0  0  0  0  0  0  0
   49.1995   33.4716   33.3221 H   0  0  0  0  0  0  0  0  0  0  0  0
   49.4011   32.4859   35.7100 H   0  0  0  0  0  0  0  0  0  0  0  0
   48.1128   33.7043   35.2352 H   0  0  0  0  0  0  0  0  0  0  0  0
   47.9205   30.8158   35.8176 H   0  0  0  0  0  0  0  0  0  0  0  0
   45.5844   30.8117   35.0308 H   0  0  0  0  0  0  0  0  0  0  0  0
   45.7430   32.4811   34.4506 H   0  0  0  0  0  0  0  0  0  0  0  0
   46.1901   30.7021   32.6445 H   0  0  0  0  0  0  0  0  0  0  0  0
   47.5961   30.1577   33.5522 H   0  0  0  0  0  0  0  0  0  0  0  0
  2  1  1  0
  2  3  2  0
  3 10  1  0
  4  3  1  0
  5  4  2  0
  6  7  2  0
  6  5  1  0
  7  2  1  0
  8 13  2  0
  9  8  1  0
 10  9  2  0
 10 11  1  0
 11 12  2  0
 12 13  1  0
 14  7  1  0
 15 14  1  0
 16 15  2  0
 17 16  1  0
 17 18  1  0
 18 14  2  0
 19 24  1  0
 19 20  1  0
 20 21  1  0
 21 22  1  0
 22 17  1  0
 23 22  1  0
 24 23  1  0
  4 25  1  0
  5 26  1  0
  6 27  1  0
  8 28  1  0
  9 29  1  0
 12 30  1  0
 15 31  1  0
 16 32  1  0
 19 33  1  0
 20 34  1  0
 20 35  1  0
 21 36  1  0
 21 37  1  0
 22 38  1  0
 23 39  1  0
 23 40  1  0
 24 41  1  0
 24 42  1  0
M  ISO  8  25  14  26  14  27  14  28  14  29  14  30  14  31  14  32  14
M  ISO  8  33   5  34  13  35  13  36  13  37  13  38  13  39  13  40  13
M  ISO  2  41  13  42  13
M  END
>  <minimizedAffinity>  (1) 
-6.52089596

>  <minimizedRMSD>  (1) 
2.8510561

$$$$
