
     RDKit          3D

 32 34  0  0  1  0  0  0  0  0999 V2000
   46.3150   32.1490   44.1460 C   0  0  1  0  0  0  0  0  0  0  0  0
   46.6340   31.6580   42.8560 C   0  0  0  0  0  0  0  0  0  0  0  0
   47.7620   32.1540   43.7760 C   0  0  1  0  0  0  0  0  0  0  0  0
   45.2850   34.2800   43.0980 C   0  0  0  0  0  0  0  0  0  0  0  0
   45.6320   33.5160   44.2440 C   0  0  0  0  0  0  0  0  0  0  0  0
   45.3540   34.0470   45.4780 C   0  0  0  0  0  0  0  0  0  0  0  0
   44.7680   35.2650   45.5600 N   0  0  0  0  0  0  0  0  0  0  0  0
   44.4400   35.9900   44.4590 C   0  0  0  0  0  0  0  0  0  0  0  0
   44.7100   35.4750   43.1880 N   0  0  0  0  0  0  0  0  0  0  0  0
   48.3110   33.4230   43.4100 N   0  0  0  0  0  0  0  0  0  0  0  0
   49.4910   33.5610   42.6980 C   0  0  0  0  0  0  0  0  0  0  0  0
   50.6050   32.9850   42.8440 O   0  0  0  0  0  0  0  0  0  0  0  0
   49.5630   34.5300   41.5290 C   0  0  2  0  0  0  0  0  0  0  0  0
   48.8120   35.8860   41.7010 C   0  0  0  0  0  0  0  0  0  0  0  0
   48.3870   34.8280   40.7170 C   0  0  1  0  0  0  0  0  0  0  0  0
   48.1560   34.1940   38.2380 C   0  0  0  0  0  0  0  0  0  0  0  0
   47.4390   33.1740   38.4950 O   0  0  0  0  0  0  0  0  0  0  0  0
   48.6430   35.0330   39.3010 N   0  0  0  0  0  0  0  0  0  0  0  0
   45.7416   31.7278   44.9849 H   0  0  0  0  0  0  0  0  0  0  0  0
   46.3580   32.2397   41.9641 H   0  0  0  0  0  0  0  0  0  0  0  0
   46.4332   30.7236   42.3115 H   0  0  0  0  0  0  0  0  0  0  0  0
   48.6941   31.7572   44.2047 H   0  0  0  0  0  0  0  0  0  0  0  0
   45.4997   33.8682   42.1008 H   0  0  0  0  0  0  0  0  0  0  0  0
   45.6047   33.4887   46.3920 H   0  0  0  0  0  0  0  0  0  0  0  0
   43.9649   36.9762   44.5671 H   0  0  0  0  0  0  0  0  0  0  0  0
   47.8045   34.2752   43.6893 H   0  0  0  0  0  0  0  0  0  0  0  0
   50.5819   34.1970   41.2823 H   0  0  0  0  0  0  0  0  0  0  0  0
   48.2137   36.0826   42.6029 H   0  0  0  0  0  0  0  0  0  0  0  0
   49.0759   36.9530   41.6579 H   0  0  0  0  0  0  0  0  0  0  0  0
   47.4187   34.3382   40.5367 H   0  0  0  0  0  0  0  0  0  0  0  0
   48.4055   34.4362   37.1944 H   0  0  0  0  0  0  0  0  0  0  0  0
   49.2197   35.8445   39.0370 H   0  0  0  0  0  0  0  0  0  0  0  0
  1  5  1  0
  2  3  1  0
  2  1  1  0
  3  1  1  0
  4  9  2  0
  4  5  1  0
  5  6  2  0
  6  7  1  0
  8  7  2  0
  9  8  1  0
 10  3  1  0
 11 12  2  0
 11 10  1  0
 13 14  1  0
 13 11  1  0
 15 13  1  0
 15 14  1  0
 16 17  2  0
 16 18  1  0
 18 15  1  0
  1 19  1  1
  2 20  1  0
  2 21  1  0
  3 22  1  1
  4 23  1  0
  6 24  1  0
  8 25  1  0
 10 26  1  0
 13 27  1  6
 14 28  1  0
 14 29  1  0
 15 30  1  6
 16 31  1  0
 18 32  1  0
M  ISO  8  19  13  20  13  21  13  22  13  23  14  24  14  25  14  27  13
M  ISO  4  28  13  29  13  30  13  31   6
M  END
>  <minimizedAffinity>  (1) 
-4.69086552

>  <minimizedRMSD>  (1) 
1.08276463

$$$$
