
     RDKit          3D

 36 39  0  0  1  0  0  0  0  0999 V2000
   46.0450   35.2930   42.7650 C   0  0  0  0  0  0  0  0  0  0  0  0
   47.1830   35.0600   41.9920 C   0  0  0  0  0  0  0  0  0  0  0  0
   48.0070   33.9680   42.3320 C   0  0  0  0  0  0  0  0  0  0  0  0
   47.6180   33.2120   43.4090 N   0  0  0  0  0  0  0  0  0  0  0  0
   46.5230   33.4540   44.1350 C   0  0  0  0  0  0  0  0  0  0  0  0
   45.7550   34.4900   43.8010 N   0  0  0  0  0  0  0  0  0  0  0  0
   46.0540   31.2320   45.0680 C   0  0  0  0  0  0  0  0  0  0  0  0
   46.2080   32.5840   45.2590 C   0  0  0  0  0  0  0  0  0  0  0  0
   46.0750   33.1930   46.5100 C   0  0  0  0  0  0  0  0  0  0  0  0
   45.7740   32.4240   47.6280 C   0  0  0  0  0  0  0  0  0  0  0  0
   45.5740   32.6310   48.9460 N   0  0  0  0  0  0  0  0  0  0  0  0
   45.3060   31.4380   49.5420 C   0  0  0  0  0  0  0  0  0  0  0  0
   45.3430   30.4980   48.5780 N   0  0  0  0  0  0  0  0  0  0  0  0
   45.6270   31.0600   47.3940 C   0  0  0  0  0  0  0  0  0  0  0  0
   45.7530   30.4390   46.1710 C   0  0  0  0  0  0  0  0  0  0  0  0
   50.2940   33.0780   42.3990 C   0  0  1  0  0  0  0  0  0  0  0  0
   49.2190   33.6820   41.5440 C   0  0  1  0  0  0  0  0  0  0  0  0
   48.9340   32.8030   40.5140 O   0  0  0  0  0  0  0  0  0  0  0  0
   50.0400   31.9750   40.3590 C   0  0  0  0  0  0  0  0  0  0  0  0
   50.5130   31.7290   41.7870 C   0  0  1  0  0  0  0  0  0  0  0  0
   51.4820   33.8130   42.2950 O   0  0  0  0  0  0  0  0  0  0  0  0
   51.8660   31.3880   41.8210 O   0  0  0  0  0  0  0  0  0  0  0  0
   45.3829   36.1379   42.5246 H   0  0  0  0  0  0  0  0  0  0  0  0
   47.4304   35.7108   41.1404 H   0  0  0  0  0  0  0  0  0  0  0  0
   46.1659   30.7876   44.0680 H   0  0  0  0  0  0  0  0  0  0  0  0
   46.2085   34.2803   46.6097 H   0  0  0  0  0  0  0  0  0  0  0  0
   45.6172   33.5430   49.4228 H   0  0  0  0  0  0  0  0  0  0  0  0
   45.0983   31.2723   50.6094 H   0  0  0  0  0  0  0  0  0  0  0  0
   45.6200   29.3518   46.0696 H   0  0  0  0  0  0  0  0  0  0  0  0
   50.0134   33.0514   43.4623 H   0  0  0  0  0  0  0  0  0  0  0  0
   49.5732   34.6398   41.1351 H   0  0  0  0  0  0  0  0  0  0  0  0
   49.7571   31.0303   39.8717 H   0  0  0  0  0  0  0  0  0  0  0  0
   50.8194   32.4208   39.7236 H   0  0  0  0  0  0  0  0  0  0  0  0
   49.9950   30.9028   42.2959 H   0  0  0  0  0  0  0  0  0  0  0  0
   51.8208   34.0226   43.2013 H   0  0  0  0  0  0  0  0  0  0  0  0
   52.1638   31.3129   42.7621 H   0  0  0  0  0  0  0  0  0  0  0  0
  1  6  2  0
  2  3  2  0
  2  1  1  0
  3  4  1  0
  4  5  2  0
  5  8  1  0
  6  5  1  0
  7  8  2  0
  7 15  1  0
  8  9  1  0
  9 10  2  0
 10 11  1  0
 11 12  1  0
 13 12  2  0
 14 10  1  0
 14 13  1  0
 15 14  2  0
 16 21  1  0
 17  3  1  0
 17 16  1  0
 18 17  1  0
 19 18  1  0
 19 20  1  0
 20 22  1  0
 20 16  1  0
  1 23  1  0
  2 24  1  0
  7 25  1  0
  9 26  1  0
 11 27  1  0
 12 28  1  0
 15 29  1  0
 16 30  1  1
 17 31  1  6
 19 32  1  0
 19 33  1  0
 20 34  1  1
 21 35  1  0
 22 36  1  0
M  ISO  8  23  14  24  14  25  14  26  14  27   9  28  14  29  14  30  13
M  ISO  6  31  13  32  13  33  13  34  13  35   3  36   3
M  END
>  <minimizedAffinity>  (1) 
-6.52725554

>  <minimizedRMSD>  (1) 
0.875414193

$$$$
