
     RDKit          3D

 36 40  0  0  0  0  0  0  0  0999 V2000
   46.7570   35.1340   42.5660 C   0  0  0  0  0  0  0  0  0  0  0  0
   47.7300   34.6370   41.7010 C   0  0  0  0  0  0  0  0  0  0  0  0
   48.2920   33.3900   41.9900 C   0  0  0  0  0  0  0  0  0  0  0  0
   47.8580   32.7300   43.1000 N   0  0  0  0  0  0  0  0  0  0  0  0
   46.9080   33.2410   43.9220 C   0  0  0  0  0  0  0  0  0  0  0  0
   46.3700   34.4270   43.6530 N   0  0  0  0  0  0  0  0  0  0  0  0
   46.3650   31.0920   45.0050 C   0  0  0  0  0  0  0  0  0  0  0  0
   46.5120   32.4530   45.0890 C   0  0  0  0  0  0  0  0  0  0  0  0
   46.3020   33.1760   46.2700 C   0  0  0  0  0  0  0  0  0  0  0  0
   45.9210   32.4820   47.4290 C   0  0  0  0  0  0  0  0  0  0  0  0
   45.6380   32.8220   48.7140 N   0  0  0  0  0  0  0  0  0  0  0  0
   45.3270   31.6710   49.3830 C   0  0  0  0  0  0  0  0  0  0  0  0
   45.4210   30.6460   48.5070 N   0  0  0  0  0  0  0  0  0  0  0  0
   45.7850   31.1170   47.3020 C   0  0  0  0  0  0  0  0  0  0  0  0
   45.9870   30.3870   46.1490 C   0  0  0  0  0  0  0  0  0  0  0  0
   50.5260   32.5060   41.7550 C   0  0  0  0  0  0  0  0  0  0  0  0
   49.3160   32.7490   41.1760 C   0  0  0  0  0  0  0  0  0  0  0  0
   49.1290   32.3800   39.8760 C   0  0  0  0  0  0  0  0  0  0  0  0
   50.1280   31.7740   39.1370 C   0  0  0  0  0  0  0  0  0  0  0  0
   50.2850   31.2980   37.8850 N   0  0  0  0  0  0  0  0  0  0  0  0
   51.5140   30.7960   37.7060 C   0  0  0  0  0  0  0  0  0  0  0  0
   52.2010   30.9390   38.8730 N   0  0  0  0  0  0  0  0  0  0  0  0
   51.3650   31.5290   39.7370 C   0  0  0  0  0  0  0  0  0  0  0  0
   51.5680   31.8970   41.0520 C   0  0  0  0  0  0  0  0  0  0  0  0
   46.2980   36.1128   42.3627 H   0  0  0  0  0  0  0  0  0  0  0  0
   48.0466   35.2092   40.8165 H   0  0  0  0  0  0  0  0  0  0  0  0
   46.5415   30.5664   44.0550 H   0  0  0  0  0  0  0  0  0  0  0  0
   46.4333   34.2680   46.2889 H   0  0  0  0  0  0  0  0  0  0  0  0
   45.6547   33.7723   49.1110 H   0  0  0  0  0  0  0  0  0  0  0  0
   45.0498   31.5930   50.4446 H   0  0  0  0  0  0  0  0  0  0  0  0
   45.8557   29.2950   46.1318 H   0  0  0  0  0  0  0  0  0  0  0  0
   50.6860   32.7973   42.8036 H   0  0  0  0  0  0  0  0  0  0  0  0
   48.1548   32.5702   39.4019 H   0  0  0  0  0  0  0  0  0  0  0  0
   49.5540   31.3179   37.1597 H   0  0  0  0  0  0  0  0  0  0  0  0
   51.9004   30.3471   36.7791 H   0  0  0  0  0  0  0  0  0  0  0  0
   52.5369   31.7132   41.5393 H   0  0  0  0  0  0  0  0  0  0  0  0
  1  6  2  0
  2  3  2  0
  2  1  1  0
  3  4  1  0
  4  5  2  0
  5  8  1  0
  6  5  1  0
  7  8  2  0
  7 15  1  0
  8  9  1  0
  9 10  2  0
 10 11  1  0
 11 12  1  0
 13 12  2  0
 14 10  1  0
 14 13  1  0
 15 14  2  0
 17 16  2  0
 17  3  1  0
 18 17  1  0
 19 23  1  0
 19 18  2  0
 20 19  1  0
 21 20  1  0
 21 22  2  0
 22 23  1  0
 23 24  2  0
 24 16  1  0
  1 25  1  0
  2 26  1  0
  7 27  1  0
  9 28  1  0
 11 29  1  0
 12 30  1  0
 15 31  1  0
 16 32  1  0
 18 33  1  0
 20 34  1  0
 21 35  1  0
 24 36  1  0
M  ISO  8  25  14  26  14  27  14  28  14  29   9  30  14  31  14  32  14
M  ISO  4  33  14  34   9  35  14  36  14
M  END
>  <minimizedAffinity>  (1) 
-6.17857933

>  <minimizedRMSD>  (1) 
1.39243257

$$$$
