
     RDKit          3D

 31 34  0  0  0  0  0  0  0  0999 V2000
   47.1420   34.9310   42.5590 C   0  0  0  0  0  0  0  0  0  0  0  0
   48.1240   34.3890   41.7330 C   0  0  0  0  0  0  0  0  0  0  0  0
   48.6360   33.1310   42.0710 C   0  0  0  0  0  0  0  0  0  0  0  0
   48.1490   32.5090   43.1780 N   0  0  0  0  0  0  0  0  0  0  0  0
   47.1910   33.0650   43.9600 C   0  0  0  0  0  0  0  0  0  0  0  0
   46.6970   34.2610   43.6490 N   0  0  0  0  0  0  0  0  0  0  0  0
   46.5760   30.9640   45.0720 C   0  0  0  0  0  0  0  0  0  0  0  0
   46.7290   32.3270   45.1280 C   0  0  0  0  0  0  0  0  0  0  0  0
   46.4560   33.0730   46.2800 C   0  0  0  0  0  0  0  0  0  0  0  0
   46.0080   32.4300   47.4350 C   0  0  0  0  0  0  0  0  0  0  0  0
   45.6560   32.8010   48.6930 N   0  0  0  0  0  0  0  0  0  0  0  0
   45.2990   31.6690   49.3750 C   0  0  0  0  0  0  0  0  0  0  0  0
   45.4340   30.6200   48.5370 N   0  0  0  0  0  0  0  0  0  0  0  0
   45.8670   31.0490   47.3380 C   0  0  0  0  0  0  0  0  0  0  0  0
   46.1290   30.2920   46.2180 C   0  0  0  0  0  0  0  0  0  0  0  0
   49.6650   32.5460   41.2230 C   0  0  0  0  0  0  0  0  0  0  0  0
   50.9400   32.3230   41.6930 C   0  0  0  0  0  0  0  0  0  0  0  0
   51.8340   31.7550   40.7780 C   0  0  0  0  0  0  0  0  0  0  0  0
   51.4330   31.4650   39.5360 N   0  0  0  0  0  0  0  0  0  0  0  0
   50.1860   31.6870   39.0870 C   0  0  0  0  0  0  0  0  0  0  0  0
   49.3210   32.2310   39.9610 N   0  0  0  0  0  0  0  0  0  0  0  0
   46.7210   35.9193   42.3223 H   0  0  0  0  0  0  0  0  0  0  0  0
   48.4845   34.9307   40.8461 H   0  0  0  0  0  0  0  0  0  0  0  0
   46.7994   30.4111   44.1477 H   0  0  0  0  0  0  0  0  0  0  0  0
   46.5942   34.1643   46.2753 H   0  0  0  0  0  0  0  0  0  0  0  0
   45.6574   33.7609   49.0666 H   0  0  0  0  0  0  0  0  0  0  0  0
   44.9618   31.6227   50.4210 H   0  0  0  0  0  0  0  0  0  0  0  0
   45.9926   29.2005   46.2225 H   0  0  0  0  0  0  0  0  0  0  0  0
   51.2369   32.5751   42.7217 H   0  0  0  0  0  0  0  0  0  0  0  0
   52.8704   31.5464   41.0819 H   0  0  0  0  0  0  0  0  0  0  0  0
   49.8884   31.4367   38.0580 H   0  0  0  0  0  0  0  0  0  0  0  0
  1  6  2  0
  2  3  2  0
  2  1  1  0
  3  4  1  0
  4  5  2  0
  5  8  1  0
  6  5  1  0
  7  8  2  0
  7 15  1  0
  8  9  1  0
  9 10  2  0
 10 11  1  0
 11 12  1  0
 13 12  2  0
 14 10  1  0
 14 13  1  0
 15 14  2  0
 16 17  2  0
 16  3  1  0
 18 17  1  0
 19 18  2  0
 20 19  1  0
 20 21  2  0
 21 16  1  0
  1 22  1  0
  2 23  1  0
  7 24  1  0
  9 25  1  0
 11 26  1  0
 12 27  1  0
 15 28  1  0
 17 29  1  0
 18 30  1  0
 20 31  1  0
M  ISO  8  22  14  23  14  24  14  25  14  26   9  27  14  28  14  29  14
M  ISO  2  30  14  31  14
M  END
>  <minimizedAffinity>  (1) 
-5.71192884

>  <minimizedRMSD>  (1) 
1.14780474

$$$$
