
     RDKit          3D

 24 26  0  0  0  0  0  0  0  0999 V2000
   47.3290   31.2890   45.0890 C   0  0  0  0  0  0  0  0  0  0  0  0
   46.8770   32.5850   44.9610 C   0  0  0  0  0  0  0  0  0  0  0  0
   46.2350   33.2590   45.9950 C   0  0  0  0  0  0  0  0  0  0  0  0
   46.0280   32.6170   47.2240 C   0  0  0  0  0  0  0  0  0  0  0  0
   45.4640   32.9450   48.4120 N   0  0  0  0  0  0  0  0  0  0  0  0
   45.5730   31.8600   49.2470 C   0  0  0  0  0  0  0  0  0  0  0  0
   46.2130   30.8790   48.5430 N   0  0  0  0  0  0  0  0  0  0  0  0
   46.4970   31.3190   47.3120 C   0  0  0  0  0  0  0  0  0  0  0  0
   47.1310   30.6360   46.3080 C   0  0  0  0  0  0  0  0  0  0  0  0
   46.7050   35.1630   42.3510 C   0  0  0  0  0  0  0  0  0  0  0  0
   47.4540   34.6020   41.3160 C   0  0  0  0  0  0  0  0  0  0  0  0
   48.0160   33.3350   41.5200 C   0  0  0  0  0  0  0  0  0  0  0  0
   47.7900   32.7320   42.7310 N   0  0  0  0  0  0  0  0  0  0  0  0
   47.0610   33.3040   43.7090 C   0  0  0  0  0  0  0  0  0  0  0  0
   46.5160   34.5180   43.5290 N   0  0  0  0  0  0  0  0  0  0  0  0
   48.9950   32.5050   40.2780 S   0  0  0  0  0  0  0  0  0  0  0  0
   47.8327   30.7820   44.2528 H   0  0  0  0  0  0  0  0  0  0  0  0
   45.8906   34.2934   45.8486 H   0  0  0  0  0  0  0  0  0  0  0  0
   45.0300   33.8490   48.6472 H   0  0  0  0  0  0  0  0  0  0  0  0
   45.2137   31.7934   50.2845 H   0  0  0  0  0  0  0  0  0  0  0  0
   47.4747   29.6018   46.4575 H   0  0  0  0  0  0  0  0  0  0  0  0
   46.2551   36.1565   42.2075 H   0  0  0  0  0  0  0  0  0  0  0  0
   47.5991   35.1391   40.3671 H   0  0  0  0  0  0  0  0  0  0  0  0
   49.9304   31.7119   40.8887 H   0  0  0  0  0  0  0  0  0  0  0  0
  1  9  2  0
  2  1  1  0
  2  3  2  0
  3  4  1  0
  4  8  2  0
  4  5  1  0
  5  6  1  0
  7  6  2  0
  8  7  1  0
  9  8  1  0
 10 15  2  0
 11 12  2  0
 11 10  1  0
 12 13  1  0
 13 14  2  0
 14  2  1  0
 15 14  1  0
 16 12  1  0
  1 17  1  0
  3 18  1  0
  5 19  1  0
  6 20  1  0
  9 21  1  0
 10 22  1  0
 11 23  1  0
 16 24  1  0
M  ISO  8  17  14  18  14  19   9  20  14  21  14  22  14  23  14  24  11
M  END
>  <minimizedAffinity>  (1) 
-4.9501152

>  <minimizedRMSD>  (1) 
0.693443894

$$$$
