
     RDKit          3D

 28 30  0  0  0  0  0  0  0  0999 V2000
   46.2030   31.0250   45.1500 C   0  0  0  0  0  0  0  0  0  0  0  0
   46.5800   32.3480   45.3460 C   0  0  0  0  0  0  0  0  0  0  0  0
   46.4540   33.0040   46.5760 C   0  0  0  0  0  0  0  0  0  0  0  0
   45.9260   32.3100   47.6690 C   0  0  0  0  0  0  0  0  0  0  0  0
   45.6600   32.5910   48.9660 N   0  0  0  0  0  0  0  0  0  0  0  0
   45.1320   31.4570   49.5360 C   0  0  0  0  0  0  0  0  0  0  0  0
   45.0800   30.5040   48.5920 N   0  0  0  0  0  0  0  0  0  0  0  0
   45.5620   31.0020   47.4350 C   0  0  0  0  0  0  0  0  0  0  0  0
   45.6740   30.3190   46.2260 C   0  0  0  0  0  0  0  0  0  0  0  0
   47.0130   34.8540   42.6920 C   0  0  0  0  0  0  0  0  0  0  0  0
   48.2530   34.4950   42.1490 C   0  0  0  0  0  0  0  0  0  0  0  0
   48.9240   33.4090   42.6900 C   0  0  0  0  0  0  0  0  0  0  0  0
   48.3160   32.7720   43.7200 N   0  0  0  0  0  0  0  0  0  0  0  0
   47.1380   33.1160   44.2330 C   0  0  0  0  0  0  0  0  0  0  0  0
   46.4720   34.1540   43.7330 N   0  0  0  0  0  0  0  0  0  0  0  0
   50.2260   33.0380   42.1180 C   0  0  0  0  0  0  0  0  0  0  0  0
   51.1820   34.0210   42.2480 F   0  0  0  0  0  0  0  0  0  0  0  0
   50.7320   31.9410   42.7800 F   0  0  0  0  0  0  0  0  0  0  0  0
   50.0390   32.7190   40.7790 F   0  0  0  0  0  0  0  0  0  0  0  0
   48.6050   35.3730   41.0800 C   0  0  0  0  0  0  0  0  0  0  0  0
   48.5110   35.2540   39.8410 O   0  0  0  0  0  0  0  0  0  0  0  0
   46.3201   30.5466   44.1664 H   0  0  0  0  0  0  0  0  0  0  0  0
   46.7667   34.0533   46.6816 H   0  0  0  0  0  0  0  0  0  0  0  0
   45.8235   33.4909   49.4398 H   0  0  0  0  0  0  0  0  0  0  0  0
   44.8089   31.3494   50.5819 H   0  0  0  0  0  0  0  0  0  0  0  0
   45.3587   29.2698   46.1266 H   0  0  0  0  0  0  0  0  0  0  0  0
   46.4665   35.7123   42.2741 H   0  0  0  0  0  0  0  0  0  0  0  0
   49.0383   36.3293   41.4081 H   0  0  0  0  0  0  0  0  0  0  0  0
  1  2  2  0
  1  9  1  0
  2  3  1  0
  3  4  2  0
  4  5  1  0
  5  6  1  0
  7  6  2  0
  8  4  1  0
  8  7  1  0
  9  8  2  0
 10 15  2  0
 11 12  2  0
 11 10  1  0
 12 13  1  0
 13 14  2  0
 14  2  1  0
 15 14  1  0
 16 17  1  0
 16 12  1  0
 16 18  1  0
 19 16  1  0
 20 11  1  0
 21 20  2  0
  1 22  1  0
  3 23  1  0
  5 24  1  0
  6 25  1  0
  9 26  1  0
 10 27  1  0
 20 28  1  0
M  ISO  7  22  14  23  14  24   9  25  14  26  14  27  14  28   6
M  END
>  <minimizedAffinity>  (1) 
-5.78762913

>  <minimizedRMSD>  (1) 
1.6665386

$$$$
