
     RDKit          3D

 39 42  0  0  1  0  0  0  0  0999 V2000
   46.1010   33.2440   41.5050 C   0  0  0  0  0  0  0  0  0  0  0  0
   47.2810   33.9440   41.2810 C   0  0  0  0  0  0  0  0  0  0  0  0
   48.1800   34.0190   42.3300 C   0  0  0  0  0  0  0  0  0  0  0  0
   47.8460   33.4040   43.5060 N   0  0  0  0  0  0  0  0  0  0  0  0
   46.6890   32.7340   43.6820 C   0  0  0  0  0  0  0  0  0  0  0  0
   45.8130   32.6510   42.6810 N   0  0  0  0  0  0  0  0  0  0  0  0
   46.4760   30.7280   45.1120 C   0  0  0  0  0  0  0  0  0  0  0  0
   46.4300   32.1120   44.9740 C   0  0  0  0  0  0  0  0  0  0  0  0
   46.1390   32.9680   46.0350 C   0  0  0  0  0  0  0  0  0  0  0  0
   45.8810   32.4250   47.2970 C   0  0  0  0  0  0  0  0  0  0  0  0
   45.5740   32.9280   48.5230 N   0  0  0  0  0  0  0  0  0  0  0  0
   45.4390   31.8430   49.3790 C   0  0  0  0  0  0  0  0  0  0  0  0
   45.6660   30.7160   48.6620 N   0  0  0  0  0  0  0  0  0  0  0  0
   45.9380   31.0470   47.3910 C   0  0  0  0  0  0  0  0  0  0  0  0
   46.2210   30.1840   46.3650 C   0  0  0  0  0  0  0  0  0  0  0  0
   49.4590   34.7480   42.1710 C   0  0  0  0  0  0  0  0  0  0  0  0
   49.3000   35.8180   41.2910 F   0  0  0  0  0  0  0  0  0  0  0  0
   49.8840   35.2650   43.3590 F   0  0  0  0  0  0  0  0  0  0  0  0
   50.3990   33.8690   41.6610 F   0  0  0  0  0  0  0  0  0  0  0  0
   47.5240   34.5220   40.0760 O   0  0  0  0  0  0  0  0  0  0  0  0
   48.6860   34.7250   38.0100 N   0  0  0  0  0  0  0  0  0  0  0  0
   48.7530   33.8040   36.8650 C   0  0  0  0  0  0  0  0  0  0  0  0
   49.0850   32.4760   37.5540 C   0  0  0  0  0  0  0  0  0  0  0  0
   48.7210   32.6920   39.0210 C   0  0  0  0  0  0  0  0  0  0  0  0
   47.8120   33.9200   38.8770 C   0  0  1  0  0  0  0  0  0  0  0  0
   45.3699   33.1707   40.6864 H   0  0  0  0  0  0  0  0  0  0  0  0
   46.7080   30.0821   44.2524 H   0  0  0  0  0  0  0  0  0  0  0  0
   46.1127   34.0569   45.8811 H   0  0  0  0  0  0  0  0  0  0  0  0
   45.4631   33.9220   48.7690 H   0  0  0  0  0  0  0  0  0  0  0  0
   45.1915   31.8901   50.4498 H   0  0  0  0  0  0  0  0  0  0  0  0
   46.2455   29.0964   46.5279 H   0  0  0  0  0  0  0  0  0  0  0  0
   48.2596   35.6283   37.7585 H   0  0  0  0  0  0  0  0  0  0  0  0
   49.5438   34.0984   36.1593 H   0  0  0  0  0  0  0  0  0  0  0  0
   47.8348   33.7760   36.2600 H   0  0  0  0  0  0  0  0  0  0  0  0
   48.4891   31.6575   37.1240 H   0  0  0  0  0  0  0  0  0  0  0  0
   50.1412   32.1964   37.4265 H   0  0  0  0  0  0  0  0  0  0  0  0
   48.1827   31.8298   39.4417 H   0  0  0  0  0  0  0  0  0  0  0  0
   49.5754   32.8187   39.7021 H   0  0  0  0  0  0  0  0  0  0  0  0
   46.8020   33.7279   38.4859 H   0  0  0  0  0  0  0  0  0  0  0  0
  1  6  2  0
  2  1  1  0
  2  3  2  0
  3  4  1  0
  4  5  2  0
  5  8  1  0
  6  5  1  0
  7 15  2  0
  8  7  1  0
  8  9  2  0
  9 10  1  0
 10 14  2  0
 10 11  1  0
 11 12  1  0
 13 12  2  0
 14 13  1  0
 15 14  1  0
 16  3  1  0
 16 18  1  0
 17 16  1  0
 19 16  1  0
 20  2  1  0
 21 25  1  0
 22 23  1  0
 22 21  1  0
 23 24  1  0
 25 24  1  0
 25 20  1  0
  1 26  1  0
  7 27  1  0
  9 28  1  0
 11 29  1  0
 12 30  1  0
 15 31  1  0
 21 32  1  0
 22 33  1  0
 22 34  1  0
 23 35  1  0
 23 36  1  0
 24 37  1  0
 24 38  1  0
 25 39  1  6
M  ISO  8  26  14  27  14  28  14  29   9  30  14  31  14  32   5  33  13
M  ISO  6  34  13  35  13  36  13  37  13  38  13  39  13
M  END
>  <minimizedAffinity>  (1) 
-6.4020009

>  <minimizedRMSD>  (1) 
1.42456758

$$$$
