
     RDKit          3D

 29 31  0  0  0  0  0  0  0  0999 V2000
   46.0580   33.3510   41.4990 C   0  0  0  0  0  0  0  0  0  0  0  0
   47.2520   34.0280   41.2910 C   0  0  0  0  0  0  0  0  0  0  0  0
   48.1700   34.0600   42.3330 C   0  0  0  0  0  0  0  0  0  0  0  0
   47.8310   33.4210   43.4880 N   0  0  0  0  0  0  0  0  0  0  0  0
   46.6740   32.7760   43.6650 C   0  0  0  0  0  0  0  0  0  0  0  0
   45.7770   32.7340   42.6750 N   0  0  0  0  0  0  0  0  0  0  0  0
   46.4570   30.7500   45.0610 C   0  0  0  0  0  0  0  0  0  0  0  0
   46.4150   32.1280   44.9420 C   0  0  0  0  0  0  0  0  0  0  0  0
   46.1270   32.9730   46.0240 C   0  0  0  0  0  0  0  0  0  0  0  0
   45.8700   32.4090   47.2760 C   0  0  0  0  0  0  0  0  0  0  0  0
   45.5640   32.9080   48.5110 N   0  0  0  0  0  0  0  0  0  0  0  0
   45.4250   31.8180   49.3570 C   0  0  0  0  0  0  0  0  0  0  0  0
   45.6500   30.6920   48.6150 N   0  0  0  0  0  0  0  0  0  0  0  0
   45.9200   31.0340   47.3530 C   0  0  0  0  0  0  0  0  0  0  0  0
   46.2000   30.1890   46.3140 C   0  0  0  0  0  0  0  0  0  0  0  0
   49.4590   34.7710   42.1560 C   0  0  0  0  0  0  0  0  0  0  0  0
   49.2910   35.8840   41.3210 F   0  0  0  0  0  0  0  0  0  0  0  0
   49.8950   35.2650   43.3650 F   0  0  0  0  0  0  0  0  0  0  0  0
   50.3680   33.9020   41.6060 F   0  0  0  0  0  0  0  0  0  0  0  0
   47.4880   34.6390   40.0770 O   0  0  0  0  0  0  0  0  0  0  0  0
   47.8100   33.8230   38.9910 C   0  0  0  0  0  0  0  0  0  0  0  0
   48.1150   34.2880   37.8410 O   0  0  0  0  0  0  0  0  0  0  0  0
   45.3174   33.3134   40.6865 H   0  0  0  0  0  0  0  0  0  0  0  0
   46.6864   30.1142   44.1931 H   0  0  0  0  0  0  0  0  0  0  0  0
   46.1038   34.0644   45.8886 H   0  0  0  0  0  0  0  0  0  0  0  0
   45.4574   33.9007   48.7642 H   0  0  0  0  0  0  0  0  0  0  0  0
   45.1789   31.8530   50.4285 H   0  0  0  0  0  0  0  0  0  0  0  0
   46.2221   29.0991   46.4613 H   0  0  0  0  0  0  0  0  0  0  0  0
   47.8007   32.7321   39.1317 H   0  0  0  0  0  0  0  0  0  0  0  0
  1  6  2  0
  2  1  1  0
  2  3  2  0
  3  4  1  0
  4  5  2  0
  5  8  1  0
  6  5  1  0
  7 15  2  0
  8  7  1  0
  8  9  2  0
  9 10  1  0
 10 14  2  0
 10 11  1  0
 11 12  1  0
 13 12  2  0
 14 13  1  0
 15 14  1  0
 16  3  1  0
 16 18  1  0
 17 16  1  0
 19 16  1  0
 20  2  1  0
 21 20  1  0
 22 21  2  0
  1 23  1  0
  7 24  1  0
  9 25  1  0
 11 26  1  0
 12 27  1  0
 15 28  1  0
 21 29  1  0
M  ISO  7  23  14  24  14  25  14  26   9  27  14  28  14  29   6
M  END
>  <minimizedAffinity>  (1) 
-5.53826189

>  <minimizedRMSD>  (1) 
0.438550681

$$$$
