
     RDKit          3D

 40 43  0  0  1  0  0  0  0  0999 V2000
   45.6570   32.6950   41.5780 C   0  0  0  0  0  0  0  0  0  0  0  0
   46.7540   33.3610   41.0370 C   0  0  0  0  0  0  0  0  0  0  0  0
   47.8320   33.5770   41.8790 C   0  0  0  0  0  0  0  0  0  0  0  0
   47.7350   33.1200   43.1620 N   0  0  0  0  0  0  0  0  0  0  0  0
   46.6660   32.4820   43.6540 C   0  0  0  0  0  0  0  0  0  0  0  0
   45.6200   32.2660   42.8570 N   0  0  0  0  0  0  0  0  0  0  0  0
   47.3970   30.9110   45.4090 C   0  0  0  0  0  0  0  0  0  0  0  0
   46.6750   32.0410   45.0330 C   0  0  0  0  0  0  0  0  0  0  0  0
   45.9360   32.7970   45.9430 C   0  0  0  0  0  0  0  0  0  0  0  0
   45.9140   32.4100   47.2860 C   0  0  0  0  0  0  0  0  0  0  0  0
   45.3280   32.8800   48.4200 N   0  0  0  0  0  0  0  0  0  0  0  0
   45.6910   32.0510   49.4500 C   0  0  0  0  0  0  0  0  0  0  0  0
   46.4990   31.0790   48.9320 N   0  0  0  0  0  0  0  0  0  0  0  0
   46.6460   31.2810   47.6120 C   0  0  0  0  0  0  0  0  0  0  0  0
   47.3830   30.5170   46.7400 C   0  0  0  0  0  0  0  0  0  0  0  0
   49.0350   34.2800   41.3740 C   0  0  0  0  0  0  0  0  0  0  0  0
   48.6650   35.4470   40.7010 F   0  0  0  0  0  0  0  0  0  0  0  0
   49.8300   34.6840   42.4150 F   0  0  0  0  0  0  0  0  0  0  0  0
   49.7110   33.4580   40.5240 F   0  0  0  0  0  0  0  0  0  0  0  0
   46.7390   33.7700   39.7410 O   0  0  0  0  0  0  0  0  0  0  0  0
   47.5240   31.9120   38.5490 N   0  0  0  0  0  0  0  0  0  0  0  0
   46.5800   33.0260   38.5830 C   0  0  2  0  0  0  0  0  0  0  0  0
   46.9760   33.9460   37.4210 C   0  0  0  0  0  0  0  0  0  0  0  0
   48.2970   34.3560   37.6910 O   0  0  0  0  0  0  0  0  0  0  0  0
   49.1290   33.3020   37.3230 C   0  0  0  0  0  0  0  0  0  0  0  0
   48.4200   31.9670   37.4220 C   0  0  0  0  0  0  0  0  0  0  0  0
   44.7834   32.5108   40.9354 H   0  0  0  0  0  0  0  0  0  0  0  0
   47.9692   30.3398   44.6632 H   0  0  0  0  0  0  0  0  0  0  0  0
   45.3788   33.6846   45.6087 H   0  0  0  0  0  0  0  0  0  0  0  0
   44.7211   33.7091   48.4919 H   0  0  0  0  0  0  0  0  0  0  0  0
   45.3868   32.1506   50.5024 H   0  0  0  0  0  0  0  0  0  0  0  0
   47.9382   29.6311   47.0818 H   0  0  0  0  0  0  0  0  0  0  0  0
   48.0831   31.9292   39.4139 H   0  0  0  0  0  0  0  0  0  0  0  0
   45.5486   32.6476   38.5273 H   0  0  0  0  0  0  0  0  0  0  0  0
   46.3058   34.8171   37.3762 H   0  0  0  0  0  0  0  0  0  0  0  0
   46.9013   33.4306   36.4521 H   0  0  0  0  0  0  0  0  0  0  0  0
   50.0050   33.2905   37.9882 H   0  0  0  0  0  0  0  0  0  0  0  0
   49.4307   33.4530   36.2760 H   0  0  0  0  0  0  0  0  0  0  0  0
   47.8418   31.8032   36.5007 H   0  0  0  0  0  0  0  0  0  0  0  0
   49.1836   31.1869   37.5576 H   0  0  0  0  0  0  0  0  0  0  0  0
  1  6  2  0
  2  1  1  0
  2  3  2  0
  3  4  1  0
  4  5  2  0
  5  8  1  0
  6  5  1  0
  7 15  2  0
  8  7  1  0
  8  9  2  0
  9 10  1  0
 10 14  2  0
 10 11  1  0
 11 12  1  0
 13 12  2  0
 14 13  1  0
 15 14  1  0
 16  3  1  0
 16 18  1  0
 17 16  1  0
 19 16  1  0
 20  2  1  0
 21 22  1  0
 22 20  1  0
 23 24  1  0
 23 22  1  0
 25 26  1  0
 25 24  1  0
 26 21  1  0
  1 27  1  0
  7 28  1  0
  9 29  1  0
 11 30  1  0
 12 31  1  0
 15 32  1  0
 21 33  1  0
 22 34  1  6
 23 35  1  0
 23 36  1  0
 25 37  1  0
 25 38  1  0
 26 39  1  0
 26 40  1  0
M  ISO  8  27  14  28  14  29  14  30   9  31  14  32  14  33   5  34  13
M  ISO  6  35  13  36  13  37  13  38  13  39  13  40  13
M  END
>  <minimizedAffinity>  (1) 
-5.38432217

>  <minimizedRMSD>  (1) 
1.41027236

$$$$
