
     RDKit          3D

 34 36  0  0  1  0  0  0  0  0999 V2000
   46.3140   32.1540   44.4770 C   0  0  1  0  0  0  0  0  0  0  0  0
   46.6000   31.4810   43.2630 C   0  0  0  0  0  0  0  0  0  0  0  0
   47.7390   32.1720   44.0320 C   0  0  1  0  0  0  0  0  0  0  0  0
   45.1000   34.0320   43.1620 C   0  0  0  0  0  0  0  0  0  0  0  0
   45.5590   33.4860   44.3900 C   0  0  0  0  0  0  0  0  0  0  0  0
   45.3330   34.2030   45.5460 C   0  0  0  0  0  0  0  0  0  0  0  0
   44.6860   35.3890   45.4650 N   0  0  0  0  0  0  0  0  0  0  0  0
   44.2500   35.9070   44.2860 C   0  0  0  0  0  0  0  0  0  0  0  0
   44.4660   35.2000   43.1030 N   0  0  0  0  0  0  0  0  0  0  0  0
   48.1960   33.3900   43.4350 N   0  0  0  0  0  0  0  0  0  0  0  0
   49.3780   33.4810   42.7170 C   0  0  0  0  0  0  0  0  0  0  0  0
   50.5270   33.0260   42.9550 O   0  0  0  0  0  0  0  0  0  0  0  0
   49.3970   34.2350   41.3950 C   0  0  2  0  0  0  0  0  0  0  0  0
   48.8590   35.7070   41.4390 C   0  0  0  0  0  0  0  0  0  0  0  0
   48.1670   34.5790   40.6900 C   0  0  1  0  0  0  0  0  0  0  0  0
   48.1690   34.6720   39.1580 C   0  0  0  0  0  0  0  0  0  0  0  0
   47.3870   33.5400   38.5420 C   0  0  0  0  0  0  0  0  0  0  0  0
   45.8067   31.8440   45.4025 H   0  0  0  0  0  0  0  0  0  0  0  0
   46.2499   31.8998   42.3080 H   0  0  0  0  0  0  0  0  0  0  0  0
   46.4281   30.4634   42.8822 H   0  0  0  0  0  0  0  0  0  0  0  0
   48.7103   31.8969   44.4690 H   0  0  0  0  0  0  0  0  0  0  0  0
   45.2740   33.4721   42.2313 H   0  0  0  0  0  0  0  0  0  0  0  0
   45.6731   33.8172   46.5184 H   0  0  0  0  0  0  0  0  0  0  0  0
   43.7307   36.8765   44.2651 H   0  0  0  0  0  0  0  0  0  0  0  0
   47.6204   34.2372   43.5439 H   0  0  0  0  0  0  0  0  0  0  0  0
   50.3137   33.7156   41.0789 H   0  0  0  0  0  0  0  0  0  0  0  0
   48.4228   36.1163   42.3622 H   0  0  0  0  0  0  0  0  0  0  0  0
   49.2475   36.7069   41.1955 H   0  0  0  0  0  0  0  0  0  0  0  0
   47.1588   34.1394   40.7073 H   0  0  0  0  0  0  0  0  0  0  0  0
   47.7154   35.6275   38.8560 H   0  0  0  0  0  0  0  0  0  0  0  0
   49.2094   34.6083   38.8066 H   0  0  0  0  0  0  0  0  0  0  0  0
   46.9559   32.9160   39.3387 H   0  0  0  0  0  0  0  0  0  0  0  0
   46.5783   33.9495   37.9189 H   0  0  0  0  0  0  0  0  0  0  0  0
   48.0562   32.9285   37.9189 H   0  0  0  0  0  0  0  0  0  0  0  0
  2  3  1  0
  2  1  1  0
  3  1  1  0
  4  5  2  0
  5  1  1  0
  5  6  1  0
  7  6  2  0
  8  7  1  0
  9  4  1  0
  9  8  2  0
 10  3  1  0
 11 12  2  0
 11 10  1  0
 13 14  1  0
 13 11  1  0
 15 13  1  0
 15 14  1  0
 16 15  1  0
 17 16  1  0
  1 18  1  1
  2 19  1  0
  2 20  1  0
  3 21  1  1
  4 22  1  0
  6 23  1  0
  8 24  1  0
 10 25  1  0
 13 26  1  6
 14 27  1  0
 14 28  1  0
 15 29  1  1
 16 30  1  0
 16 31  1  0
 17 32  1  0
 17 33  1  0
 17 34  1  0
M  ISO  8  18  13  19  13  20  13  21  13  22  14  23  14  24  14  26  13
M  ISO  8  27  13  28  13  29  13  30   8  31   8  32   8  33   8  34   8
M  END
>  <minimizedAffinity>  (1) 
-4.38929462

>  <minimizedRMSD>  (1) 
0.565189302

$$$$
