
     RDKit          3D

 47 51  0  0  0  0  0  0  0  0999 V2000
   45.9540   33.3190   41.6190 C   0  0  0  0  0  0  0  0  0  0  0  0
   47.1400   33.9820   41.3220 C   0  0  0  0  0  0  0  0  0  0  0  0
   48.1160   33.9990   42.3140 C   0  0  0  0  0  0  0  0  0  0  0  0
   47.8240   33.3650   43.4910 N   0  0  0  0  0  0  0  0  0  0  0  0
   46.6820   32.7380   43.7470 C   0  0  0  0  0  0  0  0  0  0  0  0
   45.7220   32.7070   42.8040 N   0  0  0  0  0  0  0  0  0  0  0  0
   46.6710   30.7410   45.1770 C   0  0  0  0  0  0  0  0  0  0  0  0
   46.4840   32.1010   45.0310 C   0  0  0  0  0  0  0  0  0  0  0  0
   46.1000   32.9200   46.1010 C   0  0  0  0  0  0  0  0  0  0  0  0
   45.8900   32.3950   47.3590 C   0  0  0  0  0  0  0  0  0  0  0  0
   45.5260   32.8650   48.5840 N   0  0  0  0  0  0  0  0  0  0  0  0
   45.5000   31.7860   49.4420 C   0  0  0  0  0  0  0  0  0  0  0  0
   45.8410   30.6970   48.7440 N   0  0  0  0  0  0  0  0  0  0  0  0
   46.0880   31.0220   47.4690 C   0  0  0  0  0  0  0  0  0  0  0  0
   46.4660   30.1840   46.4410 C   0  0  0  0  0  0  0  0  0  0  0  0
   49.4010   34.6860   42.0640 C   0  0  0  0  0  0  0  0  0  0  0  0
   49.1950   35.8190   41.2490 F   0  0  0  0  0  0  0  0  0  0  0  0
   49.9320   35.1500   43.2440 F   0  0  0  0  0  0  0  0  0  0  0  0
   50.2440   33.8150   41.4360 F   0  0  0  0  0  0  0  0  0  0  0  0
   47.2840   34.5610   40.1210 O   0  0  0  0  0  0  0  0  0  0  0  0
   47.3150   33.8600   38.9300 C   0  0  0  0  0  0  0  0  0  0  0  0
   48.4470   34.3580   38.2840 C   0  0  0  0  0  0  0  0  0  0  0  0
   48.4590   33.4110   36.7100 S   0  0  0  0  0  0  0  0  0  0  0  0
   46.8840   32.4790   37.2160 C   0  0  0  0  0  0  0  0  0  0  0  0
   46.7260   32.9540   38.2020 N   0  0  0  0  0  0  0  0  0  0  0  0
   46.2930   31.4940   36.3640 N   0  0  0  0  0  0  0  0  0  0  0  0
   45.2450   31.9310   35.4770 C   0  0  0  0  0  0  0  0  0  0  0  0
   45.1630   31.1930   34.1840 C   0  0  0  0  0  0  0  0  0  0  0  0
   45.5660   29.8110   34.2540 N   0  0  0  0  0  0  0  0  0  0  0  0
   46.7820   29.6090   34.9900 C   0  0  0  0  0  0  0  0  0  0  0  0
   46.7420   30.1020   36.3980 C   0  0  0  0  0  0  0  0  0  0  0  0
   45.1652   33.2905   40.8528 H   0  0  0  0  0  0  0  0  0  0  0  0
   46.9722   30.1154   44.3239 H   0  0  0  0  0  0  0  0  0  0  0  0
   45.9638   33.9989   45.9351 H   0  0  0  0  0  0  0  0  0  0  0  0
   45.3105   33.8431   48.8246 H   0  0  0  0  0  0  0  0  0  0  0  0
   45.2441   31.8155   50.5114 H   0  0  0  0  0  0  0  0  0  0  0  0
   46.6023   29.1060   46.6121 H   0  0  0  0  0  0  0  0  0  0  0  0
   49.1549   35.1254   38.6304 H   0  0  0  0  0  0  0  0  0  0  0  0
   44.2843   31.8114   35.9993 H   0  0  0  0  0  0  0  0  0  0  0  0
   45.4764   32.9752   35.2199 H   0  0  0  0  0  0  0  0  0  0  0  0
   45.8117   31.7029   33.4565 H   0  0  0  0  0  0  0  0  0  0  0  0
   44.1024   31.1935   33.8921 H   0  0  0  0  0  0  0  0  0  0  0  0
   44.8148   29.2744   34.7108 H   0  0  0  0  0  0  0  0  0  0  0  0
   46.9967   28.5303   35.0096 H   0  0  0  0  0  0  0  0  0  0  0  0
   47.5597   30.1929   34.4759 H   0  0  0  0  0  0  0  0  0  0  0  0
   47.7450   30.0417   36.8457 H   0  0  0  0  0  0  0  0  0  0  0  0
   46.0583   29.4891   37.0038 H   0  0  0  0  0  0  0  0  0  0  0  0
  1  6  2  0
  2  1  1  0
  2  3  2  0
  3  4  1  0
  4  5  2  0
  5  8  1  0
  6  5  1  0
  7 15  2  0
  8  7  1  0
  8  9  2  0
  9 10  1  0
 10 14  2  0
 10 11  1  0
 11 12  1  0
 13 12  2  0
 14 13  1  0
 15 14  1  0
 16  3  1  0
 16 18  1  0
 17 16  1  0
 19 16  1  0
 20  2  1  0
 21 20  1  0
 22 21  2  0
 23 24  1  0
 23 22  1  0
 24 25  2  0
 25 21  1  0
 26 31  1  0
 26 24  1  0
 27 26  1  0
 28 29  1  0
 28 27  1  0
 29 30  1  0
 30 31  1  0
  1 32  1  0
  7 33  1  0
  9 34  1  0
 11 35  1  0
 12 36  1  0
 15 37  1  0
 22 38  1  0
 27 39  1  0
 27 40  1  0
 28 41  1  0
 28 42  1  0
 29 43  1  0
 30 44  1  0
 30 45  1  0
 31 46  1  0
 31 47  1  0
M  ISO  8  32  14  33  14  34  14  35   9  36  14  37  14  38  14  39  13
M  ISO  8  40  13  41  13  42  13  43   5  44  13  45  13  46  13  47  13
M  END
>  <minimizedAffinity>  (1) 
-6.6707015

>  <minimizedRMSD>  (1) 
0.457206011

$$$$
