
     RDKit          3D

 40 44  0  0  0  0  0  0  0  0999 V2000
   45.9640   33.1880   41.6480 C   0  0  0  0  0  0  0  0  0  0  0  0
   47.1280   33.8890   41.3260 C   0  0  0  0  0  0  0  0  0  0  0  0
   48.1030   33.9610   42.3000 C   0  0  0  0  0  0  0  0  0  0  0  0
   47.8690   33.3510   43.4950 N   0  0  0  0  0  0  0  0  0  0  0  0
   46.7550   32.6860   43.7910 C   0  0  0  0  0  0  0  0  0  0  0  0
   45.7850   32.5990   42.8600 N   0  0  0  0  0  0  0  0  0  0  0  0
   46.9060   30.7600   45.2990 C   0  0  0  0  0  0  0  0  0  0  0  0
   46.5960   32.0690   45.0920 C   0  0  0  0  0  0  0  0  0  0  0  0
   46.1010   32.9100   46.1220 C   0  0  0  0  0  0  0  0  0  0  0  0
   45.9220   32.3880   47.3990 C   0  0  0  0  0  0  0  0  0  0  0  0
   45.4860   32.8660   48.5970 N   0  0  0  0  0  0  0  0  0  0  0  0
   45.5450   31.8350   49.4920 C   0  0  0  0  0  0  0  0  0  0  0  0
   46.0080   30.7550   48.8470 N   0  0  0  0  0  0  0  0  0  0  0  0
   46.2510   31.0540   47.5580 C   0  0  0  0  0  0  0  0  0  0  0  0
   46.7320   30.2240   46.5740 C   0  0  0  0  0  0  0  0  0  0  0  0
   49.3670   34.6960   42.0160 C   0  0  0  0  0  0  0  0  0  0  0  0
   49.1120   35.8090   41.2020 F   0  0  0  0  0  0  0  0  0  0  0  0
   49.9170   35.1730   43.1810 F   0  0  0  0  0  0  0  0  0  0  0  0
   50.2280   33.8440   41.3790 F   0  0  0  0  0  0  0  0  0  0  0  0
   47.2420   34.4540   40.1020 O   0  0  0  0  0  0  0  0  0  0  0  0
   47.3990   33.6960   38.9550 C   0  0  0  0  0  0  0  0  0  0  0  0
   48.3630   34.3960   38.2340 C   0  0  0  0  0  0  0  0  0  0  0  0
   48.5780   33.3950   36.7090 S   0  0  0  0  0  0  0  0  0  0  0  0
   47.2910   32.1610   37.3180 C   0  0  0  0  0  0  0  0  0  0  0  0
   47.0450   32.6430   38.2810 N   0  0  0  0  0  0  0  0  0  0  0  0
   46.7570   30.8890   36.6730 C   0  0  0  0  0  0  0  0  0  0  0  0
   47.6960   30.2390   35.7280 C   0  0  0  0  0  0  0  0  0  0  0  0
   46.4360   30.9560   35.2240 C   0  0  0  0  0  0  0  0  0  0  0  0
   45.1652   33.1098   40.8958 H   0  0  0  0  0  0  0  0  0  0  0  0
   47.2865   30.1371   44.4761 H   0  0  0  0  0  0  0  0  0  0  0  0
   45.8614   33.9631   45.9131 H   0  0  0  0  0  0  0  0  0  0  0  0
   45.1702   33.8267   48.7925 H   0  0  0  0  0  0  0  0  0  0  0  0
   45.2625   31.8829   50.5540 H   0  0  0  0  0  0  0  0  0  0  0  0
   46.9718   29.1715   46.7855 H   0  0  0  0  0  0  0  0  0  0  0  0
   48.8752   35.3289   38.5122 H   0  0  0  0  0  0  0  0  0  0  0  0
   46.1873   30.5613   37.5551 H   0  0  0  0  0  0  0  0  0  0  0  0
   48.6896   30.6752   35.5481 H   0  0  0  0  0  0  0  0  0  0  0  0
   48.1224   29.2313   35.6153 H   0  0  0  0  0  0  0  0  0  0  0  0
   46.5212   31.9093   34.6818 H   0  0  0  0  0  0  0  0  0  0  0  0
   45.5745   30.6821   34.5973 H   0  0  0  0  0  0  0  0  0  0  0  0
  1  6  2  0
  2  1  1  0
  2  3  2  0
  3  4  1  0
  4  5  2  0
  5  8  1  0
  6  5  1  0
  7 15  2  0
  8  7  1  0
  8  9  2  0
  9 10  1  0
 10 14  2  0
 10 11  1  0
 11 12  1  0
 13 12  2  0
 14 13  1  0
 15 14  1  0
 16  3  1  0
 16 18  1  0
 17 16  1  0
 19 16  1  0
 20  2  1  0
 21 20  1  0
 22 21  2  0
 23 24  1  0
 23 22  1  0
 24 25  2  0
 25 21  1  0
 26 24  1  0
 27 26  1  0
 28 27  1  0
 28 26  1  0
  1 29  1  0
  7 30  1  0
  9 31  1  0
 11 32  1  0
 12 33  1  0
 15 34  1  0
 22 35  1  0
 26 36  1  0
 27 37  1  0
 27 38  1  0
 28 39  1  0
 28 40  1  0
M  ISO  8  29  14  30  14  31  14  32   9  33  14  34  14  35  14  36  13
M  ISO  4  37  13  38  13  39  13  40  13
M  END
>  <minimizedAffinity>  (1) 
-6.02760839

>  <minimizedRMSD>  (1) 
0.0717419311

$$$$
