
     RDKit          3D

 41 45  0  0  1  0  0  0  0  0999 V2000
   44.9070   31.0190   48.2750 Cl  0  0  0  0  0  0  0  0  0  0  0  0
   46.0160   30.8210   46.9050 C   0  0  0  0  0  0  0  0  0  0  0  0
   46.2950   31.8920   46.1100 C   0  0  0  0  0  0  0  0  0  0  0  0
   47.2070   31.7180   45.1020 C   0  0  0  0  0  0  0  0  0  0  0  0
   47.8150   30.4970   44.9050 C   0  0  0  0  0  0  0  0  0  0  0  0
   47.5190   29.3970   45.7290 C   0  0  0  0  0  0  0  0  0  0  0  0
   46.5910   29.5920   46.7480 C   0  0  0  0  0  0  0  0  0  0  0  0
   45.6180   33.1540   46.3350 C   0  0  0  0  0  0  0  0  0  0  0  0
   45.1640   33.3540   47.4980 O   0  0  0  0  0  0  0  0  0  0  0  0
   44.5110   36.1240   44.5720 C   0  0  0  0  0  0  0  0  0  0  0  0
   45.1400   36.0740   43.3280 C   0  0  0  0  0  0  0  0  0  0  0  0
   45.9630   34.9670   43.1230 C   0  0  0  0  0  0  0  0  0  0  0  0
   46.0960   34.0350   44.1200 N   0  0  0  0  0  0  0  0  0  0  0  0
   45.4670   34.1370   45.2940 C   0  0  0  0  0  0  0  0  0  0  0  0
   44.6770   35.1920   45.4990 N   0  0  0  0  0  0  0  0  0  0  0  0
   46.3050   28.3850   47.5240 C   0  0  0  0  0  0  0  0  0  0  0  0
   45.1260   27.5910   47.1680 C   0  0  1  0  0  0  0  0  0  0  0  0
   44.1040   28.1770   46.2890 C   0  0  0  0  0  0  0  0  0  0  0  0
   43.2340   27.1300   45.8010 N   0  0  0  0  0  0  0  0  0  0  0  0
   42.1390   26.3690   45.2610 C   0  0  1  0  0  0  0  0  0  0  0  0
   40.8880   26.3390   45.3830 O   0  0  0  0  0  0  0  0  0  0  0  0
   43.2530   25.6550   44.5020 C   0  0  0  0  0  0  0  0  0  0  0  0
   43.8430   25.7620   45.8520 C   0  0  2  0  0  0  0  0  0  0  0  0
   45.5990   26.1910   46.0210 S   0  0  0  0  0  0  0  0  0  0  0  0
   44.4530   26.9510   48.3890 C   0  0  0  0  0  0  0  0  0  0  0  0
   47.4566   32.5624   44.4427 H   0  0  0  0  0  0  0  0  0  0  0  0
   48.5440   30.3812   44.0895 H   0  0  0  0  0  0  0  0  0  0  0  0
   48.0017   28.4207   45.5745 H   0  0  0  0  0  0  0  0  0  0  0  0
   43.8485   36.9739   44.7930 H   0  0  0  0  0  0  0  0  0  0  0  0
   44.9971   36.8519   42.5635 H   0  0  0  0  0  0  0  0  0  0  0  0
   46.5001   34.8427   42.1711 H   0  0  0  0  0  0  0  0  0  0  0  0
   47.1807   27.7254   47.4340 H   0  0  0  0  0  0  0  0  0  0  0  0
   46.0841   28.7591   48.5346 H   0  0  0  0  0  0  0  0  0  0  0  0
   43.5123   28.9127   46.8534 H   0  0  0  0  0  0  0  0  0  0  0  0
   44.5922   28.6757   45.4387 H   0  0  0  0  0  0  0  0  0  0  0  0
   40.6502   26.3333   46.3440 H   0  0  0  0  0  0  0  0  0  0  0  0
   43.0300   24.6397   44.1424 H   0  0  0  0  0  0  0  0  0  0  0  0
   43.7160   25.9869   43.5610 H   0  0  0  0  0  0  0  0  0  0  0  0
   44.8903   27.3669   49.3087 H   0  0  0  0  0  0  0  0  0  0  0  0
   43.3741   27.1645   48.3669 H   0  0  0  0  0  0  0  0  0  0  0  0
   44.6120   25.8628   48.3669 H   0  0  0  0  0  0  0  0  0  0  0  0
  2  1  1  0
  3  8  1  0
  3  2  2  0
  4  3  1  0
  5  4  2  0
  5  6  1  0
  6  7  2  0
  7  2  1  0
  7 16  1  0
  8  9  2  0
 10 15  2  0
 11 10  1  0
 12 11  2  0
 12 13  1  0
 13 14  2  0
 14 15  1  0
 14  8  1  0
 17 16  1  1
 17 25  1  0
 18 17  1  0
 19 23  1  0
 19 18  1  0
 20 21  1  1
 20 19  1  0
 20 23  1  0
 22 20  1  0
 23 22  1  0
 23 24  1  1
 24 17  1  0
  4 26  1  0
  5 27  1  0
  6 28  1  0
 10 29  1  0
 11 30  1  0
 12 31  1  0
 16 32  1  0
 16 33  1  0
 18 34  1  0
 18 35  1  0
 21 36  1  0
 22 37  1  0
 22 38  1  0
 25 39  1  0
 25 40  1  0
 25 41  1  0
M  ISO  8  26  14  27  14  28  14  29  14  30  14  31  14  32   8  33   8
M  ISO  8  34  13  35  13  36   3  37  13  38  13  39   8  40   8  41   8
M  END
>  <minimizedAffinity>  (1) 
-5.33532667

>  <minimizedRMSD>  (1) 
0.611611903

$$$$
