
     RDKit          3D

 25 26  0  0  0  0  0  0  0  0999 V2000
   44.7800   30.7600   48.0440 Cl  0  0  0  0  0  0  0  0  0  0  0  0
   46.1000   30.0220   47.1140 C   0  0  0  0  0  0  0  0  0  0  0  0
   47.1020   30.8130   46.6390 C   0  0  0  0  0  0  0  0  0  0  0  0
   48.1100   30.1970   45.9440 C   0  0  0  0  0  0  0  0  0  0  0  0
   48.1050   28.8360   45.7340 C   0  0  0  0  0  0  0  0  0  0  0  0
   47.0600   28.0340   46.2290 C   0  0  0  0  0  0  0  0  0  0  0  0
   46.0660   28.6680   46.9210 C   0  0  0  0  0  0  0  0  0  0  0  0
   44.9160   27.8700   47.4810 C   0  0  0  0  0  0  0  0  0  0  0  0
   45.0500   26.5360   47.2550 F   0  0  0  0  0  0  0  0  0  0  0  0
   44.6820   28.2300   48.7790 F   0  0  0  0  0  0  0  0  0  0  0  0
   43.8110   28.2940   46.7340 F   0  0  0  0  0  0  0  0  0  0  0  0
   47.0610   32.2440   46.8640 C   0  0  0  0  0  0  0  0  0  0  0  0
   47.5370   32.6520   47.9640 O   0  0  0  0  0  0  0  0  0  0  0  0
   44.8990   34.7270   45.3610 C   0  0  0  0  0  0  0  0  0  0  0  0
   45.3590   34.8730   44.0480 C   0  0  0  0  0  0  0  0  0  0  0  0
   46.4460   34.0810   43.7040 C   0  0  0  0  0  0  0  0  0  0  0  0
   46.9810   33.2400   44.6310 N   0  0  0  0  0  0  0  0  0  0  0  0
   46.5020   33.1390   45.8750 C   0  0  0  0  0  0  0  0  0  0  0  0
   45.4430   33.9000   46.2340 N   0  0  0  0  0  0  0  0  0  0  0  0
   48.9387   30.8012   45.5464 H   0  0  0  0  0  0  0  0  0  0  0  0
   48.9281   28.3700   45.1724 H   0  0  0  0  0  0  0  0  0  0  0  0
   47.0437   26.9462   46.0665 H   0  0  0  0  0  0  0  0  0  0  0  0
   44.0391   35.3330   45.6826 H   0  0  0  0  0  0  0  0  0  0  0  0
   44.8909   35.5686   43.3360 H   0  0  0  0  0  0  0  0  0  0  0  0
   46.8714   34.1326   42.6909 H   0  0  0  0  0  0  0  0  0  0  0  0
  2  1  1  0
  3 12  1  0
  3  2  2  0
  4  3  1  0
  5  4  2  0
  5  6  1  0
  6  7  2  0
  7  2  1  0
  7  8  1  0
  8 10  1  0
  9  8  1  0
 11  8  1  0
 12 13  2  0
 14 19  2  0
 15 14  1  0
 16 15  2  0
 16 17  1  0
 17 18  2  0
 18 19  1  0
 18 12  1  0
  4 20  1  0
  5 21  1  0
  6 22  1  0
 14 23  1  0
 15 24  1  0
 16 25  1  0
M  ISO  6  20  14  21  14  22  14  23  14  24  14  25  14
M  END
>  <minimizedAffinity>  (1) 
-4.46429348

>  <minimizedRMSD>  (1) 
1.55330586

$$$$
