
     RDKit          3D

 25 26  0  0  0  0  0  0  0  0999 V2000
   44.8040   30.9840   48.2320 Cl  0  0  0  0  0  0  0  0  0  0  0  0
   45.9320   30.2380   47.0830 C   0  0  0  0  0  0  0  0  0  0  0  0
   46.8600   31.0130   46.4570 C   0  0  0  0  0  0  0  0  0  0  0  0
   47.7230   30.3940   45.5890 C   0  0  0  0  0  0  0  0  0  0  0  0
   47.6450   29.0350   45.3640 C   0  0  0  0  0  0  0  0  0  0  0  0
   46.6770   28.2450   46.0180 C   0  0  0  0  0  0  0  0  0  0  0  0
   45.8310   28.8890   46.8790 C   0  0  0  0  0  0  0  0  0  0  0  0
   46.8980   32.4400   46.7090 C   0  0  0  0  0  0  0  0  0  0  0  0
   47.4690   32.8060   47.7810 O   0  0  0  0  0  0  0  0  0  0  0  0
   44.7070   35.0110   45.4150 C   0  0  0  0  0  0  0  0  0  0  0  0
   45.1200   35.2020   44.0820 C   0  0  0  0  0  0  0  0  0  0  0  0
   46.1810   34.4140   43.6520 C   0  0  0  0  0  0  0  0  0  0  0  0
   46.7400   33.5270   44.5210 N   0  0  0  0  0  0  0  0  0  0  0  0
   46.3100   33.3840   45.7790 C   0  0  0  0  0  0  0  0  0  0  0  0
   45.2790   34.1390   46.2240 N   0  0  0  0  0  0  0  0  0  0  0  0
   44.7780   28.1030   47.6060 C   0  0  0  0  0  0  0  0  0  0  0  0
   48.4866   30.9883   45.0659 H   0  0  0  0  0  0  0  0  0  0  0  0
   48.3484   28.5606   44.6640 H   0  0  0  0  0  0  0  0  0  0  0  0
   46.6055   27.1612   45.8439 H   0  0  0  0  0  0  0  0  0  0  0  0
   43.8714   35.6149   45.7985 H   0  0  0  0  0  0  0  0  0  0  0  0
   44.6314   35.9321   43.4201 H   0  0  0  0  0  0  0  0  0  0  0  0
   46.5636   34.5055   42.6247 H   0  0  0  0  0  0  0  0  0  0  0  0
   44.9232   28.2114   48.6910 H   0  0  0  0  0  0  0  0  0  0  0  0
   43.7825   28.4807   47.3298 H   0  0  0  0  0  0  0  0  0  0  0  0
   44.8570   27.0412   47.3298 H   0  0  0  0  0  0  0  0  0  0  0  0
  2  1  1  0
  3  8  1  0
  3  2  2  0
  4  3  1  0
  5  4  2  0
  5  6  1  0
  6  7  2  0
  7  2  1  0
  7 16  1  0
  8  9  2  0
 10 15  2  0
 11 10  1  0
 12 11  2  0
 12 13  1  0
 13 14  2  0
 14 15  1  0
 14  8  1  0
  4 17  1  0
  5 18  1  0
  6 19  1  0
 10 20  1  0
 11 21  1  0
 12 22  1  0
 16 23  1  0
 16 24  1  0
 16 25  1  0
M  ISO  8  17  14  18  14  19  14  20  14  21  14  22  14  23   8  24   8
M  ISO  1  25   8
M  END
>  <minimizedAffinity>  (1) 
-4.23756933

>  <minimizedRMSD>  (1) 
1.29378068

$$$$
