
     RDKit          3D

 29 31  0  0  0  0  0  0  0  0999 V2000
   44.8340   30.5900   47.9960 Cl  0  0  0  0  0  0  0  0  0  0  0  0
   46.0840   29.9450   46.9410 C   0  0  0  0  0  0  0  0  0  0  0  0
   47.0510   30.7820   46.4500 C   0  0  0  0  0  0  0  0  0  0  0  0
   48.0320   30.2360   45.6630 C   0  0  0  0  0  0  0  0  0  0  0  0
   48.0360   28.8880   45.3790 C   0  0  0  0  0  0  0  0  0  0  0  0
   47.0550   28.0430   45.8740 C   0  0  0  0  0  0  0  0  0  0  0  0
   46.0670   28.6080   46.6720 C   0  0  0  0  0  0  0  0  0  0  0  0
   45.0740   27.6370   47.1380 C   0  0  0  0  0  0  0  0  0  0  0  0
   43.9840   27.0900   46.5030 C   0  0  0  0  0  0  0  0  0  0  0  0
   43.2980   26.2030   47.3000 C   0  0  0  0  0  0  0  0  0  0  0  0
   44.0390   26.2460   48.4580 C   0  0  0  0  0  0  0  0  0  0  0  0
   45.0310   27.0690   48.3190 O   0  0  0  0  0  0  0  0  0  0  0  0
   46.9830   32.2000   46.7540 C   0  0  0  0  0  0  0  0  0  0  0  0
   47.4240   32.5660   47.8780 O   0  0  0  0  0  0  0  0  0  0  0  0
   44.8670   34.7900   45.3570 C   0  0  0  0  0  0  0  0  0  0  0  0
   45.3210   34.9860   44.0470 C   0  0  0  0  0  0  0  0  0  0  0  0
   46.3880   34.1850   43.6680 C   0  0  0  0  0  0  0  0  0  0  0  0
   46.9090   33.2880   44.5700 N   0  0  0  0  0  0  0  0  0  0  0  0
   46.4320   33.1480   45.8070 C   0  0  0  0  0  0  0  0  0  0  0  0
   45.4020   33.9130   46.1870 N   0  0  0  0  0  0  0  0  0  0  0  0
   48.8239   30.8809   45.2542 H   0  0  0  0  0  0  0  0  0  0  0  0
   48.8345   28.4735   44.7461 H   0  0  0  0  0  0  0  0  0  0  0  0
   47.0582   26.9673   45.6443 H   0  0  0  0  0  0  0  0  0  0  0  0
   43.6925   27.3348   45.4710 H   0  0  0  0  0  0  0  0  0  0  0  0
   42.3965   25.6155   47.0718 H   0  0  0  0  0  0  0  0  0  0  0  0
   43.8219   25.6673   49.3680 H   0  0  0  0  0  0  0  0  0  0  0  0
   44.0218   35.3974   45.7129 H   0  0  0  0  0  0  0  0  0  0  0  0
   44.8648   35.7215   43.3681 H   0  0  0  0  0  0  0  0  0  0  0  0
   46.8127   34.2666   42.6566 H   0  0  0  0  0  0  0  0  0  0  0  0
  2  1  1  0
  3 13  1  0
  3  2  2  0
  4  3  1  0
  5  4  2  0
  5  6  1  0
  6  7  2  0
  7  2  1  0
  7  8  1  0
  8 12  1  0
  9  8  2  0
  9 10  1  0
 10 11  2  0
 12 11  1  0
 13 14  2  0
 15 20  2  0
 16 15  1  0
 17 16  2  0
 17 18  1  0
 18 19  2  0
 19 20  1  0
 19 13  1  0
  4 21  1  0
  5 22  1  0
  6 23  1  0
  9 24  1  0
 10 25  1  0
 11 26  1  0
 15 27  1  0
 16 28  1  0
 17 29  1  0
M  ISO  8  21  14  22  14  23  14  24  14  25  14  26  14  27  14  28  14
M  ISO  1  29  14
M  END
>  <minimizedAffinity>  (1) 
-4.6779089

>  <minimizedRMSD>  (1) 
1.79006958

$$$$
