
     RDKit          3D

 45 48  0  0  0  0  0  0  0  0999 V2000
   44.8880   30.6860   47.9300 Cl  0  0  0  0  0  0  0  0  0  0  0  0
   45.9870   30.1190   46.6660 C   0  0  0  0  0  0  0  0  0  0  0  0
   46.8670   31.0040   46.0880 C   0  0  0  0  0  0  0  0  0  0  0  0
   47.7000   30.5210   45.1260 C   0  0  0  0  0  0  0  0  0  0  0  0
   47.6600   29.1960   44.7470 C   0  0  0  0  0  0  0  0  0  0  0  0
   46.7690   28.3140   45.3350 C   0  0  0  0  0  0  0  0  0  0  0  0
   45.9240   28.8060   46.3130 C   0  0  0  0  0  0  0  0  0  0  0  0
   45.0190   27.7990   46.8650 C   0  0  0  0  0  0  0  0  0  0  0  0
   43.8680   27.2460   46.3270 C   0  0  0  0  0  0  0  0  0  0  0  0
   43.2950   26.3210   47.1630 C   0  0  0  0  0  0  0  0  0  0  0  0
   44.1640   26.3410   48.2430 C   0  0  0  0  0  0  0  0  0  0  0  0
   45.1100   27.1910   48.0130 O   0  0  0  0  0  0  0  0  0  0  0  0
   46.8590   32.3960   46.5230 C   0  0  0  0  0  0  0  0  0  0  0  0
   47.3770   32.6640   47.6300 O   0  0  0  0  0  0  0  0  0  0  0  0
   44.6560   35.0730   45.4340 C   0  0  0  0  0  0  0  0  0  0  0  0
   45.0540   35.3850   44.1330 C   0  0  0  0  0  0  0  0  0  0  0  0
   46.1100   34.6400   43.6430 C   0  0  0  0  0  0  0  0  0  0  0  0
   46.6730   33.6790   44.4440 N   0  0  0  0  0  0  0  0  0  0  0  0
   46.2610   33.4180   45.6730 C   0  0  0  0  0  0  0  0  0  0  0  0
   45.2350   34.1300   46.1690 N   0  0  0  0  0  0  0  0  0  0  0  0
   46.6020   34.8930   42.2850 C   0  0  0  0  0  0  0  0  0  0  0  0
   48.1010   35.0470   42.2370 C   0  0  0  0  0  0  0  0  0  0  0  0
   48.5170   35.2160   40.7880 C   0  0  0  0  0  0  0  0  0  0  0  0
   48.1830   33.8910   40.1170 C   0  0  0  0  0  0  0  0  0  0  0  0
   46.6770   33.8550   39.9980 C   0  0  0  0  0  0  0  0  0  0  0  0
   46.0900   33.8070   41.3820 C   0  0  0  0  0  0  0  0  0  0  0  0
   48.4178   31.1998   44.6424 H   0  0  0  0  0  0  0  0  0  0  0  0
   48.3456   28.8344   43.9665 H   0  0  0  0  0  0  0  0  0  0  0  0
   46.7345   27.2565   45.0340 H   0  0  0  0  0  0  0  0  0  0  0  0
   43.4602   27.5175   45.3421 H   0  0  0  0  0  0  0  0  0  0  0  0
   42.3850   25.7210   47.0151 H   0  0  0  0  0  0  0  0  0  0  0  0
   44.0641   25.7299   49.1522 H   0  0  0  0  0  0  0  0  0  0  0  0
   43.8199   35.6370   45.8732 H   0  0  0  0  0  0  0  0  0  0  0  0
   44.5616   36.1691   43.5391 H   0  0  0  0  0  0  0  0  0  0  0  0
   46.2149   35.8588   41.9281 H   0  0  0  0  0  0  0  0  0  0  0  0
   48.4026   35.9323   42.8161 H   0  0  0  0  0  0  0  0  0  0  0  0
   48.5869   34.1599   42.6695 H   0  0  0  0  0  0  0  0  0  0  0  0
   47.9555   36.0376   40.3193 H   0  0  0  0  0  0  0  0  0  0  0  0
   49.5842   35.4657   40.6942 H   0  0  0  0  0  0  0  0  0  0  0  0
   48.6469   33.8389   39.1209 H   0  0  0  0  0  0  0  0  0  0  0  0
   48.5628   33.0373   40.6975 H   0  0  0  0  0  0  0  0  0  0  0  0
   46.3243   34.7570   39.4764 H   0  0  0  0  0  0  0  0  0  0  0  0
   46.3652   32.9690   39.4254 H   0  0  0  0  0  0  0  0  0  0  0  0
   44.9975   33.9069   41.3011 H   0  0  0  0  0  0  0  0  0  0  0  0
   46.3877   32.8465   41.8279 H   0  0  0  0  0  0  0  0  0  0  0  0
  2  1  1  0
  3 13  1  0
  3  2  2  0
  4  3  1  0
  5  4  2  0
  5  6  1  0
  6  7  2  0
  7  2  1  0
  7  8  1  0
  8 12  1  0
  9  8  2  0
  9 10  1  0
 10 11  2  0
 12 11  1  0
 13 14  2  0
 15 20  2  0
 16 15  1  0
 17 16  2  0
 17 18  1  0
 18 19  2  0
 19 20  1  0
 19 13  1  0
 21 17  1  0
 22 21  1  0
 23 22  1  0
 24 23  1  0
 25 24  1  0
 25 26  1  0
 26 21  1  0
  4 27  1  0
  5 28  1  0
  6 29  1  0
  9 30  1  0
 10 31  1  0
 11 32  1  0
 15 33  1  0
 16 34  1  0
 21 35  1  0
 22 36  1  0
 22 37  1  0
 23 38  1  0
 23 39  1  0
 24 40  1  0
 24 41  1  0
 25 42  1  0
 25 43  1  0
 26 44  1  0
 26 45  1  0
M  ISO  8  27  14  28  14  29  14  30  14  31  14  32  14  33  14  34  14
M  ISO  8  35  13  36  13  37  13  38  13  39  13  40  13  41  13  42  13
M  ISO  3  43  13  44  13  45  13
M  END
>  <minimizedAffinity>  (1) 
-6.40804911

>  <minimizedRMSD>  (1) 
0.559440613

$$$$
