
     RDKit          3D

 40 44  0  0  0  0  0  0  0  0999 V2000
   46.9020   32.2910   46.5470 C   0  0  0  0  0  0  0  0  0  0  0  0
   47.2890   32.6190   47.6890 O   0  0  0  0  0  0  0  0  0  0  0  0
   44.8520   30.6480   47.9300 Cl  0  0  0  0  0  0  0  0  0  0  0  0
   46.0330   30.0240   46.7700 C   0  0  0  0  0  0  0  0  0  0  0  0
   46.9430   30.8760   46.1950 C   0  0  0  0  0  0  0  0  0  0  0  0
   47.8350   30.3460   45.3160 C   0  0  0  0  0  0  0  0  0  0  0  0
   47.8250   29.0020   45.0150 C   0  0  0  0  0  0  0  0  0  0  0  0
   46.9050   28.1500   45.5980 C   0  0  0  0  0  0  0  0  0  0  0  0
   45.9880   28.6980   46.5020 C   0  0  0  0  0  0  0  0  0  0  0  0
   45.0610   27.7090   47.0550 C   0  0  0  0  0  0  0  0  0  0  0  0
   43.9450   27.1270   46.4760 C   0  0  0  0  0  0  0  0  0  0  0  0
   43.3320   26.2350   47.3290 C   0  0  0  0  0  0  0  0  0  0  0  0
   44.1450   26.3170   48.4490 C   0  0  0  0  0  0  0  0  0  0  0  0
   45.0990   27.1610   48.2340 O   0  0  0  0  0  0  0  0  0  0  0  0
   44.8630   34.9030   45.0510 C   0  0  0  0  0  0  0  0  0  0  0  0
   45.4210   35.1510   43.8020 C   0  0  0  0  0  0  0  0  0  0  0  0
   46.5310   34.3870   43.4860 C   0  0  0  0  0  0  0  0  0  0  0  0
   46.9920   33.4620   44.3990 N   0  0  0  0  0  0  0  0  0  0  0  0
   46.4190   33.2670   45.5770 C   0  0  0  0  0  0  0  0  0  0  0  0
   45.3420   34.0040   45.8940 N   0  0  0  0  0  0  0  0  0  0  0  0
   47.1910   34.5490   42.2340 N   0  0  0  0  0  0  0  0  0  0  0  0
   48.2370   35.3700   42.0240 C   0  0  0  0  0  0  0  0  0  0  0  0
   48.5670   35.2340   40.7080 N   0  0  0  0  0  0  0  0  0  0  0  0
   47.7220   34.3400   40.1410 C   0  0  0  0  0  0  0  0  0  0  0  0
   47.6810   33.8870   38.8190 C   0  0  0  0  0  0  0  0  0  0  0  0
   46.7090   32.9870   38.5770 N   0  0  0  0  0  0  0  0  0  0  0  0
   45.8440   32.5420   39.4880 C   0  0  0  0  0  0  0  0  0  0  0  0
   45.9100   32.9980   40.7530 N   0  0  0  0  0  0  0  0  0  0  0  0
   46.8310   33.8920   41.1160 C   0  0  0  0  0  0  0  0  0  0  0  0
   48.5771   31.0018   44.8372 H   0  0  0  0  0  0  0  0  0  0  0  0
   48.5591   28.6007   44.3008 H   0  0  0  0  0  0  0  0  0  0  0  0
   46.8943   27.0763   45.3589 H   0  0  0  0  0  0  0  0  0  0  0  0
   43.5911   27.3499   45.4586 H   0  0  0  0  0  0  0  0  0  0  0  0
   42.4347   25.6203   47.1647 H   0  0  0  0  0  0  0  0  0  0  0  0
   43.9997   25.7493   49.3799 H   0  0  0  0  0  0  0  0  0  0  0  0
   43.9789   35.4837   45.3530 H   0  0  0  0  0  0  0  0  0  0  0  0
   45.0088   35.9025   43.1126 H   0  0  0  0  0  0  0  0  0  0  0  0
   48.7266   36.0195   42.7646 H   0  0  0  0  0  0  0  0  0  0  0  0
   48.3808   34.2350   38.0450 H   0  0  0  0  0  0  0  0  0  0  0  0
   45.0781   31.8041   39.2071 H   0  0  0  0  0  0  0  0  0  0  0  0
  1  2  2  0
  4  3  1  0
  5  1  1  0
  5  4  2  0
  6  5  1  0
  7  6  2  0
  7  8  1  0
  8  9  2  0
  9  4  1  0
  9 10  1  0
 10 14  1  0
 11 10  2  0
 11 12  1  0
 12 13  2  0
 14 13  1  0
 15 20  2  0
 16 15  1  0
 17 16  2  0
 17 18  1  0
 18 19  2  0
 19 20  1  0
 19  1  1  0
 21 17  1  0
 22 21  1  0
 23 22  2  0
 24 23  1  0
 24 29  2  0
 25 24  1  0
 26 25  2  0
 26 27  1  0
 27 28  2  0
 28 29  1  0
 29 21  1  0
  6 30  1  0
  7 31  1  0
  8 32  1  0
 11 33  1  0
 12 34  1  0
 13 35  1  0
 15 36  1  0
 16 37  1  0
 22 38  1  0
 25 39  1  0
 27 40  1  0
M  ISO  8  30  14  31  14  32  14  33  14  34  14  35  14  36  14  37  14
M  ISO  3  38  14  39  14  40  14
M  END
>  <minimizedAffinity>  (1) 
-6.32466364

>  <minimizedRMSD>  (1) 
0.69017905

$$$$
