
     RDKit          3D

 37 40  0  0  0  0  0  0  0  0999 V2000
   44.8230   30.5990   47.9680 Cl  0  0  0  0  0  0  0  0  0  0  0  0
   46.0550   29.9540   46.8790 C   0  0  0  0  0  0  0  0  0  0  0  0
   47.0080   30.7900   46.3570 C   0  0  0  0  0  0  0  0  0  0  0  0
   47.9430   30.2460   45.5280 C   0  0  0  0  0  0  0  0  0  0  0  0
   47.9260   28.9060   45.2290 C   0  0  0  0  0  0  0  0  0  0  0  0
   46.9640   28.0650   45.7570 C   0  0  0  0  0  0  0  0  0  0  0  0
   46.0120   28.6250   46.6010 C   0  0  0  0  0  0  0  0  0  0  0  0
   45.0400   27.6520   47.1020 C   0  0  0  0  0  0  0  0  0  0  0  0
   43.9230   27.1150   46.4830 C   0  0  0  0  0  0  0  0  0  0  0  0
   43.2610   26.2260   47.2900 C   0  0  0  0  0  0  0  0  0  0  0  0
   44.0400   26.2530   48.4370 C   0  0  0  0  0  0  0  0  0  0  0  0
   45.0260   27.0730   48.2710 O   0  0  0  0  0  0  0  0  0  0  0  0
   46.9720   32.2080   46.7060 C   0  0  0  0  0  0  0  0  0  0  0  0
   47.4130   32.5430   47.8270 O   0  0  0  0  0  0  0  0  0  0  0  0
   44.8570   34.8110   45.3090 C   0  0  0  0  0  0  0  0  0  0  0  0
   45.3380   35.0460   44.0210 C   0  0  0  0  0  0  0  0  0  0  0  0
   46.4220   34.2710   43.6520 C   0  0  0  0  0  0  0  0  0  0  0  0
   46.9310   33.3580   44.5450 N   0  0  0  0  0  0  0  0  0  0  0  0
   46.4350   33.1760   45.7580 C   0  0  0  0  0  0  0  0  0  0  0  0
   45.3830   33.9160   46.1370 N   0  0  0  0  0  0  0  0  0  0  0  0
   47.0220   34.4150   42.3340 C   0  0  0  0  0  0  0  0  0  0  0  0
   48.1290   35.2180   42.1790 C   0  0  0  0  0  0  0  0  0  0  0  0
   48.6550   35.3110   40.8860 C   0  0  0  0  0  0  0  0  0  0  0  0
   48.0550   34.6180   39.8790 N   0  0  0  0  0  0  0  0  0  0  0  0
   46.9740   33.8430   40.0720 C   0  0  0  0  0  0  0  0  0  0  0  0
   46.4450   33.7380   41.3260 N   0  0  0  0  0  0  0  0  0  0  0  0
   48.7219   30.8892   45.0925 H   0  0  0  0  0  0  0  0  0  0  0  0
   48.6925   28.4936   44.5564 H   0  0  0  0  0  0  0  0  0  0  0  0
   46.9524   26.9914   45.5178 H   0  0  0  0  0  0  0  0  0  0  0  0
   43.6041   27.3721   45.4621 H   0  0  0  0  0  0  0  0  0  0  0  0
   42.3509   25.6441   47.0822 H   0  0  0  0  0  0  0  0  0  0  0  0
   43.8486   25.6670   49.3480 H   0  0  0  0  0  0  0  0  0  0  0  0
   43.9952   35.3990   45.6578 H   0  0  0  0  0  0  0  0  0  0  0  0
   44.8886   35.7920   43.3491 H   0  0  0  0  0  0  0  0  0  0  0  0
   48.5763   35.7579   43.0266 H   0  0  0  0  0  0  0  0  0  0  0  0
   49.5392   35.9340   40.6860 H   0  0  0  0  0  0  0  0  0  0  0  0
   46.5210   33.2998   39.2295 H   0  0  0  0  0  0  0  0  0  0  0  0
  2  1  1  0
  3 13  1  0
  3  2  2  0
  4  3  1  0
  5  4  2  0
  5  6  1  0
  6  7  2  0
  7  2  1  0
  7  8  1  0
  8 12  1  0
  9  8  2  0
  9 10  1  0
 10 11  2  0
 12 11  1  0
 13 14  2  0
 15 20  2  0
 16 15  1  0
 17 16  2  0
 17 18  1  0
 18 19  2  0
 19 20  1  0
 19 13  1  0
 21 17  1  0
 22 21  2  0
 23 22  1  0
 24 25  1  0
 24 23  2  0
 25 26  2  0
 26 21  1  0
  4 27  1  0
  5 28  1  0
  6 29  1  0
  9 30  1  0
 10 31  1  0
 11 32  1  0
 15 33  1  0
 16 34  1  0
 22 35  1  0
 23 36  1  0
 25 37  1  0
M  ISO  8  27  14  28  14  29  14  30  14  31  14  32  14  33  14  34  14
M  ISO  3  35  14  36  14  37  14
M  END
>  <minimizedAffinity>  (1) 
-6.02958298

>  <minimizedRMSD>  (1) 
0.134276003

$$$$
