
     RDKit          3D

 36 39  0  0  0  0  0  0  0  0999 V2000
   44.8610   30.6130   47.9470 Cl  0  0  0  0  0  0  0  0  0  0  0  0
   46.0480   29.9680   46.8070 C   0  0  0  0  0  0  0  0  0  0  0  0
   46.9870   30.8080   46.2500 C   0  0  0  0  0  0  0  0  0  0  0  0
   47.8870   30.2690   45.3840 C   0  0  0  0  0  0  0  0  0  0  0  0
   47.8550   28.9280   45.0800 C   0  0  0  0  0  0  0  0  0  0  0  0
   46.9080   28.0850   45.6410 C   0  0  0  0  0  0  0  0  0  0  0  0
   45.9930   28.6380   46.5220 C   0  0  0  0  0  0  0  0  0  0  0  0
   45.0380   27.6710   47.0550 C   0  0  0  0  0  0  0  0  0  0  0  0
   43.9060   27.1300   46.4680 C   0  0  0  0  0  0  0  0  0  0  0  0
   43.2660   26.2440   47.3070 C   0  0  0  0  0  0  0  0  0  0  0  0
   44.0720   26.2830   48.4260 C   0  0  0  0  0  0  0  0  0  0  0  0
   45.0570   27.1030   48.2300 O   0  0  0  0  0  0  0  0  0  0  0  0
   46.9620   32.2250   46.6100 C   0  0  0  0  0  0  0  0  0  0  0  0
   47.4150   32.5480   47.7310 O   0  0  0  0  0  0  0  0  0  0  0  0
   44.8520   34.8440   45.2540 C   0  0  0  0  0  0  0  0  0  0  0  0
   45.3430   35.1020   43.9660 C   0  0  0  0  0  0  0  0  0  0  0  0
   46.4290   34.3360   43.5880 C   0  0  0  0  0  0  0  0  0  0  0  0
   46.9310   33.4040   44.4800 N   0  0  0  0  0  0  0  0  0  0  0  0
   46.4270   33.2020   45.6850 C   0  0  0  0  0  0  0  0  0  0  0  0
   45.3730   33.9430   46.0590 N   0  0  0  0  0  0  0  0  0  0  0  0
   47.0810   34.4580   42.2860 C   0  0  0  0  0  0  0  0  0  0  0  0
   48.1770   35.2680   42.0720 C   0  0  0  0  0  0  0  0  0  0  0  0
   48.5320   35.1450   40.7410 C   0  0  0  0  0  0  0  0  0  0  0  0
   47.6080   34.2430   40.2050 C   0  0  0  0  0  0  0  0  0  0  0  0
   46.7910   33.8780   41.1450 O   0  0  0  0  0  0  0  0  0  0  0  0
   48.6493   30.9132   44.9214 H   0  0  0  0  0  0  0  0  0  0  0  0
   48.5952   28.5163   44.3781 H   0  0  0  0  0  0  0  0  0  0  0  0
   46.8840   27.0132   45.3949 H   0  0  0  0  0  0  0  0  0  0  0  0
   43.5596   27.3779   45.4538 H   0  0  0  0  0  0  0  0  0  0  0  0
   42.3515   25.6586   47.1307 H   0  0  0  0  0  0  0  0  0  0  0  0
   43.9041   25.7049   49.3467 H   0  0  0  0  0  0  0  0  0  0  0  0
   43.9876   35.4242   45.6093 H   0  0  0  0  0  0  0  0  0  0  0  0
   44.8961   35.8590   43.3048 H   0  0  0  0  0  0  0  0  0  0  0  0
   48.6773   35.8970   42.8230 H   0  0  0  0  0  0  0  0  0  0  0  0
   49.3598   35.6468   40.2186 H   0  0  0  0  0  0  0  0  0  0  0  0
   47.5784   33.8998   39.1603 H   0  0  0  0  0  0  0  0  0  0  0  0
  2  1  1  0
  3 13  1  0
  3  2  2  0
  4  3  1  0
  5  4  2  0
  5  6  1  0
  6  7  2  0
  7  2  1  0
  7  8  1  0
  8 12  1  0
  9  8  2  0
  9 10  1  0
 10 11  2  0
 12 11  1  0
 13 14  2  0
 15 20  2  0
 16 15  1  0
 17 16  2  0
 17 18  1  0
 18 19  2  0
 19 20  1  0
 19 13  1  0
 21 17  1  0
 22 21  2  0
 23 22  1  0
 24 23  2  0
 24 25  1  0
 25 21  1  0
  4 26  1  0
  5 27  1  0
  6 28  1  0
  9 29  1  0
 10 30  1  0
 11 31  1  0
 15 32  1  0
 16 33  1  0
 22 34  1  0
 23 35  1  0
 24 36  1  0
M  ISO  8  26  14  27  14  28  14  29  14  30  14  31  14  32  14  33  14
M  ISO  3  34  14  35  14  36  14
M  END
>  <minimizedAffinity>  (1) 
-6.01742649

>  <minimizedRMSD>  (1) 
0.287437946

$$$$
