
     RDKit          3D

 35 37  0  0  0  0  0  0  0  0999 V2000
   44.8860   30.6930   47.9230 Cl  0  0  0  0  0  0  0  0  0  0  0  0
   45.9920   30.1280   46.6640 C   0  0  0  0  0  0  0  0  0  0  0  0
   46.8730   31.0050   46.0810 C   0  0  0  0  0  0  0  0  0  0  0  0
   47.7100   30.5180   45.1250 C   0  0  0  0  0  0  0  0  0  0  0  0
   47.6740   29.1910   44.7560 C   0  0  0  0  0  0  0  0  0  0  0  0
   46.7770   28.3140   45.3520 C   0  0  0  0  0  0  0  0  0  0  0  0
   45.9170   28.8170   46.3340 C   0  0  0  0  0  0  0  0  0  0  0  0
   45.0190   27.8040   46.8820 C   0  0  0  0  0  0  0  0  0  0  0  0
   43.8730   27.2510   46.3340 C   0  0  0  0  0  0  0  0  0  0  0  0
   43.3040   26.3170   47.1750 C   0  0  0  0  0  0  0  0  0  0  0  0
   44.1760   26.3470   48.2490 C   0  0  0  0  0  0  0  0  0  0  0  0
   45.1190   27.2000   48.0290 O   0  0  0  0  0  0  0  0  0  0  0  0
   46.8600   32.4000   46.5070 C   0  0  0  0  0  0  0  0  0  0  0  0
   47.3750   32.6760   47.6120 O   0  0  0  0  0  0  0  0  0  0  0  0
   44.6750   35.0890   45.4080 C   0  0  0  0  0  0  0  0  0  0  0  0
   45.0520   35.3740   44.0990 C   0  0  0  0  0  0  0  0  0  0  0  0
   46.0890   34.6070   43.6010 C   0  0  0  0  0  0  0  0  0  0  0  0
   46.6570   33.6490   44.4100 N   0  0  0  0  0  0  0  0  0  0  0  0
   46.2610   33.4160   45.6500 C   0  0  0  0  0  0  0  0  0  0  0  0
   45.2570   34.1530   46.1390 N   0  0  0  0  0  0  0  0  0  0  0  0
   46.6580   34.7330   42.2380 C   0  0  0  0  0  0  0  0  0  0  0  0
   48.1510   34.9030   42.2370 C   0  0  0  0  0  0  0  0  0  0  0  0
   48.4275   31.1952   44.6386 H   0  0  0  0  0  0  0  0  0  0  0  0
   48.3627   28.8224   43.9815 H   0  0  0  0  0  0  0  0  0  0  0  0
   46.7438   27.2539   45.0601 H   0  0  0  0  0  0  0  0  0  0  0  0
   43.4665   27.5233   45.3488 H   0  0  0  0  0  0  0  0  0  0  0  0
   42.3981   25.7100   47.0303 H   0  0  0  0  0  0  0  0  0  0  0  0
   44.0795   25.7337   49.1571 H   0  0  0  0  0  0  0  0  0  0  0  0
   43.8547   35.6693   45.8555 H   0  0  0  0  0  0  0  0  0  0  0  0
   44.5591   36.1554   43.5019 H   0  0  0  0  0  0  0  0  0  0  0  0
   46.4084   33.8253   41.6690 H   0  0  0  0  0  0  0  0  0  0  0  0
   46.2243   35.6358   41.7832 H   0  0  0  0  0  0  0  0  0  0  0  0
   48.5160   34.9446   43.2738 H   0  0  0  0  0  0  0  0  0  0  0  0
   48.6166   34.0521   41.7182 H   0  0  0  0  0  0  0  0  0  0  0  0
   48.4134   35.8368   41.7182 H   0  0  0  0  0  0  0  0  0  0  0  0
  2  1  1  0
  3 13  1  0
  3  2  2  0
  4  3  1  0
  5  4  2  0
  5  6  1  0
  6  7  2  0
  7  2  1  0
  7  8  1  0
  8 12  1  0
  9  8  2  0
  9 10  1  0
 10 11  2  0
 12 11  1  0
 13 14  2  0
 15 20  2  0
 16 15  1  0
 17 16  2  0
 17 18  1  0
 18 19  2  0
 19 20  1  0
 19 13  1  0
 21 17  1  0
 22 21  1  0
  4 23  1  0
  5 24  1  0
  6 25  1  0
  9 26  1  0
 10 27  1  0
 11 28  1  0
 15 29  1  0
 16 30  1  0
 21 31  1  0
 21 32  1  0
 22 33  1  0
 22 34  1  0
 22 35  1  0
M  ISO  8  23  14  24  14  25  14  26  14  27  14  28  14  29  14  30  14
M  ISO  5  31   8  32   8  33   8  34   8  35   8
M  END
>  <minimizedAffinity>  (1) 
-5.17027283

>  <minimizedRMSD>  (1) 
0.623562872

$$$$
