
     RDKit          3D

 31 33  0  0  0  0  0  0  0  0999 V2000
   44.8250   30.5930   47.9850 Cl  0  0  0  0  0  0  0  0  0  0  0  0
   46.0550   29.9550   46.8860 C   0  0  0  0  0  0  0  0  0  0  0  0
   47.0070   30.7950   46.3640 C   0  0  0  0  0  0  0  0  0  0  0  0
   47.9360   30.2540   45.5280 C   0  0  0  0  0  0  0  0  0  0  0  0
   47.9180   28.9140   45.2180 C   0  0  0  0  0  0  0  0  0  0  0  0
   46.9540   28.0730   45.7480 C   0  0  0  0  0  0  0  0  0  0  0  0
   46.0140   28.6200   46.5960 C   0  0  0  0  0  0  0  0  0  0  0  0
   45.0380   27.6510   47.1000 C   0  0  0  0  0  0  0  0  0  0  0  0
   43.9140   27.1250   46.4830 C   0  0  0  0  0  0  0  0  0  0  0  0
   43.2500   26.2350   47.2930 C   0  0  0  0  0  0  0  0  0  0  0  0
   44.0340   26.2490   48.4350 C   0  0  0  0  0  0  0  0  0  0  0  0
   45.0240   27.0660   48.2640 O   0  0  0  0  0  0  0  0  0  0  0  0
   46.9730   32.2100   46.7240 C   0  0  0  0  0  0  0  0  0  0  0  0
   47.4280   32.5370   47.8420 O   0  0  0  0  0  0  0  0  0  0  0  0
   44.8390   34.8280   45.3940 C   0  0  0  0  0  0  0  0  0  0  0  0
   45.2920   35.0640   44.0880 C   0  0  0  0  0  0  0  0  0  0  0  0
   46.3620   34.2820   43.6910 C   0  0  0  0  0  0  0  0  0  0  0  0
   46.8890   33.3630   44.5660 N   0  0  0  0  0  0  0  0  0  0  0  0
   46.4190   33.1820   45.7900 C   0  0  0  0  0  0  0  0  0  0  0  0
   45.3800   33.9320   46.1970 N   0  0  0  0  0  0  0  0  0  0  0  0
   46.9690   34.3640   42.4130 N   0  0  0  0  0  0  0  0  0  0  0  0
   48.7137   30.8993   45.0935 H   0  0  0  0  0  0  0  0  0  0  0  0
   48.6805   28.5045   44.5391 H   0  0  0  0  0  0  0  0  0  0  0  0
   46.9385   27.0014   45.5002 H   0  0  0  0  0  0  0  0  0  0  0  0
   43.5913   27.3887   45.4650 H   0  0  0  0  0  0  0  0  0  0  0  0
   42.3343   25.6610   47.0878 H   0  0  0  0  0  0  0  0  0  0  0  0
   43.8453   25.6590   49.3440 H   0  0  0  0  0  0  0  0  0  0  0  0
   43.9902   35.4196   45.7675 H   0  0  0  0  0  0  0  0  0  0  0  0
   44.8312   35.8144   43.4288 H   0  0  0  0  0  0  0  0  0  0  0  0
   47.7640   33.7519   42.1802 H   0  0  0  0  0  0  0  0  0  0  0  0
   46.6151   35.0357   41.7169 H   0  0  0  0  0  0  0  0  0  0  0  0
  2  1  1  0
  3 13  1  0
  3  2  2  0
  4  3  1  0
  5  4  2  0
  5  6  1  0
  6  7  2  0
  7  2  1  0
  7  8  1  0
  8 12  1  0
  9  8  2  0
  9 10  1  0
 10 11  2  0
 12 11  1  0
 13 14  2  0
 15 20  2  0
 16 15  1  0
 17 16  2  0
 17 18  1  0
 18 19  2  0
 19 20  1  0
 19 13  1  0
 21 17  1  0
  4 22  1  0
  5 23  1  0
  6 24  1  0
  9 25  1  0
 10 26  1  0
 11 27  1  0
 15 28  1  0
 16 29  1  0
 21 30  1  0
 21 31  1  0
M  ISO  8  22  14  23  14  24  14  25  14  26  14  27  14  28  14  29  14
M  END
>  <minimizedAffinity>  (1) 
-4.88547659

>  <minimizedRMSD>  (1) 
0.0922866836

$$$$
