
     RDKit          3D

 29 30  0  0  1  0  0  0  0  0999 V2000
   47.0520   31.1680   45.8910 C   0  0  0  0  0  0  0  0  0  0  0  0
   45.9750   31.3130   49.0100 C   0  0  2  0  0  0  0  0  0  0  0  0
   46.0320   32.2470   47.8220 C   0  0  0  0  0  0  0  0  0  0  0  0
   45.7650   31.3440   46.6710 C   0  0  2  0  0  0  0  0  0  0  0  0
   45.3930   30.0950   47.1210 O   0  0  0  0  0  0  0  0  0  0  0  0
   45.1120   30.2000   48.4750 C   0  0  0  0  0  0  0  0  0  0  0  0
   45.3150   31.9090   50.1060 O   0  0  0  0  0  0  0  0  0  0  0  0
   47.8120   31.9630   43.7290 C   0  0  0  0  0  0  0  0  0  0  0  0
   47.1960   32.2290   44.8450 C   0  0  0  0  0  0  0  0  0  0  0  0
   47.9220   35.2250   42.0240 C   0  0  0  0  0  0  0  0  0  0  0  0
   48.2430   34.8650   40.6990 C   0  0  0  0  0  0  0  0  0  0  0  0
   48.4090   33.5130   40.4480 C   0  0  0  0  0  0  0  0  0  0  0  0
   48.2590   32.6200   41.4590 N   0  0  0  0  0  0  0  0  0  0  0  0
   47.9510   32.9970   42.7150 C   0  0  0  0  0  0  0  0  0  0  0  0
   47.7870   34.2860   42.9840 N   0  0  0  0  0  0  0  0  0  0  0  0
   47.9038   31.2288   46.5844 H   0  0  0  0  0  0  0  0  0  0  0  0
   47.0284   30.1871   45.3936 H   0  0  0  0  0  0  0  0  0  0  0  0
   46.9701   31.0142   49.3714 H   0  0  0  0  0  0  0  0  0  0  0  0
   45.2623   33.0292   47.8972 H   0  0  0  0  0  0  0  0  0  0  0  0
   46.9889   32.7831   47.7385 H   0  0  0  0  0  0  0  0  0  0  0  0
   44.9656   31.7808   46.0544 H   0  0  0  0  0  0  0  0  0  0  0  0
   44.0488   30.4392   48.6243 H   0  0  0  0  0  0  0  0  0  0  0  0
   45.3174   29.2537   48.9968 H   0  0  0  0  0  0  0  0  0  0  0  0
   45.6986   31.5626   50.9504 H   0  0  0  0  0  0  0  0  0  0  0  0
   48.2262   30.9592   43.5534 H   0  0  0  0  0  0  0  0  0  0  0  0
   46.7816   33.2330   45.0190 H   0  0  0  0  0  0  0  0  0  0  0  0
   47.7797   36.2856   42.2787 H   0  0  0  0  0  0  0  0  0  0  0  0
   48.3557   35.6188   39.9058 H   0  0  0  0  0  0  0  0  0  0  0  0
   48.6609   33.1651   39.4353 H   0  0  0  0  0  0  0  0  0  0  0  0
  2  7  1  0
  3  2  1  0
  4  1  1  0
  4  5  1  0
  4  3  1  0
  5  6  1  0
  6  2  1  0
  8  9  2  0
  9  1  1  0
 10 15  2  0
 11 10  1  0
 12 11  2  0
 12 13  1  0
 13 14  2  0
 14 15  1  0
 14  8  1  0
  1 16  1  0
  1 17  1  0
  2 18  1  1
  3 19  1  0
  3 20  1  0
  4 21  1  6
  6 22  1  0
  6 23  1  0
  7 24  1  0
  8 25  1  0
  9 26  1  0
 10 27  1  0
 11 28  1  0
 12 29  1  0
M  ISO  8  16   8  17   8  18  13  19  13  20  13  21  13  22  13  23  13
M  ISO  4  24   3  27  14  28  14  29  14
M  END
>  <minimizedAffinity>  (1) 
-4.25131321

>  <minimizedRMSD>  (1) 
3.49923658

$$$$
