
     RDKit          3D

 32 33  0  0  1  0  0  0  0  0999 V2000
   46.5030   30.6910   47.4980 C   0  0  2  0  0  0  0  0  0  0  0  0
   45.0880   30.3620   47.9480 C   0  0  0  0  0  0  0  0  0  0  0  0
   45.2960   30.7400   49.4290 C   0  0  0  0  0  0  0  0  0  0  0  0
   45.9370   31.9530   49.3650 O   0  0  0  0  0  0  0  0  0  0  0  0
   46.6890   31.9820   48.1940 C   0  0  1  0  0  0  0  0  0  0  0  0
   49.0100   31.4910   49.2460 C   0  0  0  0  0  0  0  0  0  0  0  0
   48.6600   30.3820   49.7220 O   0  0  0  0  0  0  0  0  0  0  0  0
   48.0790   32.2730   48.5100 N   0  0  0  0  0  0  0  0  0  0  0  0
   46.6570   30.7350   46.0210 C   0  0  0  0  0  0  0  0  0  0  0  0
   46.7580   32.9520   44.9900 C   0  0  0  0  0  0  0  0  0  0  0  0
   46.0380   31.9180   45.3860 C   0  0  0  0  0  0  0  0  0  0  0  0
   44.5430   35.7930   44.2730 C   0  0  0  0  0  0  0  0  0  0  0  0
   45.0190   36.2160   43.0050 C   0  0  0  0  0  0  0  0  0  0  0  0
   46.0820   35.5020   42.4560 C   0  0  0  0  0  0  0  0  0  0  0  0
   46.5970   34.4570   43.1500 N   0  0  0  0  0  0  0  0  0  0  0  0
   46.1010   34.0910   44.3670 C   0  0  0  0  0  0  0  0  0  0  0  0
   45.0970   34.7450   44.9140 N   0  0  0  0  0  0  0  0  0  0  0  0
   47.2685   29.9412   47.7465 H   0  0  0  0  0  0  0  0  0  0  0  0
   44.3291   30.9858   47.4530 H   0  0  0  0  0  0  0  0  0  0  0  0
   44.7179   29.3479   47.7368 H   0  0  0  0  0  0  0  0  0  0  0  0
   44.3317   30.8322   49.9501 H   0  0  0  0  0  0  0  0  0  0  0  0
   45.8668   29.9835   49.9874 H   0  0  0  0  0  0  0  0  0  0  0  0
   46.3555   32.7820   47.5166 H   0  0  0  0  0  0  0  0  0  0  0  0
   50.0362   31.8563   49.3988 H   0  0  0  0  0  0  0  0  0  0  0  0
   48.4378   33.1692   48.1509 H   0  0  0  0  0  0  0  0  0  0  0  0
   47.7315   30.7387   45.7854 H   0  0  0  0  0  0  0  0  0  0  0  0
   46.1381   29.8515   45.6208 H   0  0  0  0  0  0  0  0  0  0  0  0
   47.8490   32.9521   45.1305 H   0  0  0  0  0  0  0  0  0  0  0  0
   44.9480   31.9375   45.2394 H   0  0  0  0  0  0  0  0  0  0  0  0
   43.7057   36.3308   44.7418 H   0  0  0  0  0  0  0  0  0  0  0  0
   44.5685   37.0703   42.4785 H   0  0  0  0  0  0  0  0  0  0  0  0
   46.4965   35.7813   41.4761 H   0  0  0  0  0  0  0  0  0  0  0  0
  1  2  1  0
  1  5  1  0
  2  3  1  0
  4  3  1  0
  5  8  1  0
  5  4  1  0
  6  7  2  0
  8  6  1  0
  9  1  1  0
 10 11  2  0
 11  9  1  0
 12 17  2  0
 13 12  1  0
 14 13  2  0
 14 15  1  0
 15 16  2  0
 16 17  1  0
 16 10  1  0
  1 18  1  1
  2 19  1  0
  2 20  1  0
  3 21  1  0
  3 22  1  0
  5 23  1  6
  6 24  1  0
  8 25  1  0
  9 26  1  0
  9 27  1  0
 10 28  1  0
 11 29  1  0
 12 30  1  0
 13 31  1  0
 14 32  1  0
M  ISO  8  18  13  19  13  20  13  21  13  22  13  23  13  24   6  26   8
M  ISO  4  27   8  30  14  31  14  32  14
M  END
>  <minimizedAffinity>  (1) 
-4.7805109

>  <minimizedRMSD>  (1) 
2.03061295

$$$$
