
     RDKit          3D

 29 30  0  0  1  0  0  0  0  0999 V2000
   46.1830   30.8140   45.8230 C   0  0  0  0  0  0  0  0  0  0  0  0
   46.2420   31.0570   47.2890 C   0  0  2  0  0  0  0  0  0  0  0  0
   45.0010   30.5790   48.0380 C   0  0  0  0  0  0  0  0  0  0  0  0
   45.3360   31.2950   49.3600 C   0  0  0  0  0  0  0  0  0  0  0  0
   45.7590   32.5470   48.9850 O   0  0  0  0  0  0  0  0  0  0  0  0
   46.1860   32.5010   47.6850 C   0  0  1  0  0  0  0  0  0  0  0  0
   47.3470   33.2020   47.4440 O   0  0  0  0  0  0  0  0  0  0  0  0
   47.4350   32.0150   44.0920 C   0  0  0  0  0  0  0  0  0  0  0  0
   46.4970   32.0110   45.0070 C   0  0  0  0  0  0  0  0  0  0  0  0
   47.0640   35.1480   42.2450 C   0  0  0  0  0  0  0  0  0  0  0  0
   48.3970   35.4130   41.8310 C   0  0  0  0  0  0  0  0  0  0  0  0
   49.3770   34.4940   42.2080 C   0  0  0  0  0  0  0  0  0  0  0  0
   49.0230   33.3970   42.9460 N   0  0  0  0  0  0  0  0  0  0  0  0
   47.7170   33.2010   43.3140 C   0  0  0  0  0  0  0  0  0  0  0  0
   46.7490   34.0540   42.9750 N   0  0  0  0  0  0  0  0  0  0  0  0
   46.9061   30.0237   45.5727 H   0  0  0  0  0  0  0  0  0  0  0  0
   45.1479   30.5264   45.5864 H   0  0  0  0  0  0  0  0  0  0  0  0
   47.1829   30.5421   47.5329 H   0  0  0  0  0  0  0  0  0  0  0  0
   44.0650   30.9371   47.5845 H   0  0  0  0  0  0  0  0  0  0  0  0
   44.8244   29.4942   48.0820 H   0  0  0  0  0  0  0  0  0  0  0  0
   44.4442   31.3632   50.0003 H   0  0  0  0  0  0  0  0  0  0  0  0
   46.0988   30.7565   49.9415 H   0  0  0  0  0  0  0  0  0  0  0  0
   45.4693   33.0322   47.0415 H   0  0  0  0  0  0  0  0  0  0  0  0
   47.7649   33.4543   48.3052 H   0  0  0  0  0  0  0  0  0  0  0  0
   48.0184   31.0999   43.9125 H   0  0  0  0  0  0  0  0  0  0  0  0
   45.9200   32.9321   45.1762 H   0  0  0  0  0  0  0  0  0  0  0  0
   46.2666   35.8517   41.9642 H   0  0  0  0  0  0  0  0  0  0  0  0
   48.6461   36.3054   41.2380 H   0  0  0  0  0  0  0  0  0  0  0  0
   50.4256   34.6499   41.9145 H   0  0  0  0  0  0  0  0  0  0  0  0
  1  2  1  0
  2  6  1  0
  2  3  1  0
  3  4  1  0
  5  4  1  0
  6  5  1  0
  7  6  1  0
  8  9  2  0
  9  1  1  0
 10 15  2  0
 11 12  2  0
 11 10  1  0
 12 13  1  0
 13 14  2  0
 14  8  1  0
 15 14  1  0
  1 16  1  0
  1 17  1  0
  2 18  1  1
  3 19  1  0
  3 20  1  0
  4 21  1  0
  4 22  1  0
  6 23  1  6
  7 24  1  0
  8 25  1  0
  9 26  1  0
 10 27  1  0
 11 28  1  0
 12 29  1  0
M  ISO  8  16   8  17   8  18  13  19  13  20  13  21  13  22  13  23  13
M  ISO  4  24   3  27  14  28  14  29  14
M  END
>  <minimizedAffinity>  (1) 
-4.66950798

>  <minimizedRMSD>  (1) 
0.0716325119

$$$$
