
     RDKit          3D

 44 46  0  0  1  0  0  0  0  0999 V2000
   46.0030   30.5710   47.3520 C   0  0  2  0  0  0  0  0  0  0  0  0
   44.8200   31.2520   48.0610 C   0  0  0  0  0  0  0  0  0  0  0  0
   45.5020   31.3810   49.4190 C   0  0  0  0  0  0  0  0  0  0  0  0
   46.7800   31.8080   49.1240 O   0  0  0  0  0  0  0  0  0  0  0  0
   47.0760   31.4740   47.8230 C   0  0  1  0  0  0  0  0  0  0  0  0
   48.4640   30.8700   47.8250 C   0  0  0  0  0  0  0  0  0  0  0  0
   48.3170   29.3800   48.0160 C   0  0  0  0  0  0  0  0  0  0  0  0
   49.6080   28.7110   48.4640 C   0  0  0  0  0  0  0  0  0  0  0  0
   50.1090   29.2870   49.7500 C   0  0  0  0  0  0  0  0  0  0  0  0
   49.2160   30.4350   50.1530 C   0  0  0  0  0  0  0  0  0  0  0  0
   49.2470   31.4210   49.0000 C   0  0  0  0  0  0  0  0  0  0  0  0
   45.8080   30.5390   45.8620 C   0  0  0  0  0  0  0  0  0  0  0  0
   47.2360   31.4250   44.0900 C   0  0  0  0  0  0  0  0  0  0  0  0
   46.5340   31.6290   45.1640 C   0  0  0  0  0  0  0  0  0  0  0  0
   48.1300   34.7380   42.8070 C   0  0  0  0  0  0  0  0  0  0  0  0
   49.3670   34.4870   42.1470 C   0  0  0  0  0  0  0  0  0  0  0  0
   49.8500   33.1620   42.1730 C   0  0  0  0  0  0  0  0  0  0  0  0
   49.1190   32.2070   42.8170 N   0  0  0  0  0  0  0  0  0  0  0  0
   47.9350   32.5190   43.4330 C   0  0  0  0  0  0  0  0  0  0  0  0
   47.4480   33.7440   43.4320 N   0  0  0  0  0  0  0  0  0  0  0  0
   46.1818   29.5078   47.5704 H   0  0  0  0  0  0  0  0  0  0  0  0
   44.5638   32.2265   47.6197 H   0  0  0  0  0  0  0  0  0  0  0  0
   43.8511   30.7320   48.0331 H   0  0  0  0  0  0  0  0  0  0  0  0
   44.9810   32.1183   50.0474 H   0  0  0  0  0  0  0  0  0  0  0  0
   45.4960   30.4359   49.9817 H   0  0  0  0  0  0  0  0  0  0  0  0
   47.1021   32.3242   47.1255 H   0  0  0  0  0  0  0  0  0  0  0  0
   48.9839   31.1046   46.8844 H   0  0  0  0  0  0  0  0  0  0  0  0
   47.5446   29.1982   48.7778 H   0  0  0  0  0  0  0  0  0  0  0  0
   48.0413   28.9477   47.0428 H   0  0  0  0  0  0  0  0  0  0  0  0
   49.4233   27.6355   48.6025 H   0  0  0  0  0  0  0  0  0  0  0  0
   50.3707   28.8821   47.6901 H   0  0  0  0  0  0  0  0  0  0  0  0
   50.0919   28.5138   50.5322 H   0  0  0  0  0  0  0  0  0  0  0  0
   51.1408   29.6455   49.6205 H   0  0  0  0  0  0  0  0  0  0  0  0
   48.1893   30.0782   50.3220 H   0  0  0  0  0  0  0  0  0  0  0  0
   49.5600   30.9011   51.0881 H   0  0  0  0  0  0  0  0  0  0  0  0
   50.2899   31.5918   48.6947 H   0  0  0  0  0  0  0  0  0  0  0  0
   48.7928   32.3691   49.3236 H   0  0  0  0  0  0  0  0  0  0  0  0
   46.1720   29.5736   45.4805 H   0  0  0  0  0  0  0  0  0  0  0  0
   44.7345   30.6767   45.6652 H   0  0  0  0  0  0  0  0  0  0  0  0
   47.3029   30.4101   43.6711 H   0  0  0  0  0  0  0  0  0  0  0  0
   46.4755   32.6490   45.5717 H   0  0  0  0  0  0  0  0  0  0  0  0
   47.7187   35.7582   42.8105 H   0  0  0  0  0  0  0  0  0  0  0  0
   49.9209   35.2906   41.6397 H   0  0  0  0  0  0  0  0  0  0  0  0
   50.7999   32.9031   41.6824 H   0  0  0  0  0  0  0  0  0  0  0  0
  1  5  1  0
  1  2  1  0
  2  3  1  0
  4  3  1  0
  5  6  1  0
  5  4  1  0
  6  7  1  0
  6 11  1  0
  7  8  1  0
  8  9  1  0
  9 10  1  0
 11 10  1  0
 12  1  1  0
 13 14  2  0
 14 12  1  0
 15 20  2  0
 16 17  2  0
 16 15  1  0
 17 18  1  0
 18 19  2  0
 19 13  1  0
 20 19  1  0
  1 21  1  1
  2 22  1  0
  2 23  1  0
  3 24  1  0
  3 25  1  0
  5 26  1  6
  6 27  1  0
  7 28  1  0
  7 29  1  0
  8 30  1  0
  8 31  1  0
  9 32  1  0
  9 33  1  0
 10 34  1  0
 10 35  1  0
 11 36  1  0
 11 37  1  0
 12 38  1  0
 12 39  1  0
 13 40  1  0
 14 41  1  0
 15 42  1  0
 16 43  1  0
 17 44  1  0
M  ISO  8  21  13  22  13  23  13  24  13  25  13  26  13  27  13  28  13
M  ISO  8  29  13  30  13  31  13  32  13  33  13  34  13  35  13  36  13
M  ISO  6  37  13  38   8  39   8  42  14  43  14  44  14
M  END
>  <minimizedAffinity>  (1) 
-4.38695431

>  <minimizedRMSD>  (1) 
2.47579932

$$$$
