
     RDKit          3D

 49 52  0  0  1  0  0  0  0  0999 V2000
   46.0520   30.5140   47.4400 C   0  0  2  0  0  0  0  0  0  0  0  0
   44.8180   31.1940   48.0060 C   0  0  0  0  0  0  0  0  0  0  0  0
   45.4540   31.6970   49.2980 C   0  0  0  0  0  0  0  0  0  0  0  0
   46.7030   32.1410   48.9340 O   0  0  0  0  0  0  0  0  0  0  0  0
   47.0840   31.5290   47.7680 C   0  0  1  0  0  0  0  0  0  0  0  0
   48.4290   30.8910   47.9710 C   0  0  1  0  0  0  0  0  0  0  0  0
   49.0870   31.4000   49.2510 C   0  0  0  0  0  0  0  0  0  0  0  0
   49.6640   30.1350   49.8240 C   0  0  0  0  0  0  0  0  0  0  0  0
   49.5810   29.1690   48.8110 O   0  0  0  0  0  0  0  0  0  0  0  0
   48.3040   29.4120   48.2980 C   0  0  0  0  0  0  0  0  0  0  0  0
   45.9260   30.2010   45.9820 C   0  0  0  0  0  0  0  0  0  0  0  0
   46.0470   31.8380   44.1680 C   0  0  0  0  0  0  0  0  0  0  0  0
   46.6420   31.1590   45.1180 C   0  0  0  0  0  0  0  0  0  0  0  0
   47.0600   34.8940   42.4540 C   0  0  0  0  0  0  0  0  0  0  0  0
   48.2120   34.4630   41.7170 C   0  0  0  0  0  0  0  0  0  0  0  0
   48.5750   33.1260   41.8580 C   0  0  0  0  0  0  0  0  0  0  0  0
   47.8470   32.2960   42.6660 N   0  0  0  0  0  0  0  0  0  0  0  0
   46.7660   32.7640   43.3380 C   0  0  0  0  0  0  0  0  0  0  0  0
   46.3750   34.0310   43.2380 N   0  0  0  0  0  0  0  0  0  0  0  0
   49.7060   32.5940   41.1690 N   0  0  0  0  0  0  0  0  0  0  0  0
   49.4890   31.9490   39.9890 C   0  0  0  0  0  0  0  0  0  0  0  0
   50.5520   31.4220   39.2950 C   0  0  0  0  0  0  0  0  0  0  0  0
   51.7880   31.6010   39.8790 C   0  0  0  0  0  0  0  0  0  0  0  0
   52.7930   31.1310   39.2720 O   0  0  0  0  0  0  0  0  0  0  0  0
   52.0360   32.2320   41.0400 N   0  0  0  0  0  0  0  0  0  0  0  0
   50.9620   32.7300   41.6820 C   0  0  0  0  0  0  0  0  0  0  0  0
   51.0490   33.3390   42.7710 O   0  0  0  0  0  0  0  0  0  0  0  0
   46.2698   29.5172   47.8511 H   0  0  0  0  0  0  0  0  0  0  0  0
   44.4599   32.0145   47.3668 H   0  0  0  0  0  0  0  0  0  0  0  0
   43.9187   30.5695   48.1123 H   0  0  0  0  0  0  0  0  0  0  0  0
   44.8614   32.5193   49.7254 H   0  0  0  0  0  0  0  0  0  0  0  0
   45.5040   30.9108   50.0657 H   0  0  0  0  0  0  0  0  0  0  0  0
   47.1686   32.2469   46.9389 H   0  0  0  0  0  0  0  0  0  0  0  0
   48.9804   31.1080   47.0442 H   0  0  0  0  0  0  0  0  0  0  0  0
   49.8745   32.1359   49.0313 H   0  0  0  0  0  0  0  0  0  0  0  0
   48.3965   31.9222   49.9297 H   0  0  0  0  0  0  0  0  0  0  0  0
   50.7131   30.2927   50.1146 H   0  0  0  0  0  0  0  0  0  0  0  0
   49.1163   29.8181   50.7238 H   0  0  0  0  0  0  0  0  0  0  0  0
   47.5205   29.2241   49.0469 H   0  0  0  0  0  0  0  0  0  0  0  0
   48.0153   28.7726   47.4507 H   0  0  0  0  0  0  0  0  0  0  0  0
   46.3353   29.1957   45.8036 H   0  0  0  0  0  0  0  0  0  0  0  0
   44.8582   30.2639   45.7252 H   0  0  0  0  0  0  0  0  0  0  0  0
   44.9690   31.6951   44.0019 H   0  0  0  0  0  0  0  0  0  0  0  0
   47.7199   31.3096   45.2778 H   0  0  0  0  0  0  0  0  0  0  0  0
   46.7291   35.9405   42.3807 H   0  0  0  0  0  0  0  0  0  0  0  0
   48.7792   35.1522   41.0741 H   0  0  0  0  0  0  0  0  0  0  0  0
   48.4674   31.8503   39.5932 H   0  0  0  0  0  0  0  0  0  0  0  0
   50.4252   30.8934   38.3387 H   0  0  0  0  0  0  0  0  0  0  0  0
   52.9901   32.3287   41.4158 H   0  0  0  0  0  0  0  0  0  0  0  0
  1  5  1  0
  1  2  1  0
  2  3  1  0
  4  3  1  0
  5  6  1  0
  5  4  1  0
  6 10  1  0
  6  7  1  0
  7  8  1  0
  9  8  1  0
 10  9  1  0
 11  1  1  0
 12 13  2  0
 13 11  1  0
 14 19  2  0
 15 16  2  0
 15 14  1  0
 16 17  1  0
 17 18  2  0
 18 12  1  0
 19 18  1  0
 20 26  1  0
 20 16  1  0
 21 20  1  0
 22 23  1  0
 22 21  2  0
 23 25  1  0
 24 23  2  0
 25 26  1  0
 26 27  2  0
  1 28  1  1
  2 29  1  0
  2 30  1  0
  3 31  1  0
  3 32  1  0
  5 33  1  6
  6 34  1  6
  7 35  1  0
  7 36  1  0
  8 37  1  0
  8 38  1  0
 10 39  1  0
 10 40  1  0
 11 41  1  0
 11 42  1  0
 12 43  1  0
 13 44  1  0
 14 45  1  0
 15 46  1  0
 21 47  1  0
 22 48  1  0
 25 49  1  0
M  ISO  8  28  13  29  13  30  13  31  13  32  13  33  13  34  13  35  13
M  ISO  8  36  13  37  13  38  13  39  13  40  13  41   8  42   8  45  14
M  ISO  4  46  14  47  14  48  14  49   9
M  END
>  <minimizedAffinity>  (1) 
-5.60337639

>  <minimizedRMSD>  (1) 
1.98810208

$$$$
