
     RDKit          3D

 50 54  0  0  1  0  0  0  0  0999 V2000
   46.0030   30.2700   45.9790 C   0  0  0  0  0  0  0  0  0  0  0  0
   46.0930   30.4160   47.4610 C   0  0  2  0  0  0  0  0  0  0  0  0
   44.8100   30.9520   48.0720 C   0  0  0  0  0  0  0  0  0  0  0  0
   45.3940   31.3540   49.4280 C   0  0  0  0  0  0  0  0  0  0  0  0
   46.6050   31.9170   49.1300 O   0  0  0  0  0  0  0  0  0  0  0  0
   47.0510   31.4580   47.9150 C   0  0  1  0  0  0  0  0  0  0  0  0
   48.4300   30.9040   48.0780 C   0  0  1  0  0  0  0  0  0  0  0  0
   49.0700   31.3920   49.3730 C   0  0  0  0  0  0  0  0  0  0  0  0
   49.7400   30.1460   49.8780 C   0  0  0  0  0  0  0  0  0  0  0  0
   49.7070   29.2250   48.8200 O   0  0  0  0  0  0  0  0  0  0  0  0
   48.4040   29.4040   48.3380 C   0  0  0  0  0  0  0  0  0  0  0  0
   47.1540   31.1000   43.9910 C   0  0  0  0  0  0  0  0  0  0  0  0
   46.8050   31.2630   45.2280 C   0  0  0  0  0  0  0  0  0  0  0  0
   48.5050   34.2990   42.8700 C   0  0  0  0  0  0  0  0  0  0  0  0
   49.4650   33.8940   41.8880 C   0  0  0  0  0  0  0  0  0  0  0  0
   49.5920   32.5270   41.6660 C   0  0  0  0  0  0  0  0  0  0  0  0
   48.8360   31.6490   42.3560 N   0  0  0  0  0  0  0  0  0  0  0  0
   47.9300   32.0750   43.2880 C   0  0  0  0  0  0  0  0  0  0  0  0
   47.7690   33.3830   43.5390 N   0  0  0  0  0  0  0  0  0  0  0  0
   50.5300   32.0620   40.7010 N   0  0  0  0  0  0  0  0  0  0  0  0
   51.8080   31.7270   40.9360 C   0  0  0  0  0  0  0  0  0  0  0  0
   52.3960   31.3320   39.7920 N   0  0  0  0  0  0  0  0  0  0  0  0
   51.4730   31.4160   38.7930 C   0  0  0  0  0  0  0  0  0  0  0  0
   51.6030   31.1200   37.4490 C   0  0  0  0  0  0  0  0  0  0  0  0
   50.4990   31.2990   36.6680 N   0  0  0  0  0  0  0  0  0  0  0  0
   49.3600   31.7530   37.2670 C   0  0  0  0  0  0  0  0  0  0  0  0
   49.2220   32.0460   38.5800 N   0  0  0  0  0  0  0  0  0  0  0  0
   50.2950   31.8820   39.3890 C   0  0  0  0  0  0  0  0  0  0  0  0
   46.3557   29.2639   45.7081 H   0  0  0  0  0  0  0  0  0  0  0  0
   44.9508   30.4369   45.7052 H   0  0  0  0  0  0  0  0  0  0  0  0
   46.3710   29.3963   47.7657 H   0  0  0  0  0  0  0  0  0  0  0  0
   44.4081   31.8122   47.5165 H   0  0  0  0  0  0  0  0  0  0  0  0
   43.9526   30.2632   48.0930 H   0  0  0  0  0  0  0  0  0  0  0  0
   44.7409   32.0820   49.9315 H   0  0  0  0  0  0  0  0  0  0  0  0
   45.4895   30.4972   50.1112 H   0  0  0  0  0  0  0  0  0  0  0  0
   47.1020   32.2612   47.1651 H   0  0  0  0  0  0  0  0  0  0  0  0
   48.9547   31.2014   47.1581 H   0  0  0  0  0  0  0  0  0  0  0  0
   49.8023   32.1900   49.1811 H   0  0  0  0  0  0  0  0  0  0  0  0
   48.3544   31.8305   50.0840 H   0  0  0  0  0  0  0  0  0  0  0  0
   50.7803   30.3617   50.1630 H   0  0  0  0  0  0  0  0  0  0  0  0
   49.2297   29.7505   50.7686 H   0  0  0  0  0  0  0  0  0  0  0  0
   47.6484   29.1318   49.0896 H   0  0  0  0  0  0  0  0  0  0  0  0
   48.1396   28.7847   47.4682 H   0  0  0  0  0  0  0  0  0  0  0  0
   46.8444   30.1846   43.4655 H   0  0  0  0  0  0  0  0  0  0  0  0
   47.1191   32.1819   45.7446 H   0  0  0  0  0  0  0  0  0  0  0  0
   48.3644   35.3690   43.0829 H   0  0  0  0  0  0  0  0  0  0  0  0
   50.0718   34.6274   41.3367 H   0  0  0  0  0  0  0  0  0  0  0  0
   52.3016   31.7691   41.9181 H   0  0  0  0  0  0  0  0  0  0  0  0
   52.5526   30.7570   37.0288 H   0  0  0  0  0  0  0  0  0  0  0  0
   48.4771   31.8928   36.6259 H   0  0  0  0  0  0  0  0  0  0  0  0
  1  2  1  0
  2  6  1  0
  2  3  1  0
  3  4  1  0
  5  4  1  0
  6  7  1  0
  6  5  1  0
  7 11  1  0
  7  8  1  0
  8  9  1  0
 10  9  1  0
 11 10  1  0
 12 13  2  0
 13  1  1  0
 14 19  2  0
 15 14  1  0
 16 15  2  0
 16 17  1  0
 17 18  2  0
 18 19  1  0
 18 12  1  0
 20 21  1  0
 20 16  1  0
 22 21  2  0
 23 28  2  0
 23 22  1  0
 24 23  1  0
 25 26  1  0
 25 24  2  0
 26 27  2  0
 27 28  1  0
 28 20  1  0
  1 29  1  0
  1 30  1  0
  2 31  1  1
  3 32  1  0
  3 33  1  0
  4 34  1  0
  4 35  1  0
  6 36  1  6
  7 37  1  6
  8 38  1  0
  8 39  1  0
  9 40  1  0
  9 41  1  0
 11 42  1  0
 11 43  1  0
 12 44  1  0
 13 45  1  0
 14 46  1  0
 15 47  1  0
 21 48  1  0
 24 49  1  0
 26 50  1  0
M  ISO  8  29   8  30   8  31  13  32  13  33  13  34  13  35  13  36  13
M  ISO  8  37  13  38  13  39  13  40  13  41  13  42  13  43  13  46  14
M  ISO  4  47  14  48  14  49  14  50  14
M  END
>  <minimizedAffinity>  (1) 
-5.3039403

>  <minimizedRMSD>  (1) 
2.51789498

$$$$
