
     RDKit          3D

 45 47  0  0  1  0  0  0  0  0999 V2000
   46.3800   30.0960   47.4630 C   0  0  2  0  0  0  0  0  0  0  0  0
   45.0220   30.5140   47.9950 C   0  0  0  0  0  0  0  0  0  0  0  0
   45.4650   30.9210   49.3900 C   0  0  0  0  0  0  0  0  0  0  0  0
   46.6530   31.6010   49.2000 O   0  0  0  0  0  0  0  0  0  0  0  0
   47.2180   31.2100   48.0210 C   0  0  1  0  0  0  0  0  0  0  0  0
   48.6260   30.7740   48.2670 C   0  0  1  0  0  0  0  0  0  0  0  0
   49.1170   31.2370   49.6320 C   0  0  0  0  0  0  0  0  0  0  0  0
   49.8420   30.0190   50.1390 C   0  0  0  0  0  0  0  0  0  0  0  0
   49.9650   29.1570   49.0570 O   0  0  0  0  0  0  0  0  0  0  0  0
   48.7010   29.2620   48.4710 C   0  0  0  0  0  0  0  0  0  0  0  0
   46.4100   29.9750   45.9900 C   0  0  0  0  0  0  0  0  0  0  0  0
   47.0590   31.8550   44.5750 C   0  0  0  0  0  0  0  0  0  0  0  0
   46.1410   31.2470   45.2840 C   0  0  0  0  0  0  0  0  0  0  0  0
   45.4640   35.0130   43.6340 C   0  0  0  0  0  0  0  0  0  0  0  0
   46.2890   35.4540   42.5440 C   0  0  0  0  0  0  0  0  0  0  0  0
   47.3540   34.6260   42.1980 C   0  0  0  0  0  0  0  0  0  0  0  0
   47.5830   33.4650   42.8710 N   0  0  0  0  0  0  0  0  0  0  0  0
   46.7690   33.0980   43.8960 C   0  0  0  0  0  0  0  0  0  0  0  0
   45.7290   33.8480   44.2780 N   0  0  0  0  0  0  0  0  0  0  0  0
   48.2010   35.0850   41.0730 C   0  0  0  0  0  0  0  0  0  0  0  0
   49.2070   36.1140   41.5170 C   0  0  0  0  0  0  0  0  0  0  0  0
   46.7198   29.0920   47.7572 H   0  0  0  0  0  0  0  0  0  0  0  0
   44.5933   31.3553   47.4308 H   0  0  0  0  0  0  0  0  0  0  0  0
   44.2256   29.7572   47.9403 H   0  0  0  0  0  0  0  0  0  0  0  0
   44.7152   31.5750   49.8591 H   0  0  0  0  0  0  0  0  0  0  0  0
   45.5853   30.0541   50.0564 H   0  0  0  0  0  0  0  0  0  0  0  0
   47.2511   32.0357   47.2949 H   0  0  0  0  0  0  0  0  0  0  0  0
   49.1921   31.1648   47.4086 H   0  0  0  0  0  0  0  0  0  0  0  0
   49.7971   32.0967   49.5407 H   0  0  0  0  0  0  0  0  0  0  0  0
   48.3116   31.5805   50.2978 H   0  0  0  0  0  0  0  0  0  0  0  0
   50.8362   30.2983   50.5178 H   0  0  0  0  0  0  0  0  0  0  0  0
   49.2941   29.5445   50.9665 H   0  0  0  0  0  0  0  0  0  0  0  0
   47.9085   28.9012   49.1432 H   0  0  0  0  0  0  0  0  0  0  0  0
   48.5634   28.6646   47.5577 H   0  0  0  0  0  0  0  0  0  0  0  0
   47.4057   29.6156   45.6911 H   0  0  0  0  0  0  0  0  0  0  0  0
   45.6096   29.2750   45.7082 H   0  0  0  0  0  0  0  0  0  0  0  0
   48.0637   31.4143   44.4951 H   0  0  0  0  0  0  0  0  0  0  0  0
   45.1393   31.6958   45.3568 H   0  0  0  0  0  0  0  0  0  0  0  0
   44.6076   35.6265   43.9504 H   0  0  0  0  0  0  0  0  0  0  0  0
   46.0902   36.3955   42.0110 H   0  0  0  0  0  0  0  0  0  0  0  0
   47.5566   35.5272   40.2989 H   0  0  0  0  0  0  0  0  0  0  0  0
   48.7496   34.2163   40.6801 H   0  0  0  0  0  0  0  0  0  0  0  0
   49.2382   36.1459   42.6161 H   0  0  0  0  0  0  0  0  0  0  0  0
   50.2010   35.8460   41.1296 H   0  0  0  0  0  0  0  0  0  0  0  0
   48.9166   37.1017   41.1296 H   0  0  0  0  0  0  0  0  0  0  0  0
  1  2  1  0
  1  5  1  0
  2  3  1  0
  4  3  1  0
  5  6  1  0
  5  4  1  0
  6 10  1  0
  6  7  1  0
  7  8  1  0
  9  8  1  0
 10  9  1  0
 11  1  1  0
 12 13  2  0
 13 11  1  0
 14 19  2  0
 15 14  1  0
 16 15  2  0
 16 17  1  0
 17 18  2  0
 18 19  1  0
 18 12  1  0
 20 21  1  0
 20 16  1  0
  1 22  1  1
  2 23  1  0
  2 24  1  0
  3 25  1  0
  3 26  1  0
  5 27  1  6
  6 28  1  6
  7 29  1  0
  7 30  1  0
  8 31  1  0
  8 32  1  0
 10 33  1  0
 10 34  1  0
 11 35  1  0
 11 36  1  0
 12 37  1  0
 13 38  1  0
 14 39  1  0
 15 40  1  0
 20 41  1  0
 20 42  1  0
 21 43  1  0
 21 44  1  0
 21 45  1  0
M  ISO  8  22  13  23  13  24  13  25  13  26  13  27  13  28  13  29  13
M  ISO  8  30  13  31  13  32  13  33  13  34  13  35   8  36   8  39  14
M  ISO  6  40  14  41   8  42   8  43   8  44   8  45   8
M  END
>  <minimizedAffinity>  (1) 
-5.16198778

>  <minimizedRMSD>  (1) 
1.16210401

$$$$
