
     RDKit          3D

 54 57  0  0  1  0  0  0  0  0999 V2000
   45.8430   30.2140   46.0630 C   0  0  0  0  0  0  0  0  0  0  0  0
   45.9930   30.4140   47.5340 C   0  0  2  0  0  0  0  0  0  0  0  0
   44.7330   30.9940   48.1790 C   0  0  0  0  0  0  0  0  0  0  0  0
   45.3690   31.4180   49.4920 C   0  0  0  0  0  0  0  0  0  0  0  0
   46.5700   31.9690   49.1330 O   0  0  0  0  0  0  0  0  0  0  0  0
   46.9750   31.4620   47.9210 C   0  0  1  0  0  0  0  0  0  0  0  0
   48.3490   30.9010   48.0500 C   0  0  1  0  0  0  0  0  0  0  0  0
   49.0290   31.3850   49.3240 C   0  0  0  0  0  0  0  0  0  0  0  0
   49.6980   30.1170   49.8120 C   0  0  0  0  0  0  0  0  0  0  0  0
   49.6270   29.2000   48.7610 O   0  0  0  0  0  0  0  0  0  0  0  0
   48.3170   29.3990   48.3120 C   0  0  0  0  0  0  0  0  0  0  0  0
   47.2470   31.0340   44.2590 C   0  0  0  0  0  0  0  0  0  0  0  0
   46.4620   31.2960   45.2530 C   0  0  0  0  0  0  0  0  0  0  0  0
   48.1110   34.3460   43.0000 C   0  0  0  0  0  0  0  0  0  0  0  0
   49.0320   34.0460   41.9480 C   0  0  0  0  0  0  0  0  0  0  0  0
   49.3110   32.7050   41.7230 C   0  0  0  0  0  0  0  0  0  0  0  0
   48.7030   31.7830   42.5040 N   0  0  0  0  0  0  0  0  0  0  0  0
   47.8400   32.0950   43.4890 C   0  0  0  0  0  0  0  0  0  0  0  0
   47.5430   33.3650   43.7370 N   0  0  0  0  0  0  0  0  0  0  0  0
   50.0280   31.8680   39.4380 C   0  0  0  0  0  0  0  0  0  0  0  0
   50.2470   32.1810   40.7510 C   0  0  0  0  0  0  0  0  0  0  0  0
   51.5580   31.9420   41.1530 C   0  0  0  0  0  0  0  0  0  0  0  0
   52.5280   31.4460   40.3130 C   0  0  0  0  0  0  0  0  0  0  0  0
   52.2390   31.1530   38.9980 C   0  0  0  0  0  0  0  0  0  0  0  0
   50.9540   31.3720   38.5510 C   0  0  0  0  0  0  0  0  0  0  0  0
   48.0020   30.8790   39.2470 N   0  0  0  0  0  0  0  0  0  0  0  0
   48.6760   31.9630   38.9190 C   0  0  0  0  0  0  0  0  0  0  0  0
   48.4180   33.1730   38.2020 N   0  0  0  0  0  0  0  0  0  0  0  0
   47.0000   30.8050   38.9370 H   0  0  0  0  0  0  0  0  0  0  0  0
   46.3178   29.2598   45.7908 H   0  0  0  0  0  0  0  0  0  0  0  0
   44.7652   30.2203   45.8431 H   0  0  0  0  0  0  0  0  0  0  0  0
   46.2745   29.4013   47.8582 H   0  0  0  0  0  0  0  0  0  0  0  0
   44.3266   31.8463   47.6147 H   0  0  0  0  0  0  0  0  0  0  0  0
   43.8645   30.3226   48.2491 H   0  0  0  0  0  0  0  0  0  0  0  0
   44.7400   32.1595   50.0064 H   0  0  0  0  0  0  0  0  0  0  0  0
   45.4888   30.5750   50.1884 H   0  0  0  0  0  0  0  0  0  0  0  0
   47.0105   32.2418   47.1460 H   0  0  0  0  0  0  0  0  0  0  0  0
   48.8520   31.1951   47.1170 H   0  0  0  0  0  0  0  0  0  0  0  0
   49.7673   32.1721   49.1109 H   0  0  0  0  0  0  0  0  0  0  0  0
   48.3419   31.8381   50.0538 H   0  0  0  0  0  0  0  0  0  0  0  0
   50.7481   30.3172   50.0711 H   0  0  0  0  0  0  0  0  0  0  0  0
   49.2018   29.7276   50.7132 H   0  0  0  0  0  0  0  0  0  0  0  0
   47.5774   29.1351   49.0823 H   0  0  0  0  0  0  0  0  0  0  0  0
   48.0267   28.7850   47.4467 H   0  0  0  0  0  0  0  0  0  0  0  0
   47.4639   29.9874   43.9992 H   0  0  0  0  0  0  0  0  0  0  0  0
   46.2472   32.3449   45.5051 H   0  0  0  0  0  0  0  0  0  0  0  0
   47.8597   35.3954   43.2138 H   0  0  0  0  0  0  0  0  0  0  0  0
   49.4973   34.8402   41.3457 H   0  0  0  0  0  0  0  0  0  0  0  0
   51.8324   32.1609   42.1955 H   0  0  0  0  0  0  0  0  0  0  0  0
   53.5461   31.2814   40.6956 H   0  0  0  0  0  0  0  0  0  0  0  0
   53.0122   30.7555   38.3241 H   0  0  0  0  0  0  0  0  0  0  0  0
   50.6757   31.1551   37.5091 H   0  0  0  0  0  0  0  0  0  0  0  0
   49.1622   33.8771   38.0954 H   0  0  0  0  0  0  0  0  0  0  0  0
   47.4880   33.3405   37.7922 H   0  0  0  0  0  0  0  0  0  0  0  0
  1  2  1  0
  2  6  1  0
  2  3  1  0
  3  4  1  0
  5  4  1  0
  6  7  1  0
  6  5  1  0
  7 11  1  0
  7  8  1  0
  8  9  1  0
 10  9  1  0
 11 10  1  0
 12 13  2  0
 13  1  1  0
 14 19  2  0
 15 14  1  0
 16 15  2  0
 16 17  1  0
 17 18  2  0
 18 19  1  0
 18 12  1  0
 20 21  2  0
 21 22  1  0
 21 16  1  0
 23 22  2  0
 24 23  1  0
 25 24  2  0
 25 20  1  0
 27 26  2  0
 27 20  1  0
 28 27  1  0
 29 26  1  0
  1 30  1  0
  1 31  1  0
  2 32  1  1
  3 33  1  0
  3 34  1  0
  4 35  1  0
  4 36  1  0
  6 37  1  6
  7 38  1  6
  8 39  1  0
  8 40  1  0
  9 41  1  0
  9 42  1  0
 11 43  1  0
 11 44  1  0
 12 45  1  0
 13 46  1  0
 14 47  1  0
 15 48  1  0
 22 49  1  0
 23 50  1  0
 24 51  1  0
 25 52  1  0
 28 53  1  0
 28 54  1  0
M  ISO  8  30   8  31   8  32  13  33  13  34  13  35  13  36  13  37  13
M  ISO  8  38  13  39  13  40  13  41  13  42  13  43  13  44  13  47  14
M  ISO  5  48  14  49  14  50  14  51  14  52  14
M  END
>  <minimizedAffinity>  (1) 
-5.08476591

>  <minimizedRMSD>  (1) 
2.19799876

$$$$
