
     RDKit          3D

 55 58  0  0  1  0  0  0  0  0999 V2000
   46.7130   29.9590   47.5100 C   0  0  2  0  0  0  0  0  0  0  0  0
   45.2880   30.2880   47.9470 C   0  0  0  0  0  0  0  0  0  0  0  0
   45.6310   30.8230   49.3360 C   0  0  0  0  0  0  0  0  0  0  0  0
   46.7590   31.5770   49.1540 O   0  0  0  0  0  0  0  0  0  0  0  0
   47.4190   31.1660   48.0250 C   0  0  1  0  0  0  0  0  0  0  0  0
   48.8420   30.8530   48.3740 C   0  0  1  0  0  0  0  0  0  0  0  0
   49.3570   31.7550   49.4830 C   0  0  0  0  0  0  0  0  0  0  0  0
   50.1280   30.7860   50.3450 C   0  0  0  0  0  0  0  0  0  0  0  0
   50.2430   29.6060   49.6020 O   0  0  0  0  0  0  0  0  0  0  0  0
   48.9710   29.4940   49.0570 C   0  0  0  0  0  0  0  0  0  0  0  0
   46.8260   29.7530   46.0400 C   0  0  0  0  0  0  0  0  0  0  0  0
   47.4150   31.1760   44.1390 C   0  0  0  0  0  0  0  0  0  0  0  0
   46.7570   31.0040   45.2590 C   0  0  0  0  0  0  0  0  0  0  0  0
   46.5750   34.5910   43.1720 C   0  0  0  0  0  0  0  0  0  0  0  0
   47.2170   34.7190   41.9150 C   0  0  0  0  0  0  0  0  0  0  0  0
   47.9290   33.5960   41.4440 C   0  0  0  0  0  0  0  0  0  0  0  0
   47.9580   32.4760   42.2070 N   0  0  0  0  0  0  0  0  0  0  0  0
   47.3330   32.3960   43.3990 C   0  0  0  0  0  0  0  0  0  0  0  0
   46.6460   33.4320   43.8870 N   0  0  0  0  0  0  0  0  0  0  0  0
   48.6430   33.6030   40.1450 C   0  0  0  0  0  0  0  0  0  0  0  0
   48.5220   32.2040   39.5880 C   0  0  0  0  0  0  0  0  0  0  0  0
   49.3450   32.2290   38.2980 C   0  0  0  0  0  0  0  0  0  0  0  0
   48.4870   33.0260   37.3360 C   0  0  0  0  0  0  0  0  0  0  0  0
   48.3350   34.4340   37.7760 C   0  0  0  0  0  0  0  0  0  0  0  0
   48.2100   34.6880   39.2290 C   0  0  0  0  0  0  0  0  0  0  0  0
   47.1230   29.0115   47.8897 H   0  0  0  0  0  0  0  0  0  0  0  0
   44.8183   31.0501   47.3078 H   0  0  0  0  0  0  0  0  0  0  0  0
   44.5602   29.4642   47.9052 H   0  0  0  0  0  0  0  0  0  0  0  0
   44.8099   31.4426   49.7258 H   0  0  0  0  0  0  0  0  0  0  0  0
   45.7867   30.0139   50.0647 H   0  0  0  0  0  0  0  0  0  0  0  0
   47.4249   31.9482   47.2516 H   0  0  0  0  0  0  0  0  0  0  0  0
   49.3758   30.9420   47.4163 H   0  0  0  0  0  0  0  0  0  0  0  0
   50.0121   32.5437   49.0845 H   0  0  0  0  0  0  0  0  0  0  0  0
   48.5626   32.2920   50.0220 H   0  0  0  0  0  0  0  0  0  0  0  0
   51.1249   31.1903   50.5747 H   0  0  0  0  0  0  0  0  0  0  0  0
   49.6165   30.6077   51.3024 H   0  0  0  0  0  0  0  0  0  0  0  0
   48.2061   29.3562   49.8354 H   0  0  0  0  0  0  0  0  0  0  0  0
   48.8318   28.6302   48.3903 H   0  0  0  0  0  0  0  0  0  0  0  0
   47.7895   29.2654   45.8306 H   0  0  0  0  0  0  0  0  0  0  0  0
   45.9684   29.1354   45.7348 H   0  0  0  0  0  0  0  0  0  0  0  0
   48.0470   30.3601   43.7584 H   0  0  0  0  0  0  0  0  0  0  0  0
   46.1276   31.8251   45.6326 H   0  0  0  0  0  0  0  0  0  0  0  0
   46.0090   35.4422   43.5783 H   0  0  0  0  0  0  0  0  0  0  0  0
   47.1626   35.6511   41.3334 H   0  0  0  0  0  0  0  0  0  0  0  0
   49.7058   33.8520   40.2813 H   0  0  0  0  0  0  0  0  0  0  0  0
   48.9313   31.4677   40.2954 H   0  0  0  0  0  0  0  0  0  0  0  0
   47.4757   31.9153   39.4095 H   0  0  0  0  0  0  0  0  0  0  0  0
   50.3138   32.7238   38.4610 H   0  0  0  0  0  0  0  0  0  0  0  0
   49.5794   31.2215   37.9238 H   0  0  0  0  0  0  0  0  0  0  0  0
   47.4917   32.5614   37.2768 H   0  0  0  0  0  0  0  0  0  0  0  0
   48.9810   33.0247   36.3532 H   0  0  0  0  0  0  0  0  0  0  0  0
   49.2166   34.9871   37.4198 H   0  0  0  0  0  0  0  0  0  0  0  0
   47.3727   34.7569   37.3521 H   0  0  0  0  0  0  0  0  0  0  0  0
   48.8117   35.5787   39.4626 H   0  0  0  0  0  0  0  0  0  0  0  0
   47.1299   34.7965   39.4070 H   0  0  0  0  0  0  0  0  0  0  0  0
  1  2  1  0
  1  5  1  0
  2  3  1  0
  4  3  1  0
  5  6  1  0
  5  4  1  0
  6 10  1  0
  6  7  1  0
  7  8  1  0
  9  8  1  0
 10  9  1  0
 11  1  1  0
 12 13  2  0
 13 11  1  0
 14 19  2  0
 15 14  1  0
 16 15  2  0
 16 17  1  0
 17 18  2  0
 18 19  1  0
 18 12  1  0
 20 16  1  0
 21 20  1  0
 22 21  1  0
 23 24  1  0
 23 22  1  0
 24 25  1  0
 25 20  1  0
  1 26  1  1
  2 27  1  0
  2 28  1  0
  3 29  1  0
  3 30  1  0
  5 31  1  6
  6 32  1  6
  7 33  1  0
  7 34  1  0
  8 35  1  0
  8 36  1  0
 10 37  1  0
 10 38  1  0
 11 39  1  0
 11 40  1  0
 12 41  1  0
 13 42  1  0
 14 43  1  0
 15 44  1  0
 20 45  1  0
 21 46  1  0
 21 47  1  0
 22 48  1  0
 22 49  1  0
 23 50  1  0
 23 51  1  0
 24 52  1  0
 24 53  1  0
 25 54  1  0
 25 55  1  0
M  ISO  8  26  13  27  13  28  13  29  13  30  13  31  13  32  13  33  13
M  ISO  8  34  13  35  13  36  13  37  13  38  13  39   8  40   8  43  14
M  ISO  8  44  14  45  13  46  13  47  13  48  13  49  13  50  13  51  13
M  ISO  4  52  13  53  13  54  13  55  13
M  END
>  <minimizedAffinity>  (1) 
-5.01808453

>  <minimizedRMSD>  (1) 
2.81983852

$$$$
