
     RDKit          3D

 40 42  0  0  1  0  0  0  0  0999 V2000
   46.0590   30.5930   47.4040 C   0  0  2  0  0  0  0  0  0  0  0  0
   44.8020   31.1870   48.0190 C   0  0  0  0  0  0  0  0  0  0  0  0
   45.3860   31.5270   49.3810 C   0  0  0  0  0  0  0  0  0  0  0  0
   46.6260   32.0500   49.1150 O   0  0  0  0  0  0  0  0  0  0  0  0
   47.0570   31.5820   47.8910 C   0  0  1  0  0  0  0  0  0  0  0  0
   48.4090   30.9620   48.0600 C   0  0  1  0  0  0  0  0  0  0  0  0
   49.0780   31.4040   49.3580 C   0  0  0  0  0  0  0  0  0  0  0  0
   49.6760   30.1240   49.8590 C   0  0  0  0  0  0  0  0  0  0  0  0
   49.5940   29.2150   48.7990 O   0  0  0  0  0  0  0  0  0  0  0  0
   48.3120   29.4640   48.3090 C   0  0  0  0  0  0  0  0  0  0  0  0
   45.9640   30.4700   45.9260 C   0  0  0  0  0  0  0  0  0  0  0  0
   46.9500   31.7090   44.0660 C   0  0  0  0  0  0  0  0  0  0  0  0
   46.3280   31.7150   45.2120 C   0  0  0  0  0  0  0  0  0  0  0  0
   46.6380   34.9630   42.4270 C   0  0  0  0  0  0  0  0  0  0  0  0
   47.9910   35.2750   42.0920 C   0  0  0  0  0  0  0  0  0  0  0  0
   48.9640   34.3290   42.4560 C   0  0  0  0  0  0  0  0  0  0  0  0
   48.5860   33.1850   43.0950 N   0  0  0  0  0  0  0  0  0  0  0  0
   47.2950   32.9350   43.3890 C   0  0  0  0  0  0  0  0  0  0  0  0
   46.3190   33.8060   43.0650 N   0  0  0  0  0  0  0  0  0  0  0  0
   50.2600   34.6230   42.1390 O   0  0  0  0  0  0  0  0  0  0  0  0
   46.2932   29.5553   47.6839 H   0  0  0  0  0  0  0  0  0  0  0  0
   44.4534   32.0795   47.4787 H   0  0  0  0  0  0  0  0  0  0  0  0
   43.9096   30.5439   48.0190 H   0  0  0  0  0  0  0  0  0  0  0  0
   44.7570   32.2669   49.8976 H   0  0  0  0  0  0  0  0  0  0  0  0
   45.4411   30.6468   50.0384 H   0  0  0  0  0  0  0  0  0  0  0  0
   47.1452   32.3933   47.1535 H   0  0  0  0  0  0  0  0  0  0  0  0
   48.9462   31.2473   47.1435 H   0  0  0  0  0  0  0  0  0  0  0  0
   49.8546   32.1597   49.1690 H   0  0  0  0  0  0  0  0  0  0  0  0
   48.3873   31.8772   50.0714 H   0  0  0  0  0  0  0  0  0  0  0  0
   50.7260   30.2805   50.1470 H   0  0  0  0  0  0  0  0  0  0  0  0
   49.1440   29.7533   50.7476 H   0  0  0  0  0  0  0  0  0  0  0  0
   47.5374   29.2232   49.0520 H   0  0  0  0  0  0  0  0  0  0  0  0
   48.0283   28.8663   47.4302 H   0  0  0  0  0  0  0  0  0  0  0  0
   46.6415   29.6680   45.5978 H   0  0  0  0  0  0  0  0  0  0  0  0
   44.9140   30.2494   45.6834 H   0  0  0  0  0  0  0  0  0  0  0  0
   47.2178   30.7469   43.6049 H   0  0  0  0  0  0  0  0  0  0  0  0
   46.0637   32.6817   45.6655 H   0  0  0  0  0  0  0  0  0  0  0  0
   45.8394   35.6722   42.1638 H   0  0  0  0  0  0  0  0  0  0  0  0
   48.2577   36.2087   41.5752 H   0  0  0  0  0  0  0  0  0  0  0  0
   50.9831   33.9889   42.3739 H   0  0  0  0  0  0  0  0  0  0  0  0
  1  5  1  0
  1  2  1  0
  2  3  1  0
  4  3  1  0
  5  6  1  0
  5  4  1  0
  6 10  1  0
  6  7  1  0
  7  8  1  0
  9  8  1  0
 10  9  1  0
 11  1  1  0
 12 13  2  0
 13 11  1  0
 14 19  2  0
 15 14  1  0
 15 16  2  0
 16 17  1  0
 17 18  2  0
 18 12  1  0
 19 18  1  0
 20 16  1  0
  1 21  1  1
  2 22  1  0
  2 23  1  0
  3 24  1  0
  3 25  1  0
  5 26  1  6
  6 27  1  6
  7 28  1  0
  7 29  1  0
  8 30  1  0
  8 31  1  0
 10 32  1  0
 10 33  1  0
 11 34  1  0
 11 35  1  0
 12 36  1  0
 13 37  1  0
 14 38  1  0
 15 39  1  0
 20 40  1  0
M  ISO  8  21  13  22  13  23  13  24  13  25  13  26  13  27  13  28  13
M  ISO  8  29  13  30  13  31  13  32  13  33  13  34   8  35   8  38  14
M  ISO  2  39  14  40   3
M  END
>  <minimizedAffinity>  (1) 
-4.72700214

>  <minimizedRMSD>  (1) 
0.113334984

$$$$
