
     RDKit          3D

 40 42  0  0  1  0  0  0  0  0999 V2000
   46.0640   30.2720   47.5490 C   0  0  2  0  0  0  0  0  0  0  0  0
   44.7780   30.7670   48.1930 C   0  0  0  0  0  0  0  0  0  0  0  0
   45.3760   31.2060   49.5250 C   0  0  0  0  0  0  0  0  0  0  0  0
   46.5650   31.8210   49.1840 O   0  0  0  0  0  0  0  0  0  0  0  0
   46.9790   31.3660   47.9630 C   0  0  1  0  0  0  0  0  0  0  0  0
   48.3870   30.8800   48.0970 C   0  0  1  0  0  0  0  0  0  0  0  0
   49.0580   31.3880   49.3550 C   0  0  0  0  0  0  0  0  0  0  0  0
   49.7850   30.1690   49.8570 C   0  0  0  0  0  0  0  0  0  0  0  0
   49.7530   29.2380   48.8150 O   0  0  0  0  0  0  0  0  0  0  0  0
   48.4340   29.3730   48.3730 C   0  0  0  0  0  0  0  0  0  0  0  0
   45.9270   30.1020   46.0810 C   0  0  0  0  0  0  0  0  0  0  0  0
   46.7090   31.4720   44.2110 C   0  0  0  0  0  0  0  0  0  0  0  0
   46.0170   31.3680   45.3170 C   0  0  0  0  0  0  0  0  0  0  0  0
   45.7390   34.4900   42.3810 C   0  0  0  0  0  0  0  0  0  0  0  0
   46.9910   35.1090   42.1390 C   0  0  0  0  0  0  0  0  0  0  0  0
   48.1200   34.4550   42.6210 C   0  0  0  0  0  0  0  0  0  0  0  0
   47.9860   33.2730   43.2900 N   0  0  0  0  0  0  0  0  0  0  0  0
   46.7710   32.7270   43.4930 C   0  0  0  0  0  0  0  0  0  0  0  0
   45.6640   33.3130   43.0530 N   0  0  0  0  0  0  0  0  0  0  0  0
   49.7910   35.0780   42.4150 S   0  0  0  0  0  0  0  0  0  0  0  0
   46.4039   29.2707   47.8522 H   0  0  0  0  0  0  0  0  0  0  0  0
   44.3286   31.6048   47.6397 H   0  0  0  0  0  0  0  0  0  0  0  0
   43.9505   30.0442   48.2456 H   0  0  0  0  0  0  0  0  0  0  0  0
   44.7063   31.9118   50.0382 H   0  0  0  0  0  0  0  0  0  0  0  0
   45.5241   30.3626   50.2154 H   0  0  0  0  0  0  0  0  0  0  0  0
   46.9545   32.1570   47.1990 H   0  0  0  0  0  0  0  0  0  0  0  0
   48.8620   31.2078   47.1606 H   0  0  0  0  0  0  0  0  0  0  0  0
   49.7605   32.2036   49.1283 H   0  0  0  0  0  0  0  0  0  0  0  0
   48.3526   31.8081   50.0870 H   0  0  0  0  0  0  0  0  0  0  0  0
   50.8251   30.4227   50.1097 H   0  0  0  0  0  0  0  0  0  0  0  0
   49.3140   29.7682   50.7667 H   0  0  0  0  0  0  0  0  0  0  0  0
   47.7129   29.0794   49.1501 H   0  0  0  0  0  0  0  0  0  0  0  0
   48.1710   28.7402   47.5126 H   0  0  0  0  0  0  0  0  0  0  0  0
   46.7268   29.4311   45.7343 H   0  0  0  0  0  0  0  0  0  0  0  0
   44.9224   29.6920   45.9004 H   0  0  0  0  0  0  0  0  0  0  0  0
   47.2494   30.5960   43.8230 H   0  0  0  0  0  0  0  0  0  0  0  0
   45.4827   32.2530   45.6930 H   0  0  0  0  0  0  0  0  0  0  0  0
   44.8171   34.9692   42.0199 H   0  0  0  0  0  0  0  0  0  0  0  0
   47.0662   36.0623   41.5953 H   0  0  0  0  0  0  0  0  0  0  0  0
   50.3549   35.2883   43.6457 H   0  0  0  0  0  0  0  0  0  0  0  0
  1  5  1  0
  1  2  1  0
  2  3  1  0
  4  3  1  0
  5  6  1  0
  5  4  1  0
  6 10  1  0
  6  7  1  0
  7  8  1  0
  9  8  1  0
 10  9  1  0
 11  1  1  0
 12 13  2  0
 13 11  1  0
 14 19  2  0
 15 14  1  0
 15 16  2  0
 16 17  1  0
 17 18  2  0
 18 12  1  0
 19 18  1  0
 20 16  1  0
  1 21  1  1
  2 22  1  0
  2 23  1  0
  3 24  1  0
  3 25  1  0
  5 26  1  6
  6 27  1  6
  7 28  1  0
  7 29  1  0
  8 30  1  0
  8 31  1  0
 10 32  1  0
 10 33  1  0
 11 34  1  0
 11 35  1  0
 12 36  1  0
 13 37  1  0
 14 38  1  0
 15 39  1  0
 20 40  1  0
M  ISO  8  21  13  22  13  23  13  24  13  25  13  26  13  27  13  28  13
M  ISO  8  29  13  30  13  31  13  32  13  33  13  34   8  35   8  38  14
M  ISO  2  39  14  40  11
M  END
>  <minimizedAffinity>  (1) 
-4.5283556

>  <minimizedRMSD>  (1) 
0.632846534

$$$$
