
     RDKit          3D

 34 36  0  0  1  0  0  0  0  0999 V2000
   46.3530   33.9900   41.0290 C   0  0  0  0  0  0  0  0  0  0  0  0
   46.8520   34.7930   42.0380 C   0  0  0  0  0  0  0  0  0  0  0  0
   48.0370   35.4340   41.7940 C   0  0  0  0  0  0  0  0  0  0  0  0
   48.7060   35.2860   40.5950 C   0  0  0  0  0  0  0  0  0  0  0  0
   48.1990   34.4910   39.6120 C   0  0  0  0  0  0  0  0  0  0  0  0
   47.0040   33.8220   39.8100 C   0  0  0  0  0  0  0  0  0  0  0  0
   44.5170   36.0010   44.7430 C   0  0  0  0  0  0  0  0  0  0  0  0
   45.2330   35.9320   43.5380 C   0  0  0  0  0  0  0  0  0  0  0  0
   46.1000   34.8970   43.2610 C   0  0  0  0  0  0  0  0  0  0  0  0
   46.1980   33.9590   44.2480 N   0  0  0  0  0  0  0  0  0  0  0  0
   45.5210   34.0070   45.4060 C   0  0  0  0  0  0  0  0  0  0  0  0
   44.6760   35.0370   45.6490 N   0  0  0  0  0  0  0  0  0  0  0  0
   45.1460   33.3150   41.2310 O   0  0  0  0  0  0  0  0  0  0  0  0
   46.4270   33.0000   38.8690 O   0  0  0  0  0  0  0  0  0  0  0  0
   45.3730   32.8920   36.6860 C   0  0  2  0  0  0  0  0  0  0  0  0
   46.6630   32.9770   37.5090 C   0  0  2  0  0  0  0  0  0  0  0  0
   47.2970   31.6700   37.0290 C   0  0  0  0  0  0  0  0  0  0  0  0
   47.1680   31.8420   35.6380 O   0  0  0  0  0  0  0  0  0  0  0  0
   45.8910   32.2930   35.4040 C   0  0  0  0  0  0  0  0  0  0  0  0
   44.7980   34.1370   36.5080 O   0  0  0  0  0  0  0  0  0  0  0  0
   48.4665   36.0825   42.5718 H   0  0  0  0  0  0  0  0  0  0  0  0
   49.6567   35.8148   40.4323 H   0  0  0  0  0  0  0  0  0  0  0  0
   48.7397   34.3808   38.6604 H   0  0  0  0  0  0  0  0  0  0  0  0
   43.8331   36.8404   44.9371 H   0  0  0  0  0  0  0  0  0  0  0  0
   45.0981   36.7286   42.7915 H   0  0  0  0  0  0  0  0  0  0  0  0
   45.6521   33.2123   46.1552 H   0  0  0  0  0  0  0  0  0  0  0  0
   44.7768   32.7367   40.5173 H   0  0  0  0  0  0  0  0  0  0  0  0
   44.5657   32.3065   37.1501 H   0  0  0  0  0  0  0  0  0  0  0  0
   47.2705   33.8838   37.3726 H   0  0  0  0  0  0  0  0  0  0  0  0
   48.3502   31.5886   37.3358 H   0  0  0  0  0  0  0  0  0  0  0  0
   46.8389   30.7541   37.4305 H   0  0  0  0  0  0  0  0  0  0  0  0
   45.9028   33.0563   34.6121 H   0  0  0  0  0  0  0  0  0  0  0  0
   45.2445   31.4651   35.0775 H   0  0  0  0  0  0  0  0  0  0  0  0
   44.6104   34.5432   37.3911 H   0  0  0  0  0  0  0  0  0  0  0  0
  1 13  1  0
  1  2  2  0
  2  9  1  0
  3  2  1  0
  4  3  2  0
  5  6  2  0
  5  4  1  0
  6  1  1  0
  7 12  2  0
  8  7  1  0
  9  8  2  0
  9 10  1  0
 10 11  2  0
 11 12  1  0
 14  6  1  0
 15 20  1  0
 15 16  1  0
 16 14  1  0
 17 16  1  0
 18 17  1  0
 19 18  1  0
 19 15  1  0
  3 21  1  0
  4 22  1  0
  5 23  1  0
  7 24  1  0
  8 25  1  0
 11 26  1  0
 13 27  1  0
 15 28  1  1
 16 29  1  6
 17 30  1  0
 17 31  1  0
 19 32  1  0
 19 33  1  0
 20 34  1  0
M  ISO  8  21  14  22  14  23  14  24  14  25  14  26  14  27   3  28  13
M  ISO  6  29  13  30  13  31  13  32  13  33  13  34   3
M  END
>  <minimizedAffinity>  (1) 
-6.10560942

>  <minimizedRMSD>  (1) 
0.525052905

$$$$
