
     RDKit          3D

 35 37  0  0  1  0  0  0  0  0999 V2000
   46.4160   34.1310   40.8880 C   0  0  0  0  0  0  0  0  0  0  0  0
   46.9380   34.8530   41.9490 C   0  0  0  0  0  0  0  0  0  0  0  0
   48.1470   35.4480   41.7750 C   0  0  0  0  0  0  0  0  0  0  0  0
   48.8400   35.3400   40.5810 C   0  0  0  0  0  0  0  0  0  0  0  0
   48.3290   34.6340   39.5460 C   0  0  0  0  0  0  0  0  0  0  0  0
   47.0900   34.0050   39.6780 C   0  0  0  0  0  0  0  0  0  0  0  0
   44.5410   36.0050   44.6310 C   0  0  0  0  0  0  0  0  0  0  0  0
   45.2790   35.9730   43.4390 C   0  0  0  0  0  0  0  0  0  0  0  0
   46.1630   34.9250   43.1620 C   0  0  0  0  0  0  0  0  0  0  0  0
   46.2210   33.9890   44.1300 N   0  0  0  0  0  0  0  0  0  0  0  0
   45.5210   34.0070   45.2770 C   0  0  0  0  0  0  0  0  0  0  0  0
   44.6830   35.0130   45.5260 N   0  0  0  0  0  0  0  0  0  0  0  0
   45.1800   33.5090   41.0320 O   0  0  0  0  0  0  0  0  0  0  0  0
   46.4910   33.2680   38.6810 O   0  0  0  0  0  0  0  0  0  0  0  0
   45.2890   33.6770   36.8090 N   0  0  0  0  0  0  0  0  0  0  0  0
   46.6500   33.4220   37.3130 C   0  0  2  0  0  0  0  0  0  0  0  0
   47.0660   32.1170   36.6250 C   0  0  0  0  0  0  0  0  0  0  0  0
   46.3110   31.8700   35.4810 O   0  0  0  0  0  0  0  0  0  0  0  0
   44.9890   31.5440   35.7970 C   0  0  0  0  0  0  0  0  0  0  0  0
   44.6080   32.4050   36.9840 C   0  0  0  0  0  0  0  0  0  0  0  0
   48.5849   36.0282   42.6006 H   0  0  0  0  0  0  0  0  0  0  0  0
   49.8170   35.8338   40.4727 H   0  0  0  0  0  0  0  0  0  0  0  0
   48.8889   34.5559   38.6024 H   0  0  0  0  0  0  0  0  0  0  0  0
   43.8502   36.8371   44.8320 H   0  0  0  0  0  0  0  0  0  0  0  0
   45.1605   36.7869   42.7085 H   0  0  0  0  0  0  0  0  0  0  0  0
   45.6393   33.1938   46.0082 H   0  0  0  0  0  0  0  0  0  0  0  0
   44.7964   32.9902   40.2811 H   0  0  0  0  0  0  0  0  0  0  0  0
   45.3108   33.9475   35.8154 H   0  0  0  0  0  0  0  0  0  0  0  0
   47.4046   34.1987   37.1199 H   0  0  0  0  0  0  0  0  0  0  0  0
   48.1270   32.1861   36.3429 H   0  0  0  0  0  0  0  0  0  0  0  0
   46.8966   31.2903   37.3306 H   0  0  0  0  0  0  0  0  0  0  0  0
   44.3296   31.7596   34.9434 H   0  0  0  0  0  0  0  0  0  0  0  0
   44.8873   30.4741   36.0315 H   0  0  0  0  0  0  0  0  0  0  0  0
   44.9322   31.9264   37.9198 H   0  0  0  0  0  0  0  0  0  0  0  0
   43.5181   32.5427   37.0410 H   0  0  0  0  0  0  0  0  0  0  0  0
  1 13  1  0
  1  2  2  0
  2  9  1  0
  3  2  1  0
  4  3  2  0
  5  6  2  0
  5  4  1  0
  6  1  1  0
  7 12  2  0
  8  7  1  0
  9  8  2  0
  9 10  1  0
 10 11  2  0
 11 12  1  0
 14  6  1  0
 15 20  1  0
 15 16  1  0
 16 14  1  0
 17 16  1  0
 18 19  1  0
 18 17  1  0
 19 20  1  0
  3 21  1  0
  4 22  1  0
  5 23  1  0
  7 24  1  0
  8 25  1  0
 11 26  1  0
 13 27  1  0
 15 28  1  0
 16 29  1  1
 17 30  1  0
 17 31  1  0
 19 32  1  0
 19 33  1  0
 20 34  1  0
 20 35  1  0
M  ISO  8  21  14  22  14  23  14  24  14  25  14  26  14  27   3  28   5
M  ISO  7  29  13  30  13  31  13  32  13  33  13  34  13  35  13
M  END
>  <minimizedAffinity>  (1) 
-5.8570962

>  <minimizedRMSD>  (1) 
0.703597903

$$$$
