
     RDKit          3D

 31 33  0  0  0  0  0  0  0  0999 V2000
   46.3240   34.0730   40.9620 C   0  0  0  0  0  0  0  0  0  0  0  0
   46.8510   34.8150   42.0090 C   0  0  0  0  0  0  0  0  0  0  0  0
   48.0680   35.4050   41.7910 C   0  0  0  0  0  0  0  0  0  0  0  0
   48.7430   35.2720   40.5920 C   0  0  0  0  0  0  0  0  0  0  0  0
   48.2100   34.5430   39.5840 C   0  0  0  0  0  0  0  0  0  0  0  0
   46.9660   33.9130   39.7410 C   0  0  0  0  0  0  0  0  0  0  0  0
   44.5220   36.0480   44.6970 C   0  0  0  0  0  0  0  0  0  0  0  0
   45.2490   35.9580   43.5100 C   0  0  0  0  0  0  0  0  0  0  0  0
   46.1000   34.9130   43.2260 C   0  0  0  0  0  0  0  0  0  0  0  0
   46.1640   33.9870   44.2010 N   0  0  0  0  0  0  0  0  0  0  0  0
   45.4750   34.0470   45.3530 C   0  0  0  0  0  0  0  0  0  0  0  0
   44.6560   35.0730   45.6020 N   0  0  0  0  0  0  0  0  0  0  0  0
   45.0960   33.4550   41.1260 O   0  0  0  0  0  0  0  0  0  0  0  0
   46.3630   33.1590   38.7700 O   0  0  0  0  0  0  0  0  0  0  0  0
   46.9500   32.8890   37.5680 C   0  0  0  0  0  0  0  0  0  0  0  0
   46.2440   31.8120   37.0070 C   0  0  0  0  0  0  0  0  0  0  0  0
   46.5770   31.2640   35.7580 C   0  0  0  0  0  0  0  0  0  0  0  0
   47.6350   31.7920   35.0420 C   0  0  0  0  0  0  0  0  0  0  0  0
   48.2990   32.8480   35.6300 C   0  0  0  0  0  0  0  0  0  0  0  0
   47.9610   33.3520   36.8240 N   0  0  0  0  0  0  0  0  0  0  0  0
   48.5221   36.0030   42.5948 H   0  0  0  0  0  0  0  0  0  0  0  0
   49.7188   35.7614   40.4564 H   0  0  0  0  0  0  0  0  0  0  0  0
   48.7561   34.4436   38.6343 H   0  0  0  0  0  0  0  0  0  0  0  0
   43.8538   36.9015   44.8842 H   0  0  0  0  0  0  0  0  0  0  0  0
   45.1373   36.7598   42.7653 H   0  0  0  0  0  0  0  0  0  0  0  0
   45.5861   33.2448   46.0974 H   0  0  0  0  0  0  0  0  0  0  0  0
   44.7074   32.9222   40.3876 H   0  0  0  0  0  0  0  0  0  0  0  0
   45.3998   31.3825   37.5664 H   0  0  0  0  0  0  0  0  0  0  0  0
   45.9999   30.4202   35.3519 H   0  0  0  0  0  0  0  0  0  0  0  0
   47.9301   31.3930   34.0603 H   0  0  0  0  0  0  0  0  0  0  0  0
   49.1468   33.2979   35.0927 H   0  0  0  0  0  0  0  0  0  0  0  0
  1 13  1  0
  1  2  2  0
  2  9  1  0
  3  2  1  0
  4  3  2  0
  5  6  2  0
  5  4  1  0
  6  1  1  0
  7 12  2  0
  8  7  1  0
  9  8  2  0
  9 10  1  0
 10 11  2  0
 11 12  1  0
 14  6  1  0
 15 14  1  0
 16 15  2  0
 17 16  1  0
 18 19  1  0
 18 17  2  0
 19 20  2  0
 20 15  1  0
  3 21  1  0
  4 22  1  0
  5 23  1  0
  7 24  1  0
  8 25  1  0
 11 26  1  0
 13 27  1  0
 16 28  1  0
 17 29  1  0
 18 30  1  0
 19 31  1  0
M  ISO  8  21  14  22  14  23  14  24  14  25  14  26  14  27   3  28  14
M  ISO  3  29  14  30  14  31  14
M  END
>  <minimizedAffinity>  (1) 
-5.65162086

>  <minimizedRMSD>  (1) 
0.259187192

$$$$
