
     RDKit          3D

 32 34  0  0  0  0  0  0  0  0999 V2000
   46.5940   34.1170   41.0690 C   0  0  0  0  0  0  0  0  0  0  0  0
   46.9920   34.8960   42.1210 C   0  0  0  0  0  0  0  0  0  0  0  0
   48.1570   35.6050   41.9540 C   0  0  0  0  0  0  0  0  0  0  0  0
   48.8930   35.5380   40.7820 C   0  0  0  0  0  0  0  0  0  0  0  0
   48.4600   34.7450   39.7480 C   0  0  0  0  0  0  0  0  0  0  0  0
   47.2900   34.0110   39.8730 C   0  0  0  0  0  0  0  0  0  0  0  0
   44.4930   35.9210   44.7490 C   0  0  0  0  0  0  0  0  0  0  0  0
   45.2560   35.9340   43.5680 C   0  0  0  0  0  0  0  0  0  0  0  0
   46.1880   34.9260   43.3130 C   0  0  0  0  0  0  0  0  0  0  0  0
   46.2810   33.9810   44.2680 N   0  0  0  0  0  0  0  0  0  0  0  0
   45.5570   33.9600   45.3980 C   0  0  0  0  0  0  0  0  0  0  0  0
   44.6630   34.9300   45.6380 N   0  0  0  0  0  0  0  0  0  0  0  0
   45.4120   33.3750   41.1940 O   0  0  0  0  0  0  0  0  0  0  0  0
   46.8000   33.1970   38.8730 O   0  0  0  0  0  0  0  0  0  0  0  0
   48.2790   30.6610   39.5920 Cl  0  0  0  0  0  0  0  0  0  0  0  0
   48.3070   31.4230   38.0410 C   0  0  0  0  0  0  0  0  0  0  0  0
   47.5690   32.5760   37.8990 C   0  0  0  0  0  0  0  0  0  0  0  0
   47.5350   33.2590   36.6760 C   0  0  0  0  0  0  0  0  0  0  0  0
   48.2820   32.7080   35.6310 C   0  0  0  0  0  0  0  0  0  0  0  0
   49.0190   31.5480   35.7860 C   0  0  0  0  0  0  0  0  0  0  0  0
   49.9380   30.8940   34.4490 Cl  0  0  0  0  0  0  0  0  0  0  0  0
   49.0370   30.8890   37.0070 C   0  0  0  0  0  0  0  0  0  0  0  0
   48.5157   36.2441   42.7743 H   0  0  0  0  0  0  0  0  0  0  0  0
   49.8218   36.1186   40.6801 H   0  0  0  0  0  0  0  0  0  0  0  0
   49.0434   34.6917   38.8170 H   0  0  0  0  0  0  0  0  0  0  0  0
   43.7608   36.7186   44.9432 H   0  0  0  0  0  0  0  0  0  0  0  0
   45.1174   36.7455   42.8385 H   0  0  0  0  0  0  0  0  0  0  0  0
   45.6970   33.1478   46.1265 H   0  0  0  0  0  0  0  0  0  0  0  0
   45.1044   32.8043   40.4458 H   0  0  0  0  0  0  0  0  0  0  0  0
   46.9504   34.1815   36.5450 H   0  0  0  0  0  0  0  0  0  0  0  0
   48.2838   33.2132   34.6539 H   0  0  0  0  0  0  0  0  0  0  0  0
   49.6190   29.9656   37.1431 H   0  0  0  0  0  0  0  0  0  0  0  0
  1 13  1  0
  1  2  2  0
  2  9  1  0
  3  2  1  0
  4  3  2  0
  5  6  2  0
  5  4  1  0
  6  1  1  0
  7 12  2  0
  8  7  1  0
  9  8  2  0
  9 10  1  0
 10 11  2  0
 11 12  1  0
 14  6  1  0
 16 15  1  0
 17 16  2  0
 17 14  1  0
 18 17  1  0
 19 20  1  0
 19 18  2  0
 20 22  2  0
 21 20  1  0
 22 16  1  0
  3 23  1  0
  4 24  1  0
  5 25  1  0
  7 26  1  0
  8 27  1  0
 11 28  1  0
 13 29  1  0
 18 30  1  0
 19 31  1  0
 22 32  1  0
M  ISO  8  23  14  24  14  25  14  26  14  27  14  28  14  29   3  30  14
M  ISO  2  31  14  32  14
M  END
>  <minimizedAffinity>  (1) 
-5.59510851

>  <minimizedRMSD>  (1) 
3.72624803

$$$$
