
     RDKit          3D

 39 42  0  0  0  0  0  0  0  0999 V2000
   46.4360   33.8870   41.0290 C   0  0  0  0  0  0  0  0  0  0  0  0
   46.8960   34.7540   42.0030 C   0  0  0  0  0  0  0  0  0  0  0  0
   48.0170   35.4520   41.7290 C   0  0  0  0  0  0  0  0  0  0  0  0
   48.6930   35.3190   40.5270 C   0  0  0  0  0  0  0  0  0  0  0  0
   48.2250   34.4510   39.5660 C   0  0  0  0  0  0  0  0  0  0  0  0
   47.0730   33.7110   39.8040 C   0  0  0  0  0  0  0  0  0  0  0  0
   44.5390   35.9180   44.7070 C   0  0  0  0  0  0  0  0  0  0  0  0
   45.2550   35.8490   43.5120 C   0  0  0  0  0  0  0  0  0  0  0  0
   46.1440   34.8460   43.2360 C   0  0  0  0  0  0  0  0  0  0  0  0
   46.2700   33.9160   44.2340 N   0  0  0  0  0  0  0  0  0  0  0  0
   45.5880   33.9670   45.3910 C   0  0  0  0  0  0  0  0  0  0  0  0
   44.7180   34.9730   45.6290 N   0  0  0  0  0  0  0  0  0  0  0  0
   45.2790   33.1340   41.2530 O   0  0  0  0  0  0  0  0  0  0  0  0
   46.5410   32.8200   38.8880 O   0  0  0  0  0  0  0  0  0  0  0  0
   47.0830   32.5520   37.6720 C   0  0  0  0  0  0  0  0  0  0  0  0
   46.5300   32.6290   36.4100 C   0  0  0  0  0  0  0  0  0  0  0  0
   47.2890   32.3020   35.3380 C   0  0  0  0  0  0  0  0  0  0  0  0
   48.6300   31.8930   35.5860 C   0  0  0  0  0  0  0  0  0  0  0  0
   48.7750   31.9880   37.3880 S   0  0  0  0  0  0  0  0  0  0  0  0
   48.4450   33.1420   32.8740 Cl  0  0  0  0  0  0  0  0  0  0  0  0
   49.6640   32.0160   33.4320 C   0  0  0  0  0  0  0  0  0  0  0  0
   49.6750   31.4900   34.6960 C   0  0  0  0  0  0  0  0  0  0  0  0
   50.5920   30.6100   35.1910 C   0  0  0  0  0  0  0  0  0  0  0  0
   51.6230   30.2000   34.3460 C   0  0  0  0  0  0  0  0  0  0  0  0
   51.6650   30.7020   33.0450 C   0  0  0  0  0  0  0  0  0  0  0  0
   50.7000   31.6000   32.5860 C   0  0  0  0  0  0  0  0  0  0  0  0
   48.4073   36.1497   42.4846 H   0  0  0  0  0  0  0  0  0  0  0  0
   49.6038   35.9069   40.3403 H   0  0  0  0  0  0  0  0  0  0  0  0
   48.7618   34.3435   38.6119 H   0  0  0  0  0  0  0  0  0  0  0  0
   43.8344   36.7435   44.8862 H   0  0  0  0  0  0  0  0  0  0  0  0
   45.0982   36.6351   42.7587 H   0  0  0  0  0  0  0  0  0  0  0  0
   45.7391   33.1845   46.1492 H   0  0  0  0  0  0  0  0  0  0  0  0
   44.9497   32.5133   40.5556 H   0  0  0  0  0  0  0  0  0  0  0  0
   45.4868   32.9517   36.2771 H   0  0  0  0  0  0  0  0  0  0  0  0
   46.8857   32.3503   34.3157 H   0  0  0  0  0  0  0  0  0  0  0  0
   50.5207   30.2359   36.2230 H   0  0  0  0  0  0  0  0  0  0  0  0
   52.3890   29.4938   34.6988 H   0  0  0  0  0  0  0  0  0  0  0  0
   52.4727   30.3846   32.3691 H   0  0  0  0  0  0  0  0  0  0  0  0
   50.7533   31.9825   31.5560 H   0  0  0  0  0  0  0  0  0  0  0  0
  1 13  1  0
  1  2  2  0
  2  9  1  0
  3  2  1  0
  4  3  2  0
  5  6  2  0
  5  4  1  0
  6  1  1  0
  7 12  2  0
  8  7  1  0
  9  8  2  0
  9 10  1  0
 10 11  2  0
 11 12  1  0
 14  6  1  0
 15 14  1  0
 16 15  2  0
 17 18  2  0
 17 16  1  0
 18 19  1  0
 19 15  1  0
 20 21  1  0
 21 22  2  0
 22 23  1  0
 22 18  1  0
 24 23  2  0
 25 24  1  0
 26 25  2  0
 26 21  1  0
  3 27  1  0
  4 28  1  0
  5 29  1  0
  7 30  1  0
  8 31  1  0
 11 32  1  0
 13 33  1  0
 16 34  1  0
 17 35  1  0
 23 36  1  0
 24 37  1  0
 25 38  1  0
 26 39  1  0
M  ISO  8  27  14  28  14  29  14  30  14  31  14  32  14  33   3  34  14
M  ISO  5  35  14  36  14  37  14  38  14  39  14
M  END
>  <minimizedAffinity>  (1) 
-6.51142454

>  <minimizedRMSD>  (1) 
1.92429674

$$$$
