
     RDKit          3D

 29 31  0  0  0  0  0  0  0  0999 V2000
   45.4030   34.5580   44.4500 C   0  0  0  0  0  0  0  0  0  0  0  0
   46.4300   34.4170   43.5210 C   0  0  0  0  0  0  0  0  0  0  0  0
   47.3400   33.4040   43.7500 C   0  0  0  0  0  0  0  0  0  0  0  0
   47.2070   32.6110   44.8290 N   0  0  0  0  0  0  0  0  0  0  0  0
   46.2170   32.7620   45.7060 C   0  0  0  0  0  0  0  0  0  0  0  0
   45.3290   33.7280   45.5120 N   0  0  0  0  0  0  0  0  0  0  0  0
   45.9160   32.0050   46.9230 C   0  0  0  0  0  0  0  0  0  0  0  0
   45.9610   32.5550   48.2100 C   0  0  0  0  0  0  0  0  0  0  0  0
   45.6860   31.8680   49.3590 C   0  0  0  0  0  0  0  0  0  0  0  0
   45.3330   30.5410   49.2950 C   0  0  0  0  0  0  0  0  0  0  0  0
   45.2690   29.9330   48.0630 C   0  0  0  0  0  0  0  0  0  0  0  0
   44.9150   28.6200   48.0710 C   0  0  0  0  0  0  0  0  0  0  0  0
   44.8250   27.9340   46.8790 C   0  0  0  0  0  0  0  0  0  0  0  0
   45.1050   28.6360   45.7240 C   0  0  0  0  0  0  0  0  0  0  0  0
   45.4590   29.9650   45.7860 C   0  0  0  0  0  0  0  0  0  0  0  0
   45.5580   30.6760   46.9400 C   0  0  0  0  0  0  0  0  0  0  0  0
   46.4540   35.3570   42.3710 C   0  0  0  0  0  0  0  0  0  0  0  0
   45.7360   36.4760   42.7850 F   0  0  0  0  0  0  0  0  0  0  0  0
   45.8230   34.7490   41.3070 F   0  0  0  0  0  0  0  0  0  0  0  0
   47.7810   35.6540   42.0800 F   0  0  0  0  0  0  0  0  0  0  0  0
   44.6493   35.3483   44.3183 H   0  0  0  0  0  0  0  0  0  0  0  0
   48.1738   33.2452   43.0503 H   0  0  0  0  0  0  0  0  0  0  0  0
   46.2374   33.6157   48.3028 H   0  0  0  0  0  0  0  0  0  0  0  0
   45.7470   32.3758   50.3329 H   0  0  0  0  0  0  0  0  0  0  0  0
   45.1061   29.9764   50.2114 H   0  0  0  0  0  0  0  0  0  0  0  0
   44.7021   28.1093   49.0217 H   0  0  0  0  0  0  0  0  0  0  0  0
   44.5419   26.8715   46.8493 H   0  0  0  0  0  0  0  0  0  0  0  0
   45.0450   28.1308   44.7487 H   0  0  0  0  0  0  0  0  0  0  0  0
   45.6756   30.4847   44.8410 H   0  0  0  0  0  0  0  0  0  0  0  0
  1  6  2  0
  2  3  2  0
  2  1  1  0
  3  4  1  0
  4  5  2  0
  5  7  1  0
  6  5  1  0
  7 16  1  0
  7  8  2  0
  8  9  1  0
 10  9  2  0
 11 12  2  0
 11 10  1  0
 13 12  1  0
 14 15  1  0
 14 13  2  0
 15 16  2  0
 16 11  1  0
 17 18  1  0
 17  2  1  0
 19 17  1  0
 20 17  1  0
  1 21  1  0
  3 22  1  0
  8 23  1  0
  9 24  1  0
 10 25  1  0
 12 26  1  0
 13 27  1  0
 14 28  1  0
 15 29  1  0
M  ISO  8  21  14  22  14  23  14  24  14  25  14  26  14  27  14  28  14
M  ISO  1  29  14
M  END
>  <minimizedAffinity>  (1) 
-6.04194117

>  <minimizedRMSD>  (1) 
1.18842125

$$$$
