
     RDKit          3D

 27 29  0  0  0  0  0  0  0  0999 V2000
   48.1310   32.5820   41.8010 C   0  0  0  0  0  0  0  0  0  0  0  0
   47.8130   33.9040   41.4830 C   0  0  0  0  0  0  0  0  0  0  0  0
   47.2070   34.6660   42.4920 C   0  0  0  0  0  0  0  0  0  0  0  0
   46.9650   34.0920   43.7020 N   0  0  0  0  0  0  0  0  0  0  0  0
   47.2950   32.8090   43.9500 C   0  0  0  0  0  0  0  0  0  0  0  0
   47.8800   32.0420   43.0050 N   0  0  0  0  0  0  0  0  0  0  0  0
   47.3960   30.9470   45.5580 C   0  0  0  0  0  0  0  0  0  0  0  0
   47.0140   32.2400   45.2620 C   0  0  0  0  0  0  0  0  0  0  0  0
   46.3640   32.9940   46.2160 C   0  0  0  0  0  0  0  0  0  0  0  0
   46.1270   32.3950   47.4410 C   0  0  0  0  0  0  0  0  0  0  0  0
   45.5260   32.8620   48.5560 N   0  0  0  0  0  0  0  0  0  0  0  0
   45.5220   31.9100   49.5260 C   0  0  0  0  0  0  0  0  0  0  0  0
   46.1340   30.8020   49.0330 C   0  0  0  0  0  0  0  0  0  0  0  0
   46.5140   31.0970   47.7330 C   0  0  0  0  0  0  0  0  0  0  0  0
   47.1700   30.3400   46.7680 C   0  0  0  0  0  0  0  0  0  0  0  0
   48.1390   34.3840   40.1230 C   0  0  0  0  0  0  0  0  0  0  0  0
   46.9580   34.3650   39.4100 F   0  0  0  0  0  0  0  0  0  0  0  0
   49.0440   33.5080   39.5660 F   0  0  0  0  0  0  0  0  0  0  0  0
   48.6850   35.6580   40.2390 F   0  0  0  0  0  0  0  0  0  0  0  0
   48.6076   31.9558   41.0324 H   0  0  0  0  0  0  0  0  0  0  0  0
   46.9306   35.7147   42.3079 H   0  0  0  0  0  0  0  0  0  0  0  0
   47.9123   30.3687   44.7776 H   0  0  0  0  0  0  0  0  0  0  0  0
   46.0473   34.0275   46.0122 H   0  0  0  0  0  0  0  0  0  0  0  0
   45.1270   33.8061   48.6573 H   0  0  0  0  0  0  0  0  0  0  0  0
   45.0971   32.0180   50.5349 H   0  0  0  0  0  0  0  0  0  0  0  0
   46.2969   29.8524   49.5638 H   0  0  0  0  0  0  0  0  0  0  0  0
   47.4915   29.3066   46.9648 H   0  0  0  0  0  0  0  0  0  0  0  0
  1  6  2  0
  2  1  1  0
  2  3  2  0
  3  4  1  0
  4  5  2  0
  5  8  1  0
  6  5  1  0
  7 15  2  0
  8  7  1  0
  8  9  2  0
  9 10  1  0
 10 14  2  0
 10 11  1  0
 11 12  1  0
 13 12  2  0
 14 13  1  0
 15 14  1  0
 16 19  1  0
 16  2  1  0
 17 16  1  0
 18 16  1  0
  1 20  1  0
  3 21  1  0
  7 22  1  0
  9 23  1  0
 11 24  1  0
 12 25  1  0
 13 26  1  0
 15 27  1  0
M  ISO  8  20  14  21  14  22  14  23  14  24   9  25  14  26  14  27  14
M  END
>  <minimizedAffinity>  (1) 
-5.54117775

>  <minimizedRMSD>  (1) 
3.20007753

$$$$
