
     RDKit          3D

 28 29  0  0  0  0  0  0  0  0999 V2000
   44.7860   34.9820   45.5460 C   0  0  0  0  0  0  0  0  0  0  0  0
   45.4320   34.9840   44.3140 C   0  0  0  0  0  0  0  0  0  0  0  0
   46.3110   33.9380   44.0460 C   0  0  0  0  0  0  0  0  0  0  0  0
   46.5090   32.9670   44.9770 N   0  0  0  0  0  0  0  0  0  0  0  0
   45.8600   33.0060   46.1610 C   0  0  0  0  0  0  0  0  0  0  0  0
   45.0120   33.9930   46.4510 N   0  0  0  0  0  0  0  0  0  0  0  0
   46.0960   31.9700   47.1070 N   0  0  0  0  0  0  0  0  0  0  0  0
   46.3170   32.2990   48.5140 C   0  0  0  0  0  0  0  0  0  0  0  0
   45.4590   31.4860   49.4250 C   0  0  0  0  0  0  0  0  0  0  0  0
   45.0820   30.1460   48.8510 C   0  0  0  0  0  0  0  0  0  0  0  0
   46.1750   29.6800   47.8920 C   0  0  0  0  0  0  0  0  0  0  0  0
   46.1200   30.5810   46.6890 C   0  0  0  0  0  0  0  0  0  0  0  0
   45.1230   36.1020   43.3970 C   0  0  0  0  0  0  0  0  0  0  0  0
   44.9790   37.2350   44.1930 F   0  0  0  0  0  0  0  0  0  0  0  0
   43.9640   35.8360   42.7230 F   0  0  0  0  0  0  0  0  0  0  0  0
   46.2080   36.2370   42.5100 F   0  0  0  0  0  0  0  0  0  0  0  0
   44.0828   35.7916   45.7912 H   0  0  0  0  0  0  0  0  0  0  0  0
   46.8435   33.8973   43.0843 H   0  0  0  0  0  0  0  0  0  0  0  0
   47.3725   32.1110   48.7601 H   0  0  0  0  0  0  0  0  0  0  0  0
   46.0544   33.3574   48.6584 H   0  0  0  0  0  0  0  0  0  0  0  0
   46.0060   31.3216   50.3651 H   0  0  0  0  0  0  0  0  0  0  0  0
   44.5260   32.0476   49.5806 H   0  0  0  0  0  0  0  0  0  0  0  0
   44.9726   29.4152   49.6659 H   0  0  0  0  0  0  0  0  0  0  0  0
   44.1293   30.2335   48.3081 H   0  0  0  0  0  0  0  0  0  0  0  0
   47.1598   29.7564   48.3762 H   0  0  0  0  0  0  0  0  0  0  0  0
   46.0210   28.6300   47.6026 H   0  0  0  0  0  0  0  0  0  0  0  0
   45.2114   30.3596   46.1099 H   0  0  0  0  0  0  0  0  0  0  0  0
   47.0112   30.4073   46.0681 H   0  0  0  0  0  0  0  0  0  0  0  0
  1  6  2  0
  2  1  1  0
  3  2  2  0
  3  4  1  0
  4  5  2  0
  5  6  1  0
  5  7  1  0
  7  8  1  0
  8  9  1  0
 10  9  1  0
 11 10  1  0
 12  7  1  0
 12 11  1  0
 13 14  1  0
 13  2  1  0
 15 13  1  0
 16 13  1  0
  1 17  1  0
  3 18  1  0
  8 19  1  0
  8 20  1  0
  9 21  1  0
  9 22  1  0
 10 23  1  0
 10 24  1  0
 11 25  1  0
 11 26  1  0
 12 27  1  0
 12 28  1  0
M  ISO  8  17  14  18  14  19  13  20  13  21  13  22  13  23  13  24  13
M  ISO  4  25  13  26  13  27  13  28  13
M  END
>  <minimizedAffinity>  (1) 
-5.53649569

>  <minimizedRMSD>  (1) 
1.01034832

$$$$
