
     RDKit          3D

 23 24  0  0  0  0  0  0  0  0999 V2000
   45.1840   34.7850   44.6260 C   0  0  0  0  0  0  0  0  0  0  0  0
   46.1690   34.6260   43.6380 C   0  0  0  0  0  0  0  0  0  0  0  0
   47.1180   33.6320   43.8190 C   0  0  0  0  0  0  0  0  0  0  0  0
   47.0610   32.8520   44.9390 N   0  0  0  0  0  0  0  0  0  0  0  0
   46.0910   33.0410   45.8700 C   0  0  0  0  0  0  0  0  0  0  0  0
   45.1590   33.9960   45.7230 N   0  0  0  0  0  0  0  0  0  0  0  0
   47.5460   30.3880   45.5180 Cl  0  0  0  0  0  0  0  0  0  0  0  0
   46.7450   30.9310   46.9760 C   0  0  0  0  0  0  0  0  0  0  0  0
   46.1080   32.1550   47.0450 C   0  0  0  0  0  0  0  0  0  0  0  0
   45.4720   32.5970   48.1870 C   0  0  0  0  0  0  0  0  0  0  0  0
   45.4660   31.7840   49.3250 C   0  0  0  0  0  0  0  0  0  0  0  0
   46.1170   30.5730   49.1980 C   0  0  0  0  0  0  0  0  0  0  0  0
   46.7680   30.0780   48.0860 C   0  0  0  0  0  0  0  0  0  0  0  0
   46.0950   35.5530   42.4760 C   0  0  0  0  0  0  0  0  0  0  0  0
   45.5140   36.7140   42.9280 F   0  0  0  0  0  0  0  0  0  0  0  0
   45.3230   34.9630   41.5010 F   0  0  0  0  0  0  0  0  0  0  0  0
   47.3920   35.7500   42.0130 F   0  0  0  0  0  0  0  0  0  0  0  0
   44.4188   35.5659   44.5049 H   0  0  0  0  0  0  0  0  0  0  0  0
   47.9075   33.4732   43.0697 H   0  0  0  0  0  0  0  0  0  0  0  0
   44.9751   33.5782   48.2022 H   0  0  0  0  0  0  0  0  0  0  0  0
   44.9746   32.0895   50.2605 H   0  0  0  0  0  0  0  0  0  0  0  0
   46.1168   29.9264   50.0879 H   0  0  0  0  0  0  0  0  0  0  0  0
   47.2632   29.0959   48.0730 H   0  0  0  0  0  0  0  0  0  0  0  0
  1  6  2  0
  2  3  2  0
  2  1  1  0
  3  4  1  0
  4  5  2  0
  5  9  1  0
  6  5  1  0
  7  8  1  0
  8  9  2  0
  8 13  1  0
  9 10  1  0
 10 11  2  0
 12 11  1  0
 13 12  2  0
 14 15  1  0
 14  2  1  0
 16 14  1  0
 17 14  1  0
  1 18  1  0
  3 19  1  0
 10 20  1  0
 11 21  1  0
 12 22  1  0
 13 23  1  0
M  ISO  6  18  14  19  14  20  14  21  14  22  14  23  14
M  END
>  <minimizedAffinity>  (1) 
-5.31260109

>  <minimizedRMSD>  (1) 
0.60088861

$$$$
