
     RDKit          3D

 20 21  0  0  0  0  0  0  0  0999 V2000
   44.6700   35.2360   45.1130 C   0  0  0  0  0  0  0  0  0  0  0  0
   45.3200   34.9970   43.9050 C   0  0  0  0  0  0  0  0  0  0  0  0
   46.2200   33.9300   43.8290 C   0  0  0  0  0  0  0  0  0  0  0  0
   46.4190   33.1700   44.9440 N   0  0  0  0  0  0  0  0  0  0  0  0
   45.7730   33.4270   46.0990 C   0  0  0  0  0  0  0  0  0  0  0  0
   44.9060   34.4480   46.1900 N   0  0  0  0  0  0  0  0  0  0  0  0
   46.0170   32.5820   47.2800 C   0  0  0  0  0  0  0  0  0  0  0  0
   45.0670   32.2220   48.2020 C   0  0  0  0  0  0  0  0  0  0  0  0
   45.4130   31.4280   49.2640 C   0  0  0  0  0  0  0  0  0  0  0  0
   46.8040   31.0140   49.3400 C   0  0  0  0  0  0  0  0  0  0  0  0
   47.5240   31.8480   47.7930 S   0  0  0  0  0  0  0  0  0  0  0  0
   44.9950   35.9150   42.7810 C   0  0  0  0  0  0  0  0  0  0  0  0
   45.2710   37.1980   43.2280 F   0  0  0  0  0  0  0  0  0  0  0  0
   43.6820   35.7800   42.4520 F   0  0  0  0  0  0  0  0  0  0  0  0
   45.8180   35.5610   41.6990 F   0  0  0  0  0  0  0  0  0  0  0  0
   43.9590   36.0714   45.1938 H   0  0  0  0  0  0  0  0  0  0  0  0
   46.7544   33.7088   42.8933 H   0  0  0  0  0  0  0  0  0  0  0  0
   44.0296   32.5700   48.0890 H   0  0  0  0  0  0  0  0  0  0  0  0
   44.6758   31.1199   50.0200 H   0  0  0  0  0  0  0  0  0  0  0  0
   47.3052   30.3863   50.0915 H   0  0  0  0  0  0  0  0  0  0  0  0
  1  6  2  0
  2  1  1  0
  3  2  2  0
  3  4  1  0
  4  5  2  0
  5  6  1  0
  5  7  1  0
  7 11  1  0
  7  8  2  0
  8  9  1  0
  9 10  2  0
 11 10  1  0
 12 13  1  0
 12  2  1  0
 14 12  1  0
 15 12  1  0
  1 16  1  0
  3 17  1  0
  8 18  1  0
  9 19  1  0
 10 20  1  0
M  ISO  5  16  14  17  14  18  14  19  14  20  14
M  END
>  <minimizedAffinity>  (1) 
-5.00128317

>  <minimizedRMSD>  (1) 
0.70670408

$$$$
