
     RDKit          3D

 26 28  0  0  0  0  0  0  0  0999 V2000
   47.3030   34.4440   42.6080 C   0  0  0  0  0  0  0  0  0  0  0  0
   47.8770   33.6670   41.6050 C   0  0  0  0  0  0  0  0  0  0  0  0
   48.1300   32.3300   41.9070 C   0  0  0  0  0  0  0  0  0  0  0  0
   47.8160   31.8470   43.1360 N   0  0  0  0  0  0  0  0  0  0  0  0
   47.2610   32.6460   44.0720 C   0  0  0  0  0  0  0  0  0  0  0  0
   47.0030   33.9320   43.8240 N   0  0  0  0  0  0  0  0  0  0  0  0
   47.6500   30.9950   45.8600 C   0  0  0  0  0  0  0  0  0  0  0  0
   46.9430   32.0780   45.3780 C   0  0  0  0  0  0  0  0  0  0  0  0
   45.9380   32.6000   46.1600 C   0  0  0  0  0  0  0  0  0  0  0  0
   45.6080   32.0910   47.3980 C   0  0  0  0  0  0  0  0  0  0  0  0
   44.7200   32.3500   48.3790 N   0  0  0  0  0  0  0  0  0  0  0  0
   44.8800   31.4720   49.4010 C   0  0  0  0  0  0  0  0  0  0  0  0
   45.8920   30.6490   49.0420 N   0  0  0  0  0  0  0  0  0  0  0  0
   46.3460   31.0100   47.8270 C   0  0  0  0  0  0  0  0  0  0  0  0
   47.3590   30.4440   47.0990 C   0  0  0  0  0  0  0  0  0  0  0  0
   48.1680   34.3270   40.3060 C   0  0  0  0  0  0  0  0  0  0  0  0
   48.7010   35.5620   40.6230 F   0  0  0  0  0  0  0  0  0  0  0  0
   46.9910   34.4720   39.6200 F   0  0  0  0  0  0  0  0  0  0  0  0
   49.0530   33.5160   39.6090 F   0  0  0  0  0  0  0  0  0  0  0  0
   47.0875   35.5036   42.4061 H   0  0  0  0  0  0  0  0  0  0  0  0
   48.5821   31.6692   41.1527 H   0  0  0  0  0  0  0  0  0  0  0  0
   48.4575   30.5618   45.2515 H   0  0  0  0  0  0  0  0  0  0  0  0
   45.3719   33.4631   45.7797 H   0  0  0  0  0  0  0  0  0  0  0  0
   44.0206   33.1058   48.3559 H   0  0  0  0  0  0  0  0  0  0  0  0
   44.3016   31.4364   50.3360 H   0  0  0  0  0  0  0  0  0  0  0  0
   47.9227   29.5815   47.4842 H   0  0  0  0  0  0  0  0  0  0  0  0
  1  6  2  0
  2  3  2  0
  2  1  1  0
  3  4  1  0
  4  5  2  0
  5  8  1  0
  6  5  1  0
  7 15  2  0
  8  7  1  0
  8  9  2  0
  9 10  1  0
 10 14  2  0
 10 11  1  0
 11 12  1  0
 13 12  2  0
 14 13  1  0
 15 14  1  0
 16 17  1  0
 16  2  1  0
 18 16  1  0
 19 16  1  0
  1 20  1  0
  3 21  1  0
  7 22  1  0
  9 23  1  0
 11 24  1  0
 12 25  1  0
 15 26  1  0
M  ISO  7  20  14  21  14  22  14  23  14  24   9  25  14  26  14
M  END
>  <minimizedAffinity>  (1) 
-5.12055683

>  <minimizedRMSD>  (1) 
2.90719748

$$$$
