
     RDKit          3D

 36 39  0  0  0  0  0  0  0  0999 V2000
   47.8180   31.2840   46.2020 C   0  0  0  0  0  0  0  0  0  0  0  0
   46.9570   32.1770   45.6000 C   0  0  0  0  0  0  0  0  0  0  0  0
   45.8180   32.5490   46.2840 C   0  0  0  0  0  0  0  0  0  0  0  0
   45.5100   32.0640   47.5340 C   0  0  0  0  0  0  0  0  0  0  0  0
   44.5240   32.2100   48.4470 N   0  0  0  0  0  0  0  0  0  0  0  0
   44.7720   31.4510   49.5330 C   0  0  0  0  0  0  0  0  0  0  0  0
   45.9390   30.8170   49.2950 N   0  0  0  0  0  0  0  0  0  0  0  0
   46.4040   31.1750   48.0870 C   0  0  0  0  0  0  0  0  0  0  0  0
   47.5430   30.7740   47.4560 C   0  0  0  0  0  0  0  0  0  0  0  0
   49.6160   31.6770   49.0970 F   0  0  0  0  0  0  0  0  0  0  0  0
   49.5250   30.3790   48.7970 C   0  0  0  0  0  0  0  0  0  0  0  0
   48.5270   29.8370   47.9890 C   0  0  0  0  0  0  0  0  0  0  0  0
   48.4200   28.4980   47.6720 C   0  0  0  0  0  0  0  0  0  0  0  0
   49.3770   27.6210   48.1940 C   0  0  0  0  0  0  0  0  0  0  0  0
   50.3640   28.1670   48.9960 C   0  0  0  0  0  0  0  0  0  0  0  0
   50.4760   29.5110   49.3190 C   0  0  0  0  0  0  0  0  0  0  0  0
   47.1490   34.4290   42.7230 C   0  0  0  0  0  0  0  0  0  0  0  0
   47.8290   33.6810   41.7780 C   0  0  0  0  0  0  0  0  0  0  0  0
   48.2160   32.3900   42.1580 C   0  0  0  0  0  0  0  0  0  0  0  0
   47.9160   31.9420   43.4010 N   0  0  0  0  0  0  0  0  0  0  0  0
   47.2550   32.7080   44.2790 C   0  0  0  0  0  0  0  0  0  0  0  0
   46.8680   33.9440   43.9540 N   0  0  0  0  0  0  0  0  0  0  0  0
   48.0940   34.2920   40.4530 C   0  0  0  0  0  0  0  0  0  0  0  0
   48.5860   35.5510   40.7160 F   0  0  0  0  0  0  0  0  0  0  0  0
   46.8920   34.3970   39.7860 F   0  0  0  0  0  0  0  0  0  0  0  0
   48.9720   33.4780   39.7590 F   0  0  0  0  0  0  0  0  0  0  0  0
   48.7341   30.9742   45.6778 H   0  0  0  0  0  0  0  0  0  0  0  0
   45.1278   33.2627   45.8104 H   0  0  0  0  0  0  0  0  0  0  0  0
   43.6994   32.8158   48.3294 H   0  0  0  0  0  0  0  0  0  0  0  0
   44.1471   31.3655   50.4342 H   0  0  0  0  0  0  0  0  0  0  0  0
   47.6068   28.1314   47.0283 H   0  0  0  0  0  0  0  0  0  0  0  0
   49.3463   26.5432   47.9762 H   0  0  0  0  0  0  0  0  0  0  0  0
   51.1184   27.4815   49.4094 H   0  0  0  0  0  0  0  0  0  0  0  0
   51.2880   29.8764   49.9648 H   0  0  0  0  0  0  0  0  0  0  0  0
   46.8273   35.4488   42.4653 H   0  0  0  0  0  0  0  0  0  0  0  0
   48.7596   31.7443   41.4526 H   0  0  0  0  0  0  0  0  0  0  0  0
  1  9  2  0
  2  1  1  0
  2  3  2  0
  3  4  1  0
  4  8  2  0
  4  5  1  0
  5  6  1  0
  7  6  2  0
  8  7  1  0
  9 12  1  0
  9  8  1  0
 11 10  1  0
 11 16  2  0
 12 11  1  0
 13 12  2  0
 13 14  1  0
 14 15  2  0
 15 16  1  0
 17 22  2  0
 18 19  2  0
 18 17  1  0
 19 20  1  0
 20 21  2  0
 21  2  1  0
 22 21  1  0
 23 24  1  0
 23 18  1  0
 25 23  1  0
 26 23  1  0
  1 27  1  0
  3 28  1  0
  5 29  1  0
  6 30  1  0
 13 31  1  0
 14 32  1  0
 15 33  1  0
 16 34  1  0
 17 35  1  0
 19 36  1  0
M  ISO  8  27  14  28  14  29   9  30  14  31  14  32  14  33  14  34  14
M  ISO  2  35  14  36  14
M  END
>  <minimizedAffinity>  (1) 
-5.98196173

>  <minimizedRMSD>  (1) 
0.872121751

$$$$
