
     RDKit          3D

 36 39  0  0  1  0  0  0  0  0999 V2000
   48.0510   33.2490   43.1890 N   0  0  0  0  0  0  0  0  0  0  0  0
   49.2180   33.3060   42.4350 C   0  0  0  0  0  0  0  0  0  0  0  0
   50.3800   32.9000   42.6910 O   0  0  0  0  0  0  0  0  0  0  0  0
   46.2920   32.1100   44.4930 C   0  0  1  0  0  0  0  0  0  0  0  0
   46.4420   31.3640   43.3190 C   0  0  0  0  0  0  0  0  0  0  0  0
   47.6650   32.1060   43.9380 C   0  0  1  0  0  0  0  0  0  0  0  0
   45.0560   33.9790   43.1740 C   0  0  0  0  0  0  0  0  0  0  0  0
   45.5430   33.4470   44.4120 C   0  0  0  0  0  0  0  0  0  0  0  0
   45.3400   34.1960   45.5610 C   0  0  0  0  0  0  0  0  0  0  0  0
   44.7020   35.3800   45.4620 N   0  0  0  0  0  0  0  0  0  0  0  0
   44.2430   35.8740   44.2720 C   0  0  0  0  0  0  0  0  0  0  0  0
   44.4330   35.1430   43.1040 N   0  0  0  0  0  0  0  0  0  0  0  0
   49.1780   33.9440   41.0560 C   0  0  2  0  0  0  0  0  0  0  0  0
   48.6540   35.4240   40.9890 C   0  0  0  0  0  0  0  0  0  0  0  0
   47.9100   34.2610   40.4000 C   0  0  1  0  0  0  0  0  0  0  0  0
   47.8570   34.1710   38.8930 C   0  0  0  0  0  0  0  0  0  0  0  0
   48.6170   34.8370   38.2020 O   0  0  0  0  0  0  0  0  0  0  0  0
   46.8890   33.2790   38.2570 C   0  0  0  0  0  0  0  0  0  0  0  0
   46.2340   32.2250   38.7480 N   0  0  0  0  0  0  0  0  0  0  0  0
   45.4300   31.6800   37.8200 C   0  0  0  0  0  0  0  0  0  0  0  0
   45.5830   32.4120   36.7180 N   0  0  0  0  0  0  0  0  0  0  0  0
   46.4470   33.3510   36.9930 N   0  0  0  0  0  0  0  0  0  0  0  0
   47.4369   34.0758   43.2050 H   0  0  0  0  0  0  0  0  0  0  0  0
   45.8687   31.8502   45.4745 H   0  0  0  0  0  0  0  0  0  0  0  0
   45.9988   31.7228   42.3783 H   0  0  0  0  0  0  0  0  0  0  0  0
   46.2287   30.3263   43.0228 H   0  0  0  0  0  0  0  0  0  0  0  0
   48.6696   31.8747   44.3216 H   0  0  0  0  0  0  0  0  0  0  0  0
   45.2054   33.3996   42.2510 H   0  0  0  0  0  0  0  0  0  0  0  0
   45.6933   33.8307   46.5366 H   0  0  0  0  0  0  0  0  0  0  0  0
   43.7262   36.8445   44.2388 H   0  0  0  0  0  0  0  0  0  0  0  0
   50.0698   33.3829   40.7400 H   0  0  0  0  0  0  0  0  0  0  0  0
   48.2804   35.9259   41.8937 H   0  0  0  0  0  0  0  0  0  0  0  0
   49.0383   36.3890   40.6271 H   0  0  0  0  0  0  0  0  0  0  0  0
   46.8864   33.8767   40.5208 H   0  0  0  0  0  0  0  0  0  0  0  0
   44.7761   30.8044   37.9453 H   0  0  0  0  0  0  0  0  0  0  0  0
   45.1078   32.2646   35.8161 H   0  0  0  0  0  0  0  0  0  0  0  0
  1  6  1  0
  2  3  2  0
  2  1  1  0
  5  6  1  0
  5  4  1  0
  6  4  1  0
  7  8  2  0
  8  4  1  0
  8  9  1  0
 10  9  2  0
 11 10  1  0
 12  7  1  0
 12 11  2  0
 13  2  1  0
 14 13  1  0
 15 14  1  0
 15 13  1  0
 16 15  1  0
 17 16  2  0
 18 19  1  0
 18 16  1  0
 20 19  2  0
 21 22  1  0
 21 20  1  0
 22 18  2  0
  1 23  1  0
  4 24  1  1
  5 25  1  0
  5 26  1  0
  6 27  1  1
  7 28  1  0
  9 29  1  0
 11 30  1  0
 13 31  1  6
 14 32  1  0
 14 33  1  0
 15 34  1  1
 20 35  1  0
 21 36  1  0
M  ISO  8  24  13  25  13  26  13  27  13  28  14  29  14  30  14  31  13
M  ISO  5  32  13  33  13  34  13  35  14  36   9
M  END
>  <minimizedAffinity>  (1) 
-4.74641418

>  <minimizedRMSD>  (1) 
0.154983073

$$$$
