
     RDKit          3D

 33 36  0  0  0  0  0  0  0  0999 V2000
   47.4720   30.9090   45.7360 C   0  0  0  0  0  0  0  0  0  0  0  0
   47.0430   32.1600   45.3800 C   0  0  0  0  0  0  0  0  0  0  0  0
   46.3340   32.8990   46.3140 C   0  0  0  0  0  0  0  0  0  0  0  0
   46.0470   32.4260   47.5770 C   0  0  0  0  0  0  0  0  0  0  0  0
   45.4070   32.8660   48.6830 N   0  0  0  0  0  0  0  0  0  0  0  0
   45.4520   31.9260   49.6470 C   0  0  0  0  0  0  0  0  0  0  0  0
   46.1350   30.8780   49.1330 N   0  0  0  0  0  0  0  0  0  0  0  0
   46.5050   31.1660   47.8750 C   0  0  0  0  0  0  0  0  0  0  0  0
   47.2040   30.3990   46.9960 C   0  0  0  0  0  0  0  0  0  0  0  0
   47.2960   34.4500   42.5300 C   0  0  0  0  0  0  0  0  0  0  0  0
   47.8610   33.6400   41.5350 C   0  0  0  0  0  0  0  0  0  0  0  0
   48.1410   32.3150   41.8820 C   0  0  0  0  0  0  0  0  0  0  0  0
   47.8580   31.8850   43.1370 N   0  0  0  0  0  0  0  0  0  0  0  0
   47.3100   32.7200   44.0570 C   0  0  0  0  0  0  0  0  0  0  0  0
   47.0300   33.9820   43.7710 N   0  0  0  0  0  0  0  0  0  0  0  0
   48.1130   34.2540   40.2040 C   0  0  0  0  0  0  0  0  0  0  0  0
   48.5960   35.5120   40.4580 F   0  0  0  0  0  0  0  0  0  0  0  0
   46.9010   34.3380   39.5500 F   0  0  0  0  0  0  0  0  0  0  0  0
   48.9880   33.4370   39.5180 F   0  0  0  0  0  0  0  0  0  0  0  0
   47.6670   29.0650   47.3620 C   0  0  0  0  0  0  0  0  0  0  0  0
   48.9510   28.6950   47.6980 C   0  0  0  0  0  0  0  0  0  0  0  0
   48.9070   27.3420   47.9660 C   0  0  0  0  0  0  0  0  0  0  0  0
   47.6270   26.9200   47.7920 N   0  0  0  0  0  0  0  0  0  0  0  0
   46.8960   27.9660   47.4290 N   0  0  0  0  0  0  0  0  0  0  0  0
   48.0362   30.3018   45.0128 H   0  0  0  0  0  0  0  0  0  0  0  0
   45.9858   33.9047   46.0361 H   0  0  0  0  0  0  0  0  0  0  0  0
   44.9516   33.7852   48.7754 H   0  0  0  0  0  0  0  0  0  0  0  0
   45.0180   31.9970   50.6553 H   0  0  0  0  0  0  0  0  0  0  0  0
   47.0617   35.4986   42.2943 H   0  0  0  0  0  0  0  0  0  0  0  0
   48.5856   31.6291   41.1459 H   0  0  0  0  0  0  0  0  0  0  0  0
   49.8350   29.3480   47.7435 H   0  0  0  0  0  0  0  0  0  0  0  0
   49.7589   26.7149   48.2677 H   0  0  0  0  0  0  0  0  0  0  0  0
   47.2844   25.9570   47.9196 H   0  0  0  0  0  0  0  0  0  0  0  0
  1  9  2  0
  2  1  1  0
  2  3  2  0
  3  4  1  0
  4  8  2  0
  4  5  1  0
  5  6  1  0
  7  6  2  0
  8  7  1  0
  9 20  1  0
  9  8  1  0
 10 15  2  0
 11 12  2  0
 11 10  1  0
 12 13  1  0
 13 14  2  0
 14  2  1  0
 15 14  1  0
 16 17  1  0
 16 11  1  0
 18 16  1  0
 19 16  1  0
 20 24  2  0
 20 21  1  0
 21 22  2  0
 23 22  1  0
 24 23  1  0
  1 25  1  0
  3 26  1  0
  5 27  1  0
  6 28  1  0
 10 29  1  0
 12 30  1  0
 21 31  1  0
 22 32  1  0
 23 33  1  0
M  ISO  8  25  14  26  14  27   9  28  14  29  14  30  14  31  14  32  14
M  ISO  1  33   9
M  END
>  <minimizedAffinity>  (1) 
-5.76318598

>  <minimizedRMSD>  (1) 
0.805534303

$$$$
