
     RDKit          3D

 32 34  0  0  0  0  0  0  0  0999 V2000
   47.4610   30.8750   45.6400 C   0  0  0  0  0  0  0  0  0  0  0  0
   47.0490   32.1520   45.3000 C   0  0  0  0  0  0  0  0  0  0  0  0
   46.3730   32.8670   46.2550 C   0  0  0  0  0  0  0  0  0  0  0  0
   46.0880   32.3930   47.5110 C   0  0  0  0  0  0  0  0  0  0  0  0
   45.4740   32.8090   48.6330 N   0  0  0  0  0  0  0  0  0  0  0  0
   45.5040   31.8630   49.5900 C   0  0  0  0  0  0  0  0  0  0  0  0
   46.1680   30.8040   49.0430 N   0  0  0  0  0  0  0  0  0  0  0  0
   46.5250   31.1190   47.7810 C   0  0  0  0  0  0  0  0  0  0  0  0
   47.2060   30.3420   46.8810 C   0  0  0  0  0  0  0  0  0  0  0  0
   47.3210   34.4640   42.4850 C   0  0  0  0  0  0  0  0  0  0  0  0
   47.8740   33.6730   41.4740 C   0  0  0  0  0  0  0  0  0  0  0  0
   48.1380   32.3550   41.8010 C   0  0  0  0  0  0  0  0  0  0  0  0
   47.8660   31.8800   43.0410 N   0  0  0  0  0  0  0  0  0  0  0  0
   47.3290   32.6990   43.9780 C   0  0  0  0  0  0  0  0  0  0  0  0
   47.0560   33.9690   43.7190 N   0  0  0  0  0  0  0  0  0  0  0  0
   48.1260   34.3120   40.1590 C   0  0  0  0  0  0  0  0  0  0  0  0
   48.6380   35.5700   40.4550 F   0  0  0  0  0  0  0  0  0  0  0  0
   46.9430   34.4140   39.4960 F   0  0  0  0  0  0  0  0  0  0  0  0
   49.0370   33.5100   39.4710 F   0  0  0  0  0  0  0  0  0  0  0  0
   47.6910   28.9580   47.1210 C   0  0  0  0  0  0  0  0  0  0  0  0
   49.0940   29.0090   47.6970 C   0  0  0  0  0  0  0  0  0  0  0  0
   48.0059   30.2719   44.8988 H   0  0  0  0  0  0  0  0  0  0  0  0
   46.0385   33.8831   45.9986 H   0  0  0  0  0  0  0  0  0  0  0  0
   45.0362   33.7345   48.7457 H   0  0  0  0  0  0  0  0  0  0  0  0
   45.0809   31.9298   50.6032 H   0  0  0  0  0  0  0  0  0  0  0  0
   47.0941   35.5193   42.2732 H   0  0  0  0  0  0  0  0  0  0  0  0
   48.5738   31.6845   41.0457 H   0  0  0  0  0  0  0  0  0  0  0  0
   47.0207   28.4521   47.8314 H   0  0  0  0  0  0  0  0  0  0  0  0
   47.7033   28.4029   46.1714 H   0  0  0  0  0  0  0  0  0  0  0  0
   49.0396   29.0070   48.7957 H   0  0  0  0  0  0  0  0  0  0  0  0
   49.6623   28.1309   47.3564 H   0  0  0  0  0  0  0  0  0  0  0  0
   49.5971   29.9260   47.3564 H   0  0  0  0  0  0  0  0  0  0  0  0
  1  9  2  0
  2  1  1  0
  2  3  2  0
  3  4  1  0
  4  8  2  0
  4  5  1  0
  5  6  1  0
  7  6  2  0
  8  7  1  0
  9 20  1  0
  9  8  1  0
 10 15  2  0
 11 12  2  0
 11 10  1  0
 12 13  1  0
 13 14  2  0
 14  2  1  0
 15 14  1  0
 16 17  1  0
 16 11  1  0
 18 16  1  0
 19 16  1  0
 20 21  1  0
  1 22  1  0
  3 23  1  0
  5 24  1  0
  6 25  1  0
 10 26  1  0
 12 27  1  0
 20 28  1  0
 20 29  1  0
 21 30  1  0
 21 31  1  0
 21 32  1  0
M  ISO  8  22  14  23  14  24   9  25  14  26  14  27  14  28   8  29   8
M  ISO  3  30   8  31   8  32   8
M  END
>  <minimizedAffinity>  (1) 
-5.31804419

>  <minimizedRMSD>  (1) 
0.518273354

$$$$
