
     RDKit          3D

 32 34  0  0  0  0  0  0  0  0999 V2000
   47.6980   31.0060   46.0140 C   0  0  0  0  0  0  0  0  0  0  0  0
   46.9710   32.0760   45.5380 C   0  0  0  0  0  0  0  0  0  0  0  0
   45.9780   32.5860   46.3340 C   0  0  0  0  0  0  0  0  0  0  0  0
   45.6830   32.0730   47.5820 C   0  0  0  0  0  0  0  0  0  0  0  0
   44.8090   32.3270   48.5820 N   0  0  0  0  0  0  0  0  0  0  0  0
   44.9930   31.4650   49.6040 C   0  0  0  0  0  0  0  0  0  0  0  0
   46.0020   30.6590   49.2320 N   0  0  0  0  0  0  0  0  0  0  0  0
   46.4380   31.0110   48.0050 C   0  0  0  0  0  0  0  0  0  0  0  0
   47.4370   30.4580   47.2630 C   0  0  0  0  0  0  0  0  0  0  0  0
   47.1850   34.4150   42.7330 C   0  0  0  0  0  0  0  0  0  0  0  0
   47.8180   33.6620   41.7430 C   0  0  0  0  0  0  0  0  0  0  0  0
   48.1610   32.3430   42.0730 C   0  0  0  0  0  0  0  0  0  0  0  0
   47.8720   31.8620   43.3100 N   0  0  0  0  0  0  0  0  0  0  0  0
   47.2590   32.6400   44.2220 C   0  0  0  0  0  0  0  0  0  0  0  0
   46.9120   33.9030   43.9560 N   0  0  0  0  0  0  0  0  0  0  0  0
   48.0730   34.3140   40.4330 C   0  0  0  0  0  0  0  0  0  0  0  0
   48.5780   35.5550   40.7370 F   0  0  0  0  0  0  0  0  0  0  0  0
   46.8910   34.4250   39.7670 F   0  0  0  0  0  0  0  0  0  0  0  0
   48.9800   33.5140   39.7350 F   0  0  0  0  0  0  0  0  0  0  0  0
   48.1670   29.3810   47.7460 O   0  0  0  0  0  0  0  0  0  0  0  0
   49.7810   28.0720   49.2930 O   0  0  0  0  0  0  0  0  0  0  0  0
   49.4530   29.4940   48.8320 P   0  0  0  0  0  0  0  0  0  0  0  0
   48.9040   30.3450   50.1970 O   0  0  0  0  0  0  0  0  0  0  0  0
   50.8260   30.2110   48.1950 O   0  0  0  0  0  0  0  0  0  0  0  0
   48.4993   30.5785   45.3934 H   0  0  0  0  0  0  0  0  0  0  0  0
   45.3916   33.4396   45.9631 H   0  0  0  0  0  0  0  0  0  0  0  0
   44.1009   33.0748   48.5660 H   0  0  0  0  0  0  0  0  0  0  0  0
   44.4314   31.4294   50.5492 H   0  0  0  0  0  0  0  0  0  0  0  0
   46.8997   35.4544   42.5132 H   0  0  0  0  0  0  0  0  0  0  0  0
   48.6618   31.7008   41.3335 H   0  0  0  0  0  0  0  0  0  0  0  0
   49.2038   29.8803   51.0182 H   0  0  0  0  0  0  0  0  0  0  0  0
   51.4112   30.5166   48.9327 H   0  0  0  0  0  0  0  0  0  0  0  0
  1  9  2  0
  2  1  1  0
  2  3  2  0
  3  4  1  0
  4  8  2  0
  4  5  1  0
  5  6  1  0
  7  6  2  0
  8  7  1  0
  9 20  1  0
  9  8  1  0
 10 15  2  0
 11 12  2  0
 11 10  1  0
 12 13  1  0
 13 14  2  0
 14  2  1  0
 15 14  1  0
 16 17  1  0
 16 11  1  0
 18 16  1  0
 19 16  1  0
 20 22  1  0
 22 21  2  0
 22 23  1  0
 24 22  1  0
  1 25  1  0
  3 26  1  0
  5 27  1  0
  6 28  1  0
 10 29  1  0
 12 30  1  0
 23 31  1  0
 24 32  1  0
M  ISO  8  25  14  26  14  27   9  28  14  29  14  30  14  31   3  32   3
M  END
>  <minimizedAffinity>  (1) 
-5.67318916

>  <minimizedRMSD>  (1) 
0.261591524

$$$$
