
     RDKit          3D

 36 38  0  0  0  0  0  0  0  0999 V2000
   47.7440   31.0730   46.0810 C   0  0  0  0  0  0  0  0  0  0  0  0
   46.9910   32.1070   45.5840 C   0  0  0  0  0  0  0  0  0  0  0  0
   45.9620   32.5840   46.3670 C   0  0  0  0  0  0  0  0  0  0  0  0
   45.6720   32.0610   47.6140 C   0  0  0  0  0  0  0  0  0  0  0  0
   44.7790   32.2790   48.6010 N   0  0  0  0  0  0  0  0  0  0  0  0
   44.9800   31.4340   49.6240 C   0  0  0  0  0  0  0  0  0  0  0  0
   46.0220   30.6740   49.2650 N   0  0  0  0  0  0  0  0  0  0  0  0
   46.4670   31.0290   48.0490 C   0  0  0  0  0  0  0  0  0  0  0  0
   47.4900   30.5220   47.3220 C   0  0  0  0  0  0  0  0  0  0  0  0
   47.0990   34.4200   42.7480 C   0  0  0  0  0  0  0  0  0  0  0  0
   47.8220   33.7150   41.7940 C   0  0  0  0  0  0  0  0  0  0  0  0
   48.2570   32.4420   42.1610 C   0  0  0  0  0  0  0  0  0  0  0  0
   47.9810   31.9390   43.3860 N   0  0  0  0  0  0  0  0  0  0  0  0
   47.2710   32.6800   44.2720 C   0  0  0  0  0  0  0  0  0  0  0  0
   46.8260   33.9090   43.9760 N   0  0  0  0  0  0  0  0  0  0  0  0
   48.0700   34.3570   40.4800 C   0  0  0  0  0  0  0  0  0  0  0  0
   48.5620   35.5990   40.7770 F   0  0  0  0  0  0  0  0  0  0  0  0
   46.8740   34.4670   39.8220 F   0  0  0  0  0  0  0  0  0  0  0  0
   48.9760   33.5690   39.7870 F   0  0  0  0  0  0  0  0  0  0  0  0
   48.2600   29.4740   47.8180 O   0  0  0  0  0  0  0  0  0  0  0  0
   49.8820   28.2290   49.4010 O   0  0  0  0  0  0  0  0  0  0  0  0
   49.4920   29.6480   48.9610 P   0  0  2  0  0  0  0  0  0  0  0  0
   48.8500   30.4340   50.3200 O   0  0  0  0  0  0  0  0  0  0  0  0
   50.8560   30.4460   48.3830 O   0  0  0  0  0  0  0  0  0  0  0  0
   51.5920   31.3180   49.1950 C   0  0  0  0  0  0  0  0  0  0  0  0
   51.0560   32.2880   49.7870 O   0  0  0  0  0  0  0  0  0  0  0  0
   52.9900   31.0980   49.3500 N   0  0  0  0  0  0  0  0  0  0  0  0
   48.5708   30.6728   45.4758 H   0  0  0  0  0  0  0  0  0  0  0  0
   45.3476   33.4128   45.9853 H   0  0  0  0  0  0  0  0  0  0  0  0
   44.0417   32.9977   48.5733 H   0  0  0  0  0  0  0  0  0  0  0  0
   44.4079   31.3776   50.5618 H   0  0  0  0  0  0  0  0  0  0  0  0
   46.7348   35.4278   42.4998 H   0  0  0  0  0  0  0  0  0  0  0  0
   48.8328   31.8382   41.4441 H   0  0  0  0  0  0  0  0  0  0  0  0
   49.1982   30.0077   51.1429 H   0  0  0  0  0  0  0  0  0  0  0  0
   53.5479   31.7287   49.9431 H   0  0  0  0  0  0  0  0  0  0  0  0
   53.4435   30.3081   48.8690 H   0  0  0  0  0  0  0  0  0  0  0  0
  1  9  2  0
  2  1  1  0
  2  3  2  0
  3  4  1  0
  4  8  2  0
  4  5  1  0
  5  6  1  0
  7  6  2  0
  8  7  1  0
  9 20  1  0
  9  8  1  0
 10 15  2  0
 11 12  2  0
 11 10  1  0
 12 13  1  0
 13 14  2  0
 14  2  1  0
 15 14  1  0
 16 17  1  0
 16 11  1  0
 18 16  1  0
 19 16  1  0
 20 22  1  0
 22 21  2  0
 22 23  1  0
 24 22  1  0
 24 25  1  0
 25 27  1  0
 25 26  2  0
  1 28  1  0
  3 29  1  0
  5 30  1  0
  6 31  1  0
 10 32  1  0
 12 33  1  0
 23 34  1  0
 27 35  1  0
 27 36  1  0
M  ISO  7  28  14  29  14  30   9  31  14  32  14  33  14  34   3
M  END
>  <minimizedAffinity>  (1) 
-5.62469482

>  <minimizedRMSD>  (1) 
1.0370909

$$$$
