
     RDKit          3D

 35 37  0  0  0  0  0  0  0  0999 V2000
   47.7090   31.0350   46.0480 C   0  0  0  0  0  0  0  0  0  0  0  0
   46.9760   32.1030   45.5610 C   0  0  0  0  0  0  0  0  0  0  0  0
   45.9720   32.6000   46.3540 C   0  0  0  0  0  0  0  0  0  0  0  0
   45.6750   32.0740   47.6040 C   0  0  0  0  0  0  0  0  0  0  0  0
   44.7880   32.3180   48.5970 N   0  0  0  0  0  0  0  0  0  0  0  0
   44.9810   31.4460   49.6200 C   0  0  0  0  0  0  0  0  0  0  0  0
   45.9970   30.6600   49.2450 N   0  0  0  0  0  0  0  0  0  0  0  0
   46.4390   31.0220   48.0190 C   0  0  0  0  0  0  0  0  0  0  0  0
   47.4490   30.4800   47.2870 C   0  0  0  0  0  0  0  0  0  0  0  0
   47.0860   34.4110   42.7320 C   0  0  0  0  0  0  0  0  0  0  0  0
   47.8390   33.7110   41.7800 C   0  0  0  0  0  0  0  0  0  0  0  0
   48.2910   32.4440   42.1520 C   0  0  0  0  0  0  0  0  0  0  0  0
   47.9980   31.9480   43.3810 N   0  0  0  0  0  0  0  0  0  0  0  0
   47.2670   32.6700   44.2590 C   0  0  0  0  0  0  0  0  0  0  0  0
   46.8090   33.8940   43.9470 N   0  0  0  0  0  0  0  0  0  0  0  0
   48.0810   34.3780   40.4790 C   0  0  0  0  0  0  0  0  0  0  0  0
   48.5970   35.6060   40.7900 F   0  0  0  0  0  0  0  0  0  0  0  0
   46.9080   34.4790   39.8170 F   0  0  0  0  0  0  0  0  0  0  0  0
   48.9910   33.5710   39.7770 F   0  0  0  0  0  0  0  0  0  0  0  0
   48.1830   29.4090   47.7760 O   0  0  0  0  0  0  0  0  0  0  0  0
   49.7990   28.1120   49.3340 O   0  0  0  0  0  0  0  0  0  0  0  0
   49.4690   29.5330   48.8690 P   0  0  2  0  0  0  0  0  0  0  0  0
   48.8900   30.3680   50.2260 O   0  0  0  0  0  0  0  0  0  0  0  0
   50.8380   30.2450   48.2340 O   0  0  0  0  0  0  0  0  0  0  0  0
   51.5750   30.9640   49.1720 C   0  0  0  0  0  0  0  0  0  0  0  0
   48.5196   30.6169   45.4331 H   0  0  0  0  0  0  0  0  0  0  0  0
   45.3788   33.4493   45.9842 H   0  0  0  0  0  0  0  0  0  0  0  0
   44.0711   33.0574   48.5793 H   0  0  0  0  0  0  0  0  0  0  0  0
   44.4177   31.3960   50.5635 H   0  0  0  0  0  0  0  0  0  0  0  0
   46.7089   35.4134   42.4809 H   0  0  0  0  0  0  0  0  0  0  0  0
   48.8866   31.8455   41.4469 H   0  0  0  0  0  0  0  0  0  0  0  0
   49.2030   29.9166   51.0496 H   0  0  0  0  0  0  0  0  0  0  0  0
   51.2691   30.6656   50.1856 H   0  0  0  0  0  0  0  0  0  0  0  0
   52.6462   30.7543   49.0356 H   0  0  0  0  0  0  0  0  0  0  0  0
   51.3918   32.0400   49.0356 H   0  0  0  0  0  0  0  0  0  0  0  0
  1  9  2  0
  2  1  1  0
  2  3  2  0
  3  4  1  0
  4  8  2  0
  4  5  1  0
  5  6  1  0
  7  6  2  0
  8  7  1  0
  9 20  1  0
  9  8  1  0
 10 15  2  0
 11 12  2  0
 11 10  1  0
 12 13  1  0
 13 14  2  0
 14  2  1  0
 15 14  1  0
 16 17  1  0
 16 11  1  0
 18 16  1  0
 19 16  1  0
 20 22  1  0
 22 21  2  0
 22 23  1  0
 24 22  1  0
 24 25  1  0
  1 26  1  0
  3 27  1  0
  5 28  1  0
  6 29  1  0
 10 30  1  0
 12 31  1  0
 23 32  1  0
 25 33  1  0
 25 34  1  0
 25 35  1  0
M  ISO  8  26  14  27  14  28   9  29  14  30  14  31  14  32   3  33   8
M  ISO  2  34   8  35   8
M  END
>  <minimizedAffinity>  (1) 
-5.58710289

>  <minimizedRMSD>  (1) 
0.264062911

$$$$
