
     RDKit          3D

 42 45  0  0  0  0  0  0  0  0999 V2000
   47.7140   30.9960   45.9970 C   0  0  0  0  0  0  0  0  0  0  0  0
   46.9660   32.0430   45.4810 C   0  0  0  0  0  0  0  0  0  0  0  0
   45.9290   32.5210   46.2310 C   0  0  0  0  0  0  0  0  0  0  0  0
   45.5970   32.0090   47.4710 C   0  0  0  0  0  0  0  0  0  0  0  0
   44.6710   32.2400   48.4320 N   0  0  0  0  0  0  0  0  0  0  0  0
   44.8570   31.3770   49.4670 C   0  0  0  0  0  0  0  0  0  0  0  0
   45.9020   30.6150   49.1340 N   0  0  0  0  0  0  0  0  0  0  0  0
   46.3730   30.9710   47.9320 C   0  0  0  0  0  0  0  0  0  0  0  0
   47.4200   30.4500   47.2350 C   0  0  0  0  0  0  0  0  0  0  0  0
   47.2510   34.3850   42.6890 C   0  0  0  0  0  0  0  0  0  0  0  0
   47.9200   33.6420   41.7190 C   0  0  0  0  0  0  0  0  0  0  0  0
   48.2600   32.3340   42.0590 C   0  0  0  0  0  0  0  0  0  0  0  0
   47.9430   31.8360   43.2810 N   0  0  0  0  0  0  0  0  0  0  0  0
   47.2970   32.6020   44.1720 C   0  0  0  0  0  0  0  0  0  0  0  0
   46.9440   33.8710   43.9000 N   0  0  0  0  0  0  0  0  0  0  0  0
   48.2200   34.2840   40.4130 C   0  0  0  0  0  0  0  0  0  0  0  0
   48.7880   35.5010   40.7400 F   0  0  0  0  0  0  0  0  0  0  0  0
   47.0380   34.4720   39.7500 F   0  0  0  0  0  0  0  0  0  0  0  0
   49.0860   33.4510   39.7070 F   0  0  0  0  0  0  0  0  0  0  0  0
   48.1680   29.4050   47.7480 O   0  0  0  0  0  0  0  0  0  0  0  0
   49.7940   28.1700   49.3560 O   0  0  0  0  0  0  0  0  0  0  0  0
   49.4230   29.5740   48.8760 P   0  0  2  0  0  0  0  0  0  0  0  0
   48.8100   30.4160   50.2140 O   0  0  0  0  0  0  0  0  0  0  0  0
   50.7860   30.3380   48.2540 O   0  0  0  0  0  0  0  0  0  0  0  0
   51.7510   29.5360   47.6270 C   0  0  0  0  0  0  0  0  0  0  0  0
   51.3350   29.1210   46.3570 C   0  0  0  0  0  0  0  0  0  0  0  0
   52.1500   28.3150   45.5690 C   0  0  0  0  0  0  0  0  0  0  0  0
   53.3680   27.9540   46.0990 C   0  0  0  0  0  0  0  0  0  0  0  0
   53.7890   28.3540   47.3460 C   0  0  0  0  0  0  0  0  0  0  0  0
   52.9740   29.1550   48.1220 C   0  0  0  0  0  0  0  0  0  0  0  0
   48.5546   30.5925   45.4135 H   0  0  0  0  0  0  0  0  0  0  0  0
   45.3305   33.3519   45.8293 H   0  0  0  0  0  0  0  0  0  0  0  0
   43.9365   32.9606   48.3861 H   0  0  0  0  0  0  0  0  0  0  0  0
   44.2654   31.3185   50.3925 H   0  0  0  0  0  0  0  0  0  0  0  0
   46.9638   35.4223   42.4619 H   0  0  0  0  0  0  0  0  0  0  0  0
   48.7891   31.7007   41.3317 H   0  0  0  0  0  0  0  0  0  0  0  0
   49.1242   29.9844   51.0477 H   0  0  0  0  0  0  0  0  0  0  0  0
   50.3518   29.4359   45.9773 H   0  0  0  0  0  0  0  0  0  0  0  0
   51.8358   27.9816   44.5689 H   0  0  0  0  0  0  0  0  0  0  0  0
   54.0344   27.3173   45.4986 H   0  0  0  0  0  0  0  0  0  0  0  0
   54.7720   28.0368   47.7242 H   0  0  0  0  0  0  0  0  0  0  0  0
   53.2994   29.4824   49.1205 H   0  0  0  0  0  0  0  0  0  0  0  0
  1  9  2  0
  2  1  1  0
  2  3  2  0
  3  4  1  0
  4  8  2  0
  4  5  1  0
  5  6  1  0
  7  6  2  0
  8  7  1  0
  9 20  1  0
  9  8  1  0
 10 15  2  0
 11 12  2  0
 11 10  1  0
 12 13  1  0
 13 14  2  0
 14  2  1  0
 15 14  1  0
 16 17  1  0
 16 11  1  0
 18 16  1  0
 19 16  1  0
 20 22  1  0
 22 21  2  0
 22 23  1  0
 24 22  1  0
 25 30  1  0
 25 24  1  0
 26 25  2  0
 27 28  2  0
 27 26  1  0
 28 29  1  0
 29 30  2  0
  1 31  1  0
  3 32  1  0
  5 33  1  0
  6 34  1  0
 10 35  1  0
 12 36  1  0
 23 37  1  0
 26 38  1  0
 27 39  1  0
 28 40  1  0
 29 41  1  0
 30 42  1  0
M  ISO  8  31  14  32  14  33   9  34  14  35  14  36  14  37   3  38  14
M  ISO  4  39  14  40  14  41  14  42  14
M  END
>  <minimizedAffinity>  (1) 
-5.57611465

>  <minimizedRMSD>  (1) 
0.726757407

$$$$
