
     RDKit          3D

 35 37  0  0  0  0  0  0  0  0999 V2000
   47.7210   31.0080   46.0310 C   0  0  0  0  0  0  0  0  0  0  0  0
   46.9860   32.0710   45.5400 C   0  0  0  0  0  0  0  0  0  0  0  0
   45.9810   32.5730   46.3400 C   0  0  0  0  0  0  0  0  0  0  0  0
   45.6820   32.0660   47.5880 C   0  0  0  0  0  0  0  0  0  0  0  0
   44.8090   32.3090   48.5820 N   0  0  0  0  0  0  0  0  0  0  0  0
   44.9950   31.4590   49.6010 C   0  0  0  0  0  0  0  0  0  0  0  0
   46.0120   30.6620   49.2400 N   0  0  0  0  0  0  0  0  0  0  0  0
   46.4430   31.0170   48.0170 C   0  0  0  0  0  0  0  0  0  0  0  0
   47.4540   30.4660   47.2830 C   0  0  0  0  0  0  0  0  0  0  0  0
   47.1990   34.4070   42.7420 C   0  0  0  0  0  0  0  0  0  0  0  0
   47.8270   33.6500   41.7460 C   0  0  0  0  0  0  0  0  0  0  0  0
   48.1630   32.3370   42.0760 C   0  0  0  0  0  0  0  0  0  0  0  0
   47.8760   31.8570   43.3130 N   0  0  0  0  0  0  0  0  0  0  0  0
   47.2730   32.6310   44.2260 C   0  0  0  0  0  0  0  0  0  0  0  0
   46.9310   33.8930   43.9620 N   0  0  0  0  0  0  0  0  0  0  0  0
   48.0820   34.3040   40.4320 C   0  0  0  0  0  0  0  0  0  0  0  0
   48.5950   35.5430   40.7380 F   0  0  0  0  0  0  0  0  0  0  0  0
   46.8930   34.4170   39.7720 F   0  0  0  0  0  0  0  0  0  0  0  0
   48.9850   33.4910   39.7320 F   0  0  0  0  0  0  0  0  0  0  0  0
   48.1930   29.4010   47.7710 O   0  0  0  0  0  0  0  0  0  0  0  0
   49.7820   28.1190   49.3670 O   0  0  0  0  0  0  0  0  0  0  0  0
   49.4640   29.5340   48.8870 P   0  0  2  0  0  0  0  0  0  0  0  0
   48.8850   30.3960   50.2240 O   0  0  0  0  0  0  0  0  0  0  0  0
   50.8430   30.2320   48.2560 O   0  0  0  0  0  0  0  0  0  0  0  0
   51.5490   29.4060   47.4130 C   0  0  0  0  0  0  0  0  0  0  0  0
   52.2140   28.4840   48.2010 F   0  0  0  0  0  0  0  0  0  0  0  0
   50.6560   28.7340   46.5810 F   0  0  0  0  0  0  0  0  0  0  0  0
   52.5190   30.0690   46.6630 F   0  0  0  0  0  0  0  0  0  0  0  0
   48.5314   30.5836   45.4202 H   0  0  0  0  0  0  0  0  0  0  0  0
   45.3881   33.4200   45.9644 H   0  0  0  0  0  0  0  0  0  0  0  0
   44.0933   33.0494   48.5625 H   0  0  0  0  0  0  0  0  0  0  0  0
   44.4284   31.4221   50.5431 H   0  0  0  0  0  0  0  0  0  0  0  0
   46.9163   35.4478   42.5254 H   0  0  0  0  0  0  0  0  0  0  0  0
   48.6593   31.6922   41.3358 H   0  0  0  0  0  0  0  0  0  0  0  0
   49.1832   29.9521   51.0572 H   0  0  0  0  0  0  0  0  0  0  0  0
  1  9  2  0
  2  1  1  0
  2  3  2  0
  3  4  1  0
  4  8  2  0
  4  5  1  0
  5  6  1  0
  7  6  2  0
  8  7  1  0
  9 20  1  0
  9  8  1  0
 10 15  2  0
 11 12  2  0
 11 10  1  0
 12 13  1  0
 13 14  2  0
 14  2  1  0
 15 14  1  0
 16 17  1  0
 16 11  1  0
 18 16  1  0
 19 16  1  0
 20 22  1  0
 22 21  2  0
 22 23  1  0
 24 22  1  0
 25 26  1  0
 25 24  1  0
 27 25  1  0
 28 25  1  0
  1 29  1  0
  3 30  1  0
  5 31  1  0
  6 32  1  0
 10 33  1  0
 12 34  1  0
 23 35  1  0
M  ISO  7  29  14  30  14  31   9  32  14  33  14  34  14  35   3
M  END
>  <minimizedAffinity>  (1) 
-5.54851627

>  <minimizedRMSD>  (1) 
0.0642427281

$$$$
