
     RDKit          3D

 25 27  0  0  1  0  0  0  0  0999 V2000
   45.0450   34.1730   42.8440 C   0  0  1  0  0  0  0  0  0  0  0  0
   45.6390   35.6050   42.8440 C   0  0  0  0  0  0  0  0  0  0  0  0
   46.0000   34.5690   41.8320 C   0  0  1  0  0  0  0  0  0  0  0  0
   45.4170   33.4020   44.0470 C   0  0  0  0  0  0  0  0  0  0  0  0
   45.5820   32.0080   43.8990 C   0  0  0  0  0  0  0  0  0  0  0  0
   45.9490   31.2450   45.0260 C   0  0  0  0  0  0  0  0  0  0  0  0
   46.1250   31.9180   46.2130 N   0  0  0  0  0  0  0  0  0  0  0  0
   45.9530   33.2640   46.2940 C   0  0  0  0  0  0  0  0  0  0  0  0
   45.6060   33.9890   45.2310 N   0  0  0  0  0  0  0  0  0  0  0  0
   47.4380   34.1960   41.8850 C   0  0  0  0  0  0  0  0  0  0  0  0
   48.3580   35.0880   42.4460 C   0  0  0  0  0  0  0  0  0  0  0  0
   49.7210   34.8450   42.5480 C   0  0  0  0  0  0  0  0  0  0  0  0
   50.1570   33.6710   42.0670 N   0  0  0  0  0  0  0  0  0  0  0  0
   49.2670   32.8000   41.5210 C   0  0  0  0  0  0  0  0  0  0  0  0
   47.9520   33.0600   41.4350 N   0  0  0  0  0  0  0  0  0  0  0  0
   44.0726   33.6661   42.7575 H   0  0  0  0  0  0  0  0  0  0  0  0
   45.0173   36.4679   42.5631 H   0  0  0  0  0  0  0  0  0  0  0  0
   46.1798   36.2429   43.5585 H   0  0  0  0  0  0  0  0  0  0  0  0
   45.9495   34.4382   40.7410 H   0  0  0  0  0  0  0  0  0  0  0  0
   45.4271   31.5261   42.9224 H   0  0  0  0  0  0  0  0  0  0  0  0
   46.0890   30.1560   44.9592 H   0  0  0  0  0  0  0  0  0  0  0  0
   46.1039   33.7670   47.2605 H   0  0  0  0  0  0  0  0  0  0  0  0
   47.9764   36.0449   42.8317 H   0  0  0  0  0  0  0  0  0  0  0  0
   50.4073   35.5765   42.9994 H   0  0  0  0  0  0  0  0  0  0  0  0
   49.6401   31.8408   41.1329 H   0  0  0  0  0  0  0  0  0  0  0  0
  1  4  1  0
  2  1  1  0
  3 10  1  0
  3  2  1  0
  3  1  1  0
  4  9  1  0
  5  4  2  0
  5  6  1  0
  6  7  2  0
  7  8  1  0
  9  8  2  0
 10 11  2  0
 11 12  1  0
 13 12  2  0
 14 13  1  0
 15 14  2  0
 15 10  1  0
  1 16  1  6
  2 17  1  0
  2 18  1  0
  3 19  1  6
  5 20  1  0
  6 21  1  0
  8 22  1  0
 11 23  1  0
 12 24  1  0
 14 25  1  0
M  ISO  8  16  13  17  13  18  13  19  13  20  14  21  14  22  14  23  14
M  ISO  2  24  14  25  14
M  END
>  <minimizedAffinity>  (1) 
-4.0915885

>  <minimizedRMSD>  (1) 
2.13847494

$$$$
