
     RDKit          3D

 18 19  0  0  1  0  0  0  0  0999 V2000
   45.5880   33.6410   44.5510 C   0  0  0  0  0  0  0  0  0  0  0  0
   46.4150   32.6420   43.9950 C   0  0  0  0  0  0  0  0  0  0  0  0
   47.1490   31.8150   44.8620 C   0  0  0  0  0  0  0  0  0  0  0  0
   47.0110   32.0380   46.2150 N   0  0  0  0  0  0  0  0  0  0  0  0
   46.2000   33.0160   46.6910 C   0  0  0  0  0  0  0  0  0  0  0  0
   45.4940   33.8110   45.8690 N   0  0  0  0  0  0  0  0  0  0  0  0
   44.8290   34.4970   43.6120 C   0  0  1  0  0  0  0  0  0  0  0  0
   44.9210   36.0030   43.9320 C   0  0  0  0  0  0  0  0  0  0  0  0
   45.4500   35.4060   42.6730 C   0  0  1  0  0  0  0  0  0  0  0  0
   46.8310   35.4570   42.4700 O   0  0  0  0  0  0  0  0  0  0  0  0
   46.4837   32.5132   42.9047 H   0  0  0  0  0  0  0  0  0  0  0  0
   47.8068   31.0221   44.4766 H   0  0  0  0  0  0  0  0  0  0  0  0
   46.1182   33.1620   47.7782 H   0  0  0  0  0  0  0  0  0  0  0  0
   44.0675   33.7168   43.4653 H   0  0  0  0  0  0  0  0  0  0  0  0
   44.0197   36.6333   43.9152 H   0  0  0  0  0  0  0  0  0  0  0  0
   45.3226   36.6191   44.7500 H   0  0  0  0  0  0  0  0  0  0  0  0
   45.2866   35.5587   41.5960 H   0  0  0  0  0  0  0  0  0  0  0  0
   47.2928   35.4741   43.3455 H   0  0  0  0  0  0  0  0  0  0  0  0
  1  6  1  0
  2  1  2  0
  2  3  1  0
  3  4  2  0
  4  5  1  0
  6  5  2  0
  7  8  1  0
  7  1  1  0
  9  7  1  0
  9  8  1  0
 10  9  1  0
  2 11  1  0
  3 12  1  0
  5 13  1  0
  7 14  1  6
  8 15  1  0
  8 16  1  0
  9 17  1  6
 10 18  1  0
M  ISO  8  11  14  12  14  13  14  14  13  15  13  16  13  17  13  18   3
M  END
>  <minimizedAffinity>  (1) 
-3.06549668

>  <minimizedRMSD>  (1) 
0.555194736

$$$$
