
     RDKit          3D

 36 39  0  0  1  0  0  0  0  0999 V2000
   49.5270   32.9220   37.4700 C   0  0  1  0  0  0  0  0  0  0  0  0
   48.5650   33.0030   36.2790 C   0  0  0  0  0  0  0  0  0  0  0  0
   48.4140   33.8870   37.4190 C   0  0  1  0  0  0  0  0  0  0  0  0
   49.4570   31.6570   38.2520 C   0  0  0  0  0  0  0  0  0  0  0  0
   49.9770   31.6640   39.5580 C   0  0  0  0  0  0  0  0  0  0  0  0
   49.9260   30.4790   40.2850 C   0  0  0  0  0  0  0  0  0  0  0  0
   49.3720   29.3760   39.6840 N   0  0  0  0  0  0  0  0  0  0  0  0
   48.8830   29.4260   38.4110 C   0  0  0  0  0  0  0  0  0  0  0  0
   48.9230   30.5580   37.6940 N   0  0  0  0  0  0  0  0  0  0  0  0
   47.2600   33.6380   38.3340 C   0  0  0  0  0  0  0  0  0  0  0  0
   46.0670   32.9550   38.1520 C   0  0  0  0  0  0  0  0  0  0  0  0
   45.3600   32.9940   39.2940 N   0  0  0  0  0  0  0  0  0  0  0  0
   46.0940   33.6880   40.1810 C   0  0  0  0  0  0  0  0  0  0  0  0
   47.2500   34.0930   39.6320 N   0  0  0  0  0  0  0  0  0  0  0  0
   44.4240   34.7530   41.6890 C   0  0  1  0  0  0  0  0  0  0  0  0
   45.7120   33.9850   41.5760 C   0  0  2  0  0  0  0  0  0  0  0  0
   46.6840   34.8890   42.2900 C   0  0  0  0  0  0  0  0  0  0  0  0
   45.9090   35.4360   43.3130 O   0  0  0  0  0  0  0  0  0  0  0  0
   44.7540   35.8600   42.6660 C   0  0  0  0  0  0  0  0  0  0  0  0
   43.9300   35.2330   40.5040 O   0  0  0  0  0  0  0  0  0  0  0  0
   50.6005   33.0287   37.6849 H   0  0  0  0  0  0  0  0  0  0  0  0
   47.8351   32.1991   36.1028 H   0  0  0  0  0  0  0  0  0  0  0  0
   48.6736   33.1379   35.1927 H   0  0  0  0  0  0  0  0  0  0  0  0
   48.3479   34.9799   37.5250 H   0  0  0  0  0  0  0  0  0  0  0  0
   50.4105   32.5774   39.9913 H   0  0  0  0  0  0  0  0  0  0  0  0
   50.3181   30.4273   41.3114 H   0  0  0  0  0  0  0  0  0  0  0  0
   48.4476   28.5199   37.9645 H   0  0  0  0  0  0  0  0  0  0  0  0
   45.7502   32.4605   37.2219 H   0  0  0  0  0  0  0  0  0  0  0  0
   44.4343   32.5733   39.4581 H   0  0  0  0  0  0  0  0  0  0  0  0
   43.6062   34.0989   42.0256 H   0  0  0  0  0  0  0  0  0  0  0  0
   45.6598   32.9776   42.0146 H   0  0  0  0  0  0  0  0  0  0  0  0
   47.5302   34.3166   42.6977 H   0  0  0  0  0  0  0  0  0  0  0  0
   47.1335   35.6481   41.6329 H   0  0  0  0  0  0  0  0  0  0  0  0
   44.9342   36.8052   42.1329 H   0  0  0  0  0  0  0  0  0  0  0  0
   43.9308   36.0481   43.3709 H   0  0  0  0  0  0  0  0  0  0  0  0
   43.2323   35.9109   40.6878 H   0  0  0  0  0  0  0  0  0  0  0  0
  1  4  1  0
  2  3  1  0
  2  1  1  0
  3  1  1  0
  3 10  1  0
  4  5  2  0
  5  6  1  0
  7  6  2  0
  8  7  1  0
  9  4  1  0
  9  8  2  0
 10 14  1  0
 11 10  2  0
 11 12  1  0
 12 13  1  0
 14 13  2  0
 15 20  1  0
 15 19  1  0
 16 13  1  0
 16 15  1  0
 16 17  1  0
 17 18  1  0
 19 18  1  0
  1 21  1  6
  2 22  1  0
  2 23  1  0
  3 24  1  6
  5 25  1  0
  6 26  1  0
  8 27  1  0
 11 28  1  0
 12 29  1  0
 15 30  1  1
 16 31  1  1
 17 32  1  0
 17 33  1  0
 19 34  1  0
 19 35  1  0
 20 36  1  0
M  ISO  8  21  13  22  13  23  13  24  13  25  14  26  14  27  14  28  14
M  ISO  8  29   9  30  13  31  13  32  13  33  13  34  13  35  13  36   3
M  END
>  <minimizedAffinity>  (1) 
-3.89173627

>  <minimizedRMSD>  (1) 
5.55644608

$$$$
