
     RDKit          3D

 40 43  0  0  1  0  0  0  0  0999 V2000
   42.3290   34.6760   39.0830 C   0  0  1  0  0  0  0  0  0  0  0  0
   40.9630   34.6710   39.7830 C   0  0  0  0  0  0  0  0  0  0  0  0
   42.1900   34.7710   40.5500 C   0  0  1  0  0  0  0  0  0  0  0  0
   42.6920   33.4120   38.3930 C   0  0  0  0  0  0  0  0  0  0  0  0
   44.0540   33.1630   38.1410 C   0  0  0  0  0  0  0  0  0  0  0  0
   44.3860   31.9780   37.4860 C   0  0  0  0  0  0  0  0  0  0  0  0
   43.3700   31.1260   37.1250 N   0  0  0  0  0  0  0  0  0  0  0  0
   42.0650   31.4200   37.3950 C   0  0  0  0  0  0  0  0  0  0  0  0
   41.7250   32.5560   38.0250 N   0  0  0  0  0  0  0  0  0  0  0  0
   42.6050   33.5820   41.3460 C   0  0  0  0  0  0  0  0  0  0  0  0
   43.7520   33.3100   42.0730 C   0  0  0  0  0  0  0  0  0  0  0  0
   43.6440   32.0950   42.6350 N   0  0  0  0  0  0  0  0  0  0  0  0
   42.4450   31.6050   42.2700 C   0  0  0  0  0  0  0  0  0  0  0  0
   41.7920   32.4820   41.4880 N   0  0  0  0  0  0  0  0  0  0  0  0
   41.9390   30.2590   42.6950 C   0  0  0  0  0  0  0  0  0  0  0  0
   40.5140   30.4540   43.0970 C   0  0  0  0  0  0  0  0  0  0  0  0
   39.6110   29.2910   42.8620 C   0  0  0  0  0  0  0  0  0  0  0  0
   40.4490   28.0230   42.9480 C   0  0  0  0  0  0  0  0  0  0  0  0
   41.3060   28.0410   41.6970 C   0  0  0  0  0  0  0  0  0  0  0  0
   42.1720   29.2560   41.6070 C   0  0  0  0  0  0  0  0  0  0  0  0
   42.8850   35.2699   38.3426 H   0  0  0  0  0  0  0  0  0  0  0  0
   40.2943   35.5400   39.6952 H   0  0  0  0  0  0  0  0  0  0  0  0
   40.0891   34.0030   39.7885 H   0  0  0  0  0  0  0  0  0  0  0  0
   42.5520   35.4835   41.3058 H   0  0  0  0  0  0  0  0  0  0  0  0
   44.8299   33.8788   38.4502 H   0  0  0  0  0  0  0  0  0  0  0  0
   45.4347   31.7312   37.2638 H   0  0  0  0  0  0  0  0  0  0  0  0
   41.2780   30.7141   37.0913 H   0  0  0  0  0  0  0  0  0  0  0  0
   44.6159   33.9834   42.1742 H   0  0  0  0  0  0  0  0  0  0  0  0
   44.3434   31.6286   43.2301 H   0  0  0  0  0  0  0  0  0  0  0  0
   42.4768   29.8407   43.5586 H   0  0  0  0  0  0  0  0  0  0  0  0
   40.4948   30.6850   44.1723 H   0  0  0  0  0  0  0  0  0  0  0  0
   40.1309   31.2646   42.4597 H   0  0  0  0  0  0  0  0  0  0  0  0
   39.1527   29.3692   41.8651 H   0  0  0  0  0  0  0  0  0  0  0  0
   38.8081   29.2713   43.6136 H   0  0  0  0  0  0  0  0  0  0  0  0
   41.0789   28.0350   43.8497 H   0  0  0  0  0  0  0  0  0  0  0  0
   39.8276   27.1177   43.0133 H   0  0  0  0  0  0  0  0  0  0  0  0
   41.9502   27.1494   41.6992 H   0  0  0  0  0  0  0  0  0  0  0  0
   40.6282   28.0519   40.8307 H   0  0  0  0  0  0  0  0  0  0  0  0
   43.2230   28.9346   41.6536 H   0  0  0  0  0  0  0  0  0  0  0  0
   41.9198   29.7540   40.6592 H   0  0  0  0  0  0  0  0  0  0  0  0
  1  2  1  0
  1  3  1  0
  2  3  1  0
  3 10  1  0
  4  1  1  0
  5  4  2  0
  6  5  1  0
  7  8  1  0
  7  6  2  0
  8  9  2  0
  9  4  1  0
 10 14  1  0
 10 11  2  0
 11 12  1  0
 13 12  1  0
 13 15  1  0
 14 13  2  0
 15 16  1  0
 17 18  1  0
 17 16  1  0
 19 18  1  0
 20 19  1  0
 20 15  1  0
  1 21  1  6
  2 22  1  0
  2 23  1  0
  3 24  1  1
  5 25  1  0
  6 26  1  0
  8 27  1  0
 11 28  1  0
 12 29  1  0
 15 30  1  0
 16 31  1  0
 16 32  1  0
 17 33  1  0
 17 34  1  0
 18 35  1  0
 18 36  1  0
 19 37  1  0
 19 38  1  0
 20 39  1  0
 20 40  1  0
M  ISO  8  21  13  22  13  23  13  24  13  25  14  26  14  27  14  28  14
M  ISO  8  29   9  30  13  31  13  32  13  33  13  34  13  35  13  36  13
M  ISO  4  37  13  38  13  39  13  40  13
M  END
>  <minimizedAffinity>  (1) 
-3.85765958

>  <minimizedRMSD>  (1) 
7.6180172

$$$$
