
     RDKit          3D

 26 27  0  0  1  0  0  0  0  0999 V2000
   46.4250   34.6580   41.2580 C   0  0  2  0  0  0  0  0  0  0  0  0
   45.8630   33.5210   40.4670 C   0  0  0  0  0  0  0  0  0  0  0  0
   46.8020   33.5440   39.2620 C   0  0  0  0  0  0  0  0  0  0  0  0
   48.1240   34.0520   39.7860 C   0  0  0  0  0  0  0  0  0  0  0  0
   47.9130   34.2860   41.2660 C   0  0  1  0  0  0  0  0  0  0  0  0
   44.6010   35.8320   44.3470 C   0  0  0  0  0  0  0  0  0  0  0  0
   45.0390   35.8270   43.0080 C   0  0  0  0  0  0  0  0  0  0  0  0
   45.8910   34.8020   42.6240 C   0  0  0  0  0  0  0  0  0  0  0  0
   46.2470   33.8700   43.5630 N   0  0  0  0  0  0  0  0  0  0  0  0
   45.8140   33.9000   44.8330 C   0  0  0  0  0  0  0  0  0  0  0  0
   44.9890   34.8790   45.2330 N   0  0  0  0  0  0  0  0  0  0  0  0
   48.7530   35.5120   41.6180 C   0  0  0  0  0  0  0  0  0  0  0  0
   47.9190   36.3810   42.3100 F   0  0  0  0  0  0  0  0  0  0  0  0
   49.0660   36.1300   40.4200 F   0  0  0  0  0  0  0  0  0  0  0  0
   49.8890   35.1860   42.2980 F   0  0  0  0  0  0  0  0  0  0  0  0
   46.1745   35.6366   40.8225 H   0  0  0  0  0  0  0  0  0  0  0  0
   45.9278   32.5703   41.0166 H   0  0  0  0  0  0  0  0  0  0  0  0
   44.7943   33.6111   40.2225 H   0  0  0  0  0  0  0  0  0  0  0  0
   46.4126   34.2180   38.4848 H   0  0  0  0  0  0  0  0  0  0  0  0
   46.9012   32.5485   38.8047 H   0  0  0  0  0  0  0  0  0  0  0  0
   48.9140   33.3038   39.6245 H   0  0  0  0  0  0  0  0  0  0  0  0
   48.4402   34.9706   39.2700 H   0  0  0  0  0  0  0  0  0  0  0  0
   48.1704   33.4692   41.9564 H   0  0  0  0  0  0  0  0  0  0  0  0
   43.9249   36.6313   44.6846 H   0  0  0  0  0  0  0  0  0  0  0  0
   44.7189   36.6031   42.2972 H   0  0  0  0  0  0  0  0  0  0  0  0
   46.1347   33.1241   45.5437 H   0  0  0  0  0  0  0  0  0  0  0  0
  1  5  1  0
  1  8  1  0
  2  1  1  0
  3  4  1  0
  3  2  1  0
  4  5  1  0
  5 12  1  0
  6 11  2  0
  7  6  1  0
  8  7  2  0
  8  9  1  0
  9 10  2  0
 10 11  1  0
 12 15  1  0
 12 13  1  0
 14 12  1  0
  1 16  1  6
  2 17  1  0
  2 18  1  0
  3 19  1  0
  3 20  1  0
  4 21  1  0
  4 22  1  0
  5 23  1  1
  6 24  1  0
  7 25  1  0
 10 26  1  0
M  ISO  8  16  13  17  13  18  13  19  13  20  13  21  13  22  13  23  13
M  ISO  3  24  14  25  14  26  14
M  END
>  <minimizedAffinity>  (1) 
-5.22944784

>  <minimizedRMSD>  (1) 
1.21037352

$$$$
