
     RDKit          3D

 30 32  0  0  1  0  0  0  0  0999 V2000
   45.7200   34.1330   41.7190 C   0  0  2  0  0  0  0  0  0  0  0  0
   44.8420   33.0920   41.1020 C   0  0  0  0  0  0  0  0  0  0  0  0
   45.6290   32.7980   39.8260 C   0  0  0  0  0  0  0  0  0  0  0  0
   47.0780   33.0340   40.1870 C   0  0  0  0  0  0  0  0  0  0  0  0
   47.0760   33.4230   41.6600 C   0  0  1  0  0  0  0  0  0  0  0  0
   44.4640   35.9820   44.7620 C   0  0  0  0  0  0  0  0  0  0  0  0
   44.7560   35.7430   43.4020 C   0  0  0  0  0  0  0  0  0  0  0  0
   45.3640   34.5360   43.0900 C   0  0  0  0  0  0  0  0  0  0  0  0
   45.6460   33.6560   44.1010 N   0  0  0  0  0  0  0  0  0  0  0  0
   45.3510   33.9200   45.3940 C   0  0  0  0  0  0  0  0  0  0  0  0
   44.7610   35.0850   45.7150 N   0  0  0  0  0  0  0  0  0  0  0  0
   48.2000   34.3240   41.9300 C   0  0  0  0  0  0  0  0  0  0  0  0
   48.6040   35.4970   41.3150 C   0  0  0  0  0  0  0  0  0  0  0  0
   49.7310   35.9550   41.9610 C   0  0  0  0  0  0  0  0  0  0  0  0
   49.9940   35.0750   42.9370 N   0  0  0  0  0  0  0  0  0  0  0  0
   49.0900   34.1160   42.9160 N   0  0  0  0  0  0  0  0  0  0  0  0
   45.6587   35.0988   41.1961 H   0  0  0  0  0  0  0  0  0  0  0  0
   44.7547   32.2012   41.7414 H   0  0  0  0  0  0  0  0  0  0  0  0
   43.7996   33.4038   40.9402 H   0  0  0  0  0  0  0  0  0  0  0  0
   45.3183   33.4755   39.0171 H   0  0  0  0  0  0  0  0  0  0  0  0
   45.4580   31.7727   39.4661 H   0  0  0  0  0  0  0  0  0  0  0  0
   47.6662   32.1173   40.0329 H   0  0  0  0  0  0  0  0  0  0  0  0
   47.5310   33.8164   39.5604 H   0  0  0  0  0  0  0  0  0  0  0  0
   47.1914   32.6116   42.3937 H   0  0  0  0  0  0  0  0  0  0  0  0
   43.9806   36.9277   45.0482 H   0  0  0  0  0  0  0  0  0  0  0  0
   44.5122   36.4813   42.6239 H   0  0  0  0  0  0  0  0  0  0  0  0
   45.5920   33.1868   46.1778 H   0  0  0  0  0  0  0  0  0  0  0  0
   48.1103   35.9796   40.4586 H   0  0  0  0  0  0  0  0  0  0  0  0
   50.3026   36.8641   41.7227 H   0  0  0  0  0  0  0  0  0  0  0  0
   50.7798   35.1382   43.5999 H   0  0  0  0  0  0  0  0  0  0  0  0
  1  8  1  0
  2  1  1  0
  3  4  1  0
  3  2  1  0
  4  5  1  0
  5  1  1  0
  5 12  1  0
  6 11  2  0
  7  6  1  0
  8  7  2  0
  8  9  1  0
  9 10  2  0
 10 11  1  0
 12 16  2  0
 13 12  1  0
 13 14  2  0
 14 15  1  0
 16 15  1  0
  1 17  1  6
  2 18  1  0
  2 19  1  0
  3 20  1  0
  3 21  1  0
  4 22  1  0
  4 23  1  0
  5 24  1  1
  6 25  1  0
  7 26  1  0
 10 27  1  0
 13 28  1  0
 14 29  1  0
 15 30  1  0
M  ISO  8  17  13  18  13  19  13  20  13  21  13  22  13  23  13  24  13
M  ISO  6  25  14  26  14  27  14  28  14  29  14  30   9
M  END
>  <minimizedAffinity>  (1) 
-5.07063961

>  <minimizedRMSD>  (1) 
2.29976654

$$$$
