
     RDKit          3D

 27 28  0  0  1  0  0  0  0  0999 V2000
   46.5450   35.0470   41.8270 C   0  0  2  0  0  0  0  0  0  0  0  0
   46.4930   33.6720   41.1750 C   0  0  0  0  0  0  0  0  0  0  0  0
   47.3510   33.9590   39.9560 C   0  0  0  0  0  0  0  0  0  0  0  0
   48.4040   34.8730   40.4420 C   0  0  0  0  0  0  0  0  0  0  0  0
   48.0130   35.2890   41.9430 C   0  0  2  0  0  0  0  0  0  0  0  0
   44.5010   36.0410   44.8250 C   0  0  0  0  0  0  0  0  0  0  0  0
   45.0700   36.1260   43.5430 C   0  0  0  0  0  0  0  0  0  0  0  0
   45.8700   35.0910   43.1440 C   0  0  0  0  0  0  0  0  0  0  0  0
   46.0610   34.0400   44.0280 N   0  0  0  0  0  0  0  0  0  0  0  0
   45.5090   33.9860   45.2370 C   0  0  0  0  0  0  0  0  0  0  0  0
   44.7320   34.9780   45.6410 N   0  0  0  0  0  0  0  0  0  0  0  0
   48.6450   34.3420   42.7680 O   0  0  0  0  0  0  0  0  0  0  0  0
   49.9290   33.9000   42.6380 C   0  0  0  0  0  0  0  0  0  0  0  0
   49.8740   32.6280   42.5230 O   0  0  0  0  0  0  0  0  0  0  0  0
   51.2990   33.8270   42.5350 O   0  0  0  0  0  0  0  0  0  0  0  0
   46.0125   35.8141   41.2456 H   0  0  0  0  0  0  0  0  0  0  0  0
   46.9331   32.8939   41.8160 H   0  0  0  0  0  0  0  0  0  0  0  0
   45.4853   33.2840   40.9653 H   0  0  0  0  0  0  0  0  0  0  0  0
   46.7544   34.4400   39.1669 H   0  0  0  0  0  0  0  0  0  0  0  0
   47.7686   33.0409   39.5169 H   0  0  0  0  0  0  0  0  0  0  0  0
   49.3790   34.3637   40.4335 H   0  0  0  0  0  0  0  0  0  0  0  0
   48.4798   35.7608   39.7970 H   0  0  0  0  0  0  0  0  0  0  0  0
   48.2773   36.2842   42.3299 H   0  0  0  0  0  0  0  0  0  0  0  0
   43.8516   36.8558   45.1778 H   0  0  0  0  0  0  0  0  0  0  0  0
   44.8799   36.9889   42.8878 H   0  0  0  0  0  0  0  0  0  0  0  0
   45.6967   33.1246   45.8949 H   0  0  0  0  0  0  0  0  0  0  0  0
   51.7410   32.9480   42.4251 H   0  0  0  0  0  0  0  0  0  0  0  0
  1  5  1  0
  1  8  1  0
  2  1  1  0
  3  4  1  0
  3  2  1  0
  4  5  1  0
  5 12  1  0
  6 11  2  0
  7  6  1  0
  8  7  2  0
  8  9  1  0
  9 10  2  0
 10 11  1  0
 13 12  1  0
 14 13  2  0
 15 13  1  0
  1 16  1  6
  2 17  1  0
  2 18  1  0
  3 19  1  0
  3 20  1  0
  4 21  1  0
  4 22  1  0
  5 23  1  1
  6 24  1  0
  7 25  1  0
 10 26  1  0
 15 27  1  0
M  ISO  8  16  13  17  13  18  13  19  13  20  13  21  13  22  13  23  13
M  ISO  4  24  14  25  14  26  14  27   3
M  END
>  <minimizedAffinity>  (1) 
-5.16834784

>  <minimizedRMSD>  (1) 
0.566699684

$$$$
