
     RDKit          3D

 34 35  0  0  1  0  0  0  0  0999 V2000
   46.6710   34.3730   43.5950 C   0  0  2  0  0  0  0  0  0  0  0  0
   46.3730   33.1740   44.4370 C   0  0  0  0  0  0  0  0  0  0  0  0
   45.7010   33.8370   45.6130 C   0  0  0  0  0  0  0  0  0  0  0  0
   44.9120   34.9240   45.0310 C   0  0  0  0  0  0  0  0  0  0  0  0
   45.3060   35.0030   43.4760 C   0  0  2  0  0  0  0  0  0  0  0  0
   48.2380   34.5970   40.1960 C   0  0  0  0  0  0  0  0  0  0  0  0
   47.7100   35.0530   41.4230 C   0  0  0  0  0  0  0  0  0  0  0  0
   47.2400   34.0950   42.2580 C   0  0  0  0  0  0  0  0  0  0  0  0
   47.3040   32.7550   41.8660 N   0  0  0  0  0  0  0  0  0  0  0  0
   47.8100   32.3580   40.6970 C   0  0  0  0  0  0  0  0  0  0  0  0
   48.2790   33.2800   39.8580 N   0  0  0  0  0  0  0  0  0  0  0  0
   44.3920   34.2120   42.8050 O   0  0  0  0  0  0  0  0  0  0  0  0
   43.5010   34.6310   41.8430 C   0  0  0  0  0  0  0  0  0  0  0  0
   44.1730   35.1330   40.8880 O   0  0  0  0  0  0  0  0  0  0  0  0
   42.0900   34.7550   41.4300 C   0  0  0  0  0  0  0  0  0  0  0  0
   41.4480   35.8460   40.9730 C   0  0  0  0  0  0  0  0  0  0  0  0
   40.0440   36.0650   40.5600 C   0  0  0  0  0  0  0  0  0  0  0  0
   39.3490   34.5870   39.7730 S   0  0  0  0  0  0  0  0  0  0  0  0
   47.4545   34.9957   44.0516 H   0  0  0  0  0  0  0  0  0  0  0  0
   45.6984   32.4728   43.9239 H   0  0  0  0  0  0  0  0  0  0  0  0
   47.2485   32.5586   44.6914 H   0  0  0  0  0  0  0  0  0  0  0  0
   45.0491   33.1240   46.1390 H   0  0  0  0  0  0  0  0  0  0  0  0
   46.4275   34.2027   46.3536 H   0  0  0  0  0  0  0  0  0  0  0  0
   43.8380   34.7122   45.1392 H   0  0  0  0  0  0  0  0  0  0  0  0
   45.1187   35.8774   45.5393 H   0  0  0  0  0  0  0  0  0  0  0  0
   45.3072   35.9706   42.9529 H   0  0  0  0  0  0  0  0  0  0  0  0
   48.6325   35.3369   39.4840 H   0  0  0  0  0  0  0  0  0  0  0  0
   47.6818   36.1209   41.6853 H   0  0  0  0  0  0  0  0  0  0  0  0
   47.8392   31.2909   40.4315 H   0  0  0  0  0  0  0  0  0  0  0  0
   41.4857   33.8389   41.5052 H   0  0  0  0  0  0  0  0  0  0  0  0
   42.0842   36.7396   40.8915 H   0  0  0  0  0  0  0  0  0  0  0  0
   39.4442   36.3135   41.4479 H   0  0  0  0  0  0  0  0  0  0  0  0
   40.0215   36.8887   39.8313 H   0  0  0  0  0  0  0  0  0  0  0  0
   38.9353   33.7073   40.7384 H   0  0  0  0  0  0  0  0  0  0  0  0
  1  2  1  0
  2  3  1  0
  4  3  1  0
  5  1  1  0
  5  4  1  0
  6  7  2  0
  7  8  1  0
  8  1  1  0
  9  8  2  0
 10  9  1  0
 11  6  1  0
 11 10  2  0
 12  5  1  0
 13 12  1  0
 14 13  2  0
 15 13  1  0
 16 15  2  0
 17 16  1  0
 18 17  1  0
  1 19  1  1
  2 20  1  0
  2 21  1  0
  3 22  1  0
  3 23  1  0
  4 24  1  0
  4 25  1  0
  5 26  1  6
  6 27  1  0
  7 28  1  0
 10 29  1  0
 15 30  1  0
 16 31  1  0
 17 32  1  0
 17 33  1  0
 18 34  1  0
M  ISO  8  19  13  20  13  21  13  22  13  23  13  24  13  25  13  26  13
M  ISO  6  27  14  28  14  29  14  32   8  33   8  34  11
M  END
>  <minimizedAffinity>  (1) 
-4.55203581

>  <minimizedRMSD>  (1) 
0.237624332

$$$$
