
     RDKit          3D

 34 35  0  0  1  0  0  0  0  0999 V2000
   46.6930   34.3830   43.6280 C   0  0  2  0  0  0  0  0  0  0  0  0
   46.4040   33.1760   44.4680 C   0  0  0  0  0  0  0  0  0  0  0  0
   45.7180   33.8440   45.6410 C   0  0  0  0  0  0  0  0  0  0  0  0
   44.9060   34.9000   45.0450 C   0  0  0  0  0  0  0  0  0  0  0  0
   45.3160   34.9840   43.4930 C   0  0  2  0  0  0  0  0  0  0  0  0
   48.2850   34.6440   40.2440 C   0  0  0  0  0  0  0  0  0  0  0  0
   47.7200   35.0770   41.4640 C   0  0  0  0  0  0  0  0  0  0  0  0
   47.2870   34.1030   42.3020 C   0  0  0  0  0  0  0  0  0  0  0  0
   47.4170   32.7630   41.9260 N   0  0  0  0  0  0  0  0  0  0  0  0
   47.9550   32.3940   40.7650 C   0  0  0  0  0  0  0  0  0  0  0  0
   48.3900   33.3310   39.9230 N   0  0  0  0  0  0  0  0  0  0  0  0
   44.4240   34.1820   42.8050 O   0  0  0  0  0  0  0  0  0  0  0  0
   43.5300   34.5920   41.8540 C   0  0  0  0  0  0  0  0  0  0  0  0
   44.2150   35.0990   40.8810 O   0  0  0  0  0  0  0  0  0  0  0  0
   42.1350   34.7330   41.4080 C   0  0  0  0  0  0  0  0  0  0  0  0
   41.4710   35.8330   41.0260 C   0  0  0  0  0  0  0  0  0  0  0  0
   40.0810   36.0610   40.5660 C   0  0  0  0  0  0  0  0  0  0  0  0
   39.4390   34.8940   40.1740 O   0  0  0  0  0  0  0  0  0  0  0  0
   47.4555   35.0285   44.0883 H   0  0  0  0  0  0  0  0  0  0  0  0
   45.7385   32.4677   43.9528 H   0  0  0  0  0  0  0  0  0  0  0  0
   47.2815   32.5648   44.7258 H   0  0  0  0  0  0  0  0  0  0  0  0
   45.0838   33.1248   46.1800 H   0  0  0  0  0  0  0  0  0  0  0  0
   46.4375   34.2370   46.3744 H   0  0  0  0  0  0  0  0  0  0  0  0
   43.8378   34.6559   45.1414 H   0  0  0  0  0  0  0  0  0  0  0  0
   45.0779   35.8618   45.5504 H   0  0  0  0  0  0  0  0  0  0  0  0
   45.3041   35.9515   42.9697 H   0  0  0  0  0  0  0  0  0  0  0  0
   48.6519   35.3969   39.5309 H   0  0  0  0  0  0  0  0  0  0  0  0
   47.6361   36.1436   41.7197 H   0  0  0  0  0  0  0  0  0  0  0  0
   48.0393   31.3287   40.5041 H   0  0  0  0  0  0  0  0  0  0  0  0
   41.5523   33.8003   41.3846 H   0  0  0  0  0  0  0  0  0  0  0  0
   42.0792   36.7489   41.0610 H   0  0  0  0  0  0  0  0  0  0  0  0
   39.5099   36.5153   41.3891 H   0  0  0  0  0  0  0  0  0  0  0  0
   40.1303   36.7197   39.6864 H   0  0  0  0  0  0  0  0  0  0  0  0
   39.1594   34.3857   40.9762 H   0  0  0  0  0  0  0  0  0  0  0  0
  1  2  1  0
  2  3  1  0
  4  3  1  0
  5  1  1  0
  5  4  1  0
  6  7  2  0
  7  8  1  0
  8  1  1  0
  9  8  2  0
 10  9  1  0
 11  6  1  0
 11 10  2  0
 12  5  1  0
 13 12  1  0
 14 13  2  0
 15 13  1  0
 16 15  2  0
 17 16  1  0
 18 17  1  0
  1 19  1  1
  2 20  1  0
  2 21  1  0
  3 22  1  0
  3 23  1  0
  4 24  1  0
  4 25  1  0
  5 26  1  6
  6 27  1  0
  7 28  1  0
 10 29  1  0
 15 30  1  0
 16 31  1  0
 17 32  1  0
 17 33  1  0
 18 34  1  0
M  ISO  8  19  13  20  13  21  13  22  13  23  13  24  13  25  13  26  13
M  ISO  6  27  14  28  14  29  14  32   8  33   8  34   3
M  END
>  <minimizedAffinity>  (1) 
-4.52634478

>  <minimizedRMSD>  (1) 
0.0909793675

$$$$
