
     RDKit          3D

 21 22  0  0  0  0  0  0  0  0999 V2000
   46.2280   34.1450   44.3650 O   0  0  0  0  0  0  0  0  0  0  0  0
   44.7730   33.5130   47.6890 N   0  0  0  0  0  0  0  0  0  0  0  0
   44.9900   34.1520   46.5260 C   0  0  0  0  0  0  0  0  0  0  0  0
   45.8740   33.6510   45.5890 C   0  0  0  0  0  0  0  0  0  0  0  0
   46.5110   32.4540   45.9400 C   0  0  0  0  0  0  0  0  0  0  0  0
   47.3530   31.8590   45.1910 O   0  0  0  0  0  0  0  0  0  0  0  0
   46.2610   31.8470   47.1190 N   0  0  0  0  0  0  0  0  0  0  0  0
   45.4000   32.3610   47.9980 C   0  0  0  0  0  0  0  0  0  0  0  0
   45.1580   31.8170   49.0860 O   0  0  0  0  0  0  0  0  0  0  0  0
   44.6180   33.2370   42.7460 C   0  0  0  0  0  0  0  0  0  0  0  0
   45.2770   34.3030   43.3800 C   0  0  0  0  0  0  0  0  0  0  0  0
   44.9280   35.5850   42.9640 C   0  0  0  0  0  0  0  0  0  0  0  0
   44.0020   35.7630   42.0030 N   0  0  0  0  0  0  0  0  0  0  0  0
   43.3820   34.7000   41.4110 C   0  0  0  0  0  0  0  0  0  0  0  0
   43.7110   33.4570   41.8040 N   0  0  0  0  0  0  0  0  0  0  0  0
   44.1075   33.9162   48.3639 H   0  0  0  0  0  0  0  0  0  0  0  0
   44.4546   35.0898   46.3166 H   0  0  0  0  0  0  0  0  0  0  0  0
   46.7461   30.9669   47.3450 H   0  0  0  0  0  0  0  0  0  0  0  0
   44.8580   32.2033   43.0354 H   0  0  0  0  0  0  0  0  0  0  0  0
   45.4124   36.4590   43.4239 H   0  0  0  0  0  0  0  0  0  0  0  0
   42.6270   34.8578   40.6267 H   0  0  0  0  0  0  0  0  0  0  0  0
  1  4  1  0
  2  8  1  0
  3  2  1  0
  4  5  1  0
  4  3  2  0
  5  7  1  0
  6  5  2  0
  7  8  1  0
  8  9  2  0
 10 11  2  0
 11  1  1  0
 12 11  1  0
 13 12  2  0
 14 15  2  0
 14 13  1  0
 15 10  1  0
  2 16  1  0
  3 17  1  0
  7 18  1  0
 10 19  1  0
 12 20  1  0
 14 21  1  0
M  ISO  6  16   9  17  14  18   9  19  14  20  14  21  14
M  END
>  <minimizedAffinity>  (1) 
-4.44602776

>  <minimizedRMSD>  (1) 
6.66625595

$$$$
