
     RDKit          3D

 15 15  0  0  0  0  0  0  0  0999 V2000
   44.6550   35.2250   45.1650 C   0  0  0  0  0  0  0  0  0  0  0  0
   45.2110   35.2410   43.8620 C   0  0  0  0  0  0  0  0  0  0  0  0
   46.2400   34.3380   43.6100 C   0  0  0  0  0  0  0  0  0  0  0  0
   46.6730   33.4990   44.5680 N   0  0  0  0  0  0  0  0  0  0  0  0
   46.1110   33.5120   45.8160 C   0  0  0  0  0  0  0  0  0  0  0  0
   45.1130   34.3730   46.0970 N   0  0  0  0  0  0  0  0  0  0  0  0
   44.7850   36.0930   42.8600 O   0  0  0  0  0  0  0  0  0  0  0  0
   43.8440   35.5720   41.9680 C   0  0  0  0  0  0  0  0  0  0  0  0
   44.0210   35.0980   40.7970 O   0  0  0  0  0  0  0  0  0  0  0  0
   42.4630   35.5320   42.3610 N   0  0  0  0  0  0  0  0  0  0  0  0
   43.8388   35.9183   45.4164 H   0  0  0  0  0  0  0  0  0  0  0  0
   46.7054   34.3102   42.6137 H   0  0  0  0  0  0  0  0  0  0  0  0
   46.4740   32.8195   46.5898 H   0  0  0  0  0  0  0  0  0  0  0  0
   41.7551   35.1515   41.7168 H   0  0  0  0  0  0  0  0  0  0  0  0
   42.1807   35.8838   43.2870 H   0  0  0  0  0  0  0  0  0  0  0  0
  1  6  2  0
  2  1  1  0
  3  2  2  0
  3  4  1  0
  4  5  2  0
  5  6  1  0
  7  2  1  0
  8 10  1  0
  8  7  1  0
  9  8  2  0
  1 11  1  0
  3 12  1  0
  5 13  1  0
 10 14  1  0
 10 15  1  0
M  ISO  3  11  14  12  14  13  14
M  END
>  <minimizedAffinity>  (1) 
-3.54599881

>  <minimizedRMSD>  (1) 
0.942947745

$$$$
