
     RDKit          3D

 20 21  0  0  0  0  0  0  0  0999 V2000
   44.9860   33.4390   47.3140 C   0  0  0  0  0  0  0  0  0  0  0  0
   45.6060   33.6750   46.0830 C   0  0  0  0  0  0  0  0  0  0  0  0
   46.7600   32.9170   45.7980 C   0  0  0  0  0  0  0  0  0  0  0  0
   47.1930   32.0290   46.7110 N   0  0  0  0  0  0  0  0  0  0  0  0
   46.5710   31.8270   47.8900 C   0  0  0  0  0  0  0  0  0  0  0  0
   45.4570   32.5500   48.1780 N   0  0  0  0  0  0  0  0  0  0  0  0
   45.1770   34.5780   45.1380 O   0  0  0  0  0  0  0  0  0  0  0  0
   45.4020   34.2350   43.8100 C   0  0  0  0  0  0  0  0  0  0  0  0
   44.7490   33.2240   43.1230 C   0  0  0  0  0  0  0  0  0  0  0  0
   45.0760   32.9910   41.7950 C   0  0  0  0  0  0  0  0  0  0  0  0
   46.0460   33.7980   41.2400 C   0  0  0  0  0  0  0  0  0  0  0  0
   46.6980   34.8050   41.9180 C   0  0  0  0  0  0  0  0  0  0  0  0
   46.3400   34.9840   43.2020 N   0  0  0  0  0  0  0  0  0  0  0  0
   44.0808   34.0076   47.5734 H   0  0  0  0  0  0  0  0  0  0  0  0
   47.2964   33.0492   44.8468 H   0  0  0  0  0  0  0  0  0  0  0  0
   46.9590   31.0888   48.6073 H   0  0  0  0  0  0  0  0  0  0  0  0
   43.9821   32.6147   43.6236 H   0  0  0  0  0  0  0  0  0  0  0  0
   44.5839   32.1987   41.2118 H   0  0  0  0  0  0  0  0  0  0  0  0
   46.3171   33.6270   40.1877 H   0  0  0  0  0  0  0  0  0  0  0  0
   47.4672   35.4268   41.4367 H   0  0  0  0  0  0  0  0  0  0  0  0
  1  6  2  0
  2  1  1  0
  3  2  2  0
  3  4  1  0
  4  5  2  0
  5  6  1  0
  7  2  1  0
  8  7  1  0
  9  8  2  0
 10  9  1  0
 11 10  2  0
 11 12  1  0
 12 13  2  0
 13  8  1  0
  1 14  1  0
  3 15  1  0
  5 16  1  0
  9 17  1  0
 10 18  1  0
 11 19  1  0
 12 20  1  0
M  ISO  7  14  14  15  14  16  14  17  14  18  14  19  14  20  14
M  END
>  <minimizedAffinity>  (1) 
-3.31013918

>  <minimizedRMSD>  (1) 
4.60008001

$$$$
