
     RDKit          3D

 18 19  0  0  0  0  0  0  0  0999 V2000
   44.4360   35.7400   44.3510 C   0  0  0  0  0  0  0  0  0  0  0  0
   44.8160   34.9230   43.2790 C   0  0  0  0  0  0  0  0  0  0  0  0
   45.4140   33.7080   43.6030 C   0  0  0  0  0  0  0  0  0  0  0  0
   45.5960   33.3790   44.8990 N   0  0  0  0  0  0  0  0  0  0  0  0
   45.2110   34.2040   45.9030 C   0  0  0  0  0  0  0  0  0  0  0  0
   44.6290   35.3870   45.6290 N   0  0  0  0  0  0  0  0  0  0  0  0
   44.6250   35.2690   41.9680 O   0  0  0  0  0  0  0  0  0  0  0  0
   43.4750   35.6930   41.3330 C   0  0  0  0  0  0  0  0  0  0  0  0
   43.0390   34.8390   40.1180 C   0  0  0  0  0  0  0  0  0  0  0  0
   42.2080   34.9290   41.3510 C   0  0  0  0  0  0  0  0  0  0  0  0
   43.9610   36.7085   44.1356 H   0  0  0  0  0  0  0  0  0  0  0  0
   45.7362   33.0204   42.8072 H   0  0  0  0  0  0  0  0  0  0  0  0
   45.3751   33.9052   46.9488 H   0  0  0  0  0  0  0  0  0  0  0  0
   43.7074   36.7414   41.5715 H   0  0  0  0  0  0  0  0  0  0  0  0
   42.7072   35.3251   39.1887 H   0  0  0  0  0  0  0  0  0  0  0  0
   43.4846   34.0261   39.5258 H   0  0  0  0  0  0  0  0  0  0  0  0
   42.1140   34.0507   42.0065 H   0  0  0  0  0  0  0  0  0  0  0  0
   41.1593   35.1994   41.5436 H   0  0  0  0  0  0  0  0  0  0  0  0
  1  6  2  0
  2  3  2  0
  2  1  1  0
  3  4  1  0
  4  5  2  0
  6  5  1  0
  7  2  1  0
  8 10  1  0
  8  7  1  0
  9  8  1  0
  9 10  1  0
  1 11  1  0
  3 12  1  0
  5 13  1  0
  8 14  1  0
  9 15  1  0
  9 16  1  0
 10 17  1  0
 10 18  1  0
M  ISO  8  11  14  12  14  13  14  14  13  15  13  16  13  17  13  18  13
M  END
>  <minimizedAffinity>  (1) 
-3.25710273

>  <minimizedRMSD>  (1) 
2.12617493

$$$$
