
     RDKit          3D

 34 36  0  0  0  0  0  0  0  0999 V2000
   44.4340   34.9100   41.5190 C   0  0  0  0  0  0  0  0  0  0  0  0
   44.6650   34.0540   40.4620 C   0  0  0  0  0  0  0  0  0  0  0  0
   43.6580   33.7960   39.5510 C   0  0  0  0  0  0  0  0  0  0  0  0
   42.4060   34.3760   39.6620 C   0  0  0  0  0  0  0  0  0  0  0  0
   41.4870   34.0710   38.7340 N   0  0  0  0  0  0  0  0  0  0  0  0
   40.2570   34.6240   38.8200 C   0  0  0  0  0  0  0  0  0  0  0  0
   39.9780   35.4760   39.8440 C   0  0  0  0  0  0  0  0  0  0  0  0
   40.9400   35.7880   40.8050 C   0  0  0  0  0  0  0  0  0  0  0  0
   42.2060   35.2250   40.7240 C   0  0  0  0  0  0  0  0  0  0  0  0
   43.1810   35.5180   41.6660 C   0  0  0  0  0  0  0  0  0  0  0  0
   45.3370   35.2680   42.5110 O   0  0  0  0  0  0  0  0  0  0  0  0
   44.5500   35.6270   44.8260 C   0  0  0  0  0  0  0  0  0  0  0  0
   45.2280   34.9020   43.8410 C   0  0  0  0  0  0  0  0  0  0  0  0
   45.8550   33.6940   44.2240 C   0  0  0  0  0  0  0  0  0  0  0  0
   45.7480   33.3350   45.5240 N   0  0  0  0  0  0  0  0  0  0  0  0
   45.0940   34.0450   46.4520 C   0  0  0  0  0  0  0  0  0  0  0  0
   44.4960   35.1970   46.0840 N   0  0  0  0  0  0  0  0  0  0  0  0
   45.0210   33.6120   47.7930 N   0  0  0  0  0  0  0  0  0  0  0  0
   45.7680   32.1500   48.3060 S   0  0  0  0  0  0  0  0  0  0  0  0
   47.2730   32.2100   48.1070 O   0  0  0  0  0  0  0  0  0  0  0  0
   45.1860   31.0180   47.5370 O   0  0  0  0  0  0  0  0  0  0  0  0
   45.4140   31.9420   49.9440 O   0  0  0  0  0  0  0  0  0  0  0  0
   45.6494   33.5774   40.3444 H   0  0  0  0  0  0  0  0  0  0  0  0
   43.8571   33.1104   38.7142 H   0  0  0  0  0  0  0  0  0  0  0  0
   39.4884   34.3877   38.0694 H   0  0  0  0  0  0  0  0  0  0  0  0
   38.9769   35.9263   39.9151 H   0  0  0  0  0  0  0  0  0  0  0  0
   40.6956   36.4789   41.6253 H   0  0  0  0  0  0  0  0  0  0  0  0
   42.9769   36.2049   42.5006 H   0  0  0  0  0  0  0  0  0  0  0  0
   44.0522   36.5700   44.5559 H   0  0  0  0  0  0  0  0  0  0  0  0
   46.4040   33.0751   43.4990 H   0  0  0  0  0  0  0  0  0  0  0  0
   44.5091   34.1840   48.4798 H   0  0  0  0  0  0  0  0  0  0  0  0
   47.7221   32.2279   48.9891 H   0  0  0  0  0  0  0  0  0  0  0  0
   44.8362   30.3376   48.1653 H   0  0  0  0  0  0  0  0  0  0  0  0
   46.1254   32.3600   50.4910 H   0  0  0  0  0  0  0  0  0  0  0  0
  1 10  1  0
  1 11  1  0
  2  1  2  0
  3  4  2  0
  3  2  1  0
  4  9  1  0
  5  6  2  0
  5  4  1  0
  6  7  1  0
  7  8  2  0
  9  8  1  0
  9 10  2  0
 11 13  1  0
 12 17  2  0
 13 14  2  0
 13 12  1  0
 14 15  1  0
 15 16  2  0
 16 18  1  0
 17 16  1  0
 18 19  1  0
 19 22  1  0
 20 19  1  0
 21 19  1  0
  2 23  1  0
  3 24  1  0
  6 25  1  0
  7 26  1  0
  8 27  1  0
 10 28  1  0
 12 29  1  0
 14 30  1  0
 18 31  1  0
 20 32  1  0
 21 33  1  0
 22 34  1  0
M  ISO  8  23  14  24  14  25  14  26  14  27  14  28  14  29  14  30  14
M  ISO  3  32   3  33   3  34   3
M  END
>  <minimizedAffinity>  (1) 
-7.24398804

>  <minimizedRMSD>  (1) 
1.54263401

$$$$
