
     RDKit          3D

 33 36  0  0  0  0  0  0  0  0999 V2000
   45.4850   35.3300   42.6970 O   0  0  0  0  0  0  0  0  0  0  0  0
   44.5370   34.9840   41.7310 C   0  0  0  0  0  0  0  0  0  0  0  0
   44.7150   34.1290   40.6570 C   0  0  0  0  0  0  0  0  0  0  0  0
   43.6680   33.9060   39.8070 C   0  0  0  0  0  0  0  0  0  0  0  0
   42.4190   34.5000   39.9690 C   0  0  0  0  0  0  0  0  0  0  0  0
   41.4670   34.2050   39.0710 N   0  0  0  0  0  0  0  0  0  0  0  0
   40.2410   34.7710   39.2070 C   0  0  0  0  0  0  0  0  0  0  0  0
   40.0310   35.6180   40.2520 C   0  0  0  0  0  0  0  0  0  0  0  0
   41.0340   35.9180   41.1820 C   0  0  0  0  0  0  0  0  0  0  0  0
   42.2860   35.3370   41.0420 C   0  0  0  0  0  0  0  0  0  0  0  0
   43.3110   35.6030   41.9370 C   0  0  0  0  0  0  0  0  0  0  0  0
   44.9540   34.8500   45.0540 C   0  0  0  0  0  0  0  0  0  0  0  0
   45.6800   34.6610   43.8780 C   0  0  0  0  0  0  0  0  0  0  0  0
   46.7040   33.6920   43.9200 C   0  0  0  0  0  0  0  0  0  0  0  0
   46.9040   33.0290   45.0760 N   0  0  0  0  0  0  0  0  0  0  0  0
   46.1830   33.2370   46.1950 C   0  0  0  0  0  0  0  0  0  0  0  0
   45.2020   34.1610   46.1650 N   0  0  0  0  0  0  0  0  0  0  0  0
   46.5370   32.4290   47.3540 C   0  0  0  0  0  0  0  0  0  0  0  0
   45.6720   32.4330   48.4510 C   0  0  0  0  0  0  0  0  0  0  0  0
   46.1930   31.6250   49.3980 N   0  0  0  0  0  0  0  0  0  0  0  0
   47.3640   31.1140   48.9210 C   0  0  0  0  0  0  0  0  0  0  0  0
   47.5630   31.6150   47.6670 N   0  0  0  0  0  0  0  0  0  0  0  0
   45.6843   33.6365   40.4901 H   0  0  0  0  0  0  0  0  0  0  0  0
   43.8190   33.2259   38.9557 H   0  0  0  0  0  0  0  0  0  0  0  0
   39.4363   34.5507   38.4901 H   0  0  0  0  0  0  0  0  0  0  0  0
   39.0406   36.0821   40.3697 H   0  0  0  0  0  0  0  0  0  0  0  0
   40.8313   36.6072   42.0150 H   0  0  0  0  0  0  0  0  0  0  0  0
   43.1575   36.2851   42.7862 H   0  0  0  0  0  0  0  0  0  0  0  0
   44.1462   35.5966   45.0633 H   0  0  0  0  0  0  0  0  0  0  0  0
   47.3219   33.4834   43.0342 H   0  0  0  0  0  0  0  0  0  0  0  0
   44.7305   32.9965   48.5292 H   0  0  0  0  0  0  0  0  0  0  0  0
   45.7785   31.4285   50.3202 H   0  0  0  0  0  0  0  0  0  0  0  0
   48.0310   30.4200   49.4534 H   0  0  0  0  0  0  0  0  0  0  0  0
  1 13  1  0
  2 11  1  0
  2  1  1  0
  3  2  2  0
  4  5  2  0
  4  3  1  0
  5 10  1  0
  6  7  2  0
  6  5  1  0
  7  8  1  0
  8  9  2  0
 10  9  1  0
 10 11  2  0
 12 17  2  0
 13 14  2  0
 13 12  1  0
 14 15  1  0
 15 16  2  0
 16 18  1  0
 17 16  1  0
 18 22  1  0
 18 19  2  0
 19 20  1  0
 21 20  1  0
 22 21  2  0
  3 23  1  0
  4 24  1  0
  7 25  1  0
  8 26  1  0
  9 27  1  0
 11 28  1  0
 12 29  1  0
 14 30  1  0
 19 31  1  0
 20 32  1  0
 21 33  1  0
M  ISO  8  23  14  24  14  25  14  26  14  27  14  28  14  29  14  30  14
M  ISO  3  31  14  32   9  33  14
M  END
>  <minimizedAffinity>  (1) 
-6.71500731

>  <minimizedRMSD>  (1) 
0.401345581

$$$$
