
     RDKit          3D

 39 42  0  0  0  0  0  0  0  0999 V2000
   44.8350   35.2510   44.8060 C   0  0  0  0  0  0  0  0  0  0  0  0
   44.9580   34.7580   43.5030 C   0  0  0  0  0  0  0  0  0  0  0  0
   45.3840   33.4260   43.3400 C   0  0  0  0  0  0  0  0  0  0  0  0
   45.6500   32.7080   44.4610 N   0  0  0  0  0  0  0  0  0  0  0  0
   45.5230   33.2100   45.7080 C   0  0  0  0  0  0  0  0  0  0  0  0
   45.1140   34.4880   45.8510 N   0  0  0  0  0  0  0  0  0  0  0  0
   46.5590   31.1870   46.6390 C   0  0  0  0  0  0  0  0  0  0  0  0
   45.8380   32.3440   46.8520 C   0  0  0  0  0  0  0  0  0  0  0  0
   45.3790   32.7600   48.0820 C   0  0  0  0  0  0  0  0  0  0  0  0
   45.6590   31.9610   49.1970 C   0  0  0  0  0  0  0  0  0  0  0  0
   46.3770   30.7910   49.0560 C   0  0  0  0  0  0  0  0  0  0  0  0
   46.8030   30.4380   47.7920 C   0  0  0  0  0  0  0  0  0  0  0  0
   47.1260   30.6880   45.0750 S   0  0  0  0  0  0  0  0  0  0  0  0
   48.5230   30.1140   45.2610 O   0  0  0  0  0  0  0  0  0  0  0  0
   46.3040   29.5700   44.4860 O   0  0  0  0  0  0  0  0  0  0  0  0
   44.6880   35.4790   42.3550 O   0  0  0  0  0  0  0  0  0  0  0  0
   43.8380   35.0580   41.3400 C   0  0  0  0  0  0  0  0  0  0  0  0
   44.1780   34.3370   40.2110 C   0  0  0  0  0  0  0  0  0  0  0  0
   43.2020   33.9960   39.2930 C   0  0  0  0  0  0  0  0  0  0  0  0
   41.8750   34.3550   39.4640 C   0  0  0  0  0  0  0  0  0  0  0  0
   40.9880   33.9860   38.5270 N   0  0  0  0  0  0  0  0  0  0  0  0
   39.6930   34.3270   38.6780 C   0  0  0  0  0  0  0  0  0  0  0  0
   39.3090   35.0370   39.7720 C   0  0  0  0  0  0  0  0  0  0  0  0
   40.2280   35.4180   40.7410 C   0  0  0  0  0  0  0  0  0  0  0  0
   41.5620   35.0690   40.5900 C   0  0  0  0  0  0  0  0  0  0  0  0
   42.5110   35.4400   41.5500 C   0  0  0  0  0  0  0  0  0  0  0  0
   44.5018   36.2872   44.9646 H   0  0  0  0  0  0  0  0  0  0  0  0
   45.4973   32.9828   42.3396 H   0  0  0  0  0  0  0  0  0  0  0  0
   44.8080   33.6945   48.1855 H   0  0  0  0  0  0  0  0  0  0  0  0
   45.3043   32.2679   50.1920 H   0  0  0  0  0  0  0  0  0  0  0  0
   46.6033   30.1578   49.9265 H   0  0  0  0  0  0  0  0  0  0  0  0
   47.3733   29.5035   47.6854 H   0  0  0  0  0  0  0  0  0  0  0  0
   47.0653   31.7776   44.2468 H   0  0  0  0  0  0  0  0  0  0  0  0
   45.2224   34.0352   40.0432 H   0  0  0  0  0  0  0  0  0  0  0  0
   43.4880   33.4219   38.3993 H   0  0  0  0  0  0  0  0  0  0  0  0
   38.9513   34.0327   37.9209 H   0  0  0  0  0  0  0  0  0  0  0  0
   38.2514   35.3147   39.8918 H   0  0  0  0  0  0  0  0  0  0  0  0
   39.9008   35.9916   41.6207 H   0  0  0  0  0  0  0  0  0  0  0  0
   42.2206   36.0145   42.4420 H   0  0  0  0  0  0  0  0  0  0  0  0
  1  6  2  0
  2  1  1  0
  3  2  2  0
  3  4  1  0
  4  5  2  0
  5  6  1  0
  5  8  1  0
  7  8  2  0
  7 12  1  0
  8  9  1  0
  9 10  2  0
 11 10  1  0
 12 11  2  0
 13 14  2  0
 13  7  1  0
 15 13  2  0
 16  2  1  0
 17 26  1  0
 17 16  1  0
 18 17  2  0
 19 20  2  0
 19 18  1  0
 20 25  1  0
 21 22  2  0
 21 20  1  0
 22 23  1  0
 23 24  2  0
 25 24  1  0
 25 26  2  0
  1 27  1  0
  3 28  1  0
  9 29  1  0
 10 30  1  0
 11 31  1  0
 12 32  1  0
 13 33  1  0
 18 34  1  0
 19 35  1  0
 22 36  1  0
 23 37  1  0
 24 38  1  0
 26 39  1  0
M  ISO  8  27  14  28  14  29  14  30  14  31  14  32  14  33  11  34  14
M  ISO  5  35  14  36  14  37  14  38  14  39  14
M  END
>  <minimizedAffinity>  (1) 
-6.53744268

>  <minimizedRMSD>  (1) 
1.19150233

$$$$
