
     RDKit          3D

 33 35  0  0  0  0  0  0  0  0999 V2000
   44.4920   35.0060   41.6510 C   0  0  0  0  0  0  0  0  0  0  0  0
   44.6580   34.1680   40.5590 C   0  0  0  0  0  0  0  0  0  0  0  0
   43.6000   33.9510   39.7010 C   0  0  0  0  0  0  0  0  0  0  0  0
   42.3630   34.5440   39.8890 C   0  0  0  0  0  0  0  0  0  0  0  0
   41.3900   34.2740   39.0020 N   0  0  0  0  0  0  0  0  0  0  0  0
   40.1790   34.8370   39.1610 C   0  0  0  0  0  0  0  0  0  0  0  0
   39.9700   35.6700   40.2210 C   0  0  0  0  0  0  0  0  0  0  0  0
   40.9760   35.9560   41.1480 C   0  0  0  0  0  0  0  0  0  0  0  0
   42.2200   35.3750   40.9810 C   0  0  0  0  0  0  0  0  0  0  0  0
   43.2680   35.6180   41.8700 C   0  0  0  0  0  0  0  0  0  0  0  0
   45.4550   35.3250   42.5990 O   0  0  0  0  0  0  0  0  0  0  0  0
   44.9130   34.9170   44.9700 C   0  0  0  0  0  0  0  0  0  0  0  0
   45.6280   34.6700   43.7940 C   0  0  0  0  0  0  0  0  0  0  0  0
   46.6080   33.6670   43.8380 C   0  0  0  0  0  0  0  0  0  0  0  0
   46.7870   33.0130   45.0160 N   0  0  0  0  0  0  0  0  0  0  0  0
   46.0840   33.2760   46.1250 C   0  0  0  0  0  0  0  0  0  0  0  0
   45.1410   34.2400   46.0870 N   0  0  0  0  0  0  0  0  0  0  0  0
   46.3430   32.5250   47.3440 C   0  0  0  0  0  0  0  0  0  0  0  0
   45.3330   32.1910   48.1250 C   0  0  0  0  0  0  0  0  0  0  0  0
   45.4270   31.4300   49.3970 C   0  0  0  0  0  0  0  0  0  0  0  0
   45.6268   33.6795   40.3781 H   0  0  0  0  0  0  0  0  0  0  0  0
   43.7439   33.2842   38.8381 H   0  0  0  0  0  0  0  0  0  0  0  0
   39.3688   34.6288   38.4467 H   0  0  0  0  0  0  0  0  0  0  0  0
   38.9794   36.1306   40.3500 H   0  0  0  0  0  0  0  0  0  0  0  0
   40.7820   36.6307   41.9948 H   0  0  0  0  0  0  0  0  0  0  0  0
   43.1246   36.2858   42.7323 H   0  0  0  0  0  0  0  0  0  0  0  0
   44.1374   35.6971   44.9684 H   0  0  0  0  0  0  0  0  0  0  0  0
   47.2097   33.4189   42.9512 H   0  0  0  0  0  0  0  0  0  0  0  0
   47.3706   32.2384   47.6120 H   0  0  0  0  0  0  0  0  0  0  0  0
   44.3288   32.5052   47.8043 H   0  0  0  0  0  0  0  0  0  0  0  0
   45.3413   32.1236   50.2464 H   0  0  0  0  0  0  0  0  0  0  0  0
   44.6133   30.6913   49.4433 H   0  0  0  0  0  0  0  0  0  0  0  0
   46.3960   30.9115   49.4433 H   0  0  0  0  0  0  0  0  0  0  0  0
  1 10  1  0
  1 11  1  0
  2  1  2  0
  3  4  2  0
  3  2  1  0
  4  9  1  0
  5  6  2  0
  5  4  1  0
  6  7  1  0
  7  8  2  0
  9  8  1  0
  9 10  2  0
 11 13  1  0
 12 17  2  0
 13 14  2  0
 13 12  1  0
 14 15  1  0
 15 16  2  0
 16 18  1  0
 17 16  1  0
 18 19  2  0
 19 20  1  0
  2 21  1  0
  3 22  1  0
  6 23  1  0
  7 24  1  0
  8 25  1  0
 10 26  1  0
 12 27  1  0
 14 28  1  0
 18 29  1  0
 19 30  1  0
 20 31  1  0
 20 32  1  0
 20 33  1  0
M  ISO  8  21  14  22  14  23  14  24  14  25  14  26  14  27  14  28  14
M  ISO  3  31   8  32   8  33   8
M  END
>  <minimizedAffinity>  (1) 
-6.29725027

>  <minimizedRMSD>  (1) 
0.252010912

$$$$
