
     RDKit          3D

 40 44  0  0  0  0  0  0  0  0999 V2000
   44.4150   35.7080   44.5690 C   0  0  0  0  0  0  0  0  0  0  0  0
   44.5500   35.2540   43.2620 C   0  0  0  0  0  0  0  0  0  0  0  0
   45.2090   34.0130   43.0680 C   0  0  0  0  0  0  0  0  0  0  0  0
   45.6620   33.3510   44.1480 N   0  0  0  0  0  0  0  0  0  0  0  0
   45.5170   33.8140   45.3980 C   0  0  0  0  0  0  0  0  0  0  0  0
   44.8800   35.0150   45.5980 N   0  0  0  0  0  0  0  0  0  0  0  0
   45.9830   33.1520   46.6170 C   0  0  0  0  0  0  0  0  0  0  0  0
   45.1310   32.9140   47.6990 C   0  0  0  0  0  0  0  0  0  0  0  0
   45.8780   32.2780   48.6790 C   0  0  0  0  0  0  0  0  0  0  0  0
   47.1420   32.1490   48.1690 N   0  0  0  0  0  0  0  0  0  0  0  0
   47.1760   32.6750   46.9460 N   0  0  0  0  0  0  0  0  0  0  0  0
   48.2030   31.5370   48.8910 C   0  0  0  0  0  0  0  0  0  0  0  0
   48.1650   30.1980   49.2580 C   0  0  0  0  0  0  0  0  0  0  0  0
   49.3190   29.9240   49.9310 N   0  0  0  0  0  0  0  0  0  0  0  0
   50.0610   31.0680   49.9820 C   0  0  0  0  0  0  0  0  0  0  0  0
   49.3600   32.0470   49.3380 N   0  0  0  0  0  0  0  0  0  0  0  0
   44.1010   35.8990   42.1280 O   0  0  0  0  0  0  0  0  0  0  0  0
   43.3220   35.3080   41.1320 C   0  0  0  0  0  0  0  0  0  0  0  0
   43.7740   34.5820   40.0580 C   0  0  0  0  0  0  0  0  0  0  0  0
   42.8740   34.0590   39.1560 C   0  0  0  0  0  0  0  0  0  0  0  0
   41.5030   34.2390   39.2880 C   0  0  0  0  0  0  0  0  0  0  0  0
   40.6960   33.7080   38.3810 N   0  0  0  0  0  0  0  0  0  0  0  0
   39.3610   33.8590   38.4740 C   0  0  0  0  0  0  0  0  0  0  0  0
   38.8720   34.5790   39.5340 C   0  0  0  0  0  0  0  0  0  0  0  0
   39.7200   35.1410   40.4920 C   0  0  0  0  0  0  0  0  0  0  0  0
   41.0720   34.9710   40.3720 C   0  0  0  0  0  0  0  0  0  0  0  0
   41.9630   35.5110   41.3010 C   0  0  0  0  0  0  0  0  0  0  0  0
   43.9091   36.6672   44.7536 H   0  0  0  0  0  0  0  0  0  0  0  0
   45.3465   33.6012   42.0573 H   0  0  0  0  0  0  0  0  0  0  0  0
   44.0659   33.1815   47.7616 H   0  0  0  0  0  0  0  0  0  0  0  0
   45.5262   31.9446   49.6664 H   0  0  0  0  0  0  0  0  0  0  0  0
   47.3523   29.4880   49.0447 H   0  0  0  0  0  0  0  0  0  0  0  0
   49.5842   29.0126   50.3310 H   0  0  0  0  0  0  0  0  0  0  0  0
   51.0468   31.1812   50.4567 H   0  0  0  0  0  0  0  0  0  0  0  0
   44.8527   34.4183   39.9181 H   0  0  0  0  0  0  0  0  0  0  0  0
   43.2539   33.4790   38.3020 H   0  0  0  0  0  0  0  0  0  0  0  0
   38.6856   33.4197   37.7251 H   0  0  0  0  0  0  0  0  0  0  0  0
   37.7852   34.7175   39.6325 H   0  0  0  0  0  0  0  0  0  0  0  0
   39.3046   35.7142   41.3340 H   0  0  0  0  0  0  0  0  0  0  0  0
   41.5896   36.0913   42.1577 H   0  0  0  0  0  0  0  0  0  0  0  0
  1  6  2  0
  2  1  1  0
  3  2  2  0
  3  4  1  0
  4  5  2  0
  5  6  1  0
  5  7  1  0
  7 11  2  0
  7  8  1  0
  8  9  2  0
 10  9  1  0
 10 12  1  0
 11 10  1  0
 12 13  2  0
 12 16  1  0
 13 14  1  0
 14 15  1  0
 16 15  2  0
 17  2  1  0
 18 27  1  0
 18 17  1  0
 19 18  2  0
 20 21  2  0
 20 19  1  0
 21 26  1  0
 22 23  2  0
 22 21  1  0
 23 24  1  0
 24 25  2  0
 26 25  1  0
 26 27  2  0
  1 28  1  0
  3 29  1  0
  8 30  1  0
  9 31  1  0
 13 32  1  0
 14 33  1  0
 15 34  1  0
 19 35  1  0
 20 36  1  0
 23 37  1  0
 24 38  1  0
 25 39  1  0
 27 40  1  0
M  ISO  8  28  14  29  14  30  14  31  14  32  14  33   9  34  14  35  14
M  ISO  5  36  14  37  14  38  14  39  14  40  14
M  END
>  <minimizedAffinity>  (1) 
-7.41694117

>  <minimizedRMSD>  (1) 
1.5429523

$$$$
