
     RDKit          3D

 39 42  0  0  0  0  0  0  0  0999 V2000
   44.4900   35.5500   44.7870 C   0  0  0  0  0  0  0  0  0  0  0  0
   44.7450   35.1480   43.4720 C   0  0  0  0  0  0  0  0  0  0  0  0
   45.4730   33.9540   43.2770 C   0  0  0  0  0  0  0  0  0  0  0  0
   45.8800   33.2710   44.3620 N   0  0  0  0  0  0  0  0  0  0  0  0
   45.6180   33.6830   45.6180 C   0  0  0  0  0  0  0  0  0  0  0  0
   44.9180   34.8330   45.8140 N   0  0  0  0  0  0  0  0  0  0  0  0
   46.0350   32.9830   46.8260 C   0  0  0  0  0  0  0  0  0  0  0  0
   45.1360   32.7310   47.8730 C   0  0  0  0  0  0  0  0  0  0  0  0
   45.8470   32.0500   48.8650 C   0  0  0  0  0  0  0  0  0  0  0  0
   47.1120   31.9130   48.4070 N   0  0  0  0  0  0  0  0  0  0  0  0
   47.1920   32.4740   47.2000 N   0  0  0  0  0  0  0  0  0  0  0  0
   48.2550   31.2830   49.0420 C   0  0  0  0  0  0  0  0  0  0  0  0
   48.7460   30.1600   48.1220 C   0  0  0  0  0  0  0  0  0  0  0  0
   44.3470   35.8200   42.3250 O   0  0  0  0  0  0  0  0  0  0  0  0
   43.5740   35.2670   41.3130 C   0  0  0  0  0  0  0  0  0  0  0  0
   44.0220   34.5030   40.2660 C   0  0  0  0  0  0  0  0  0  0  0  0
   43.1410   34.0190   39.3330 C   0  0  0  0  0  0  0  0  0  0  0  0
   41.7720   34.2840   39.4140 C   0  0  0  0  0  0  0  0  0  0  0  0
   40.9610   33.7830   38.4700 N   0  0  0  0  0  0  0  0  0  0  0  0
   39.6430   34.0110   38.5070 C   0  0  0  0  0  0  0  0  0  0  0  0
   39.1470   34.7810   39.5510 C   0  0  0  0  0  0  0  0  0  0  0  0
   39.9950   35.3060   40.5390 C   0  0  0  0  0  0  0  0  0  0  0  0
   41.3400   35.0540   40.4720 C   0  0  0  0  0  0  0  0  0  0  0  0
   42.2070   35.5570   41.4310 C   0  0  0  0  0  0  0  0  0  0  0  0
   43.9253   36.4759   44.9706 H   0  0  0  0  0  0  0  0  0  0  0  0
   45.7015   33.5916   42.2638 H   0  0  0  0  0  0  0  0  0  0  0  0
   44.0739   33.0152   47.9068 H   0  0  0  0  0  0  0  0  0  0  0  0
   45.4545   31.6950   49.8293 H   0  0  0  0  0  0  0  0  0  0  0  0
   49.0557   32.0228   49.1887 H   0  0  0  0  0  0  0  0  0  0  0  0
   47.9717   30.8770   50.0243 H   0  0  0  0  0  0  0  0  0  0  0  0
   49.1129   29.3209   48.7313 H   0  0  0  0  0  0  0  0  0  0  0  0
   47.9158   29.8167   47.4872 H   0  0  0  0  0  0  0  0  0  0  0  0
   49.5617   30.5363   47.4872 H   0  0  0  0  0  0  0  0  0  0  0  0
   45.0946   34.2770   40.1739 H   0  0  0  0  0  0  0  0  0  0  0  0
   43.5215   33.4078   38.5014 H   0  0  0  0  0  0  0  0  0  0  0  0
   38.9741   33.6018   37.7356 H   0  0  0  0  0  0  0  0  0  0  0  0
   38.0672   34.9837   39.6049 H   0  0  0  0  0  0  0  0  0  0  0  0
   39.5837   35.9135   41.3586 H   0  0  0  0  0  0  0  0  0  0  0  0
   41.8311   36.1689   42.2643 H   0  0  0  0  0  0  0  0  0  0  0  0
  1  6  2  0
  2  1  1  0
  3  2  2  0
  3  4  1  0
  4  5  2  0
  5  6  1  0
  5  7  1  0
  7 11  2  0
  7  8  1  0
  8  9  2  0
 10  9  1  0
 10 12  1  0
 11 10  1  0
 13 12  1  0
 14  2  1  0
 15 24  1  0
 15 14  1  0
 16 15  2  0
 17 18  2  0
 17 16  1  0
 18 23  1  0
 19 20  2  0
 19 18  1  0
 20 21  1  0
 21 22  2  0
 23 22  1  0
 23 24  2  0
  1 25  1  0
  3 26  1  0
  8 27  1  0
  9 28  1  0
 12 29  1  0
 12 30  1  0
 13 31  1  0
 13 32  1  0
 13 33  1  0
 16 34  1  0
 17 35  1  0
 20 36  1  0
 21 37  1  0
 22 38  1  0
 24 39  1  0
M  ISO  8  25  14  26  14  27  14  28  14  29   8  30   8  31   8  32   8
M  ISO  7  33   8  34  14  35  14  36  14  37  14  38  14  39  14
M  END
>  <minimizedAffinity>  (1) 
-6.8215518

>  <minimizedRMSD>  (1) 
1.32937765

$$$$
