
     RDKit          3D

 29 31  0  0  0  0  0  0  0  0999 V2000
   46.8400   34.7630   42.1430 C   0  0  0  0  0  0  0  0  0  0  0  0
   48.0570   35.4010   42.0200 C   0  0  0  0  0  0  0  0  0  0  0  0
   48.8390   35.3750   40.8780 C   0  0  0  0  0  0  0  0  0  0  0  0
   48.2900   34.6320   39.8210 C   0  0  0  0  0  0  0  0  0  0  0  0
   47.0700   33.9860   39.9260 C   0  0  0  0  0  0  0  0  0  0  0  0
   46.3850   34.0750   41.0910 N   0  0  0  0  0  0  0  0  0  0  0  0
   48.2180   34.5730   37.1800 Cl  0  0  0  0  0  0  0  0  0  0  0  0
   46.9560   33.4060   37.5470 C   0  0  0  0  0  0  0  0  0  0  0  0
   46.5130   33.2260   38.8400 C   0  0  0  0  0  0  0  0  0  0  0  0
   45.5210   32.2790   38.9720 C   0  0  0  0  0  0  0  0  0  0  0  0
   44.9840   31.5470   37.9250 C   0  0  0  0  0  0  0  0  0  0  0  0
   45.4750   31.7770   36.6460 C   0  0  0  0  0  0  0  0  0  0  0  0
   44.7980   30.8540   35.3230 Cl  0  0  0  0  0  0  0  0  0  0  0  0
   46.4630   32.7100   36.4670 C   0  0  0  0  0  0  0  0  0  0  0  0
   45.5830   33.9530   45.4880 C   0  0  0  0  0  0  0  0  0  0  0  0
   44.6680   35.0080   45.7250 C   0  0  0  0  0  0  0  0  0  0  0  0
   44.5050   35.9690   44.7280 C   0  0  0  0  0  0  0  0  0  0  0  0
   45.2350   35.8510   43.5720 N   0  0  0  0  0  0  0  0  0  0  0  0
   46.0880   34.8420   43.3870 C   0  0  0  0  0  0  0  0  0  0  0  0
   46.2730   33.8940   44.3260 N   0  0  0  0  0  0  0  0  0  0  0  0
   48.4304   35.9674   42.8859 H   0  0  0  0  0  0  0  0  0  0  0  0
   49.8072   35.8920   40.8051 H   0  0  0  0  0  0  0  0  0  0  0  0
   48.8488   34.5606   38.8762 H   0  0  0  0  0  0  0  0  0  0  0  0
   45.1268   32.0903   39.9814 H   0  0  0  0  0  0  0  0  0  0  0  0
   44.1915   30.8049   38.1017 H   0  0  0  0  0  0  0  0  0  0  0  0
   46.8618   32.9024   35.4601 H   0  0  0  0  0  0  0  0  0  0  0  0
   45.7333   33.1773   46.2533 H   0  0  0  0  0  0  0  0  0  0  0  0
   44.1032   35.0673   46.6670 H   0  0  0  0  0  0  0  0  0  0  0  0
   43.8045   36.8059   44.8655 H   0  0  0  0  0  0  0  0  0  0  0  0
  1 19  1  0
  2  1  2  0
  3  2  1  0
  4  5  1  0
  4  3  2  0
  5  6  2  0
  6  1  1  0
  7  8  1  0
  8  9  2  0
  9 10  1  0
  9  5  1  0
 11 10  2  0
 12 11  1  0
 13 12  1  0
 14 12  2  0
 14  8  1  0
 15 16  2  0
 17 16  1  0
 18 17  2  0
 19 18  1  0
 19 20  2  0
 20 15  1  0
  2 21  1  0
  3 22  1  0
  4 23  1  0
 10 24  1  0
 11 25  1  0
 14 26  1  0
 15 27  1  0
 16 28  1  0
 17 29  1  0
M  ISO  8  21  14  22  14  23  14  24  14  25  14  26  14  27  14  28  14
M  ISO  1  29  14
M  END
>  <minimizedAffinity>  (1) 
-5.90249586

>  <minimizedRMSD>  (1) 
0.411378741

$$$$
