
     RDKit          3D

 29 31  0  0  0  0  0  0  0  0999 V2000
   46.7580   34.6880   42.1260 C   0  0  0  0  0  0  0  0  0  0  0  0
   47.9980   35.2910   41.9700 C   0  0  0  0  0  0  0  0  0  0  0  0
   48.7400   35.2370   40.8140 C   0  0  0  0  0  0  0  0  0  0  0  0
   48.1410   34.5090   39.7670 C   0  0  0  0  0  0  0  0  0  0  0  0
   46.9050   33.9020   39.9080 C   0  0  0  0  0  0  0  0  0  0  0  0
   46.2530   34.0140   41.0900 N   0  0  0  0  0  0  0  0  0  0  0  0
   45.5410   33.9900   45.5060 C   0  0  0  0  0  0  0  0  0  0  0  0
   44.6630   35.0480   45.7450 C   0  0  0  0  0  0  0  0  0  0  0  0
   44.4960   35.9960   44.7360 C   0  0  0  0  0  0  0  0  0  0  0  0
   45.1990   35.8410   43.5690 N   0  0  0  0  0  0  0  0  0  0  0  0
   46.0410   34.7960   43.3840 C   0  0  0  0  0  0  0  0  0  0  0  0
   46.2190   33.8770   44.3310 N   0  0  0  0  0  0  0  0  0  0  0  0
   48.3250   34.4050   37.2620 Br  0  0  0  0  0  0  0  0  0  0  0  0
   46.8110   33.2580   37.5450 C   0  0  0  0  0  0  0  0  0  0  0  0
   46.3060   33.1620   38.8320 C   0  0  0  0  0  0  0  0  0  0  0  0
   45.2280   32.3230   38.9420 C   0  0  0  0  0  0  0  0  0  0  0  0
   44.6680   31.6230   37.9030 C   0  0  0  0  0  0  0  0  0  0  0  0
   45.1950   31.7440   36.6450 C   0  0  0  0  0  0  0  0  0  0  0  0
   46.2720   32.5680   36.4810 C   0  0  0  0  0  0  0  0  0  0  0  0
   48.4128   35.8465   42.8240 H   0  0  0  0  0  0  0  0  0  0  0  0
   49.7219   35.7228   40.7145 H   0  0  0  0  0  0  0  0  0  0  0  0
   48.6720   34.4202   38.8078 H   0  0  0  0  0  0  0  0  0  0  0  0
   45.6888   33.2287   46.2861 H   0  0  0  0  0  0  0  0  0  0  0  0
   44.1204   35.1315   46.6982 H   0  0  0  0  0  0  0  0  0  0  0  0
   43.8154   36.8492   44.8733 H   0  0  0  0  0  0  0  0  0  0  0  0
   44.7777   32.2015   39.9382 H   0  0  0  0  0  0  0  0  0  0  0  0
   43.8014   30.9689   38.0796 H   0  0  0  0  0  0  0  0  0  0  0  0
   44.7650   31.1954   35.7940 H   0  0  0  0  0  0  0  0  0  0  0  0
   46.7170   32.6828   35.4816 H   0  0  0  0  0  0  0  0  0  0  0  0
  1 11  1  0
  2  1  2  0
  3  2  1  0
  4  5  1  0
  4  3  2  0
  5  6  2  0
  6  1  1  0
  7  8  2  0
  9  8  1  0
 10  9  2  0
 11 10  1  0
 11 12  2  0
 12  7  1  0
 13 14  1  0
 14 15  2  0
 15 16  1  0
 15  5  1  0
 17 16  2  0
 18 17  1  0
 19 18  2  0
 19 14  1  0
  2 20  1  0
  3 21  1  0
  4 22  1  0
  7 23  1  0
  8 24  1  0
  9 25  1  0
 16 26  1  0
 17 27  1  0
 18 28  1  0
 19 29  1  0
M  ISO  8  20  14  21  14  22  14  23  14  24  14  25  14  26  14  27  14
M  ISO  2  28  14  29  14
M  END
>  <minimizedAffinity>  (1) 
-5.76743793

>  <minimizedRMSD>  (1) 
0.188914984

$$$$
