
     RDKit          3D

 35 37  0  0  0  0  0  0  0  0999 V2000
   46.8670   34.7390   42.0830 C   0  0  0  0  0  0  0  0  0  0  0  0
   48.0380   35.4430   41.9220 C   0  0  0  0  0  0  0  0  0  0  0  0
   48.8100   35.4450   40.7850 C   0  0  0  0  0  0  0  0  0  0  0  0
   48.3030   34.6490   39.7560 C   0  0  0  0  0  0  0  0  0  0  0  0
   47.1090   33.9190   39.8910 C   0  0  0  0  0  0  0  0  0  0  0  0
   46.4220   33.9870   41.0580 N   0  0  0  0  0  0  0  0  0  0  0  0
   45.6220   33.9530   45.4380 C   0  0  0  0  0  0  0  0  0  0  0  0
   44.7020   34.9730   45.6900 C   0  0  0  0  0  0  0  0  0  0  0  0
   44.5220   35.9330   44.6840 C   0  0  0  0  0  0  0  0  0  0  0  0
   45.2480   35.8180   43.5250 N   0  0  0  0  0  0  0  0  0  0  0  0
   46.1240   34.8080   43.3370 C   0  0  0  0  0  0  0  0  0  0  0  0
   46.3110   33.8880   44.2760 N   0  0  0  0  0  0  0  0  0  0  0  0
   46.6220   33.1020   38.7820 C   0  0  0  0  0  0  0  0  0  0  0  0
   45.0930   33.0930   38.6770 C   0  0  0  0  0  0  0  0  0  0  0  0
   44.7910   31.9120   37.7600 C   0  0  0  0  0  0  0  0  0  0  0  0
   45.2750   32.2980   36.3770 C   0  0  0  0  0  0  0  0  0  0  0  0
   46.7240   32.6460   36.3480 C   0  0  0  0  0  0  0  0  0  0  0  0
   47.2150   33.4930   37.4680 C   0  0  0  0  0  0  0  0  0  0  0  0
   48.3836   36.0523   42.7701 H   0  0  0  0  0  0  0  0  0  0  0  0
   49.7425   36.0213   40.6939 H   0  0  0  0  0  0  0  0  0  0  0  0
   48.8567   34.5910   38.8073 H   0  0  0  0  0  0  0  0  0  0  0  0
   45.7907   33.1823   46.2046 H   0  0  0  0  0  0  0  0  0  0  0  0
   44.1431   35.0212   46.6362 H   0  0  0  0  0  0  0  0  0  0  0  0
   43.8125   36.7624   44.8211 H   0  0  0  0  0  0  0  0  0  0  0  0
   46.9567   32.0813   39.0189 H   0  0  0  0  0  0  0  0  0  0  0  0
   44.6344   32.9469   39.6661 H   0  0  0  0  0  0  0  0  0  0  0  0
   44.6903   34.0412   38.2913 H   0  0  0  0  0  0  0  0  0  0  0  0
   45.3220   31.0147   38.1105 H   0  0  0  0  0  0  0  0  0  0  0  0
   43.7152   31.6826   37.7524 H   0  0  0  0  0  0  0  0  0  0  0  0
   45.1032   31.4517   35.6957 H   0  0  0  0  0  0  0  0  0  0  0  0
   44.7136   33.1919   36.0674 H   0  0  0  0  0  0  0  0  0  0  0  0
   47.2959   31.7064   36.3612 H   0  0  0  0  0  0  0  0  0  0  0  0
   46.8658   33.2474   35.4379 H   0  0  0  0  0  0  0  0  0  0  0  0
   48.3088   33.3951   37.5313 H   0  0  0  0  0  0  0  0  0  0  0  0
   46.9136   34.5303   37.2602 H   0  0  0  0  0  0  0  0  0  0  0  0
  1 11  1  0
  2  1  2  0
  3  2  1  0
  4  5  1  0
  4  3  2  0
  5  6  2  0
  6  1  1  0
  7  8  2  0
  9  8  1  0
 10  9  2  0
 11 10  1  0
 11 12  2  0
 12  7  1  0
 13  5  1  0
 14 13  1  0
 15 14  1  0
 16 15  1  0
 17 16  1  0
 17 18  1  0
 18 13  1  0
  2 19  1  0
  3 20  1  0
  4 21  1  0
  7 22  1  0
  8 23  1  0
  9 24  1  0
 13 25  1  0
 14 26  1  0
 14 27  1  0
 15 28  1  0
 15 29  1  0
 16 30  1  0
 16 31  1  0
 17 32  1  0
 17 33  1  0
 18 34  1  0
 18 35  1  0
M  ISO  8  19  14  20  14  21  14  22  14  23  14  24  14  25  13  26  13
M  ISO  8  27  13  28  13  29  13  30  13  31  13  32  13  33  13  34  13
M  ISO  1  35  13
M  END
>  <minimizedAffinity>  (1) 
-5.45282555

>  <minimizedRMSD>  (1) 
0.544858634

$$$$
