
     RDKit          3D

 21 22  0  0  0  0  0  0  0  0999 V2000
   46.8240   34.7250   42.0770 C   0  0  0  0  0  0  0  0  0  0  0  0
   48.0010   35.4020   41.8940 C   0  0  0  0  0  0  0  0  0  0  0  0
   48.7730   35.3950   40.7580 C   0  0  0  0  0  0  0  0  0  0  0  0
   48.2520   34.6080   39.7410 C   0  0  0  0  0  0  0  0  0  0  0  0
   47.0630   33.9090   39.8910 C   0  0  0  0  0  0  0  0  0  0  0  0
   46.3510   33.9680   41.0570 N   0  0  0  0  0  0  0  0  0  0  0  0
   46.4940   33.0900   38.8750 N   0  0  0  0  0  0  0  0  0  0  0  0
   45.6050   33.9580   45.4470 C   0  0  0  0  0  0  0  0  0  0  0  0
   44.7020   34.9950   45.6940 C   0  0  0  0  0  0  0  0  0  0  0  0
   44.5250   35.9490   44.6900 C   0  0  0  0  0  0  0  0  0  0  0  0
   45.2350   35.8310   43.5180 N   0  0  0  0  0  0  0  0  0  0  0  0
   46.0930   34.8130   43.3320 C   0  0  0  0  0  0  0  0  0  0  0  0
   46.2750   33.8940   44.2760 N   0  0  0  0  0  0  0  0  0  0  0  0
   48.3621   36.0090   42.7373 H   0  0  0  0  0  0  0  0  0  0  0  0
   49.7130   35.9586   40.6637 H   0  0  0  0  0  0  0  0  0  0  0  0
   48.7973   34.5362   38.7884 H   0  0  0  0  0  0  0  0  0  0  0  0
   45.6070   32.5959   39.0484 H   0  0  0  0  0  0  0  0  0  0  0  0
   46.9693   32.9915   37.9666 H   0  0  0  0  0  0  0  0  0  0  0  0
   45.7718   33.1866   46.2132 H   0  0  0  0  0  0  0  0  0  0  0  0
   44.1510   35.0576   46.6440 H   0  0  0  0  0  0  0  0  0  0  0  0
   43.8256   36.7856   44.8347 H   0  0  0  0  0  0  0  0  0  0  0  0
  1 12  1  0
  2  1  2  0
  3  2  1  0
  4  5  1  0
  4  3  2  0
  5  6  2  0
  6  1  1  0
  7  5  1  0
  8  9  2  0
 10  9  1  0
 11 10  2  0
 12 11  1  0
 12 13  2  0
 13  8  1  0
  2 14  1  0
  3 15  1  0
  4 16  1  0
  7 17  1  0
  7 18  1  0
  8 19  1  0
  9 20  1  0
 10 21  1  0
M  ISO  6  14  14  15  14  16  14  19  14  20  14  21  14
M  END
>  <minimizedAffinity>  (1) 
-4.81766844

>  <minimizedRMSD>  (1) 
0.0141616762

$$$$
