
     RDKit          3D

 21 22  0  0  0  0  0  0  0  0999 V2000
   46.8400   34.7310   42.0480 C   0  0  0  0  0  0  0  0  0  0  0  0
   48.0300   35.4210   41.8910 C   0  0  0  0  0  0  0  0  0  0  0  0
   48.7860   35.3950   40.7260 C   0  0  0  0  0  0  0  0  0  0  0  0
   48.2510   34.6090   39.7060 C   0  0  0  0  0  0  0  0  0  0  0  0
   47.0610   33.9170   39.8550 C   0  0  0  0  0  0  0  0  0  0  0  0
   46.3860   33.9960   41.0270 N   0  0  0  0  0  0  0  0  0  0  0  0
   45.6140   33.9530   45.4130 C   0  0  0  0  0  0  0  0  0  0  0  0
   44.7140   34.9910   45.6620 C   0  0  0  0  0  0  0  0  0  0  0  0
   44.5340   35.9560   44.6660 C   0  0  0  0  0  0  0  0  0  0  0  0
   45.2500   35.8360   43.4930 N   0  0  0  0  0  0  0  0  0  0  0  0
   46.1090   34.8110   43.3020 C   0  0  0  0  0  0  0  0  0  0  0  0
   46.2860   33.8910   44.2430 N   0  0  0  0  0  0  0  0  0  0  0  0
   46.5610   33.1150   38.7470 C   0  0  0  0  0  0  0  0  0  0  0  0
   46.7890   33.4500   37.5570 O   0  0  0  0  0  0  0  0  0  0  0  0
   48.3970   36.0230   42.7354 H   0  0  0  0  0  0  0  0  0  0  0  0
   49.7298   35.9493   40.6169 H   0  0  0  0  0  0  0  0  0  0  0  0
   48.7924   34.5363   38.7512 H   0  0  0  0  0  0  0  0  0  0  0  0
   45.7773   33.1785   46.1768 H   0  0  0  0  0  0  0  0  0  0  0  0
   44.1634   35.0480   46.6126 H   0  0  0  0  0  0  0  0  0  0  0  0
   43.8361   36.7932   44.8148 H   0  0  0  0  0  0  0  0  0  0  0  0
   45.9773   32.2059   38.9537 H   0  0  0  0  0  0  0  0  0  0  0  0
  1 11  1  0
  2  1  2  0
  3  2  1  0
  4  5  1  0
  4  3  2  0
  5  6  2  0
  6  1  1  0
  7  8  2  0
  9  8  1  0
 10  9  2  0
 11 10  1  0
 11 12  2  0
 12  7  1  0
 13  5  1  0
 14 13  2  0
  2 15  1  0
  3 16  1  0
  4 17  1  0
  7 18  1  0
  8 19  1  0
  9 20  1  0
 13 21  1  0
M  ISO  7  15  14  16  14  17  14  18  14  19  14  20  14  21   6
M  END
>  <minimizedAffinity>  (1) 
-4.76631975

>  <minimizedRMSD>  (1) 
0.0909313858

$$$$
