
     RDKit          3D

 36 38  0  0  1  0  0  0  0  0999 V2000
   46.8610   34.7310   41.8760 C   0  0  0  0  0  0  0  0  0  0  0  0
   48.0420   35.4060   41.6930 C   0  0  0  0  0  0  0  0  0  0  0  0
   48.8220   35.3330   40.5580 C   0  0  0  0  0  0  0  0  0  0  0  0
   48.3020   34.4900   39.5700 C   0  0  0  0  0  0  0  0  0  0  0  0
   47.0840   33.7850   39.7430 C   0  0  0  0  0  0  0  0  0  0  0  0
   46.3890   33.9210   40.8950 N   0  0  0  0  0  0  0  0  0  0  0  0
   46.5840   32.9250   38.6670 C   0  0  1  0  0  0  0  0  0  0  0  0
   45.0450   33.0240   38.5370 C   0  0  0  0  0  0  0  0  0  0  0  0
   44.6820   31.8150   37.6620 C   0  0  0  0  0  0  0  0  0  0  0  0
   45.1920   32.1240   36.2800 C   0  0  0  0  0  0  0  0  0  0  0  0
   46.6430   32.4010   36.2400 C   0  0  0  0  0  0  0  0  0  0  0  0
   47.2170   33.1800   37.3610 C   0  0  1  0  0  0  0  0  0  0  0  0
   47.1370   34.5760   37.1300 O   0  0  0  0  0  0  0  0  0  0  0  0
   45.4800   34.1420   45.2170 C   0  0  0  0  0  0  0  0  0  0  0  0
   44.6590   35.2520   45.4350 C   0  0  0  0  0  0  0  0  0  0  0  0
   44.5950   36.1990   44.4160 C   0  0  0  0  0  0  0  0  0  0  0  0
   45.3280   35.9890   43.2730 N   0  0  0  0  0  0  0  0  0  0  0  0
   46.1090   34.8850   43.1200 C   0  0  0  0  0  0  0  0  0  0  0  0
   46.1840   33.9790   44.0720 N   0  0  0  0  0  0  0  0  0  0  0  0
   48.3919   36.0524   42.5114 H   0  0  0  0  0  0  0  0  0  0  0  0
   49.7654   35.8863   40.4405 H   0  0  0  0  0  0  0  0  0  0  0  0
   48.8565   34.3701   38.6276 H   0  0  0  0  0  0  0  0  0  0  0  0
   46.8617   31.9018   38.9601 H   0  0  0  0  0  0  0  0  0  0  0  0
   44.5617   32.9555   39.5228 H   0  0  0  0  0  0  0  0  0  0  0  0
   44.7114   33.9801   38.1074 H   0  0  0  0  0  0  0  0  0  0  0  0
   45.1632   30.9055   38.0508 H   0  0  0  0  0  0  0  0  0  0  0  0
   43.5964   31.6375   37.6566 H   0  0  0  0  0  0  0  0  0  0  0  0
   44.9833   31.2615   35.6300 H   0  0  0  0  0  0  0  0  0  0  0  0
   44.6773   33.0345   35.9392 H   0  0  0  0  0  0  0  0  0  0  0  0
   47.1636   31.4324   36.2101 H   0  0  0  0  0  0  0  0  0  0  0  0
   46.7849   33.0360   35.3531 H   0  0  0  0  0  0  0  0  0  0  0  0
   48.2617   32.8381   37.4013 H   0  0  0  0  0  0  0  0  0  0  0  0
   47.1097   35.0529   37.9971 H   0  0  0  0  0  0  0  0  0  0  0  0
   45.5567   33.3752   46.0019 H   0  0  0  0  0  0  0  0  0  0  0  0
   44.0896   35.3720   46.3685 H   0  0  0  0  0  0  0  0  0  0  0  0
   43.9698   37.0976   44.5241 H   0  0  0  0  0  0  0  0  0  0  0  0
  1 18  1  0
  2  1  2  0
  3  2  1  0
  4  5  1  0
  4  3  2  0
  5  6  2  0
  6  1  1  0
  7  5  1  0
  8  7  1  0
  9  8  1  0
 10  9  1  0
 11 10  1  0
 11 12  1  0
 12  7  1  0
 13 12  1  0
 14 15  2  0
 16 15  1  0
 17 16  2  0
 18 17  1  0
 18 19  2  0
 19 14  1  0
  2 20  1  0
  3 21  1  0
  4 22  1  0
  7 23  1  1
  8 24  1  0
  8 25  1  0
  9 26  1  0
  9 27  1  0
 10 28  1  0
 10 29  1  0
 11 30  1  0
 11 31  1  0
 12 32  1  1
 13 33  1  0
 14 34  1  0
 15 35  1  0
 16 36  1  0
M  ISO  8  20  14  21  14  22  14  23  13  24  13  25  13  26  13  27  13
M  ISO  8  28  13  29  13  30  13  31  13  32  13  33   3  34  14  35  14
M  ISO  1  36  14
M  END
>  <minimizedAffinity>  (1) 
-5.91717529

>  <minimizedRMSD>  (1) 
0.264445186

$$$$
