
     RDKit          3D

 42 45  0  0  1  0  0  0  0  0999 V2000
   46.6750   33.0630   38.7940 C   0  0  1  0  0  0  0  0  0  0  0  0
   45.1730   33.2710   38.5220 C   0  0  0  0  0  0  0  0  0  0  0  0
   44.7960   32.0570   37.6560 C   0  0  0  0  0  0  0  0  0  0  0  0
   45.4200   32.3500   36.2950 C   0  0  0  0  0  0  0  0  0  0  0  0
   46.8800   32.5580   36.3520 C   0  0  0  0  0  0  0  0  0  0  0  0
   47.4830   33.1200   37.5840 C   0  0  2  0  0  0  0  0  0  0  0  0
   46.9300   34.7060   42.0810 C   0  0  0  0  0  0  0  0  0  0  0  0
   48.0620   35.4610   41.9110 C   0  0  0  0  0  0  0  0  0  0  0  0
   48.8070   35.5050   40.7540 C   0  0  0  0  0  0  0  0  0  0  0  0
   48.3050   34.6950   39.7300 C   0  0  0  0  0  0  0  0  0  0  0  0
   47.1560   33.9170   39.8870 C   0  0  0  0  0  0  0  0  0  0  0  0
   46.4800   33.9320   41.0610 N   0  0  0  0  0  0  0  0  0  0  0  0
   45.6660   33.9180   45.4240 C   0  0  0  0  0  0  0  0  0  0  0  0
   44.7380   34.9130   45.6830 C   0  0  0  0  0  0  0  0  0  0  0  0
   44.5560   35.8620   44.6810 C   0  0  0  0  0  0  0  0  0  0  0  0
   45.2900   35.7530   43.5320 N   0  0  0  0  0  0  0  0  0  0  0  0
   46.1890   34.7510   43.3370 C   0  0  0  0  0  0  0  0  0  0  0  0
   46.3770   33.8470   44.2650 N   0  0  0  0  0  0  0  0  0  0  0  0
   48.7680   32.3440   37.7720 C   0  0  0  0  0  0  0  0  0  0  0  0
   49.3080   31.9940   36.5490 C   0  0  0  0  0  0  0  0  0  0  0  0
   50.4950   31.2790   36.7440 C   0  0  0  0  0  0  0  0  0  0  0  0
   50.5990   31.2410   38.1280 C   0  0  0  0  0  0  0  0  0  0  0  0
   49.5970   31.8570   38.6620 O   0  0  0  0  0  0  0  0  0  0  0  0
   46.8012   32.0310   39.1532 H   0  0  0  0  0  0  0  0  0  0  0  0
   44.6002   33.2777   39.4611 H   0  0  0  0  0  0  0  0  0  0  0  0
   44.9542   34.2318   38.0331 H   0  0  0  0  0  0  0  0  0  0  0  0
   45.2102   31.1315   38.0825 H   0  0  0  0  0  0  0  0  0  0  0  0
   43.7077   31.9092   37.5941 H   0  0  0  0  0  0  0  0  0  0  0  0
   44.9541   33.2587   35.8862 H   0  0  0  0  0  0  0  0  0  0  0  0
   45.2420   31.4696   35.6599 H   0  0  0  0  0  0  0  0  0  0  0  0
   47.3510   31.5787   36.1816 H   0  0  0  0  0  0  0  0  0  0  0  0
   47.0635   33.3335   35.5938 H   0  0  0  0  0  0  0  0  0  0  0  0
   47.6136   34.2026   37.4397 H   0  0  0  0  0  0  0  0  0  0  0  0
   48.3988   36.0751   42.7592 H   0  0  0  0  0  0  0  0  0  0  0  0
   49.7126   36.1198   40.6450 H   0  0  0  0  0  0  0  0  0  0  0  0
   48.8345   34.6700   38.7661 H   0  0  0  0  0  0  0  0  0  0  0  0
   45.8368   33.1484   46.1912 H   0  0  0  0  0  0  0  0  0  0  0  0
   44.1761   34.9512   46.6279 H   0  0  0  0  0  0  0  0  0  0  0  0
   43.8360   36.6835   44.8107 H   0  0  0  0  0  0  0  0  0  0  0  0
   48.8708   32.2403   35.5701 H   0  0  0  0  0  0  0  0  0  0  0  0
   51.1745   30.8541   35.9905 H   0  0  0  0  0  0  0  0  0  0  0  0
   51.4140   30.7579   38.6870 H   0  0  0  0  0  0  0  0  0  0  0  0
  1 11  1  0
  2  1  1  0
  3  2  1  0
  4  5  1  0
  4  3  1  0
  5  6  1  0
  6 19  1  0
  6  1  1  0
  7 17  1  0
  8  7  2  0
  9  8  1  0
 10 11  1  0
 10  9  2  0
 11 12  2  0
 12  7  1  0
 13 14  2  0
 15 14  1  0
 16 15  2  0
 17 16  1  0
 17 18  2  0
 18 13  1  0
 19 23  1  0
 20 21  1  0
 20 19  2  0
 21 22  2  0
 22 23  1  0
  1 24  1  1
  2 25  1  0
  2 26  1  0
  3 27  1  0
  3 28  1  0
  4 29  1  0
  4 30  1  0
  5 31  1  0
  5 32  1  0
  6 33  1  6
  8 34  1  0
  9 35  1  0
 10 36  1  0
 13 37  1  0
 14 38  1  0
 15 39  1  0
 20 40  1  0
 21 41  1  0
 22 42  1  0
M  ISO  8  24  13  25  13  26  13  27  13  28  13  29  13  30  13  31  13
M  ISO  8  32  13  33  13  34  14  35  14  36  14  37  14  38  14  39  14
M  ISO  3  40  14  41  14  42  14
M  END
>  <minimizedAffinity>  (1) 
-5.77644682

>  <minimizedRMSD>  (1) 
0.252254367

$$$$
