
     RDKit          3D

 38 40  0  0  1  0  0  0  0  0999 V2000
   47.0800   32.7790   38.9950 C   0  0  1  0  0  0  0  0  0  0  0  0
   45.6780   32.9360   38.4210 C   0  0  0  0  0  0  0  0  0  0  0  0
   45.3560   31.6240   37.7420 C   0  0  0  0  0  0  0  0  0  0  0  0
   46.3260   31.3820   36.6290 C   0  0  0  0  0  0  0  0  0  0  0  0
   47.7440   31.4220   37.0760 C   0  0  0  0  0  0  0  0  0  0  0  0
   48.0930   32.6260   37.9370 C   0  0  1  0  0  0  0  0  0  0  0  0
   46.9710   34.7300   42.1190 C   0  0  0  0  0  0  0  0  0  0  0  0
   48.0560   35.5510   41.9380 C   0  0  0  0  0  0  0  0  0  0  0  0
   48.8730   35.5290   40.8250 C   0  0  0  0  0  0  0  0  0  0  0  0
   48.5050   34.5770   39.8580 C   0  0  0  0  0  0  0  0  0  0  0  0
   47.4070   33.7440   40.0370 C   0  0  0  0  0  0  0  0  0  0  0  0
   46.6660   33.8390   41.1630 N   0  0  0  0  0  0  0  0  0  0  0  0
   45.5720   33.9920   45.4270 C   0  0  0  0  0  0  0  0  0  0  0  0
   44.6540   35.0390   45.6290 C   0  0  0  0  0  0  0  0  0  0  0  0
   44.5410   35.9920   44.5940 C   0  0  0  0  0  0  0  0  0  0  0  0
   45.3130   35.8620   43.4600 N   0  0  0  0  0  0  0  0  0  0  0  0
   46.1720   34.8300   43.3370 C   0  0  0  0  0  0  0  0  0  0  0  0
   46.3050   33.9090   44.2970 N   0  0  0  0  0  0  0  0  0  0  0  0
   48.2140   33.7670   36.9570 C   0  0  0  0  0  0  0  0  0  0  0  0
   48.4660   33.3840   35.6610 F   0  0  0  0  0  0  0  0  0  0  0  0
   49.1630   34.6990   37.3010 F   0  0  0  0  0  0  0  0  0  0  0  0
   47.0050   34.5190   36.9870 F   0  0  0  0  0  0  0  0  0  0  0  0
   47.0920   31.8255   39.5433 H   0  0  0  0  0  0  0  0  0  0  0  0
   44.9558   33.1370   39.2260 H   0  0  0  0  0  0  0  0  0  0  0  0
   45.6235   33.7785   37.7158 H   0  0  0  0  0  0  0  0  0  0  0  0
   45.4276   30.8060   38.4740 H   0  0  0  0  0  0  0  0  0  0  0  0
   44.3354   31.6655   37.3338 H   0  0  0  0  0  0  0  0  0  0  0  0
   46.1785   32.1555   35.8609 H   0  0  0  0  0  0  0  0  0  0  0  0
   46.1325   30.3725   36.2371 H   0  0  0  0  0  0  0  0  0  0  0  0
   47.9480   30.5111   37.6580 H   0  0  0  0  0  0  0  0  0  0  0  0
   48.3597   31.4944   36.1673 H   0  0  0  0  0  0  0  0  0  0  0  0
   49.0364   32.5490   38.4974 H   0  0  0  0  0  0  0  0  0  0  0  0
   48.2903   36.2747   42.7326 H   0  0  0  0  0  0  0  0  0  0  0  0
   49.7374   36.1987   40.7052 H   0  0  0  0  0  0  0  0  0  0  0  0
   49.1006   34.4894   38.9374 H   0  0  0  0  0  0  0  0  0  0  0  0
   45.6947   33.2253   46.2062 H   0  0  0  0  0  0  0  0  0  0  0  0
   44.0540   35.1113   46.5481 H   0  0  0  0  0  0  0  0  0  0  0  0
   43.8402   36.8342   44.6921 H   0  0  0  0  0  0  0  0  0  0  0  0
  1 11  1  0
  2  1  1  0
  3  2  1  0
  4  5  1  0
  4  3  1  0
  5  6  1  0
  6  1  1  0
  7 17  1  0
  8  7  2  0
  9  8  1  0
 10 11  1  0
 10  9  2  0
 11 12  2  0
 12  7  1  0
 13 14  2  0
 15 14  1  0
 16 15  2  0
 17 16  1  0
 17 18  2  0
 18 13  1  0
 19 22  1  0
 19 21  1  0
 19  6  1  0
 20 19  1  0
  1 23  1  1
  2 24  1  0
  2 25  1  0
  3 26  1  0
  3 27  1  0
  4 28  1  0
  4 29  1  0
  5 30  1  0
  5 31  1  0
  6 32  1  1
  8 33  1  0
  9 34  1  0
 10 35  1  0
 13 36  1  0
 14 37  1  0
 15 38  1  0
M  ISO  8  23  13  24  13  25  13  26  13  27  13  28  13  29  13  30  13
M  ISO  8  31  13  32  13  33  14  34  14  35  14  36  14  37  14  38  14
M  END
>  <minimizedAffinity>  (1) 
-5.73296404

>  <minimizedRMSD>  (1) 
1.05600619

$$$$
