
     RDKit          3D

 48 51  0  0  1  0  0  0  0  0999 V2000
   46.6780   33.0450   38.8010 C   0  0  1  0  0  0  0  0  0  0  0  0
   45.1820   33.2060   38.5860 C   0  0  0  0  0  0  0  0  0  0  0  0
   44.7710   32.0620   37.6620 C   0  0  0  0  0  0  0  0  0  0  0  0
   45.3450   32.4920   36.3000 C   0  0  0  0  0  0  0  0  0  0  0  0
   46.8440   32.3850   36.4320 C   0  0  0  0  0  0  0  0  0  0  0  0
   47.4810   33.1070   37.5810 C   0  0  2  0  0  0  0  0  0  0  0  0
   46.9360   34.7000   42.0780 C   0  0  0  0  0  0  0  0  0  0  0  0
   48.0750   35.4510   41.9130 C   0  0  0  0  0  0  0  0  0  0  0  0
   48.8180   35.4900   40.7520 C   0  0  0  0  0  0  0  0  0  0  0  0
   48.3040   34.6870   39.7400 C   0  0  0  0  0  0  0  0  0  0  0  0
   47.1540   33.9120   39.8820 C   0  0  0  0  0  0  0  0  0  0  0  0
   46.4750   33.9270   41.0610 N   0  0  0  0  0  0  0  0  0  0  0  0
   45.6210   33.9670   45.4120 C   0  0  0  0  0  0  0  0  0  0  0  0
   44.7050   34.9790   45.6490 C   0  0  0  0  0  0  0  0  0  0  0  0
   44.5470   35.9210   44.6390 C   0  0  0  0  0  0  0  0  0  0  0  0
   45.2920   35.7920   43.4950 N   0  0  0  0  0  0  0  0  0  0  0  0
   46.1770   34.7720   43.3240 C   0  0  0  0  0  0  0  0  0  0  0  0
   46.3380   33.8790   44.2620 N   0  0  0  0  0  0  0  0  0  0  0  0
   48.8350   32.4480   37.7040 C   0  0  0  0  0  0  0  0  0  0  0  0
   49.3760   31.9190   36.3850 C   0  0  0  0  0  0  0  0  0  0  0  0
   50.6580   31.2610   36.9280 C   0  0  0  0  0  0  0  0  0  0  0  0
   50.3090   30.8210   38.3610 C   0  0  0  0  0  0  0  0  0  0  0  0
   48.7690   31.0500   38.3690 C   0  0  0  0  0  0  0  0  0  0  0  0
   46.8322   32.0083   39.1347 H   0  0  0  0  0  0  0  0  0  0  0  0
   44.6471   33.1356   39.5446 H   0  0  0  0  0  0  0  0  0  0  0  0
   44.9379   34.1864   38.1510 H   0  0  0  0  0  0  0  0  0  0  0  0
   45.2104   31.1094   37.9930 H   0  0  0  0  0  0  0  0  0  0  0  0
   43.6844   31.8924   37.6399 H   0  0  0  0  0  0  0  0  0  0  0  0
   45.0538   33.5279   36.0717 H   0  0  0  0  0  0  0  0  0  0  0  0
   44.9649   31.8605   35.4835 H   0  0  0  0  0  0  0  0  0  0  0  0
   47.0926   31.3182   36.5320 H   0  0  0  0  0  0  0  0  0  0  0  0
   47.2448   32.8731   35.5314 H   0  0  0  0  0  0  0  0  0  0  0  0
   47.5691   34.1904   37.4123 H   0  0  0  0  0  0  0  0  0  0  0  0
   48.4163   36.0608   42.7625 H   0  0  0  0  0  0  0  0  0  0  0  0
   49.7282   36.0970   40.6377 H   0  0  0  0  0  0  0  0  0  0  0  0
   48.8330   34.6619   38.7759 H   0  0  0  0  0  0  0  0  0  0  0  0
   45.7740   33.2025   46.1880 H   0  0  0  0  0  0  0  0  0  0  0  0
   44.1329   35.0342   46.5869 H   0  0  0  0  0  0  0  0  0  0  0  0
   43.8380   36.7539   44.7552 H   0  0  0  0  0  0  0  0  0  0  0  0
   49.4035   33.2417   38.2107 H   0  0  0  0  0  0  0  0  0  0  0  0
   49.5927   32.7261   35.6698 H   0  0  0  0  0  0  0  0  0  0  0  0
   48.7014   31.2638   35.8144 H   0  0  0  0  0  0  0  0  0  0  0  0
   50.9352   30.3914   36.3141 H   0  0  0  0  0  0  0  0  0  0  0  0
   51.5151   31.9502   36.9064 H   0  0  0  0  0  0  0  0  0  0  0  0
   50.5622   29.7645   38.5331 H   0  0  0  0  0  0  0  0  0  0  0  0
   50.8541   31.3613   39.1490 H   0  0  0  0  0  0  0  0  0  0  0  0
   48.3448   31.0774   39.3836 H   0  0  0  0  0  0  0  0  0  0  0  0
   48.1369   30.2868   37.8915 H   0  0  0  0  0  0  0  0  0  0  0  0
  1 11  1  0
  2  1  1  0
  3  2  1  0
  4  5  1  0
  4  3  1  0
  5  6  1  0
  6 19  1  0
  6  1  1  0
  7 17  1  0
  8  7  2  0
  9  8  1  0
 10 11  1  0
 10  9  2  0
 11 12  2  0
 12  7  1  0
 13 14  2  0
 15 14  1  0
 16 15  2  0
 17 16  1  0
 17 18  2  0
 18 13  1  0
 19 23  1  0
 20 21  1  0
 20 19  1  0
 21 22  1  0
 22 23  1  0
  1 24  1  1
  2 25  1  0
  2 26  1  0
  3 27  1  0
  3 28  1  0
  4 29  1  0
  4 30  1  0
  5 31  1  0
  5 32  1  0
  6 33  1  6
  8 34  1  0
  9 35  1  0
 10 36  1  0
 13 37  1  0
 14 38  1  0
 15 39  1  0
 19 40  1  0
 20 41  1  0
 20 42  1  0
 21 43  1  0
 21 44  1  0
 22 45  1  0
 22 46  1  0
 23 47  1  0
 23 48  1  0
M  ISO  8  24  13  25  13  26  13  27  13  28  13  29  13  30  13  31  13
M  ISO  8  32  13  33  13  34  14  35  14  36  14  37  14  38  14  39  14
M  ISO  8  40  13  41  13  42  13  43  13  44  13  45  13  46  13  47  13
M  ISO  1  48  13
M  END
>  <minimizedAffinity>  (1) 
-5.72011995

>  <minimizedRMSD>  (1) 
0.464565665

$$$$
