
     RDKit          3D

 43 46  0  0  1  0  0  0  0  0999 V2000
   47.1530   32.7880   38.8660 C   0  0  1  0  0  0  0  0  0  0  0  0
   46.2850   33.4410   37.7470 C   0  0  0  0  0  0  0  0  0  0  0  0
   45.6840   32.3000   36.9700 C   0  0  0  0  0  0  0  0  0  0  0  0
   46.8390   31.5790   36.2750 C   0  0  0  0  0  0  0  0  0  0  0  0
   47.8000   31.0640   37.2830 C   0  0  0  0  0  0  0  0  0  0  0  0
   48.3130   32.2200   38.1560 C   0  0  2  0  0  0  0  0  0  0  0  0
   46.9570   34.6930   42.0270 C   0  0  0  0  0  0  0  0  0  0  0  0
   47.9960   35.5610   41.8050 C   0  0  0  0  0  0  0  0  0  0  0  0
   48.7930   35.5600   40.6810 C   0  0  0  0  0  0  0  0  0  0  0  0
   48.4670   34.5920   39.7500 C   0  0  0  0  0  0  0  0  0  0  0  0
   47.4180   33.7050   39.9400 C   0  0  0  0  0  0  0  0  0  0  0  0
   46.6830   33.7790   41.0890 N   0  0  0  0  0  0  0  0  0  0  0  0
   45.7860   33.8260   45.3970 C   0  0  0  0  0  0  0  0  0  0  0  0
   44.8320   34.8000   45.6480 C   0  0  0  0  0  0  0  0  0  0  0  0
   44.5950   35.7600   44.6420 C   0  0  0  0  0  0  0  0  0  0  0  0
   45.3130   35.6890   43.4680 N   0  0  0  0  0  0  0  0  0  0  0  0
   46.2170   34.7270   43.2840 C   0  0  0  0  0  0  0  0  0  0  0  0
   46.4530   33.8080   44.2330 N   0  0  0  0  0  0  0  0  0  0  0  0
   49.5750   31.8100   38.6440 C   0  0  0  0  0  0  0  0  0  0  0  0
   50.6590   31.9390   37.7460 C   0  0  0  0  0  0  0  0  0  0  0  0
   51.9310   31.5770   38.2060 C   0  0  0  0  0  0  0  0  0  0  0  0
   52.1340   31.1190   39.4580 N   0  0  0  0  0  0  0  0  0  0  0  0
   51.0640   31.0100   40.2910 C   0  0  0  0  0  0  0  0  0  0  0  0
   49.8170   31.3400   39.9130 N   0  0  0  0  0  0  0  0  0  0  0  0
   46.6512   31.9758   39.4124 H   0  0  0  0  0  0  0  0  0  0  0  0
   45.4921   34.0608   38.1909 H   0  0  0  0  0  0  0  0  0  0  0  0
   46.8871   34.0962   37.1004 H   0  0  0  0  0  0  0  0  0  0  0  0
   45.1633   31.6111   37.6514 H   0  0  0  0  0  0  0  0  0  0  0  0
   44.9503   32.6662   36.2368 H   0  0  0  0  0  0  0  0  0  0  0  0
   46.4420   30.7378   35.6879 H   0  0  0  0  0  0  0  0  0  0  0  0
   47.3579   32.2867   35.6118 H   0  0  0  0  0  0  0  0  0  0  0  0
   47.2973   30.3214   37.9200 H   0  0  0  0  0  0  0  0  0  0  0  0
   48.6506   30.5959   36.7660 H   0  0  0  0  0  0  0  0  0  0  0  0
   48.6514   33.1938   37.7723 H   0  0  0  0  0  0  0  0  0  0  0  0
   48.2081   36.3120   42.5803 H   0  0  0  0  0  0  0  0  0  0  0  0
   49.6201   36.2707   40.5367 H   0  0  0  0  0  0  0  0  0  0  0  0
   49.0602   34.5227   38.8262 H   0  0  0  0  0  0  0  0  0  0  0  0
   45.9980   33.0613   46.1588 H   0  0  0  0  0  0  0  0  0  0  0  0
   44.2790   34.8234   46.5986 H   0  0  0  0  0  0  0  0  0  0  0  0
   43.8482   36.5535   44.7924 H   0  0  0  0  0  0  0  0  0  0  0  0
   50.5086   32.3107   36.7217 H   0  0  0  0  0  0  0  0  0  0  0  0
   52.7905   31.6690   37.5257 H   0  0  0  0  0  0  0  0  0  0  0  0
   51.2255   30.6374   41.3133 H   0  0  0  0  0  0  0  0  0  0  0  0
  1 11  1  0
  2  1  1  0
  3  2  1  0
  4  3  1  0
  4  5  1  0
  5  6  1  0
  6 19  1  0
  6  1  1  0
  7 17  1  0
  8  7  2  0
  9  8  1  0
 10 11  1  0
 10  9  2  0
 11 12  2  0
 12  7  1  0
 13 14  2  0
 15 14  1  0
 16 15  2  0
 17 16  1  0
 17 18  2  0
 18 13  1  0
 19 24  2  0
 20 21  2  0
 20 19  1  0
 21 22  1  0
 22 23  2  0
 24 23  1  0
  1 25  1  1
  2 26  1  0
  2 27  1  0
  3 28  1  0
  3 29  1  0
  4 30  1  0
  4 31  1  0
  5 32  1  0
  5 33  1  0
  6 34  1  6
  8 35  1  0
  9 36  1  0
 10 37  1  0
 13 38  1  0
 14 39  1  0
 15 40  1  0
 20 41  1  0
 21 42  1  0
 23 43  1  0
M  ISO  8  25  13  26  13  27  13  28  13  29  13  30  13  31  13  32  13
M  ISO  8  33  13  34  13  35  14  36  14  37  14  38  14  39  14  40  14
M  ISO  3  41  14  42  14  43  14
M  END
>  <minimizedAffinity>  (1) 
-5.59265375

>  <minimizedRMSD>  (1) 
2.70461416

$$$$
