
     RDKit          3D

 38 40  0  0  1  0  0  0  0  0999 V2000
   47.3180   34.1660   42.2720 C   0  0  0  0  0  0  0  0  0  0  0  0
   48.2420   35.1820   42.0890 C   0  0  0  0  0  0  0  0  0  0  0  0
   48.7600   35.5430   40.8620 C   0  0  0  0  0  0  0  0  0  0  0  0
   48.2680   34.7830   39.7920 C   0  0  0  0  0  0  0  0  0  0  0  0
   47.3340   33.7510   39.9690 C   0  0  0  0  0  0  0  0  0  0  0  0
   46.8700   33.4540   41.2070 N   0  0  0  0  0  0  0  0  0  0  0  0
   46.8500   33.0010   38.8160 C   0  0  1  0  0  0  0  0  0  0  0  0
   45.3150   33.2070   38.6080 C   0  0  0  0  0  0  0  0  0  0  0  0
   44.9520   32.0310   37.6670 C   0  0  0  0  0  0  0  0  0  0  0  0
   45.5190   32.4520   36.3130 C   0  0  0  0  0  0  0  0  0  0  0  0
   46.9850   32.6450   36.3510 C   0  0  0  0  0  0  0  0  0  0  0  0
   47.5890   33.1860   37.5860 C   0  0  2  0  0  0  0  0  0  0  0  0
   49.1980   32.3350   37.7990 S   0  0  0  0  0  0  0  0  0  0  0  0
   46.7830   32.6490   45.5530 C   0  0  0  0  0  0  0  0  0  0  0  0
   45.7770   33.4050   46.1220 C   0  0  0  0  0  0  0  0  0  0  0  0
   45.2880   34.4450   45.3540 C   0  0  0  0  0  0  0  0  0  0  0  0
   45.8170   34.6580   44.1040 N   0  0  0  0  0  0  0  0  0  0  0  0
   46.8180   33.8660   43.6020 C   0  0  0  0  0  0  0  0  0  0  0  0
   47.2830   32.8870   44.3160 N   0  0  0  0  0  0  0  0  0  0  0  0
   44.2700   35.3410   45.7240 N   0  0  0  0  0  0  0  0  0  0  0  0
   48.5837   35.7349   42.9764 H   0  0  0  0  0  0  0  0  0  0  0  0
   49.4926   36.3537   40.7351 H   0  0  0  0  0  0  0  0  0  0  0  0
   48.6274   35.0037   38.7761 H   0  0  0  0  0  0  0  0  0  0  0  0
   47.0396   31.9495   39.0775 H   0  0  0  0  0  0  0  0  0  0  0  0
   44.7705   33.1379   39.5612 H   0  0  0  0  0  0  0  0  0  0  0  0
   45.0530   34.1950   38.2016 H   0  0  0  0  0  0  0  0  0  0  0  0
   45.4176   31.0961   38.0122 H   0  0  0  0  0  0  0  0  0  0  0  0
   43.8699   31.8366   37.6307 H   0  0  0  0  0  0  0  0  0  0  0  0
   45.0459   33.3979   36.0106 H   0  0  0  0  0  0  0  0  0  0  0  0
   45.3052   31.6467   35.5948 H   0  0  0  0  0  0  0  0  0  0  0  0
   47.4474   31.6644   36.1650 H   0  0  0  0  0  0  0  0  0  0  0  0
   47.1763   33.4196   35.5937 H   0  0  0  0  0  0  0  0  0  0  0  0
   47.6363   34.2749   37.4378 H   0  0  0  0  0  0  0  0  0  0  0  0
   49.4662   32.1931   39.1350 H   0  0  0  0  0  0  0  0  0  0  0  0
   47.1992   31.8119   46.1327 H   0  0  0  0  0  0  0  0  0  0  0  0
   45.3874   33.1918   47.1283 H   0  0  0  0  0  0  0  0  0  0  0  0
   43.9778   36.0852   45.0746 H   0  0  0  0  0  0  0  0  0  0  0  0
   43.8163   35.2533   46.6445 H   0  0  0  0  0  0  0  0  0  0  0  0
  1 18  1  0
  2  1  2  0
  3  2  1  0
  4  5  1  0
  4  3  2  0
  5  6  2  0
  6  1  1  0
  7  5  1  0
  8  7  1  0
  9  8  1  0
 10 11  1  0
 10  9  1  0
 11 12  1  0
 12 13  1  0
 12  7  1  0
 14 15  2  0
 16 20  1  0
 16 15  1  0
 17 16  2  0
 18 17  1  0
 18 19  2  0
 19 14  1  0
  2 21  1  0
  3 22  1  0
  4 23  1  0
  7 24  1  1
  8 25  1  0
  8 26  1  0
  9 27  1  0
  9 28  1  0
 10 29  1  0
 10 30  1  0
 11 31  1  0
 11 32  1  0
 12 33  1  6
 13 34  1  0
 14 35  1  0
 15 36  1  0
 20 37  1  0
 20 38  1  0
M  ISO  8  21  14  22  14  23  14  24  13  25  13  26  13  27  13  28  13
M  ISO  8  29  13  30  13  31  13  32  13  33  13  34  11  35  14  36  14
M  END
>  <minimizedAffinity>  (1) 
-5.82088184

>  <minimizedRMSD>  (1) 
1.01174462

$$$$
