
     RDKit          3D

 47 50  0  0  1  0  0  0  0  0999 V2000
   47.8890   33.7820   42.0330 C   0  0  0  0  0  0  0  0  0  0  0  0
   48.3770   35.0650   42.0140 C   0  0  0  0  0  0  0  0  0  0  0  0
   48.7880   35.7140   40.8650 C   0  0  0  0  0  0  0  0  0  0  0  0
   48.6650   34.9510   39.6970 C   0  0  0  0  0  0  0  0  0  0  0  0
   48.1650   33.6360   39.7170 C   0  0  0  0  0  0  0  0  0  0  0  0
   47.7840   33.0660   40.8740 N   0  0  0  0  0  0  0  0  0  0  0  0
   48.0480   32.9060   38.4600 C   0  0  1  0  0  0  0  0  0  0  0  0
   46.9380   33.5690   37.5410 C   0  0  0  0  0  0  0  0  0  0  0  0
   46.6560   32.4310   36.5200 C   0  0  0  0  0  0  0  0  0  0  0  0
   47.8810   32.4510   35.6100 C   0  0  0  0  0  0  0  0  0  0  0  0
   49.1110   32.1050   36.3560 C   0  0  0  0  0  0  0  0  0  0  0  0
   49.2500   32.6670   37.7210 C   0  0  2  0  0  0  0  0  0  0  0  0
   50.2190   31.4460   38.6640 S   0  0  0  0  0  0  0  0  0  0  0  0
   47.3960   31.4820   44.8370 C   0  0  0  0  0  0  0  0  0  0  0  0
   46.5590   32.1590   45.6850 C   0  0  0  0  0  0  0  0  0  0  0  0
   46.1640   33.4120   45.2930 C   0  0  0  0  0  0  0  0  0  0  0  0
   46.6280   33.8970   44.0940 N   0  0  0  0  0  0  0  0  0  0  0  0
   47.4680   33.1650   43.2870 C   0  0  0  0  0  0  0  0  0  0  0  0
   47.8380   31.9890   43.6550 N   0  0  0  0  0  0  0  0  0  0  0  0
   45.3190   34.2630   46.0070 N   0  0  0  0  0  0  0  0  0  0  0  0
   46.0680   31.6450   46.9540 C   0  0  0  0  0  0  0  0  0  0  0  0
   45.4520   30.4180   47.1020 C   0  0  0  0  0  0  0  0  0  0  0  0
   45.0160   30.0180   48.3670 C   0  0  0  0  0  0  0  0  0  0  0  0
   45.1790   30.8100   49.4870 C   0  0  0  0  0  0  0  0  0  0  0  0
   45.8020   32.0220   49.2690 C   0  0  0  0  0  0  0  0  0  0  0  0
   46.2230   32.4090   48.0480 N   0  0  0  0  0  0  0  0  0  0  0  0
   48.4448   35.6079   42.9683 H   0  0  0  0  0  0  0  0  0  0  0  0
   49.1785   36.7423   40.8677 H   0  0  0  0  0  0  0  0  0  0  0  0
   48.9681   35.3926   38.7362 H   0  0  0  0  0  0  0  0  0  0  0  0
   47.7514   31.8945   38.7746 H   0  0  0  0  0  0  0  0  0  0  0  0
   46.0370   33.8219   38.1191 H   0  0  0  0  0  0  0  0  0  0  0  0
   47.2482   34.5178   37.0789 H   0  0  0  0  0  0  0  0  0  0  0  0
   46.5617   31.4609   37.0298 H   0  0  0  0  0  0  0  0  0  0  0  0
   45.7139   32.5745   35.9705 H   0  0  0  0  0  0  0  0  0  0  0  0
   47.9929   33.4581   35.1820 H   0  0  0  0  0  0  0  0  0  0  0  0
   47.7354   31.7043   34.8155 H   0  0  0  0  0  0  0  0  0  0  0  0
   49.1495   31.0091   36.4427 H   0  0  0  0  0  0  0  0  0  0  0  0
   49.9321   32.5531   35.7772 H   0  0  0  0  0  0  0  0  0  0  0  0
   49.7028   33.6613   37.5932 H   0  0  0  0  0  0  0  0  0  0  0  0
   50.0463   31.6636   40.0055 H   0  0  0  0  0  0  0  0  0  0  0  0
   47.7281   30.4745   45.1280 H   0  0  0  0  0  0  0  0  0  0  0  0
   45.0802   35.1898   45.6264 H   0  0  0  0  0  0  0  0  0  0  0  0
   44.9343   33.9642   46.9145 H   0  0  0  0  0  0  0  0  0  0  0  0
   45.3061   29.7616   46.2314 H   0  0  0  0  0  0  0  0  0  0  0  0
   44.5262   29.0390   48.4752 H   0  0  0  0  0  0  0  0  0  0  0  0
   44.8359   30.4963   50.4839 H   0  0  0  0  0  0  0  0  0  0  0  0
   45.9609   32.6971   50.1228 H   0  0  0  0  0  0  0  0  0  0  0  0
  1 18  1  0
  2  1  2  0
  3  2  1  0
  4  5  1  0
  4  3  2  0
  5  6  2  0
  6  1  1  0
  7  5  1  0
  8  7  1  0
  9  8  1  0
 10 11  1  0
 10  9  1  0
 11 12  1  0
 12  7  1  0
 12 13  1  0
 14 15  2  0
 15 21  1  0
 16 15  1  0
 16 20  1  0
 17 16  2  0
 18 19  2  0
 18 17  1  0
 19 14  1  0
 21 22  2  0
 21 26  1  0
 22 23  1  0
 23 24  2  0
 25 24  1  0
 26 25  2  0
  2 27  1  0
  3 28  1  0
  4 29  1  0
  7 30  1  1
  8 31  1  0
  8 32  1  0
  9 33  1  0
  9 34  1  0
 10 35  1  0
 10 36  1  0
 11 37  1  0
 11 38  1  0
 12 39  1  6
 13 40  1  0
 14 41  1  0
 20 42  1  0
 20 43  1  0
 22 44  1  0
 23 45  1  0
 24 46  1  0
 25 47  1  0
M  ISO  8  27  14  28  14  29  14  30  13  31  13  32  13  33  13  34  13
M  ISO  8  35  13  36  13  37  13  38  13  39  13  40  11  41  14  44  14
M  ISO  3  45  14  46  14  47  14
M  END
>  <minimizedAffinity>  (1) 
-6.62957144

>  <minimizedRMSD>  (1) 
1.65730762

$$$$
