
     RDKit          3D

 45 48  0  0  1  0  0  0  0  0999 V2000
   47.5090   33.7210   42.2480 C   0  0  0  0  0  0  0  0  0  0  0  0
   48.2560   34.8770   42.1530 C   0  0  0  0  0  0  0  0  0  0  0  0
   48.6410   35.4530   40.9530 C   0  0  0  0  0  0  0  0  0  0  0  0
   48.2040   34.7570   39.8170 C   0  0  0  0  0  0  0  0  0  0  0  0
   47.4450   33.5800   39.9110 C   0  0  0  0  0  0  0  0  0  0  0  0
   47.1070   33.0780   41.1150 N   0  0  0  0  0  0  0  0  0  0  0  0
   47.0080   32.9190   38.6870 C   0  0  1  0  0  0  0  0  0  0  0  0
   45.4670   33.1940   38.4340 C   0  0  0  0  0  0  0  0  0  0  0  0
   45.1200   32.0710   37.4090 C   0  0  0  0  0  0  0  0  0  0  0  0
   45.7490   32.5800   36.1050 C   0  0  0  0  0  0  0  0  0  0  0  0
   47.2210   32.6660   36.2210 C   0  0  0  0  0  0  0  0  0  0  0  0
   47.7760   33.1550   37.5040 C   0  0  2  0  0  0  0  0  0  0  0  0
   49.3720   32.3050   37.7280 S   0  0  0  0  0  0  0  0  0  0  0  0
   47.2280   31.6300   45.2330 C   0  0  0  0  0  0  0  0  0  0  0  0
   46.3360   32.3330   46.0380 C   0  0  0  0  0  0  0  0  0  0  0  0
   45.8500   33.5120   45.5370 C   0  0  0  0  0  0  0  0  0  0  0  0
   46.2550   33.9300   44.3000 N   0  0  0  0  0  0  0  0  0  0  0  0
   47.1440   33.1880   43.5470 C   0  0  0  0  0  0  0  0  0  0  0  0
   47.6050   32.0790   44.0100 N   0  0  0  0  0  0  0  0  0  0  0  0
   44.9490   34.3360   46.2070 N   0  0  0  0  0  0  0  0  0  0  0  0
   45.9430   31.8620   47.3150 C   0  0  0  0  0  0  0  0  0  0  0  0
   45.9420   32.3690   48.5800 C   0  0  0  0  0  0  0  0  0  0  0  0
   45.4780   31.6250   49.6190 C   0  0  0  0  0  0  0  0  0  0  0  0
   44.9980   30.2910   49.2910 C   0  0  0  0  0  0  0  0  0  0  0  0
   45.2580   30.1960   47.4340 S   0  0  0  0  0  0  0  0  0  0  0  0
   48.5645   35.3712   43.0861 H   0  0  0  0  0  0  0  0  0  0  0  0
   49.2373   36.3756   40.8965 H   0  0  0  0  0  0  0  0  0  0  0  0
   48.4640   35.1454   38.8212 H   0  0  0  0  0  0  0  0  0  0  0  0
   47.1900   31.8525   38.8855 H   0  0  0  0  0  0  0  0  0  0  0  0
   44.8820   33.0890   39.3596 H   0  0  0  0  0  0  0  0  0  0  0  0
   45.2432   34.2113   38.0804 H   0  0  0  0  0  0  0  0  0  0  0  0
   45.5623   31.1104   37.7116 H   0  0  0  0  0  0  0  0  0  0  0  0
   44.0394   31.8846   37.3227 H   0  0  0  0  0  0  0  0  0  0  0  0
   45.3477   33.5788   35.8787 H   0  0  0  0  0  0  0  0  0  0  0  0
   45.5031   31.8724   35.2995 H   0  0  0  0  0  0  0  0  0  0  0  0
   47.6250   31.6573   36.0498 H   0  0  0  0  0  0  0  0  0  0  0  0
   47.5179   33.4223   35.4795 H   0  0  0  0  0  0  0  0  0  0  0  0
   47.8168   34.2501   37.4085 H   0  0  0  0  0  0  0  0  0  0  0  0
   49.6318   32.1666   39.0660 H   0  0  0  0  0  0  0  0  0  0  0  0
   47.6407   30.6790   45.6009 H   0  0  0  0  0  0  0  0  0  0  0  0
   44.6259   35.2100   45.7681 H   0  0  0  0  0  0  0  0  0  0  0  0
   44.6058   34.0714   47.1414 H   0  0  0  0  0  0  0  0  0  0  0  0
   46.3189   33.3864   48.7615 H   0  0  0  0  0  0  0  0  0  0  0  0
   45.4661   32.0097   50.6495 H   0  0  0  0  0  0  0  0  0  0  0  0
   44.5846   29.5264   49.9651 H   0  0  0  0  0  0  0  0  0  0  0  0
  1 18  1  0
  2  1  2  0
  3  2  1  0
  4  5  1  0
  4  3  2  0
  5  6  2  0
  6  1  1  0
  7  5  1  0
  8  7  1  0
  9  8  1  0
 10 11  1  0
 10  9  1  0
 11 12  1  0
 12 13  1  0
 12  7  1  0
 14 15  2  0
 15 21  1  0
 16 15  1  0
 16 20  1  0
 17 16  2  0
 18 19  2  0
 18 17  1  0
 19 14  1  0
 21 25  1  0
 21 22  2  0
 22 23  1  0
 24 23  2  0
 25 24  1  0
  2 26  1  0
  3 27  1  0
  4 28  1  0
  7 29  1  1
  8 30  1  0
  8 31  1  0
  9 32  1  0
  9 33  1  0
 10 34  1  0
 10 35  1  0
 11 36  1  0
 11 37  1  0
 12 38  1  6
 13 39  1  0
 14 40  1  0
 20 41  1  0
 20 42  1  0
 22 43  1  0
 23 44  1  0
 24 45  1  0
M  ISO  8  26  14  27  14  28  14  29  13  30  13  31  13  32  13  33  13
M  ISO  8  34  13  35  13  36  13  37  13  38  13  39  11  40  14  43  14
M  ISO  2  44  14  45  14
M  END
>  <minimizedAffinity>  (1) 
-6.49959517

>  <minimizedRMSD>  (1) 
0.977515459

$$$$
