
     RDKit          3D

 39 41  0  0  1  0  0  0  0  0999 V2000
   47.3810   33.9830   42.4430 C   0  0  0  0  0  0  0  0  0  0  0  0
   48.2490   35.0380   42.2920 C   0  0  0  0  0  0  0  0  0  0  0  0
   48.7200   35.4920   41.0630 C   0  0  0  0  0  0  0  0  0  0  0  0
   48.2290   34.7740   39.9630 C   0  0  0  0  0  0  0  0  0  0  0  0
   47.3410   33.6940   40.1200 C   0  0  0  0  0  0  0  0  0  0  0  0
   46.9310   33.3130   41.3440 N   0  0  0  0  0  0  0  0  0  0  0  0
   46.8600   33.0030   38.9280 C   0  0  1  0  0  0  0  0  0  0  0  0
   45.3070   33.2480   38.7390 C   0  0  0  0  0  0  0  0  0  0  0  0
   44.9250   32.1100   37.7560 C   0  0  0  0  0  0  0  0  0  0  0  0
   45.4910   32.5980   36.4120 C   0  0  0  0  0  0  0  0  0  0  0  0
   46.9690   32.6730   36.4670 C   0  0  0  0  0  0  0  0  0  0  0  0
   47.5780   33.2130   37.7070 C   0  0  2  0  0  0  0  0  0  0  0  0
   49.1830   32.3650   37.8840 S   0  0  0  0  0  0  0  0  0  0  0  0
   46.9320   32.2390   45.6180 C   0  0  0  0  0  0  0  0  0  0  0  0
   45.9610   32.9790   46.2770 C   0  0  0  0  0  0  0  0  0  0  0  0
   45.4750   34.0740   45.6090 C   0  0  0  0  0  0  0  0  0  0  0  0
   45.9680   34.3600   44.3630 N   0  0  0  0  0  0  0  0  0  0  0  0
   46.9370   33.5800   43.7620 C   0  0  0  0  0  0  0  0  0  0  0  0
   47.3990   32.5520   44.3810 N   0  0  0  0  0  0  0  0  0  0  0  0
   44.4980   34.9460   46.0940 N   0  0  0  0  0  0  0  0  0  0  0  0
   45.3240   32.6200   47.8720 S   0  0  0  0  0  0  0  0  0  0  0  0
   48.5932   35.5562   43.1992 H   0  0  0  0  0  0  0  0  0  0  0  0
   49.4154   36.3385   40.9637 H   0  0  0  0  0  0  0  0  0  0  0  0
   48.5466   35.0629   38.9503 H   0  0  0  0  0  0  0  0  0  0  0  0
   47.0647   31.9433   39.1403 H   0  0  0  0  0  0  0  0  0  0  0  0
   44.7672   33.1519   39.6926 H   0  0  0  0  0  0  0  0  0  0  0  0
   45.0554   34.2550   38.3749 H   0  0  0  0  0  0  0  0  0  0  0  0
   45.3878   31.1583   38.0561 H   0  0  0  0  0  0  0  0  0  0  0  0
   43.8428   31.9159   37.7221 H   0  0  0  0  0  0  0  0  0  0  0  0
   45.0861   33.5964   36.1900 H   0  0  0  0  0  0  0  0  0  0  0  0
   45.2004   31.8867   35.6248 H   0  0  0  0  0  0  0  0  0  0  0  0
   47.3569   31.6534   36.3255 H   0  0  0  0  0  0  0  0  0  0  0  0
   47.2443   33.3921   35.6814 H   0  0  0  0  0  0  0  0  0  0  0  0
   47.6138   34.3050   37.5797 H   0  0  0  0  0  0  0  0  0  0  0  0
   49.4740   32.2112   39.2139 H   0  0  0  0  0  0  0  0  0  0  0  0
   47.3451   31.3533   46.1229 H   0  0  0  0  0  0  0  0  0  0  0  0
   44.1918   35.7459   45.5219 H   0  0  0  0  0  0  0  0  0  0  0  0
   44.0836   34.7893   47.0238 H   0  0  0  0  0  0  0  0  0  0  0  0
   46.1811   33.1030   48.8254 H   0  0  0  0  0  0  0  0  0  0  0  0
  1 18  1  0
  2  1  2  0
  3  2  1  0
  4  5  1  0
  4  3  2  0
  5  6  2  0
  6  1  1  0
  7  5  1  0
  8  7  1  0
  9  8  1  0
 10 11  1  0
 10  9  1  0
 11 12  1  0
 12 13  1  0
 12  7  1  0
 14 15  2  0
 15 21  1  0
 16 20  1  0
 16 15  1  0
 17 16  2  0
 18 17  1  0
 18 19  2  0
 19 14  1  0
  2 22  1  0
  3 23  1  0
  4 24  1  0
  7 25  1  1
  8 26  1  0
  8 27  1  0
  9 28  1  0
  9 29  1  0
 10 30  1  0
 10 31  1  0
 11 32  1  0
 11 33  1  0
 12 34  1  6
 13 35  1  0
 14 36  1  0
 20 37  1  0
 20 38  1  0
 21 39  1  0
M  ISO  8  22  14  23  14  24  14  25  13  26  13  27  13  28  13  29  13
M  ISO  8  30  13  31  13  32  13  33  13  34  13  35  11  36  14  39  11
M  END
>  <minimizedAffinity>  (1) 
-5.93557453

>  <minimizedRMSD>  (1) 
0.323829502

$$$$
