
     RDKit          3D

 36 38  0  0  0  0  0  0  0  0999 V2000
   46.4340   32.0970   44.0280 C   0  0  0  0  0  0  0  0  0  0  0  0
   47.4410   32.4780   43.1570 C   0  0  0  0  0  0  0  0  0  0  0  0
   48.5240   31.6270   43.0900 C   0  0  0  0  0  0  0  0  0  0  0  0
   48.5240   30.5070   43.8620 N   0  0  0  0  0  0  0  0  0  0  0  0
   47.5550   30.1510   44.6880 C   0  0  0  0  0  0  0  0  0  0  0  0
   46.5190   30.9570   44.7570 N   0  0  0  0  0  0  0  0  0  0  0  0
   45.3300   33.0580   44.1620 C   0  0  0  0  0  0  0  0  0  0  0  0
   44.8460   33.6950   42.9850 C   0  0  0  0  0  0  0  0  0  0  0  0
   45.2160   35.1360   42.8560 C   0  0  0  0  0  0  0  0  0  0  0  0
   44.5670   35.8970   44.0320 C   0  0  0  0  0  0  0  0  0  0  0  0
   44.7510   35.2060   45.3440 C   0  0  0  0  0  0  0  0  0  0  0  0
   45.7600   34.0910   45.2360 C   0  0  0  0  0  0  0  0  0  0  0  0
   46.8140   32.6240   40.3500 F   0  0  0  0  0  0  0  0  0  0  0  0
   47.5850   33.6060   40.8740 C   0  0  0  0  0  0  0  0  0  0  0  0
   47.8500   33.4980   42.2350 C   0  0  0  0  0  0  0  0  0  0  0  0
   48.6680   34.5020   42.8120 C   0  0  0  0  0  0  0  0  0  0  0  0
   49.2040   35.5710   42.0790 C   0  0  0  0  0  0  0  0  0  0  0  0
   48.8580   35.5460   40.7470 C   0  0  0  0  0  0  0  0  0  0  0  0
   48.0770   34.6200   40.1100 C   0  0  0  0  0  0  0  0  0  0  0  0
   49.3716   31.8496   42.4251 H   0  0  0  0  0  0  0  0  0  0  0  0
   47.6127   29.2293   45.2857 H   0  0  0  0  0  0  0  0  0  0  0  0
   44.4476   32.4685   44.4514 H   0  0  0  0  0  0  0  0  0  0  0  0
   45.2508   33.1584   42.1143 H   0  0  0  0  0  0  0  0  0  0  0  0
   43.7481   33.6611   43.0435 H   0  0  0  0  0  0  0  0  0  0  0  0
   46.3097   35.2466   42.8968 H   0  0  0  0  0  0  0  0  0  0  0  0
   44.8622   35.5390   41.8956 H   0  0  0  0  0  0  0  0  0  0  0  0
   45.0202   36.8973   44.0955 H   0  0  0  0  0  0  0  0  0  0  0  0
   43.4860   35.9491   43.8351 H   0  0  0  0  0  0  0  0  0  0  0  0
   45.1015   35.9363   46.0881 H   0  0  0  0  0  0  0  0  0  0  0  0
   43.7862   34.7744   45.6488 H   0  0  0  0  0  0  0  0  0  0  0  0
   45.8434   33.5852   46.2092 H   0  0  0  0  0  0  0  0  0  0  0  0
   46.7290   34.5209   44.9423 H   0  0  0  0  0  0  0  0  0  0  0  0
   48.8933   34.4396   43.8869 H   0  0  0  0  0  0  0  0  0  0  0  0
   49.8379   36.3518   42.5244 H   0  0  0  0  0  0  0  0  0  0  0  0
   49.2537   36.3620   40.1245 H   0  0  0  0  0  0  0  0  0  0  0  0
   47.8577   34.6914   39.0344 H   0  0  0  0  0  0  0  0  0  0  0  0
  1  7  1  0
  1  6  2  0
  2  1  1  0
  3  2  2  0
  3  4  1  0
  4  5  2  0
  5  6  1  0
  7 12  1  0
  8  7  1  0
  9  8  1  0
  9 10  1  0
 10 11  1  0
 12 11  1  0
 13 14  1  0
 14 15  2  0
 15 16  1  0
 15  2  1  0
 17 16  2  0
 18 17  1  0
 19 18  2  0
 19 14  1  0
  3 20  1  0
  5 21  1  0
  7 22  1  0
  8 23  1  0
  8 24  1  0
  9 25  1  0
  9 26  1  0
 10 27  1  0
 10 28  1  0
 11 29  1  0
 11 30  1  0
 12 31  1  0
 12 32  1  0
 16 33  1  0
 17 34  1  0
 18 35  1  0
 19 36  1  0
M  ISO  8  20  14  21  14  22  13  23  13  24  13  25  13  26  13  27  13
M  ISO  8  28  13  29  13  30  13  31  13  32  13  33  14  34  14  35  14
M  ISO  1  36  14
M  END
>  <minimizedAffinity>  (1) 
-5.4381237

>  <minimizedRMSD>  (1) 
2.45137787

$$$$
