
     RDKit          3D

 33 35  0  0  0  0  0  0  0  0999 V2000
   45.4350   33.2140   44.0780 C   0  0  0  0  0  0  0  0  0  0  0  0
   44.9890   33.9440   42.9250 C   0  0  0  0  0  0  0  0  0  0  0  0
   45.3140   35.3880   42.9820 C   0  0  0  0  0  0  0  0  0  0  0  0
   44.5250   35.9890   44.1750 C   0  0  0  0  0  0  0  0  0  0  0  0
   44.7200   35.2010   45.4300 C   0  0  0  0  0  0  0  0  0  0  0  0
   45.7580   34.1190   45.2770 C   0  0  0  0  0  0  0  0  0  0  0  0
   46.5860   32.3050   43.8910 C   0  0  0  0  0  0  0  0  0  0  0  0
   47.5200   32.7100   42.9700 C   0  0  0  0  0  0  0  0  0  0  0  0
   48.5610   31.8020   42.8790 C   0  0  0  0  0  0  0  0  0  0  0  0
   48.6030   30.6740   43.6330 N   0  0  0  0  0  0  0  0  0  0  0  0
   47.6850   30.3190   44.5100 C   0  0  0  0  0  0  0  0  0  0  0  0
   46.6910   31.1550   44.6130 N   0  0  0  0  0  0  0  0  0  0  0  0
   48.0000   33.8000   42.1740 C   0  0  0  0  0  0  0  0  0  0  0  0
   48.8490   34.8040   42.6940 C   0  0  0  0  0  0  0  0  0  0  0  0
   49.1610   35.7040   41.7100 C   0  0  0  0  0  0  0  0  0  0  0  0
   48.4900   35.2250   40.6200 C   0  0  0  0  0  0  0  0  0  0  0  0
   47.8510   34.1530   40.9260 O   0  0  0  0  0  0  0  0  0  0  0  0
   44.5529   32.5861   44.2722 H   0  0  0  0  0  0  0  0  0  0  0  0
   43.8974   33.8351   42.8439 H   0  0  0  0  0  0  0  0  0  0  0  0
   45.5140   33.5268   42.0530 H   0  0  0  0  0  0  0  0  0  0  0  0
   46.3943   35.5253   43.1372 H   0  0  0  0  0  0  0  0  0  0  0  0
   45.0397   35.8875   42.0411 H   0  0  0  0  0  0  0  0  0  0  0  0
   44.8699   37.0195   44.3456 H   0  0  0  0  0  0  0  0  0  0  0  0
   43.4549   35.9640   43.9213 H   0  0  0  0  0  0  0  0  0  0  0  0
   45.0390   35.8852   46.2301 H   0  0  0  0  0  0  0  0  0  0  0  0
   43.7633   34.7146   45.6712 H   0  0  0  0  0  0  0  0  0  0  0  0
   45.7803   33.5095   46.1924 H   0  0  0  0  0  0  0  0  0  0  0  0
   46.7361   34.5924   45.1062 H   0  0  0  0  0  0  0  0  0  0  0  0
   49.3806   32.0010   42.1729 H   0  0  0  0  0  0  0  0  0  0  0  0
   47.7525   29.3957   45.1041 H   0  0  0  0  0  0  0  0  0  0  0  0
   49.2056   34.8546   43.7334 H   0  0  0  0  0  0  0  0  0  0  0  0
   49.7985   36.5977   41.7801 H   0  0  0  0  0  0  0  0  0  0  0  0
   48.4961   35.6905   39.6234 H   0  0  0  0  0  0  0  0  0  0  0  0
  1  6  1  0
  2  3  1  0
  2  1  1  0
  3  4  1  0
  4  5  1  0
  6  5  1  0
  7  1  1  0
  7 12  2  0
  8  7  1  0
  9  8  2  0
  9 10  1  0
 10 11  2  0
 11 12  1  0
 13 14  2  0
 13  8  1  0
 15 14  1  0
 16 17  1  0
 16 15  2  0
 17 13  1  0
  1 18  1  0
  2 19  1  0
  2 20  1  0
  3 21  1  0
  3 22  1  0
  4 23  1  0
  4 24  1  0
  5 25  1  0
  5 26  1  0
  6 27  1  0
  6 28  1  0
  9 29  1  0
 11 30  1  0
 14 31  1  0
 15 32  1  0
 16 33  1  0
M  ISO  8  18  13  19  13  20  13  21  13  22  13  23  13  24  13  25  13
M  ISO  8  26  13  27  13  28  13  29  14  30  14  31  14  32  14  33  14
M  END
>  <minimizedAffinity>  (1) 
-4.83774662

>  <minimizedRMSD>  (1) 
2.23182368

$$$$
