
     RDKit          3D

 38 40  0  0  0  0  0  0  0  0999 V2000
   45.0940   33.3030   43.7340 C   0  0  0  0  0  0  0  0  0  0  0  0
   44.6900   34.2400   42.7300 C   0  0  0  0  0  0  0  0  0  0  0  0
   45.2730   35.6090   42.9390 C   0  0  0  0  0  0  0  0  0  0  0  0
   44.7060   36.1710   44.2530 C   0  0  0  0  0  0  0  0  0  0  0  0
   44.7820   35.1810   45.3710 C   0  0  0  0  0  0  0  0  0  0  0  0
   45.6460   34.0010   44.9990 C   0  0  0  0  0  0  0  0  0  0  0  0
   46.0580   32.2660   43.3540 C   0  0  0  0  0  0  0  0  0  0  0  0
   47.0950   32.6880   42.5570 C   0  0  0  0  0  0  0  0  0  0  0  0
   48.0430   31.7280   42.2610 C   0  0  0  0  0  0  0  0  0  0  0  0
   47.8830   30.4780   42.7620 N   0  0  0  0  0  0  0  0  0  0  0  0
   46.8870   30.0760   43.5230 C   0  0  0  0  0  0  0  0  0  0  0  0
   45.9810   30.9880   43.8090 N   0  0  0  0  0  0  0  0  0  0  0  0
   47.6870   33.7700   41.9020 N   0  0  0  0  0  0  0  0  0  0  0  0
   47.5150   34.4190   40.5830 C   0  0  0  0  0  0  0  0  0  0  0  0
   48.7410   35.2230   40.3470 C   0  0  0  0  0  0  0  0  0  0  0  0
   48.8480   35.8400   41.7510 C   0  0  0  0  0  0  0  0  0  0  0  0
   48.7500   34.5750   42.5430 C   0  0  0  0  0  0  0  0  0  0  0  0
   44.1416   32.7848   43.9196 H   0  0  0  0  0  0  0  0  0  0  0  0
   43.5930   34.3196   42.7454 H   0  0  0  0  0  0  0  0  0  0  0  0
   45.0600   33.8678   41.7633 H   0  0  0  0  0  0  0  0  0  0  0  0
   46.3691   35.5421   43.0037 H   0  0  0  0  0  0  0  0  0  0  0  0
   45.0126   36.2679   42.0975 H   0  0  0  0  0  0  0  0  0  0  0  0
   45.2812   37.0659   44.5328 H   0  0  0  0  0  0  0  0  0  0  0  0
   43.6456   36.4118   44.0872 H   0  0  0  0  0  0  0  0  0  0  0  0
   45.2093   35.6730   46.2572 H   0  0  0  0  0  0  0  0  0  0  0  0
   43.7661   34.8155   45.5815 H   0  0  0  0  0  0  0  0  0  0  0  0
   45.6572   33.2834   45.8327 H   0  0  0  0  0  0  0  0  0  0  0  0
   46.6657   34.3579   44.7921 H   0  0  0  0  0  0  0  0  0  0  0  0
   48.9110   31.9727   41.6311 H   0  0  0  0  0  0  0  0  0  0  0  0
   46.8159   29.0438   43.8964 H   0  0  0  0  0  0  0  0  0  0  0  0
   47.4021   33.6581   39.7967 H   0  0  0  0  0  0  0  0  0  0  0  0
   46.6147   35.0507   40.5643 H   0  0  0  0  0  0  0  0  0  0  0  0
   49.6106   34.5974   40.0969 H   0  0  0  0  0  0  0  0  0  0  0  0
   48.7066   35.9296   39.5047 H   0  0  0  0  0  0  0  0  0  0  0  0
   49.8068   36.3561   41.9072 H   0  0  0  0  0  0  0  0  0  0  0  0
   48.1103   36.6192   41.9931 H   0  0  0  0  0  0  0  0  0  0  0  0
   48.4831   34.7978   43.5866 H   0  0  0  0  0  0  0  0  0  0  0  0
   49.7084   34.0354   42.5580 H   0  0  0  0  0  0  0  0  0  0  0  0
  1  6  1  0
  2  3  1  0
  2  1  1  0
  3  4  1  0
  4  5  1  0
  6  5  1  0
  7  1  1  0
  7 12  2  0
  8  7  1  0
  9  8  2  0
  9 10  1  0
 10 11  2  0
 11 12  1  0
 13 17  1  0
 13  8  1  0
 14 13  1  0
 15 14  1  0
 15 16  1  0
 16 17  1  0
  1 18  1  0
  2 19  1  0
  2 20  1  0
  3 21  1  0
  3 22  1  0
  4 23  1  0
  4 24  1  0
  5 25  1  0
  5 26  1  0
  6 27  1  0
  6 28  1  0
  9 29  1  0
 11 30  1  0
 14 31  1  0
 14 32  1  0
 15 33  1  0
 15 34  1  0
 16 35  1  0
 16 36  1  0
 17 37  1  0
 17 38  1  0
M  ISO  8  18  13  19  13  20  13  21  13  22  13  23  13  24  13  25  13
M  ISO  8  26  13  27  13  28  13  29  14  30  14  31  13  32  13  33  13
M  ISO  5  34  13  35  13  36  13  37  13  38  13
M  END
>  <minimizedAffinity>  (1) 
-4.75840282

>  <minimizedRMSD>  (1) 
2.45922399

$$$$
