
     RDKit          3D

 30 31  0  0  0  0  0  0  0  0999 V2000
   46.7590   34.4220   41.0050 C   0  0  0  0  0  0  0  0  0  0  0  0
   47.0260   35.1320   42.2250 C   0  0  0  0  0  0  0  0  0  0  0  0
   45.9590   34.9760   43.2650 C   0  0  0  0  0  0  0  0  0  0  0  0
   44.6690   35.6030   42.7030 C   0  0  0  0  0  0  0  0  0  0  0  0
   44.3500   35.1180   41.3240 C   0  0  0  0  0  0  0  0  0  0  0  0
   45.2730   34.0140   40.8820 C   0  0  0  0  0  0  0  0  0  0  0  0
   47.5630   33.2190   40.7390 C   0  0  0  0  0  0  0  0  0  0  0  0
   48.4150   33.3120   39.6400 C   0  0  0  0  0  0  0  0  0  0  0  0
   49.2290   32.2270   39.3920 C   0  0  0  0  0  0  0  0  0  0  0  0
   49.1410   31.1510   40.2370 N   0  0  0  0  0  0  0  0  0  0  0  0
   48.3230   31.0790   41.2780 C   0  0  0  0  0  0  0  0  0  0  0  0
   47.5440   32.1220   41.5090 N   0  0  0  0  0  0  0  0  0  0  0  0
   47.9160   34.1770   37.4690 C   0  0  0  0  0  0  0  0  0  0  0  0
   46.8800   33.5030   37.2610 O   0  0  0  0  0  0  0  0  0  0  0  0
   48.8060   34.1960   38.6250 N   0  0  0  0  0  0  0  0  0  0  0  0
   47.0509   35.1710   40.2541 H   0  0  0  0  0  0  0  0  0  0  0  0
   47.9732   34.7594   42.6422 H   0  0  0  0  0  0  0  0  0  0  0  0
   47.0682   36.2010   41.9692 H   0  0  0  0  0  0  0  0  0  0  0  0
   45.7959   33.9093   43.4786 H   0  0  0  0  0  0  0  0  0  0  0  0
   46.2550   35.4723   44.2010 H   0  0  0  0  0  0  0  0  0  0  0  0
   43.8325   35.3462   43.3696 H   0  0  0  0  0  0  0  0  0  0  0  0
   44.8227   36.6908   42.6476 H   0  0  0  0  0  0  0  0  0  0  0  0
   43.3163   34.7421   41.3109 H   0  0  0  0  0  0  0  0  0  0  0  0
   44.4775   35.9626   40.6310 H   0  0  0  0  0  0  0  0  0  0  0  0
   45.0571   33.7690   39.8316 H   0  0  0  0  0  0  0  0  0  0  0  0
   45.1026   33.1451   41.5346 H   0  0  0  0  0  0  0  0  0  0  0  0
   49.9275   32.2248   38.5423 H   0  0  0  0  0  0  0  0  0  0  0  0
   48.2937   30.1883   41.9228 H   0  0  0  0  0  0  0  0  0  0  0  0
   48.1979   34.8598   36.6540 H   0  0  0  0  0  0  0  0  0  0  0  0
   49.6386   34.7989   38.6888 H   0  0  0  0  0  0  0  0  0  0  0  0
  1  2  1  0
  2  3  1  0
  4  3  1  0
  5  4  1  0
  6  1  1  0
  6  5  1  0
  7  1  1  0
  7 12  1  0
  8  7  2  0
  9  8  1  0
  9 10  2  0
 10 11  1  0
 11 12  2  0
 13 15  1  0
 14 13  2  0
 15  8  1  0
  1 16  1  0
  2 17  1  0
  2 18  1  0
  3 19  1  0
  3 20  1  0
  4 21  1  0
  4 22  1  0
  5 23  1  0
  5 24  1  0
  6 25  1  0
  6 26  1  0
  9 27  1  0
 11 28  1  0
 13 29  1  0
 15 30  1  0
M  ISO  8  16  13  17  13  18  13  19  13  20  13  21  13  22  13  23  13
M  ISO  6  24  13  25  13  26  13  27  14  28  14  29   6
M  END
>  <minimizedAffinity>  (1) 
-4.05479288

>  <minimizedRMSD>  (1) 
2.41580796

$$$$
