
     RDKit          3D

 27 28  0  0  0  0  0  0  0  0999 V2000
   47.2920   32.7840   42.6410 C   0  0  0  0  0  0  0  0  0  0  0  0
   46.5680   32.8830   41.3900 C   0  0  0  0  0  0  0  0  0  0  0  0
   46.3500   34.2890   40.9220 C   0  0  0  0  0  0  0  0  0  0  0  0
   45.5120   35.0230   41.9770 C   0  0  0  0  0  0  0  0  0  0  0  0
   46.0300   34.8210   43.3740 C   0  0  0  0  0  0  0  0  0  0  0  0
   47.3720   34.1470   43.3680 C   0  0  0  0  0  0  0  0  0  0  0  0
   48.6570   32.2540   42.5460 C   0  0  0  0  0  0  0  0  0  0  0  0
   49.6080   33.1350   42.0170 C   0  0  0  0  0  0  0  0  0  0  0  0
   50.9190   32.7090   41.9480 C   0  0  0  0  0  0  0  0  0  0  0  0
   51.2120   31.4380   42.4050 N   0  0  0  0  0  0  0  0  0  0  0  0
   50.2810   30.6210   42.9030 C   0  0  0  0  0  0  0  0  0  0  0  0
   49.0170   31.0290   42.9710 N   0  0  0  0  0  0  0  0  0  0  0  0
   49.5880   34.3760   41.5200 O   0  0  0  0  0  0  0  0  0  0  0  0
   46.6947   32.0553   43.2086 H   0  0  0  0  0  0  0  0  0  0  0  0
   47.1374   32.3456   40.6173 H   0  0  0  0  0  0  0  0  0  0  0  0
   45.5729   32.4472   41.5628 H   0  0  0  0  0  0  0  0  0  0  0  0
   47.3191   34.7946   40.7990 H   0  0  0  0  0  0  0  0  0  0  0  0
   45.8267   34.2897   39.9544 H   0  0  0  0  0  0  0  0  0  0  0  0
   45.5242   36.0991   41.7495 H   0  0  0  0  0  0  0  0  0  0  0  0
   44.4932   34.6100   41.9378 H   0  0  0  0  0  0  0  0  0  0  0  0
   46.1234   35.8002   43.8663 H   0  0  0  0  0  0  0  0  0  0  0  0
   45.3216   34.1777   43.9165 H   0  0  0  0  0  0  0  0  0  0  0  0
   47.7001   33.9850   44.4054 H   0  0  0  0  0  0  0  0  0  0  0  0
   48.0902   34.7903   42.8385 H   0  0  0  0  0  0  0  0  0  0  0  0
   51.7064   33.3610   41.5418 H   0  0  0  0  0  0  0  0  0  0  0  0
   50.5577   29.6163   43.2550 H   0  0  0  0  0  0  0  0  0  0  0  0
   50.4258   34.7940   41.1984 H   0  0  0  0  0  0  0  0  0  0  0  0
  1  6  1  0
  2  1  1  0
  3  2  1  0
  3  4  1  0
  4  5  1  0
  6  5  1  0
  7  1  1  0
  7 12  1  0
  8  7  2  0
  9  8  1  0
  9 10  2  0
 10 11  1  0
 11 12  2  0
 13  8  1  0
  1 14  1  0
  2 15  1  0
  2 16  1  0
  3 17  1  0
  3 18  1  0
  4 19  1  0
  4 20  1  0
  5 21  1  0
  5 22  1  0
  6 23  1  0
  6 24  1  0
  9 25  1  0
 11 26  1  0
 13 27  1  0
M  ISO  8  14  13  15  13  16  13  17  13  18  13  19  13  20  13  21  13
M  ISO  6  22  13  23  13  24  13  25  14  26  14  27   3
M  END
>  <minimizedAffinity>  (1) 
-3.42990613

>  <minimizedRMSD>  (1) 
0.618473351

$$$$
