
     RDKit          3D

 30 31  0  0  0  0  0  0  0  0999 V2000
   46.9350   34.1280   42.5200 C   0  0  0  0  0  0  0  0  0  0  0  0
   48.3180   34.6130   42.5680 C   0  0  0  0  0  0  0  0  0  0  0  0
   48.6610   35.4880   41.4400 C   0  0  0  0  0  0  0  0  0  0  0  0
   48.4330   34.7750   40.1020 C   0  0  0  0  0  0  0  0  0  0  0  0
   47.1580   34.0100   40.0570 C   0  0  0  0  0  0  0  0  0  0  0  0
   46.2520   34.3490   41.2100 C   0  0  0  0  0  0  0  0  0  0  0  0
   46.0600   34.6060   43.5960 C   0  0  0  0  0  0  0  0  0  0  0  0
   46.0430   33.8070   44.7300 C   0  0  0  0  0  0  0  0  0  0  0  0
   45.2480   34.2230   45.7780 C   0  0  0  0  0  0  0  0  0  0  0  0
   44.5280   35.3850   45.6380 N   0  0  0  0  0  0  0  0  0  0  0  0
   44.5650   36.1290   44.5320 C   0  0  0  0  0  0  0  0  0  0  0  0
   45.3270   35.7310   43.5300 N   0  0  0  0  0  0  0  0  0  0  0  0
   46.6240   32.6930   45.0650 O   0  0  0  0  0  0  0  0  0  0  0  0
   46.9430   31.9510   46.1120 C   0  0  0  0  0  0  0  0  0  0  0  0
   47.4890   32.4890   47.2350 F   0  0  0  0  0  0  0  0  0  0  0  0
   47.8290   30.9400   45.7080 F   0  0  0  0  0  0  0  0  0  0  0  0
   45.8160   31.2360   46.5470 F   0  0  0  0  0  0  0  0  0  0  0  0
   47.0834   33.0482   42.6686 H   0  0  0  0  0  0  0  0  0  0  0  0
   48.4596   35.1752   43.5028 H   0  0  0  0  0  0  0  0  0  0  0  0
   48.9761   33.7334   42.5127 H   0  0  0  0  0  0  0  0  0  0  0  0
   48.0312   36.3890   41.4793 H   0  0  0  0  0  0  0  0  0  0  0  0
   49.7247   35.7575   41.5165 H   0  0  0  0  0  0  0  0  0  0  0  0
   48.4167   35.5296   39.3018 H   0  0  0  0  0  0  0  0  0  0  0  0
   49.2528   34.0532   39.9717 H   0  0  0  0  0  0  0  0  0  0  0  0
   46.6374   34.2436   39.1166 H   0  0  0  0  0  0  0  0  0  0  0  0
   47.4032   32.9397   40.1229 H   0  0  0  0  0  0  0  0  0  0  0  0
   45.9556   35.4056   41.1342 H   0  0  0  0  0  0  0  0  0  0  0  0
   45.3702   33.6931   41.1632 H   0  0  0  0  0  0  0  0  0  0  0  0
   45.1916   33.6364   46.7068 H   0  0  0  0  0  0  0  0  0  0  0  0
   43.9739   37.0536   44.4562 H   0  0  0  0  0  0  0  0  0  0  0  0
  1  2  1  0
  1  7  1  0
  3  2  1  0
  4  3  1  0
  5  4  1  0
  5  6  1  0
  6  1  1  0
  7  8  2  0
  8 13  1  0
  8  9  1  0
 10  9  2  0
 11 10  1  0
 12  7  1  0
 12 11  2  0
 13 14  1  0
 14 17  1  0
 14 15  1  0
 16 14  1  0
  1 18  1  0
  2 19  1  0
  2 20  1  0
  3 21  1  0
  3 22  1  0
  4 23  1  0
  4 24  1  0
  5 25  1  0
  5 26  1  0
  6 27  1  0
  6 28  1  0
  9 29  1  0
 11 30  1  0
M  ISO  8  18  13  19  13  20  13  21  13  22  13  23  13  24  13  25  13
M  ISO  5  26  13  27  13  28  13  29  14  30  14
M  END
>  <minimizedAffinity>  (1) 
-5.49742222

>  <minimizedRMSD>  (1) 
5.82295513

$$$$
