
     RDKit          3D

 43 46  0  0  0  0  0  0  0  0999 V2000
   47.9080   31.6470   41.4600 C   0  0  0  0  0  0  0  0  0  0  0  0
   48.0190   32.9670   41.0620 C   0  0  0  0  0  0  0  0  0  0  0  0
   48.5960   33.1910   39.8120 C   0  0  0  0  0  0  0  0  0  0  0  0
   49.0000   32.0800   39.0730 N   0  0  0  0  0  0  0  0  0  0  0  0
   48.8600   30.8360   39.5110 C   0  0  0  0  0  0  0  0  0  0  0  0
   48.3210   30.6150   40.6950 N   0  0  0  0  0  0  0  0  0  0  0  0
   47.3830   31.5090   42.8260 C   0  0  0  0  0  0  0  0  0  0  0  0
   45.9600   31.1790   42.9080 C   0  0  0  0  0  0  0  0  0  0  0  0
   45.1520   32.1870   43.5380 C   0  0  0  0  0  0  0  0  0  0  0  0
   45.6800   32.5760   44.9400 C   0  0  0  0  0  0  0  0  0  0  0  0
   47.1510   32.6830   45.0190 C   0  0  0  0  0  0  0  0  0  0  0  0
   47.7800   32.6880   43.6640 C   0  0  0  0  0  0  0  0  0  0  0  0
   47.7300   34.1550   41.5270 O   0  0  0  0  0  0  0  0  0  0  0  0
   46.4850   34.6760   41.7880 C   0  0  0  0  0  0  0  0  0  0  0  0
   46.0550   35.5130   42.8290 C   0  0  0  0  0  0  0  0  0  0  0  0
   44.7410   35.9160   42.8880 C   0  0  0  0  0  0  0  0  0  0  0  0
   43.8120   35.5250   41.9510 C   0  0  0  0  0  0  0  0  0  0  0  0
   44.2310   34.6950   40.9150 C   0  0  0  0  0  0  0  0  0  0  0  0
   43.2320   34.3600   40.0300 C   0  0  0  0  0  0  0  0  0  0  0  0
   43.5630   33.5400   38.9740 C   0  0  0  0  0  0  0  0  0  0  0  0
   44.8590   33.0920   38.8420 C   0  0  0  0  0  0  0  0  0  0  0  0
   45.8260   33.4560   39.7550 C   0  0  0  0  0  0  0  0  0  0  0  0
   45.5460   34.2750   40.8310 C   0  0  0  0  0  0  0  0  0  0  0  0
   48.7280   34.2110   39.4220 H   0  0  0  0  0  0  0  0  0  0  0  0
   49.1921   29.9914   38.8894 H   0  0  0  0  0  0  0  0  0  0  0  0
   47.8615   30.6163   43.2552 H   0  0  0  0  0  0  0  0  0  0  0  0
   45.5831   31.0250   41.8861 H   0  0  0  0  0  0  0  0  0  0  0  0
   45.8823   30.2779   43.5341 H   0  0  0  0  0  0  0  0  0  0  0  0
   45.1464   33.0840   42.9013 H   0  0  0  0  0  0  0  0  0  0  0  0
   44.1398   31.7751   43.6634 H   0  0  0  0  0  0  0  0  0  0  0  0
   45.2470   33.5491   45.2150 H   0  0  0  0  0  0  0  0  0  0  0  0
   45.3819   31.7706   45.6273 H   0  0  0  0  0  0  0  0  0  0  0  0
   47.4128   33.6176   45.5366 H   0  0  0  0  0  0  0  0  0  0  0  0
   47.5287   31.8080   45.5683 H   0  0  0  0  0  0  0  0  0  0  0  0
   48.8732   32.6787   43.7856 H   0  0  0  0  0  0  0  0  0  0  0  0
   47.4308   33.5922   43.1439 H   0  0  0  0  0  0  0  0  0  0  0  0
   46.7681   35.8466   43.5973 H   0  0  0  0  0  0  0  0  0  0  0  0
   44.4224   36.5724   43.7112 H   0  0  0  0  0  0  0  0  0  0  0  0
   42.7663   35.8594   42.0189 H   0  0  0  0  0  0  0  0  0  0  0  0
   42.2058   34.7337   40.1612 H   0  0  0  0  0  0  0  0  0  0  0  0
   42.7977   33.2449   38.2410 H   0  0  0  0  0  0  0  0  0  0  0  0
   45.1252   32.4370   37.9993 H   0  0  0  0  0  0  0  0  0  0  0  0
   46.8521   33.0825   39.6222 H   0  0  0  0  0  0  0  0  0  0  0  0
  1  7  1  0
  2  1  1  0
  2 13  1  0
  3  2  2  0
  4  5  2  0
  4  3  1  0
  5  6  1  0
  6  1  2  0
  7  8  1  0
  7 12  1  0
  8  9  1  0
  9 10  1  0
 10 11  1  0
 12 11  1  0
 13 14  1  0
 14 15  2  0
 15 16  1  0
 17 16  2  0
 18 17  1  0
 19 18  2  0
 20 19  1  0
 21 20  2  0
 21 22  1  0
 22 23  2  0
 23 18  1  0
 23 14  1  0
  3 24  1  0
  5 25  1  0
  7 26  1  0
  8 27  1  0
  8 28  1  0
  9 29  1  0
  9 30  1  0
 10 31  1  0
 10 32  1  0
 11 33  1  0
 11 34  1  0
 12 35  1  0
 12 36  1  0
 15 37  1  0
 16 38  1  0
 17 39  1  0
 19 40  1  0
 20 41  1  0
 21 42  1  0
 22 43  1  0
M  ISO  8  24  14  25  14  26  13  27  13  28  13  29  13  30  13  31  13
M  ISO  8  32  13  33  13  34  13  35  13  36  13  37  14  38  14  39  14
M  ISO  4  40  14  41  14  42  14  43  14
M  END
>  <minimizedAffinity>  (1) 
-4.70558596

>  <minimizedRMSD>  (1) 
3.87069154

$$$$
