
     RDKit          3D

 30 31  0  0  0  0  0  0  0  0999 V2000
   46.3620   32.9590   43.8500 C   0  0  0  0  0  0  0  0  0  0  0  0
   47.2680   34.0600   43.5090 C   0  0  0  0  0  0  0  0  0  0  0  0
   46.6750   35.0370   42.5940 C   0  0  0  0  0  0  0  0  0  0  0  0
   46.1950   34.3760   41.3020 C   0  0  0  0  0  0  0  0  0  0  0  0
   45.5110   33.0730   41.5240 C   0  0  0  0  0  0  0  0  0  0  0  0
   45.1580   32.8590   42.9730 C   0  0  0  0  0  0  0  0  0  0  0  0
   45.9440   32.8950   45.2560 C   0  0  0  0  0  0  0  0  0  0  0  0
   46.2190   31.6620   45.8710 C   0  0  0  0  0  0  0  0  0  0  0  0
   45.8560   31.5660   47.2020 C   0  0  0  0  0  0  0  0  0  0  0  0
   45.2670   32.6370   47.8280 N   0  0  0  0  0  0  0  0  0  0  0  0
   45.0250   33.7900   47.1990 C   0  0  0  0  0  0  0  0  0  0  0  0
   45.3630   33.9030   45.9310 N   0  0  0  0  0  0  0  0  0  0  0  0
   46.7540   30.5320   45.4870 O   0  0  0  0  0  0  0  0  0  0  0  0
   47.9630   29.9090   45.7530 C   0  0  0  0  0  0  0  0  0  0  0  0
   47.0061   32.0872   43.6627 H   0  0  0  0  0  0  0  0  0  0  0  0
   47.5520   34.5783   44.4367 H   0  0  0  0  0  0  0  0  0  0  0  0
   48.1364   33.6200   42.9969 H   0  0  0  0  0  0  0  0  0  0  0  0
   45.8181   35.5166   43.0897 H   0  0  0  0  0  0  0  0  0  0  0  0
   47.4446   35.7795   42.3362 H   0  0  0  0  0  0  0  0  0  0  0  0
   47.0664   34.2063   40.6525 H   0  0  0  0  0  0  0  0  0  0  0  0
   45.4607   35.0545   40.8433 H   0  0  0  0  0  0  0  0  0  0  0  0
   44.5875   33.0507   40.9267 H   0  0  0  0  0  0  0  0  0  0  0  0
   46.2011   32.2717   41.2211 H   0  0  0  0  0  0  0  0  0  0  0  0
   44.4280   33.6226   43.2796 H   0  0  0  0  0  0  0  0  0  0  0  0
   44.7361   31.8487   43.0799 H   0  0  0  0  0  0  0  0  0  0  0  0
   46.0386   30.6344   47.7577 H   0  0  0  0  0  0  0  0  0  0  0  0
   44.5523   34.6295   47.7299 H   0  0  0  0  0  0  0  0  0  0  0  0
   48.1059   29.8354   46.8412 H   0  0  0  0  0  0  0  0  0  0  0  0
   47.9599   28.9002   45.3145 H   0  0  0  0  0  0  0  0  0  0  0  0
   48.7828   30.4970   45.3145 H   0  0  0  0  0  0  0  0  0  0  0  0
  1  7  1  0
  2  1  1  0
  3  2  1  0
  4  5  1  0
  4  3  1  0
  5  6  1  0
  6  1  1  0
  7  8  2  0
  7 12  1  0
  8  9  1  0
  9 10  2  0
 11 10  1  0
 12 11  2  0
 13 14  1  0
 13  8  1  0
  1 15  1  0
  2 16  1  0
  2 17  1  0
  3 18  1  0
  3 19  1  0
  4 20  1  0
  4 21  1  0
  5 22  1  0
  5 23  1  0
  6 24  1  0
  6 25  1  0
  9 26  1  0
 11 27  1  0
 14 28  1  0
 14 29  1  0
 14 30  1  0
M  ISO  8  15  13  16  13  17  13  18  13  19  13  20  13  21  13  22  13
M  ISO  8  23  13  24  13  25  13  26  14  27  14  28   8  29   8  30   8
M  END
>  <minimizedAffinity>  (1) 
-3.41529584

>  <minimizedRMSD>  (1) 
5.16655302

$$$$
