
     RDKit          3D

 33 35  0  0  1  0  0  0  0  0999 V2000
   45.7860   33.8770   41.2960 C   0  0  1  0  0  0  0  0  0  0  0  0
   46.4570   33.9150   39.9500 C   0  0  0  0  0  0  0  0  0  0  0  0
   47.9390   33.6800   40.2260 C   0  0  0  0  0  0  0  0  0  0  0  0
   48.4410   34.9290   40.9170 C   0  0  0  0  0  0  0  0  0  0  0  0
   47.7050   35.2390   42.1690 C   0  0  0  0  0  0  0  0  0  0  0  0
   46.2360   35.0560   42.1290 C   0  0  2  0  0  0  0  0  0  0  0  0
   42.1820   34.9460   40.7020 C   0  0  0  0  0  0  0  0  0  0  0  0
   43.5730   34.9950   40.7750 C   0  0  0  0  0  0  0  0  0  0  0  0
   44.3180   33.8870   41.1980 C   0  0  0  0  0  0  0  0  0  0  0  0
   43.6080   32.7790   41.5260 N   0  0  0  0  0  0  0  0  0  0  0  0
   42.2600   32.7390   41.4530 C   0  0  0  0  0  0  0  0  0  0  0  0
   41.5410   33.7960   41.0490 N   0  0  0  0  0  0  0  0  0  0  0  0
   45.7280   34.9160   43.5240 C   0  0  0  0  0  0  0  0  0  0  0  0
   45.9390   33.9410   44.5040 C   0  0  0  0  0  0  0  0  0  0  0  0
   45.2250   34.3030   45.6290 C   0  0  0  0  0  0  0  0  0  0  0  0
   44.6050   35.4880   45.2890 C   0  0  0  0  0  0  0  0  0  0  0  0
   44.9270   35.8010   44.0650 O   0  0  0  0  0  0  0  0  0  0  0  0
   46.0820   32.9315   41.7740 H   0  0  0  0  0  0  0  0  0  0  0  0
   46.3055   34.8943   39.4725 H   0  0  0  0  0  0  0  0  0  0  0  0
   46.0443   33.1580   39.2670 H   0  0  0  0  0  0  0  0  0  0  0  0
   48.0716   32.8038   40.8777 H   0  0  0  0  0  0  0  0  0  0  0  0
   48.4944   33.4842   39.2969 H   0  0  0  0  0  0  0  0  0  0  0  0
   49.5045   34.7902   41.1615 H   0  0  0  0  0  0  0  0  0  0  0  0
   48.2830   35.7710   40.2271 H   0  0  0  0  0  0  0  0  0  0  0  0
   48.1024   34.5877   42.9614 H   0  0  0  0  0  0  0  0  0  0  0  0
   47.8620   36.3137   42.3431 H   0  0  0  0  0  0  0  0  0  0  0  0
   45.8157   35.9472   41.6399 H   0  0  0  0  0  0  0  0  0  0  0  0
   41.6099   35.8244   40.3686 H   0  0  0  0  0  0  0  0  0  0  0  0
   44.0957   35.9215   40.4951 H   0  0  0  0  0  0  0  0  0  0  0  0
   41.7370   31.8127   41.7330 H   0  0  0  0  0  0  0  0  0  0  0  0
   46.5646   33.0425   44.3973 H   0  0  0  0  0  0  0  0  0  0  0  0
   45.1638   33.7648   46.5864 H   0  0  0  0  0  0  0  0  0  0  0  0
   43.9451   36.0744   45.9453 H   0  0  0  0  0  0  0  0  0  0  0  0
  1  6  1  0
  2  3  1  0
  2  1  1  0
  3  4  1  0
  4  5  1  0
  6  5  1  0
  6 13  1  0
  7  8  2  0
  7 12  1  0
  8  9  1  0
  9  1  1  0
  9 10  2  0
 11 10  1  0
 12 11  2  0
 13 17  1  0
 13 14  2  0
 14 15  1  0
 16 15  2  0
 17 16  1  0
  1 18  1  1
  2 19  1  0
  2 20  1  0
  3 21  1  0
  3 22  1  0
  4 23  1  0
  4 24  1  0
  5 25  1  0
  5 26  1  0
  6 27  1  6
  7 28  1  0
  8 29  1  0
 11 30  1  0
 14 31  1  0
 15 32  1  0
 16 33  1  0
M  ISO  8  18  13  19  13  20  13  21  13  22  13  23  13  24  13  25  13
M  ISO  8  26  13  27  13  28  14  29  14  30  14  31  14  32  14  33  14
M  END
>  <minimizedAffinity>  (1) 
-5.24436188

>  <minimizedRMSD>  (1) 
3.7102437

$$$$
