
     RDKit          3D

 48 50  0  0  0  0  0  0  0  0999 V2000
   46.1520   34.5440   43.6090 C   0  0  0  0  0  0  0  0  0  0  0  0
   46.1790   33.7590   44.7470 C   0  0  0  0  0  0  0  0  0  0  0  0
   45.3690   34.1340   45.7790 C   0  0  0  0  0  0  0  0  0  0  0  0
   44.5860   35.2410   45.6410 N   0  0  0  0  0  0  0  0  0  0  0  0
   44.5600   36.0010   44.5400 C   0  0  0  0  0  0  0  0  0  0  0  0
   45.3510   35.6210   43.5530 N   0  0  0  0  0  0  0  0  0  0  0  0
   47.0590   34.1380   42.5310 C   0  0  0  0  0  0  0  0  0  0  0  0
   48.4010   34.6910   42.5870 C   0  0  0  0  0  0  0  0  0  0  0  0
   48.7110   35.5940   41.4740 C   0  0  0  0  0  0  0  0  0  0  0  0
   48.5430   34.8830   40.1410 C   0  0  0  0  0  0  0  0  0  0  0  0
   47.2570   34.1220   40.0510 C   0  0  0  0  0  0  0  0  0  0  0  0
   46.3380   34.4010   41.2140 C   0  0  0  0  0  0  0  0  0  0  0  0
   46.8460   32.6740   45.0740 O   0  0  0  0  0  0  0  0  0  0  0  0
   47.0290   31.9520   46.2190 C   0  0  0  0  0  0  0  0  0  0  0  0
   47.2680   30.4790   46.0050 C   0  0  0  0  0  0  0  0  0  0  0  0
   46.7160   29.6540   47.0290 N   0  0  0  0  0  0  0  0  0  0  0  0
   45.3200   29.9530   47.2500 C   0  0  0  0  0  0  0  0  0  0  0  0
   44.4590   29.0510   46.4330 C   0  0  0  0  0  0  0  0  0  0  0  0
   44.5590   27.6710   47.0440 C   0  0  0  0  0  0  0  0  0  0  0  0
   45.9570   27.3740   47.5330 C   0  0  0  0  0  0  0  0  0  0  0  0
   46.9910   28.2600   46.8810 C   0  0  0  0  0  0  0  0  0  0  0  0
   45.3482   33.5500   46.7110 H   0  0  0  0  0  0  0  0  0  0  0  0
   43.9174   36.8903   44.4615 H   0  0  0  0  0  0  0  0  0  0  0  0
   47.2756   33.0659   42.6475 H   0  0  0  0  0  0  0  0  0  0  0  0
   48.5077   35.2500   43.5284 H   0  0  0  0  0  0  0  0  0  0  0  0
   49.1013   33.8453   42.5208 H   0  0  0  0  0  0  0  0  0  0  0  0
   48.0313   36.4581   41.5103 H   0  0  0  0  0  0  0  0  0  0  0  0
   49.7557   35.9252   41.5684 H   0  0  0  0  0  0  0  0  0  0  0  0
   48.5653   35.6330   39.3367 H   0  0  0  0  0  0  0  0  0  0  0  0
   49.3654   34.1589   40.0443 H   0  0  0  0  0  0  0  0  0  0  0  0
   46.7439   34.4053   39.1201 H   0  0  0  0  0  0  0  0  0  0  0  0
   47.5014   33.0496   40.0680 H   0  0  0  0  0  0  0  0  0  0  0  0
   46.0173   35.4526   41.1793 H   0  0  0  0  0  0  0  0  0  0  0  0
   45.4626   33.7384   41.1461 H   0  0  0  0  0  0  0  0  0  0  0  0
   47.8988   32.3664   46.7498 H   0  0  0  0  0  0  0  0  0  0  0  0
   46.0928   32.0344   46.7905 H   0  0  0  0  0  0  0  0  0  0  0  0
   46.8161   30.1898   45.0447 H   0  0  0  0  0  0  0  0  0  0  0  0
   48.3570   30.3245   46.0198 H   0  0  0  0  0  0  0  0  0  0  0  0
   45.0836   29.8127   48.3151 H   0  0  0  0  0  0  0  0  0  0  0  0
   45.1272   30.9947   46.9537 H   0  0  0  0  0  0  0  0  0  0  0  0
   44.8145   29.0300   45.3923 H   0  0  0  0  0  0  0  0  0  0  0  0
   43.4168   29.4029   46.4267 H   0  0  0  0  0  0  0  0  0  0  0  0
   43.8634   27.6065   47.8937 H   0  0  0  0  0  0  0  0  0  0  0  0
   44.3045   26.9342   46.2679 H   0  0  0  0  0  0  0  0  0  0  0  0
   45.9921   27.5307   48.6212 H   0  0  0  0  0  0  0  0  0  0  0  0
   46.1918   26.3320   47.2700 H   0  0  0  0  0  0  0  0  0  0  0  0
   47.0263   28.0233   45.8073 H   0  0  0  0  0  0  0  0  0  0  0  0
   47.9506   28.0627   47.3812 H   0  0  0  0  0  0  0  0  0  0  0  0
  1  2  1  0
  2 13  1  0
  2  3  2  0
  4  3  1  0
  5  4  2  0
  6  1  2  0
  6  5  1  0
  7  8  1  0
  7  1  1  0
  9  8  1  0
 10  9  1  0
 11 10  1  0
 11 12  1  0
 12  7  1  0
 13 14  1  0
 15 14  1  0
 15 16  1  0
 16 17  1  0
 18 19  1  0
 18 17  1  0
 19 20  1  0
 21 16  1  0
 21 20  1  0
  3 22  1  0
  5 23  1  0
  7 24  1  0
  8 25  1  0
  8 26  1  0
  9 27  1  0
  9 28  1  0
 10 29  1  0
 10 30  1  0
 11 31  1  0
 11 32  1  0
 12 33  1  0
 12 34  1  0
 14 35  1  0
 14 36  1  0
 15 37  1  0
 15 38  1  0
 17 39  1  0
 17 40  1  0
 18 41  1  0
 18 42  1  0
 19 43  1  0
 19 44  1  0
 20 45  1  0
 20 46  1  0
 21 47  1  0
 21 48  1  0
M  ISO  8  22  14  23  14  24  13  25  13  26  13  27  13  28  13  29  13
M  ISO  8  30  13  31  13  32  13  33  13  34  13  35   8  36   8  37   8
M  ISO  8  38   8  39  13  40  13  41  13  42  13  43  13  44  13  45  13
M  ISO  3  46  13  47  13  48  13
M  END
>  <minimizedAffinity>  (1) 
-5.64360619

>  <minimizedRMSD>  (1) 
2.26834488

$$$$
