
     RDKit          3D

 40 42  0  0  0  0  0  0  0  0999 V2000
   45.9760   34.9230   43.2860 C   0  0  0  0  0  0  0  0  0  0  0  0
   45.7490   34.2200   44.4660 C   0  0  0  0  0  0  0  0  0  0  0  0
   44.9610   34.8510   45.3940 C   0  0  0  0  0  0  0  0  0  0  0  0
   44.4560   36.0880   45.1250 N   0  0  0  0  0  0  0  0  0  0  0  0
   44.6910   36.7340   43.9850 C   0  0  0  0  0  0  0  0  0  0  0  0
   45.4430   36.1400   43.0950 N   0  0  0  0  0  0  0  0  0  0  0  0
   46.8620   34.2360   42.3270 C   0  0  0  0  0  0  0  0  0  0  0  0
   48.2300   34.7290   42.2650 C   0  0  0  0  0  0  0  0  0  0  0  0
   48.5680   35.3760   40.9940 C   0  0  0  0  0  0  0  0  0  0  0  0
   48.3260   34.4540   39.8000 C   0  0  0  0  0  0  0  0  0  0  0  0
   47.0620   33.6870   39.9090 C   0  0  0  0  0  0  0  0  0  0  0  0
   46.1630   34.2520   40.9790 C   0  0  0  0  0  0  0  0  0  0  0  0
   46.1360   33.0380   44.9070 O   0  0  0  0  0  0  0  0  0  0  0  0
   46.6490   32.5810   46.0850 C   0  0  0  0  0  0  0  0  0  0  0  0
   45.7290   32.4870   47.2420 C   0  0  0  0  0  0  0  0  0  0  0  0
   46.0770   31.3790   48.1730 C   0  0  0  0  0  0  0  0  0  0  0  0
   45.1080   30.2020   48.2400 C   0  0  0  0  0  0  0  0  0  0  0  0
   45.4440   31.0930   49.4580 C   0  0  0  0  0  0  0  0  0  0  0  0
   44.7371   34.3603   46.3527 H   0  0  0  0  0  0  0  0  0  0  0  0
   44.2677   37.7320   43.7982 H   0  0  0  0  0  0  0  0  0  0  0  0
   47.0149   33.2059   42.6813 H   0  0  0  0  0  0  0  0  0  0  0  0
   48.3725   35.4596   43.0749 H   0  0  0  0  0  0  0  0  0  0  0  0
   48.8906   33.8552   42.3656 H   0  0  0  0  0  0  0  0  0  0  0  0
   47.9478   36.2771   40.8783 H   0  0  0  0  0  0  0  0  0  0  0  0
   49.6382   35.6295   41.0160 H   0  0  0  0  0  0  0  0  0  0  0  0
   49.1627   33.7433   39.7303 H   0  0  0  0  0  0  0  0  0  0  0  0
   48.2508   35.0877   38.9040 H   0  0  0  0  0  0  0  0  0  0  0  0
   46.5363   33.7255   38.9435 H   0  0  0  0  0  0  0  0  0  0  0  0
   47.3100   32.6499   40.1790 H   0  0  0  0  0  0  0  0  0  0  0  0
   45.9001   35.2883   40.7203 H   0  0  0  0  0  0  0  0  0  0  0  0
   45.2553   33.6339   41.0426 H   0  0  0  0  0  0  0  0  0  0  0  0
   47.0502   31.5735   45.9006 H   0  0  0  0  0  0  0  0  0  0  0  0
   47.3917   33.3374   46.3789 H   0  0  0  0  0  0  0  0  0  0  0  0
   45.7658   33.4359   47.7971 H   0  0  0  0  0  0  0  0  0  0  0  0
   44.7232   32.2812   46.8469 H   0  0  0  0  0  0  0  0  0  0  0  0
   47.1347   31.5599   47.9308 H   0  0  0  0  0  0  0  0  0  0  0  0
   44.1208   30.2629   47.7586 H   0  0  0  0  0  0  0  0  0  0  0  0
   45.1425   29.1278   48.0055 H   0  0  0  0  0  0  0  0  0  0  0  0
   46.0440   30.6859   50.2852 H   0  0  0  0  0  0  0  0  0  0  0  0
   44.8490   31.6796   50.1734 H   0  0  0  0  0  0  0  0  0  0  0  0
  1  2  1  0
  2 13  1  0
  2  3  2  0
  4  3  1  0
  5  4  2  0
  6  1  2  0
  6  5  1  0
  7  1  1  0
  8  7  1  0
  9  8  1  0
 10 11  1  0
 10  9  1  0
 11 12  1  0
 12  7  1  0
 13 14  1  0
 14 15  1  0
 15 16  1  0
 16 17  1  0
 16 18  1  0
 17 18  1  0
  3 19  1  0
  5 20  1  0
  7 21  1  0
  8 22  1  0
  8 23  1  0
  9 24  1  0
  9 25  1  0
 10 26  1  0
 10 27  1  0
 11 28  1  0
 11 29  1  0
 12 30  1  0
 12 31  1  0
 14 32  1  0
 14 33  1  0
 15 34  1  0
 15 35  1  0
 16 36  1  0
 17 37  1  0
 17 38  1  0
 18 39  1  0
 18 40  1  0
M  ISO  8  19  14  20  14  21  13  22  13  23  13  24  13  25  13  26  13
M  ISO  8  27  13  28  13  29  13  30  13  31  13  32   8  33   8  34   8
M  ISO  6  35   8  36  13  37  13  38  13  39  13  40  13
M  END
>  <minimizedAffinity>  (1) 
-5.40151882

>  <minimizedRMSD>  (1) 
1.95265424

$$$$
