
     RDKit          3D

 40 42  0  0  0  0  0  0  0  0999 V2000
   46.1210   34.5720   43.5750 C   0  0  0  0  0  0  0  0  0  0  0  0
   46.1410   33.8000   44.7190 C   0  0  0  0  0  0  0  0  0  0  0  0
   45.3440   34.1930   45.7590 C   0  0  0  0  0  0  0  0  0  0  0  0
   44.5690   35.3330   45.6070 N   0  0  0  0  0  0  0  0  0  0  0  0
   44.5620   36.0640   44.4980 C   0  0  0  0  0  0  0  0  0  0  0  0
   45.3370   35.6680   43.5050 N   0  0  0  0  0  0  0  0  0  0  0  0
   47.0200   34.1330   42.5040 C   0  0  0  0  0  0  0  0  0  0  0  0
   48.3670   34.6710   42.5510 C   0  0  0  0  0  0  0  0  0  0  0  0
   48.6830   35.5610   41.4190 C   0  0  0  0  0  0  0  0  0  0  0  0
   48.4930   34.8430   40.0920 C   0  0  0  0  0  0  0  0  0  0  0  0
   47.2310   34.0560   40.0310 C   0  0  0  0  0  0  0  0  0  0  0  0
   46.3100   34.3940   41.1800 C   0  0  0  0  0  0  0  0  0  0  0  0
   46.7880   32.7080   45.0670 O   0  0  0  0  0  0  0  0  0  0  0  0
   46.9720   31.9560   46.1810 C   0  0  0  0  0  0  0  0  0  0  0  0
   46.0440   30.7660   46.3070 C   0  0  0  0  0  0  0  0  0  0  0  0
   46.6060   29.5410   46.7520 C   0  0  0  0  0  0  0  0  0  0  0  0
   46.2080   28.2630   46.9550 C   0  0  0  0  0  0  0  0  0  0  0  0
   47.0250   27.2840   47.4100 C   0  0  0  0  0  0  0  0  0  0  0  0
   48.3740   27.6880   47.6700 C   0  0  0  0  0  0  0  0  0  0  0  0
   48.4070   29.4850   47.2450 S   0  0  0  0  0  0  0  0  0  0  0  0
   45.3184   33.6171   46.6959 H   0  0  0  0  0  0  0  0  0  0  0  0
   43.9353   36.9638   44.4103 H   0  0  0  0  0  0  0  0  0  0  0  0
   47.2127   33.0584   42.6383 H   0  0  0  0  0  0  0  0  0  0  0  0
   48.4823   35.2407   43.4849 H   0  0  0  0  0  0  0  0  0  0  0  0
   49.0590   33.8178   42.4956 H   0  0  0  0  0  0  0  0  0  0  0  0
   48.0177   36.4363   41.4529 H   0  0  0  0  0  0  0  0  0  0  0  0
   49.7346   35.8730   41.5013 H   0  0  0  0  0  0  0  0  0  0  0  0
   48.4777   35.5926   39.2871 H   0  0  0  0  0  0  0  0  0  0  0  0
   49.3275   34.1353   39.9788 H   0  0  0  0  0  0  0  0  0  0  0  0
   46.7171   34.2779   39.0841 H   0  0  0  0  0  0  0  0  0  0  0  0
   47.4872   32.9883   40.0974 H   0  0  0  0  0  0  0  0  0  0  0  0
   46.0261   35.4551   41.1207 H   0  0  0  0  0  0  0  0  0  0  0  0
   45.4090   33.7658   41.1206 H   0  0  0  0  0  0  0  0  0  0  0  0
   48.0069   31.5832   46.1746 H   0  0  0  0  0  0  0  0  0  0  0  0
   46.7509   32.6117   47.0360 H   0  0  0  0  0  0  0  0  0  0  0  0
   45.2498   31.0412   47.0166 H   0  0  0  0  0  0  0  0  0  0  0  0
   45.7074   30.5631   45.2796 H   0  0  0  0  0  0  0  0  0  0  0  0
   45.1609   28.0053   46.7378 H   0  0  0  0  0  0  0  0  0  0  0  0
   46.6775   26.2524   47.5686 H   0  0  0  0  0  0  0  0  0  0  0  0
   49.2038   27.0677   48.0396 H   0  0  0  0  0  0  0  0  0  0  0  0
  1  2  1  0
  2 13  1  0
  2  3  2  0
  4  3  1  0
  5  4  2  0
  6  1  2  0
  6  5  1  0
  7  8  1  0
  7  1  1  0
  9  8  1  0
 10  9  1  0
 11 10  1  0
 11 12  1  0
 12  7  1  0
 13 14  1  0
 14 15  1  0
 15 16  1  0
 16 17  2  0
 16 20  1  0
 17 18  1  0
 18 19  2  0
 20 19  1  0
  3 21  1  0
  5 22  1  0
  7 23  1  0
  8 24  1  0
  8 25  1  0
  9 26  1  0
  9 27  1  0
 10 28  1  0
 10 29  1  0
 11 30  1  0
 11 31  1  0
 12 32  1  0
 12 33  1  0
 14 34  1  0
 14 35  1  0
 15 36  1  0
 15 37  1  0
 17 38  1  0
 18 39  1  0
 19 40  1  0
M  ISO  8  21  14  22  14  23  13  24  13  25  13  26  13  27  13  28  13
M  ISO  8  29  13  30  13  31  13  32  13  33  13  34   8  35   8  36   8
M  ISO  4  37   8  38  14  39  14  40  14
M  END
>  <minimizedAffinity>  (1) 
-5.25317717

>  <minimizedRMSD>  (1) 
1.65496624

$$$$
