
     RDKit          3D

 40 41  0  0  0  0  0  0  0  0999 V2000
   46.0600   34.5810   43.5840 C   0  0  0  0  0  0  0  0  0  0  0  0
   46.0300   33.8100   44.7340 C   0  0  0  0  0  0  0  0  0  0  0  0
   45.2360   34.2480   45.7580 C   0  0  0  0  0  0  0  0  0  0  0  0
   44.5190   35.4070   45.6000 N   0  0  0  0  0  0  0  0  0  0  0  0
   44.5540   36.1370   44.4920 C   0  0  0  0  0  0  0  0  0  0  0  0
   45.3220   35.7090   43.5140 N   0  0  0  0  0  0  0  0  0  0  0  0
   46.9510   34.1040   42.5260 C   0  0  0  0  0  0  0  0  0  0  0  0
   48.3090   34.6190   42.5560 C   0  0  0  0  0  0  0  0  0  0  0  0
   48.6530   35.4870   41.4360 C   0  0  0  0  0  0  0  0  0  0  0  0
   48.4250   34.7820   40.0980 C   0  0  0  0  0  0  0  0  0  0  0  0
   47.1520   33.9990   40.0510 C   0  0  0  0  0  0  0  0  0  0  0  0
   46.2500   34.3560   41.1990 C   0  0  0  0  0  0  0  0  0  0  0  0
   46.6340   32.6850   45.0760 O   0  0  0  0  0  0  0  0  0  0  0  0
   47.1470   32.1780   46.2350 C   0  0  0  0  0  0  0  0  0  0  0  0
   46.8180   30.7240   46.5000 C   0  0  0  0  0  0  0  0  0  0  0  0
   48.0870   30.0290   46.8280 C   0  0  0  0  0  0  0  0  0  0  0  0
   48.7450   30.0030   47.9750 C   0  0  0  0  0  0  0  0  0  0  0  0
   48.2860   30.7130   49.1960 C   0  0  0  0  0  0  0  0  0  0  0  0
   45.1731   33.6780   46.6967 H   0  0  0  0  0  0  0  0  0  0  0  0
   43.9653   37.0612   44.3958 H   0  0  0  0  0  0  0  0  0  0  0  0
   47.1221   33.0297   42.6888 H   0  0  0  0  0  0  0  0  0  0  0  0
   48.4386   35.1914   43.4863 H   0  0  0  0  0  0  0  0  0  0  0  0
   48.9753   33.7462   42.4906 H   0  0  0  0  0  0  0  0  0  0  0  0
   48.0265   36.3902   41.4767 H   0  0  0  0  0  0  0  0  0  0  0  0
   49.7184   35.7494   41.5138 H   0  0  0  0  0  0  0  0  0  0  0  0
   48.3969   35.5420   39.3033 H   0  0  0  0  0  0  0  0  0  0  0  0
   49.2512   34.0689   39.9607 H   0  0  0  0  0  0  0  0  0  0  0  0
   46.6324   34.2157   39.1060 H   0  0  0  0  0  0  0  0  0  0  0  0
   47.3988   32.9294   40.1223 H   0  0  0  0  0  0  0  0  0  0  0  0
   45.9789   35.4198   41.1291 H   0  0  0  0  0  0  0  0  0  0  0  0
   45.3466   33.7304   41.1495 H   0  0  0  0  0  0  0  0  0  0  0  0
   48.2417   32.2782   46.1959 H   0  0  0  0  0  0  0  0  0  0  0  0
   46.6841   32.7511   47.0519 H   0  0  0  0  0  0  0  0  0  0  0  0
   46.1183   30.6459   47.3452 H   0  0  0  0  0  0  0  0  0  0  0  0
   46.3450   30.2681   45.6177 H   0  0  0  0  0  0  0  0  0  0  0  0
   48.5425   29.4578   46.0056 H   0  0  0  0  0  0  0  0  0  0  0  0
   49.6801   29.4260   48.0273 H   0  0  0  0  0  0  0  0  0  0  0  0
   48.6356   30.1722   50.0878 H   0  0  0  0  0  0  0  0  0  0  0  0
   48.6955   31.7339   49.2023 H   0  0  0  0  0  0  0  0  0  0  0  0
   47.1870   30.7587   49.2023 H   0  0  0  0  0  0  0  0  0  0  0  0
  1  2  2  0
  2 13  1  0
  2  3  1  0
  4  3  2  0
  5  4  1  0
  6  1  1  0
  6  5  2  0
  7  8  1  0
  7  1  1  0
  9  8  1  0
 10  9  1  0
 11 10  1  0
 11 12  1  0
 12  7  1  0
 13 14  1  0
 14 15  1  0
 15 16  1  0
 16 17  2  0
 17 18  1  0
  3 19  1  0
  5 20  1  0
  7 21  1  0
  8 22  1  0
  8 23  1  0
  9 24  1  0
  9 25  1  0
 10 26  1  0
 10 27  1  0
 11 28  1  0
 11 29  1  0
 12 30  1  0
 12 31  1  0
 14 32  1  0
 14 33  1  0
 15 34  1  0
 15 35  1  0
 16 36  1  0
 17 37  1  0
 18 38  1  0
 18 39  1  0
 18 40  1  0
M  ISO  8  19  14  20  14  21  13  22  13  23  13  24  13  25  13  26  13
M  ISO  8  27  13  28  13  29  13  30  13  31  13  32   8  33   8  34   8
M  ISO  4  35   8  38   8  39   8  40   8
M  END
>  <minimizedAffinity>  (1) 
-5.19277382

>  <minimizedRMSD>  (1) 
1.63338542

$$$$
