
     RDKit          3D

 32 33  0  0  1  0  0  0  0  0999 V2000
   46.9810   34.1870   41.8690 C   0  0  1  0  0  0  0  0  0  0  0  0
   46.1220   33.9730   40.6520 C   0  0  0  0  0  0  0  0  0  0  0  0
   47.0440   33.3650   39.6110 C   0  0  0  0  0  0  0  0  0  0  0  0
   48.0140   34.4360   39.1920 C   0  0  0  0  0  0  0  0  0  0  0  0
   48.7410   35.0840   40.3160 C   0  0  0  0  0  0  0  0  0  0  0  0
   48.0180   35.2460   41.6000 C   0  0  2  0  0  0  0  0  0  0  0  0
   44.6950   36.0330   44.2870 C   0  0  0  0  0  0  0  0  0  0  0  0
   45.4120   35.7300   43.1330 C   0  0  0  0  0  0  0  0  0  0  0  0
   46.1990   34.5640   43.0600 C   0  0  0  0  0  0  0  0  0  0  0  0
   46.2100   33.7740   44.1670 N   0  0  0  0  0  0  0  0  0  0  0  0
   45.5100   34.0860   45.2750 C   0  0  0  0  0  0  0  0  0  0  0  0
   44.7530   35.2070   45.3450 N   0  0  0  0  0  0  0  0  0  0  0  0
   49.0210   35.1720   42.7300 C   0  0  0  0  0  0  0  0  0  0  0  0
   50.0870   34.1500   42.4230 C   0  0  0  0  0  0  0  0  0  0  0  0
   47.4682   33.2237   42.0803 H   0  0  0  0  0  0  0  0  0  0  0  0
   45.2939   33.2861   40.8811 H   0  0  0  0  0  0  0  0  0  0  0  0
   45.6695   34.9118   40.2999 H   0  0  0  0  0  0  0  0  0  0  0  0
   47.5883   32.5121   40.0425 H   0  0  0  0  0  0  0  0  0  0  0  0
   46.4690   33.0008   38.7469 H   0  0  0  0  0  0  0  0  0  0  0  0
   48.7564   33.9828   38.5186 H   0  0  0  0  0  0  0  0  0  0  0  0
   47.4192   35.2248   38.7082 H   0  0  0  0  0  0  0  0  0  0  0  0
   49.6388   34.4813   40.5179 H   0  0  0  0  0  0  0  0  0  0  0  0
   48.9294   36.1113   39.9707 H   0  0  0  0  0  0  0  0  0  0  0  0
   47.4987   36.2134   41.5333 H   0  0  0  0  0  0  0  0  0  0  0  0
   44.0829   36.9458   44.3325 H   0  0  0  0  0  0  0  0  0  0  0  0
   45.3635   36.4085   42.2686 H   0  0  0  0  0  0  0  0  0  0  0  0
   45.5543   33.4136   46.1445 H   0  0  0  0  0  0  0  0  0  0  0  0
   49.4914   36.1576   42.8618 H   0  0  0  0  0  0  0  0  0  0  0  0
   48.4982   34.8755   43.6513 H   0  0  0  0  0  0  0  0  0  0  0  0
   50.4985   33.7555   43.3638 H   0  0  0  0  0  0  0  0  0  0  0  0
   49.6484   33.3263   41.8407 H   0  0  0  0  0  0  0  0  0  0  0  0
   50.8915   34.6229   41.8407 H   0  0  0  0  0  0  0  0  0  0  0  0
  1  9  1  0
  2  1  1  0
  3  2  1  0
  4  3  1  0
  4  5  1  0
  5  6  1  0
  6  1  1  0
  6 13  1  0
  7 12  2  0
  8  7  1  0
  9  8  2  0
  9 10  1  0
 10 11  2  0
 11 12  1  0
 14 13  1  0
  1 15  1  1
  2 16  1  0
  2 17  1  0
  3 18  1  0
  3 19  1  0
  4 20  1  0
  4 21  1  0
  5 22  1  0
  5 23  1  0
  6 24  1  6
  7 25  1  0
  8 26  1  0
 11 27  1  0
 13 28  1  0
 13 29  1  0
 14 30  1  0
 14 31  1  0
 14 32  1  0
M  ISO  8  15  13  16  13  17  13  18  13  19  13  20  13  21  13  22  13
M  ISO  8  23  13  24  13  25  14  26  14  27  14  28   8  29   8  30   8
M  ISO  2  31   8  32   8
M  END
>  <minimizedAffinity>  (1) 
-5.02865171

>  <minimizedRMSD>  (1) 
0.68051976

$$$$
