
     RDKit          3D

 51 53  0  0  0  0  0  0  0  0999 V2000
   46.1720   34.5730   43.6040 C   0  0  0  0  0  0  0  0  0  0  0  0
   46.1740   33.8050   44.7420 C   0  0  0  0  0  0  0  0  0  0  0  0
   45.3420   34.1790   45.7540 C   0  0  0  0  0  0  0  0  0  0  0  0
   44.5570   35.2860   45.5940 N   0  0  0  0  0  0  0  0  0  0  0  0
   44.5560   36.0210   44.5040 C   0  0  0  0  0  0  0  0  0  0  0  0
   45.3640   35.6510   43.5270 N   0  0  0  0  0  0  0  0  0  0  0  0
   47.0110   34.1170   42.4880 C   0  0  0  0  0  0  0  0  0  0  0  0
   48.3970   34.6890   42.5740 C   0  0  0  0  0  0  0  0  0  0  0  0
   48.7060   35.5780   41.4520 C   0  0  0  0  0  0  0  0  0  0  0  0
   48.5080   34.8910   40.1160 C   0  0  0  0  0  0  0  0  0  0  0  0
   47.2600   34.1040   40.0340 C   0  0  0  0  0  0  0  0  0  0  0  0
   46.3310   34.3910   41.1940 C   0  0  0  0  0  0  0  0  0  0  0  0
   46.8580   32.7220   45.0780 O   0  0  0  0  0  0  0  0  0  0  0  0
   47.2890   32.1770   46.2650 C   0  0  0  0  0  0  0  0  0  0  0  0
   47.1810   30.6670   46.3270 C   0  0  0  0  0  0  0  0  0  0  0  0
   46.0370   30.1530   45.6070 N   0  0  0  0  0  0  0  0  0  0  0  0
   44.8280   29.7280   46.7900 S   0  0  0  0  0  0  0  0  0  0  0  0
   43.6220   29.1280   46.1340 O   0  0  0  0  0  0  0  0  0  0  0  0
   44.4640   30.9810   47.5190 O   0  0  0  0  0  0  0  0  0  0  0  0
   45.4620   28.6510   47.9080 O   0  0  0  0  0  0  0  0  0  0  0  0
   45.3540   27.2950   47.6960 C   0  0  0  0  0  0  0  0  0  0  0  0
   44.4280   26.5300   48.3750 C   0  0  0  0  0  0  0  0  0  0  0  0
   44.2710   25.1840   48.2100 C   0  0  0  0  0  0  0  0  0  0  0  0
   45.1180   24.6160   47.2950 C   0  0  0  0  0  0  0  0  0  0  0  0
   46.0880   25.2810   46.5520 C   0  0  0  0  0  0  0  0  0  0  0  0
   46.1790   26.6540   46.7840 C   0  0  0  0  0  0  0  0  0  0  0  0
   45.3027   33.5978   46.6871 H   0  0  0  0  0  0  0  0  0  0  0  0
   43.9099   36.9062   44.4097 H   0  0  0  0  0  0  0  0  0  0  0  0
   47.1425   33.0269   42.5540 H   0  0  0  0  0  0  0  0  0  0  0  0
   48.4863   35.2587   43.5107 H   0  0  0  0  0  0  0  0  0  0  0  0
   49.1079   33.8502   42.5422 H   0  0  0  0  0  0  0  0  0  0  0  0
   48.0455   36.4562   41.5017 H   0  0  0  0  0  0  0  0  0  0  0  0
   49.7630   35.8720   41.5309 H   0  0  0  0  0  0  0  0  0  0  0  0
   48.4865   35.6598   39.3296 H   0  0  0  0  0  0  0  0  0  0  0  0
   49.3427   34.1858   39.9894 H   0  0  0  0  0  0  0  0  0  0  0  0
   46.7437   34.3539   39.0954 H   0  0  0  0  0  0  0  0  0  0  0  0
   47.5280   33.0377   40.0693 H   0  0  0  0  0  0  0  0  0  0  0  0
   46.0276   35.4478   41.1615 H   0  0  0  0  0  0  0  0  0  0  0  0
   45.4485   33.7396   41.1117 H   0  0  0  0  0  0  0  0  0  0  0  0
   48.3436   32.4542   46.4098 H   0  0  0  0  0  0  0  0  0  0  0  0
   46.6333   32.5748   47.0536 H   0  0  0  0  0  0  0  0  0  0  0  0
   48.0932   30.2321   45.8925 H   0  0  0  0  0  0  0  0  0  0  0  0
   47.0571   30.3888   47.3840 H   0  0  0  0  0  0  0  0  0  0  0  0
   45.6687   30.8736   44.9698 H   0  0  0  0  0  0  0  0  0  0  0  0
   42.9905   28.8138   46.8287 H   0  0  0  0  0  0  0  0  0  0  0  0
   44.5106   30.8205   48.4948 H   0  0  0  0  0  0  0  0  0  0  0  0
   43.7726   27.0386   49.0974 H   0  0  0  0  0  0  0  0  0  0  0  0
   43.5232   24.6012   48.7678 H   0  0  0  0  0  0  0  0  0  0  0  0
   45.0220   23.5323   47.1327 H   0  0  0  0  0  0  0  0  0  0  0  0
   46.7375   24.7612   45.8323 H   0  0  0  0  0  0  0  0  0  0  0  0
   46.9242   27.2430   46.2293 H   0  0  0  0  0  0  0  0  0  0  0  0
  1  2  1  0
  2 13  1  0
  2  3  2  0
  4  3  1  0
  5  4  2  0
  6  1  2  0
  6  5  1  0
  7  8  1  0
  7  1  1  0
  9  8  1  0
 10  9  1  0
 11 10  1  0
 11 12  1  0
 12  7  1  0
 13 14  1  0
 14 15  1  0
 16 15  1  0
 16 17  1  0
 17 19  1  0
 17 20  1  0
 18 17  1  0
 21 20  1  0
 21 22  2  0
 23 22  1  0
 24 23  2  0
 25 26  2  0
 25 24  1  0
 26 21  1  0
  3 27  1  0
  5 28  1  0
  7 29  1  0
  8 30  1  0
  8 31  1  0
  9 32  1  0
  9 33  1  0
 10 34  1  0
 10 35  1  0
 11 36  1  0
 11 37  1  0
 12 38  1  0
 12 39  1  0
 14 40  1  0
 14 41  1  0
 15 42  1  0
 15 43  1  0
 16 44  1  0
 18 45  1  0
 19 46  1  0
 22 47  1  0
 23 48  1  0
 24 49  1  0
 25 50  1  0
 26 51  1  0
M  ISO  8  27  14  28  14  29  13  30  13  31  13  32  13  33  13  34  13
M  ISO  8  35  13  36  13  37  13  38  13  39  13  40   8  41   8  42   8
M  ISO  8  43   8  44   5  45   3  46   3  47  14  48  14  49  14  50  14
M  ISO  1  51  14
M  END
>  <minimizedAffinity>  (1) 
-5.72602701

>  <minimizedRMSD>  (1) 
0.939275146

$$$$
