
     RDKit          3D

 30 31  0  0  1  0  0  0  0  0999 V2000
   46.8730   34.1420   42.0200 C   0  0  1  0  0  0  0  0  0  0  0  0
   46.0130   34.1340   40.7910 C   0  0  0  0  0  0  0  0  0  0  0  0
   46.8860   33.5400   39.6890 C   0  0  0  0  0  0  0  0  0  0  0  0
   47.9410   34.5740   39.3730 C   0  0  0  0  0  0  0  0  0  0  0  0
   48.7610   34.9110   40.5590 C   0  0  0  0  0  0  0  0  0  0  0  0
   48.0260   35.1070   41.8310 C   0  0  2  0  0  0  0  0  0  0  0  0
   44.6110   35.9250   44.5020 C   0  0  0  0  0  0  0  0  0  0  0  0
   45.2880   35.6410   43.3180 C   0  0  0  0  0  0  0  0  0  0  0  0
   46.1240   34.5110   43.2340 C   0  0  0  0  0  0  0  0  0  0  0  0
   46.2230   33.7420   44.3490 N   0  0  0  0  0  0  0  0  0  0  0  0
   45.5600   34.0330   45.4880 C   0  0  0  0  0  0  0  0  0  0  0  0
   44.7630   35.1050   45.5800 N   0  0  0  0  0  0  0  0  0  0  0  0
   49.9130   33.7610   42.8400 C   0  0  0  0  0  0  0  0  0  0  0  0
   50.0060   33.0440   41.8030 O   0  0  0  0  0  0  0  0  0  0  0  0
   48.9510   34.8090   42.9280 N   0  0  0  0  0  0  0  0  0  0  0  0
   47.2460   33.1166   42.1596 H   0  0  0  0  0  0  0  0  0  0  0  0
   45.1193   33.5129   40.9507 H   0  0  0  0  0  0  0  0  0  0  0  0
   45.6589   35.1430   40.5330 H   0  0  0  0  0  0  0  0  0  0  0  0
   47.3581   32.6099   40.0382 H   0  0  0  0  0  0  0  0  0  0  0  0
   46.2896   33.2952   38.7977 H   0  0  0  0  0  0  0  0  0  0  0  0
   48.6004   34.1794   38.5860 H   0  0  0  0  0  0  0  0  0  0  0  0
   47.4301   35.4902   39.0420 H   0  0  0  0  0  0  0  0  0  0  0  0
   49.4821   34.0944   40.7110 H   0  0  0  0  0  0  0  0  0  0  0  0
   49.2192   35.8849   40.3318 H   0  0  0  0  0  0  0  0  0  0  0  0
   47.6384   36.1363   41.8151 H   0  0  0  0  0  0  0  0  0  0  0  0
   43.9568   36.8070   44.5665 H   0  0  0  0  0  0  0  0  0  0  0  0
   45.1692   36.3013   42.4463 H   0  0  0  0  0  0  0  0  0  0  0  0
   45.6771   33.3742   46.3611 H   0  0  0  0  0  0  0  0  0  0  0  0
   50.5863   33.5728   43.6893 H   0  0  0  0  0  0  0  0  0  0  0  0
   48.9045   35.3737   43.7882 H   0  0  0  0  0  0  0  0  0  0  0  0
  1  9  1  0
  2  1  1  0
  3  2  1  0
  4  3  1  0
  4  5  1  0
  5  6  1  0
  6  1  1  0
  6 15  1  0
  7 12  2  0
  8  7  1  0
  9  8  2  0
  9 10  1  0
 10 11  2  0
 11 12  1  0
 13 15  1  0
 14 13  2  0
  1 16  1  1
  2 17  1  0
  2 18  1  0
  3 19  1  0
  3 20  1  0
  4 21  1  0
  4 22  1  0
  5 23  1  0
  5 24  1  0
  6 25  1  1
  7 26  1  0
  8 27  1  0
 11 28  1  0
 13 29  1  0
 15 30  1  0
M  ISO  8  16  13  17  13  18  13  19  13  20  13  21  13  22  13  23  13
M  ISO  6  24  13  25  13  26  14  27  14  28  14  29   6
M  END
>  <minimizedAffinity>  (1) 
-4.88583994

>  <minimizedRMSD>  (1) 
0.386216849

$$$$
