
     RDKit          3D

 37 40  0  0  1  0  0  0  0  0999 V2000
   44.8280   33.1610   41.1090 Cl  0  0  0  0  0  0  0  0  0  0  0  0
   46.3560   33.9960   40.9290 C   0  0  0  0  0  0  0  0  0  0  0  0
   46.8670   34.7090   41.9630 C   0  0  0  0  0  0  0  0  0  0  0  0
   48.0810   35.3830   41.8440 C   0  0  0  0  0  0  0  0  0  0  0  0
   48.7200   35.2820   40.6350 C   0  0  0  0  0  0  0  0  0  0  0  0
   48.1960   34.5540   39.5860 C   0  0  0  0  0  0  0  0  0  0  0  0
   47.0100   33.9060   39.7250 C   0  0  0  0  0  0  0  0  0  0  0  0
   45.6790   33.9250   45.3620 C   0  0  0  0  0  0  0  0  0  0  0  0
   44.7650   34.9480   45.6060 C   0  0  0  0  0  0  0  0  0  0  0  0
   44.5570   35.8950   44.6180 C   0  0  0  0  0  0  0  0  0  0  0  0
   45.2540   35.7830   43.4560 N   0  0  0  0  0  0  0  0  0  0  0  0
   46.1390   34.7840   43.2370 C   0  0  0  0  0  0  0  0  0  0  0  0
   46.3580   33.8430   44.1920 N   0  0  0  0  0  0  0  0  0  0  0  0
   46.4260   33.1290   38.6420 C   0  0  0  0  0  0  0  0  0  0  0  0
   45.1790   33.1860   38.1720 N   0  0  0  0  0  0  0  0  0  0  0  0
   45.0600   32.2900   37.1580 C   0  0  0  0  0  0  0  0  0  0  0  0
   46.2440   31.6730   37.0000 N   0  0  0  0  0  0  0  0  0  0  0  0
   47.0640   32.1890   37.9020 N   0  0  0  0  0  0  0  0  0  0  0  0
   46.5000   30.6500   36.0080 C   0  0  2  0  0  0  0  0  0  0  0  0
   47.2980   31.2200   34.8310 C   0  0  0  0  0  0  0  0  0  0  0  0
   46.8960   30.2790   33.7350 C   0  0  0  0  0  0  0  0  0  0  0  0
   45.6700   29.7390   34.0370 O   0  0  0  0  0  0  0  0  0  0  0  0
   45.2510   30.2150   35.2690 C   0  0  0  0  0  0  0  0  0  0  0  0
   48.5042   35.9652   42.6759 H   0  0  0  0  0  0  0  0  0  0  0  0
   49.6816   35.7980   40.4967 H   0  0  0  0  0  0  0  0  0  0  0  0
   48.7415   34.4982   38.6324 H   0  0  0  0  0  0  0  0  0  0  0  0
   45.8537   33.1653   46.1381 H   0  0  0  0  0  0  0  0  0  0  0  0
   44.2217   35.0018   46.5609 H   0  0  0  0  0  0  0  0  0  0  0  0
   43.8443   36.7191   44.7695 H   0  0  0  0  0  0  0  0  0  0  0  0
   44.1512   32.1016   36.5676 H   0  0  0  0  0  0  0  0  0  0  0  0
   46.9858   29.8495   36.5853 H   0  0  0  0  0  0  0  0  0  0  0  0
   47.0017   32.2549   34.6047 H   0  0  0  0  0  0  0  0  0  0  0  0
   48.3827   31.2803   35.0036 H   0  0  0  0  0  0  0  0  0  0  0  0
   47.6416   29.4751   33.6471 H   0  0  0  0  0  0  0  0  0  0  0  0
   46.8377   30.8230   32.7807 H   0  0  0  0  0  0  0  0  0  0  0  0
   44.5712   31.0694   35.1354 H   0  0  0  0  0  0  0  0  0  0  0  0
   44.7051   29.4421   35.8300 H   0  0  0  0  0  0  0  0  0  0  0  0
  2  1  1  0
  2  3  2  0
  3 12  1  0
  4  3  1  0
  5  4  2  0
  6  7  2  0
  6  5  1  0
  7  2  1  0
  8  9  2  0
 10  9  1  0
 11 10  2  0
 12 11  1  0
 12 13  2  0
 13  8  1  0
 14  7  1  0
 15 14  1  0
 16 15  2  0
 17 16  1  0
 17 18  1  0
 18 14  2  0
 19 17  1  0
 20 19  1  0
 21 22  1  0
 21 20  1  0
 22 23  1  0
 23 19  1  0
  4 24  1  0
  5 25  1  0
  6 26  1  0
  8 27  1  0
  9 28  1  0
 10 29  1  0
 16 30  1  0
 19 31  1  1
 20 32  1  0
 20 33  1  0
 21 34  1  0
 21 35  1  0
 23 36  1  0
 23 37  1  0
M  ISO  8  24  14  25  14  26  14  27  14  28  14  29  14  30  14  31  13
M  ISO  6  32  13  33  13  34  13  35  13  36  13  37  13
M  END
>  <minimizedAffinity>  (1) 
-5.76232815

>  <minimizedRMSD>  (1) 
1.74229825

$$$$
