
     RDKit          3D

 11 11  0  0  0  0  0  0  0  0999 V2000
   44.6700   36.0680   44.2510 C   0  0  0  0  0  0  0  0  0  0  0  0
   45.4970   35.5620   43.2280 C   0  0  0  0  0  0  0  0  0  0  0  0
   46.1930   34.3690   43.4980 C   0  0  0  0  0  0  0  0  0  0  0  0
   46.0270   33.7880   44.7120 N   0  0  0  0  0  0  0  0  0  0  0  0
   45.2270   34.3040   45.6630 C   0  0  0  0  0  0  0  0  0  0  0  0
   44.5560   35.4380   45.4260 N   0  0  0  0  0  0  0  0  0  0  0  0
   45.0460   33.7200   46.9120 O   0  0  0  0  0  0  0  0  0  0  0  0
   44.1079   36.9980   44.0803 H   0  0  0  0  0  0  0  0  0  0  0  0
   45.5942   36.0770   42.2609 H   0  0  0  0  0  0  0  0  0  0  0  0
   46.8549   33.9192   42.7433 H   0  0  0  0  0  0  0  0  0  0  0  0
   44.4444   34.1439   47.5742 H   0  0  0  0  0  0  0  0  0  0  0  0
  1  6  2  0
  2  3  2  0
  2  1  1  0
  3  4  1  0
  4  5  2  0
  5  7  1  0
  6  5  1  0
  1  8  1  0
  2  9  1  0
  3 10  1  0
  7 11  1  0
M  ISO  4   8  14   9  14  10  14  11   3
M  END
>  <minimizedAffinity>  (1) 
-3.27086639

>  <minimizedRMSD>  (1) 
0.246476799

$$$$
