
     RDKit          3D

 35 38  0  0  0  0  0  0  0  0999 V2000
   48.9560   35.5900   41.1270 C   0  0  0  0  0  0  0  0  0  0  0  0
   48.4840   35.0360   39.9190 C   0  0  0  0  0  0  0  0  0  0  0  0
   47.4160   34.1330   39.9740 C   0  0  0  0  0  0  0  0  0  0  0  0
   46.9010   33.8440   41.1840 N   0  0  0  0  0  0  0  0  0  0  0  0
   47.3670   34.3840   42.3350 C   0  0  0  0  0  0  0  0  0  0  0  0
   48.4050   35.2680   42.3170 N   0  0  0  0  0  0  0  0  0  0  0  0
   46.8310   33.4870   38.8080 C   0  0  0  0  0  0  0  0  0  0  0  0
   45.5300   33.0790   38.8920 C   0  0  0  0  0  0  0  0  0  0  0  0
   44.8920   32.4550   37.8220 C   0  0  0  0  0  0  0  0  0  0  0  0
   45.5710   32.2270   36.6280 C   0  0  0  0  0  0  0  0  0  0  0  0
   45.0350   31.6340   35.5510 N   0  0  0  0  0  0  0  0  0  0  0  0
   45.6900   31.4230   34.4170 C   0  0  0  0  0  0  0  0  0  0  0  0
   47.0010   31.8420   34.3530 C   0  0  0  0  0  0  0  0  0  0  0  0
   47.6080   32.4580   35.4270 C   0  0  0  0  0  0  0  0  0  0  0  0
   46.8710   32.6530   36.5910 C   0  0  0  0  0  0  0  0  0  0  0  0
   47.5100   33.2670   37.6300 C   0  0  0  0  0  0  0  0  0  0  0  0
   45.0570   36.0980   43.3140 Cl  0  0  0  0  0  0  0  0  0  0  0  0
   45.7440   34.7510   44.1630 C   0  0  0  0  0  0  0  0  0  0  0  0
   46.7870   34.0490   43.6210 C   0  0  0  0  0  0  0  0  0  0  0  0
   47.2530   32.9970   44.3860 C   0  0  0  0  0  0  0  0  0  0  0  0
   46.7640   32.6110   45.6140 C   0  0  0  0  0  0  0  0  0  0  0  0
   45.7140   33.3440   46.1210 C   0  0  0  0  0  0  0  0  0  0  0  0
   45.0990   32.8470   47.6870 Cl  0  0  0  0  0  0  0  0  0  0  0  0
   45.2020   34.4110   45.4050 C   0  0  0  0  0  0  0  0  0  0  0  0
   49.7939   36.3022   41.0991 H   0  0  0  0  0  0  0  0  0  0  0  0
   48.9439   35.3069   38.9572 H   0  0  0  0  0  0  0  0  0  0  0  0
   44.9733   33.2469   39.8258 H   0  0  0  0  0  0  0  0  0  0  0  0
   43.8428   32.1398   37.9214 H   0  0  0  0  0  0  0  0  0  0  0  0
   45.2050   30.9322   33.5603 H   0  0  0  0  0  0  0  0  0  0  0  0
   47.5742   31.6821   33.4278 H   0  0  0  0  0  0  0  0  0  0  0  0
   48.6552   32.7890   35.3647 H   0  0  0  0  0  0  0  0  0  0  0  0
   48.5585   33.5833   37.5270 H   0  0  0  0  0  0  0  0  0  0  0  0
   48.0914   32.4145   43.9765 H   0  0  0  0  0  0  0  0  0  0  0  0
   47.1911   31.7589   46.1632 H   0  0  0  0  0  0  0  0  0  0  0  0
   44.3645   34.9943   45.8152 H   0  0  0  0  0  0  0  0  0  0  0  0
  1  6  2  0
  2  3  2  0
  2  1  1  0
  3  4  1  0
  4  5  2  0
  5 19  1  0
  6  5  1  0
  7  8  2  0
  7  3  1  0
  9  8  1  0
 10  9  2  0
 11 10  1  0
 12 11  2  0
 13 12  1  0
 13 14  2  0
 14 15  1  0
 15 10  1  0
 15 16  2  0
 16  7  1  0
 17 18  1  0
 18 24  2  0
 19 18  1  0
 19 20  2  0
 20 21  1  0
 21 22  2  0
 22 23  1  0
 24 22  1  0
  1 25  1  0
  2 26  1  0
  8 27  1  0
  9 28  1  0
 12 29  1  0
 13 30  1  0
 14 31  1  0
 16 32  1  0
 20 33  1  0
 21 34  1  0
 24 35  1  0
M  ISO  8  25  14  26  14  27  14  28  14  29  14  30  14  31  14  32  14
M  ISO  3  33  14  34  14  35  14
M  END
>  <minimizedAffinity>  (1) 
-6.22831583

>  <minimizedRMSD>  (1) 
0.885816336

$$$$
