
     RDKit          3D

 28 30  0  0  0  0  0  0  0  0999 V2000
   48.8900   35.5220   41.3110 C   0  0  0  0  0  0  0  0  0  0  0  0
   48.4030   35.0120   40.1120 C   0  0  0  0  0  0  0  0  0  0  0  0
   47.3220   34.1190   40.1680 C   0  0  0  0  0  0  0  0  0  0  0  0
   46.8070   33.7970   41.3690 N   0  0  0  0  0  0  0  0  0  0  0  0
   47.2960   34.3060   42.5260 C   0  0  0  0  0  0  0  0  0  0  0  0
   48.3470   35.1760   42.4980 N   0  0  0  0  0  0  0  0  0  0  0  0
   45.0350   36.0380   43.5730 Cl  0  0  0  0  0  0  0  0  0  0  0  0
   45.7180   34.6650   44.3870 C   0  0  0  0  0  0  0  0  0  0  0  0
   46.7380   33.9550   43.8210 C   0  0  0  0  0  0  0  0  0  0  0  0
   47.2050   32.8860   44.5490 C   0  0  0  0  0  0  0  0  0  0  0  0
   46.7260   32.4950   45.7780 C   0  0  0  0  0  0  0  0  0  0  0  0
   45.7020   33.2260   46.3250 C   0  0  0  0  0  0  0  0  0  0  0  0
   45.1160   32.7040   47.8860 Cl  0  0  0  0  0  0  0  0  0  0  0  0
   45.1970   34.3080   45.6340 C   0  0  0  0  0  0  0  0  0  0  0  0
   46.7830   33.5630   38.9330 C   0  0  0  0  0  0  0  0  0  0  0  0
   47.6030   33.4930   37.8260 C   0  0  0  0  0  0  0  0  0  0  0  0
   47.0450   32.9540   36.6650 C   0  0  0  0  0  0  0  0  0  0  0  0
   45.7670   32.5410   36.6920 N   0  0  0  0  0  0  0  0  0  0  0  0
   44.9660   32.6090   37.7710 C   0  0  0  0  0  0  0  0  0  0  0  0
   45.5080   33.1360   38.9080 N   0  0  0  0  0  0  0  0  0  0  0  0
   49.7371   36.2234   41.2918 H   0  0  0  0  0  0  0  0  0  0  0  0
   48.8514   35.2998   39.1497 H   0  0  0  0  0  0  0  0  0  0  0  0
   48.0262   32.2971   44.1145 H   0  0  0  0  0  0  0  0  0  0  0  0
   47.1493   31.6265   46.3038 H   0  0  0  0  0  0  0  0  0  0  0  0
   44.3755   34.8961   46.0690 H   0  0  0  0  0  0  0  0  0  0  0  0
   48.6449   33.8444   37.8563 H   0  0  0  0  0  0  0  0  0  0  0  0
   47.6414   32.8691   35.7446 H   0  0  0  0  0  0  0  0  0  0  0  0
   43.9244   32.2569   37.7386 H   0  0  0  0  0  0  0  0  0  0  0  0
  1  6  2  0
  2  3  2  0
  2  1  1  0
  3  4  1  0
  4  5  2  0
  5  9  1  0
  6  5  1  0
  7  8  1  0
  8 14  2  0
  9  8  1  0
  9 10  2  0
 10 11  1  0
 11 12  2  0
 12 13  1  0
 14 12  1  0
 15  3  1  0
 16 15  2  0
 17 18  2  0
 17 16  1  0
 18 19  1  0
 19 20  2  0
 20 15  1  0
  1 21  1  0
  2 22  1  0
 10 23  1  0
 11 24  1  0
 14 25  1  0
 16 26  1  0
 17 27  1  0
 19 28  1  0
M  ISO  8  21  14  22  14  23  14  24  14  25  14  26  14  27  14  28  14
M  END
>  <minimizedAffinity>  (1) 
-5.54811716

>  <minimizedRMSD>  (1) 
0.89108032

$$$$
