
     RDKit          3D

 37 40  0  0  0  0  0  0  0  0999 V2000
   48.6520   35.5270   40.7640 C   0  0  0  0  0  0  0  0  0  0  0  0
   48.4510   34.6270   39.7040 C   0  0  0  0  0  0  0  0  0  0  0  0
   47.7210   33.4680   39.9370 C   0  0  0  0  0  0  0  0  0  0  0  0
   47.2340   33.2740   41.1830 N   0  0  0  0  0  0  0  0  0  0  0  0
   47.4240   34.1390   42.1930 C   0  0  0  0  0  0  0  0  0  0  0  0
   48.1370   35.2680   41.9890 N   0  0  0  0  0  0  0  0  0  0  0  0
   45.0380   35.9070   42.9160 Cl  0  0  0  0  0  0  0  0  0  0  0  0
   45.7380   34.6700   43.9310 C   0  0  0  0  0  0  0  0  0  0  0  0
   46.8290   33.9190   43.4930 C   0  0  0  0  0  0  0  0  0  0  0  0
   47.2860   32.9820   44.3580 C   0  0  0  0  0  0  0  0  0  0  0  0
   46.7310   32.7500   45.6150 C   0  0  0  0  0  0  0  0  0  0  0  0
   45.6590   33.5040   46.0160 C   0  0  0  0  0  0  0  0  0  0  0  0
   45.0640   33.0930   47.6100 Cl  0  0  0  0  0  0  0  0  0  0  0  0
   45.1670   34.4590   45.1790 C   0  0  0  0  0  0  0  0  0  0  0  0
   48.3790   34.3580   37.1560 Cl  0  0  0  0  0  0  0  0  0  0  0  0
   47.6880   32.8080   37.5900 C   0  0  0  0  0  0  0  0  0  0  0  0
   47.5190   32.4990   38.8970 C   0  0  0  0  0  0  0  0  0  0  0  0
   47.1060   31.1970   39.1230 C   0  0  0  0  0  0  0  0  0  0  0  0
   46.8680   30.2520   38.1470 C   0  0  0  0  0  0  0  0  0  0  0  0
   47.0470   30.6150   36.8310 C   0  0  0  0  0  0  0  0  0  0  0  0
   47.4630   31.9120   36.5610 C   0  0  0  0  0  0  0  0  0  0  0  0
   47.6600   32.3220   35.1740 C   0  0  0  0  0  0  0  0  0  0  0  0
   46.6740   32.4820   34.2230 C   0  0  0  0  0  0  0  0  0  0  0  0
   47.2340   32.8700   33.0470 N   0  0  0  0  0  0  0  0  0  0  0  0
   48.5720   32.9510   33.2690 C   0  0  0  0  0  0  0  0  0  0  0  0
   48.8180   32.6190   34.5530 N   0  0  0  0  0  0  0  0  0  0  0  0
   49.2311   36.4473   40.5976 H   0  0  0  0  0  0  0  0  0  0  0  0
   48.8646   34.8364   38.7065 H   0  0  0  0  0  0  0  0  0  0  0  0
   48.1455   32.3684   44.0502 H   0  0  0  0  0  0  0  0  0  0  0  0
   47.1466   31.9742   46.2748 H   0  0  0  0  0  0  0  0  0  0  0  0
   44.3083   35.0696   45.4949 H   0  0  0  0  0  0  0  0  0  0  0  0
   46.9550   30.8906   40.1686 H   0  0  0  0  0  0  0  0  0  0  0  0
   46.5437   29.2351   38.4130 H   0  0  0  0  0  0  0  0  0  0  0  0
   46.8656   29.8980   36.0167 H   0  0  0  0  0  0  0  0  0  0  0  0
   45.5989   32.3203   34.3907 H   0  0  0  0  0  0  0  0  0  0  0  0
   46.7419   33.0641   32.1632 H   0  0  0  0  0  0  0  0  0  0  0  0
   49.3291   33.2395   32.5250 H   0  0  0  0  0  0  0  0  0  0  0  0
  1  6  2  0
  2  3  2  0
  2  1  1  0
  3  4  1  0
  4  5  2  0
  5  9  1  0
  6  5  1  0
  7  8  1  0
  8 14  2  0
  9  8  1  0
  9 10  2  0
 10 11  1  0
 11 12  2  0
 12 13  1  0
 14 12  1  0
 15 16  1  0
 16 17  2  0
 17 18  1  0
 17  3  1  0
 19 18  2  0
 20 19  1  0
 21 20  2  0
 21 16  1  0
 22 21  1  0
 23 22  2  0
 24 25  1  0
 24 23  1  0
 25 26  2  0
 26 22  1  0
  1 27  1  0
  2 28  1  0
 10 29  1  0
 11 30  1  0
 14 31  1  0
 18 32  1  0
 19 33  1  0
 20 34  1  0
 23 35  1  0
 24 36  1  0
 25 37  1  0
M  ISO  8  27  14  28  14  29  14  30  14  31  14  32  14  33  14  34  14
M  ISO  3  35  14  36   9  37  14
M  END
>  <minimizedAffinity>  (1) 
-6.62813377

>  <minimizedRMSD>  (1) 
0.958914816

$$$$
