
     RDKit          3D

 33 35  0  0  0  0  0  0  0  0999 V2000
   48.8160   35.4120   41.0070 C   0  0  0  0  0  0  0  0  0  0  0  0
   48.2560   34.8670   39.8420 C   0  0  0  0  0  0  0  0  0  0  0  0
   47.2110   33.9590   39.9590 C   0  0  0  0  0  0  0  0  0  0  0  0
   46.7870   33.6610   41.2120 N   0  0  0  0  0  0  0  0  0  0  0  0
   47.3260   34.1920   42.3210 C   0  0  0  0  0  0  0  0  0  0  0  0
   48.3420   35.0650   42.2230 N   0  0  0  0  0  0  0  0  0  0  0  0
   45.0720   36.0080   43.3160 Cl  0  0  0  0  0  0  0  0  0  0  0  0
   45.7560   34.6530   44.1880 C   0  0  0  0  0  0  0  0  0  0  0  0
   46.7880   33.8950   43.6340 C   0  0  0  0  0  0  0  0  0  0  0  0
   47.2400   32.8710   44.3970 C   0  0  0  0  0  0  0  0  0  0  0  0
   46.7410   32.5590   45.6510 C   0  0  0  0  0  0  0  0  0  0  0  0
   45.7290   33.3190   46.1740 C   0  0  0  0  0  0  0  0  0  0  0  0
   45.1920   32.8250   47.7680 Cl  0  0  0  0  0  0  0  0  0  0  0  0
   45.2350   34.3670   45.4400 C   0  0  0  0  0  0  0  0  0  0  0  0
   49.1420   32.9960   37.8890 Cl  0  0  0  0  0  0  0  0  0  0  0  0
   47.3910   32.9350   37.7540 C   0  0  0  0  0  0  0  0  0  0  0  0
   46.6340   33.3390   38.8000 C   0  0  0  0  0  0  0  0  0  0  0  0
   45.2760   33.1310   38.6380 C   0  0  0  0  0  0  0  0  0  0  0  0
   44.6760   32.5720   37.5310 C   0  0  0  0  0  0  0  0  0  0  0  0
   45.4860   32.1820   36.4870 C   0  0  0  0  0  0  0  0  0  0  0  0
   46.8580   32.3680   36.6060 C   0  0  0  0  0  0  0  0  0  0  0  0
   47.7620   31.9600   35.5020 C   0  0  0  0  0  0  0  0  0  0  0  0
   48.5700   30.9100   35.8850 F   0  0  0  0  0  0  0  0  0  0  0  0
   48.5240   32.9960   35.0390 F   0  0  0  0  0  0  0  0  0  0  0  0
   46.9320   31.5790   34.4460 F   0  0  0  0  0  0  0  0  0  0  0  0
   49.6478   36.1276   40.9294 H   0  0  0  0  0  0  0  0  0  0  0  0
   48.6383   35.1541   38.8513 H   0  0  0  0  0  0  0  0  0  0  0  0
   48.0536   32.2487   43.9960 H   0  0  0  0  0  0  0  0  0  0  0  0
   47.1523   31.7117   46.2193 H   0  0  0  0  0  0  0  0  0  0  0  0
   44.4206   34.9841   45.8474 H   0  0  0  0  0  0  0  0  0  0  0  0
   44.6184   33.4385   39.4645 H   0  0  0  0  0  0  0  0  0  0  0  0
   43.5849   32.4412   37.4822 H   0  0  0  0  0  0  0  0  0  0  0  0
   45.0562   31.7333   35.5793 H   0  0  0  0  0  0  0  0  0  0  0  0
  1  6  2  0
  2  3  2  0
  2  1  1  0
  3  4  1  0
  4  5  2  0
  5  9  1  0
  6  5  1  0
  7  8  1  0
  8 14  2  0
  9  8  1  0
  9 10  2  0
 10 11  1  0
 11 12  2  0
 12 13  1  0
 14 12  1  0
 16 15  1  0
 16 17  2  0
 17  3  1  0
 18 17  1  0
 19 18  2  0
 20 21  2  0
 20 19  1  0
 21 16  1  0
 22 23  1  0
 22 21  1  0
 24 22  1  0
 25 22  1  0
  1 26  1  0
  2 27  1  0
 10 28  1  0
 11 29  1  0
 14 30  1  0
 18 31  1  0
 19 32  1  0
 20 33  1  0
M  ISO  8  26  14  27  14  28  14  29  14  30  14  31  14  32  14  33  14
M  END
>  <minimizedAffinity>  (1) 
-5.99080896

>  <minimizedRMSD>  (1) 
0.809864044

$$$$
