
     RDKit          3D

 33 35  0  0  0  0  0  0  0  0999 V2000
   48.7520   35.4440   40.9370 C   0  0  0  0  0  0  0  0  0  0  0  0
   48.2570   34.8050   39.7900 C   0  0  0  0  0  0  0  0  0  0  0  0
   47.2730   33.8370   39.9310 C   0  0  0  0  0  0  0  0  0  0  0  0
   46.8410   33.5700   41.1850 N   0  0  0  0  0  0  0  0  0  0  0  0
   47.3150   34.1870   42.2800 C   0  0  0  0  0  0  0  0  0  0  0  0
   48.2730   35.1240   42.1610 N   0  0  0  0  0  0  0  0  0  0  0  0
   45.0210   35.9750   43.2130 Cl  0  0  0  0  0  0  0  0  0  0  0  0
   45.7220   34.6570   44.1210 C   0  0  0  0  0  0  0  0  0  0  0  0
   46.7710   33.9060   43.5930 C   0  0  0  0  0  0  0  0  0  0  0  0
   47.2390   32.9100   44.3870 C   0  0  0  0  0  0  0  0  0  0  0  0
   46.7450   32.6110   45.6470 C   0  0  0  0  0  0  0  0  0  0  0  0
   45.7120   33.3690   46.1390 C   0  0  0  0  0  0  0  0  0  0  0  0
   45.1740   32.9080   47.7450 Cl  0  0  0  0  0  0  0  0  0  0  0  0
   45.2020   34.3830   45.3870 C   0  0  0  0  0  0  0  0  0  0  0  0
   49.1230   31.8380   38.7030 Cl  0  0  0  0  0  0  0  0  0  0  0  0
   47.5320   32.2540   38.0990 C   0  0  0  0  0  0  0  0  0  0  0  0
   46.7640   33.1190   38.7980 C   0  0  0  0  0  0  0  0  0  0  0  0
   45.4780   33.2520   38.3100 C   0  0  0  0  0  0  0  0  0  0  0  0
   44.9630   32.5960   37.2130 C   0  0  0  0  0  0  0  0  0  0  0  0
   45.7910   31.7240   36.5270 C   0  0  0  0  0  0  0  0  0  0  0  0
   47.0910   31.5610   36.9870 C   0  0  0  0  0  0  0  0  0  0  0  0
   47.9490   30.6180   36.2240 C   0  0  0  0  0  0  0  0  0  0  0  0
   49.5350   36.2105   40.8402 H   0  0  0  0  0  0  0  0  0  0  0  0
   48.6432   35.0675   38.7941 H   0  0  0  0  0  0  0  0  0  0  0  0
   48.0683   32.2972   44.0039 H   0  0  0  0  0  0  0  0  0  0  0  0
   47.1703   31.7866   46.2381 H   0  0  0  0  0  0  0  0  0  0  0  0
   44.3738   34.9909   45.7802 H   0  0  0  0  0  0  0  0  0  0  0  0
   44.8072   33.9414   38.8436 H   0  0  0  0  0  0  0  0  0  0  0  0
   43.9239   32.7605   36.8917 H   0  0  0  0  0  0  0  0  0  0  0  0
   45.4299   31.1766   35.6439 H   0  0  0  0  0  0  0  0  0  0  0  0
   48.5192   29.9914   36.9256 H   0  0  0  0  0  0  0  0  0  0  0  0
   47.3172   29.9778   35.5908 H   0  0  0  0  0  0  0  0  0  0  0  0
   48.6458   31.1867   35.5908 H   0  0  0  0  0  0  0  0  0  0  0  0
  1  6  2  0
  2  3  2  0
  2  1  1  0
  3  4  1  0
  4  5  2  0
  5  9  1  0
  6  5  1  0
  7  8  1  0
  8 14  2  0
  9  8  1  0
  9 10  2  0
 10 11  1  0
 11 12  2  0
 12 13  1  0
 14 12  1  0
 16 15  1  0
 16 17  2  0
 17  3  1  0
 18 17  1  0
 19 18  2  0
 20 21  2  0
 20 19  1  0
 21 16  1  0
 22 21  1  0
  1 23  1  0
  2 24  1  0
 10 25  1  0
 11 26  1  0
 14 27  1  0
 18 28  1  0
 19 29  1  0
 20 30  1  0
 22 31  1  0
 22 32  1  0
 22 33  1  0
M  ISO  8  23  14  24  14  25  14  26  14  27  14  28  14  29  14  30  14
M  ISO  3  31   8  32   8  33   8
M  END
>  <minimizedAffinity>  (1) 
-5.57230568

>  <minimizedRMSD>  (1) 
1.00456309

$$$$
