
     RDKit          3D

 18 18  0  0  0  0  0  0  0  0999 V2000
   46.1350   35.2820   42.6960 C   0  0  0  0  0  0  0  0  0  0  0  0
   46.6900   34.1810   43.3500 C   0  0  0  0  0  0  0  0  0  0  0  0
   46.2080   33.8300   44.6150 C   0  0  0  0  0  0  0  0  0  0  0  0
   45.2090   34.5940   45.1470 N   0  0  0  0  0  0  0  0  0  0  0  0
   44.6960   35.6500   44.4910 C   0  0  0  0  0  0  0  0  0  0  0  0
   45.1550   35.9900   43.2760 N   0  0  0  0  0  0  0  0  0  0  0  0
   47.7060   33.4810   42.7030 O   0  0  0  0  0  0  0  0  0  0  0  0
   49.5520   35.3570   42.8020 O   0  0  0  0  0  0  0  0  0  0  0  0
   48.9790   34.3150   41.9030 P   0  0  1  0  0  0  0  0  0  0  0  0
   50.2250   33.2510   41.4860 O   0  0  0  0  0  0  0  0  0  0  0  0
   48.3990   35.0540   40.5070 O   0  0  0  0  0  0  0  0  0  0  0  0
   48.0730   34.3360   39.3770 C   0  0  0  0  0  0  0  0  0  0  0  0
   46.9400   33.7680   39.4970 O   0  0  0  0  0  0  0  0  0  0  0  0
   46.5032   35.5702   41.7003 H   0  0  0  0  0  0  0  0  0  0  0  0
   46.6191   32.9688   45.1622 H   0  0  0  0  0  0  0  0  0  0  0  0
   43.8924   36.2410   44.9545 H   0  0  0  0  0  0  0  0  0  0  0  0
   50.6433   32.8938   42.3092 H   0  0  0  0  0  0  0  0  0  0  0  0
   48.7111   34.2628   38.4840 H   0  0  0  0  0  0  0  0  0  0  0  0
  1  6  2  0
  1  2  1  0
  2  3  2  0
  3  4  1  0
  5  4  2  0
  6  5  1  0
  7  2  1  0
  9  7  1  0
  9  8  2  0
 10  9  1  0
 11  9  1  0
 12 13  2  0
 12 11  1  0
  1 14  1  0
  3 15  1  0
  5 16  1  0
 10 17  1  0
 12 18  1  0
M  ISO  5  14  14  15  14  16  14  17   3  18   6
M  END
>  <minimizedAffinity>  (1) 
-3.73502994

>  <minimizedRMSD>  (1) 
2.59441495

$$$$
