
     RDKit          3D

 28 29  0  0  0  0  0  0  0  0999 V2000
   48.7080   35.8040   41.8180 O   0  0  0  0  0  0  0  0  0  0  0  0
   48.3490   34.3910   41.4810 P   0  0  1  0  0  0  0  0  0  0  0  0
   49.7770   33.5750   41.1400 O   0  0  0  0  0  0  0  0  0  0  0  0
   47.5340   33.6640   42.8010 O   0  0  0  0  0  0  0  0  0  0  0  0
   45.9230   35.4290   42.8560 C   0  0  0  0  0  0  0  0  0  0  0  0
   46.5160   34.3410   43.4740 C   0  0  0  0  0  0  0  0  0  0  0  0
   46.0680   33.9660   44.7500 C   0  0  0  0  0  0  0  0  0  0  0  0
   45.0640   34.7040   45.3130 N   0  0  0  0  0  0  0  0  0  0  0  0
   44.5170   35.7460   44.6850 C   0  0  0  0  0  0  0  0  0  0  0  0
   44.9470   36.0970   43.4730 N   0  0  0  0  0  0  0  0  0  0  0  0
   47.3740   34.3770   40.1290 O   0  0  0  0  0  0  0  0  0  0  0  0
   47.3150   33.4270   39.1730 C   0  0  0  0  0  0  0  0  0  0  0  0
   46.7610   32.3430   39.6180 O   0  0  0  0  0  0  0  0  0  0  0  0
   49.4950   32.7670   36.1900 N   0  0  0  0  0  0  0  0  0  0  0  0
   49.0190   32.9800   37.4250 C   0  0  0  0  0  0  0  0  0  0  0  0
   47.6760   33.2030   37.7440 C   0  0  0  0  0  0  0  0  0  0  0  0
   46.7610   33.2090   36.7510 C   0  0  0  0  0  0  0  0  0  0  0  0
   45.5520   33.3980   36.9470 O   0  0  0  0  0  0  0  0  0  0  0  0
   47.2800   32.9880   35.5100 N   0  0  0  0  0  0  0  0  0  0  0  0
   48.5740   32.7750   35.2120 C   0  0  0  0  0  0  0  0  0  0  0  0
   48.9360   32.5830   34.0340 O   0  0  0  0  0  0  0  0  0  0  0  0
   50.2221   33.3207   41.9870 H   0  0  0  0  0  0  0  0  0  0  0  0
   46.2569   35.7426   41.8559 H   0  0  0  0  0  0  0  0  0  0  0  0
   46.5092   33.1083   45.2788 H   0  0  0  0  0  0  0  0  0  0  0  0
   43.7099   36.3165   45.1679 H   0  0  0  0  0  0  0  0  0  0  0  0
   50.4956   32.6085   36.0042 H   0  0  0  0  0  0  0  0  0  0  0  0
   49.7426   32.9793   38.2535 H   0  0  0  0  0  0  0  0  0  0  0  0
   46.6156   32.9837   34.7230 H   0  0  0  0  0  0  0  0  0  0  0  0
  2  1  2  0
  2  4  1  0
  3  2  1  0
  4  6  1  0
  5 10  2  0
  5  6  1  0
  6  7  2  0
  7  8  1  0
  9  8  2  0
 10  9  1  0
 11  2  1  0
 12 13  2  0
 12 11  1  0
 14 15  1  0
 15 16  2  0
 16 12  1  0
 17 18  2  0
 17 16  1  0
 19 17  1  0
 20 19  1  0
 20 14  1  0
 21 20  2  0
  3 22  1  0
  5 23  1  0
  7 24  1  0
  9 25  1  0
 14 26  1  0
 15 27  1  0
 19 28  1  0
M  ISO  7  22   3  23  14  24  14  25  14  26   9  27  14  28   9
M  END
>  <minimizedAffinity>  (1) 
-5.29066992

>  <minimizedRMSD>  (1) 
1.10784388

$$$$
