
     RDKit          3D

 24 24  0  0  0  0  0  0  0  0999 V2000
   49.6650   35.1770   42.8000 O   0  0  0  0  0  0  0  0  0  0  0  0
   49.0260   34.2310   41.8570 P   0  0  1  0  0  0  0  0  0  0  0  0
   50.1870   33.1220   41.3640 O   0  0  0  0  0  0  0  0  0  0  0  0
   47.7120   33.4130   42.6250 O   0  0  0  0  0  0  0  0  0  0  0  0
   46.1800   35.2500   42.6540 C   0  0  0  0  0  0  0  0  0  0  0  0
   46.7150   34.1360   43.2800 C   0  0  0  0  0  0  0  0  0  0  0  0
   46.2310   33.7860   44.5430 C   0  0  0  0  0  0  0  0  0  0  0  0
   45.2510   34.5670   45.0910 N   0  0  0  0  0  0  0  0  0  0  0  0
   44.7570   35.6340   44.4580 C   0  0  0  0  0  0  0  0  0  0  0  0
   45.2190   35.9690   43.2530 N   0  0  0  0  0  0  0  0  0  0  0  0
   48.4660   35.0620   40.5300 O   0  0  0  0  0  0  0  0  0  0  0  0
   48.0560   34.5340   39.3520 C   0  0  0  0  0  0  0  0  0  0  0  0
   47.0200   33.7840   39.5050 O   0  0  0  0  0  0  0  0  0  0  0  0
   48.0740   34.2940   37.9830 O   0  0  0  0  0  0  0  0  0  0  0  0
   48.2310   31.6750   37.3730 O   0  0  0  0  0  0  0  0  0  0  0  0
   48.8400   33.0240   37.1890 P   0  0  0  0  0  0  0  0  0  0  0  0
   50.5020   32.9490   37.5300 O   0  0  0  0  0  0  0  0  0  0  0  0
   48.7330   33.3860   35.5170 O   0  0  0  0  0  0  0  0  0  0  0  0
   50.6132   32.7149   42.1594 H   0  0  0  0  0  0  0  0  0  0  0  0
   46.5454   35.5467   41.6598 H   0  0  0  0  0  0  0  0  0  0  0  0
   46.6254   32.9104   45.0795 H   0  0  0  0  0  0  0  0  0  0  0  0
   43.9681   36.2371   44.9312 H   0  0  0  0  0  0  0  0  0  0  0  0
   50.6377   32.9429   38.5106 H   0  0  0  0  0  0  0  0  0  0  0  0
   48.4543   34.3288   35.4007 H   0  0  0  0  0  0  0  0  0  0  0  0
  2  4  1  0
  2  1  2  0
  3  2  1  0
  4  6  1  0
  5 10  2  0
  5  6  1  0
  6  7  2  0
  7  8  1  0
  9  8  2  0
 10  9  1  0
 11  2  1  0
 12 13  2  0
 12 11  1  0
 14 12  1  0
 16 15  2  0
 16 17  1  0
 16 14  1  0
 18 16  1  0
  3 19  1  0
  5 20  1  0
  7 21  1  0
  9 22  1  0
 17 23  1  0
 18 24  1  0
M  ISO  6  19   3  20  14  21  14  22  14  23   3  24   3
M  END
>  <minimizedAffinity>  (1) 
-4.72962618

>  <minimizedRMSD>  (1) 
0.631203592

$$$$
