
     RDKit          3D

 19 19  0  0  0  0  0  0  0  0999 V2000
   47.7020   33.4700   42.6950 O   0  0  0  0  0  0  0  0  0  0  0  0
   46.1300   35.2840   42.6980 C   0  0  0  0  0  0  0  0  0  0  0  0
   46.6850   34.1770   43.3480 C   0  0  0  0  0  0  0  0  0  0  0  0
   46.2060   33.8220   44.6150 C   0  0  0  0  0  0  0  0  0  0  0  0
   45.2090   34.5880   45.1550 N   0  0  0  0  0  0  0  0  0  0  0  0
   44.6950   35.6490   44.5000 C   0  0  0  0  0  0  0  0  0  0  0  0
   45.1540   35.9890   43.2860 N   0  0  0  0  0  0  0  0  0  0  0  0
   49.5630   35.3440   42.8050 O   0  0  0  0  0  0  0  0  0  0  0  0
   48.9720   34.3170   41.9170 P   0  0  1  0  0  0  0  0  0  0  0  0
   50.2260   33.2520   41.4870 O   0  0  0  0  0  0  0  0  0  0  0  0
   48.4080   35.0580   40.5260 O   0  0  0  0  0  0  0  0  0  0  0  0
   48.0910   34.4150   39.3690 C   0  0  0  0  0  0  0  0  0  0  0  0
   46.9750   33.7860   39.4870 O   0  0  0  0  0  0  0  0  0  0  0  0
   47.6870   33.7290   38.2350 O   0  0  0  0  0  0  0  0  0  0  0  0
   46.4953   35.5764   41.7025 H   0  0  0  0  0  0  0  0  0  0  0  0
   46.6168   32.9576   45.1572 H   0  0  0  0  0  0  0  0  0  0  0  0
   43.8927   36.2406   44.9650 H   0  0  0  0  0  0  0  0  0  0  0  0
   50.6493   32.8925   42.3066 H   0  0  0  0  0  0  0  0  0  0  0  0
   48.2465   33.7494   37.4185 H   0  0  0  0  0  0  0  0  0  0  0  0
  1  3  1  0
  2  7  2  0
  2  3  1  0
  3  4  2  0
  4  5  1  0
  6  5  2  0
  7  6  1  0
  9  1  1  0
  9  8  2  0
 10  9  1  0
 11  9  1  0
 12 13  2  0
 12 11  1  0
 14 12  1  0
  2 15  1  0
  4 16  1  0
  6 17  1  0
 10 18  1  0
 14 19  1  0
M  ISO  5  15  14  16  14  17  14  18   3  19   3
M  END
>  <minimizedAffinity>  (1) 
-3.90412545

>  <minimizedRMSD>  (1) 
0.0310182516

$$$$
