
     RDKit          3D

 25 26  0  0  0  0  0  0  0  0999 V2000
   49.3810   35.4750   42.4470 O   0  0  0  0  0  0  0  0  0  0  0  0
   48.8060   34.2800   41.7480 P   0  0  1  0  0  0  0  0  0  0  0  0
   50.0750   33.2580   41.3400 O   0  0  0  0  0  0  0  0  0  0  0  0
   47.6810   33.4760   42.7650 O   0  0  0  0  0  0  0  0  0  0  0  0
   46.1340   35.3040   42.7690 C   0  0  0  0  0  0  0  0  0  0  0  0
   46.6660   34.1940   43.4050 C   0  0  0  0  0  0  0  0  0  0  0  0
   46.1690   33.8320   44.6670 C   0  0  0  0  0  0  0  0  0  0  0  0
   45.1740   34.6110   45.1980 N   0  0  0  0  0  0  0  0  0  0  0  0
   44.6850   35.6720   44.5550 C   0  0  0  0  0  0  0  0  0  0  0  0
   45.1620   36.0130   43.3560 N   0  0  0  0  0  0  0  0  0  0  0  0
   48.0480   34.7900   40.3520 O   0  0  0  0  0  0  0  0  0  0  0  0
   47.4590   34.0250   39.4180 C   0  0  0  0  0  0  0  0  0  0  0  0
   46.3230   33.5640   39.8320 O   0  0  0  0  0  0  0  0  0  0  0  0
   47.6320   33.4990   38.0460 C   0  0  0  0  0  0  0  0  0  0  0  0
   48.7700   33.7280   37.1930 C   0  0  0  0  0  0  0  0  0  0  0  0
   48.6420   33.1110   35.9810 C   0  0  0  0  0  0  0  0  0  0  0  0
   47.5770   32.3630   35.5990 C   0  0  0  0  0  0  0  0  0  0  0  0
   46.4820   32.4860   37.1800 S   0  0  0  0  0  0  0  0  0  0  0  0
   50.5009   32.9150   42.1653 H   0  0  0  0  0  0  0  0  0  0  0  0
   46.5110   35.6032   41.7799 H   0  0  0  0  0  0  0  0  0  0  0  0
   46.5621   32.9585   45.2079 H   0  0  0  0  0  0  0  0  0  0  0  0
   43.8842   36.2694   45.0153 H   0  0  0  0  0  0  0  0  0  0  0  0
   49.6426   34.3310   37.4844 H   0  0  0  0  0  0  0  0  0  0  0  0
   49.4647   33.2297   35.2605 H   0  0  0  0  0  0  0  0  0  0  0  0
   47.3906   31.8345   34.6524 H   0  0  0  0  0  0  0  0  0  0  0  0
  2  1  2  0
  2  4  1  0
  3  2  1  0
  4  6  1  0
  5 10  2  0
  5  6  1  0
  6  7  2  0
  7  8  1  0
  9  8  2  0
 10  9  1  0
 11  2  1  0
 12 13  2  0
 12 11  1  0
 14 12  1  0
 15 14  2  0
 16 15  1  0
 17 16  2  0
 17 18  1  0
 18 14  1  0
  3 19  1  0
  5 20  1  0
  7 21  1  0
  9 22  1  0
 15 23  1  0
 16 24  1  0
 17 25  1  0
M  ISO  7  19   3  20  14  21  14  22  14  23  14  24  14  25  14
M  END
>  <minimizedAffinity>  (1) 
-4.45520115

>  <minimizedRMSD>  (1) 
0.844581902

$$$$
