
     RDKit          3D

 31 32  0  0  0  0  0  0  0  0999 V2000
   47.4700   34.1320   39.6480 C   0  0  0  0  0  0  0  0  0  0  0  0
   46.3060   33.6880   39.9850 O   0  0  0  0  0  0  0  0  0  0  0  0
   47.7190   33.6450   38.2860 C   0  0  0  0  0  0  0  0  0  0  0  0
   48.6960   34.0940   37.3630 C   0  0  0  0  0  0  0  0  0  0  0  0
   48.6860   33.4580   36.1560 C   0  0  0  0  0  0  0  0  0  0  0  0
   47.8240   32.4780   35.8520 C   0  0  0  0  0  0  0  0  0  0  0  0
   46.8110   32.3580   37.4740 S   0  0  0  0  0  0  0  0  0  0  0  0
   47.3840   31.5810   34.9310 O   0  0  0  0  0  0  0  0  0  0  0  0
   49.3150   31.3520   33.0900 O   0  0  0  0  0  0  0  0  0  0  0  0
   47.8420   31.5930   33.2850 P   0  0  0  0  0  0  0  0  0  0  0  0
   47.5170   33.1520   32.6950 O   0  0  0  0  0  0  0  0  0  0  0  0
   46.8710   30.5080   32.4340 O   0  0  0  0  0  0  0  0  0  0  0  0
   48.0290   34.8600   40.6280 O   0  0  0  0  0  0  0  0  0  0  0  0
   49.4970   35.4540   42.6580 O   0  0  0  0  0  0  0  0  0  0  0  0
   48.8530   34.3060   41.9540 P   0  0  2  0  0  0  0  0  0  0  0  0
   50.0720   33.2710   41.4430 O   0  0  0  0  0  0  0  0  0  0  0  0
   47.7700   33.5030   43.0180 O   0  0  0  0  0  0  0  0  0  0  0  0
   46.1860   35.2880   42.9440 C   0  0  0  0  0  0  0  0  0  0  0  0
   46.7100   34.1850   43.6140 C   0  0  0  0  0  0  0  0  0  0  0  0
   46.1630   33.8040   44.8470 C   0  0  0  0  0  0  0  0  0  0  0  0
   45.1280   34.5550   45.3240 N   0  0  0  0  0  0  0  0  0  0  0  0
   44.6380   35.6150   44.6600 C   0  0  0  0  0  0  0  0  0  0  0  0
   45.1680   35.9660   43.4880 N   0  0  0  0  0  0  0  0  0  0  0  0
   49.4098   34.8961   37.6020 H   0  0  0  0  0  0  0  0  0  0  0  0
   49.4203   33.7642   35.3964 H   0  0  0  0  0  0  0  0  0  0  0  0
   47.3877   33.7724   33.4556 H   0  0  0  0  0  0  0  0  0  0  0  0
   46.3669   29.9447   33.0733 H   0  0  0  0  0  0  0  0  0  0  0  0
   50.5282   32.8837   42.2316 H   0  0  0  0  0  0  0  0  0  0  0  0
   46.6052   35.5994   41.9759 H   0  0  0  0  0  0  0  0  0  0  0  0
   46.5504   32.9388   45.4050 H   0  0  0  0  0  0  0  0  0  0  0  0
   43.8018   36.1918   45.0820 H   0  0  0  0  0  0  0  0  0  0  0  0
  1  2  2  0
  1 13  1  0
  3  1  1  0
  4  3  2  0
  5  4  1  0
  6  5  2  0
  6  7  1  0
  7  3  1  0
  8  6  1  0
  9 10  2  0
 10  8  1  0
 11 10  1  0
 12 10  1  0
 13 15  1  0
 15 14  2  0
 15 17  1  0
 16 15  1  0
 17 19  1  0
 18 23  2  0
 18 19  1  0
 19 20  2  0
 20 21  1  0
 22 21  2  0
 23 22  1  0
  4 24  1  0
  5 25  1  0
 11 26  1  0
 12 27  1  0
 16 28  1  0
 18 29  1  0
 20 30  1  0
 22 31  1  0
M  ISO  8  24  14  25  14  26   3  27   3  28   3  29  14  30  14  31  14
M  END
>  <minimizedAffinity>  (1) 
-5.51651144

>  <minimizedRMSD>  (1) 
0.617199302

$$$$
