
     RDKit          3D

 39 41  0  0  0  0  0  0  0  0999 V2000
   47.9860   33.9910   39.5290 C   0  0  0  0  0  0  0  0  0  0  0  0
   46.7200   33.8070   39.6250 O   0  0  0  0  0  0  0  0  0  0  0  0
   48.4170   33.2540   38.3280 C   0  0  0  0  0  0  0  0  0  0  0  0
   49.4810   32.3150   38.2240 C   0  0  0  0  0  0  0  0  0  0  0  0
   49.6570   31.7770   36.9940 C   0  0  0  0  0  0  0  0  0  0  0  0
   48.8820   32.1030   35.9410 C   0  0  0  0  0  0  0  0  0  0  0  0
   47.6900   33.3690   36.7390 S   0  0  0  0  0  0  0  0  0  0  0  0
   48.8300   31.7280   34.6320 N   0  0  0  0  0  0  0  0  0  0  0  0
   49.6740   32.3940   33.6290 C   0  0  0  0  0  0  0  0  0  0  0  0
   48.7310   33.2100   32.7790 C   0  0  0  0  0  0  0  0  0  0  0  0
   47.3740   32.7540   32.8490 N   0  0  0  0  0  0  0  0  0  0  0  0
   47.2100   31.3240   32.9220 C   0  0  0  0  0  0  0  0  0  0  0  0
   47.9780   30.6780   34.0530 C   0  0  0  0  0  0  0  0  0  0  0  0
   48.4590   34.7710   40.5270 O   0  0  0  0  0  0  0  0  0  0  0  0
   49.5910   35.4690   42.7270 O   0  0  0  0  0  0  0  0  0  0  0  0
   49.0940   34.2750   41.9830 P   0  0  2  0  0  0  0  0  0  0  0  0
   50.3930   33.2440   41.7050 O   0  0  0  0  0  0  0  0  0  0  0  0
   47.8830   33.4590   42.8980 O   0  0  0  0  0  0  0  0  0  0  0  0
   46.2870   35.2350   42.7400 C   0  0  0  0  0  0  0  0  0  0  0  0
   46.8140   34.1590   43.4450 C   0  0  0  0  0  0  0  0  0  0  0  0
   46.2410   33.8230   44.6850 C   0  0  0  0  0  0  0  0  0  0  0  0
   45.1940   34.5830   45.1180 N   0  0  0  0  0  0  0  0  0  0  0  0
   44.7180   35.6130   44.4060 C   0  0  0  0  0  0  0  0  0  0  0  0
   45.2590   35.9350   43.2300 N   0  0  0  0  0  0  0  0  0  0  0  0
   50.1151   32.0455   39.0814 H   0  0  0  0  0  0  0  0  0  0  0  0
   50.4648   31.0447   36.8486 H   0  0  0  0  0  0  0  0  0  0  0  0
   50.4104   33.0471   34.1201 H   0  0  0  0  0  0  0  0  0  0  0  0
   50.2385   31.6674   33.0262 H   0  0  0  0  0  0  0  0  0  0  0  0
   49.0656   33.1542   31.7326 H   0  0  0  0  0  0  0  0  0  0  0  0
   48.7511   34.2405   33.1633 H   0  0  0  0  0  0  0  0  0  0  0  0
   46.9418   33.1675   33.6875 H   0  0  0  0  0  0  0  0  0  0  0  0
   46.1409   31.1042   33.0589 H   0  0  0  0  0  0  0  0  0  0  0  0
   47.6092   30.9078   31.9853 H   0  0  0  0  0  0  0  0  0  0  0  0
   47.2826   30.2911   34.8124 H   0  0  0  0  0  0  0  0  0  0  0  0
   48.5800   29.8309   33.6924 H   0  0  0  0  0  0  0  0  0  0  0  0
   50.7688   32.9457   42.5710 H   0  0  0  0  0  0  0  0  0  0  0  0
   46.7207   35.5135   41.7682 H   0  0  0  0  0  0  0  0  0  0  0  0
   46.6219   32.9811   45.2817 H   0  0  0  0  0  0  0  0  0  0  0  0
   43.8724   36.1992   44.7950 H   0  0  0  0  0  0  0  0  0  0  0  0
  1  2  2  0
  1 14  1  0
  3  1  1  0
  4  3  2  0
  5  4  1  0
  6  7  1  0
  6  5  2  0
  7  3  1  0
  8  6  1  0
  9  8  1  0
 10 11  1  0
 10  9  1  0
 11 12  1  0
 12 13  1  0
 13  8  1  0
 14 16  1  0
 16 15  2  0
 16 18  1  0
 17 16  1  0
 18 20  1  0
 19 24  2  0
 19 20  1  0
 20 21  2  0
 21 22  1  0
 23 22  2  0
 24 23  1  0
  4 25  1  0
  5 26  1  0
  9 27  1  0
  9 28  1  0
 10 29  1  0
 10 30  1  0
 11 31  1  0
 12 32  1  0
 12 33  1  0
 13 34  1  0
 13 35  1  0
 17 36  1  0
 19 37  1  0
 21 38  1  0
 23 39  1  0
M  ISO  8  25  14  26  14  27  13  28  13  29  13  30  13  31   5  32  13
M  ISO  7  33  13  34  13  35  13  36   3  37  14  38  14  39  14
M  END
>  <minimizedAffinity>  (1) 
-5.39532852

>  <minimizedRMSD>  (1) 
1.48608446

$$$$
