
     RDKit          3D

 28 29  0  0  0  0  0  0  0  0999 V2000
   49.3780   35.4650   42.4480 O   0  0  0  0  0  0  0  0  0  0  0  0
   48.8020   34.2740   41.7450 P   0  0  1  0  0  0  0  0  0  0  0  0
   50.0660   33.2650   41.3280 O   0  0  0  0  0  0  0  0  0  0  0  0
   47.6760   33.4800   42.7660 O   0  0  0  0  0  0  0  0  0  0  0  0
   46.1290   35.3070   42.7670 C   0  0  0  0  0  0  0  0  0  0  0  0
   46.6640   34.1920   43.4120 C   0  0  0  0  0  0  0  0  0  0  0  0
   46.1700   33.8320   44.6730 C   0  0  0  0  0  0  0  0  0  0  0  0
   45.1770   34.6060   45.2070 N   0  0  0  0  0  0  0  0  0  0  0  0
   44.6850   35.6740   44.5560 C   0  0  0  0  0  0  0  0  0  0  0  0
   45.1600   36.0050   43.3630 N   0  0  0  0  0  0  0  0  0  0  0  0
   48.0380   34.7860   40.3590 O   0  0  0  0  0  0  0  0  0  0  0  0
   47.4480   34.0160   39.4230 C   0  0  0  0  0  0  0  0  0  0  0  0
   46.3220   33.5410   39.8340 O   0  0  0  0  0  0  0  0  0  0  0  0
   47.6300   33.5070   38.0570 C   0  0  0  0  0  0  0  0  0  0  0  0
   48.7500   33.7000   37.2030 C   0  0  0  0  0  0  0  0  0  0  0  0
   48.6640   33.1230   35.9770 C   0  0  0  0  0  0  0  0  0  0  0  0
   47.5870   32.4140   35.5990 C   0  0  0  0  0  0  0  0  0  0  0  0
   46.4740   32.5290   37.1560 S   0  0  0  0  0  0  0  0  0  0  0  0
   47.1680   31.6860   34.4180 C   0  0  0  0  0  0  0  0  0  0  0  0
   50.4979   32.9203   42.1494 H   0  0  0  0  0  0  0  0  0  0  0  0
   46.5020   35.6081   41.7769 H   0  0  0  0  0  0  0  0  0  0  0  0
   46.5661   32.9595   45.2131 H   0  0  0  0  0  0  0  0  0  0  0  0
   43.8859   36.2753   45.0142 H   0  0  0  0  0  0  0  0  0  0  0  0
   49.6307   34.2802   37.5157 H   0  0  0  0  0  0  0  0  0  0  0  0
   49.5007   33.2394   35.2724 H   0  0  0  0  0  0  0  0  0  0  0  0
   46.6404   30.7693   34.7203 H   0  0  0  0  0  0  0  0  0  0  0  0
   46.4944   32.3161   33.8187 H   0  0  0  0  0  0  0  0  0  0  0  0
   48.0512   31.4200   33.8187 H   0  0  0  0  0  0  0  0  0  0  0  0
  2  1  2  0
  2  4  1  0
  3  2  1  0
  4  6  1  0
  5 10  2  0
  5  6  1  0
  6  7  2  0
  7  8  1  0
  9  8  2  0
 10  9  1  0
 11  2  1  0
 12 13  2  0
 12 11  1  0
 14 12  1  0
 15 14  2  0
 16 15  1  0
 17 16  2  0
 17 18  1  0
 18 14  1  0
 19 17  1  0
  3 20  1  0
  5 21  1  0
  7 22  1  0
  9 23  1  0
 15 24  1  0
 16 25  1  0
 19 26  1  0
 19 27  1  0
 19 28  1  0
M  ISO  8  20   3  21  14  22  14  23  14  24  14  25  14  26   8  27   8
M  ISO  1  28   8
M  END
>  <minimizedAffinity>  (1) 
-4.60344172

>  <minimizedRMSD>  (1) 
0.0213957522

$$$$
