
     RDKit          3D

 36 38  0  0  0  0  0  0  0  0999 V2000
   47.6600   33.8160   39.2560 C   0  0  0  0  0  0  0  0  0  0  0  0
   46.4080   33.6520   39.5780 O   0  0  0  0  0  0  0  0  0  0  0  0
   47.7780   33.2840   37.8760 C   0  0  0  0  0  0  0  0  0  0  0  0
   48.7210   33.6750   36.9040 C   0  0  0  0  0  0  0  0  0  0  0  0
   48.6040   33.0210   35.7160 C   0  0  0  0  0  0  0  0  0  0  0  0
   47.6790   32.0880   35.4810 C   0  0  0  0  0  0  0  0  0  0  0  0
   46.7910   32.0650   37.1420 S   0  0  0  0  0  0  0  0  0  0  0  0
   47.2450   31.2140   34.4210 C   0  0  0  0  0  0  0  0  0  0  0  0
   46.0640   30.5270   34.5000 C   0  0  0  0  0  0  0  0  0  0  0  0
   45.8190   29.7350   33.3800 C   0  0  0  0  0  0  0  0  0  0  0  0
   46.6970   29.6810   32.3320 C   0  0  0  0  0  0  0  0  0  0  0  0
   47.8700   30.3950   32.3080 C   0  0  0  0  0  0  0  0  0  0  0  0
   48.1140   31.1720   33.4040 N   0  0  0  0  0  0  0  0  0  0  0  0
   48.3490   34.3820   40.2480 O   0  0  0  0  0  0  0  0  0  0  0  0
   49.7550   34.6570   42.3890 O   0  0  0  0  0  0  0  0  0  0  0  0
   49.1620   33.6120   41.4850 P   0  0  2  0  0  0  0  0  0  0  0  0
   50.4070   32.7200   40.8290 O   0  0  0  0  0  0  0  0  0  0  0  0
   48.0680   32.6160   42.3650 O   0  0  0  0  0  0  0  0  0  0  0  0
   46.4180   34.2060   42.9750 C   0  0  0  0  0  0  0  0  0  0  0  0
   47.2300   33.1450   43.3330 C   0  0  0  0  0  0  0  0  0  0  0  0
   47.1540   32.6760   44.6480 C   0  0  0  0  0  0  0  0  0  0  0  0
   46.2970   33.2720   45.5080 N   0  0  0  0  0  0  0  0  0  0  0  0
   45.5200   34.3030   45.1240 C   0  0  0  0  0  0  0  0  0  0  0  0
   45.5760   34.7720   43.8710 N   0  0  0  0  0  0  0  0  0  0  0  0
   44.6070   34.9210   46.0870 C   0  0  0  0  0  0  0  0  0  0  0  0
   44.3920   34.3750   47.2000 O   0  0  0  0  0  0  0  0  0  0  0  0
   49.4862   34.4431   37.0897 H   0  0  0  0  0  0  0  0  0  0  0  0
   49.3072   33.2742   34.9089 H   0  0  0  0  0  0  0  0  0  0  0  0
   45.3793   30.5932   35.3584 H   0  0  0  0  0  0  0  0  0  0  0  0
   44.8961   29.1379   33.3373 H   0  0  0  0  0  0  0  0  0  0  0  0
   46.4532   29.0389   31.4728 H   0  0  0  0  0  0  0  0  0  0  0  0
   48.5685   30.3441   31.4598 H   0  0  0  0  0  0  0  0  0  0  0  0
   50.9523   32.3293   41.5571 H   0  0  0  0  0  0  0  0  0  0  0  0
   46.4571   34.5955   41.9470 H   0  0  0  0  0  0  0  0  0  0  0  0
   47.7817   31.8351   44.9781 H   0  0  0  0  0  0  0  0  0  0  0  0
   44.1062   35.8678   45.8363 H   0  0  0  0  0  0  0  0  0  0  0  0
  1  2  2  0
  1 14  1  0
  3  1  1  0
  4  3  2  0
  5  4  1  0
  6  5  2  0
  6  7  1  0
  7  3  1  0
  8  9  2  0
  8  6  1  0
 10  9  1  0
 11 10  2  0
 12 11  1  0
 12 13  2  0
 13  8  1  0
 14 16  1  0
 16 18  1  0
 16 15  2  0
 17 16  1  0
 18 20  1  0
 19 20  2  0
 19 24  1  0
 20 21  1  0
 21 22  2  0
 23 22  1  0
 23 25  1  0
 24 23  2  0
 25 26  2  0
  4 27  1  0
  5 28  1  0
  9 29  1  0
 10 30  1  0
 11 31  1  0
 12 32  1  0
 17 33  1  0
 19 34  1  0
 21 35  1  0
 25 36  1  0
M  ISO  8  27  14  28  14  29  14  30  14  31  14  32  14  33   3  34  14
M  ISO  2  35  14  36   6
M  END
>  <minimizedAffinity>  (1) 
-4.83240461

>  <minimizedRMSD>  (1) 
1.05096829

$$$$
