
     RDKit          3D

 25 26  0  0  1  0  0  0  0  0999 V2000
   46.0100   34.2720   41.4880 N   0  0  0  0  0  0  0  0  0  0  0  0
   45.0520   34.0210   40.4370 C   0  0  0  0  0  0  0  0  0  0  0  0
   45.6180   33.1970   39.3230 C   0  0  0  0  0  0  0  0  0  0  0  0
   46.8610   33.6550   38.8240 N   0  0  0  0  0  0  0  0  0  0  0  0
   47.7470   34.2560   39.7410 C   0  0  0  0  0  0  0  0  0  0  0  0
   47.4040   34.1390   41.1790 C   0  0  1  0  0  0  0  0  0  0  0  0
   44.6200   36.0950   44.4440 C   0  0  0  0  0  0  0  0  0  0  0  0
   44.9850   35.8600   43.1080 C   0  0  0  0  0  0  0  0  0  0  0  0
   45.5900   34.6430   42.7950 C   0  0  0  0  0  0  0  0  0  0  0  0
   45.7880   33.7610   43.8080 N   0  0  0  0  0  0  0  0  0  0  0  0
   45.4220   34.0230   45.0900 C   0  0  0  0  0  0  0  0  0  0  0  0
   44.8370   35.1970   45.3950 N   0  0  0  0  0  0  0  0  0  0  0  0
   48.4030   35.3370   42.1380 S   0  0  0  0  0  0  0  0  0  0  0  0
   44.1906   33.4881   40.8661 H   0  0  0  0  0  0  0  0  0  0  0  0
   44.7600   34.9939   40.0149 H   0  0  0  0  0  0  0  0  0  0  0  0
   45.7537   32.1693   39.6911 H   0  0  0  0  0  0  0  0  0  0  0  0
   44.9031   33.2660   38.4899 H   0  0  0  0  0  0  0  0  0  0  0  0
   47.3457   32.8450   38.4118 H   0  0  0  0  0  0  0  0  0  0  0  0
   48.7364   33.7974   39.5968 H   0  0  0  0  0  0  0  0  0  0  0  0
   47.7007   35.3329   39.5214 H   0  0  0  0  0  0  0  0  0  0  0  0
   47.6482   33.1059   41.4673 H   0  0  0  0  0  0  0  0  0  0  0  0
   44.1414   37.0495   44.7082 H   0  0  0  0  0  0  0  0  0  0  0  0
   44.7988   36.6151   42.3301 H   0  0  0  0  0  0  0  0  0  0  0  0
   45.6033   33.2770   45.8778 H   0  0  0  0  0  0  0  0  0  0  0  0
   48.2189   35.1162   43.4775 H   0  0  0  0  0  0  0  0  0  0  0  0
  1  9  1  0
  2  1  1  0
  3  2  1  0
  4  3  1  0
  4  5  1  0
  5  6  1  0
  6  1  1  0
  6 13  1  0
  7 12  2  0
  8  7  1  0
  9  8  2  0
  9 10  1  0
 10 11  2  0
 11 12  1  0
  2 14  1  0
  2 15  1  0
  3 16  1  0
  3 17  1  0
  4 18  1  0
  5 19  1  0
  5 20  1  0
  6 21  1  1
  7 22  1  0
  8 23  1  0
 11 24  1  0
 13 25  1  0
M  ISO  8  14  13  15  13  16  13  17  13  18   5  19  13  20  13  21  13
M  ISO  4  22  14  23  14  24  14  25  11
M  END
>  <minimizedAffinity>  (1) 
-4.08075857

>  <minimizedRMSD>  (1) 
1.30521226

$$$$
