
     RDKit          3D

 26 28  0  0  0  0  0  0  0  0999 V2000
   45.2070   35.2310   43.9600 C   0  0  0  0  0  0  0  0  0  0  0  0
   46.1690   34.3480   43.4710 C   0  0  0  0  0  0  0  0  0  0  0  0
   46.6670   33.3610   44.3590 C   0  0  0  0  0  0  0  0  0  0  0  0
   46.1720   33.3480   45.6170 N   0  0  0  0  0  0  0  0  0  0  0  0
   45.2360   34.2280   46.0460 C   0  0  0  0  0  0  0  0  0  0  0  0
   44.7500   35.1800   45.2050 N   0  0  0  0  0  0  0  0  0  0  0  0
   47.9100   35.0650   41.9930 C   0  0  0  0  0  0  0  0  0  0  0  0
   46.7110   34.3520   42.1160 C   0  0  0  0  0  0  0  0  0  0  0  0
   46.2090   33.7630   40.9730 C   0  0  0  0  0  0  0  0  0  0  0  0
   46.9000   33.8990   39.7860 C   0  0  0  0  0  0  0  0  0  0  0  0
   46.5470   33.3870   38.5810 N   0  0  0  0  0  0  0  0  0  0  0  0
   47.5340   33.7940   37.7470 C   0  0  0  0  0  0  0  0  0  0  0  0
   48.4460   34.5150   38.3920 N   0  0  0  0  0  0  0  0  0  0  0  0
   48.0770   34.6020   39.6800 C   0  0  0  0  0  0  0  0  0  0  0  0
   48.5890   35.1950   40.8080 C   0  0  0  0  0  0  0  0  0  0  0  0
   44.6990   36.2620   43.0070 C   0  0  0  0  0  0  0  0  0  0  0  0
   47.4269   32.6339   44.0367 H   0  0  0  0  0  0  0  0  0  0  0  0
   44.8667   34.1724   47.0807 H   0  0  0  0  0  0  0  0  0  0  0  0
   48.3279   35.5443   42.8906 H   0  0  0  0  0  0  0  0  0  0  0  0
   45.2694   33.1920   41.0078 H   0  0  0  0  0  0  0  0  0  0  0  0
   45.7187   32.8191   38.3523 H   0  0  0  0  0  0  0  0  0  0  0  0
   47.5755   33.5581   36.6734 H   0  0  0  0  0  0  0  0  0  0  0  0
   49.5286   35.7651   40.7621 H   0  0  0  0  0  0  0  0  0  0  0  0
   44.2817   37.1090   43.5713 H   0  0  0  0  0  0  0  0  0  0  0  0
   45.5262   36.6153   42.3738 H   0  0  0  0  0  0  0  0  0  0  0  0
   43.9149   35.8213   42.3738 H   0  0  0  0  0  0  0  0  0  0  0  0
  1  6  2  0
  2  1  1  0
  2  3  2  0
  3  4  1  0
  4  5  2  0
  6  5  1  0
  7  8  2  0
  8  2  1  0
  9  8  1  0
 10  9  2  0
 11 10  1  0
 12 13  2  0
 12 11  1  0
 13 14  1  0
 14 10  1  0
 14 15  2  0
 15  7  1  0
 16  1  1  0
  3 17  1  0
  5 18  1  0
  7 19  1  0
  9 20  1  0
 11 21  1  0
 12 22  1  0
 15 23  1  0
 16 24  1  0
 16 25  1  0
 16 26  1  0
M  ISO  8  17  14  18  14  19  14  20  14  21   9  22  14  23  14  24   8
M  ISO  2  25   8  26   8
M  END
>  <minimizedAffinity>  (1) 
-5.39729929

>  <minimizedRMSD>  (1) 
1.68844903

$$$$
