
     RDKit          3D

 30 31  0  0  1  0  0  0  0  0999 V2000
   45.5160   35.2490   43.8100 C   0  0  0  0  0  0  0  0  0  0  0  0
   46.5900   34.4620   43.3410 C   0  0  0  0  0  0  0  0  0  0  0  0
   47.0280   33.4120   44.1540 C   0  0  0  0  0  0  0  0  0  0  0  0
   46.4000   33.2170   45.3330 N   0  0  0  0  0  0  0  0  0  0  0  0
   45.3730   33.9960   45.7470 C   0  0  0  0  0  0  0  0  0  0  0  0
   44.9380   35.0080   44.9800 N   0  0  0  0  0  0  0  0  0  0  0  0
   48.5980   34.0470   41.9460 C   0  0  1  0  0  0  0  0  0  0  0  0
   47.2710   34.7040   42.0190 C   0  0  1  0  0  0  0  0  0  0  0  0
   46.4250   34.5640   40.9650 O   0  0  0  0  0  0  0  0  0  0  0  0
   46.6140   33.5400   40.0950 C   0  0  0  0  0  0  0  0  0  0  0  0
   48.0790   33.5550   39.6430 C   0  0  2  0  0  0  0  0  0  0  0  0
   48.8040   33.0250   40.8890 C   0  0  1  0  0  0  0  0  0  0  0  0
   49.6530   34.9730   41.8090 O   0  0  0  0  0  0  0  0  0  0  0  0
   48.4770   34.8520   39.4150 O   0  0  0  0  0  0  0  0  0  0  0  0
   50.1380   32.9200   40.5440 O   0  0  0  0  0  0  0  0  0  0  0  0
   45.0640   36.3700   42.9190 C   0  0  0  0  0  0  0  0  0  0  0  0
   47.8601   32.7637   43.8419 H   0  0  0  0  0  0  0  0  0  0  0  0
   44.8927   33.7986   46.7167 H   0  0  0  0  0  0  0  0  0  0  0  0
   48.6086   33.5234   42.9133 H   0  0  0  0  0  0  0  0  0  0  0  0
   47.5411   35.7674   41.9400 H   0  0  0  0  0  0  0  0  0  0  0  0
   46.3877   32.5845   40.5907 H   0  0  0  0  0  0  0  0  0  0  0  0
   45.9487   33.6536   39.2264 H   0  0  0  0  0  0  0  0  0  0  0  0
   48.2687   32.9806   38.7243 H   0  0  0  0  0  0  0  0  0  0  0  0
   48.4425   32.0489   41.2447 H   0  0  0  0  0  0  0  0  0  0  0  0
   49.9680   35.2495   42.7059 H   0  0  0  0  0  0  0  0  0  0  0  0
   48.6178   35.3110   40.2808 H   0  0  0  0  0  0  0  0  0  0  0  0
   50.6889   32.8766   41.3654 H   0  0  0  0  0  0  0  0  0  0  0  0
   44.7235   37.2145   43.5362 H   0  0  0  0  0  0  0  0  0  0  0  0
   45.9017   36.6942   42.2840 H   0  0  0  0  0  0  0  0  0  0  0  0
   44.2357   36.0225   42.2840 H   0  0  0  0  0  0  0  0  0  0  0  0
  1  6  2  0
  2  1  1  0
  2  3  2  0
  3  4  1  0
  4  5  2  0
  6  5  1  0
  7 13  1  0
  7  8  1  0
  8  2  1  0
  9  8  1  0
 10  9  1  0
 11 14  1  0
 11 10  1  0
 11 12  1  0
 12 15  1  0
 12  7  1  0
 16  1  1  0
  3 17  1  0
  5 18  1  0
  7 19  1  1
  8 20  1  1
 10 21  1  0
 10 22  1  0
 11 23  1  6
 12 24  1  1
 13 25  1  0
 14 26  1  0
 15 27  1  0
 16 28  1  0
 16 29  1  0
 16 30  1  0
M  ISO  8  17  14  18  14  19  13  20  13  21  13  22  13  23  13  24  13
M  ISO  6  25   3  26   3  27   3  28   8  29   8  30   8
M  END
>  <minimizedAffinity>  (1) 
-5.35591507

>  <minimizedRMSD>  (1) 
1.13367665

$$$$
