
     RDKit          3D

 29 30  0  0  0  0  0  0  0  0999 V2000
   45.2260   35.3200   44.0760 C   0  0  0  0  0  0  0  0  0  0  0  0
   46.1030   34.2120   43.9960 C   0  0  0  0  0  0  0  0  0  0  0  0
   46.2000   33.3820   45.1240 C   0  0  0  0  0  0  0  0  0  0  0  0
   45.4550   33.6840   46.2190 N   0  0  0  0  0  0  0  0  0  0  0  0
   44.6330   34.7550   46.2420 C   0  0  0  0  0  0  0  0  0  0  0  0
   44.5060   35.5770   45.1880 N   0  0  0  0  0  0  0  0  0  0  0  0
   46.8900   33.9250   42.7900 C   0  0  0  0  0  0  0  0  0  0  0  0
   46.1700   34.2910   41.5140 C   0  0  0  0  0  0  0  0  0  0  0  0
   47.0450   34.1670   40.3200 C   0  0  0  0  0  0  0  0  0  0  0  0
   48.3490   34.9250   40.4420 C   0  0  0  0  0  0  0  0  0  0  0  0
   49.0620   34.2850   41.6180 C   0  0  0  0  0  0  0  0  0  0  0  0
   48.2090   34.6760   42.8330 C   0  0  0  0  0  0  0  0  0  0  0  0
   45.1360   36.1900   42.8710 C   0  0  0  0  0  0  0  0  0  0  0  0
   46.8651   32.5058   45.1212 H   0  0  0  0  0  0  0  0  0  0  0  0
   44.0498   34.9603   47.1518 H   0  0  0  0  0  0  0  0  0  0  0  0
   47.0580   32.8379   42.7846 H   0  0  0  0  0  0  0  0  0  0  0  0
   45.3057   33.6219   41.3907 H   0  0  0  0  0  0  0  0  0  0  0  0
   45.8549   35.3419   41.5938 H   0  0  0  0  0  0  0  0  0  0  0  0
   46.4986   34.5536   39.4470 H   0  0  0  0  0  0  0  0  0  0  0  0
   47.2999   33.1020   40.2167 H   0  0  0  0  0  0  0  0  0  0  0  0
   48.9454   34.8200   39.5237 H   0  0  0  0  0  0  0  0  0  0  0  0
   48.1897   36.0032   40.5904 H   0  0  0  0  0  0  0  0  0  0  0  0
   49.0998   33.1916   41.5034 H   0  0  0  0  0  0  0  0  0  0  0  0
   50.1059   34.6192   41.7107 H   0  0  0  0  0  0  0  0  0  0  0  0
   48.0151   35.7586   42.8115 H   0  0  0  0  0  0  0  0  0  0  0  0
   48.7475   34.4175   43.7567 H   0  0  0  0  0  0  0  0  0  0  0  0
   45.0275   37.2391   43.1835 H   0  0  0  0  0  0  0  0  0  0  0  0
   46.0504   36.0792   42.2697 H   0  0  0  0  0  0  0  0  0  0  0  0
   44.2636   35.8944   42.2697 H   0  0  0  0  0  0  0  0  0  0  0  0
  1  6  2  0
  2  1  1  0
  2  3  2  0
  3  4  1  0
  4  5  2  0
  6  5  1  0
  7 12  1  0
  7  2  1  0
  8  7  1  0
  9 10  1  0
  9  8  1  0
 10 11  1  0
 11 12  1  0
 13  1  1  0
  3 14  1  0
  5 15  1  0
  7 16  1  0
  8 17  1  0
  8 18  1  0
  9 19  1  0
  9 20  1  0
 10 21  1  0
 10 22  1  0
 11 23  1  0
 11 24  1  0
 12 25  1  0
 12 26  1  0
 13 27  1  0
 13 28  1  0
 13 29  1  0
M  ISO  8  14  14  15  14  16  13  17  13  18  13  19  13  20  13  21  13
M  ISO  8  22  13  23  13  24  13  25  13  26  13  27   8  28   8  29   8
M  END
>  <minimizedAffinity>  (1) 
-4.67728949

>  <minimizedRMSD>  (1) 
1.07833314

$$$$
