
     RDKit          3D

 20 21  0  0  0  0  0  0  0  0999 V2000
   45.6570   35.0980   43.6900 C   0  0  0  0  0  0  0  0  0  0  0  0
   46.7940   34.3790   43.3330 C   0  0  0  0  0  0  0  0  0  0  0  0
   47.2560   33.3680   44.2120 C   0  0  0  0  0  0  0  0  0  0  0  0
   46.5470   33.1760   45.3500 N   0  0  0  0  0  0  0  0  0  0  0  0
   45.4450   33.8940   45.6640 C   0  0  0  0  0  0  0  0  0  0  0  0
   44.9960   34.8560   44.8370 N   0  0  0  0  0  0  0  0  0  0  0  0
   47.4850   34.6690   42.0810 C   0  0  0  0  0  0  0  0  0  0  0  0
   47.2190   34.0190   40.8940 C   0  0  0  0  0  0  0  0  0  0  0  0
   48.0330   34.5080   39.8770 C   0  0  0  0  0  0  0  0  0  0  0  0
   48.7780   35.4510   40.4910 N   0  0  0  0  0  0  0  0  0  0  0  0
   48.4550   35.5470   41.7910 N   0  0  0  0  0  0  0  0  0  0  0  0
   45.1830   36.1620   42.7490 C   0  0  0  0  0  0  0  0  0  0  0  0
   48.1482   32.7675   43.9810 H   0  0  0  0  0  0  0  0  0  0  0  0
   44.9109   33.6899   46.6037 H   0  0  0  0  0  0  0  0  0  0  0  0
   46.4682   33.2249   40.7688 H   0  0  0  0  0  0  0  0  0  0  0  0
   48.0623   34.1989   38.8217 H   0  0  0  0  0  0  0  0  0  0  0  0
   49.4982   36.0210   40.0248 H   0  0  0  0  0  0  0  0  0  0  0  0
   44.8017   37.0179   43.3253 H   0  0  0  0  0  0  0  0  0  0  0  0
   46.0200   36.4904   42.1152 H   0  0  0  0  0  0  0  0  0  0  0  0
   44.3791   35.7594   42.1152 H   0  0  0  0  0  0  0  0  0  0  0  0
  1  6  2  0
  2  1  1  0
  2  3  2  0
  3  4  1  0
  4  5  2  0
  6  5  1  0
  7  2  1  0
  8  7  1  0
  9 10  1  0
  9  8  2  0
 10 11  1  0
 11  7  2  0
 12  1  1  0
  3 13  1  0
  5 14  1  0
  8 15  1  0
  9 16  1  0
 10 17  1  0
 12 18  1  0
 12 19  1  0
 12 20  1  0
M  ISO  8  13  14  14  14  15  14  16  14  17   9  18   8  19   8  20   8
M  END
>  <minimizedAffinity>  (1) 
-4.36446333

>  <minimizedRMSD>  (1) 
0.823021293

$$$$
