
     RDKit          3D

 14 14  0  0  0  0  0  0  0  0999 V2000
   45.4240   35.0960   44.0070 C   0  0  0  0  0  0  0  0  0  0  0  0
   46.4990   34.3330   43.5060 C   0  0  0  0  0  0  0  0  0  0  0  0
   47.0220   33.3130   44.3240 C   0  0  0  0  0  0  0  0  0  0  0  0
   46.4630   33.1290   45.5390 N   0  0  0  0  0  0  0  0  0  0  0  0
   45.4280   33.8840   45.9890 C   0  0  0  0  0  0  0  0  0  0  0  0
   44.9110   34.8600   45.2290 N   0  0  0  0  0  0  0  0  0  0  0  0
   44.8850   36.1720   43.1220 C   0  0  0  0  0  0  0  0  0  0  0  0
   47.1430   34.6920   41.8640 S   0  0  0  0  0  0  0  0  0  0  0  0
   47.8594   32.6861   43.9838 H   0  0  0  0  0  0  0  0  0  0  0  0
   45.0092   33.6928   46.9880 H   0  0  0  0  0  0  0  0  0  0  0  0
   44.4775   36.9854   43.7403 H   0  0  0  0  0  0  0  0  0  0  0  0
   45.6933   36.5637   42.4870 H   0  0  0  0  0  0  0  0  0  0  0  0
   44.0873   35.7592   42.4870 H   0  0  0  0  0  0  0  0  0  0  0  0
   48.3356   35.3568   41.9765 H   0  0  0  0  0  0  0  0  0  0  0  0
  1  6  2  0
  2  1  1  0
  2  3  2  0
  3  4  1  0
  4  5  2  0
  6  5  1  0
  7  1  1  0
  8  2  1  0
  3  9  1  0
  5 10  1  0
  7 11  1  0
  7 12  1  0
  7 13  1  0
  8 14  1  0
M  ISO  6   9  14  10  14  11   8  12   8  13   8  14  11
M  END
>  <minimizedAffinity>  (1) 
-2.93902087

>  <minimizedRMSD>  (1) 
0.0373786502

$$$$
