
     RDKit          3D

 15 15  0  0  0  0  0  0  0  0999 V2000
   45.4280   35.1920   43.8720 C   0  0  0  0  0  0  0  0  0  0  0  0
   46.5190   34.5020   43.3510 C   0  0  0  0  0  0  0  0  0  0  0  0
   47.0890   33.4760   44.1140 C   0  0  0  0  0  0  0  0  0  0  0  0
   46.5390   33.2160   45.3170 N   0  0  0  0  0  0  0  0  0  0  0  0
   45.4750   33.9010   45.8070 C   0  0  0  0  0  0  0  0  0  0  0  0
   44.9220   34.8990   45.0640 N   0  0  0  0  0  0  0  0  0  0  0  0
   44.8390   36.2820   43.0390 C   0  0  0  0  0  0  0  0  0  0  0  0
   47.0230   34.8440   42.0870 N   0  0  0  0  0  0  0  0  0  0  0  0
   47.9531   32.9035   43.7458 H   0  0  0  0  0  0  0  0  0  0  0  0
   45.0628   33.6521   46.7960 H   0  0  0  0  0  0  0  0  0  0  0  0
   44.4193   37.0588   43.6951 H   0  0  0  0  0  0  0  0  0  0  0  0
   45.6220   36.7221   42.4041 H   0  0  0  0  0  0  0  0  0  0  0  0
   44.0417   35.8682   42.4041 H   0  0  0  0  0  0  0  0  0  0  0  0
   47.8302   34.3349   41.6994 H   0  0  0  0  0  0  0  0  0  0  0  0
   46.5858   35.6042   41.5467 H   0  0  0  0  0  0  0  0  0  0  0  0
  1  6  2  0
  2  1  1  0
  2  3  2  0
  3  4  1  0
  4  5  2  0
  6  5  1  0
  7  1  1  0
  8  2  1  0
  3  9  1  0
  5 10  1  0
  7 11  1  0
  7 12  1  0
  7 13  1  0
  8 14  1  0
  8 15  1  0
M  ISO  5   9  14  10  14  11   8  12   8  13   8
M  END
>  <minimizedAffinity>  (1) 
-2.91036487

>  <minimizedRMSD>  (1) 
0.241179913

$$$$
