
     RDKit          3D

 30 31  0  0  1  0  0  0  0  0999 V2000
   46.6910   33.8710   42.2460 C   0  0  1  0  0  0  0  0  0  0  0  0
   46.2700   35.2570   42.7050 C   0  0  0  0  0  0  0  0  0  0  0  0
   44.7560   35.2200   42.7850 C   0  0  0  0  0  0  0  0  0  0  0  0
   44.2650   35.1560   41.3650 C   0  0  0  0  0  0  0  0  0  0  0  0
   44.8270   34.0560   40.5790 C   0  0  0  0  0  0  0  0  0  0  0  0
   46.2590   33.6470   40.8360 C   0  0  1  0  0  0  0  0  0  0  0  0
   50.4550   34.4620   42.5710 C   0  0  0  0  0  0  0  0  0  0  0  0
   49.0870   34.7220   42.5100 C   0  0  0  0  0  0  0  0  0  0  0  0
   48.1510   33.7020   42.3440 C   0  0  0  0  0  0  0  0  0  0  0  0
   48.6800   32.4730   42.2520 N   0  0  0  0  0  0  0  0  0  0  0  0
   49.9710   32.1830   42.3050 C   0  0  0  0  0  0  0  0  0  0  0  0
   50.8810   33.1830   42.4660 N   0  0  0  0  0  0  0  0  0  0  0  0
   47.1010   34.2990   39.9740 O   0  0  0  0  0  0  0  0  0  0  0  0
   47.4880   33.6930   38.8290 C   0  0  0  0  0  0  0  0  0  0  0  0
   48.0860   34.6800   37.9940 F   0  0  0  0  0  0  0  0  0  0  0  0
   48.5550   32.8320   39.1570 F   0  0  0  0  0  0  0  0  0  0  0  0
   46.6200   33.0210   38.0590 F   0  0  0  0  0  0  0  0  0  0  0  0
   46.2072   33.1334   42.9032 H   0  0  0  0  0  0  0  0  0  0  0  0
   46.7009   35.4817   43.6918 H   0  0  0  0  0  0  0  0  0  0  0  0
   46.6213   36.0378   42.0143 H   0  0  0  0  0  0  0  0  0  0  0  0
   44.4248   34.3323   43.3439 H   0  0  0  0  0  0  0  0  0  0  0  0
   44.3594   36.1027   43.3080 H   0  0  0  0  0  0  0  0  0  0  0  0
   43.1712   35.0412   41.3842 H   0  0  0  0  0  0  0  0  0  0  0  0
   44.5903   36.0873   40.8784 H   0  0  0  0  0  0  0  0  0  0  0  0
   44.7562   34.3439   39.5197 H   0  0  0  0  0  0  0  0  0  0  0  0
   44.2368   33.1785   40.8817 H   0  0  0  0  0  0  0  0  0  0  0  0
   46.3114   32.5625   40.6593 H   0  0  0  0  0  0  0  0  0  0  0  0
   51.1754   35.2829   42.7023 H   0  0  0  0  0  0  0  0  0  0  0  0
   48.7360   35.7610   42.5952 H   0  0  0  0  0  0  0  0  0  0  0  0
   50.3067   31.1390   42.2193 H   0  0  0  0  0  0  0  0  0  0  0  0
  1  9  1  0
  1  2  1  0
  2  3  1  0
  4  3  1  0
  5  6  1  0
  5  4  1  0
  6  1  1  0
  8  7  2  0
  9  8  1  0
 10 11  1  0
 10  9  2  0
 11 12  2  0
 12  7  1  0
 13  6  1  0
 14 16  1  0
 14 13  1  0
 15 14  1  0
 17 14  1  0
  1 18  1  1
  2 19  1  0
  2 20  1  0
  3 21  1  0
  3 22  1  0
  4 23  1  0
  4 24  1  0
  5 25  1  0
  5 26  1  0
  6 27  1  6
  7 28  1  0
  8 29  1  0
 11 30  1  0
M  ISO  8  18  13  19  13  20  13  21  13  22  13  23  13  24  13  25  13
M  ISO  5  26  13  27  13  28  14  29  14  30  14
M  END
>  <minimizedAffinity>  (1) 
-4.2839222

>  <minimizedRMSD>  (1) 
5.15974855

$$$$
