
     RDKit          3D

 46 49  0  0  1  0  0  0  0  0999 V2000
   45.7090   34.2360   43.2830 C   0  0  0  0  0  0  0  0  0  0  0  0
   46.8440   33.4540   43.4220 C   0  0  0  0  0  0  0  0  0  0  0  0
   47.1650   33.0370   44.7290 C   0  0  0  0  0  0  0  0  0  0  0  0
   46.3710   33.4120   45.7630 N   0  0  0  0  0  0  0  0  0  0  0  0
   45.2840   34.1720   45.5680 C   0  0  0  0  0  0  0  0  0  0  0  0
   44.9710   34.5690   44.3500 N   0  0  0  0  0  0  0  0  0  0  0  0
   48.8910   33.9530   42.0900 C   0  0  2  0  0  0  0  0  0  0  0  0
   47.6820   32.9940   42.2800 C   0  0  1  0  0  0  0  0  0  0  0  0
   48.1310   31.7340   42.3420 O   0  0  0  0  0  0  0  0  0  0  0  0
   49.4910   31.7110   42.5180 C   0  0  0  0  0  0  0  0  0  0  0  0
   49.9700   32.9000   41.7370 C   0  0  1  0  0  0  0  0  0  0  0  0
   49.2460   34.6470   43.1740 O   0  0  0  0  0  0  0  0  0  0  0  0
   49.9150   32.5590   40.4010 O   0  0  0  0  0  0  0  0  0  0  0  0
   45.3630   34.6950   41.9120 C   0  0  0  0  0  0  0  0  0  0  0  0
   43.9450   32.2120   41.6680 F   0  0  0  0  0  0  0  0  0  0  0  0
   43.3090   33.3640   41.5020 C   0  0  0  0  0  0  0  0  0  0  0  0
   43.9220   34.5870   41.6140 C   0  0  0  0  0  0  0  0  0  0  0  0
   43.1930   35.7520   41.4520 C   0  0  0  0  0  0  0  0  0  0  0  0
   41.8490   35.6120   41.1770 C   0  0  0  0  0  0  0  0  0  0  0  0
   41.1660   34.4110   41.0480 C   0  0  0  0  0  0  0  0  0  0  0  0
   41.9330   33.2520   41.2180 C   0  0  0  0  0  0  0  0  0  0  0  0
   41.9210   31.8890   38.5110 Cl  0  0  0  0  0  0  0  0  0  0  0  0
   41.1950   31.1910   39.9470 C   0  0  0  0  0  0  0  0  0  0  0  0
   41.2920   31.9460   41.0970 C   0  0  0  0  0  0  0  0  0  0  0  0
   40.7570   31.5100   42.3060 C   0  0  0  0  0  0  0  0  0  0  0  0
   40.1130   30.2710   42.3270 C   0  0  0  0  0  0  0  0  0  0  0  0
   40.0190   29.5200   41.1730 C   0  0  0  0  0  0  0  0  0  0  0  0
   40.5530   29.9640   39.9800 C   0  0  0  0  0  0  0  0  0  0  0  0
   48.0523   32.4124   44.9095 H   0  0  0  0  0  0  0  0  0  0  0  0
   44.6548   34.4637   46.4218 H   0  0  0  0  0  0  0  0  0  0  0  0
   48.7000   34.7547   41.3615 H   0  0  0  0  0  0  0  0  0  0  0  0
   46.9968   33.0131   41.4197 H   0  0  0  0  0  0  0  0  0  0  0  0
   49.7507   31.8101   43.5823 H   0  0  0  0  0  0  0  0  0  0  0  0
   49.9486   30.7683   42.1835 H   0  0  0  0  0  0  0  0  0  0  0  0
   50.9917   33.2476   41.9498 H   0  0  0  0  0  0  0  0  0  0  0  0
   48.9886   34.1439   43.9869 H   0  0  0  0  0  0  0  0  0  0  0  0
   49.7580   31.5853   40.3151 H   0  0  0  0  0  0  0  0  0  0  0  0
   45.6644   35.7478   41.8084 H   0  0  0  0  0  0  0  0  0  0  0  0
   45.8952   34.0437   41.2030 H   0  0  0  0  0  0  0  0  0  0  0  0
   43.6633   36.7426   41.5385 H   0  0  0  0  0  0  0  0  0  0  0  0
   41.2657   36.5357   41.0483 H   0  0  0  0  0  0  0  0  0  0  0  0
   40.0893   34.3719   40.8261 H   0  0  0  0  0  0  0  0  0  0  0  0
   40.8390   32.1222   43.2162 H   0  0  0  0  0  0  0  0  0  0  0  0
   39.6800   29.8931   43.2649 H   0  0  0  0  0  0  0  0  0  0  0  0
   39.5075   28.5466   41.2045 H   0  0  0  0  0  0  0  0  0  0  0  0
   40.4700   29.3527   39.0693 H   0  0  0  0  0  0  0  0  0  0  0  0
  1  2  1  0
  1  6  2  0
  2  3  2  0
  3  4  1  0
  5  4  2  0
  6  5  1  0
  7  8  1  0
  7 12  1  0
  8  9  1  0
  8  2  1  0
  9 10  1  0
 11  7  1  0
 11 10  1  0
 13 11  1  0
 14  1  1  0
 16 17  2  0
 16 15  1  0
 17 14  1  0
 18 17  1  0
 19 18  2  0
 20 19  1  0
 20 21  2  0
 21 16  1  0
 22 23  1  0
 23 28  2  0
 23 24  1  0
 24 21  1  0
 24 25  2  0
 25 26  1  0
 27 26  2  0
 28 27  1  0
  3 29  1  0
  5 30  1  0
  7 31  1  6
  8 32  1  6
 10 33  1  0
 10 34  1  0
 11 35  1  1
 12 36  1  0
 13 37  1  0
 14 38  1  0
 14 39  1  0
 18 40  1  0
 19 41  1  0
 20 42  1  0
 25 43  1  0
 26 44  1  0
 27 45  1  0
 28 46  1  0
M  ISO  8  29  14  30  14  31  13  32  13  33  13  34  13  35  13  36   3
M  ISO  8  37   3  38   8  39   8  40  14  41  14  42  14  43  14  44  14
M  ISO  2  45  14  46  14
M  END
>  <minimizedAffinity>  (1) 
-6.07036638

>  <minimizedRMSD>  (1) 
2.33840036

$$$$
