
     RDKit          3D

 37 39  0  0  1  0  0  0  0  0999 V2000
   46.1510   34.4330   43.4120 C   0  0  0  0  0  0  0  0  0  0  0  0
   47.1230   33.4500   43.4750 C   0  0  0  0  0  0  0  0  0  0  0  0
   47.2390   32.7560   44.6950 C   0  0  0  0  0  0  0  0  0  0  0  0
   46.4130   33.0750   45.7240 N   0  0  0  0  0  0  0  0  0  0  0  0
   45.4890   34.0390   45.6040 C   0  0  0  0  0  0  0  0  0  0  0  0
   45.3700   34.6960   44.4670 N   0  0  0  0  0  0  0  0  0  0  0  0
   49.2120   34.0170   42.2350 C   0  0  2  0  0  0  0  0  0  0  0  0
   47.9890   33.0600   42.3270 C   0  0  1  0  0  0  0  0  0  0  0  0
   48.4250   31.7940   42.3150 O   0  0  0  0  0  0  0  0  0  0  0  0
   49.7790   31.7450   42.5240 C   0  0  0  0  0  0  0  0  0  0  0  0
   50.2900   32.9780   41.8410 C   0  0  1  0  0  0  0  0  0  0  0  0
   49.5410   34.6330   43.3730 O   0  0  0  0  0  0  0  0  0  0  0  0
   50.2690   32.7340   40.4820 O   0  0  0  0  0  0  0  0  0  0  0  0
   46.0260   35.1860   42.1340 C   0  0  0  0  0  0  0  0  0  0  0  0
   45.7100   33.1800   40.1040 F   0  0  0  0  0  0  0  0  0  0  0  0
   44.6860   33.9460   40.4560 C   0  0  0  0  0  0  0  0  0  0  0  0
   44.7660   34.9170   41.4240 C   0  0  0  0  0  0  0  0  0  0  0  0
   43.6520   35.6650   41.7510 C   0  0  0  0  0  0  0  0  0  0  0  0
   42.4850   35.3900   41.0660 C   0  0  0  0  0  0  0  0  0  0  0  0
   42.3370   34.4270   40.0810 C   0  0  0  0  0  0  0  0  0  0  0  0
   43.4850   33.6880   39.7740 C   0  0  0  0  0  0  0  0  0  0  0  0
   43.3880   32.4240   38.5140 S   0  0  0  0  0  0  0  0  0  0  0  0
   47.9919   31.9628   44.8130 H   0  0  0  0  0  0  0  0  0  0  0  0
   44.8317   34.2813   46.4521 H   0  0  0  0  0  0  0  0  0  0  0  0
   49.0505   34.8681   41.5572 H   0  0  0  0  0  0  0  0  0  0  0  0
   47.3280   33.1454   41.4519 H   0  0  0  0  0  0  0  0  0  0  0  0
   50.0108   31.7677   43.5991 H   0  0  0  0  0  0  0  0  0  0  0  0
   50.2366   30.8228   42.1364 H   0  0  0  0  0  0  0  0  0  0  0  0
   51.3091   33.2956   42.1065 H   0  0  0  0  0  0  0  0  0  0  0  0
   49.2475   34.0835   44.1425 H   0  0  0  0  0  0  0  0  0  0  0  0
   50.1852   31.7605   40.3228 H   0  0  0  0  0  0  0  0  0  0  0  0
   46.0796   36.2621   42.3555 H   0  0  0  0  0  0  0  0  0  0  0  0
   46.8467   34.8576   41.4794 H   0  0  0  0  0  0  0  0  0  0  0  0
   43.6926   36.4464   42.5241 H   0  0  0  0  0  0  0  0  0  0  0  0
   41.5974   35.9862   41.3243 H   0  0  0  0  0  0  0  0  0  0  0  0
   41.3772   34.2541   39.5721 H   0  0  0  0  0  0  0  0  0  0  0  0
   43.2935   31.1932   39.1082 H   0  0  0  0  0  0  0  0  0  0  0  0
  1  2  1  0
  1  6  2  0
  2  3  2  0
  3  4  1  0
  5  4  2  0
  6  5  1  0
  7  8  1  0
  7 12  1  0
  8  2  1  0
  9  8  1  0
  9 10  1  0
 11  7  1  0
 11 10  1  0
 13 11  1  0
 14  1  1  0
 15 16  1  0
 16 17  2  0
 17 18  1  0
 17 14  1  0
 19 18  2  0
 20 19  1  0
 21 20  2  0
 21 16  1  0
 22 21  1  0
  3 23  1  0
  5 24  1  0
  7 25  1  6
  8 26  1  6
 10 27  1  0
 10 28  1  0
 11 29  1  1
 12 30  1  0
 13 31  1  0
 14 32  1  0
 14 33  1  0
 18 34  1  0
 19 35  1  0
 20 36  1  0
 22 37  1  0
M  ISO  8  23  14  24  14  25  13  26  13  27  13  28  13  29  13  30   3
M  ISO  7  31   3  32   8  33   8  34  14  35  14  36  14  37  11
M  END
>  <minimizedAffinity>  (1) 
-5.72838116

>  <minimizedRMSD>  (1) 
0.0336545855

$$$$
