
     RDKit          3D

 36 38  0  0  1  0  0  0  0  0999 V2000
   44.3040   34.6630   41.4670 N   0  0  0  0  0  0  0  0  0  0  0  0
   43.9810   35.4090   42.6790 C   0  0  0  0  0  0  0  0  0  0  0  0
   45.1940   35.7900   43.4730 C   0  0  0  0  0  0  0  0  0  0  0  0
   46.1060   34.7330   43.6460 N   0  0  0  0  0  0  0  0  0  0  0  0
   46.2970   33.8360   42.5830 C   0  0  0  0  0  0  0  0  0  0  0  0
   45.6680   34.3750   41.2910 C   0  0  1  0  0  0  0  0  0  0  0  0
   42.5830   33.1470   40.8750 C   0  0  0  0  0  0  0  0  0  0  0  0
   43.2250   34.3500   40.6300 C   0  0  0  0  0  0  0  0  0  0  0  0
   42.7560   35.1220   39.5730 C   0  0  0  0  0  0  0  0  0  0  0  0
   41.7050   34.6800   38.8310 N   0  0  0  0  0  0  0  0  0  0  0  0
   41.1060   33.4990   39.1030 C   0  0  0  0  0  0  0  0  0  0  0  0
   41.5440   32.7320   40.1260 N   0  0  0  0  0  0  0  0  0  0  0  0
   46.2350   33.8420   40.1390 N   0  0  0  0  0  0  0  0  0  0  0  0
   46.1340   32.4240   39.9050 C   0  0  0  0  0  0  0  0  0  0  0  0
   46.9780   32.2920   38.6510 C   0  0  0  0  0  0  0  0  0  0  0  0
   48.2230   33.0480   39.1230 C   0  0  0  0  0  0  0  0  0  0  0  0
   47.5970   34.2200   39.8390 C   0  0  0  0  0  0  0  0  0  0  0  0
   43.4463   36.3270   42.3936 H   0  0  0  0  0  0  0  0  0  0  0  0
   43.3645   34.7551   43.3134 H   0  0  0  0  0  0  0  0  0  0  0  0
   45.7076   36.6112   42.9517 H   0  0  0  0  0  0  0  0  0  0  0  0
   44.8461   36.0844   44.4742 H   0  0  0  0  0  0  0  0  0  0  0  0
   47.0222   35.1529   43.8587 H   0  0  0  0  0  0  0  0  0  0  0  0
   47.3757   33.6899   42.4246 H   0  0  0  0  0  0  0  0  0  0  0  0
   45.8130   32.8816   42.8376 H   0  0  0  0  0  0  0  0  0  0  0  0
   45.9641   35.4000   41.0231 H   0  0  0  0  0  0  0  0  0  0  0  0
   42.9316   32.5136   41.7040 H   0  0  0  0  0  0  0  0  0  0  0  0
   43.2324   36.0852   39.3380 H   0  0  0  0  0  0  0  0  0  0  0  0
   40.2583   33.1608   38.4890 H   0  0  0  0  0  0  0  0  0  0  0  0
   46.5531   31.8434   40.7400 H   0  0  0  0  0  0  0  0  0  0  0  0
   45.1053   32.0468   39.8079 H   0  0  0  0  0  0  0  0  0  0  0  0
   46.5060   32.7751   37.7828 H   0  0  0  0  0  0  0  0  0  0  0  0
   47.1517   31.2632   38.3025 H   0  0  0  0  0  0  0  0  0  0  0  0
   48.8319   32.4367   39.8053 H   0  0  0  0  0  0  0  0  0  0  0  0
   48.9154   33.3283   38.3156 H   0  0  0  0  0  0  0  0  0  0  0  0
   48.1450   34.4334   40.7686 H   0  0  0  0  0  0  0  0  0  0  0  0
   47.6288   35.1271   39.2175 H   0  0  0  0  0  0  0  0  0  0  0  0
  1  2  1  0
  2  3  1  0
  3  4  1  0
  5  4  1  0
  6  1  1  0
  6  5  1  0
  8  7  2  0
  8  1  1  0
  9  8  1  0
 10 11  1  0
 10  9  2  0
 11 12  2  0
 12  7  1  0
 13 14  1  0
 13  6  1  0
 15 16  1  0
 15 14  1  0
 16 17  1  0
 17 13  1  0
  2 18  1  0
  2 19  1  0
  3 20  1  0
  3 21  1  0
  4 22  1  0
  5 23  1  0
  5 24  1  0
  6 25  1  6
  7 26  1  0
  9 27  1  0
 11 28  1  0
 14 29  1  0
 14 30  1  0
 15 31  1  0
 15 32  1  0
 16 33  1  0
 16 34  1  0
 17 35  1  0
 17 36  1  0
M  ISO  8  18  13  19  13  20  13  21  13  22   5  23  13  24  13  25  13
M  ISO  8  26  14  27  14  28  14  29  13  30  13  31  13  32  13  33  13
M  ISO  3  34  13  35  13  36  13
M  END
>  <minimizedAffinity>  (1) 
-3.81066847

>  <minimizedRMSD>  (1) 
5.46777344

$$$$
