
     RDKit          3D

 43 45  0  0  1  0  0  0  0  0999 V2000
   45.6110   32.7950   42.6760 N   0  0  0  0  0  0  0  0  0  0  0  0
   44.3140   32.2200   42.3360 C   0  0  0  0  0  0  0  0  0  0  0  0
   43.9780   32.3550   40.8840 C   0  0  0  0  0  0  0  0  0  0  0  0
   44.2150   33.6380   40.3610 N   0  0  0  0  0  0  0  0  0  0  0  0
   45.3150   34.3510   40.8470 C   0  0  0  0  0  0  0  0  0  0  0  0
   46.2790   33.4170   41.6060 C   0  0  1  0  0  0  0  0  0  0  0  0
   47.5630   33.9480   41.6640 N   0  0  0  0  0  0  0  0  0  0  0  0
   47.9940   34.6980   42.8020 C   0  0  0  0  0  0  0  0  0  0  0  0
   49.3730   35.1450   42.3360 C   0  0  0  0  0  0  0  0  0  0  0  0
   48.9900   35.7070   40.9760 C   0  0  0  0  0  0  0  0  0  0  0  0
   48.0360   34.6300   40.4850 C   0  0  1  0  0  0  0  0  0  0  0  0
   47.4980   34.2620   37.7910 N   0  0  0  0  0  0  0  0  0  0  0  0
   48.5480   33.6950   38.2840 C   0  0  0  0  0  0  0  0  0  0  0  0
   48.7760   33.6320   39.7050 N   0  0  0  0  0  0  0  0  0  0  0  0
   49.5480   33.0940   37.4400 N   0  0  0  0  0  0  0  0  0  0  0  0
   47.2890   34.3330   36.7670 H   0  0  0  0  0  0  0  0  0  0  0  0
   45.5450   33.5770   44.9150 C   0  0  0  0  0  0  0  0  0  0  0  0
   46.0220   32.6570   44.0120 C   0  0  0  0  0  0  0  0  0  0  0  0
   46.8660   31.6730   44.4880 C   0  0  0  0  0  0  0  0  0  0  0  0
   47.2050   31.6270   45.7990 N   0  0  0  0  0  0  0  0  0  0  0  0
   46.7140   32.5520   46.6620 C   0  0  0  0  0  0  0  0  0  0  0  0
   45.8930   33.5140   46.2160 N   0  0  0  0  0  0  0  0  0  0  0  0
   44.3254   31.1511   42.5954 H   0  0  0  0  0  0  0  0  0  0  0  0
   43.5501   32.7717   42.9036 H   0  0  0  0  0  0  0  0  0  0  0  0
   44.5862   31.6331   40.3193 H   0  0  0  0  0  0  0  0  0  0  0  0
   42.8988   32.1653   40.7872 H   0  0  0  0  0  0  0  0  0  0  0  0
   43.3756   34.2049   40.5477 H   0  0  0  0  0  0  0  0  0  0  0  0
   45.8486   34.8112   40.0023 H   0  0  0  0  0  0  0  0  0  0  0  0
   44.9555   35.1261   41.5398 H   0  0  0  0  0  0  0  0  0  0  0  0
   46.5774   32.4968   41.0824 H   0  0  0  0  0  0  0  0  0  0  0  0
   47.3335   35.5559   42.9965 H   0  0  0  0  0  0  0  0  0  0  0  0
   47.9902   34.1369   43.7481 H   0  0  0  0  0  0  0  0  0  0  0  0
   49.8023   35.9142   42.9948 H   0  0  0  0  0  0  0  0  0  0  0  0
   50.1467   34.3631   42.3254 H   0  0  0  0  0  0  0  0  0  0  0  0
   48.4887   36.6819   41.0668 H   0  0  0  0  0  0  0  0  0  0  0  0
   49.8407   35.9032   40.3068 H   0  0  0  0  0  0  0  0  0  0  0  0
   47.2338   35.0740   39.8773 H   0  0  0  0  0  0  0  0  0  0  0  0
   49.4070   32.9426   40.1380 H   0  0  0  0  0  0  0  0  0  0  0  0
   50.3761   32.6482   37.8600 H   0  0  0  0  0  0  0  0  0  0  0  0
   49.4351   33.1099   36.4163 H   0  0  0  0  0  0  0  0  0  0  0  0
   44.8704   34.3752   44.5716 H   0  0  0  0  0  0  0  0  0  0  0  0
   47.2673   30.9185   43.7954 H   0  0  0  0  0  0  0  0  0  0  0  0
   46.9891   32.5128   47.7263 H   0  0  0  0  0  0  0  0  0  0  0  0
  1 18  1  0
  2  1  1  0
  3  2  1  0
  4  5  1  0
  4  3  1  0
  5  6  1  0
  6  7  1  0
  6  1  1  0
  7  8  1  0
  9  8  1  0
 10  9  1  0
 11 10  1  0
 11  7  1  0
 12 13  2  0
 13 14  1  0
 14 11  1  0
 15 13  1  0
 16 12  1  0
 17 22  2  0
 18 19  2  0
 18 17  1  0
 19 20  1  0
 20 21  2  0
 22 21  1  0
  2 23  1  0
  2 24  1  0
  3 25  1  0
  3 26  1  0
  4 27  1  0
  5 28  1  0
  5 29  1  0
  6 30  1  6
  8 31  1  0
  8 32  1  0
  9 33  1  0
  9 34  1  0
 10 35  1  0
 10 36  1  0
 11 37  1  6
 14 38  1  0
 15 39  1  0
 15 40  1  0
 17 41  1  0
 19 42  1  0
 21 43  1  0
M  ISO  8  23  13  24  13  25  13  26  13  27   5  28  13  29  13  30  13
M  ISO  8  31  13  32  13  33  13  34  13  35  13  36  13  37  13  41  14
M  ISO  2  42  14  43  14
M  END
>  <minimizedAffinity>  (1) 
-5.45283747

>  <minimizedRMSD>  (1) 
4.84351969

$$$$
