
     RDKit          3D

 37 39  0  0  1  0  0  0  0  0999 V2000
   44.2230   34.6900   41.3610 N   0  0  0  0  0  0  0  0  0  0  0  0
   44.1460   35.6690   42.4400 C   0  0  0  0  0  0  0  0  0  0  0  0
   45.4810   35.9470   43.0670 C   0  0  0  0  0  0  0  0  0  0  0  0
   46.1990   34.7830   43.3710 N   0  0  0  0  0  0  0  0  0  0  0  0
   46.1360   33.7110   42.4720 C   0  0  0  0  0  0  0  0  0  0  0  0
   45.5060   34.1550   41.1410 C   0  0  1  0  0  0  0  0  0  0  0  0
   45.8470   33.2930   40.0900 N   0  0  0  0  0  0  0  0  0  0  0  0
   45.5260   31.9160   40.1560 C   0  0  0  0  0  0  0  0  0  0  0  0
   46.1980   31.4090   38.8900 C   0  0  0  0  0  0  0  0  0  0  0  0
   47.5740   32.0370   39.0830 C   0  0  0  0  0  0  0  0  0  0  0  0
   47.1910   33.4100   39.5900 C   0  0  1  0  0  0  0  0  0  0  0  0
   47.1170   34.2440   38.4540 O   0  0  0  0  0  0  0  0  0  0  0  0
   42.2070   33.4340   41.2020 C   0  0  0  0  0  0  0  0  0  0  0  0
   43.0240   34.4050   40.6840 C   0  0  0  0  0  0  0  0  0  0  0  0
   42.6040   35.0460   39.5130 C   0  0  0  0  0  0  0  0  0  0  0  0
   41.4310   34.6920   38.9430 N   0  0  0  0  0  0  0  0  0  0  0  0
   40.6510   33.7240   39.4890 C   0  0  0  0  0  0  0  0  0  0  0  0
   41.0540   33.1100   40.6110 N   0  0  0  0  0  0  0  0  0  0  0  0
   43.7454   36.6095   42.0338 H   0  0  0  0  0  0  0  0  0  0  0  0
   43.4929   35.2519   43.2207 H   0  0  0  0  0  0  0  0  0  0  0  0
   46.0764   36.5531   42.3683 H   0  0  0  0  0  0  0  0  0  0  0  0
   45.2948   36.4741   44.0144 H   0  0  0  0  0  0  0  0  0  0  0  0
   47.1900   35.0499   43.4585 H   0  0  0  0  0  0  0  0  0  0  0  0
   47.1533   33.3375   42.2833 H   0  0  0  0  0  0  0  0  0  0  0  0
   45.5137   32.9172   42.9108 H   0  0  0  0  0  0  0  0  0  0  0  0
   45.9477   35.0492   40.6770 H   0  0  0  0  0  0  0  0  0  0  0  0
   45.9479   31.4441   41.0556 H   0  0  0  0  0  0  0  0  0  0  0  0
   44.4491   31.7007   40.2189 H   0  0  0  0  0  0  0  0  0  0  0  0
   45.6995   31.7788   37.9819 H   0  0  0  0  0  0  0  0  0  0  0  0
   46.1907   30.3173   38.7550 H   0  0  0  0  0  0  0  0  0  0  0  0
   48.1710   31.4842   39.8233 H   0  0  0  0  0  0  0  0  0  0  0  0
   48.2019   32.0441   38.1798 H   0  0  0  0  0  0  0  0  0  0  0  0
   47.8920   33.7903   40.3476 H   0  0  0  0  0  0  0  0  0  0  0  0
   47.0333   35.1874   38.7421 H   0  0  0  0  0  0  0  0  0  0  0  0
   42.5068   32.9114   42.1224 H   0  0  0  0  0  0  0  0  0  0  0  0
   43.2247   35.8329   39.0595 H   0  0  0  0  0  0  0  0  0  0  0  0
   39.6978   33.4461   39.0156 H   0  0  0  0  0  0  0  0  0  0  0  0
  1  2  1  0
  2  3  1  0
  3  4  1  0
  5  4  1  0
  6  1  1  0
  6  5  1  0
  7  8  1  0
  7  6  1  0
  9 10  1  0
  9  8  1  0
 10 11  1  0
 11  7  1  0
 12 11  1  0
 14 13  2  0
 14  1  1  0
 15 14  1  0
 16 17  1  0
 16 15  2  0
 17 18  2  0
 18 13  1  0
  2 19  1  0
  2 20  1  0
  3 21  1  0
  3 22  1  0
  4 23  1  0
  5 24  1  0
  5 25  1  0
  6 26  1  6
  8 27  1  0
  8 28  1  0
  9 29  1  0
  9 30  1  0
 10 31  1  0
 10 32  1  0
 11 33  1  1
 12 34  1  0
 13 35  1  0
 15 36  1  0
 17 37  1  0
M  ISO  8  19  13  20  13  21  13  22  13  23   5  24  13  25  13  26  13
M  ISO  8  27  13  28  13  29  13  30  13  31  13  32  13  33  13  34   3
M  ISO  3  35  14  36  14  37  14
M  END
>  <minimizedAffinity>  (1) 
-3.94358778

>  <minimizedRMSD>  (1) 
0.682965577

$$$$
