
     RDKit          3D

 14 14  0  0  0  0  0  0  0  0999 V2000
   45.5370   34.7250   44.2200 C   0  0  0  0  0  0  0  0  0  0  0  0
   46.5790   33.9250   43.7450 C   0  0  0  0  0  0  0  0  0  0  0  0
   47.1050   32.9420   44.5960 C   0  0  0  0  0  0  0  0  0  0  0  0
   46.5760   32.8200   45.8320 N   0  0  0  0  0  0  0  0  0  0  0  0
   45.5670   33.6060   46.2730 C   0  0  0  0  0  0  0  0  0  0  0  0
   45.0530   34.5550   45.4610 N   0  0  0  0  0  0  0  0  0  0  0  0
   44.9240   35.9540   43.0700 S   0  0  0  0  0  0  0  0  0  0  0  0
   43.6310   35.2780   41.9870 C   0  0  0  0  0  0  0  0  0  0  0  0
   46.9771   34.0626   42.7288 H   0  0  0  0  0  0  0  0  0  0  0  0
   47.9258   32.2886   44.2655 H   0  0  0  0  0  0  0  0  0  0  0  0
   45.1668   33.4727   47.2889 H   0  0  0  0  0  0  0  0  0  0  0  0
   42.8223   34.8552   42.6012 H   0  0  0  0  0  0  0  0  0  0  0  0
   43.2278   36.0807   41.3521 H   0  0  0  0  0  0  0  0  0  0  0  0
   44.0601   34.4889   41.3521 H   0  0  0  0  0  0  0  0  0  0  0  0
  1  6  2  0
  2  1  1  0
  2  3  2  0
  3  4  1  0
  4  5  2  0
  6  5  1  0
  7  1  1  0
  8  7  1  0
  2  9  1  0
  3 10  1  0
  5 11  1  0
  8 12  1  0
  8 13  1  0
  8 14  1  0
M  ISO  6   9  14  10  14  11  14  12   8  13   8  14   8
M  END
>  <minimizedAffinity>  (1) 
-2.62874556

>  <minimizedRMSD>  (1) 
0.04241753

$$$$
