
     RDKit          3D

 27 28  0  0  0  0  0  0  0  0999 V2000
   42.4270   34.6580   41.1040 C   0  0  0  0  0  0  0  0  0  0  0  0
   41.2740   35.5240   40.7000 C   0  0  0  0  0  0  0  0  0  0  0  0
   41.5980   36.0000   37.7060 Cl  0  0  0  0  0  0  0  0  0  0  0  0
   40.3320   35.0400   38.4470 C   0  0  0  0  0  0  0  0  0  0  0  0
   40.2800   34.8890   39.8360 C   0  0  0  0  0  0  0  0  0  0  0  0
   39.2440   34.1170   40.2830 C   0  0  0  0  0  0  0  0  0  0  0  0
   38.2820   33.4930   39.5480 C   0  0  0  0  0  0  0  0  0  0  0  0
   38.3890   33.6830   38.1670 C   0  0  0  0  0  0  0  0  0  0  0  0
   39.3990   34.4480   37.5910 C   0  0  0  0  0  0  0  0  0  0  0  0
   43.8690   35.5350   41.6620 S   0  0  0  0  0  0  0  0  0  0  0  0
   44.4290   35.0590   43.2910 C   0  0  0  0  0  0  0  0  0  0  0  0
   45.1360   33.8490   43.3480 C   0  0  0  0  0  0  0  0  0  0  0  0
   45.6120   33.3960   44.5740 C   0  0  0  0  0  0  0  0  0  0  0  0
   45.3710   34.1510   45.6790 N   0  0  0  0  0  0  0  0  0  0  0  0
   44.6830   35.3250   45.6030 C   0  0  0  0  0  0  0  0  0  0  0  0
   44.2240   35.7660   44.4320 N   0  0  0  0  0  0  0  0  0  0  0  0
   42.7146   34.0466   40.2360 H   0  0  0  0  0  0  0  0  0  0  0  0
   42.0784   34.0641   41.9618 H   0  0  0  0  0  0  0  0  0  0  0  0
   40.7634   35.8568   41.6157 H   0  0  0  0  0  0  0  0  0  0  0  0
   41.7064   36.3448   40.1089 H   0  0  0  0  0  0  0  0  0  0  0  0
   39.1793   33.9830   41.3729 H   0  0  0  0  0  0  0  0  0  0  0  0
   37.4847   32.8880   40.0044 H   0  0  0  0  0  0  0  0  0  0  0  0
   37.6453   33.2090   37.5095 H   0  0  0  0  0  0  0  0  0  0  0  0
   39.4608   34.5819   36.5009 H   0  0  0  0  0  0  0  0  0  0  0  0
   45.3122   33.2645   42.4329 H   0  0  0  0  0  0  0  0  0  0  0  0
   46.1695   32.4506   44.6478 H   0  0  0  0  0  0  0  0  0  0  0  0
   44.5051   35.9132   46.5153 H   0  0  0  0  0  0  0  0  0  0  0  0
  1 10  1  0
  2  1  1  0
  3  4  1  0
  4  5  2  0
  5  6  1  0
  5  2  1  0
  7  6  2  0
  8  7  1  0
  9  8  2  0
  9  4  1  0
 10 11  1  0
 11 12  2  0
 11 16  1  0
 12 13  1  0
 13 14  2  0
 15 14  1  0
 16 15  2  0
  1 17  1  0
  1 18  1  0
  2 19  1  0
  2 20  1  0
  6 21  1  0
  7 22  1  0
  8 23  1  0
  9 24  1  0
 12 25  1  0
 13 26  1  0
 15 27  1  0
M  ISO  8  17   8  18   8  19   8  20   8  21  14  22  14  23  14  24  14
M  ISO  3  25  14  26  14  27  14
M  END
>  <minimizedAffinity>  (1) 
-5.4068284

>  <minimizedRMSD>  (1) 
2.00480628

$$$$
