
     RDKit          3D

 27 28  0  0  0  0  0  0  0  0999 V2000
   42.3540   34.6890   41.1360 C   0  0  0  0  0  0  0  0  0  0  0  0
   41.1870   35.5510   40.7670 C   0  0  0  0  0  0  0  0  0  0  0  0
   41.4940   35.8300   38.0560 F   0  0  0  0  0  0  0  0  0  0  0  0
   40.4550   35.1040   38.5350 C   0  0  0  0  0  0  0  0  0  0  0  0
   40.1960   34.8920   39.8850 C   0  0  0  0  0  0  0  0  0  0  0  0
   39.1340   34.1500   40.3350 C   0  0  0  0  0  0  0  0  0  0  0  0
   38.2930   33.5950   39.3700 C   0  0  0  0  0  0  0  0  0  0  0  0
   38.5360   33.7970   38.0340 C   0  0  0  0  0  0  0  0  0  0  0  0
   39.6080   34.5450   37.5850 C   0  0  0  0  0  0  0  0  0  0  0  0
   43.8280   35.5290   41.6470 S   0  0  0  0  0  0  0  0  0  0  0  0
   44.4110   35.0420   43.2720 C   0  0  0  0  0  0  0  0  0  0  0  0
   45.1020   33.8260   43.3280 C   0  0  0  0  0  0  0  0  0  0  0  0
   45.5870   33.3780   44.5590 C   0  0  0  0  0  0  0  0  0  0  0  0
   45.3550   34.1630   45.6580 N   0  0  0  0  0  0  0  0  0  0  0  0
   44.6870   35.3270   45.5730 C   0  0  0  0  0  0  0  0  0  0  0  0
   44.2200   35.7650   44.4030 N   0  0  0  0  0  0  0  0  0  0  0  0
   42.6064   34.0750   40.2589 H   0  0  0  0  0  0  0  0  0  0  0  0
   42.0258   34.1163   42.0159 H   0  0  0  0  0  0  0  0  0  0  0  0
   40.6762   35.8538   41.6930 H   0  0  0  0  0  0  0  0  0  0  0  0
   41.5920   36.4041   40.2029 H   0  0  0  0  0  0  0  0  0  0  0  0
   38.9532   33.9991   41.4095 H   0  0  0  0  0  0  0  0  0  0  0  0
   37.4284   32.9908   39.6821 H   0  0  0  0  0  0  0  0  0  0  0  0
   37.8546   33.3485   37.2961 H   0  0  0  0  0  0  0  0  0  0  0  0
   39.7854   34.6933   36.5096 H   0  0  0  0  0  0  0  0  0  0  0  0
   45.2608   33.2319   42.4160 H   0  0  0  0  0  0  0  0  0  0  0  0
   46.1359   32.4284   44.6432 H   0  0  0  0  0  0  0  0  0  0  0  0
   44.5235   35.9261   46.4809 H   0  0  0  0  0  0  0  0  0  0  0  0
  1 10  1  0
  2  1  1  0
  3  4  1  0
  4  5  2  0
  5  6  1  0
  5  2  1  0
  7  6  2  0
  8  7  1  0
  9  8  2  0
  9  4  1  0
 10 11  1  0
 11 12  2  0
 11 16  1  0
 12 13  1  0
 13 14  2  0
 15 14  1  0
 16 15  2  0
  1 17  1  0
  1 18  1  0
  2 19  1  0
  2 20  1  0
  6 21  1  0
  7 22  1  0
  8 23  1  0
  9 24  1  0
 12 25  1  0
 13 26  1  0
 15 27  1  0
M  ISO  8  17   8  18   8  19   8  20   8  21  14  22  14  23  14  24  14
M  ISO  3  25  14  26  14  27  14
M  END
>  <minimizedAffinity>  (1) 
-5.29310989

>  <minimizedRMSD>  (1) 
2.0594449

$$$$
