
     RDKit          3D

 28 29  0  0  0  0  0  0  0  0999 V2000
   43.4710   34.4890   41.4040 C   0  0  0  0  0  0  0  0  0  0  0  0
   42.6370   35.2260   40.3930 C   0  0  0  0  0  0  0  0  0  0  0  0
   40.5110   34.9700   39.2410 C   0  0  0  0  0  0  0  0  0  0  0  0
   41.2630   34.6820   40.3610 C   0  0  0  0  0  0  0  0  0  0  0  0
   40.7070   33.9180   41.3640 C   0  0  0  0  0  0  0  0  0  0  0  0
   39.4020   33.4580   41.2230 C   0  0  0  0  0  0  0  0  0  0  0  0
   38.6820   33.7700   40.0810 C   0  0  0  0  0  0  0  0  0  0  0  0
   39.2060   34.5320   39.0560 C   0  0  0  0  0  0  0  0  0  0  0  0
   41.4560   36.4300   37.2900 N   0  0  0  0  0  0  0  0  0  0  0  0
   41.0420   35.7710   38.1620 C   0  0  0  0  0  0  0  0  0  0  0  0
   44.4150   35.4980   42.5140 S   0  0  0  0  0  0  0  0  0  0  0  0
   45.3350   34.5620   43.7360 C   0  0  0  0  0  0  0  0  0  0  0  0
   46.4620   33.8900   43.2410 C   0  0  0  0  0  0  0  0  0  0  0  0
   47.2290   33.1330   44.1480 C   0  0  0  0  0  0  0  0  0  0  0  0
   46.8360   33.0940   45.4580 N   0  0  0  0  0  0  0  0  0  0  0  0
   45.7460   33.7570   45.8840 C   0  0  0  0  0  0  0  0  0  0  0  0
   44.9900   34.4870   45.0530 N   0  0  0  0  0  0  0  0  0  0  0  0
   44.1731   33.8439   40.8555 H   0  0  0  0  0  0  0  0  0  0  0  0
   42.7566   33.9406   42.0356 H   0  0  0  0  0  0  0  0  0  0  0  0
   42.5984   36.2916   40.6631 H   0  0  0  0  0  0  0  0  0  0  0  0
   43.0917   35.1034   39.3989 H   0  0  0  0  0  0  0  0  0  0  0  0
   41.2884   33.6748   42.2656 H   0  0  0  0  0  0  0  0  0  0  0  0
   38.9430   32.8486   42.0154 H   0  0  0  0  0  0  0  0  0  0  0  0
   37.6519   33.3956   39.9874 H   0  0  0  0  0  0  0  0  0  0  0  0
   38.6281   34.7762   38.1524 H   0  0  0  0  0  0  0  0  0  0  0  0
   46.7382   33.9521   42.1781 H   0  0  0  0  0  0  0  0  0  0  0  0
   48.1223   32.5864   43.8113 H   0  0  0  0  0  0  0  0  0  0  0  0
   45.4670   33.6981   46.9464 H   0  0  0  0  0  0  0  0  0  0  0  0
  1 11  1  0
  2  1  1  0
  3  4  2  0
  4  2  1  0
  4  5  1  0
  6  5  2  0
  7  6  1  0
  8  3  1  0
  8  7  2  0
  9 10  3  0
 10  3  1  0
 11 12  1  0
 12 17  1  0
 13 12  2  0
 13 14  1  0
 14 15  2  0
 15 16  1  0
 17 16  2  0
  1 18  1  0
  1 19  1  0
  2 20  1  0
  2 21  1  0
  5 22  1  0
  6 23  1  0
  7 24  1  0
  8 25  1  0
 13 26  1  0
 14 27  1  0
 16 28  1  0
M  ISO  8  18   8  19   8  20   8  21   8  22  14  23  14  24  14  25  14
M  ISO  3  26  14  27  14  28  14
M  END
>  <minimizedAffinity>  (1) 
-4.8790226

>  <minimizedRMSD>  (1) 
1.86520541

$$$$
