
     RDKit          3D

 23 24  0  0  0  0  0  0  0  0999 V2000
   44.4900   34.8640   41.2590 C   0  0  0  0  0  0  0  0  0  0  0  0
   43.2450   34.1010   41.5710 C   0  0  0  0  0  0  0  0  0  0  0  0
   42.0750   34.5410   40.7710 C   0  0  0  0  0  0  0  0  0  0  0  0
   40.8310   34.3530   41.2360 C   0  0  0  0  0  0  0  0  0  0  0  0
   39.6820   35.0470   39.9220 S   0  0  0  0  0  0  0  0  0  0  0  0
   41.2330   35.4920   38.9190 C   0  0  0  0  0  0  0  0  0  0  0  0
   42.0670   35.1180   39.6130 N   0  0  0  0  0  0  0  0  0  0  0  0
   45.4960   35.3110   42.6460 S   0  0  0  0  0  0  0  0  0  0  0  0
   47.1690   34.6320   42.5860 C   0  0  0  0  0  0  0  0  0  0  0  0
   48.1290   35.4730   42.0230 C   0  0  0  0  0  0  0  0  0  0  0  0
   49.4510   35.0230   41.9370 C   0  0  0  0  0  0  0  0  0  0  0  0
   49.7050   33.7800   42.4160 N   0  0  0  0  0  0  0  0  0  0  0  0
   48.7690   32.9790   42.9560 C   0  0  0  0  0  0  0  0  0  0  0  0
   47.5060   33.3960   43.0440 N   0  0  0  0  0  0  0  0  0  0  0  0
   45.1021   34.2475   40.5843 H   0  0  0  0  0  0  0  0  0  0  0  0
   44.1526   35.8142   40.8194 H   0  0  0  0  0  0  0  0  0  0  0  0
   43.4274   33.0355   41.3672 H   0  0  0  0  0  0  0  0  0  0  0  0
   43.0056   34.2837   42.6290 H   0  0  0  0  0  0  0  0  0  0  0  0
   40.5429   33.8881   42.1904 H   0  0  0  0  0  0  0  0  0  0  0  0
   41.3108   35.9784   37.9354 H   0  0  0  0  0  0  0  0  0  0  0  0
   47.8518   36.4713   41.6535 H   0  0  0  0  0  0  0  0  0  0  0  0
   50.2456   35.6471   41.5020 H   0  0  0  0  0  0  0  0  0  0  0  0
   49.0457   31.9803   43.3248 H   0  0  0  0  0  0  0  0  0  0  0  0
  1  2  1  0
  1  8  1  0
  3  4  2  0
  3  2  1  0
  5  4  1  0
  6  7  2  0
  6  5  1  0
  7  3  1  0
  9  8  1  0
  9 14  1  0
 10  9  2  0
 11 10  1  0
 11 12  2  0
 12 13  1  0
 13 14  2  0
  1 15  1  0
  1 16  1  0
  2 17  1  0
  2 18  1  0
  4 19  1  0
  6 20  1  0
 10 21  1  0
 11 22  1  0
 13 23  1  0
M  ISO  8  15   8  16   8  17   8  18   8  19  14  20  14  21  14  22  14
M  ISO  1  23  14
M  END
>  <minimizedAffinity>  (1) 
-3.49214864

>  <minimizedRMSD>  (1) 
3.15019608

$$$$
