
     RDKit          3D

 28 29  0  0  0  0  0  0  0  0999 V2000
   41.9780   34.9860   41.4950 C   0  0  0  0  0  0  0  0  0  0  0  0
   41.0390   35.9410   40.8050 C   0  0  0  0  0  0  0  0  0  0  0  0
   42.0250   36.0860   37.9200 Cl  0  0  0  0  0  0  0  0  0  0  0  0
   40.6000   35.2410   38.4180 C   0  0  0  0  0  0  0  0  0  0  0  0
   40.2360   35.2350   39.7680 C   0  0  0  0  0  0  0  0  0  0  0  0
   39.0890   34.5410   40.0950 C   0  0  0  0  0  0  0  0  0  0  0  0
   38.2530   33.8460   39.2350 C   0  0  0  0  0  0  0  0  0  0  0  0
   38.6490   33.8750   37.9100 C   0  0  0  0  0  0  0  0  0  0  0  0
   37.6570   33.0180   36.7080 Cl  0  0  0  0  0  0  0  0  0  0  0  0
   39.7920   34.5540   37.5070 C   0  0  0  0  0  0  0  0  0  0  0  0
   43.6750   35.5670   41.5150 S   0  0  0  0  0  0  0  0  0  0  0  0
   44.5480   35.0760   43.0160 C   0  0  0  0  0  0  0  0  0  0  0  0
   45.6750   34.2720   42.8150 C   0  0  0  0  0  0  0  0  0  0  0  0
   46.3740   33.8750   43.9680 C   0  0  0  0  0  0  0  0  0  0  0  0
   45.9370   34.2750   45.1740 N   0  0  0  0  0  0  0  0  0  0  0  0
   44.8450   35.0520   45.3460 C   0  0  0  0  0  0  0  0  0  0  0  0
   44.1720   35.4350   44.2520 N   0  0  0  0  0  0  0  0  0  0  0  0
   44.3790   35.4760   46.5850 O   0  0  0  0  0  0  0  0  0  0  0  0
   41.9440   34.0199   40.9702 H   0  0  0  0  0  0  0  0  0  0  0  0
   41.6477   34.8961   42.5404 H   0  0  0  0  0  0  0  0  0  0  0  0
   40.3596   36.3806   41.5501 H   0  0  0  0  0  0  0  0  0  0  0  0
   41.6321   36.7284   40.3168 H   0  0  0  0  0  0  0  0  0  0  0  0
   38.8062   34.5391   41.1580 H   0  0  0  0  0  0  0  0  0  0  0  0
   37.3515   33.3166   39.5771 H   0  0  0  0  0  0  0  0  0  0  0  0
   40.0688   34.5511   36.4424 H   0  0  0  0  0  0  0  0  0  0  0  0
   45.9969   33.9668   41.8084 H   0  0  0  0  0  0  0  0  0  0  0  0
   47.2703   33.2429   43.8838 H   0  0  0  0  0  0  0  0  0  0  0  0
   43.5710   36.0453   46.6416 H   0  0  0  0  0  0  0  0  0  0  0  0
  1 11  1  0
  2  1  1  0
  3  4  1  0
  4  5  2  0
  5  6  1  0
  5  2  1  0
  7  6  2  0
  8  7  1  0
  9  8  1  0
 10  8  2  0
 10  4  1  0
 11 12  1  0
 12 17  1  0
 13 12  2  0
 13 14  1  0
 14 15  2  0
 15 16  1  0
 16 18  1  0
 17 16  2  0
  1 19  1  0
  1 20  1  0
  2 21  1  0
  2 22  1  0
  6 23  1  0
  7 24  1  0
 10 25  1  0
 13 26  1  0
 14 27  1  0
 18 28  1  0
M  ISO  8  19   8  20   8  21   8  22   8  23  14  24  14  25  14  26  14
M  ISO  2  27  14  28   3
M  END
>  <minimizedAffinity>  (1) 
-6.25269556

>  <minimizedRMSD>  (1) 
0.462412894

$$$$
