
     RDKit          3D

 30 31  0  0  0  0  0  0  0  0999 V2000
   43.8720   33.9200   40.5070 C   0  0  0  0  0  0  0  0  0  0  0  0
   42.9430   35.0660   40.2620 C   0  0  0  0  0  0  0  0  0  0  0  0
   40.3620   36.5380   40.9390 Cl  0  0  0  0  0  0  0  0  0  0  0  0
   40.4750   35.2260   39.8140 C   0  0  0  0  0  0  0  0  0  0  0  0
   41.7110   34.6210   39.5770 C   0  0  0  0  0  0  0  0  0  0  0  0
   41.7100   33.5890   38.6710 C   0  0  0  0  0  0  0  0  0  0  0  0
   40.6270   33.0820   37.9670 C   0  0  0  0  0  0  0  0  0  0  0  0
   39.4210   33.7080   38.2280 C   0  0  0  0  0  0  0  0  0  0  0  0
   37.9580   33.1550   37.3930 Cl  0  0  0  0  0  0  0  0  0  0  0  0
   39.3410   34.7600   39.1340 C   0  0  0  0  0  0  0  0  0  0  0  0
   45.4360   34.4200   41.2520 S   0  0  0  0  0  0  0  0  0  0  0  0
   45.3390   34.4810   43.0480 C   0  0  0  0  0  0  0  0  0  0  0  0
   44.5900   35.5490   43.5720 C   0  0  0  0  0  0  0  0  0  0  0  0
   44.4820   35.6430   44.9590 C   0  0  0  0  0  0  0  0  0  0  0  0
   45.0950   34.7140   45.7140 N   0  0  0  0  0  0  0  0  0  0  0  0
   45.8100   33.6950   45.2070 C   0  0  0  0  0  0  0  0  0  0  0  0
   45.9230   33.5900   43.8730 N   0  0  0  0  0  0  0  0  0  0  0  0
   46.5050   32.6470   45.9600 C   0  0  0  0  0  0  0  0  0  0  0  0
   47.4220   31.9960   45.1250 F   0  0  0  0  0  0  0  0  0  0  0  0
   47.1290   33.0800   47.0960 F   0  0  0  0  0  0  0  0  0  0  0  0
   45.6000   31.6860   46.3400 F   0  0  0  0  0  0  0  0  0  0  0  0
   44.0838   33.4299   39.5453 H   0  0  0  0  0  0  0  0  0  0  0  0
   43.3744   33.2417   41.2158 H   0  0  0  0  0  0  0  0  0  0  0  0
   42.6726   35.5207   41.2264 H   0  0  0  0  0  0  0  0  0  0  0  0
   43.4544   35.7962   39.6176 H   0  0  0  0  0  0  0  0  0  0  0  0
   42.6810   33.1082   38.4812 H   0  0  0  0  0  0  0  0  0  0  0  0
   40.7200   32.2473   37.2566 H   0  0  0  0  0  0  0  0  0  0  0  0
   38.3674   35.2366   39.3211 H   0  0  0  0  0  0  0  0  0  0  0  0
   44.1066   36.2840   42.9117 H   0  0  0  0  0  0  0  0  0  0  0  0
   43.9087   36.4581   45.4249 H   0  0  0  0  0  0  0  0  0  0  0  0
  1 11  1  0
  2  1  1  0
  4  3  1  0
  5  4  2  0
  5  2  1  0
  6  5  1  0
  7  8  1  0
  7  6  2  0
  8 10  2  0
  9  8  1  0
 10  4  1  0
 11 12  1  0
 12 13  2  0
 12 17  1  0
 13 14  1  0
 14 15  2  0
 16 15  1  0
 16 18  1  0
 17 16  2  0
 18 21  1  0
 18 20  1  0
 19 18  1  0
  1 22  1  0
  1 23  1  0
  2 24  1  0
  2 25  1  0
  6 26  1  0
  7 27  1  0
 10 28  1  0
 13 29  1  0
 14 30  1  0
M  ISO  8  22   8  23   8  24   8  25   8  26  14  27  14  28  14  29  14
M  ISO  1  30  14
M  END
>  <minimizedAffinity>  (1) 
-5.9168539

>  <minimizedRMSD>  (1) 
2.92811584

$$$$
