
     RDKit          3D

 30 31  0  0  0  0  0  0  0  0999 V2000
   41.9390   35.1930   41.5360 C   0  0  0  0  0  0  0  0  0  0  0  0
   41.0070   36.0680   40.7650 C   0  0  0  0  0  0  0  0  0  0  0  0
   41.7930   36.2790   37.8320 Cl  0  0  0  0  0  0  0  0  0  0  0  0
   40.4830   35.3030   38.4240 C   0  0  0  0  0  0  0  0  0  0  0  0
   40.2030   35.2740   39.7910 C   0  0  0  0  0  0  0  0  0  0  0  0
   39.1490   34.4760   40.1820 C   0  0  0  0  0  0  0  0  0  0  0  0
   38.3480   33.7090   39.3660 C   0  0  0  0  0  0  0  0  0  0  0  0
   38.6430   33.7510   38.0140 C   0  0  0  0  0  0  0  0  0  0  0  0
   37.6790   32.8050   36.8810 Cl  0  0  0  0  0  0  0  0  0  0  0  0
   39.6910   34.5350   37.5660 C   0  0  0  0  0  0  0  0  0  0  0  0
   43.5490   34.9870   40.7620 S   0  0  0  0  0  0  0  0  0  0  0  0
   44.8510   34.6790   41.9680 C   0  0  0  0  0  0  0  0  0  0  0  0
   46.1390   34.5430   41.4320 C   0  0  0  0  0  0  0  0  0  0  0  0
   47.1810   34.3030   42.3410 C   0  0  0  0  0  0  0  0  0  0  0  0
   46.8920   34.2170   43.6520 N   0  0  0  0  0  0  0  0  0  0  0  0
   45.6450   34.3510   44.1470 C   0  0  0  0  0  0  0  0  0  0  0  0
   44.6470   34.5810   43.2880 N   0  0  0  0  0  0  0  0  0  0  0  0
   45.3050   34.2600   45.5900 C   0  0  0  0  0  0  0  0  0  0  0  0
   42.0871   35.6365   42.5317 H   0  0  0  0  0  0  0  0  0  0  0  0
   41.4766   34.1960   41.5835 H   0  0  0  0  0  0  0  0  0  0  0  0
   40.3256   36.5721   41.4661 H   0  0  0  0  0  0  0  0  0  0  0  0
   41.6030   36.8045   40.2061 H   0  0  0  0  0  0  0  0  0  0  0  0
   38.9245   34.4493   41.2585 H   0  0  0  0  0  0  0  0  0  0  0  0
   37.5234   33.0996   39.7643 H   0  0  0  0  0  0  0  0  0  0  0  0
   39.9104   34.5548   36.4883 H   0  0  0  0  0  0  0  0  0  0  0  0
   46.3242   34.6207   40.3505 H   0  0  0  0  0  0  0  0  0  0  0  0
   48.2162   34.1872   41.9875 H   0  0  0  0  0  0  0  0  0  0  0  0
   46.1944   34.4980   46.1920 H   0  0  0  0  0  0  0  0  0  0  0  0
   44.5022   34.9749   45.8233 H   0  0  0  0  0  0  0  0  0  0  0  0
   44.9666   33.2397   45.8233 H   0  0  0  0  0  0  0  0  0  0  0  0
  2  1  1  0
  3  4  1  0
  4  5  2  0
  5  6  1  0
  5  2  1  0
  7  6  2  0
  8  7  1  0
  9  8  1  0
 10  8  2  0
 10  4  1  0
 11  1  1  0
 11 12  1  0
 12 17  1  0
 13 12  2  0
 13 14  1  0
 14 15  2  0
 15 16  1  0
 16 18  1  0
 17 16  2  0
  1 19  1  0
  1 20  1  0
  2 21  1  0
  2 22  1  0
  6 23  1  0
  7 24  1  0
 10 25  1  0
 13 26  1  0
 14 27  1  0
 18 28  1  0
 18 29  1  0
 18 30  1  0
M  ISO  8  19   8  20   8  21   8  22   8  23  14  24  14  25  14  26  14
M  ISO  4  27  14  28   8  29   8  30   8
M  END
>  <minimizedAffinity>  (1) 
-5.64214373

>  <minimizedRMSD>  (1) 
1.44489133

$$$$
