
     RDKit          3D

 43 45  0  0  0  0  0  0  0  0999 V2000
   45.2850   34.4530   42.4450 C   0  0  0  0  0  0  0  0  0  0  0  0
   46.6290   34.2990   42.1180 C   0  0  0  0  0  0  0  0  0  0  0  0
   47.5300   33.9580   43.1420 C   0  0  0  0  0  0  0  0  0  0  0  0
   47.0330   33.7980   44.3950 N   0  0  0  0  0  0  0  0  0  0  0  0
   45.7390   33.9490   44.6950 C   0  0  0  0  0  0  0  0  0  0  0  0
   44.8860   34.2720   43.7240 N   0  0  0  0  0  0  0  0  0  0  0  0
   45.3200   33.7530   46.0660 C   0  0  0  0  0  0  0  0  0  0  0  0
   44.5830   34.6280   46.5840 O   0  0  0  0  0  0  0  0  0  0  0  0
   45.6410   32.6700   46.9320 N   0  0  0  0  0  0  0  0  0  0  0  0
   46.9050   32.0280   46.7210 C   0  0  0  0  0  0  0  0  0  0  0  0
   47.7290   32.2800   47.9890 C   0  0  0  0  0  0  0  0  0  0  0  0
   47.0760   31.6250   49.0810 N   0  0  0  0  0  0  0  0  0  0  0  0
   45.7060   31.9700   49.2810 C   0  0  0  0  0  0  0  0  0  0  0  0
   44.8990   32.0910   48.0090 C   0  0  0  0  0  0  0  0  0  0  0  0
   44.1800   34.8880   41.1060 S   0  0  0  0  0  0  0  0  0  0  0  0
   42.4480   34.6270   41.5240 C   0  0  0  0  0  0  0  0  0  0  0  0
   41.5410   35.6790   40.9630 C   0  0  0  0  0  0  0  0  0  0  0  0
   42.2840   35.9010   38.0220 Cl  0  0  0  0  0  0  0  0  0  0  0  0
   40.8420   35.1450   38.6050 C   0  0  0  0  0  0  0  0  0  0  0  0
   40.5980   35.0970   39.9790 C   0  0  0  0  0  0  0  0  0  0  0  0
   39.4290   34.4790   40.3720 C   0  0  0  0  0  0  0  0  0  0  0  0
   38.4790   33.9040   39.5400 C   0  0  0  0  0  0  0  0  0  0  0  0
   38.7530   33.9690   38.1780 C   0  0  0  0  0  0  0  0  0  0  0  0
   37.6000   33.2630   37.0480 Cl  0  0  0  0  0  0  0  0  0  0  0  0
   39.9080   34.5760   37.7390 C   0  0  0  0  0  0  0  0  0  0  0  0
   46.9776   34.4405   41.0843 H   0  0  0  0  0  0  0  0  0  0  0  0
   48.6021   33.8253   42.9347 H   0  0  0  0  0  0  0  0  0  0  0  0
   46.7633   30.9482   46.5666 H   0  0  0  0  0  0  0  0  0  0  0  0
   47.4116   32.4234   45.8283 H   0  0  0  0  0  0  0  0  0  0  0  0
   48.7427   31.8723   47.8620 H   0  0  0  0  0  0  0  0  0  0  0  0
   47.8075   33.3597   48.1842 H   0  0  0  0  0  0  0  0  0  0  0  0
   47.1255   30.6095   48.9159 H   0  0  0  0  0  0  0  0  0  0  0  0
   45.2441   31.1936   49.9086 H   0  0  0  0  0  0  0  0  0  0  0  0
   45.6988   32.9639   49.7522 H   0  0  0  0  0  0  0  0  0  0  0  0
   44.0207   32.7222   48.2093 H   0  0  0  0  0  0  0  0  0  0  0  0
   44.6113   31.0744   47.7027 H   0  0  0  0  0  0  0  0  0  0  0  0
   42.1363   33.6492   41.1282 H   0  0  0  0  0  0  0  0  0  0  0  0
   42.3653   34.6743   42.6199 H   0  0  0  0  0  0  0  0  0  0  0  0
   40.9683   36.1353   41.7839 H   0  0  0  0  0  0  0  0  0  0  0  0
   42.1553   36.4366   40.4543 H   0  0  0  0  0  0  0  0  0  0  0  0
   39.2300   34.4379   41.4531 H   0  0  0  0  0  0  0  0  0  0  0  0
   37.5683   33.4277   39.9322 H   0  0  0  0  0  0  0  0  0  0  0  0
   40.1031   34.6140   36.6571 H   0  0  0  0  0  0  0  0  0  0  0  0
  1  6  1  0
  2  1  2  0
  2  3  1  0
  3  4  2  0
  4  5  1  0
  5  7  1  0
  6  5  2  0
  7  8  2  0
  7  9  1  0
  9 14  1  0
 10  9  1  0
 10 11  1  0
 11 12  1  0
 12 13  1  0
 14 13  1  0
 15 16  1  0
 15  1  1  0
 17 16  1  0
 18 19  1  0
 19 20  2  0
 20 21  1  0
 20 17  1  0
 22 21  2  0
 23 22  1  0
 24 23  1  0
 25 23  2  0
 25 19  1  0
  2 26  1  0
  3 27  1  0
 10 28  1  0
 10 29  1  0
 11 30  1  0
 11 31  1  0
 12 32  1  0
 13 33  1  0
 13 34  1  0
 14 35  1  0
 14 36  1  0
 16 37  1  0
 16 38  1  0
 17 39  1  0
 17 40  1  0
 21 41  1  0
 22 42  1  0
 25 43  1  0
M  ISO  8  26  14  27  14  28  13  29  13  30  13  31  13  32   5  33  13
M  ISO  8  34  13  35  13  36  13  37   8  38   8  39   8  40   8  41  14
M  ISO  2  42  14  43  14
M  END
>  <minimizedAffinity>  (1) 
-7.06642485

>  <minimizedRMSD>  (1) 
0.78342104

$$$$
