
     RDKit          3D

 42 44  0  0  0  0  0  0  0  0999 V2000
   43.6100   34.8640   40.8340 S   0  0  0  0  0  0  0  0  0  0  0  0
   44.8880   34.6010   42.0650 C   0  0  0  0  0  0  0  0  0  0  0  0
   46.2110   34.5730   41.5960 C   0  0  0  0  0  0  0  0  0  0  0  0
   47.2400   34.3710   42.5160 C   0  0  0  0  0  0  0  0  0  0  0  0
   46.8990   34.2140   43.8120 N   0  0  0  0  0  0  0  0  0  0  0  0
   45.6350   34.2420   44.2600 C   0  0  0  0  0  0  0  0  0  0  0  0
   44.6470   34.4370   43.3690 N   0  0  0  0  0  0  0  0  0  0  0  0
   45.3750   34.0640   45.6710 C   0  0  0  0  0  0  0  0  0  0  0  0
   44.6050   34.8670   46.2490 O   0  0  0  0  0  0  0  0  0  0  0  0
   45.9160   33.0420   46.4990 N   0  0  0  0  0  0  0  0  0  0  0  0
   45.2830   32.8330   47.7880 C   0  0  0  0  0  0  0  0  0  0  0  0
   44.9080   31.3510   47.8360 C   0  0  0  0  0  0  0  0  0  0  0  0
   45.9560   30.5310   47.4960 O   0  0  0  0  0  0  0  0  0  0  0  0
   46.4910   30.7560   46.2540 C   0  0  0  0  0  0  0  0  0  0  0  0
   47.0420   32.1860   46.1780 C   0  0  0  0  0  0  0  0  0  0  0  0
   41.9920   35.1000   41.5620 C   0  0  0  0  0  0  0  0  0  0  0  0
   41.1030   36.0120   40.7850 C   0  0  0  0  0  0  0  0  0  0  0  0
   41.9320   36.2170   37.8620 Cl  0  0  0  0  0  0  0  0  0  0  0  0
   40.5780   35.3000   38.4340 C   0  0  0  0  0  0  0  0  0  0  0  0
   40.2840   35.2740   39.8040 C   0  0  0  0  0  0  0  0  0  0  0  0
   39.1910   34.5210   40.1770 C   0  0  0  0  0  0  0  0  0  0  0  0
   38.3580   33.7920   39.3410 C   0  0  0  0  0  0  0  0  0  0  0  0
   38.6740   33.8370   37.9900 C   0  0  0  0  0  0  0  0  0  0  0  0
   37.6680   32.9400   36.8580 Cl  0  0  0  0  0  0  0  0  0  0  0  0
   39.7560   34.5740   37.5650 C   0  0  0  0  0  0  0  0  0  0  0  0
   46.4313   34.7074   40.5267 H   0  0  0  0  0  0  0  0  0  0  0  0
   48.2921   34.3408   42.1962 H   0  0  0  0  0  0  0  0  0  0  0  0
   45.9819   33.0773   48.6015 H   0  0  0  0  0  0  0  0  0  0  0  0
   44.4001   33.4771   47.9133 H   0  0  0  0  0  0  0  0  0  0  0  0
   44.5828   31.1025   48.8570 H   0  0  0  0  0  0  0  0  0  0  0  0
   44.1041   31.1863   47.1035 H   0  0  0  0  0  0  0  0  0  0  0  0
   47.3062   30.0402   46.0722 H   0  0  0  0  0  0  0  0  0  0  0  0
   45.7083   30.6269   45.4920 H   0  0  0  0  0  0  0  0  0  0  0  0
   47.8539   32.3263   46.9068 H   0  0  0  0  0  0  0  0  0  0  0  0
   47.4636   32.4133   45.1877 H   0  0  0  0  0  0  0  0  0  0  0  0
   41.5002   34.1189   41.6369 H   0  0  0  0  0  0  0  0  0  0  0  0
   42.1507   35.5709   42.5433 H   0  0  0  0  0  0  0  0  0  0  0  0
   40.4349   36.5378   41.4829 H   0  0  0  0  0  0  0  0  0  0  0  0
   41.7381   36.7221   40.2351 H   0  0  0  0  0  0  0  0  0  0  0  0
   38.9545   34.4956   41.2510 H   0  0  0  0  0  0  0  0  0  0  0  0
   37.5027   33.2158   39.7237 H   0  0  0  0  0  0  0  0  0  0  0  0
   39.9858   34.5932   36.4894 H   0  0  0  0  0  0  0  0  0  0  0  0
  1 16  1  0
  1  2  1  0
  2  7  1  0
  3  2  2  0
  3  4  1  0
  4  5  2  0
  5  6  1  0
  6  8  1  0
  7  6  2  0
  8  9  2  0
  8 10  1  0
 10 11  1  0
 11 12  1  0
 13 12  1  0
 14 13  1  0
 15 14  1  0
 15 10  1  0
 17 16  1  0
 18 19  1  0
 19 20  2  0
 20 21  1  0
 20 17  1  0
 22 21  2  0
 23 22  1  0
 24 23  1  0
 25 23  2  0
 25 19  1  0
  3 26  1  0
  4 27  1  0
 11 28  1  0
 11 29  1  0
 12 30  1  0
 12 31  1  0
 14 32  1  0
 14 33  1  0
 15 34  1  0
 15 35  1  0
 16 36  1  0
 16 37  1  0
 17 38  1  0
 17 39  1  0
 21 40  1  0
 22 41  1  0
 25 42  1  0
M  ISO  8  26  14  27  14  28  13  29  13  30  13  31  13  32  13  33  13
M  ISO  8  34  13  35  13  36   8  37   8  38   8  39   8  40  14  41  14
M  ISO  1  42  14
M  END
>  <minimizedAffinity>  (1) 
-6.97909832

>  <minimizedRMSD>  (1) 
0.215701908

$$$$
