
     RDKit          3D

 37 39  0  0  0  0  0  0  0  0999 V2000
   44.8430   34.7030   42.1860 C   0  0  0  0  0  0  0  0  0  0  0  0
   46.0870   34.2640   41.7280 C   0  0  0  0  0  0  0  0  0  0  0  0
   47.0580   33.8470   42.6450 C   0  0  0  0  0  0  0  0  0  0  0  0
   46.7080   33.9030   43.9560 N   0  0  0  0  0  0  0  0  0  0  0  0
   45.5120   34.3260   44.3960 C   0  0  0  0  0  0  0  0  0  0  0  0
   44.6160   34.7120   43.4990 N   0  0  0  0  0  0  0  0  0  0  0  0
   48.3870   33.3730   42.2200 C   0  0  0  0  0  0  0  0  0  0  0  0
   48.5130   32.3100   41.3220 C   0  0  0  0  0  0  0  0  0  0  0  0
   50.3630   32.1670   41.1660 S   0  0  0  0  0  0  0  0  0  0  0  0
   50.6050   33.6080   42.3730 C   0  0  0  0  0  0  0  0  0  0  0  0
   49.5180   33.9040   42.6450 N   0  0  0  0  0  0  0  0  0  0  0  0
   45.2950   34.3260   45.8250 C   0  0  0  0  0  0  0  0  0  0  0  0
   44.4100   35.1060   46.2750 O   0  0  0  0  0  0  0  0  0  0  0  0
   46.0900   33.4480   46.6240 N   0  0  0  0  0  0  0  0  0  0  0  0
   43.6750   35.2150   40.9460 S   0  0  0  0  0  0  0  0  0  0  0  0
   41.9740   35.1350   41.5170 C   0  0  0  0  0  0  0  0  0  0  0  0
   41.0350   36.0310   40.7940 C   0  0  0  0  0  0  0  0  0  0  0  0
   41.9000   36.2130   37.8870 Cl  0  0  0  0  0  0  0  0  0  0  0  0
   40.5440   35.2880   38.4310 C   0  0  0  0  0  0  0  0  0  0  0  0
   40.2330   35.2730   39.7910 C   0  0  0  0  0  0  0  0  0  0  0  0
   39.1370   34.5150   40.1600 C   0  0  0  0  0  0  0  0  0  0  0  0
   38.3330   33.7800   39.3090 C   0  0  0  0  0  0  0  0  0  0  0  0
   38.6570   33.8090   37.9810 C   0  0  0  0  0  0  0  0  0  0  0  0
   37.6850   32.9010   36.8360 Cl  0  0  0  0  0  0  0  0  0  0  0  0
   39.7330   34.5450   37.5600 C   0  0  0  0  0  0  0  0  0  0  0  0
   46.3029   34.2461   40.6495 H   0  0  0  0  0  0  0  0  0  0  0  0
   47.7265   31.7145   40.8354 H   0  0  0  0  0  0  0  0  0  0  0  0
   51.5458   34.0538   42.7281 H   0  0  0  0  0  0  0  0  0  0  0  0
   45.9611   33.4229   47.6456 H   0  0  0  0  0  0  0  0  0  0  0  0
   46.7921   32.8402   46.1784 H   0  0  0  0  0  0  0  0  0  0  0  0
   41.6207   34.1001   41.3980 H   0  0  0  0  0  0  0  0  0  0  0  0
   41.9811   35.4714   42.5643 H   0  0  0  0  0  0  0  0  0  0  0  0
   40.3533   36.4979   41.5201 H   0  0  0  0  0  0  0  0  0  0  0  0
   41.6211   36.7971   40.2652 H   0  0  0  0  0  0  0  0  0  0  0  0
   38.8812   34.4950   41.2297 H   0  0  0  0  0  0  0  0  0  0  0  0
   37.4754   33.2007   39.6816 H   0  0  0  0  0  0  0  0  0  0  0  0
   39.9729   34.5539   36.4865 H   0  0  0  0  0  0  0  0  0  0  0  0
  1  6  1  0
  2  1  2  0
  2  3  1  0
  3  4  2  0
  4  5  1  0
  5 12  1  0
  6  5  2  0
  7 11  1  0
  7  3  1  0
  8  7  2  0
  9  8  1  0
  9 10  1  0
 10 11  2  0
 12 13  2  0
 12 14  1  0
 15 16  1  0
 15  1  1  0
 17 16  1  0
 18 19  1  0
 19 20  2  0
 20 21  1  0
 20 17  1  0
 22 21  2  0
 23 22  1  0
 24 23  1  0
 25 23  2  0
 25 19  1  0
  2 26  1  0
  8 27  1  0
 10 28  1  0
 14 29  1  0
 14 30  1  0
 16 31  1  0
 16 32  1  0
 17 33  1  0
 17 34  1  0
 21 35  1  0
 22 36  1  0
 25 37  1  0
M  ISO  8  26  14  27  14  28  14  31   8  32   8  33   8  34   8  35  14
M  ISO  2  36  14  37  14
M  END
>  <minimizedAffinity>  (1) 
-6.82233667

>  <minimizedRMSD>  (1) 
0.485470504

$$$$
