
     RDKit          3D

 37 38  0  0  0  0  0  0  0  0999 V2000
   41.8680   35.2370   41.5730 C   0  0  0  0  0  0  0  0  0  0  0  0
   40.9720   36.0980   40.7610 C   0  0  0  0  0  0  0  0  0  0  0  0
   41.7840   36.2750   37.8330 Cl  0  0  0  0  0  0  0  0  0  0  0  0
   40.4740   35.3050   38.4240 C   0  0  0  0  0  0  0  0  0  0  0  0
   40.1750   35.2870   39.7980 C   0  0  0  0  0  0  0  0  0  0  0  0
   39.1290   34.4970   40.1730 C   0  0  0  0  0  0  0  0  0  0  0  0
   38.3370   33.7130   39.3390 C   0  0  0  0  0  0  0  0  0  0  0  0
   38.6470   33.7450   38.0090 C   0  0  0  0  0  0  0  0  0  0  0  0
   37.7050   32.7880   36.8700 Cl  0  0  0  0  0  0  0  0  0  0  0  0
   39.6990   34.5280   37.5570 C   0  0  0  0  0  0  0  0  0  0  0  0
   43.4390   34.8400   40.7910 S   0  0  0  0  0  0  0  0  0  0  0  0
   44.7720   34.6630   41.9630 C   0  0  0  0  0  0  0  0  0  0  0  0
   46.0640   34.6400   41.4290 C   0  0  0  0  0  0  0  0  0  0  0  0
   47.1520   34.5010   42.3070 C   0  0  0  0  0  0  0  0  0  0  0  0
   46.8870   34.4000   43.6210 N   0  0  0  0  0  0  0  0  0  0  0  0
   45.6270   34.4250   44.1210 C   0  0  0  0  0  0  0  0  0  0  0  0
   44.6090   34.5550   43.2840 N   0  0  0  0  0  0  0  0  0  0  0  0
   45.4860   34.3060   45.5570 C   0  0  0  0  0  0  0  0  0  0  0  0
   44.5340   34.9240   46.1020 O   0  0  0  0  0  0  0  0  0  0  0  0
   46.4300   33.4970   46.2620 N   0  0  0  0  0  0  0  0  0  0  0  0
   48.5280   34.4760   41.7460 C   0  0  0  0  0  0  0  0  0  0  0  0
   49.0510   35.8640   41.4750 C   0  0  0  0  0  0  0  0  0  0  0  0
   42.0779   35.7569   42.5194 H   0  0  0  0  0  0  0  0  0  0  0  0
   41.3397   34.2822   41.7122 H   0  0  0  0  0  0  0  0  0  0  0  0
   40.2857   36.6356   41.4319 H   0  0  0  0  0  0  0  0  0  0  0  0
   41.5911   36.8068   40.1916 H   0  0  0  0  0  0  0  0  0  0  0  0
   38.8858   34.4771   41.2456 H   0  0  0  0  0  0  0  0  0  0  0  0
   37.5089   33.1026   39.7286 H   0  0  0  0  0  0  0  0  0  0  0  0
   39.9312   34.5381   36.4818 H   0  0  0  0  0  0  0  0  0  0  0  0
   46.2252   34.7288   40.3445 H   0  0  0  0  0  0  0  0  0  0  0  0
   46.3567   33.3923   47.2840 H   0  0  0  0  0  0  0  0  0  0  0  0
   47.1836   33.0187   45.7480 H   0  0  0  0  0  0  0  0  0  0  0  0
   49.1959   33.9785   42.4647 H   0  0  0  0  0  0  0  0  0  0  0  0
   48.4964   33.9315   40.7907 H   0  0  0  0  0  0  0  0  0  0  0  0
   49.2439   36.3760   42.4293 H   0  0  0  0  0  0  0  0  0  0  0  0
   49.9858   35.7976   40.8990 H   0  0  0  0  0  0  0  0  0  0  0  0
   48.3049   36.4310   40.8990 H   0  0  0  0  0  0  0  0  0  0  0  0
  2  1  1  0
  3  4  1  0
  4  5  2  0
  5  6  1  0
  5  2  1  0
  7  6  2  0
  8  7  1  0
  9  8  1  0
 10  8  2  0
 10  4  1  0
 11  1  1  0
 11 12  1  0
 12 17  1  0
 13 12  2  0
 13 14  1  0
 14 15  2  0
 15 16  1  0
 16 18  1  0
 17 16  2  0
 18 19  2  0
 18 20  1  0
 21 14  1  0
 22 21  1  0
  1 23  1  0
  1 24  1  0
  2 25  1  0
  2 26  1  0
  6 27  1  0
  7 28  1  0
 10 29  1  0
 13 30  1  0
 20 31  1  0
 20 32  1  0
 21 33  1  0
 21 34  1  0
 22 35  1  0
 22 36  1  0
 22 37  1  0
M  ISO  8  23   8  24   8  25   8  26   8  27  14  28  14  29  14  30  14
M  ISO  5  33   8  34   8  35   8  36   8  37   8
M  END
>  <minimizedAffinity>  (1) 
-6.79779625

>  <minimizedRMSD>  (1) 
0.414767325

$$$$
