
     RDKit          3D

 35 36  0  0  0  0  0  0  0  0999 V2000
   43.6010   35.1950   40.7890 S   0  0  0  0  0  0  0  0  0  0  0  0
   44.8510   34.6950   41.9660 C   0  0  0  0  0  0  0  0  0  0  0  0
   46.0750   34.2800   41.4220 C   0  0  0  0  0  0  0  0  0  0  0  0
   47.0970   33.8760   42.2960 C   0  0  0  0  0  0  0  0  0  0  0  0
   46.8450   33.9100   43.6180 N   0  0  0  0  0  0  0  0  0  0  0  0
   45.6500   34.3160   44.1220 C   0  0  0  0  0  0  0  0  0  0  0  0
   44.6990   34.6930   43.2880 N   0  0  0  0  0  0  0  0  0  0  0  0
   49.5500   34.1480   42.0470 C   0  0  0  0  0  0  0  0  0  0  0  0
   49.3040   35.0900   42.8470 O   0  0  0  0  0  0  0  0  0  0  0  0
   48.3250   33.4610   41.7300 N   0  0  0  0  0  0  0  0  0  0  0  0
   45.5080   34.3040   45.5600 C   0  0  0  0  0  0  0  0  0  0  0  0
   44.5710   34.9750   46.0640 O   0  0  0  0  0  0  0  0  0  0  0  0
   46.4460   33.5290   46.3180 N   0  0  0  0  0  0  0  0  0  0  0  0
   41.9570   35.2230   41.5110 C   0  0  0  0  0  0  0  0  0  0  0  0
   40.9760   36.0730   40.7820 C   0  0  0  0  0  0  0  0  0  0  0  0
   41.7810   36.2900   37.8700 Cl  0  0  0  0  0  0  0  0  0  0  0  0
   40.4740   35.3030   38.4460 C   0  0  0  0  0  0  0  0  0  0  0  0
   40.1820   35.2730   39.8220 C   0  0  0  0  0  0  0  0  0  0  0  0
   39.1380   34.4700   40.1920 C   0  0  0  0  0  0  0  0  0  0  0  0
   38.3440   33.6900   39.3690 C   0  0  0  0  0  0  0  0  0  0  0  0
   38.6550   33.7400   38.0220 C   0  0  0  0  0  0  0  0  0  0  0  0
   37.7030   32.7830   36.8860 Cl  0  0  0  0  0  0  0  0  0  0  0  0
   39.6950   34.5300   37.5840 C   0  0  0  0  0  0  0  0  0  0  0  0
   46.2313   34.2711   40.3332 H   0  0  0  0  0  0  0  0  0  0  0  0
   50.5443   33.8910   41.6528 H   0  0  0  0  0  0  0  0  0  0  0  0
   48.3431   32.6588   41.0842 H   0  0  0  0  0  0  0  0  0  0  0  0
   46.3762   33.4965   47.3451 H   0  0  0  0  0  0  0  0  0  0  0  0
   47.1898   33.0047   45.8355 H   0  0  0  0  0  0  0  0  0  0  0  0
   41.5722   34.1927   41.5288 H   0  0  0  0  0  0  0  0  0  0  0  0
   42.0640   35.6601   42.5147 H   0  0  0  0  0  0  0  0  0  0  0  0
   40.2953   36.5393   41.5094 H   0  0  0  0  0  0  0  0  0  0  0  0
   41.5298   36.8402   40.2210 H   0  0  0  0  0  0  0  0  0  0  0  0
   38.9027   34.4409   41.2661 H   0  0  0  0  0  0  0  0  0  0  0  0
   37.5217   33.0725   39.7595 H   0  0  0  0  0  0  0  0  0  0  0  0
   39.9213   34.5525   36.5078 H   0  0  0  0  0  0  0  0  0  0  0  0
  1 14  1  0
  1  2  1  0
  2  7  1  0
  3  2  2  0
  3  4  1  0
  4  5  2  0
  5  6  1  0
  6 11  1  0
  7  6  2  0
  8  9  2  0
 10  8  1  0
 10  4  1  0
 11 12  2  0
 11 13  1  0
 15 14  1  0
 16 17  1  0
 17 18  2  0
 18 19  1  0
 18 15  1  0
 20 19  2  0
 21 20  1  0
 22 21  1  0
 23 21  2  0
 23 17  1  0
  3 24  1  0
  8 25  1  0
 10 26  1  0
 13 27  1  0
 13 28  1  0
 14 29  1  0
 14 30  1  0
 15 31  1  0
 15 32  1  0
 19 33  1  0
 20 34  1  0
 23 35  1  0
M  ISO  8  24  14  25   6  29   8  30   8  31   8  32   8  33  14  34  14
M  ISO  1  35  14
M  END
>  <minimizedAffinity>  (1) 
-6.79037094

>  <minimizedRMSD>  (1) 
0.296609372

$$$$
