
     RDKit          3D

 34 35  0  0  0  0  0  0  0  0999 V2000
   41.8320   35.1440   41.4810 C   0  0  0  0  0  0  0  0  0  0  0  0
   40.9180   36.0270   40.7110 C   0  0  0  0  0  0  0  0  0  0  0  0
   41.7700   36.2690   37.8010 Cl  0  0  0  0  0  0  0  0  0  0  0  0
   40.4350   35.2850   38.3520 C   0  0  0  0  0  0  0  0  0  0  0  0
   40.1320   35.2500   39.7250 C   0  0  0  0  0  0  0  0  0  0  0  0
   39.0740   34.4550   40.0640 C   0  0  0  0  0  0  0  0  0  0  0  0
   38.2840   33.6940   39.2020 C   0  0  0  0  0  0  0  0  0  0  0  0
   38.6150   33.7590   37.8760 C   0  0  0  0  0  0  0  0  0  0  0  0
   37.6820   32.8350   36.6930 Cl  0  0  0  0  0  0  0  0  0  0  0  0
   39.6650   34.5360   37.4610 C   0  0  0  0  0  0  0  0  0  0  0  0
   43.4700   34.9510   40.7440 S   0  0  0  0  0  0  0  0  0  0  0  0
   44.7510   34.7050   41.9590 C   0  0  0  0  0  0  0  0  0  0  0  0
   46.0530   34.5560   41.4690 C   0  0  0  0  0  0  0  0  0  0  0  0
   47.0940   34.3600   42.3780 C   0  0  0  0  0  0  0  0  0  0  0  0
   46.7880   34.3260   43.6870 N   0  0  0  0  0  0  0  0  0  0  0  0
   45.5250   34.4700   44.1530 C   0  0  0  0  0  0  0  0  0  0  0  0
   44.5400   34.6560   43.2810 N   0  0  0  0  0  0  0  0  0  0  0  0
   45.3210   34.4140   45.5860 C   0  0  0  0  0  0  0  0  0  0  0  0
   44.4640   35.1720   46.0840 O   0  0  0  0  0  0  0  0  0  0  0  0
   46.1350   33.4750   46.3250 N   0  0  0  0  0  0  0  0  0  0  0  0
   48.4980   34.1970   41.9020 C   0  0  0  0  0  0  0  0  0  0  0  0
   41.9547   35.5688   42.4882 H   0  0  0  0  0  0  0  0  0  0  0  0
   41.3711   34.1453   41.4930 H   0  0  0  0  0  0  0  0  0  0  0  0
   40.2282   36.5254   41.4079 H   0  0  0  0  0  0  0  0  0  0  0  0
   41.5229   36.7690   40.1692 H   0  0  0  0  0  0  0  0  0  0  0  0
   38.8171   34.4100   41.1326 H   0  0  0  0  0  0  0  0  0  0  0  0
   37.4470   33.0799   39.5658 H   0  0  0  0  0  0  0  0  0  0  0  0
   39.9092   34.5704   36.3890 H   0  0  0  0  0  0  0  0  0  0  0  0
   46.2525   34.5926   40.3879 H   0  0  0  0  0  0  0  0  0  0  0  0
   46.0301   33.3950   47.3465 H   0  0  0  0  0  0  0  0  0  0  0  0
   46.8198   32.8861   45.8299 H   0  0  0  0  0  0  0  0  0  0  0  0
   49.1720   34.1188   42.7678 H   0  0  0  0  0  0  0  0  0  0  0  0
   48.5752   33.2839   41.2935 H   0  0  0  0  0  0  0  0  0  0  0  0
   48.7824   35.0682   41.2935 H   0  0  0  0  0  0  0  0  0  0  0  0
  2  1  1  0
  3  4  1  0
  4  5  2  0
  5  6  1  0
  5  2  1  0
  7  6  2  0
  8  7  1  0
  9  8  1  0
 10  8  2  0
 10  4  1  0
 11  1  1  0
 11 12  1  0
 12 17  1  0
 13 12  2  0
 13 14  1  0
 14 15  2  0
 15 16  1  0
 16 18  1  0
 17 16  2  0
 18 19  2  0
 18 20  1  0
 21 14  1  0
  1 22  1  0
  1 23  1  0
  2 24  1  0
  2 25  1  0
  6 26  1  0
  7 27  1  0
 10 28  1  0
 13 29  1  0
 20 30  1  0
 20 31  1  0
 21 32  1  0
 21 33  1  0
 21 34  1  0
M  ISO  8  22   8  23   8  24   8  25   8  26  14  27  14  28  14  29  14
M  ISO  3  32   8  33   8  34   8
M  END
>  <minimizedAffinity>  (1) 
-6.44075394

>  <minimizedRMSD>  (1) 
0.0913158432

$$$$
