
     RDKit          3D

 33 34  0  0  0  0  0  0  0  0999 V2000
   41.8580   35.2550   41.5090 C   0  0  0  0  0  0  0  0  0  0  0  0
   40.9330   36.1070   40.7220 C   0  0  0  0  0  0  0  0  0  0  0  0
   41.7500   36.2880   37.7960 Cl  0  0  0  0  0  0  0  0  0  0  0  0
   40.4410   35.2970   38.3790 C   0  0  0  0  0  0  0  0  0  0  0  0
   40.1460   35.2870   39.7550 C   0  0  0  0  0  0  0  0  0  0  0  0
   39.1060   34.4870   40.1430 C   0  0  0  0  0  0  0  0  0  0  0  0
   38.3220   33.6920   39.3160 C   0  0  0  0  0  0  0  0  0  0  0  0
   38.6300   33.7210   37.9780 C   0  0  0  0  0  0  0  0  0  0  0  0
   37.6960   32.7490   36.8420 Cl  0  0  0  0  0  0  0  0  0  0  0  0
   39.6640   34.5050   37.5290 C   0  0  0  0  0  0  0  0  0  0  0  0
   43.4890   35.0820   40.7800 S   0  0  0  0  0  0  0  0  0  0  0  0
   44.7680   34.7470   41.9850 C   0  0  0  0  0  0  0  0  0  0  0  0
   46.0570   34.5240   41.4930 C   0  0  0  0  0  0  0  0  0  0  0  0
   47.0880   34.2600   42.3940 C   0  0  0  0  0  0  0  0  0  0  0  0
   46.7800   34.2310   43.7110 N   0  0  0  0  0  0  0  0  0  0  0  0
   45.5230   34.4490   44.1850 C   0  0  0  0  0  0  0  0  0  0  0  0
   44.5450   34.7020   43.3090 N   0  0  0  0  0  0  0  0  0  0  0  0
   48.4000   34.0300   41.9370 N   0  0  0  0  0  0  0  0  0  0  0  0
   45.3310   34.3890   45.6150 C   0  0  0  0  0  0  0  0  0  0  0  0
   44.4730   35.1410   46.1140 O   0  0  0  0  0  0  0  0  0  0  0  0
   46.1360   33.4760   46.3570 N   0  0  0  0  0  0  0  0  0  0  0  0
   41.9713   35.6992   42.5089 H   0  0  0  0  0  0  0  0  0  0  0  0
   41.4149   34.2487   41.5405 H   0  0  0  0  0  0  0  0  0  0  0  0
   40.2411   36.6169   41.4085 H   0  0  0  0  0  0  0  0  0  0  0  0
   41.5262   36.8420   40.1582 H   0  0  0  0  0  0  0  0  0  0  0  0
   38.8667   34.4717   41.2166 H   0  0  0  0  0  0  0  0  0  0  0  0
   37.5015   33.0746   39.7105 H   0  0  0  0  0  0  0  0  0  0  0  0
   39.8909   34.5100   36.4527 H   0  0  0  0  0  0  0  0  0  0  0  0
   46.2552   34.5563   40.4115 H   0  0  0  0  0  0  0  0  0  0  0  0
   49.1537   33.8359   42.6116 H   0  0  0  0  0  0  0  0  0  0  0  0
   48.6059   34.0558   40.9281 H   0  0  0  0  0  0  0  0  0  0  0  0
   46.0267   33.4059   47.3788 H   0  0  0  0  0  0  0  0  0  0  0  0
   46.8269   32.8864   45.8713 H   0  0  0  0  0  0  0  0  0  0  0  0
  2  1  1  0
  3  4  1  0
  4  5  2  0
  5  6  1  0
  5  2  1  0
  7  6  2  0
  8  7  1  0
  9  8  1  0
 10  8  2  0
 10  4  1  0
 11  1  1  0
 11 12  1  0
 12 17  1  0
 13 12  2  0
 13 14  1  0
 14 15  2  0
 15 16  1  0
 16 19  1  0
 17 16  2  0
 18 14  1  0
 19 20  2  0
 19 21  1  0
  1 22  1  0
  1 23  1  0
  2 24  1  0
  2 25  1  0
  6 26  1  0
  7 27  1  0
 10 28  1  0
 13 29  1  0
 18 30  1  0
 18 31  1  0
 21 32  1  0
 21 33  1  0
M  ISO  8  22   8  23   8  24   8  25   8  26  14  27  14  28  14  29  14
M  END
>  <minimizedAffinity>  (1) 
-6.35442495

>  <minimizedRMSD>  (1) 
0.0128722396

$$$$
