
     RDKit          3D

 32 33  0  0  0  0  0  0  0  0999 V2000
   41.8680   35.2480   41.5190 C   0  0  0  0  0  0  0  0  0  0  0  0
   40.9410   36.1090   40.7220 C   0  0  0  0  0  0  0  0  0  0  0  0
   41.7610   36.2860   37.8040 Cl  0  0  0  0  0  0  0  0  0  0  0  0
   40.4520   35.3040   38.3840 C   0  0  0  0  0  0  0  0  0  0  0  0
   40.1580   35.2960   39.7560 C   0  0  0  0  0  0  0  0  0  0  0  0
   39.1190   34.5020   40.1450 C   0  0  0  0  0  0  0  0  0  0  0  0
   38.3240   33.7050   39.3230 C   0  0  0  0  0  0  0  0  0  0  0  0
   38.6320   33.7300   37.9880 C   0  0  0  0  0  0  0  0  0  0  0  0
   37.6930   32.7590   36.8570 Cl  0  0  0  0  0  0  0  0  0  0  0  0
   39.6690   34.5090   37.5280 C   0  0  0  0  0  0  0  0  0  0  0  0
   43.5040   35.0640   40.7820 S   0  0  0  0  0  0  0  0  0  0  0  0
   44.7660   34.7380   41.9960 C   0  0  0  0  0  0  0  0  0  0  0  0
   46.0640   34.5170   41.4900 C   0  0  0  0  0  0  0  0  0  0  0  0
   47.0900   34.2580   42.3990 C   0  0  0  0  0  0  0  0  0  0  0  0
   46.7800   34.2310   43.7180 N   0  0  0  0  0  0  0  0  0  0  0  0
   45.5280   34.4440   44.1760 C   0  0  0  0  0  0  0  0  0  0  0  0
   44.5450   34.6930   43.3200 N   0  0  0  0  0  0  0  0  0  0  0  0
   45.3310   34.3880   45.6090 C   0  0  0  0  0  0  0  0  0  0  0  0
   44.4760   35.1300   46.1160 O   0  0  0  0  0  0  0  0  0  0  0  0
   46.1270   33.4820   46.3710 N   0  0  0  0  0  0  0  0  0  0  0  0
   48.3850   34.0330   41.9670 O   0  0  0  0  0  0  0  0  0  0  0  0
   41.9854   35.6957   42.5169 H   0  0  0  0  0  0  0  0  0  0  0  0
   41.4193   34.2444   41.5582 H   0  0  0  0  0  0  0  0  0  0  0  0
   40.2482   36.6210   41.4060 H   0  0  0  0  0  0  0  0  0  0  0  0
   41.5390   36.8414   40.1600 H   0  0  0  0  0  0  0  0  0  0  0  0
   38.8841   34.4895   41.2196 H   0  0  0  0  0  0  0  0  0  0  0  0
   37.5006   33.0940   39.7212 H   0  0  0  0  0  0  0  0  0  0  0  0
   39.8937   34.5099   36.4512 H   0  0  0  0  0  0  0  0  0  0  0  0
   46.2618   34.5480   40.4084 H   0  0  0  0  0  0  0  0  0  0  0  0
   46.0058   33.4235   47.3922 H   0  0  0  0  0  0  0  0  0  0  0  0
   46.8229   32.8864   45.9000 H   0  0  0  0  0  0  0  0  0  0  0  0
   49.1017   33.8506   42.6251 H   0  0  0  0  0  0  0  0  0  0  0  0
  2  1  1  0
  3  4  1  0
  4  5  2  0
  5  6  1  0
  5  2  1  0
  7  6  2  0
  8  7  1  0
  9  8  1  0
 10  8  2  0
 10  4  1  0
 11  1  1  0
 11 12  1  0
 12 17  1  0
 13 12  2  0
 13 14  1  0
 14 15  2  0
 15 16  1  0
 16 18  1  0
 17 16  2  0
 18 19  2  0
 18 20  1  0
 21 14  1  0
  1 22  1  0
  1 23  1  0
  2 24  1  0
  2 25  1  0
  6 26  1  0
  7 27  1  0
 10 28  1  0
 13 29  1  0
 20 30  1  0
 20 31  1  0
 21 32  1  0
M  ISO  8  22   8  23   8  24   8  25   8  26  14  27  14  28  14  29  14
M  ISO  1  32   3
M  END
>  <minimizedAffinity>  (1) 
-6.34257555

>  <minimizedRMSD>  (1) 
0.00364303775

$$$$
