
     RDKit          3D

 20 21  0  0  0  0  0  0  0  0999 V2000
   44.5480   35.5340   45.0020 C   0  0  0  0  0  0  0  0  0  0  0  0
   45.1950   35.4480   43.7610 C   0  0  0  0  0  0  0  0  0  0  0  0
   46.1550   34.4350   43.5900 C   0  0  0  0  0  0  0  0  0  0  0  0
   46.4080   33.5910   44.6320 N   0  0  0  0  0  0  0  0  0  0  0  0
   45.7580   33.7060   45.8210 C   0  0  0  0  0  0  0  0  0  0  0  0
   44.8320   34.6780   45.9980 N   0  0  0  0  0  0  0  0  0  0  0  0
   46.0240   32.8070   46.9400 C   0  0  0  0  0  0  0  0  0  0  0  0
   47.2260   32.1520   47.0690 C   0  0  0  0  0  0  0  0  0  0  0  0
   47.4980   31.2940   48.1250 C   0  0  0  0  0  0  0  0  0  0  0  0
   46.5430   31.0690   49.0960 C   0  0  0  0  0  0  0  0  0  0  0  0
   45.3320   31.7090   48.9920 C   0  0  0  0  0  0  0  0  0  0  0  0
   45.0910   32.5610   47.9260 C   0  0  0  0  0  0  0  0  0  0  0  0
   43.7931   36.3176   45.1633 H   0  0  0  0  0  0  0  0  0  0  0  0
   44.9592   36.1501   42.9477 H   0  0  0  0  0  0  0  0  0  0  0  0
   46.6911   34.3251   42.6358 H   0  0  0  0  0  0  0  0  0  0  0  0
   48.0015   32.3144   46.3060 H   0  0  0  0  0  0  0  0  0  0  0  0
   48.4751   30.7928   48.1884 H   0  0  0  0  0  0  0  0  0  0  0  0
   46.7478   30.3902   49.9370 H   0  0  0  0  0  0  0  0  0  0  0  0
   44.5551   31.5455   49.7534 H   0  0  0  0  0  0  0  0  0  0  0  0
   44.1140   33.0626   47.8633 H   0  0  0  0  0  0  0  0  0  0  0  0
  1  6  2  0
  2  1  1  0
  3  2  2  0
  3  4  1  0
  4  5  2  0
  5  6  1  0
  5  7  1  0
  7  8  2  0
  7 12  1  0
  8  9  1  0
  9 10  2  0
 11 10  1  0
 12 11  2  0
  1 13  1  0
  2 14  1  0
  3 15  1  0
  8 16  1  0
  9 17  1  0
 10 18  1  0
 11 19  1  0
 12 20  1  0
M  ISO  8  13  14  14  14  15  14  16  14  17  14  18  14  19  14  20  14
M  END
>  <minimizedAffinity>  (1) 
-4.64636564

>  <minimizedRMSD>  (1) 
1.1051755

$$$$
