
     RDKit          3D

 21 22  0  0  0  0  0  0  0  0999 V2000
   46.0110   33.0150   46.4000 C   0  0  0  0  0  0  0  0  0  0  0  0
   46.9160   32.0020   46.2630 C   0  0  0  0  0  0  0  0  0  0  0  0
   47.1730   31.0840   47.2590 C   0  0  0  0  0  0  0  0  0  0  0  0
   46.5050   31.1660   48.4530 C   0  0  0  0  0  0  0  0  0  0  0  0
   45.5790   32.1750   48.6350 C   0  0  0  0  0  0  0  0  0  0  0  0
   45.3410   33.0870   47.6120 C   0  0  0  0  0  0  0  0  0  0  0  0
   44.5510   35.8420   44.5840 C   0  0  0  0  0  0  0  0  0  0  0  0
   45.2170   35.8260   43.3580 C   0  0  0  0  0  0  0  0  0  0  0  0
   46.1910   34.8210   43.1480 C   0  0  0  0  0  0  0  0  0  0  0  0
   46.4370   33.9170   44.1430 N   0  0  0  0  0  0  0  0  0  0  0  0
   45.7540   33.9810   45.3260 C   0  0  0  0  0  0  0  0  0  0  0  0
   44.8130   34.9400   45.5480 N   0  0  0  0  0  0  0  0  0  0  0  0
   44.4150   34.1000   47.7880 O   0  0  0  0  0  0  0  0  0  0  0  0
   47.4655   31.9142   45.3141 H   0  0  0  0  0  0  0  0  0  0  0  0
   47.9132   30.2868   47.0956 H   0  0  0  0  0  0  0  0  0  0  0  0
   46.7032   30.4392   49.2545 H   0  0  0  0  0  0  0  0  0  0  0  0
   45.0318   32.2569   49.5857 H   0  0  0  0  0  0  0  0  0  0  0  0
   43.7896   36.6143   44.7680 H   0  0  0  0  0  0  0  0  0  0  0  0
   44.9923   36.5704   42.5799 H   0  0  0  0  0  0  0  0  0  0  0  0
   46.7422   34.7682   42.1975 H   0  0  0  0  0  0  0  0  0  0  0  0
   43.9213   34.1764   48.6427 H   0  0  0  0  0  0  0  0  0  0  0  0
  1  6  1  0
  2  1  2  0
  2  3  1  0
  3  4  2  0
  4  5  1  0
  6 13  1  0
  6  5  2  0
  7 12  2  0
  8  7  1  0
  9  8  2  0
  9 10  1  0
 10 11  2  0
 11 12  1  0
 11  1  1  0
  2 14  1  0
  3 15  1  0
  4 16  1  0
  5 17  1  0
  7 18  1  0
  8 19  1  0
  9 20  1  0
 13 21  1  0
M  ISO  8  14  14  15  14  16  14  17  14  18  14  19  14  20  14  21   3
M  END
>  <minimizedAffinity>  (1) 
-5.43333483

>  <minimizedRMSD>  (1) 
0.693284631

$$$$
