
     RDKit          3D

 28 29  0  0  0  0  0  0  0  0999 V2000
   45.6000   33.9050   45.6050 C   0  0  0  0  0  0  0  0  0  0  0  0
   44.7950   35.0020   45.7200 C   0  0  0  0  0  0  0  0  0  0  0  0
   44.4560   35.8400   44.6810 C   0  0  0  0  0  0  0  0  0  0  0  0
   44.9550   35.5670   43.4340 C   0  0  0  0  0  0  0  0  0  0  0  0
   45.7630   34.4800   43.2710 C   0  0  0  0  0  0  0  0  0  0  0  0
   46.0840   33.6560   44.3480 C   0  0  0  0  0  0  0  0  0  0  0  0
   47.5620   31.8360   47.9000 C   0  0  0  0  0  0  0  0  0  0  0  0
   46.6280   31.4380   48.8520 C   0  0  0  0  0  0  0  0  0  0  0  0
   45.3130   31.8810   48.7060 C   0  0  0  0  0  0  0  0  0  0  0  0
   44.9680   32.6850   47.6550 N   0  0  0  0  0  0  0  0  0  0  0  0
   45.9240   33.0530   46.7380 C   0  0  0  0  0  0  0  0  0  0  0  0
   47.1830   32.6190   46.8910 N   0  0  0  0  0  0  0  0  0  0  0  0
   46.9350   32.5790   44.0070 N   0  0  0  0  0  0  0  0  0  0  0  0
   48.2560   32.4310   42.9360 S   0  0  0  0  0  0  0  0  0  0  0  0
   47.7060   32.2020   41.5310 O   0  0  0  0  0  0  0  0  0  0  0  0
   49.1710   33.6010   42.9030 O   0  0  0  0  0  0  0  0  0  0  0  0
   49.0460   30.9890   43.3380 O   0  0  0  0  0  0  0  0  0  0  0  0
   44.3875   35.2333   46.7152 H   0  0  0  0  0  0  0  0  0  0  0  0
   43.8006   36.7075   44.8479 H   0  0  0  0  0  0  0  0  0  0  0  0
   44.7081   36.2135   42.5790 H   0  0  0  0  0  0  0  0  0  0  0  0
   46.1674   34.2504   42.2741 H   0  0  0  0  0  0  0  0  0  0  0  0
   48.6081   31.5056   47.9803 H   0  0  0  0  0  0  0  0  0  0  0  0
   46.9180   30.7932   49.6947 H   0  0  0  0  0  0  0  0  0  0  0  0
   44.5501   31.5821   49.4399 H   0  0  0  0  0  0  0  0  0  0  0  0
   46.7123   31.7063   44.5066 H   0  0  0  0  0  0  0  0  0  0  0  0
   46.7938   31.8222   41.5916 H   0  0  0  0  0  0  0  0  0  0  0  0
   49.3870   33.8772   43.8288 H   0  0  0  0  0  0  0  0  0  0  0  0
   49.0935   30.9023   44.3230 H   0  0  0  0  0  0  0  0  0  0  0  0
  1  2  2  0
  1 11  1  0
  3  2  1  0
  4  3  2  0
  5  4  1  0
  5  6  2  0
  6  1  1  0
  7  8  2  0
  9  8  1  0
 10  9  2  0
 11 12  2  0
 11 10  1  0
 12  7  1  0
 13  6  1  0
 14 17  1  0
 14 13  1  0
 15 14  1  0
 16 14  1  0
  2 18  1  0
  3 19  1  0
  4 20  1  0
  5 21  1  0
  7 22  1  0
  8 23  1  0
  9 24  1  0
 13 25  1  0
 15 26  1  0
 16 27  1  0
 17 28  1  0
M  ISO  8  18  14  19  14  20  14  21  14  22  14  23  14  24  14  26   3
M  ISO  2  27   3  28   3
M  END
>  <minimizedAffinity>  (1) 
-4.75195694

>  <minimizedRMSD>  (1) 
5.90935373

$$$$
