
     RDKit          3D

 43 45  0  0  0  0  0  0  0  0999 V2000
   46.3440   33.7280   44.8100 C   0  0  0  0  0  0  0  0  0  0  0  0
   45.1870   34.4180   45.0420 C   0  0  0  0  0  0  0  0  0  0  0  0
   44.7080   35.4120   44.2100 C   0  0  0  0  0  0  0  0  0  0  0  0
   45.4290   35.7320   43.0820 C   0  0  0  0  0  0  0  0  0  0  0  0
   46.5830   35.0590   42.8310 C   0  0  0  0  0  0  0  0  0  0  0  0
   47.0420   34.0660   43.6800 C   0  0  0  0  0  0  0  0  0  0  0  0
   47.5790   30.4780   45.9700 C   0  0  0  0  0  0  0  0  0  0  0  0
   47.6710   30.6480   47.3500 C   0  0  0  0  0  0  0  0  0  0  0  0
   47.3080   31.8830   47.8930 C   0  0  0  0  0  0  0  0  0  0  0  0
   46.8790   32.8800   47.0740 N   0  0  0  0  0  0  0  0  0  0  0  0
   46.7980   32.6880   45.7240 C   0  0  0  0  0  0  0  0  0  0  0  0
   47.1520   31.4900   45.2160 N   0  0  0  0  0  0  0  0  0  0  0  0
   48.2600   33.4600   43.2780 N   0  0  0  0  0  0  0  0  0  0  0  0
   49.6400   34.0810   42.5030 S   0  0  0  0  0  0  0  0  0  0  0  0
   49.2850   34.4170   41.0660 O   0  0  0  0  0  0  0  0  0  0  0  0
   50.2510   35.2620   43.1610 O   0  0  0  0  0  0  0  0  0  0  0  0
   50.7210   32.7690   42.3920 O   0  0  0  0  0  0  0  0  0  0  0  0
   51.4610   29.3140   40.9240 N   0  0  0  0  0  0  0  0  0  0  0  0
   50.1140   29.7030   40.6110 C   0  0  0  0  0  0  0  0  0  0  0  0
   49.7050   30.8870   41.4460 C   0  0  0  0  0  0  0  0  0  0  0  0
   50.5400   32.1130   41.2060 C   0  0  0  0  0  0  0  0  0  0  0  0
   51.9310   31.7160   40.7020 C   0  0  0  0  0  0  0  0  0  0  0  0
   52.3210   30.3990   41.3250 C   0  0  0  0  0  0  0  0  0  0  0  0
   44.6047   34.1681   45.9412 H   0  0  0  0  0  0  0  0  0  0  0  0
   43.7700   35.9366   44.4443 H   0  0  0  0  0  0  0  0  0  0  0  0
   45.0779   36.5175   42.3966 H   0  0  0  0  0  0  0  0  0  0  0  0
   47.1660   35.3091   41.9323 H   0  0  0  0  0  0  0  0  0  0  0  0
   47.8559   29.5188   45.5082 H   0  0  0  0  0  0  0  0  0  0  0  0
   48.0210   29.8295   47.9963 H   0  0  0  0  0  0  0  0  0  0  0  0
   47.3690   32.0482   48.9788 H   0  0  0  0  0  0  0  0  0  0  0  0
   48.3195   32.4552   43.4967 H   0  0  0  0  0  0  0  0  0  0  0  0
   48.5660   35.0975   41.0542 H   0  0  0  0  0  0  0  0  0  0  0  0
   50.1967   35.1570   44.1439 H   0  0  0  0  0  0  0  0  0  0  0  0
   51.8701   28.8717   40.0885 H   0  0  0  0  0  0  0  0  0  0  0  0
   50.0519   29.9712   39.5460 H   0  0  0  0  0  0  0  0  0  0  0  0
   49.4390   28.8619   40.8277 H   0  0  0  0  0  0  0  0  0  0  0  0
   48.6573   31.1297   41.2147 H   0  0  0  0  0  0  0  0  0  0  0  0
   49.8474   30.6022   42.4989 H   0  0  0  0  0  0  0  0  0  0  0  0
   50.0261   32.7441   40.4660 H   0  0  0  0  0  0  0  0  0  0  0  0
   51.9115   31.6146   39.6069 H   0  0  0  0  0  0  0  0  0  0  0  0
   52.6620   32.4897   40.9797 H   0  0  0  0  0  0  0  0  0  0  0  0
   52.2722   30.4999   42.4193 H   0  0  0  0  0  0  0  0  0  0  0  0
   53.3382   30.1590   40.9818 H   0  0  0  0  0  0  0  0  0  0  0  0
  1  2  2  0
  1 11  1  0
  3  2  1  0
  4  3  2  0
  5  4  1  0
  5  6  2  0
  6  1  1  0
  7  8  2  0
  8  9  1  0
 10  9  2  0
 11 10  1  0
 12 11  2  0
 12  7  1  0
 13  6  1  0
 14 16  1  0
 14 13  1  0
 15 14  1  0
 17 14  1  0
 18 23  1  0
 19 18  1  0
 19 20  1  0
 21 20  1  0
 21 17  1  0
 22 21  1  0
 22 23  1  0
  2 24  1  0
  3 25  1  0
  4 26  1  0
  5 27  1  0
  7 28  1  0
  8 29  1  0
  9 30  1  0
 13 31  1  0
 15 32  1  0
 16 33  1  0
 18 34  1  0
 19 35  1  0
 19 36  1  0
 20 37  1  0
 20 38  1  0
 21 39  1  0
 22 40  1  0
 22 41  1  0
 23 42  1  0
 23 43  1  0
M  ISO  8  24  14  25  14  26  14  27  14  28  14  29  14  30  14  32   3
M  ISO  8  33   3  34   5  35  13  36  13  37  13  38  13  39  13  40  13
M  ISO  3  41  13  42  13  43  13
M  END
>  <minimizedAffinity>  (1) 
-6.03739643

>  <minimizedRMSD>  (1) 
1.94314098

$$$$
