
     RDKit          3D

 34 36  0  0  0  0  0  0  0  0999 V2000
   46.3770   33.6780   44.7430 C   0  0  0  0  0  0  0  0  0  0  0  0
   45.1930   34.3470   44.9480 C   0  0  0  0  0  0  0  0  0  0  0  0
   44.7090   35.3450   44.1340 C   0  0  0  0  0  0  0  0  0  0  0  0
   45.4370   35.7110   43.0440 C   0  0  0  0  0  0  0  0  0  0  0  0
   46.6230   35.0720   42.8000 C   0  0  0  0  0  0  0  0  0  0  0  0
   47.0870   34.0670   43.6410 C   0  0  0  0  0  0  0  0  0  0  0  0
   47.3180   31.9730   47.8300 C   0  0  0  0  0  0  0  0  0  0  0  0
   47.7070   30.6990   47.3960 C   0  0  0  0  0  0  0  0  0  0  0  0
   47.6410   30.4390   46.0360 C   0  0  0  0  0  0  0  0  0  0  0  0
   47.2100   31.3940   45.1470 N   0  0  0  0  0  0  0  0  0  0  0  0
   46.8400   32.6320   45.6330 C   0  0  0  0  0  0  0  0  0  0  0  0
   46.9070   32.8750   46.9420 N   0  0  0  0  0  0  0  0  0  0  0  0
   48.3260   33.5070   43.2520 N   0  0  0  0  0  0  0  0  0  0  0  0
   49.7250   34.1940   42.5330 S   0  0  0  0  0  0  0  0  0  0  0  0
   49.3920   34.5150   41.0810 O   0  0  0  0  0  0  0  0  0  0  0  0
   50.2330   35.4180   43.1820 O   0  0  0  0  0  0  0  0  0  0  0  0
   50.8830   32.9610   42.4540 O   0  0  0  0  0  0  0  0  0  0  0  0
   50.7240   32.0560   41.4020 C   0  0  0  0  0  0  0  0  0  0  0  0
   51.3770   30.9640   41.8340 C   0  0  0  0  0  0  0  0  0  0  0  0
   51.1340   29.7710   40.3770 S   0  0  0  0  0  0  0  0  0  0  0  0
   50.1420   31.1100   39.4610 C   0  0  0  0  0  0  0  0  0  0  0  0
   50.1860   31.9340   40.2190 N   0  0  0  0  0  0  0  0  0  0  0  0
   44.5908   34.0644   45.8241 H   0  0  0  0  0  0  0  0  0  0  0  0
   43.7518   35.8377   44.3599 H   0  0  0  0  0  0  0  0  0  0  0  0
   45.0794   36.5050   42.3719 H   0  0  0  0  0  0  0  0  0  0  0  0
   47.2200   35.3593   41.9219 H   0  0  0  0  0  0  0  0  0  0  0  0
   47.3521   32.2266   48.8998 H   0  0  0  0  0  0  0  0  0  0  0  0
   48.0517   29.9341   48.1074 H   0  0  0  0  0  0  0  0  0  0  0  0
   47.9395   29.4488   45.6612 H   0  0  0  0  0  0  0  0  0  0  0  0
   48.4035   32.4963   43.4346 H   0  0  0  0  0  0  0  0  0  0  0  0
   48.6796   35.2017   41.0499 H   0  0  0  0  0  0  0  0  0  0  0  0
   50.1892   35.3126   44.1654 H   0  0  0  0  0  0  0  0  0  0  0  0
   51.9115   30.8035   42.7819 H   0  0  0  0  0  0  0  0  0  0  0  0
   49.6627   31.0833   38.4713 H   0  0  0  0  0  0  0  0  0  0  0  0
  1  2  2  0
  1 11  1  0
  3  2  1  0
  4  3  2  0
  5  4  1  0
  5  6  2  0
  6  1  1  0
  8  7  2  0
  9  8  1  0
 10 11  1  0
 10  9  2  0
 11 12  2  0
 12  7  1  0
 13  6  1  0
 14 16  1  0
 14 13  1  0
 15 14  1  0
 17 14  1  0
 18 19  2  0
 18 17  1  0
 20 19  1  0
 21 22  2  0
 21 20  1  0
 22 18  1  0
  2 23  1  0
  3 24  1  0
  4 25  1  0
  5 26  1  0
  7 27  1  0
  8 28  1  0
  9 29  1  0
 13 30  1  0
 15 31  1  0
 16 32  1  0
 19 33  1  0
 21 34  1  0
M  ISO  8  23  14  24  14  25  14  26  14  27  14  28  14  29  14  31   3
M  ISO  3  32   3  33  14  34  14
M  END
>  <minimizedAffinity>  (1) 
-6.00558329

>  <minimizedRMSD>  (1) 
3.01492739

$$$$
