
     RDKit          3D

 36 37  0  0  1  0  0  0  0  0999 V2000
   46.1220   33.3390   46.2280 C   0  0  0  0  0  0  0  0  0  0  0  0
   44.5410   35.9400   44.0340 C   0  0  0  0  0  0  0  0  0  0  0  0
   45.3370   35.8050   42.8690 C   0  0  0  0  0  0  0  0  0  0  0  0
   46.3480   34.8480   42.9080 C   0  0  0  0  0  0  0  0  0  0  0  0
   46.5180   34.1000   44.0480 N   0  0  0  0  0  0  0  0  0  0  0  0
   45.7250   34.2730   45.1350 C   0  0  0  0  0  0  0  0  0  0  0  0
   44.7440   35.1860   45.1280 N   0  0  0  0  0  0  0  0  0  0  0  0
   47.1560   34.7180   41.7100 C   0  0  0  0  0  0  0  0  0  0  0  0
   47.9670   33.5820   41.8030 F   0  0  0  0  0  0  0  0  0  0  0  0
   48.0340   35.7910   41.7120 F   0  0  0  0  0  0  0  0  0  0  0  0
   46.4220   34.6220   40.5630 F   0  0  0  0  0  0  0  0  0  0  0  0
   45.1510   33.3270   47.3520 C   0  0  0  0  0  0  0  0  0  0  0  0
   44.8190   31.0150   48.2640 C   0  0  2  0  0  0  0  0  0  0  0  0
   45.5090   32.3350   48.4040 C   0  0  1  0  0  0  0  0  0  0  0  0
   46.8860   32.1260   48.4420 O   0  0  0  0  0  0  0  0  0  0  0  0
   47.3270   31.2100   47.5180 C   0  0  0  0  0  0  0  0  0  0  0  0
   46.9620   29.8380   48.0200 C   0  0  1  0  0  0  0  0  0  0  0  0
   45.7250   29.9560   48.9020 C   0  0  2  0  0  0  0  0  0  0  0  0
   44.6010   30.5930   46.9760 O   0  0  0  0  0  0  0  0  0  0  0  0
   46.7490   28.9270   46.9860 O   0  0  0  0  0  0  0  0  0  0  0  0
   45.0710   28.7250   48.9590 O   0  0  0  0  0  0  0  0  0  0  0  0
   47.1045   33.6472   46.6149 H   0  0  0  0  0  0  0  0  0  0  0  0
   46.1521   32.3245   45.8038 H   0  0  0  0  0  0  0  0  0  0  0  0
   43.7318   36.6851   44.0431 H   0  0  0  0  0  0  0  0  0  0  0  0
   45.1646   36.4259   41.9775 H   0  0  0  0  0  0  0  0  0  0  0  0
   45.1243   34.3286   47.8059 H   0  0  0  0  0  0  0  0  0  0  0  0
   44.1702   33.0421   46.9436 H   0  0  0  0  0  0  0  0  0  0  0  0
   43.8338   31.1429   48.7364 H   0  0  0  0  0  0  0  0  0  0  0  0
   45.1592   32.7819   49.3463 H   0  0  0  0  0  0  0  0  0  0  0  0
   48.4183   31.2888   47.4042 H   0  0  0  0  0  0  0  0  0  0  0  0
   46.8620   31.3973   46.5389 H   0  0  0  0  0  0  0  0  0  0  0  0
   47.8088   29.4449   48.6017 H   0  0  0  0  0  0  0  0  0  0  0  0
   45.9920   30.2454   49.9291 H   0  0  0  0  0  0  0  0  0  0  0  0
   44.1467   29.7135   46.9893 H   0  0  0  0  0  0  0  0  0  0  0  0
   46.5410   28.0375   47.3675 H   0  0  0  0  0  0  0  0  0  0  0  0
   44.9342   28.4675   49.9051 H   0  0  0  0  0  0  0  0  0  0  0  0
  1 12  1  0
  2  7  2  0
  3  4  2  0
  3  2  1  0
  4  5  1  0
  5  6  2  0
  6  1  1  0
  7  6  1  0
  8 10  1  0
  8  9  1  0
  8  4  1  0
 11  8  1  0
 13 19  1  0
 13 14  1  0
 13 18  1  0
 14 12  1  0
 14 15  1  0
 16 17  1  0
 16 15  1  0
 17 20  1  0
 17 18  1  0
 18 21  1  0
  1 22  1  0
  1 23  1  0
  2 24  1  0
  3 25  1  0
 12 26  1  0
 12 27  1  0
 13 28  1  1
 14 29  1  1
 16 30  1  0
 16 31  1  0
 17 32  1  1
 18 33  1  1
 19 34  1  0
 20 35  1  0
 21 36  1  0
M  ISO  8  22   8  23   8  24  14  25  14  26   8  27   8  28  13  29  13
M  ISO  7  30  13  31  13  32  13  33  13  34   3  35   3  36   3
M  END
>  <minimizedAffinity>  (1) 
-5.75899267

>  <minimizedRMSD>  (1) 
1.92244303

$$$$
