
     RDKit          3D

 25 25  0  0  0  0  0  0  0  0999 V2000
   47.0510   32.5300   45.1070 C   0  0  0  0  0  0  0  0  0  0  0  0
   45.3860   35.1990   43.0640 C   0  0  0  0  0  0  0  0  0  0  0  0
   46.4550   35.5500   42.2020 C   0  0  0  0  0  0  0  0  0  0  0  0
   47.6490   34.8620   42.3720 C   0  0  0  0  0  0  0  0  0  0  0  0
   47.7240   33.9100   43.3380 N   0  0  0  0  0  0  0  0  0  0  0  0
   46.6740   33.6070   44.1430 C   0  0  0  0  0  0  0  0  0  0  0  0
   45.5080   34.2580   43.9970 N   0  0  0  0  0  0  0  0  0  0  0  0
   48.7330   35.2420   41.4670 C   0  0  0  0  0  0  0  0  0  0  0  0
   49.8340   34.4120   41.7020 F   0  0  0  0  0  0  0  0  0  0  0  0
   49.1330   36.5110   41.8350 F   0  0  0  0  0  0  0  0  0  0  0  0
   48.4020   35.1360   40.1450 F   0  0  0  0  0  0  0  0  0  0  0  0
   46.8140   32.9210   46.5190 C   0  0  0  0  0  0  0  0  0  0  0  0
   46.8590   31.7780   47.3140 O   0  0  0  0  0  0  0  0  0  0  0  0
   44.7030   30.4490   47.9040 O   0  0  0  0  0  0  0  0  0  0  0  0
   45.4470   31.7050   48.2460 P   0  0  0  0  0  0  0  0  0  0  0  0
   45.8630   31.8090   49.8840 O   0  0  0  0  0  0  0  0  0  0  0  0
   44.4480   33.0550   47.9300 O   0  0  0  0  0  0  0  0  0  0  0  0
   48.1192   32.3006   44.9793 H   0  0  0  0  0  0  0  0  0  0  0  0
   46.4203   31.6546   44.8928 H   0  0  0  0  0  0  0  0  0  0  0  0
   44.4239   35.7216   42.9583 H   0  0  0  0  0  0  0  0  0  0  0  0
   46.3440   36.3304   41.4348 H   0  0  0  0  0  0  0  0  0  0  0  0
   47.5924   33.6276   46.8428 H   0  0  0  0  0  0  0  0  0  0  0  0
   45.8302   33.4039   46.6134 H   0  0  0  0  0  0  0  0  0  0  0  0
   45.0681   31.6103   50.4396 H   0  0  0  0  0  0  0  0  0  0  0  0
   44.1524   33.4544   48.7863 H   0  0  0  0  0  0  0  0  0  0  0  0
  1 12  1  0
  2  7  2  0
  3  4  2  0
  3  2  1  0
  4  5  1  0
  5  6  2  0
  6  1  1  0
  7  6  1  0
  8  9  1  0
  8 10  1  0
  8  4  1  0
 11  8  1  0
 12 13  1  0
 13 15  1  0
 14 15  2  0
 15 16  1  0
 17 15  1  0
  1 18  1  0
  1 19  1  0
  2 20  1  0
  3 21  1  0
 12 22  1  0
 12 23  1  0
 16 24  1  0
 17 25  1  0
M  ISO  8  18   8  19   8  20  14  21  14  22   8  23   8  24   3  25   3
M  END
>  <minimizedAffinity>  (1) 
-5.3459363

>  <minimizedRMSD>  (1) 
1.92485833

$$$$
