
     RDKit          3D

 29 30  0  0  0  0  0  0  0  0999 V2000
   46.6440   32.7950   46.4800 C   0  0  0  0  0  0  0  0  0  0  0  0
   44.5500   35.4850   44.9200 C   0  0  0  0  0  0  0  0  0  0  0  0
   45.1150   35.5110   43.6250 C   0  0  0  0  0  0  0  0  0  0  0  0
   46.1560   34.6260   43.3680 C   0  0  0  0  0  0  0  0  0  0  0  0
   46.5460   33.8120   44.3750 N   0  0  0  0  0  0  0  0  0  0  0  0
   45.9860   33.8120   45.5970 C   0  0  0  0  0  0  0  0  0  0  0  0
   44.9830   34.6560   45.8620 N   0  0  0  0  0  0  0  0  0  0  0  0
   46.7310   34.6650   42.0240 C   0  0  0  0  0  0  0  0  0  0  0  0
   47.4990   33.5290   41.8170 F   0  0  0  0  0  0  0  0  0  0  0  0
   47.6290   35.7230   42.0140 F   0  0  0  0  0  0  0  0  0  0  0  0
   45.7760   34.7560   41.0430 F   0  0  0  0  0  0  0  0  0  0  0  0
   45.6510   32.1420   47.4060 C   0  0  0  0  0  0  0  0  0  0  0  0
   45.4910   30.7080   47.0880 C   0  0  0  0  0  0  0  0  0  0  0  0
   45.6190   30.0540   45.8960 C   0  0  0  0  0  0  0  0  0  0  0  0
   45.3660   28.7260   46.1440 C   0  0  0  0  0  0  0  0  0  0  0  0
   45.0950   28.5880   47.4440 N   0  0  0  0  0  0  0  0  0  0  0  0
   45.1750   29.7940   47.9990 N   0  0  0  0  0  0  0  0  0  0  0  0
   44.7660   27.3500   48.1660 C   0  0  0  0  0  0  0  0  0  0  0  0
   44.3140   27.6610   49.4550 F   0  0  0  0  0  0  0  0  0  0  0  0
   45.8330   26.5050   48.1630 F   0  0  0  0  0  0  0  0  0  0  0  0
   43.7090   26.7390   47.5180 F   0  0  0  0  0  0  0  0  0  0  0  0
   47.4198   33.2920   47.0810 H   0  0  0  0  0  0  0  0  0  0  0  0
   47.0834   32.0155   45.8403 H   0  0  0  0  0  0  0  0  0  0  0  0
   43.7251   36.1737   45.1549 H   0  0  0  0  0  0  0  0  0  0  0  0
   44.7467   36.2024   42.8528 H   0  0  0  0  0  0  0  0  0  0  0  0
   46.0059   32.2428   48.4423 H   0  0  0  0  0  0  0  0  0  0  0  0
   44.6774   32.6385   47.2809 H   0  0  0  0  0  0  0  0  0  0  0  0
   45.8751   30.5032   44.9251 H   0  0  0  0  0  0  0  0  0  0  0  0
   45.3837   27.9163   45.3996 H   0  0  0  0  0  0  0  0  0  0  0  0
  1 12  1  0
  2  7  2  0
  3  2  1  0
  4  3  2  0
  4  5  1  0
  5  6  2  0
  6  7  1  0
  6  1  1  0
  8  4  1  0
  9  8  1  0
 10  8  1  0
 11  8  1  0
 13 12  1  0
 13 17  2  0
 14 15  2  0
 14 13  1  0
 15 16  1  0
 16 17  1  0
 16 18  1  0
 18 19  1  0
 20 18  1  0
 21 18  1  0
  1 22  1  0
  1 23  1  0
  2 24  1  0
  3 25  1  0
 12 26  1  0
 12 27  1  0
 14 28  1  0
 15 29  1  0
M  ISO  8  22   8  23   8  24  14  25  14  26   8  27   8  28  14  29  14
M  END
>  <minimizedAffinity>  (1) 
-5.19072962

>  <minimizedRMSD>  (1) 
1.58824384

$$$$
