
     RDKit          3D

 43 46  0  0  0  0  0  0  0  0999 V2000
   45.5090   30.5480   47.2740 C   0  0  0  0  0  0  0  0  0  0  0  0
   45.2600   29.9840   46.0630 C   0  0  0  0  0  0  0  0  0  0  0  0
   44.9010   28.6630   46.2640 C   0  0  0  0  0  0  0  0  0  0  0  0
   44.9430   28.4640   47.5930 N   0  0  0  0  0  0  0  0  0  0  0  0
   45.3100   29.6060   48.1900 N   0  0  0  0  0  0  0  0  0  0  0  0
   44.5660   27.6930   45.2340 C   0  0  0  0  0  0  0  0  0  0  0  0
   45.5290   26.8690   44.7750 N   0  0  0  0  0  0  0  0  0  0  0  0
   45.2950   25.9590   43.8280 C   0  0  0  0  0  0  0  0  0  0  0  0
   44.0880   25.7920   43.2610 N   0  0  0  0  0  0  0  0  0  0  0  0
   43.0830   26.5800   43.6710 C   0  0  0  0  0  0  0  0  0  0  0  0
   41.8140   26.4820   43.1360 C   0  0  0  0  0  0  0  0  0  0  0  0
   40.7590   27.3050   43.5480 C   0  0  0  0  0  0  0  0  0  0  0  0
   41.0360   28.2380   44.5280 C   0  0  0  0  0  0  0  0  0  0  0  0
   42.3090   28.3120   45.0430 C   0  0  0  0  0  0  0  0  0  0  0  0
   43.3340   27.5110   44.6420 C   0  0  0  0  0  0  0  0  0  0  0  0
   44.6460   27.2170   48.3170 C   0  0  0  0  0  0  0  0  0  0  0  0
   44.3420   27.4980   49.6530 F   0  0  0  0  0  0  0  0  0  0  0  0
   45.7030   26.3510   48.2040 F   0  0  0  0  0  0  0  0  0  0  0  0
   43.5220   26.6500   47.7740 F   0  0  0  0  0  0  0  0  0  0  0  0
   45.9230   31.9190   47.5980 C   0  0  0  0  0  0  0  0  0  0  0  0
   46.8000   32.5040   46.5290 C   0  0  0  0  0  0  0  0  0  0  0  0
   44.6270   35.2540   45.2690 C   0  0  0  0  0  0  0  0  0  0  0  0
   45.0920   35.3740   43.9460 C   0  0  0  0  0  0  0  0  0  0  0  0
   46.1100   34.5210   43.5580 C   0  0  0  0  0  0  0  0  0  0  0  0
   46.5550   33.6600   44.4830 N   0  0  0  0  0  0  0  0  0  0  0  0
   46.1140   33.5480   45.7330 C   0  0  0  0  0  0  0  0  0  0  0  0
   45.1440   34.3560   46.1160 N   0  0  0  0  0  0  0  0  0  0  0  0
   46.5930   34.6480   42.1840 C   0  0  0  0  0  0  0  0  0  0  0  0
   47.3470   33.5220   41.8510 F   0  0  0  0  0  0  0  0  0  0  0  0
   47.5170   35.6960   42.1960 F   0  0  0  0  0  0  0  0  0  0  0  0
   45.5870   34.8240   41.2810 F   0  0  0  0  0  0  0  0  0  0  0  0
   45.3316   30.4910   45.0894 H   0  0  0  0  0  0  0  0  0  0  0  0
   46.1254   25.3180   43.4971 H   0  0  0  0  0  0  0  0  0  0  0  0
   41.6248   25.7290   42.3568 H   0  0  0  0  0  0  0  0  0  0  0  0
   39.7540   27.2126   43.1106 H   0  0  0  0  0  0  0  0  0  0  0  0
   40.2480   28.9136   44.8921 H   0  0  0  0  0  0  0  0  0  0  0  0
   42.5104   29.0609   45.8232 H   0  0  0  0  0  0  0  0  0  0  0  0
   45.0256   32.5460   47.7050 H   0  0  0  0  0  0  0  0  0  0  0  0
   46.4989   31.8899   48.5347 H   0  0  0  0  0  0  0  0  0  0  0  0
   47.6854   32.9501   47.0056 H   0  0  0  0  0  0  0  0  0  0  0  0
   47.0739   31.6896   45.8421 H   0  0  0  0  0  0  0  0  0  0  0  0
   43.8186   35.9147   45.6154 H   0  0  0  0  0  0  0  0  0  0  0  0
   44.6653   36.1128   43.2516 H   0  0  0  0  0  0  0  0  0  0  0  0
  1 20  1  0
  1  5  2  0
  2  3  2  0
  2  1  1  0
  3  4  1  0
  4  5  1  0
  4 16  1  0
  6  3  1  0
  7  6  2  0
  8  7  1  0
  9 10  1  0
  9  8  2  0
 10 15  2  0
 11 12  2  0
 11 10  1  0
 12 13  1  0
 13 14  2  0
 15 14  1  0
 15  6  1  0
 16 17  1  0
 18 16  1  0
 19 16  1  0
 21 20  1  0
 22 27  2  0
 23 22  1  0
 24 23  2  0
 24 25  1  0
 25 26  2  0
 26 27  1  0
 26 21  1  0
 28 30  1  0
 28 24  1  0
 29 28  1  0
 31 28  1  0
  2 32  1  0
  8 33  1  0
 11 34  1  0
 12 35  1  0
 13 36  1  0
 14 37  1  0
 20 38  1  0
 20 39  1  0
 21 40  1  0
 21 41  1  0
 22 42  1  0
 23 43  1  0
M  ISO  8  32  14  33  14  34  14  35  14  36  14  37  14  38   8  39   8
M  ISO  4  40   8  41   8  42  14  43  14
M  END
>  <minimizedAffinity>  (1) 
-5.72003841

>  <minimizedRMSD>  (1) 
1.02777088

$$$$
