
     RDKit          3D

 42 45  0  0  0  0  0  0  0  0999 V2000
   45.4350   30.5090   47.2430 C   0  0  0  0  0  0  0  0  0  0  0  0
   45.1570   29.9430   46.0390 C   0  0  0  0  0  0  0  0  0  0  0  0
   44.8220   28.6290   46.2810 C   0  0  0  0  0  0  0  0  0  0  0  0
   44.8970   28.4180   47.5900 N   0  0  0  0  0  0  0  0  0  0  0  0
   45.2680   29.5600   48.1560 N   0  0  0  0  0  0  0  0  0  0  0  0
   44.4630   27.6930   45.2710 N   0  0  0  0  0  0  0  0  0  0  0  0
   45.2610   26.7820   44.6750 C   0  0  0  0  0  0  0  0  0  0  0  0
   44.5840   26.0620   43.7650 N   0  0  0  0  0  0  0  0  0  0  0  0
   43.2940   26.5020   43.7510 C   0  0  0  0  0  0  0  0  0  0  0  0
   42.2050   26.1110   43.0130 C   0  0  0  0  0  0  0  0  0  0  0  0
   41.0530   26.7720   43.2530 N   0  0  0  0  0  0  0  0  0  0  0  0
   40.9680   27.7600   44.1630 C   0  0  0  0  0  0  0  0  0  0  0  0
   42.0500   28.1510   44.8970 N   0  0  0  0  0  0  0  0  0  0  0  0
   43.2430   27.5240   44.7010 C   0  0  0  0  0  0  0  0  0  0  0  0
   42.3830   25.0660   42.0820 N   0  0  0  0  0  0  0  0  0  0  0  0
   44.6270   27.1650   48.3130 C   0  0  0  0  0  0  0  0  0  0  0  0
   44.3320   27.4500   49.6500 F   0  0  0  0  0  0  0  0  0  0  0  0
   45.6950   26.3160   48.1850 F   0  0  0  0  0  0  0  0  0  0  0  0
   43.5090   26.5810   47.7770 F   0  0  0  0  0  0  0  0  0  0  0  0
   45.8440   31.8820   47.5590 C   0  0  0  0  0  0  0  0  0  0  0  0
   46.7470   32.4600   46.4970 C   0  0  0  0  0  0  0  0  0  0  0  0
   44.6340   35.2680   45.2590 C   0  0  0  0  0  0  0  0  0  0  0  0
   45.1160   35.3900   43.9320 C   0  0  0  0  0  0  0  0  0  0  0  0
   46.1180   34.5210   43.5410 C   0  0  0  0  0  0  0  0  0  0  0  0
   46.5430   33.6400   44.4570 N   0  0  0  0  0  0  0  0  0  0  0  0
   46.0920   33.5250   45.7020 C   0  0  0  0  0  0  0  0  0  0  0  0
   45.1360   34.3470   46.0920 N   0  0  0  0  0  0  0  0  0  0  0  0
   46.6170   34.6450   42.1720 C   0  0  0  0  0  0  0  0  0  0  0  0
   47.3960   33.5340   41.8520 F   0  0  0  0  0  0  0  0  0  0  0  0
   47.5210   35.7110   42.1880 F   0  0  0  0  0  0  0  0  0  0  0  0
   45.6230   34.8050   41.2550 F   0  0  0  0  0  0  0  0  0  0  0  0
   45.1927   30.4396   45.0581 H   0  0  0  0  0  0  0  0  0  0  0  0
   46.3282   26.6466   44.9048 H   0  0  0  0  0  0  0  0  0  0  0  0
   40.0030   28.2645   44.3189 H   0  0  0  0  0  0  0  0  0  0  0  0
   43.3073   24.6246   41.9738 H   0  0  0  0  0  0  0  0  0  0  0  0
   41.5886   24.7445   41.5106 H   0  0  0  0  0  0  0  0  0  0  0  0
   44.9450   32.5105   47.6417 H   0  0  0  0  0  0  0  0  0  0  0  0
   46.4026   31.8612   48.5064 H   0  0  0  0  0  0  0  0  0  0  0  0
   47.6372   32.8833   46.9852 H   0  0  0  0  0  0  0  0  0  0  0  0
   47.0085   31.6450   45.8060 H   0  0  0  0  0  0  0  0  0  0  0  0
   43.8363   35.9392   45.6100 H   0  0  0  0  0  0  0  0  0  0  0  0
   44.7101   36.1443   43.2419 H   0  0  0  0  0  0  0  0  0  0  0  0
  1 20  1  0
  1  5  2  0
  2  3  2  0
  2  1  1  0
  3  4  1  0
  4  5  1  0
  4 16  1  0
  6  3  1  0
  7  6  1  0
  8  7  2  0
  9  8  1  0
  9 14  2  0
 10 11  2  0
 10  9  1  0
 11 12  1  0
 12 13  2  0
 14 13  1  0
 14  6  1  0
 15 10  1  0
 16 17  1  0
 18 16  1  0
 19 16  1  0
 21 20  1  0
 22 27  2  0
 23 22  1  0
 24 23  2  0
 24 25  1  0
 25 26  2  0
 26 27  1  0
 26 21  1  0
 28 30  1  0
 28 24  1  0
 29 28  1  0
 31 28  1  0
  2 32  1  0
  7 33  1  0
 12 34  1  0
 15 35  1  0
 15 36  1  0
 20 37  1  0
 20 38  1  0
 21 39  1  0
 21 40  1  0
 22 41  1  0
 23 42  1  0
M  ISO  8  32  14  33  14  34  14  37   8  38   8  39   8  40   8  41  14
M  ISO  1  42  14
M  END
>  <minimizedAffinity>  (1) 
-5.54880333

>  <minimizedRMSD>  (1) 
1.37566686

$$$$
