
     RDKit          3D

 44 46  0  0  0  0  0  0  0  0999 V2000
   45.6150   32.1280   47.4290 C   0  0  0  0  0  0  0  0  0  0  0  0
   45.4880   30.6860   47.1190 C   0  0  0  0  0  0  0  0  0  0  0  0
   45.6960   30.0190   45.9360 C   0  0  0  0  0  0  0  0  0  0  0  0
   45.4390   28.7040   46.1920 C   0  0  0  0  0  0  0  0  0  0  0  0
   45.0900   28.5680   47.4690 N   0  0  0  0  0  0  0  0  0  0  0  0
   45.1250   29.7730   48.0110 N   0  0  0  0  0  0  0  0  0  0  0  0
   45.5560   27.7040   45.1840 N   0  0  0  0  0  0  0  0  0  0  0  0
   46.8670   27.1040   44.9850 C   0  0  0  0  0  0  0  0  0  0  0  0
   46.8200   26.1250   43.8400 C   0  0  0  0  0  0  0  0  0  0  0  0
   45.8130   25.0480   44.2380 C   0  0  0  0  0  0  0  0  0  0  0  0
   44.4940   25.6770   44.5550 C   0  0  0  0  0  0  0  0  0  0  0  0
   44.5050   27.1880   44.2960 C   0  0  0  0  0  0  0  0  0  0  0  0
   44.7370   27.3250   48.1530 C   0  0  0  0  0  0  0  0  0  0  0  0
   44.3430   27.6220   49.4730 F   0  0  0  0  0  0  0  0  0  0  0  0
   45.7800   26.4470   48.1230 F   0  0  0  0  0  0  0  0  0  0  0  0
   43.6410   26.7680   47.5480 F   0  0  0  0  0  0  0  0  0  0  0  0
   46.6180   32.7970   46.5270 C   0  0  0  0  0  0  0  0  0  0  0  0
   44.5510   35.4670   44.9530 C   0  0  0  0  0  0  0  0  0  0  0  0
   45.1130   35.4930   43.6500 C   0  0  0  0  0  0  0  0  0  0  0  0
   46.1460   34.6130   43.3870 C   0  0  0  0  0  0  0  0  0  0  0  0
   46.5140   33.8190   44.4020 N   0  0  0  0  0  0  0  0  0  0  0  0
   45.9900   33.7930   45.6240 C   0  0  0  0  0  0  0  0  0  0  0  0
   44.9960   34.6370   45.8790 N   0  0  0  0  0  0  0  0  0  0  0  0
   46.7210   34.6440   42.0460 C   0  0  0  0  0  0  0  0  0  0  0  0
   47.5030   33.5230   41.8540 F   0  0  0  0  0  0  0  0  0  0  0  0
   47.6270   35.7080   42.0410 F   0  0  0  0  0  0  0  0  0  0  0  0
   45.7720   34.7370   41.0630 F   0  0  0  0  0  0  0  0  0  0  0  0
   44.6356   32.6105   47.2954 H   0  0  0  0  0  0  0  0  0  0  0  0
   45.9614   32.2298   48.4680 H   0  0  0  0  0  0  0  0  0  0  0  0
   46.0070   30.4570   44.9761 H   0  0  0  0  0  0  0  0  0  0  0  0
   47.5981   27.8940   44.7584 H   0  0  0  0  0  0  0  0  0  0  0  0
   47.1625   26.5723   45.9015 H   0  0  0  0  0  0  0  0  0  0  0  0
   47.8123   25.6781   43.6800 H   0  0  0  0  0  0  0  0  0  0  0  0
   46.5265   26.6200   42.9025 H   0  0  0  0  0  0  0  0  0  0  0  0
   45.6886   24.3395   43.4058 H   0  0  0  0  0  0  0  0  0  0  0  0
   46.1836   24.5162   45.1267 H   0  0  0  0  0  0  0  0  0  0  0  0
   43.7189   25.2140   43.9266 H   0  0  0  0  0  0  0  0  0  0  0  0
   44.2869   25.5154   45.6232 H   0  0  0  0  0  0  0  0  0  0  0  0
   44.7454   27.4007   43.2439 H   0  0  0  0  0  0  0  0  0  0  0  0
   43.5272   27.6534   44.4894 H   0  0  0  0  0  0  0  0  0  0  0  0
   47.3677   33.3075   47.1494 H   0  0  0  0  0  0  0  0  0  0  0  0
   47.0775   32.0185   45.9003 H   0  0  0  0  0  0  0  0  0  0  0  0
   43.7267   36.1532   45.1970 H   0  0  0  0  0  0  0  0  0  0  0  0
   44.7415   36.1856   42.8804 H   0  0  0  0  0  0  0  0  0  0  0  0
  2  1  1  0
  2  6  2  0
  3  4  2  0
  3  2  1  0
  4  5  1  0
  5  6  1  0
  5 13  1  0
  7  4  1  0
  8  7  1  0
  9 10  1  0
  9  8  1  0
 10 11  1  0
 12 11  1  0
 12  7  1  0
 13 14  1  0
 15 13  1  0
 16 13  1  0
 17  1  1  0
 18 23  2  0
 19 18  1  0
 20 19  2  0
 20 21  1  0
 21 22  2  0
 22 23  1  0
 22 17  1  0
 24 20  1  0
 25 24  1  0
 26 24  1  0
 27 24  1  0
  1 28  1  0
  1 29  1  0
  3 30  1  0
  8 31  1  0
  8 32  1  0
  9 33  1  0
  9 34  1  0
 10 35  1  0
 10 36  1  0
 11 37  1  0
 11 38  1  0
 12 39  1  0
 12 40  1  0
 17 41  1  0
 17 42  1  0
 18 43  1  0
 19 44  1  0
M  ISO  8  28   8  29   8  30  14  31  13  32  13  33  13  34  13  35  13
M  ISO  8  36  13  37  13  38  13  39  13  40  13  41   8  42   8  43  14
M  ISO  1  44  14
M  END
>  <minimizedAffinity>  (1) 
-5.18405914

>  <minimizedRMSD>  (1) 
0.749889553

$$$$
