
     RDKit          3D

 31 32  0  0  0  0  0  0  0  0999 V2000
   45.6280   32.1120   47.4180 C   0  0  0  0  0  0  0  0  0  0  0  0
   45.4840   30.6860   47.0990 C   0  0  0  0  0  0  0  0  0  0  0  0
   45.6510   30.0350   45.9140 C   0  0  0  0  0  0  0  0  0  0  0  0
   45.3990   28.7050   46.1440 C   0  0  0  0  0  0  0  0  0  0  0  0
   45.0890   28.5610   47.4310 N   0  0  0  0  0  0  0  0  0  0  0  0
   45.1440   29.7660   47.9920 N   0  0  0  0  0  0  0  0  0  0  0  0
   44.7410   27.3230   48.1470 C   0  0  0  0  0  0  0  0  0  0  0  0
   44.3360   27.6250   49.4560 F   0  0  0  0  0  0  0  0  0  0  0  0
   45.8000   26.4530   48.1000 F   0  0  0  0  0  0  0  0  0  0  0  0
   43.6600   26.7460   47.5140 F   0  0  0  0  0  0  0  0  0  0  0  0
   45.4620   27.6430   45.1450 C   0  0  0  0  0  0  0  0  0  0  0  0
   44.4690   27.2480   44.4740 O   0  0  0  0  0  0  0  0  0  0  0  0
   46.6290   32.7920   46.5150 C   0  0  0  0  0  0  0  0  0  0  0  0
   44.5530   35.4640   44.9610 C   0  0  0  0  0  0  0  0  0  0  0  0
   45.1070   35.5000   43.6510 C   0  0  0  0  0  0  0  0  0  0  0  0
   46.1400   34.6210   43.3860 C   0  0  0  0  0  0  0  0  0  0  0  0
   46.5250   33.8160   44.3860 N   0  0  0  0  0  0  0  0  0  0  0  0
   46.0060   33.7840   45.6100 C   0  0  0  0  0  0  0  0  0  0  0  0
   45.0190   34.6140   45.8860 N   0  0  0  0  0  0  0  0  0  0  0  0
   46.7120   34.6550   42.0420 C   0  0  0  0  0  0  0  0  0  0  0  0
   47.5040   33.5230   41.8390 F   0  0  0  0  0  0  0  0  0  0  0  0
   47.6220   35.7150   42.0330 F   0  0  0  0  0  0  0  0  0  0  0  0
   45.7690   34.7520   41.0640 F   0  0  0  0  0  0  0  0  0  0  0  0
   44.6510   32.6034   47.2998 H   0  0  0  0  0  0  0  0  0  0  0  0
   45.9907   32.1951   48.4532 H   0  0  0  0  0  0  0  0  0  0  0  0
   45.9345   30.4895   44.9533 H   0  0  0  0  0  0  0  0  0  0  0  0
   46.4330   27.1580   44.9663 H   0  0  0  0  0  0  0  0  0  0  0  0
   47.3736   33.3062   47.1404 H   0  0  0  0  0  0  0  0  0  0  0  0
   47.0891   32.0148   45.8871 H   0  0  0  0  0  0  0  0  0  0  0  0
   43.7286   36.1452   45.2186 H   0  0  0  0  0  0  0  0  0  0  0  0
   44.7309   36.1946   42.8854 H   0  0  0  0  0  0  0  0  0  0  0  0
  2  1  1  0
  2  6  2  0
  3  4  2  0
  3  2  1  0
  4  5  1  0
  5  6  1  0
  5  7  1  0
  7  8  1  0
  9  7  1  0
 10  7  1  0
 11  4  1  0
 12 11  2  0
 13  1  1  0
 14 19  2  0
 15 14  1  0
 16 15  2  0
 16 17  1  0
 17 18  2  0
 18 19  1  0
 18 13  1  0
 20 16  1  0
 21 20  1  0
 22 20  1  0
 23 20  1  0
  1 24  1  0
  1 25  1  0
  3 26  1  0
 11 27  1  0
 13 28  1  0
 13 29  1  0
 14 30  1  0
 15 31  1  0
M  ISO  8  24   8  25   8  26  14  27   6  28   8  29   8  30  14  31  14
M  END
>  <minimizedAffinity>  (1) 
-5.05324984

>  <minimizedRMSD>  (1) 
0.0376460552

$$$$
