
     RDKit          3D

 34 35  0  0  0  0  0  0  0  0999 V2000
   45.5660   31.8880   47.6130 C   0  0  0  0  0  0  0  0  0  0  0  0
   45.4380   30.4510   47.3050 C   0  0  0  0  0  0  0  0  0  0  0  0
   45.5130   29.8140   46.1010 C   0  0  0  0  0  0  0  0  0  0  0  0
   45.1920   28.5300   46.3500 C   0  0  0  0  0  0  0  0  0  0  0  0
   44.9460   28.3480   47.6250 N   0  0  0  0  0  0  0  0  0  0  0  0
   45.0980   29.5300   48.1970 N   0  0  0  0  0  0  0  0  0  0  0  0
   44.5990   27.0900   48.2960 C   0  0  0  0  0  0  0  0  0  0  0  0
   44.2890   27.3480   49.6160 F   0  0  0  0  0  0  0  0  0  0  0  0
   45.6160   26.1800   48.0920 F   0  0  0  0  0  0  0  0  0  0  0  0
   43.5340   26.5370   47.6400 F   0  0  0  0  0  0  0  0  0  0  0  0
   44.9090   27.5810   45.3340 C   0  0  0  0  0  0  0  0  0  0  0  0
   45.4530   26.6860   44.8620 O   0  0  0  0  0  0  0  0  0  0  0  0
   46.5730   32.5660   46.7630 C   0  0  0  0  0  0  0  0  0  0  0  0
   44.6240   35.2900   45.1230 C   0  0  0  0  0  0  0  0  0  0  0  0
   45.2330   35.3210   43.8360 C   0  0  0  0  0  0  0  0  0  0  0  0
   46.2540   34.4240   43.6210 C   0  0  0  0  0  0  0  0  0  0  0  0
   46.5610   33.6210   44.6450 N   0  0  0  0  0  0  0  0  0  0  0  0
   45.9970   33.5880   45.8440 C   0  0  0  0  0  0  0  0  0  0  0  0
   45.0210   34.4350   46.0720 N   0  0  0  0  0  0  0  0  0  0  0  0
   46.8950   34.4390   42.3100 C   0  0  0  0  0  0  0  0  0  0  0  0
   47.9580   33.5160   42.2960 F   0  0  0  0  0  0  0  0  0  0  0  0
   47.5400   35.6800   42.2050 F   0  0  0  0  0  0  0  0  0  0  0  0
   46.0370   34.1860   41.2880 F   0  0  0  0  0  0  0  0  0  0  0  0
   44.7880   36.2660   42.7990 C   0  0  0  0  0  0  0  0  0  0  0  0
   44.5900   32.3703   47.4555 H   0  0  0  0  0  0  0  0  0  0  0  0
   45.8985   31.9762   48.6578 H   0  0  0  0  0  0  0  0  0  0  0  0
   45.7798   30.2565   45.1299 H   0  0  0  0  0  0  0  0  0  0  0  0
   43.9182   27.7432   44.8846 H   0  0  0  0  0  0  0  0  0  0  0  0
   47.3028   33.0624   47.4195 H   0  0  0  0  0  0  0  0  0  0  0  0
   47.0321   31.7910   46.1316 H   0  0  0  0  0  0  0  0  0  0  0  0
   43.8037   35.9891   45.3429 H   0  0  0  0  0  0  0  0  0  0  0  0
   44.3659   37.1625   43.2767 H   0  0  0  0  0  0  0  0  0  0  0  0
   45.6453   36.5535   42.1727 H   0  0  0  0  0  0  0  0  0  0  0  0
   44.0202   35.7883   42.1727 H   0  0  0  0  0  0  0  0  0  0  0  0
  2  1  1  0
  2  6  2  0
  3  4  2  0
  3  2  1  0
  4  5  1  0
  5  6  1  0
  5  7  1  0
  7  8  1  0
  9  7  1  0
 10  7  1  0
 11  4  1  0
 12 11  2  0
 13  1  1  0
 14 19  2  0
 15 14  1  0
 16 15  2  0
 16 17  1  0
 17 18  2  0
 18 19  1  0
 18 13  1  0
 20 16  1  0
 21 20  1  0
 22 20  1  0
 23 20  1  0
 24 15  1  0
  1 25  1  0
  1 26  1  0
  3 27  1  0
 11 28  1  0
 13 29  1  0
 13 30  1  0
 14 31  1  0
 24 32  1  0
 24 33  1  0
 24 34  1  0
M  ISO  8  25   8  26   8  27  14  28   6  29   8  30   8  31  14  32   8
M  ISO  2  33   8  34   8
M  END
>  <minimizedAffinity>  (1) 
-5.24009085

>  <minimizedRMSD>  (1) 
0.363939911

$$$$
