
     RDKit          3D

 33 34  0  0  0  0  0  0  0  0999 V2000
   46.6880   32.6180   46.8830 C   0  0  0  0  0  0  0  0  0  0  0  0
   44.7120   35.1200   44.9940 C   0  0  0  0  0  0  0  0  0  0  0  0
   45.3900   35.0960   43.7440 C   0  0  0  0  0  0  0  0  0  0  0  0
   46.4580   34.2610   43.6100 C   0  0  0  0  0  0  0  0  0  0  0  0
   46.7630   33.5400   44.6900 N   0  0  0  0  0  0  0  0  0  0  0  0
   46.1470   33.5500   45.8550 C   0  0  0  0  0  0  0  0  0  0  0  0
   45.1100   34.3520   46.0040 N   0  0  0  0  0  0  0  0  0  0  0  0
   47.1370   34.2430   42.3280 C   0  0  0  0  0  0  0  0  0  0  0  0
   48.2650   33.4040   42.4190 F   0  0  0  0  0  0  0  0  0  0  0  0
   47.6820   35.5160   42.1540 F   0  0  0  0  0  0  0  0  0  0  0  0
   46.3610   33.8290   41.2990 F   0  0  0  0  0  0  0  0  0  0  0  0
   44.8270   35.9900   42.8010 C   0  0  0  0  0  0  0  0  0  0  0  0
   44.0420   35.9740   41.8460 O   0  0  0  0  0  0  0  0  0  0  0  0
   45.5980   31.9830   47.7280 C   0  0  0  0  0  0  0  0  0  0  0  0
   45.4080   30.5640   47.3770 C   0  0  0  0  0  0  0  0  0  0  0  0
   45.5520   29.9520   46.1710 C   0  0  0  0  0  0  0  0  0  0  0  0
   45.2750   28.6460   46.3900 C   0  0  0  0  0  0  0  0  0  0  0  0
   44.9700   28.4590   47.6610 N   0  0  0  0  0  0  0  0  0  0  0  0
   45.0560   29.6350   48.2550 N   0  0  0  0  0  0  0  0  0  0  0  0
   44.6020   27.2040   48.3330 C   0  0  0  0  0  0  0  0  0  0  0  0
   44.2930   27.4500   49.6510 F   0  0  0  0  0  0  0  0  0  0  0  0
   43.6820   26.5470   47.6040 F   0  0  0  0  0  0  0  0  0  0  0  0
   45.7210   26.4030   48.2350 F   0  0  0  0  0  0  0  0  0  0  0  0
   45.3990   27.5890   45.4160 C   0  0  0  0  0  0  0  0  0  0  0  0
   44.6620   27.1260   44.6250 O   0  0  0  0  0  0  0  0  0  0  0  0
   47.3651   33.1781   47.5446 H   0  0  0  0  0  0  0  0  0  0  0  0
   47.2136   31.8088   46.3549 H   0  0  0  0  0  0  0  0  0  0  0  0
   43.8452   35.7840   45.1273 H   0  0  0  0  0  0  0  0  0  0  0  0
   45.2028   37.0099   42.9697 H   0  0  0  0  0  0  0  0  0  0  0  0
   45.8790   32.0554   48.7890 H   0  0  0  0  0  0  0  0  0  0  0  0
   44.6554   32.5173   47.5383 H   0  0  0  0  0  0  0  0  0  0  0  0
   45.8346   30.4209   45.2169 H   0  0  0  0  0  0  0  0  0  0  0  0
   46.3923   27.1165   45.4124 H   0  0  0  0  0  0  0  0  0  0  0  0
  1 14  1  0
  2  7  2  0
  3  2  1  0
  4  3  2  0
  4  5  1  0
  5  6  2  0
  6  7  1  0
  6  1  1  0
  8  9  1  0
  8  4  1  0
 10  8  1  0
 11  8  1  0
 12  3  1  0
 13 12  2  0
 15 14  1  0
 15 19  2  0
 16 17  2  0
 16 15  1  0
 17 18  1  0
 18 19  1  0
 18 20  1  0
 20 21  1  0
 22 20  1  0
 23 20  1  0
 24 17  1  0
 25 24  2  0
  1 26  1  0
  1 27  1  0
  2 28  1  0
 12 29  1  0
 14 30  1  0
 14 31  1  0
 16 32  1  0
 24 33  1  0
M  ISO  8  26   8  27   8  28  14  29   6  30   8  31   8  32  14  33   6
M  END
>  <minimizedAffinity>  (1) 
-5.14317608

>  <minimizedRMSD>  (1) 
0.522636354

$$$$
