
     RDKit          3D

 13 13  0  0  0  0  0  0  0  0999 V2000
   44.3860   35.7730   44.4340 C   0  0  0  0  0  0  0  0  0  0  0  0
   44.6670   35.0620   43.2600 C   0  0  0  0  0  0  0  0  0  0  0  0
   45.2950   33.8220   43.3910 C   0  0  0  0  0  0  0  0  0  0  0  0
   45.5920   33.3820   44.6380 N   0  0  0  0  0  0  0  0  0  0  0  0
   45.3070   34.0930   45.7490 C   0  0  0  0  0  0  0  0  0  0  0  0
   44.6980   35.3020   45.6640 N   0  0  0  0  0  0  0  0  0  0  0  0
   44.2540   35.7320   42.0010 C   0  0  0  0  0  0  0  0  0  0  0  0
   43.8923   36.7527   44.3530 H   0  0  0  0  0  0  0  0  0  0  0  0
   45.5422   33.2181   42.5055 H   0  0  0  0  0  0  0  0  0  0  0  0
   45.5720   33.6868   46.7363 H   0  0  0  0  0  0  0  0  0  0  0  0
   43.6906   36.6461   42.2398 H   0  0  0  0  0  0  0  0  0  0  0  0
   45.1473   35.9944   41.4152 H   0  0  0  0  0  0  0  0  0  0  0  0
   43.6182   35.0519   41.4152 H   0  0  0  0  0  0  0  0  0  0  0  0
  1  6  2  0
  2  3  2  0
  2  1  1  0
  3  4  1  0
  4  5  2  0
  6  5  1  0
  7  2  1  0
  1  8  1  0
  3  9  1  0
  5 10  1  0
  7 11  1  0
  7 12  1  0
  7 13  1  0
M  ISO  6   8  14   9  14  10  14  11   8  12   8  13   8
M  END
>  <minimizedAffinity>  (1) 
-2.73789763

>  <minimizedRMSD>  (1) 
0.82642746

$$$$
