
     RDKit          3D

 28 29  0  0  0  0  0  0  0  0999 V2000
   44.5970   34.2750   42.6910 C   0  0  0  0  0  0  0  0  0  0  0  0
   45.2590   34.2530   45.0380 C   0  0  0  0  0  0  0  0  0  0  0  0
   45.1540   33.5290   43.8400 C   0  0  0  0  0  0  0  0  0  0  0  0
   45.5820   32.1880   43.8500 C   0  0  0  0  0  0  0  0  0  0  0  0
   46.0630   31.6840   45.0000 N   0  0  0  0  0  0  0  0  0  0  0  0
   46.1520   32.3980   46.1300 C   0  0  0  0  0  0  0  0  0  0  0  0
   45.7530   33.6890   46.1690 N   0  0  0  0  0  0  0  0  0  0  0  0
   45.6290   34.7070   41.7890 N   0  0  0  0  0  0  0  0  0  0  0  0
   46.1310   33.6420   40.9480 C   0  0  0  0  0  0  0  0  0  0  0  0
   47.3520   34.2380   40.2360 C   0  0  0  0  0  0  0  0  0  0  0  0
   48.5040   34.2240   41.2260 C   0  0  0  0  0  0  0  0  0  0  0  0
   47.9630   34.5840   42.5830 C   0  0  0  0  0  0  0  0  0  0  0  0
   46.6730   35.3840   42.5020 C   0  0  0  0  0  0  0  0  0  0  0  0
   43.8979   33.6227   42.1472 H   0  0  0  0  0  0  0  0  0  0  0  0
   44.0828   35.1673   43.0774 H   0  0  0  0  0  0  0  0  0  0  0  0
   44.9328   35.3033   45.0605 H   0  0  0  0  0  0  0  0  0  0  0  0
   45.5245   31.5696   42.9421 H   0  0  0  0  0  0  0  0  0  0  0  0
   46.5553   31.9273   47.0387 H   0  0  0  0  0  0  0  0  0  0  0  0
   46.4244   32.7744   41.5572 H   0  0  0  0  0  0  0  0  0  0  0  0
   45.3717   33.2857   40.2363 H   0  0  0  0  0  0  0  0  0  0  0  0
   47.6063   33.6319   39.3540 H   0  0  0  0  0  0  0  0  0  0  0  0
   47.1428   35.2632   39.8966 H   0  0  0  0  0  0  0  0  0  0  0  0
   48.9543   33.2210   41.2589 H   0  0  0  0  0  0  0  0  0  0  0  0
   49.2755   34.9463   40.9210 H   0  0  0  0  0  0  0  0  0  0  0  0
   47.7687   33.6571   43.1425 H   0  0  0  0  0  0  0  0  0  0  0  0
   48.7138   35.2106   43.0866 H   0  0  0  0  0  0  0  0  0  0  0  0
   46.8838   36.3355   41.9919 H   0  0  0  0  0  0  0  0  0  0  0  0
   46.3185   35.5354   43.5323 H   0  0  0  0  0  0  0  0  0  0  0  0
  1  3  1  0
  2  7  2  0
  3  4  2  0
  3  2  1  0
  4  5  1  0
  5  6  2  0
  6  7  1  0
  8 13  1  0
  8  1  1  0
  9  8  1  0
 10  9  1  0
 10 11  1  0
 11 12  1  0
 13 12  1  0
  1 14  1  0
  1 15  1  0
  2 16  1  0
  4 17  1  0
  6 18  1  0
  9 19  1  0
  9 20  1  0
 10 21  1  0
 10 22  1  0
 11 23  1  0
 11 24  1  0
 12 25  1  0
 12 26  1  0
 13 27  1  0
 13 28  1  0
M  ISO  8  14   8  15   8  16  14  17  14  18  14  19  13  20  13  21  13
M  ISO  7  22  13  23  13  24  13  25  13  26  13  27  13  28  13
M  END
>  <minimizedAffinity>  (1) 
-3.54557419

>  <minimizedRMSD>  (1) 
2.96372151

$$$$
