
     RDKit          3D

 20 21  0  0  0  0  0  0  0  0999 V2000
   44.3250   35.7390   44.2650 C   0  0  0  0  0  0  0  0  0  0  0  0
   44.5820   34.9440   43.1560 C   0  0  0  0  0  0  0  0  0  0  0  0
   45.2340   33.7210   43.3760 C   0  0  0  0  0  0  0  0  0  0  0  0
   45.5600   33.4130   44.6510 N   0  0  0  0  0  0  0  0  0  0  0  0
   45.2970   34.2040   45.7020 C   0  0  0  0  0  0  0  0  0  0  0  0
   44.6650   35.3990   45.5220 N   0  0  0  0  0  0  0  0  0  0  0  0
   44.1400   35.4730   41.8550 C   0  0  0  0  0  0  0  0  0  0  0  0
   42.9720   34.7240   41.3120 C   0  0  0  0  0  0  0  0  0  0  0  0
   41.7000   35.5170   41.1240 C   0  0  0  0  0  0  0  0  0  0  0  0
   42.5080   35.1780   39.9240 C   0  0  0  0  0  0  0  0  0  0  0  0
   43.8149   36.7007   44.1073 H   0  0  0  0  0  0  0  0  0  0  0  0
   45.4702   33.0406   42.5445 H   0  0  0  0  0  0  0  0  0  0  0  0
   45.5923   33.8874   46.7132 H   0  0  0  0  0  0  0  0  0  0  0  0
   43.8575   36.5288   41.9791 H   0  0  0  0  0  0  0  0  0  0  0  0
   44.9725   35.3630   41.1445 H   0  0  0  0  0  0  0  0  0  0  0  0
   43.2323   33.7692   41.7922 H   0  0  0  0  0  0  0  0  0  0  0  0
   40.7257   35.0311   41.2810 H   0  0  0  0  0  0  0  0  0  0  0  0
   41.3081   36.4535   41.5476 H   0  0  0  0  0  0  0  0  0  0  0  0
   42.1341   34.4389   39.2002 H   0  0  0  0  0  0  0  0  0  0  0  0
   42.9599   35.7538   39.1029 H   0  0  0  0  0  0  0  0  0  0  0  0
  1  6  2  0
  2  3  2  0
  2  1  1  0
  3  4  1  0
  4  5  2  0
  6  5  1  0
  7  2  1  0
  8  7  1  0
  9  8  1  0
 10  9  1  0
 10  8  1  0
  1 11  1  0
  3 12  1  0
  5 13  1  0
  7 14  1  0
  7 15  1  0
  8 16  1  0
  9 17  1  0
  9 18  1  0
 10 19  1  0
 10 20  1  0
M  ISO  8  11  14  12  14  13  14  14   8  15   8  16  13  17  13  18  13
M  ISO  2  19  13  20  13
M  END
>  <minimizedAffinity>  (1) 
-3.40022898

>  <minimizedRMSD>  (1) 
0.441594332

$$$$
