
     RDKit          3D

 31 32  0  0  0  0  0  0  0  0999 V2000
   44.2150   35.9630   43.5690 C   0  0  0  0  0  0  0  0  0  0  0  0
   44.2430   35.0470   42.5050 C   0  0  0  0  0  0  0  0  0  0  0  0
   44.7420   33.7960   42.7870 C   0  0  0  0  0  0  0  0  0  0  0  0
   45.1680   33.5160   44.0430 N   0  0  0  0  0  0  0  0  0  0  0  0
   45.1170   34.4340   45.0300 C   0  0  0  0  0  0  0  0  0  0  0  0
   44.6440   35.6720   44.8250 N   0  0  0  0  0  0  0  0  0  0  0  0
   45.5800   34.0770   46.3240 N   0  0  0  0  0  0  0  0  0  0  0  0
   43.7420   35.5260   41.2190 C   0  0  0  0  0  0  0  0  0  0  0  0
   42.4290   34.9360   40.9880 N   0  0  0  0  0  0  0  0  0  0  0  0
   41.3650   35.3770   41.6620 C   0  0  0  0  0  0  0  0  0  0  0  0
   40.1400   34.7700   41.3930 C   0  0  0  0  0  0  0  0  0  0  0  0
   40.0300   33.7570   40.4670 C   0  0  0  0  0  0  0  0  0  0  0  0
   38.9090   33.2460   40.2620 O   0  0  0  0  0  0  0  0  0  0  0  0
   41.1290   33.3480   39.8140 N   0  0  0  0  0  0  0  0  0  0  0  0
   42.3420   33.9320   40.0650 C   0  0  0  0  0  0  0  0  0  0  0  0
   43.3230   33.4940   39.4130 O   0  0  0  0  0  0  0  0  0  0  0  0
   46.5390   32.6710   46.5900 S   0  0  0  0  0  0  0  0  0  0  0  0
   47.2870   32.2680   45.3550 O   0  0  0  0  0  0  0  0  0  0  0  0
   45.6610   31.4960   46.9800 O   0  0  0  0  0  0  0  0  0  0  0  0
   47.5900   32.9140   47.8900 O   0  0  0  0  0  0  0  0  0  0  0  0
   43.8239   36.9726   43.3748 H   0  0  0  0  0  0  0  0  0  0  0  0
   44.7948   33.0296   41.9997 H   0  0  0  0  0  0  0  0  0  0  0  0
   45.3356   34.6754   47.1259 H   0  0  0  0  0  0  0  0  0  0  0  0
   43.6584   36.6227   41.2380 H   0  0  0  0  0  0  0  0  0  0  0  0
   44.4330   35.2377   40.4131 H   0  0  0  0  0  0  0  0  0  0  0  0
   41.4516   36.1875   42.4006 H   0  0  0  0  0  0  0  0  0  0  0  0
   39.2421   35.1071   41.9316 H   0  0  0  0  0  0  0  0  0  0  0  0
   41.0596   32.5902   39.1198 H   0  0  0  0  0  0  0  0  0  0  0  0
   48.1286   31.8146   45.6122 H   0  0  0  0  0  0  0  0  0  0  0  0
   45.6137   31.4327   47.9668 H   0  0  0  0  0  0  0  0  0  0  0  0
   47.0955   32.7997   48.7400 H   0  0  0  0  0  0  0  0  0  0  0  0
  1  6  2  0
  2  3  2  0
  2  1  1  0
  3  4  1  0
  4  5  2  0
  5  7  1  0
  6  5  1  0
  7 17  1  0
  8  2  1  0
  9  8  1  0
  9 10  1  0
 11 10  2  0
 12 11  1  0
 13 12  2  0
 14 15  1  0
 14 12  1  0
 15  9  1  0
 16 15  2  0
 17 19  1  0
 17 20  1  0
 18 17  1  0
  1 21  1  0
  3 22  1  0
  7 23  1  0
  8 24  1  0
  8 25  1  0
 10 26  1  0
 11 27  1  0
 14 28  1  0
 18 29  1  0
 19 30  1  0
 20 31  1  0
M  ISO  8  21  14  22  14  24   8  25   8  26  14  27  14  28   9  29   3
M  ISO  2  30   3  31   3
M  END
>  <minimizedAffinity>  (1) 
-5.85220289

>  <minimizedRMSD>  (1) 
0.474214196

$$$$
