
     RDKit          3D

 32 34  0  0  0  0  0  0  0  0999 V2000
   44.5290   35.5690   44.1050 C   0  0  0  0  0  0  0  0  0  0  0  0
   44.4750   34.9290   42.8580 C   0  0  0  0  0  0  0  0  0  0  0  0
   44.8930   33.6170   42.8200 C   0  0  0  0  0  0  0  0  0  0  0  0
   45.3230   33.0210   43.9430 N   0  0  0  0  0  0  0  0  0  0  0  0
   45.3570   33.6830   45.1320 C   0  0  0  0  0  0  0  0  0  0  0  0
   44.9630   34.9670   45.2390 N   0  0  0  0  0  0  0  0  0  0  0  0
   45.8330   33.0040   46.3440 C   0  0  0  0  0  0  0  0  0  0  0  0
   47.0150   32.2620   46.2710 C   0  0  0  0  0  0  0  0  0  0  0  0
   47.4810   31.6130   47.4020 C   0  0  0  0  0  0  0  0  0  0  0  0
   46.7250   31.7490   48.5470 C   0  0  0  0  0  0  0  0  0  0  0  0
   45.5540   32.4760   48.6430 C   0  0  0  0  0  0  0  0  0  0  0  0
   45.1500   33.0860   47.5090 N   0  0  0  0  0  0  0  0  0  0  0  0
   43.9800   35.7260   41.7380 C   0  0  0  0  0  0  0  0  0  0  0  0
   42.7230   35.1500   41.2740 N   0  0  0  0  0  0  0  0  0  0  0  0
   41.5930   35.4110   41.9380 C   0  0  0  0  0  0  0  0  0  0  0  0
   40.4180   34.8360   41.4530 C   0  0  0  0  0  0  0  0  0  0  0  0
   40.4240   34.0350   40.3400 C   0  0  0  0  0  0  0  0  0  0  0  0
   39.3490   33.5370   39.9370 O   0  0  0  0  0  0  0  0  0  0  0  0
   41.5920   33.7970   39.6980 N   0  0  0  0  0  0  0  0  0  0  0  0
   42.7460   34.3550   40.1670 C   0  0  0  0  0  0  0  0  0  0  0  0
   43.7950   34.0940   39.5240 O   0  0  0  0  0  0  0  0  0  0  0  0
   44.2010   36.6172   44.1658 H   0  0  0  0  0  0  0  0  0  0  0  0
   44.8744   33.0594   41.8720 H   0  0  0  0  0  0  0  0  0  0  0  0
   47.5701   32.1941   45.3238 H   0  0  0  0  0  0  0  0  0  0  0  0
   48.4069   31.0193   47.3877 H   0  0  0  0  0  0  0  0  0  0  0  0
   47.0817   31.2393   49.4542 H   0  0  0  0  0  0  0  0  0  0  0  0
   44.9877   32.5526   49.5829 H   0  0  0  0  0  0  0  0  0  0  0  0
   43.8133   36.7625   42.0663 H   0  0  0  0  0  0  0  0  0  0  0  0
   44.7173   35.7240   40.9216 H   0  0  0  0  0  0  0  0  0  0  0  0
   41.5894   36.0533   42.8310 H   0  0  0  0  0  0  0  0  0  0  0  0
   39.4683   35.0289   41.9735 H   0  0  0  0  0  0  0  0  0  0  0  0
   41.6097   33.1981   38.8602 H   0  0  0  0  0  0  0  0  0  0  0  0
  1  6  2  0
  2  1  1  0
  3  2  2  0
  3  4  1  0
  4  5  2  0
  5  6  1  0
  5  7  1  0
  7 12  1  0
  8  7  2  0
  8  9  1  0
  9 10  2  0
 10 11  1  0
 12 11  2  0
 13  2  1  0
 14 13  1  0
 14 15  1  0
 16 15  2  0
 17 16  1  0
 18 17  2  0
 19 20  1  0
 19 17  1  0
 20 14  1  0
 21 20  2  0
  1 22  1  0
  3 23  1  0
  8 24  1  0
  9 25  1  0
 10 26  1  0
 11 27  1  0
 13 28  1  0
 13 29  1  0
 15 30  1  0
 16 31  1  0
 19 32  1  0
M  ISO  8  22  14  23  14  24  14  25  14  26  14  27  14  28   8  29   8
M  ISO  3  30  14  31  14  32   9
M  END
>  <minimizedAffinity>  (1) 
-5.54417562

>  <minimizedRMSD>  (1) 
1.16386211

$$$$
