
     RDKit          3D

 24 25  0  0  0  0  0  0  0  0999 V2000
   43.6490   35.5980   41.1160 C   0  0  0  0  0  0  0  0  0  0  0  0
   42.3260   35.0420   40.8600 N   0  0  0  0  0  0  0  0  0  0  0  0
   41.3120   35.3150   41.6960 C   0  0  0  0  0  0  0  0  0  0  0  0
   40.0790   34.7600   41.4030 C   0  0  0  0  0  0  0  0  0  0  0  0
   39.8900   33.9580   40.3020 C   0  0  0  0  0  0  0  0  0  0  0  0
   38.7550   33.4760   40.0750 O   0  0  0  0  0  0  0  0  0  0  0  0
   40.9330   33.7080   39.4880 N   0  0  0  0  0  0  0  0  0  0  0  0
   42.1530   34.2510   39.7680 C   0  0  0  0  0  0  0  0  0  0  0  0
   43.0900   33.9760   38.9630 O   0  0  0  0  0  0  0  0  0  0  0  0
   44.5030   35.7120   43.3960 C   0  0  0  0  0  0  0  0  0  0  0  0
   44.2220   34.9180   42.2720 C   0  0  0  0  0  0  0  0  0  0  0  0
   44.5200   33.5660   42.3770 C   0  0  0  0  0  0  0  0  0  0  0  0
   45.0510   33.1020   43.5320 N   0  0  0  0  0  0  0  0  0  0  0  0
   45.3000   33.9110   44.5820 C   0  0  0  0  0  0  0  0  0  0  0  0
   45.0340   35.2280   44.5440 N   0  0  0  0  0  0  0  0  0  0  0  0
   46.0040   33.2160   46.0730 S   0  0  0  0  0  0  0  0  0  0  0  0
   43.5649   36.6750   41.3233 H   0  0  0  0  0  0  0  0  0  0  0  0
   44.2943   35.4545   40.2368 H   0  0  0  0  0  0  0  0  0  0  0  0
   41.4557   35.9547   42.5792 H   0  0  0  0  0  0  0  0  0  0  0  0
   39.2274   34.9657   42.0682 H   0  0  0  0  0  0  0  0  0  0  0  0
   40.8105   33.1100   38.6583 H   0  0  0  0  0  0  0  0  0  0  0  0
   44.2792   36.7876   43.3407 H   0  0  0  0  0  0  0  0  0  0  0  0
   44.3278   32.8838   41.5358 H   0  0  0  0  0  0  0  0  0  0  0  0
   45.4177   33.7948   47.1676 H   0  0  0  0  0  0  0  0  0  0  0  0
  1 11  1  0
  2  1  1  0
  2  3  1  0
  4  3  2  0
  5  4  1  0
  6  5  2  0
  7  8  1  0
  7  5  1  0
  8  2  1  0
  9  8  2  0
 10 15  2  0
 11 12  2  0
 11 10  1  0
 12 13  1  0
 13 14  2  0
 14 16  1  0
 15 14  1  0
  1 17  1  0
  1 18  1  0
  3 19  1  0
  4 20  1  0
  7 21  1  0
 10 22  1  0
 12 23  1  0
 16 24  1  0
M  ISO  8  17   8  18   8  19  14  20  14  21   9  22  14  23  14  24  11
M  END
>  <minimizedAffinity>  (1) 
-4.47099018

>  <minimizedRMSD>  (1) 
0.760876298

$$$$
