
     RDKit          3D

 34 36  0  0  0  0  0  0  0  0999 V2000
   44.6640   35.5230   45.1290 C   0  0  0  0  0  0  0  0  0  0  0  0
   45.3500   35.0180   44.0110 C   0  0  0  0  0  0  0  0  0  0  0  0
   45.9480   33.7870   44.1610 C   0  0  0  0  0  0  0  0  0  0  0  0
   45.8610   33.1290   45.3370 N   0  0  0  0  0  0  0  0  0  0  0  0
   45.1820   33.6770   46.3800 C   0  0  0  0  0  0  0  0  0  0  0  0
   44.5690   34.8800   46.3050 N   0  0  0  0  0  0  0  0  0  0  0  0
   45.3620   35.8520   42.8040 C   0  0  0  0  0  0  0  0  0  0  0  0
   44.5770   35.1930   41.7860 N   0  0  0  0  0  0  0  0  0  0  0  0
   43.2460   35.2640   41.8080 C   0  0  0  0  0  0  0  0  0  0  0  0
   42.5540   34.6090   40.8060 C   0  0  0  0  0  0  0  0  0  0  0  0
   43.1910   33.9100   39.8140 C   0  0  0  0  0  0  0  0  0  0  0  0
   42.5180   33.3400   38.9360 O   0  0  0  0  0  0  0  0  0  0  0  0
   44.5390   33.8540   39.8140 N   0  0  0  0  0  0  0  0  0  0  0  0
   45.2330   34.4920   40.7950 C   0  0  0  0  0  0  0  0  0  0  0  0
   46.4870   34.4050   40.7420 O   0  0  0  0  0  0  0  0  0  0  0  0
   45.0790   33.0180   47.6040 O   0  0  0  0  0  0  0  0  0  0  0  0
   48.4000   32.0150   48.4990 N   0  0  0  0  0  0  0  0  0  0  0  0
   47.4030   32.7160   47.9250 C   0  0  0  0  0  0  0  0  0  0  0  0
   46.0970   32.2970   48.1930 C   0  0  0  0  0  0  0  0  0  0  0  0
   45.9200   31.2030   49.0210 C   0  0  0  0  0  0  0  0  0  0  0  0
   44.7200   30.8390   49.2510 O   0  0  0  0  0  0  0  0  0  0  0  0
   46.9480   30.5340   49.5710 N   0  0  0  0  0  0  0  0  0  0  0  0
   48.1950   30.9550   49.2990 C   0  0  0  0  0  0  0  0  0  0  0  0
   49.1160   30.2950   49.8390 O   0  0  0  0  0  0  0  0  0  0  0  0
   44.1753   36.5040   45.0356 H   0  0  0  0  0  0  0  0  0  0  0  0
   46.4981   33.3383   43.3207 H   0  0  0  0  0  0  0  0  0  0  0  0
   44.9270   36.8370   43.0288 H   0  0  0  0  0  0  0  0  0  0  0  0
   46.3948   35.9929   42.4525 H   0  0  0  0  0  0  0  0  0  0  0  0
   42.7177   35.8231   42.5943 H   0  0  0  0  0  0  0  0  0  0  0  0
   41.4548   34.6503   40.8050 H   0  0  0  0  0  0  0  0  0  0  0  0
   45.0378   33.3333   39.0785 H   0  0  0  0  0  0  0  0  0  0  0  0
   49.3705   32.3069   48.3150 H   0  0  0  0  0  0  0  0  0  0  0  0
   47.6077   33.5793   47.2747 H   0  0  0  0  0  0  0  0  0  0  0  0
   46.7847   29.7220   50.1833 H   0  0  0  0  0  0  0  0  0  0  0  0
  1  6  2  0
  2  3  2  0
  2  1  1  0
  3  4  1  0
  4  5  2  0
  5 16  1  0
  6  5  1  0
  7  2  1  0
  8  9  1  0
  8  7  1  0
 10  9  2  0
 11 10  1  0
 12 11  2  0
 13 11  1  0
 13 14  1  0
 14  8  1  0
 15 14  2  0
 16 19  1  0
 17 23  1  0
 18 19  2  0
 18 17  1  0
 19 20  1  0
 20 21  2  0
 20 22  1  0
 23 22  1  0
 23 24  2  0
  1 25  1  0
  3 26  1  0
  7 27  1  0
  7 28  1  0
  9 29  1  0
 10 30  1  0
 13 31  1  0
 17 32  1  0
 18 33  1  0
 22 34  1  0
M  ISO  8  25  14  26  14  27   8  28   8  29  14  30  14  31   9  32   9
M  ISO  2  33  14  34   9
M  END
>  <minimizedAffinity>  (1) 
-6.38635063

>  <minimizedRMSD>  (1) 
2.37193322

$$$$
