
     RDKit          3D

 37 39  0  0  1  0  0  0  0  0999 V2000
   44.4100   35.7960   43.9100 C   0  0  0  0  0  0  0  0  0  0  0  0
   44.4460   34.9830   42.7650 C   0  0  0  0  0  0  0  0  0  0  0  0
   44.9040   33.6940   42.9390 C   0  0  0  0  0  0  0  0  0  0  0  0
   45.2850   33.2740   44.1600 N   0  0  0  0  0  0  0  0  0  0  0  0
   45.2270   34.1110   45.2290 C   0  0  0  0  0  0  0  0  0  0  0  0
   44.7860   35.3970   45.1370 N   0  0  0  0  0  0  0  0  0  0  0  0
   44.0040   35.5830   41.5020 C   0  0  0  0  0  0  0  0  0  0  0  0
   42.7160   35.0240   41.1580 N   0  0  0  0  0  0  0  0  0  0  0  0
   41.6200   35.4060   41.7940 C   0  0  0  0  0  0  0  0  0  0  0  0
   40.4180   34.8370   41.4230 C   0  0  0  0  0  0  0  0  0  0  0  0
   40.3390   33.9010   40.4260 C   0  0  0  0  0  0  0  0  0  0  0  0
   39.2400   33.4060   40.1140 O   0  0  0  0  0  0  0  0  0  0  0  0
   41.4850   33.5210   39.7830 N   0  0  0  0  0  0  0  0  0  0  0  0
   42.6630   34.0820   40.1520 C   0  0  0  0  0  0  0  0  0  0  0  0
   43.6810   33.6940   39.5250 O   0  0  0  0  0  0  0  0  0  0  0  0
   45.6210   33.6960   46.5000 O   0  0  0  0  0  0  0  0  0  0  0  0
   45.3870   31.6150   47.6290 C   0  0  1  0  0  0  0  0  0  0  0  0
   46.2800   32.5010   46.7850 C   0  0  2  0  0  0  0  0  0  0  0  0
   47.3950   32.7990   47.5580 O   0  0  0  0  0  0  0  0  0  0  0  0
   47.6650   31.6640   48.3210 C   0  0  0  0  0  0  0  0  0  0  0  0
   46.3290   31.0450   48.6500 C   0  0  2  0  0  0  0  0  0  0  0  0
   44.3440   32.3400   48.1970 O   0  0  0  0  0  0  0  0  0  0  0  0
   46.4120   29.6670   48.4860 O   0  0  0  0  0  0  0  0  0  0  0  0
   44.0497   36.8289   43.7945 H   0  0  0  0  0  0  0  0  0  0  0  0
   44.9580   33.0089   42.0801 H   0  0  0  0  0  0  0  0  0  0  0  0
   43.9166   36.6733   41.6191 H   0  0  0  0  0  0  0  0  0  0  0  0
   44.7333   35.3701   40.7065 H   0  0  0  0  0  0  0  0  0  0  0  0
   41.6655   36.1567   42.5967 H   0  0  0  0  0  0  0  0  0  0  0  0
   39.4982   35.1438   41.9425 H   0  0  0  0  0  0  0  0  0  0  0  0
   41.4535   32.8192   39.0298 H   0  0  0  0  0  0  0  0  0  0  0  0
   44.8800   30.8269   47.0528 H   0  0  0  0  0  0  0  0  0  0  0  0
   46.5484   31.9974   45.8446 H   0  0  0  0  0  0  0  0  0  0  0  0
   48.2809   30.9567   47.7462 H   0  0  0  0  0  0  0  0  0  0  0  0
   48.2218   31.9204   49.2344 H   0  0  0  0  0  0  0  0  0  0  0  0
   46.0063   31.2494   49.6815 H   0  0  0  0  0  0  0  0  0  0  0  0
   44.4095   32.2945   49.1838 H   0  0  0  0  0  0  0  0  0  0  0  0
   46.4383   29.2300   49.3739 H   0  0  0  0  0  0  0  0  0  0  0  0
  1  6  2  0
  2  3  2  0
  2  1  1  0
  3  4  1  0
  4  5  2  0
  5 16  1  0
  6  5  1  0
  7  2  1  0
  8  7  1  0
  8  9  1  0
 10  9  2  0
 11 10  1  0
 12 11  2  0
 13 14  1  0
 13 11  1  0
 14  8  1  0
 15 14  2  0
 17 22  1  0
 17 21  1  0
 18 16  1  0
 18 19  1  0
 18 17  1  0
 19 20  1  0
 20 21  1  0
 21 23  1  0
  1 24  1  0
  3 25  1  0
  7 26  1  0
  7 27  1  0
  9 28  1  0
 10 29  1  0
 13 30  1  0
 17 31  1  6
 18 32  1  6
 20 33  1  0
 20 34  1  0
 21 35  1  1
 22 36  1  0
 23 37  1  0
M  ISO  8  24  14  25  14  26   8  27   8  28  14  29  14  30   9  31  13
M  ISO  6  32  13  33  13  34  13  35  13  36   3  37   3
M  END
>  <minimizedAffinity>  (1) 
-6.33540154

>  <minimizedRMSD>  (1) 
1.26213932

$$$$
