
     RDKit          3D

 28 29  0  0  0  0  0  0  0  0999 V2000
   43.9006   35.6257   41.3975 C   0  0  0  0  0  0  0  0  0  0  0  0
   42.6131   35.0438   41.0939 N   0  0  0  0  0  0  0  0  0  0  0  0
   41.5217   35.4426   41.7633 C   0  0  0  0  0  0  0  0  0  0  0  0
   40.3200   34.8496   41.4299 C   0  0  0  0  0  0  0  0  0  0  0  0
   40.2242   33.8776   40.4441 C   0  0  0  0  0  0  0  0  0  0  0  0
   39.1083   33.3935   40.2037 O   0  0  0  0  0  0  0  0  0  0  0  0
   41.3547   33.5027   39.7903 N   0  0  0  0  0  0  0  0  0  0  0  0
   42.5257   34.0851   40.1200 C   0  0  0  0  0  0  0  0  0  0  0  0
   43.5395   33.6890   39.4715 O   0  0  0  0  0  0  0  0  0  0  0  0
   44.3748   35.9368   43.7813 C   0  0  0  0  0  0  0  0  0  0  0  0
   44.3692   35.0742   42.6731 C   0  0  0  0  0  0  0  0  0  0  0  0
   44.8088   33.7934   42.8976 C   0  0  0  0  0  0  0  0  0  0  0  0
   45.2184   33.4157   44.1315 N   0  0  0  0  0  0  0  0  0  0  0  0
   45.1975   34.3023   45.1582 C   0  0  0  0  0  0  0  0  0  0  0  0
   44.7777   35.5849   45.0200 N   0  0  0  0  0  0  0  0  0  0  0  0
   45.6127   33.9531   46.4439 O   0  0  0  0  0  0  0  0  0  0  0  0
   43.9439   36.7082   41.3904 H   0  0  0  0  0  0  0  0  0  0  0  0
   44.6520   35.2868   40.6296 H   0  0  0  0  0  0  0  0  0  0  0  0
   41.5582   36.1964   42.5366 H   0  0  0  0  0  0  0  0  0  0  0  0
   39.4187   35.1483   41.9509 H   0  0  0  0  0  0  0  0  0  0  0  0
   41.3087   32.7747   39.0461 H   0  0  0  0  0  0  0  0  0  0  0  0
   44.0369   36.9588   43.6573 H   0  0  0  0  0  0  0  0  0  0  0  0
   44.8098   33.1180   42.0532 H   0  0  0  0  0  0  0  0  0  0  0  0
   46.9723   34.1678   46.6896 C   0  0  0  0  0  0  0  0  0  0  0  0
   47.6676   34.6457   45.7407 O   0  0  0  0  0  0  0  0  0  0  0  0
   47.5044   33.8470   47.9674 N   0  0  0  0  0  0  0  0  0  0  0  0
   48.0386   34.2257   48.7742 H   0  0  0  0  0  0  0  0  0  0  0  0
   47.9773   34.7252   48.3127 H   0  0  0  0  0  0  0  0  0  0  0  0
  1 11  1  0
  2  1  1  0
  2  3  1  0
  4  3  2  0
  5  4  1  0
  6  5  2  0
  7  8  1  0
  7  5  1  0
  8  2  1  0
  9  8  2  0
 10 15  2  0
 11 12  2  0
 11 10  1  0
 12 13  1  0
 13 14  2  0
 14 16  1  0
 15 14  1  0
  1 17  1  0
  1 18  1  0
  3 19  1  0
  4 20  1  0
  7 21  1  0
 10 22  1  0
 12 23  1  0
 24 25  2  0
 24 26  1  0
 26 27  1  0
 26 28  1  0
 16 24  1  0
M  END
>  <DihAtoms>  (1) 
13,15,23,24

>  <DihDeg>  (1) 
0.0004119726647851441

$$$$
