
     RDKit          3D

 30 31  0  0  0  0  0  0  0  0999 V2000
   43.7420   35.6820   41.3670 C   0  0  0  0  0  0  0  0  0  0  0  0
   42.4570   35.0810   41.0620 N   0  0  0  0  0  0  0  0  0  0  0  0
   41.3900   35.3630   41.7960 C   0  0  0  0  0  0  0  0  0  0  0  0
   40.1960   34.7650   41.4630 C   0  0  0  0  0  0  0  0  0  0  0  0
   40.0940   33.8950   40.4010 C   0  0  0  0  0  0  0  0  0  0  0  0
   38.9960   33.3740   40.1330 O   0  0  0  0  0  0  0  0  0  0  0  0
   41.2020   33.6290   39.6730 N   0  0  0  0  0  0  0  0  0  0  0  0
   42.3790   34.2160   39.9990 C   0  0  0  0  0  0  0  0  0  0  0  0
   43.3770   33.9240   39.2780 O   0  0  0  0  0  0  0  0  0  0  0  0
   44.4020   35.8410   43.7170 C   0  0  0  0  0  0  0  0  0  0  0  0
   44.2820   35.0560   42.5660 C   0  0  0  0  0  0  0  0  0  0  0  0
   44.6970   33.7470   42.6860 C   0  0  0  0  0  0  0  0  0  0  0  0
   45.1810   33.2940   43.8560 N   0  0  0  0  0  0  0  0  0  0  0  0
   45.2700   34.1090   44.9370 C   0  0  0  0  0  0  0  0  0  0  0  0
   44.8800   35.4090   44.8930 N   0  0  0  0  0  0  0  0  0  0  0  0
   45.7620   33.6830   46.1620 O   0  0  0  0  0  0  0  0  0  0  0  0
   46.6970   32.6490   46.3250 C   0  0  0  0  0  0  0  0  0  0  0  0
   47.1660   32.4260   47.7160 C   0  0  0  0  0  0  0  0  0  0  0  0
   43.6137   36.7608   41.5394 H   0  0  0  0  0  0  0  0  0  0  0  0
   44.4332   35.5324   40.5245 H   0  0  0  0  0  0  0  0  0  0  0  0
   41.4569   36.0558   42.6478 H   0  0  0  0  0  0  0  0  0  0  0  0
   39.3000   34.9880   42.0609 H   0  0  0  0  0  0  0  0  0  0  0  0
   41.1515   32.9821   38.8731 H   0  0  0  0  0  0  0  0  0  0  0  0
   44.0804   36.8910   43.6529 H   0  0  0  0  0  0  0  0  0  0  0  0
   44.6320   33.0703   41.8212 H   0  0  0  0  0  0  0  0  0  0  0  0
   46.2361   31.7159   45.9688 H   0  0  0  0  0  0  0  0  0  0  0  0
   47.5854   32.9513   45.7511 H   0  0  0  0  0  0  0  0  0  0  0  0
   46.4044   32.7881   48.4222 H   0  0  0  0  0  0  0  0  0  0  0  0
   47.3349   31.3512   47.8781 H   0  0  0  0  0  0  0  0  0  0  0  0
   48.1062   32.9734   47.8781 H   0  0  0  0  0  0  0  0  0  0  0  0
  1 11  1  0
  2  1  1  0
  2  3  1  0
  4  3  2  0
  5  4  1  0
  6  5  2  0
  7  8  1  0
  7  5  1  0
  8  2  1  0
  9  8  2  0
 10 15  2  0
 11 12  2  0
 11 10  1  0
 12 13  1  0
 13 14  2  0
 14 16  1  0
 15 14  1  0
 16 17  1  0
 17 18  1  0
  1 19  1  0
  1 20  1  0
  3 21  1  0
  4 22  1  0
  7 23  1  0
 10 24  1  0
 12 25  1  0
 17 26  1  0
 17 27  1  0
 18 28  1  0
 18 29  1  0
 18 30  1  0
M  ISO  8  19   8  20   8  21  14  22  14  23   9  24  14  25  14  26   8
M  ISO  4  27   8  28   8  29   8  30   8
M  END
>  <minimizedAffinity>  (1) 
-4.74240685

>  <minimizedRMSD>  (1) 
0.526412308

$$$$
