
     RDKit          3D

 26 27  0  0  0  0  0  0  0  0999 V2000
   43.8310   35.6600   41.3670 C   0  0  0  0  0  0  0  0  0  0  0  0
   42.5390   35.0710   41.0590 N   0  0  0  0  0  0  0  0  0  0  0  0
   41.4610   35.4160   41.7630 C   0  0  0  0  0  0  0  0  0  0  0  0
   40.2650   34.8080   41.4080 C   0  0  0  0  0  0  0  0  0  0  0  0
   40.1640   33.8960   40.3900 C   0  0  0  0  0  0  0  0  0  0  0  0
   39.0580   33.4020   40.1400 O   0  0  0  0  0  0  0  0  0  0  0  0
   41.2910   33.5750   39.7000 N   0  0  0  0  0  0  0  0  0  0  0  0
   42.4620   34.1570   40.0340 C   0  0  0  0  0  0  0  0  0  0  0  0
   43.4740   33.8140   39.3510 O   0  0  0  0  0  0  0  0  0  0  0  0
   44.4090   35.8640   43.7410 C   0  0  0  0  0  0  0  0  0  0  0  0
   44.3330   35.0510   42.5980 C   0  0  0  0  0  0  0  0  0  0  0  0
   44.7440   33.7550   42.7660 C   0  0  0  0  0  0  0  0  0  0  0  0
   45.1860   33.3230   43.9620 N   0  0  0  0  0  0  0  0  0  0  0  0
   45.2340   34.1610   45.0290 C   0  0  0  0  0  0  0  0  0  0  0  0
   44.8450   35.4600   44.9480 N   0  0  0  0  0  0  0  0  0  0  0  0
   45.6840   33.7490   46.2770 O   0  0  0  0  0  0  0  0  0  0  0  0
   46.6620   32.7410   46.3120 C   0  0  0  0  0  0  0  0  0  0  0  0
   47.2670   32.5980   47.4260 O   0  0  0  0  0  0  0  0  0  0  0  0
   43.7207   36.7454   41.5074 H   0  0  0  0  0  0  0  0  0  0  0  0
   44.5353   35.4803   40.5414 H   0  0  0  0  0  0  0  0  0  0  0  0
   41.5165   36.1459   42.5841 H   0  0  0  0  0  0  0  0  0  0  0  0
   39.3562   35.0702   41.9696 H   0  0  0  0  0  0  0  0  0  0  0  0
   41.2513   32.8933   38.9289 H   0  0  0  0  0  0  0  0  0  0  0  0
   44.0874   36.9112   43.6416 H   0  0  0  0  0  0  0  0  0  0  0  0
   44.7125   33.0597   41.9142 H   0  0  0  0  0  0  0  0  0  0  0  0
   46.8911   32.1160   45.4362 H   0  0  0  0  0  0  0  0  0  0  0  0
  1 11  1  0
  2  1  1  0
  2  3  1  0
  4  3  2  0
  5  4  1  0
  6  5  2  0
  7  8  1  0
  7  5  1  0
  8  2  1  0
  9  8  2  0
 10 15  2  0
 11 12  2  0
 11 10  1  0
 12 13  1  0
 13 14  2  0
 14 16  1  0
 15 14  1  0
 16 17  1  0
 17 18  2  0
  1 19  1  0
  1 20  1  0
  3 21  1  0
  4 22  1  0
  7 23  1  0
 10 24  1  0
 12 25  1  0
 17 26  1  0
M  ISO  8  19   8  20   8  21  14  22  14  23   9  24  14  25  14  26   6
M  END
>  <minimizedAffinity>  (1) 
-4.67606449

>  <minimizedRMSD>  (1) 
0.533424258

$$$$
