
     RDKit          3D

 45 49  0  0  1  0  0  0  0  0999 V2000
   44.4880   35.4230   40.9200 F   0  0  0  0  0  0  0  0  0  0  0  0
   44.9950   34.2060   40.5220 C   0  0  0  0  0  0  0  0  0  0  0  0
   46.3050   33.9510   40.8370 C   0  0  0  0  0  0  0  0  0  0  0  0
   46.7730   32.7110   40.4290 C   0  0  0  0  0  0  0  0  0  0  0  0
   45.9600   31.8230   39.7580 C   0  0  0  0  0  0  0  0  0  0  0  0
   44.6260   32.1470   39.4660 C   0  0  0  0  0  0  0  0  0  0  0  0
   44.1310   33.3970   39.8690 C   0  0  0  0  0  0  0  0  0  0  0  0
   47.5490   34.4680   42.8830 N   0  0  0  0  0  0  0  0  0  0  0  0
   48.9480   34.1380   42.8650 C   0  0  0  0  0  0  0  0  0  0  0  0
   49.4390   35.3240   42.0480 C   0  0  0  0  0  0  0  0  0  0  0  0
   48.5050   35.1650   40.8440 C   0  0  0  0  0  0  0  0  0  0  0  0
   47.2080   34.8760   41.5160 C   0  0  1  0  0  0  0  0  0  0  0  0
   44.6540   35.2870   45.0770 C   0  0  0  0  0  0  0  0  0  0  0  0
   45.5390   35.3730   44.0090 C   0  0  0  0  0  0  0  0  0  0  0  0
   46.5970   34.4520   43.9310 C   0  0  0  0  0  0  0  0  0  0  0  0
   46.6940   33.5300   44.9050 N   0  0  0  0  0  0  0  0  0  0  0  0
   45.8270   33.4580   45.9350 C   0  0  0  0  0  0  0  0  0  0  0  0
   44.7990   34.3470   46.0170 N   0  0  0  0  0  0  0  0  0  0  0  0
   42.3790   34.6100   38.5640 C   0  0  0  0  0  0  0  0  0  0  0  0
   42.7460   33.7370   39.5680 C   0  0  0  0  0  0  0  0  0  0  0  0
   41.7570   33.1420   40.3450 C   0  0  0  0  0  0  0  0  0  0  0  0
   40.4330   33.4280   40.1030 C   0  0  0  0  0  0  0  0  0  0  0  0
   39.2570   33.0320   40.6570 N   0  0  0  0  0  0  0  0  0  0  0  0
   38.2380   33.6470   40.0050 C   0  0  0  0  0  0  0  0  0  0  0  0
   38.7650   34.4270   39.0450 N   0  0  0  0  0  0  0  0  0  0  0  0
   40.1190   34.3120   39.0810 C   0  0  0  0  0  0  0  0  0  0  0  0
   41.0710   34.9400   38.2710 C   0  0  0  0  0  0  0  0  0  0  0  0
   47.8144   32.4304   40.6453 H   0  0  0  0  0  0  0  0  0  0  0  0
   46.3620   30.8474   39.4472 H   0  0  0  0  0  0  0  0  0  0  0  0
   43.9805   31.4346   38.9313 H   0  0  0  0  0  0  0  0  0  0  0  0
   49.3840   34.1193   43.8747 H   0  0  0  0  0  0  0  0  0  0  0  0
   49.2028   33.1433   42.4705 H   0  0  0  0  0  0  0  0  0  0  0  0
   49.2851   36.2801   42.5697 H   0  0  0  0  0  0  0  0  0  0  0  0
   50.5154   35.3381   41.8217 H   0  0  0  0  0  0  0  0  0  0  0  0
   48.8186   34.3312   40.1986 H   0  0  0  0  0  0  0  0  0  0  0  0
   48.4806   36.0377   40.1748 H   0  0  0  0  0  0  0  0  0  0  0  0
   46.5921   35.7872   41.4961 H   0  0  0  0  0  0  0  0  0  0  0  0
   43.8219   36.0027   45.1502 H   0  0  0  0  0  0  0  0  0  0  0  0
   45.4134   36.1481   43.2387 H   0  0  0  0  0  0  0  0  0  0  0  0
   45.9498   32.6836   46.7065 H   0  0  0  0  0  0  0  0  0  0  0  0
   43.1761   35.0701   37.9615 H   0  0  0  0  0  0  0  0  0  0  0  0
   42.0327   32.4451   41.1502 H   0  0  0  0  0  0  0  0  0  0  0  0
   39.1557   32.3735   41.4425 H   0  0  0  0  0  0  0  0  0  0  0  0
   37.1666   33.5280   40.2240 H   0  0  0  0  0  0  0  0  0  0  0  0
   40.7996   35.6394   37.4666 H   0  0  0  0  0  0  0  0  0  0  0  0
  2  3  2  0
  2  1  1  0
  3 12  1  0
  4  3  1  0
  5  4  2  0
  6  5  1  0
  6  7  2  0
  7  2  1  0
  8 15  1  0
  9  8  1  0
 10  9  1  0
 11 12  1  0
 11 10  1  0
 12  8  1  0
 13 18  2  0
 14 13  1  0
 15 14  2  0
 15 16  1  0
 16 17  2  0
 17 18  1  0
 19 20  2  0
 20  7  1  0
 20 21  1  0
 22 21  2  0
 22 23  1  0
 24 23  1  0
 25 26  1  0
 25 24  2  0
 26 22  1  0
 27 19  1  0
 27 26  2  0
  4 28  1  0
  5 29  1  0
  6 30  1  0
  9 31  1  0
  9 32  1  0
 10 33  1  0
 10 34  1  0
 11 35  1  0
 11 36  1  0
 12 37  1  1
 13 38  1  0
 14 39  1  0
 17 40  1  0
 19 41  1  0
 21 42  1  0
 23 43  1  0
 24 44  1  0
 27 45  1  0
M  ISO  8  28  14  29  14  30  14  31  13  32  13  33  13  34  13  35  13
M  ISO  8  36  13  37  13  38  14  39  14  40  14  41  14  42  14  43   9
M  ISO  2  44  14  45  14
M  END
>  <minimizedAffinity>  (1) 
-6.89854431

>  <minimizedRMSD>  (1) 
0.735809922

$$$$
