
     RDKit          3D

 45 48  0  0  1  0  0  0  0  0999 V2000
   47.2640   34.4700   42.7190 N   0  0  0  0  0  0  0  0  0  0  0  0
   48.6510   34.1000   42.7070 C   0  0  0  0  0  0  0  0  0  0  0  0
   49.1440   35.1530   41.7250 C   0  0  0  0  0  0  0  0  0  0  0  0
   48.1810   34.8510   40.5780 C   0  0  0  0  0  0  0  0  0  0  0  0
   46.8970   34.6970   41.3170 C   0  0  1  0  0  0  0  0  0  0  0  0
   44.1660   35.2330   40.7590 F   0  0  0  0  0  0  0  0  0  0  0  0
   44.6330   33.9610   40.5000 C   0  0  0  0  0  0  0  0  0  0  0  0
   45.9500   33.7160   40.7910 C   0  0  0  0  0  0  0  0  0  0  0  0
   46.3750   32.4260   40.5220 C   0  0  0  0  0  0  0  0  0  0  0  0
   45.5170   31.4820   40.0040 C   0  0  0  0  0  0  0  0  0  0  0  0
   44.1760   31.7990   39.7280 C   0  0  0  0  0  0  0  0  0  0  0  0
   43.7210   33.1010   39.9920 C   0  0  0  0  0  0  0  0  0  0  0  0
   42.0960   34.0080   38.3300 C   0  0  1  0  0  0  0  0  0  0  0  0
   42.3070   33.4530   39.7060 C   0  0  2  0  0  0  0  0  0  0  0  0
   41.7670   34.3480   40.6190 O   0  0  0  0  0  0  0  0  0  0  0  0
   40.5610   34.6960   40.0200 C   0  0  0  0  0  0  0  0  0  0  0  0
   40.9990   35.0470   38.5980 C   0  0  2  0  0  0  0  0  0  0  0  0
   43.1980   34.6740   37.8110 O   0  0  0  0  0  0  0  0  0  0  0  0
   39.9700   34.9400   37.6820 O   0  0  0  0  0  0  0  0  0  0  0  0
   44.5070   35.7240   44.8850 C   0  0  0  0  0  0  0  0  0  0  0  0
   45.3710   35.6440   43.8000 C   0  0  0  0  0  0  0  0  0  0  0  0
   46.3400   34.6250   43.7820 C   0  0  0  0  0  0  0  0  0  0  0  0
   46.3760   33.7810   44.8250 N   0  0  0  0  0  0  0  0  0  0  0  0
   45.5290   33.8710   45.8740 C   0  0  0  0  0  0  0  0  0  0  0  0
   44.5910   34.8520   45.8990 N   0  0  0  0  0  0  0  0  0  0  0  0
   49.1181   34.2032   43.6975 H   0  0  0  0  0  0  0  0  0  0  0  0
   48.8690   33.0547   42.4429 H   0  0  0  0  0  0  0  0  0  0  0  0
   49.0199   36.1745   42.1139 H   0  0  0  0  0  0  0  0  0  0  0  0
   50.2148   35.1138   41.4761 H   0  0  0  0  0  0  0  0  0  0  0  0
   48.4575   33.9255   40.0516 H   0  0  0  0  0  0  0  0  0  0  0  0
   48.1609   35.6177   39.7894 H   0  0  0  0  0  0  0  0  0  0  0  0
   46.3064   35.6163   41.1902 H   0  0  0  0  0  0  0  0  0  0  0  0
   47.4199   32.1496   40.7264 H   0  0  0  0  0  0  0  0  0  0  0  0
   45.8863   30.4655   39.8034 H   0  0  0  0  0  0  0  0  0  0  0  0
   43.4953   31.0412   39.3128 H   0  0  0  0  0  0  0  0  0  0  0  0
   41.8739   33.2128   37.6031 H   0  0  0  0  0  0  0  0  0  0  0  0
   41.7838   32.4890   39.7899 H   0  0  0  0  0  0  0  0  0  0  0  0
   39.8553   33.8522   40.0236 H   0  0  0  0  0  0  0  0  0  0  0  0
   40.0308   35.5115   40.5337 H   0  0  0  0  0  0  0  0  0  0  0  0
   41.3343   36.0901   38.4998 H   0  0  0  0  0  0  0  0  0  0  0  0
   43.7586   35.0128   38.5533 H   0  0  0  0  0  0  0  0  0  0  0  0
   39.1088   34.8505   38.1621 H   0  0  0  0  0  0  0  0  0  0  0  0
   43.7428   36.5147   44.9121 H   0  0  0  0  0  0  0  0  0  0  0  0
   45.2986   36.3636   42.9712 H   0  0  0  0  0  0  0  0  0  0  0  0
   45.5993   33.1525   46.7040 H   0  0  0  0  0  0  0  0  0  0  0  0
  1 22  1  0
  2  1  1  0
  3  2  1  0
  4  5  1  0
  4  3  1  0
  5  1  1  0
  7  6  1  0
  7  8  2  0
  8  5  1  0
  9  8  1  0
 10  9  2  0
 11 12  2  0
 11 10  1  0
 12  7  1  0
 13 18  1  0
 13 17  1  0
 13 14  1  0
 14 12  1  0
 14 15  1  0
 16 15  1  0
 17 19  1  0
 17 16  1  0
 20 25  2  0
 21 20  1  0
 22 21  2  0
 22 23  1  0
 23 24  2  0
 24 25  1  0
  2 26  1  0
  2 27  1  0
  3 28  1  0
  3 29  1  0
  4 30  1  0
  4 31  1  0
  5 32  1  1
  9 33  1  0
 10 34  1  0
 11 35  1  0
 13 36  1  6
 14 37  1  6
 16 38  1  0
 16 39  1  0
 17 40  1  1
 18 41  1  0
 19 42  1  0
 20 43  1  0
 21 44  1  0
 24 45  1  0
M  ISO  8  26  13  27  13  28  13  29  13  30  13  31  13  32  13  33  14
M  ISO  8  34  14  35  14  36  13  37  13  38  13  39  13  40  13  41   3
M  ISO  4  42   3  43  14  44  14  45  14
M  END
>  <minimizedAffinity>  (1) 
-6.66080284

>  <minimizedRMSD>  (1) 
0.395614415

$$$$
