
     RDKit          3D

 41 44  0  0  1  0  0  0  0  0999 V2000
   47.2040   34.3910   42.6630 N   0  0  0  0  0  0  0  0  0  0  0  0
   48.5460   33.8970   42.6070 C   0  0  0  0  0  0  0  0  0  0  0  0
   49.1330   34.9340   41.6740 C   0  0  0  0  0  0  0  0  0  0  0  0
   48.1210   34.7970   40.5260 C   0  0  0  0  0  0  0  0  0  0  0  0
   46.8400   34.7300   41.2810 C   0  0  1  0  0  0  0  0  0  0  0  0
   44.1120   35.4730   41.0440 F   0  0  0  0  0  0  0  0  0  0  0  0
   44.4770   34.2220   40.5810 C   0  0  0  0  0  0  0  0  0  0  0  0
   45.7930   33.8730   40.7250 C   0  0  0  0  0  0  0  0  0  0  0  0
   46.1170   32.6090   40.2600 C   0  0  0  0  0  0  0  0  0  0  0  0
   45.1640   31.7850   39.6990 C   0  0  0  0  0  0  0  0  0  0  0  0
   43.8390   32.1980   39.5800 C   0  0  0  0  0  0  0  0  0  0  0  0
   43.4870   33.4630   40.0400 C   0  0  0  0  0  0  0  0  0  0  0  0
   42.1310   33.9690   39.9550 C   0  0  0  0  0  0  0  0  0  0  0  0
   41.6420   34.6950   38.8920 C   0  0  0  0  0  0  0  0  0  0  0  0
   40.3510   35.1770   38.8140 C   0  0  0  0  0  0  0  0  0  0  0  0
   39.4700   34.9330   39.8450 C   0  0  0  0  0  0  0  0  0  0  0  0
   40.0040   34.2020   40.8860 C   0  0  0  0  0  0  0  0  0  0  0  0
   41.2610   33.7400   40.9500 N   0  0  0  0  0  0  0  0  0  0  0  0
   44.5510   35.7340   44.9060 C   0  0  0  0  0  0  0  0  0  0  0  0
   45.3820   35.6320   43.7990 C   0  0  0  0  0  0  0  0  0  0  0  0
   46.3150   34.5730   43.7500 C   0  0  0  0  0  0  0  0  0  0  0  0
   46.3460   33.7170   44.7850 N   0  0  0  0  0  0  0  0  0  0  0  0
   45.5280   33.8330   45.8540 C   0  0  0  0  0  0  0  0  0  0  0  0
   44.6250   34.8510   45.9120 N   0  0  0  0  0  0  0  0  0  0  0  0
   49.0317   33.9062   43.5939 H   0  0  0  0  0  0  0  0  0  0  0  0
   48.6550   32.8509   42.2849 H   0  0  0  0  0  0  0  0  0  0  0  0
   49.1264   35.9414   42.1156 H   0  0  0  0  0  0  0  0  0  0  0  0
   50.1894   34.7920   41.4022 H   0  0  0  0  0  0  0  0  0  0  0  0
   48.2941   33.8807   39.9425 H   0  0  0  0  0  0  0  0  0  0  0  0
   48.1668   35.6067   39.7829 H   0  0  0  0  0  0  0  0  0  0  0  0
   46.3420   35.7085   41.2131 H   0  0  0  0  0  0  0  0  0  0  0  0
   47.1555   32.2553   40.3398 H   0  0  0  0  0  0  0  0  0  0  0  0
   45.4546   30.7866   39.3401 H   0  0  0  0  0  0  0  0  0  0  0  0
   43.0844   31.5358   39.1304 H   0  0  0  0  0  0  0  0  0  0  0  0
   42.3223   34.9037   38.0532 H   0  0  0  0  0  0  0  0  0  0  0  0
   40.0274   35.7524   37.9341 H   0  0  0  0  0  0  0  0  0  0  0  0
   38.4297   35.2905   39.8386 H   0  0  0  0  0  0  0  0  0  0  0  0
   39.3421   33.9792   41.7359 H   0  0  0  0  0  0  0  0  0  0  0  0
   43.8191   36.5535   44.9588 H   0  0  0  0  0  0  0  0  0  0  0  0
   45.3153   36.3604   42.9774 H   0  0  0  0  0  0  0  0  0  0  0  0
   45.5912   33.1058   46.6769 H   0  0  0  0  0  0  0  0  0  0  0  0
  1 21  1  0
  2  1  1  0
  3  2  1  0
  4  5  1  0
  4  3  1  0
  5  1  1  0
  7  8  2  0
  7  6  1  0
  8  5  1  0
  9  8  1  0
 10  9  2  0
 11 10  1  0
 11 12  2  0
 12  7  1  0
 13 12  1  0
 13 18  1  0
 14 13  2  0
 15 14  1  0
 15 16  2  0
 16 17  1  0
 17 18  2  0
 19 24  2  0
 20 19  1  0
 21 20  2  0
 21 22  1  0
 22 23  2  0
 23 24  1  0
  2 25  1  0
  2 26  1  0
  3 27  1  0
  3 28  1  0
  4 29  1  0
  4 30  1  0
  5 31  1  1
  9 32  1  0
 10 33  1  0
 11 34  1  0
 14 35  1  0
 15 36  1  0
 16 37  1  0
 17 38  1  0
 19 39  1  0
 20 40  1  0
 23 41  1  0
M  ISO  8  25  13  26  13  27  13  28  13  29  13  30  13  31  13  32  14
M  ISO  8  33  14  34  14  35  14  36  14  37  14  38  14  39  14  40  14
M  ISO  1  41  14
M  END
>  <minimizedAffinity>  (1) 
-6.65192318

>  <minimizedRMSD>  (1) 
0.63780117

$$$$
