
     RDKit          3D

 39 42  0  0  1  0  0  0  0  0999 V2000
   46.9640   34.2930   42.4390 N   0  0  0  0  0  0  0  0  0  0  0  0
   48.2590   33.6850   42.3430 C   0  0  0  0  0  0  0  0  0  0  0  0
   48.8730   34.6330   41.3340 C   0  0  0  0  0  0  0  0  0  0  0  0
   47.7980   34.5370   40.2480 C   0  0  0  0  0  0  0  0  0  0  0  0
   46.5520   34.6070   41.0630 C   0  0  1  0  0  0  0  0  0  0  0  0
   43.8780   35.5290   40.9210 F   0  0  0  0  0  0  0  0  0  0  0  0
   44.1230   34.2530   40.5100 C   0  0  0  0  0  0  0  0  0  0  0  0
   45.4140   33.8100   40.5990 C   0  0  0  0  0  0  0  0  0  0  0  0
   45.6130   32.5100   40.1800 C   0  0  0  0  0  0  0  0  0  0  0  0
   44.5710   31.7360   39.7100 C   0  0  0  0  0  0  0  0  0  0  0  0
   43.2710   32.2390   39.6390 C   0  0  0  0  0  0  0  0  0  0  0  0
   43.0650   33.5420   40.0590 C   0  0  0  0  0  0  0  0  0  0  0  0
   41.7390   34.1250   40.0020 C   0  0  0  0  0  0  0  0  0  0  0  0
   41.1400   35.2620   40.3910 C   0  0  0  0  0  0  0  0  0  0  0  0
   39.8580   35.5100   40.1770 C   0  0  0  0  0  0  0  0  0  0  0  0
   39.0210   34.6140   39.5310 C   0  0  0  0  0  0  0  0  0  0  0  0
   40.2950   33.2300   39.1980 S   0  0  0  0  0  0  0  0  0  0  0  0
   44.5660   35.9440   44.7620 C   0  0  0  0  0  0  0  0  0  0  0  0
   45.3270   35.7300   43.6180 C   0  0  0  0  0  0  0  0  0  0  0  0
   46.1590   34.5910   43.5600 C   0  0  0  0  0  0  0  0  0  0  0  0
   46.1690   33.7700   44.6240 N   0  0  0  0  0  0  0  0  0  0  0  0
   45.4190   33.9950   45.7290 C   0  0  0  0  0  0  0  0  0  0  0  0
   44.6170   35.0890   45.7910 N   0  0  0  0  0  0  0  0  0  0  0  0
   48.7953   33.6965   43.3033 H   0  0  0  0  0  0  0  0  0  0  0  0
   48.2693   32.6200   42.0680 H   0  0  0  0  0  0  0  0  0  0  0  0
   48.9709   35.6542   41.7310 H   0  0  0  0  0  0  0  0  0  0  0  0
   49.8975   34.3919   41.0143 H   0  0  0  0  0  0  0  0  0  0  0  0
   47.8659   33.5873   39.6971 H   0  0  0  0  0  0  0  0  0  0  0  0
   47.8721   35.3122   39.4711 H   0  0  0  0  0  0  0  0  0  0  0  0
   46.1261   35.6171   40.9722 H   0  0  0  0  0  0  0  0  0  0  0  0
   46.6250   32.0809   40.2215 H   0  0  0  0  0  0  0  0  0  0  0  0
   44.7689   30.7038   39.3855 H   0  0  0  0  0  0  0  0  0  0  0  0
   42.4408   31.6229   39.2632 H   0  0  0  0  0  0  0  0  0  0  0  0
   41.7422   36.0216   40.9110 H   0  0  0  0  0  0  0  0  0  0  0  0
   39.4398   36.4657   40.5258 H   0  0  0  0  0  0  0  0  0  0  0  0
   37.9508   34.6797   39.2853 H   0  0  0  0  0  0  0  0  0  0  0  0
   43.9135   36.8275   44.8223 H   0  0  0  0  0  0  0  0  0  0  0  0
   45.2816   36.4346   42.7745 H   0  0  0  0  0  0  0  0  0  0  0  0
   45.4594   33.2928   46.5747 H   0  0  0  0  0  0  0  0  0  0  0  0
  1 20  1  0
  2  1  1  0
  3  2  1  0
  4  5  1  0
  4  3  1  0
  5  1  1  0
  7  8  2  0
  7  6  1  0
  8  5  1  0
  9  8  1  0
 10  9  2  0
 11 10  1  0
 11 12  2  0
 12  7  1  0
 13 12  1  0
 13 14  2  0
 15 14  1  0
 16 15  2  0
 17 16  1  0
 17 13  1  0
 18 23  2  0
 19 18  1  0
 20 19  2  0
 20 21  1  0
 21 22  2  0
 22 23  1  0
  2 24  1  0
  2 25  1  0
  3 26  1  0
  3 27  1  0
  4 28  1  0
  4 29  1  0
  5 30  1  1
  9 31  1  0
 10 32  1  0
 11 33  1  0
 14 34  1  0
 15 35  1  0
 16 36  1  0
 18 37  1  0
 19 38  1  0
 22 39  1  0
M  ISO  8  24  13  25  13  26  13  27  13  28  13  29  13  30  13  31  14
M  ISO  8  32  14  33  14  34  14  35  14  36  14  37  14  38  14  39  14
M  END
>  <minimizedAffinity>  (1) 
-6.31753492

>  <minimizedRMSD>  (1) 
0.923282385

$$$$
