
     RDKit          3D

 35 37  0  0  1  0  0  0  0  0999 V2000
   46.6090   34.0370   42.3910 N   0  0  0  0  0  0  0  0  0  0  0  0
   47.7800   33.2340   42.1880 C   0  0  0  0  0  0  0  0  0  0  0  0
   48.4730   34.1030   41.1630 C   0  0  0  0  0  0  0  0  0  0  0  0
   47.3290   34.2290   40.1500 C   0  0  0  0  0  0  0  0  0  0  0  0
   46.1680   34.4550   41.0560 C   0  0  1  0  0  0  0  0  0  0  0  0
   43.7420   35.9040   40.8000 F   0  0  0  0  0  0  0  0  0  0  0  0
   43.7140   34.5600   40.5050 C   0  0  0  0  0  0  0  0  0  0  0  0
   44.8900   33.8730   40.6500 C   0  0  0  0  0  0  0  0  0  0  0  0
   44.8190   32.5200   40.3490 C   0  0  0  0  0  0  0  0  0  0  0  0
   43.6390   31.9350   39.9360 C   0  0  0  0  0  0  0  0  0  0  0  0
   42.4670   32.6980   39.8080 C   0  0  0  0  0  0  0  0  0  0  0  0
   42.5170   34.0720   40.1080 C   0  0  0  0  0  0  0  0  0  0  0  0
   41.3060   34.9280   39.9900 C   0  0  0  0  0  0  0  0  0  0  0  0
   41.4250   35.8590   38.9940 F   0  0  0  0  0  0  0  0  0  0  0  0
   40.9930   35.4690   41.2230 F   0  0  0  0  0  0  0  0  0  0  0  0
   40.2180   34.1170   39.6360 F   0  0  0  0  0  0  0  0  0  0  0  0
   44.5430   35.9180   44.8550 C   0  0  0  0  0  0  0  0  0  0  0  0
   45.1800   35.6030   43.6630 C   0  0  0  0  0  0  0  0  0  0  0  0
   45.9280   34.4240   43.5730 C   0  0  0  0  0  0  0  0  0  0  0  0
   45.9900   33.6480   44.6660 N   0  0  0  0  0  0  0  0  0  0  0  0
   45.3690   33.9580   45.8230 C   0  0  0  0  0  0  0  0  0  0  0  0
   44.6430   35.1000   45.9140 N   0  0  0  0  0  0  0  0  0  0  0  0
   48.3728   33.1256   43.1082 H   0  0  0  0  0  0  0  0  0  0  0  0
   47.5981   32.1920   41.8861 H   0  0  0  0  0  0  0  0  0  0  0  0
   48.7663   35.0783   41.5786 H   0  0  0  0  0  0  0  0  0  0  0  0
   49.4183   33.7058   40.7648 H   0  0  0  0  0  0  0  0  0  0  0  0
   47.2081   33.3078   39.5611 H   0  0  0  0  0  0  0  0  0  0  0  0
   47.4758   35.0174   39.3971 H   0  0  0  0  0  0  0  0  0  0  0  0
   45.9050   35.5226   41.0249 H   0  0  0  0  0  0  0  0  0  0  0  0
   45.7230   31.9002   40.4416 H   0  0  0  0  0  0  0  0  0  0  0  0
   43.6164   30.8598   39.7047 H   0  0  0  0  0  0  0  0  0  0  0  0
   41.5272   32.2303   39.4793 H   0  0  0  0  0  0  0  0  0  0  0  0
   43.9530   36.8432   44.9321 H   0  0  0  0  0  0  0  0  0  0  0  0
   45.0975   36.2748   42.7959 H   0  0  0  0  0  0  0  0  0  0  0  0
   45.4513   33.2863   46.6902 H   0  0  0  0  0  0  0  0  0  0  0  0
  1 19  1  0
  2  1  1  0
  3  2  1  0
  4  5  1  0
  4  3  1  0
  5  1  1  0
  7  8  2  0
  7  6  1  0
  8  5  1  0
  9  8  1  0
 10  9  2  0
 11 10  1  0
 11 12  2  0
 12  7  1  0
 13 12  1  0
 13 15  1  0
 14 13  1  0
 16 13  1  0
 17 22  2  0
 18 17  1  0
 19 18  2  0
 19 20  1  0
 20 21  2  0
 21 22  1  0
  2 23  1  0
  2 24  1  0
  3 25  1  0
  3 26  1  0
  4 27  1  0
  4 28  1  0
  5 29  1  1
  9 30  1  0
 10 31  1  0
 11 32  1  0
 17 33  1  0
 18 34  1  0
 21 35  1  0
M  ISO  8  23  13  24  13  25  13  26  13  27  13  28  13  29  13  30  14
M  ISO  5  31  14  32  14  33  14  34  14  35  14
M  END
>  <minimizedAffinity>  (1) 
-5.78893042

>  <minimizedRMSD>  (1) 
1.48006129

$$$$
