
     RDKit          3D

 24 26  0  0  0  0  0  0  0  0999 V2000
   42.0880   35.1380   41.6880 C   0  0  0  0  0  0  0  0  0  0  0  0
   43.0050   34.8700   40.6780 C   0  0  0  0  0  0  0  0  0  0  0  0
   42.5800   34.6640   39.3860 C   0  0  0  0  0  0  0  0  0  0  0  0
   41.2390   34.7190   39.0630 C   0  0  0  0  0  0  0  0  0  0  0  0
   40.3060   34.9870   40.0680 C   0  0  0  0  0  0  0  0  0  0  0  0
   40.7270   35.1960   41.3770 C   0  0  0  0  0  0  0  0  0  0  0  0
   39.0250   34.9880   39.4810 O   0  0  0  0  0  0  0  0  0  0  0  0
   39.1900   34.3170   38.2330 C   0  0  0  0  0  0  0  0  0  0  0  0
   40.5350   34.5540   37.8550 O   0  0  0  0  0  0  0  0  0  0  0  0
   44.7180   34.8170   41.1830 S   0  0  0  0  0  0  0  0  0  0  0  0
   44.8260   34.8070   42.9950 C   0  0  0  0  0  0  0  0  0  0  0  0
   45.3560   33.6290   43.5240 C   0  0  0  0  0  0  0  0  0  0  0  0
   45.4670   33.5550   44.9300 C   0  0  0  0  0  0  0  0  0  0  0  0
   45.0590   34.6150   45.6610 N   0  0  0  0  0  0  0  0  0  0  0  0
   44.5530   35.7330   45.1070 C   0  0  0  0  0  0  0  0  0  0  0  0
   44.4370   35.8280   43.7740 N   0  0  0  0  0  0  0  0  0  0  0  0
   42.4301   35.3025   42.7204 H   0  0  0  0  0  0  0  0  0  0  0  0
   43.3191   34.4525   38.5992 H   0  0  0  0  0  0  0  0  0  0  0  0
   39.9899   35.4066   42.1659 H   0  0  0  0  0  0  0  0  0  0  0  0
   39.0067   33.2385   38.3484 H   0  0  0  0  0  0  0  0  0  0  0  0
   38.4811   34.6814   37.4750 H   0  0  0  0  0  0  0  0  0  0  0  0
   45.6722   32.7978   42.8766 H   0  0  0  0  0  0  0  0  0  0  0  0
   45.8752   32.6572   45.4172 H   0  0  0  0  0  0  0  0  0  0  0  0
   44.2347   36.5686   45.7476 H   0  0  0  0  0  0  0  0  0  0  0  0
  2 10  1  0
  2  1  2  0
  3  2  1  0
  4  3  2  0
  4  5  1  0
  5  6  2  0
  6  1  1  0
  7  5  1  0
  8  7  1  0
  9  8  1  0
  9  4  1  0
 10 11  1  0
 11 12  2  0
 11 16  1  0
 12 13  1  0
 13 14  2  0
 15 14  1  0
 16 15  2  0
  1 17  1  0
  3 18  1  0
  6 19  1  0
  8 20  1  0
  8 21  1  0
 12 22  1  0
 13 23  1  0
 15 24  1  0
M  ISO  8  17  14  18  14  19  14  20  13  21  13  22  14  23  14  24  14
M  END
>  <minimizedAffinity>  (1) 
-4.91938925

>  <minimizedRMSD>  (1) 
1.88756526

$$$$
