
     RDKit          3D

 30 32  0  0  0  0  0  0  0  0999 V2000
   42.8630   34.0880   39.6650 C   0  0  0  0  0  0  0  0  0  0  0  0
   42.1330   35.0090   40.3910 C   0  0  0  0  0  0  0  0  0  0  0  0
   42.7150   35.6790   41.4440 C   0  0  0  0  0  0  0  0  0  0  0  0
   44.0320   35.4460   41.7940 C   0  0  0  0  0  0  0  0  0  0  0  0
   44.7780   34.5180   41.0680 C   0  0  0  0  0  0  0  0  0  0  0  0
   44.1910   33.8410   40.0030 C   0  0  0  0  0  0  0  0  0  0  0  0
   46.0630   34.4730   41.6210 O   0  0  0  0  0  0  0  0  0  0  0  0
   45.9540   35.0880   42.9030 C   0  0  0  0  0  0  0  0  0  0  0  0
   44.8670   35.9750   42.8030 O   0  0  0  0  0  0  0  0  0  0  0  0
   40.4440   35.2480   39.8730 S   0  0  0  0  0  0  0  0  0  0  0  0
   39.5980   33.6470   39.7490 C   0  0  0  0  0  0  0  0  0  0  0  0
   39.0450   33.1910   40.9350 C   0  0  0  0  0  0  0  0  0  0  0  0
   38.3760   31.9540   40.9010 C   0  0  0  0  0  0  0  0  0  0  0  0
   38.3160   31.2950   39.7230 N   0  0  0  0  0  0  0  0  0  0  0  0
   38.8670   31.7780   38.6020 C   0  0  0  0  0  0  0  0  0  0  0  0
   39.5110   32.9570   38.6080 N   0  0  0  0  0  0  0  0  0  0  0  0
   38.7290   30.9600   37.3870 C   0  0  0  0  0  0  0  0  0  0  0  0
   38.4170   29.5160   37.6470 C   0  0  0  0  0  0  0  0  0  0  0  0
   42.3977   33.5526   38.8243 H   0  0  0  0  0  0  0  0  0  0  0  0
   42.1235   36.4100   42.0148 H   0  0  0  0  0  0  0  0  0  0  0  0
   44.7772   33.1096   39.4273 H   0  0  0  0  0  0  0  0  0  0  0  0
   45.7623   34.3308   43.6776 H   0  0  0  0  0  0  0  0  0  0  0  0
   46.8808   35.6085   43.1861 H   0  0  0  0  0  0  0  0  0  0  0  0
   39.1259   33.7726   41.8651 H   0  0  0  0  0  0  0  0  0  0  0  0
   37.9149   31.5352   41.8076 H   0  0  0  0  0  0  0  0  0  0  0  0
   39.6743   31.0128   36.8270 H   0  0  0  0  0  0  0  0  0  0  0  0
   37.8763   31.3704   36.8262 H   0  0  0  0  0  0  0  0  0  0  0  0
   38.3787   29.3387   38.7319 H   0  0  0  0  0  0  0  0  0  0  0  0
   37.4439   29.2649   37.1999 H   0  0  0  0  0  0  0  0  0  0  0  0
   39.1996   28.8855   37.1999 H   0  0  0  0  0  0  0  0  0  0  0  0
  1  6  2  0
  1  2  1  0
  2  3  2  0
  3  4  1  0
  4  9  1  0
  5  7  1  0
  5  4  2  0
  6  5  1  0
  7  8  1  0
  9  8  1  0
 10  2  1  0
 11 10  1  0
 11 12  2  0
 13 12  1  0
 14 13  2  0
 15 16  2  0
 15 14  1  0
 16 11  1  0
 17 18  1  0
 17 15  1  0
  1 19  1  0
  3 20  1  0
  6 21  1  0
  8 22  1  0
  8 23  1  0
 12 24  1  0
 13 25  1  0
 17 26  1  0
 17 27  1  0
 18 28  1  0
 18 29  1  0
 18 30  1  0
M  ISO  8  19  14  20  14  21  14  22  13  23  13  24  14  25  14  26   8
M  ISO  4  27   8  28   8  29   8  30   8
M  END
>  <minimizedAffinity>  (1) 
-4.53413439

>  <minimizedRMSD>  (1) 
7.36586285

$$$$
