
     RDKit          3D

 40 43  0  0  1  0  0  0  0  0999 V2000
   43.9080   34.6560   40.7620 C   0  0  0  0  0  0  0  0  0  0  0  0
   43.8420   33.8790   39.6130 C   0  0  0  0  0  0  0  0  0  0  0  0
   45.0300   33.2700   39.1940 C   0  0  0  0  0  0  0  0  0  0  0  0
   46.1620   33.4570   39.9000 N   0  0  0  0  0  0  0  0  0  0  0  0
   46.1830   34.2230   41.0140 C   0  0  0  0  0  0  0  0  0  0  0  0
   45.0600   34.7980   41.4110 N   0  0  0  0  0  0  0  0  0  0  0  0
   45.3870   33.1980   36.7460 C   0  0  2  0  0  0  0  0  0  0  0  0
   45.0210   32.4310   37.9790 C   0  0  1  0  0  0  0  0  0  0  0  0
   46.1090   31.3830   38.0100 C   0  0  0  0  0  0  0  0  0  0  0  0
   46.4930   31.1320   36.7240 O   0  0  0  0  0  0  0  0  0  0  0  0
   46.0120   32.1230   35.8910 C   0  0  0  0  0  0  0  0  0  0  0  0
   46.3820   34.1230   37.1180 O   0  0  0  0  0  0  0  0  0  0  0  0
   42.3650   35.4320   41.2850 S   0  0  0  0  0  0  0  0  0  0  0  0
   39.9710   34.8290   40.2060 C   0  0  0  0  0  0  0  0  0  0  0  0
   40.9850   34.3290   41.0050 C   0  0  0  0  0  0  0  0  0  0  0  0
   40.9000   33.0680   41.5290 C   0  0  0  0  0  0  0  0  0  0  0  0
   39.8140   32.2450   41.2890 C   0  0  0  0  0  0  0  0  0  0  0  0
   38.7970   32.7570   40.4820 C   0  0  0  0  0  0  0  0  0  0  0  0
   38.8500   34.0270   39.9360 C   0  0  0  0  0  0  0  0  0  0  0  0
   37.8100   31.7480   40.3820 O   0  0  0  0  0  0  0  0  0  0  0  0
   38.1060   30.7940   41.3520 C   0  0  0  0  0  0  0  0  0  0  0  0
   39.4670   30.9480   41.6800 O   0  0  0  0  0  0  0  0  0  0  0  0
   47.2980   34.4550   41.7790 O   0  0  0  0  0  0  0  0  0  0  0  0
   48.4570   34.9590   41.1580 C   0  0  0  0  0  0  0  0  0  0  0  0
   49.5420   34.1550   41.3550 F   0  0  0  0  0  0  0  0  0  0  0  0
   48.1240   35.1320   39.8170 F   0  0  0  0  0  0  0  0  0  0  0  0
   48.7340   36.1940   41.7460 F   0  0  0  0  0  0  0  0  0  0  0  0
   42.9008   33.7485   39.0588 H   0  0  0  0  0  0  0  0  0  0  0  0
   44.5610   33.7333   36.2549 H   0  0  0  0  0  0  0  0  0  0  0  0
   43.9993   32.0238   37.9579 H   0  0  0  0  0  0  0  0  0  0  0  0
   46.9672   31.7536   38.5898 H   0  0  0  0  0  0  0  0  0  0  0  0
   45.7377   30.4621   38.4835 H   0  0  0  0  0  0  0  0  0  0  0  0
   46.8387   32.5488   35.3034 H   0  0  0  0  0  0  0  0  0  0  0  0
   45.2651   31.7071   35.1988 H   0  0  0  0  0  0  0  0  0  0  0  0
   46.4346   34.1719   38.1054 H   0  0  0  0  0  0  0  0  0  0  0  0
   40.0425   35.8436   39.7871 H   0  0  0  0  0  0  0  0  0  0  0  0
   41.7205   32.6970   42.1607 H   0  0  0  0  0  0  0  0  0  0  0  0
   38.0313   34.4009   39.3036 H   0  0  0  0  0  0  0  0  0  0  0  0
   37.4821   30.9556   42.2434 H   0  0  0  0  0  0  0  0  0  0  0  0
   37.9049   29.7791   40.9784 H   0  0  0  0  0  0  0  0  0  0  0  0
  1 13  1  0
  1  6  1  0
  2  1  2  0
  3  2  1  0
  3  4  2  0
  4  5  1  0
  5  6  2  0
  5 23  1  0
  7 12  1  0
  7  8  1  0
  8  9  1  0
  8  3  1  0
 10  9  1  0
 11 10  1  0
 11  7  1  0
 14 15  2  0
 15 13  1  0
 15 16  1  0
 17 16  2  0
 17 22  1  0
 18 17  1  0
 19 14  1  0
 19 18  2  0
 20 18  1  0
 20 21  1  0
 21 22  1  0
 24 25  1  0
 24 27  1  0
 24 23  1  0
 26 24  1  0
  2 28  1  0
  7 29  1  6
  8 30  1  6
  9 31  1  0
  9 32  1  0
 11 33  1  0
 11 34  1  0
 12 35  1  0
 14 36  1  0
 16 37  1  0
 19 38  1  0
 21 39  1  0
 21 40  1  0
M  ISO  8  28  14  29  13  30  13  31  13  32  13  33  13  34  13  35   3
M  ISO  5  36  14  37  14  38  14  39  13  40  13
M  END
>  <minimizedAffinity>  (1) 
-6.38065147

>  <minimizedRMSD>  (1) 
1.25038493

$$$$
