
     RDKit          3D

 38 41  0  0  0  0  0  0  0  0999 V2000
   44.0750   34.8140   41.0800 C   0  0  0  0  0  0  0  0  0  0  0  0
   44.0170   33.9980   39.9750 C   0  0  0  0  0  0  0  0  0  0  0  0
   45.2140   33.4330   39.5410 C   0  0  0  0  0  0  0  0  0  0  0  0
   46.3510   33.7180   40.2270 N   0  0  0  0  0  0  0  0  0  0  0  0
   46.3610   34.5150   41.2940 C   0  0  0  0  0  0  0  0  0  0  0  0
   45.2230   35.0580   41.7140 N   0  0  0  0  0  0  0  0  0  0  0  0
   45.2670   32.5540   38.3820 C   0  0  0  0  0  0  0  0  0  0  0  0
   45.1950   31.1800   38.4210 C   0  0  0  0  0  0  0  0  0  0  0  0
   45.2530   30.4130   37.2660 C   0  0  0  0  0  0  0  0  0  0  0  0
   45.3860   31.0030   36.0260 C   0  0  0  0  0  0  0  0  0  0  0  0
   45.4600   32.3820   35.9540 C   0  0  0  0  0  0  0  0  0  0  0  0
   45.3990   33.1000   37.1250 C   0  0  0  0  0  0  0  0  0  0  0  0
   42.4970   35.5330   41.6170 S   0  0  0  0  0  0  0  0  0  0  0  0
   40.1600   35.0140   40.3810 C   0  0  0  0  0  0  0  0  0  0  0  0
   41.1420   34.4560   41.1890 C   0  0  0  0  0  0  0  0  0  0  0  0
   41.0380   33.1590   41.6090 C   0  0  0  0  0  0  0  0  0  0  0  0
   39.9760   32.3380   41.2650 C   0  0  0  0  0  0  0  0  0  0  0  0
   38.9850   32.9160   40.4440 C   0  0  0  0  0  0  0  0  0  0  0  0
   39.0580   34.2240   40.0010 C   0  0  0  0  0  0  0  0  0  0  0  0
   38.0120   31.9050   40.2250 O   0  0  0  0  0  0  0  0  0  0  0  0
   38.2680   30.9000   41.1730 C   0  0  0  0  0  0  0  0  0  0  0  0
   39.6190   31.0250   41.5360 O   0  0  0  0  0  0  0  0  0  0  0  0
   47.4930   34.8220   42.0070 O   0  0  0  0  0  0  0  0  0  0  0  0
   48.6640   35.1900   41.3410 C   0  0  0  0  0  0  0  0  0  0  0  0
   49.6800   34.2890   41.5420 F   0  0  0  0  0  0  0  0  0  0  0  0
   48.3120   35.2970   39.9930 F   0  0  0  0  0  0  0  0  0  0  0  0
   49.0750   36.4210   41.8410 F   0  0  0  0  0  0  0  0  0  0  0  0
   43.0673   33.8000   39.4565 H   0  0  0  0  0  0  0  0  0  0  0  0
   45.0887   30.6767   39.3933 H   0  0  0  0  0  0  0  0  0  0  0  0
   45.1920   29.3172   37.3403 H   0  0  0  0  0  0  0  0  0  0  0  0
   45.4322   30.3896   35.1141 H   0  0  0  0  0  0  0  0  0  0  0  0
   45.5650   32.8914   34.9847 H   0  0  0  0  0  0  0  0  0  0  0  0
   45.4604   34.1958   37.0519 H   0  0  0  0  0  0  0  0  0  0  0  0
   40.2418   36.0575   40.0429 H   0  0  0  0  0  0  0  0  0  0  0  0
   41.8332   32.7488   42.2488 H   0  0  0  0  0  0  0  0  0  0  0  0
   38.2666   34.6413   39.3610 H   0  0  0  0  0  0  0  0  0  0  0  0
   37.6241   31.0367   42.0543 H   0  0  0  0  0  0  0  0  0  0  0  0
   38.0592   29.9023   40.7594 H   0  0  0  0  0  0  0  0  0  0  0  0
  1 13  1  0
  1  6  1  0
  2  1  2  0
  3  2  1  0
  3  4  2  0
  4  5  1  0
  5  6  2  0
  5 23  1  0
  7  8  2  0
  7  3  1  0
  9  8  1  0
 10  9  2  0
 11 10  1  0
 11 12  2  0
 12  7  1  0
 14 15  2  0
 15 16  1  0
 15 13  1  0
 17 22  1  0
 17 16  2  0
 18 17  1  0
 19 14  1  0
 19 18  2  0
 20 18  1  0
 20 21  1  0
 21 22  1  0
 24 25  1  0
 24 27  1  0
 24 23  1  0
 26 24  1  0
  2 28  1  0
  8 29  1  0
  9 30  1  0
 10 31  1  0
 11 32  1  0
 12 33  1  0
 14 34  1  0
 16 35  1  0
 19 36  1  0
 21 37  1  0
 21 38  1  0
M  ISO  8  28  14  29  14  30  14  31  14  32  14  33  14  34  14  35  14
M  ISO  3  36  14  37  13  38  13
M  END
>  <minimizedAffinity>  (1) 
-6.04963446

>  <minimizedRMSD>  (1) 
0.433733642

$$$$
