
     RDKit          3D

 35 36  0  0  1  0  0  0  0  0999 V2000
   44.7900   33.2300   41.7560 C   0  0  1  0  0  0  0  0  0  0  0  0
   44.3400   34.2210   40.6210 C   0  0  0  0  0  0  0  0  0  0  0  0
   44.1860   33.4410   39.3720 C   0  0  0  0  0  0  0  0  0  0  0  0
   45.6090   33.0740   38.9530 C   0  0  0  0  0  0  0  0  0  0  0  0
   46.2280   32.3080   39.9920 C   0  0  0  0  0  0  0  0  0  0  0  0
   46.0940   32.7870   41.5140 C   0  0  1  0  0  0  0  0  0  0  0  0
   44.4610   35.9640   44.4780 C   0  0  0  0  0  0  0  0  0  0  0  0
   44.3810   35.3910   43.2370 C   0  0  0  0  0  0  0  0  0  0  0  0
   44.7670   34.0480   43.0240 C   0  0  0  0  0  0  0  0  0  0  0  0
   45.2050   33.4030   44.1040 N   0  0  0  0  0  0  0  0  0  0  0  0
   45.2840   33.9560   45.3080 C   0  0  0  0  0  0  0  0  0  0  0  0
   44.9090   35.2550   45.5110 N   0  0  0  0  0  0  0  0  0  0  0  0
   47.0440   33.8430   41.6300 O   0  0  0  0  0  0  0  0  0  0  0  0
   48.2530   33.1790   41.9470 C   0  0  0  0  0  0  0  0  0  0  0  0
   49.1670   34.1330   41.2880 O   0  0  0  0  0  0  0  0  0  0  0  0
   49.4770   35.3130   41.9230 C   0  0  0  0  0  0  0  0  0  0  0  0
   49.2400   36.4730   41.5650 O   0  0  0  0  0  0  0  0  0  0  0  0
   50.1570   35.0600   43.1400 N   0  0  0  0  0  0  0  0  0  0  0  0
   44.1378   32.3460   41.8124 H   0  0  0  0  0  0  0  0  0  0  0  0
   43.3813   34.6880   40.8908 H   0  0  0  0  0  0  0  0  0  0  0  0
   45.0883   35.0160   40.4870 H   0  0  0  0  0  0  0  0  0  0  0  0
   43.5911   32.5339   39.5542 H   0  0  0  0  0  0  0  0  0  0  0  0
   43.6613   34.0120   38.5919 H   0  0  0  0  0  0  0  0  0  0  0  0
   45.5774   32.4796   38.0279 H   0  0  0  0  0  0  0  0  0  0  0  0
   46.1889   33.9922   38.7782 H   0  0  0  0  0  0  0  0  0  0  0  0
   45.8042   31.2944   39.9375 H   0  0  0  0  0  0  0  0  0  0  0  0
   47.3029   32.4121   39.7830 H   0  0  0  0  0  0  0  0  0  0  0  0
   46.2858   31.9889   42.2463 H   0  0  0  0  0  0  0  0  0  0  0  0
   44.1548   37.0108   44.6210 H   0  0  0  0  0  0  0  0  0  0  0  0
   44.0095   35.9868   42.3902 H   0  0  0  0  0  0  0  0  0  0  0  0
   45.6565   33.3606   46.1546 H   0  0  0  0  0  0  0  0  0  0  0  0
   48.4245   33.1141   43.0316 H   0  0  0  0  0  0  0  0  0  0  0  0
   48.3319   32.1278   41.6328 H   0  0  0  0  0  0  0  0  0  0  0  0
   50.4582   35.8453   43.7346 H   0  0  0  0  0  0  0  0  0  0  0  0
   50.3502   34.0908   43.4302 H   0  0  0  0  0  0  0  0  0  0  0  0
  1  9  1  0
  2  1  1  0
  3  2  1  0
  4  3  1  0
  4  5  1  0
  5  6  1  0
  6 13  1  0
  6  1  1  0
  7 12  2  0
  8  7  1  0
  9  8  2  0
  9 10  1  0
 10 11  2  0
 11 12  1  0
 13 14  1  0
 15 16  1  0
 15 14  1  0
 16 18  1  0
 17 16  2  0
  1 19  1  1
  2 20  1  0
  2 21  1  0
  3 22  1  0
  3 23  1  0
  4 24  1  0
  4 25  1  0
  5 26  1  0
  5 27  1  0
  6 28  1  1
  7 29  1  0
  8 30  1  0
 11 31  1  0
 14 32  1  0
 14 33  1  0
 18 34  1  0
 18 35  1  0
M  ISO  8  19  13  20  13  21  13  22  13  23  13  24  13  25  13  26  13
M  ISO  7  27  13  28  13  29  14  30  14  31  14  32   8  33   8
M  END
>  <minimizedAffinity>  (1) 
-4.61363649

>  <minimizedRMSD>  (1) 
1.96485817

$$$$
