
     RDKit          3D

 43 47  0  0  0  0  0  0  0  0999 V2000
   44.8010   33.8670   40.0580 C   0  0  0  0  0  0  0  0  0  0  0  0
   45.2510   32.9680   39.1620 C   0  0  0  0  0  0  0  0  0  0  0  0
   46.6420   32.7070   39.1830 C   0  0  0  0  0  0  0  0  0  0  0  0
   47.4410   33.3550   40.0680 N   0  0  0  0  0  0  0  0  0  0  0  0
   46.9380   34.2490   40.9410 C   0  0  0  0  0  0  0  0  0  0  0  0
   45.6470   34.4550   40.8900 N   0  0  0  0  0  0  0  0  0  0  0  0
   44.3170   30.9410   38.7160 C   0  0  0  0  0  0  0  0  0  0  0  0
   44.7350   32.1420   38.1100 C   0  0  0  0  0  0  0  0  0  0  0  0
   44.4960   32.2160   36.7610 C   0  0  0  0  0  0  0  0  0  0  0  0
   43.9000   31.2140   36.0400 C   0  0  0  0  0  0  0  0  0  0  0  0
   43.6490   31.2490   34.7210 N   0  0  0  0  0  0  0  0  0  0  0  0
   43.0570   30.0510   34.4540 C   0  0  0  0  0  0  0  0  0  0  0  0
   42.9730   29.3440   35.6100 N   0  0  0  0  0  0  0  0  0  0  0  0
   43.4960   30.0500   36.6290 C   0  0  0  0  0  0  0  0  0  0  0  0
   43.7060   29.9070   37.9900 C   0  0  0  0  0  0  0  0  0  0  0  0
   47.2500   31.7430   38.3170 N   0  0  0  0  0  0  0  0  0  0  0  0
   43.0170   34.1630   40.0030 S   0  0  0  0  0  0  0  0  0  0  0  0
   40.7510   33.1220   40.9320 C   0  0  0  0  0  0  0  0  0  0  0  0
   42.1450   32.9570   40.9700 C   0  0  0  0  0  0  0  0  0  0  0  0
   42.7340   31.9240   41.6760 C   0  0  0  0  0  0  0  0  0  0  0  0
   41.9620   31.0190   42.3650 C   0  0  0  0  0  0  0  0  0  0  0  0
   40.5650   31.1610   42.3430 C   0  0  0  0  0  0  0  0  0  0  0  0
   39.9560   32.1910   41.6420 C   0  0  0  0  0  0  0  0  0  0  0  0
   40.0200   30.1190   43.1180 O   0  0  0  0  0  0  0  0  0  0  0  0
   41.0650   29.5430   43.8150 C   0  0  0  0  0  0  0  0  0  0  0  0
   42.2530   29.9060   43.1370 O   0  0  0  0  0  0  0  0  0  0  0  0
   47.6590   34.9570   41.8700 O   0  0  0  0  0  0  0  0  0  0  0  0
   48.8800   35.5250   41.4680 C   0  0  0  0  0  0  0  0  0  0  0  0
   49.9510   34.7200   41.7590 F   0  0  0  0  0  0  0  0  0  0  0  0
   48.7770   35.7580   40.0840 F   0  0  0  0  0  0  0  0  0  0  0  0
   49.0410   36.7260   42.1380 F   0  0  0  0  0  0  0  0  0  0  0  0
   44.4751   30.8089   39.7965 H   0  0  0  0  0  0  0  0  0  0  0  0
   44.7993   33.1296   36.2288 H   0  0  0  0  0  0  0  0  0  0  0  0
   43.8573   32.0106   34.0596 H   0  0  0  0  0  0  0  0  0  0  0  0
   42.7061   29.7135   33.4676 H   0  0  0  0  0  0  0  0  0  0  0  0
   43.3944   28.9843   38.5015 H   0  0  0  0  0  0  0  0  0  0  0  0
   48.2661   31.5799   38.3607 H   0  0  0  0  0  0  0  0  0  0  0  0
   46.6714   31.2124   37.6502 H   0  0  0  0  0  0  0  0  0  0  0  0
   40.2920   33.9479   40.3688 H   0  0  0  0  0  0  0  0  0  0  0  0
   43.8295   31.8257   41.6863 H   0  0  0  0  0  0  0  0  0  0  0  0
   38.8599   32.2840   41.6378 H   0  0  0  0  0  0  0  0  0  0  0  0
   41.0867   29.9216   44.8476 H   0  0  0  0  0  0  0  0  0  0  0  0
   40.9544   28.4496   43.8631 H   0  0  0  0  0  0  0  0  0  0  0  0
  1  6  2  0
  2  3  2  0
  2  1  1  0
  3  4  1  0
  4  5  2  0
  5 27  1  0
  6  5  1  0
  8  7  2  0
  8  2  1  0
  9  8  1  0
 10 14  1  0
 10  9  2  0
 11 10  1  0
 12 11  1  0
 12 13  2  0
 13 14  1  0
 14 15  2  0
 15  7  1  0
 16  3  1  0
 17  1  1  0
 17 19  1  0
 18 19  2  0
 18 23  1  0
 19 20  1  0
 20 21  2  0
 21 26  1  0
 22 21  1  0
 22 24  1  0
 23 22  2  0
 24 25  1  0
 26 25  1  0
 28 29  1  0
 28 27  1  0
 28 31  1  0
 30 28  1  0
  7 32  1  0
  9 33  1  0
 11 34  1  0
 12 35  1  0
 15 36  1  0
 16 37  1  0
 16 38  1  0
 18 39  1  0
 20 40  1  0
 23 41  1  0
 25 42  1  0
 25 43  1  0
M  ISO  8  32  14  33  14  34   9  35  14  36  14  39  14  40  14  41  14
M  ISO  2  42  13  43  13
M  END
>  <minimizedAffinity>  (1) 
-5.9441905

>  <minimizedRMSD>  (1) 
2.51906872

$$$$
