
     RDKit          3D

 32 34  0  0  0  0  0  0  0  0999 V2000
   42.7680   34.4390   40.8840 C   0  0  0  0  0  0  0  0  0  0  0  0
   42.8810   34.2830   39.5480 C   0  0  0  0  0  0  0  0  0  0  0  0
   44.1500   33.9430   39.0400 C   0  0  0  0  0  0  0  0  0  0  0  0
   45.1870   33.7910   39.8970 N   0  0  0  0  0  0  0  0  0  0  0  0
   45.0180   33.9580   41.2160 C   0  0  0  0  0  0  0  0  0  0  0  0
   43.8180   34.2750   41.6540 N   0  0  0  0  0  0  0  0  0  0  0  0
   44.3920   33.7530   37.6490 N   0  0  0  0  0  0  0  0  0  0  0  0
   41.9440   34.4140   38.5040 C   0  0  0  0  0  0  0  0  0  0  0  0
   41.6150   35.4320   37.8800 O   0  0  0  0  0  0  0  0  0  0  0  0
   41.1100   34.8710   41.4670 S   0  0  0  0  0  0  0  0  0  0  0  0
   38.9350   33.7350   40.4510 C   0  0  0  0  0  0  0  0  0  0  0  0
   40.0040   33.4810   41.3030 C   0  0  0  0  0  0  0  0  0  0  0  0
   40.1590   32.2530   41.9330 C   0  0  0  0  0  0  0  0  0  0  0  0
   39.2510   31.2480   41.7300 C   0  0  0  0  0  0  0  0  0  0  0  0
   38.1750   31.4770   40.8840 C   0  0  0  0  0  0  0  0  0  0  0  0
   38.0000   32.6840   40.2490 C   0  0  0  0  0  0  0  0  0  0  0  0
   37.4050   30.2920   40.8520 O   0  0  0  0  0  0  0  0  0  0  0  0
   37.8650   29.4880   41.8950 C   0  0  0  0  0  0  0  0  0  0  0  0
   39.1640   29.9490   42.2220 O   0  0  0  0  0  0  0  0  0  0  0  0
   46.0110   33.8250   42.1570 O   0  0  0  0  0  0  0  0  0  0  0  0
   46.8770   34.9140   42.3840 C   0  0  0  0  0  0  0  0  0  0  0  0
   47.6410   35.2010   41.2840 F   0  0  0  0  0  0  0  0  0  0  0  0
   46.0690   35.9930   42.7560 F   0  0  0  0  0  0  0  0  0  0  0  0
   47.7420   34.5530   43.4110 F   0  0  0  0  0  0  0  0  0  0  0  0
   45.3358   33.5048   37.3197 H   0  0  0  0  0  0  0  0  0  0  0  0
   43.6231   33.8638   36.9726 H   0  0  0  0  0  0  0  0  0  0  0  0
   41.4357   33.4863   38.2022 H   0  0  0  0  0  0  0  0  0  0  0  0
   38.8178   34.7092   39.9538 H   0  0  0  0  0  0  0  0  0  0  0  0
   41.0176   32.0863   42.6001 H   0  0  0  0  0  0  0  0  0  0  0  0
   37.1365   32.8360   39.5848 H   0  0  0  0  0  0  0  0  0  0  0  0
   37.1997   29.5798   42.7662 H   0  0  0  0  0  0  0  0  0  0  0  0
   37.8839   28.4287   41.5992 H   0  0  0  0  0  0  0  0  0  0  0  0
  1 10  1  0
  1  6  1  0
  2  1  2  0
  3  2  1  0
  3  4  2  0
  4  5  1  0
  5  6  2  0
  5 20  1  0
  7  3  1  0
  8  2  1  0
  9  8  2  0
 11 12  2  0
 12 10  1  0
 12 13  1  0
 14 13  2  0
 14 19  1  0
 15 14  1  0
 16 11  1  0
 16 15  2  0
 17 15  1  0
 17 18  1  0
 18 19  1  0
 20 21  1  0
 21 23  1  0
 21 24  1  0
 22 21  1  0
  7 25  1  0
  7 26  1  0
  8 27  1  0
 11 28  1  0
 13 29  1  0
 16 30  1  0
 18 31  1  0
 18 32  1  0
M  ISO  6  27   6  28  14  29  14  30  14  31  13  32  13
M  END
>  <minimizedAffinity>  (1) 
-5.49641037

>  <minimizedRMSD>  (1) 
1.72797728

$$$$
