
     RDKit          3D

 33 35  0  0  0  0  0  0  0  0999 V2000
   43.7650   34.6070   40.5470 C   0  0  0  0  0  0  0  0  0  0  0  0
   43.7620   33.7770   39.4730 C   0  0  0  0  0  0  0  0  0  0  0  0
   44.9840   33.1550   39.1900 C   0  0  0  0  0  0  0  0  0  0  0  0
   46.0740   33.3940   39.9540 N   0  0  0  0  0  0  0  0  0  0  0  0
   46.0280   34.2260   41.0020 C   0  0  0  0  0  0  0  0  0  0  0  0
   44.8650   34.8030   41.2600 N   0  0  0  0  0  0  0  0  0  0  0  0
   45.0980   32.2390   38.0920 N   0  0  0  0  0  0  0  0  0  0  0  0
   42.7420   33.3970   38.4530 C   0  0  0  0  0  0  0  0  0  0  0  0
   42.1740   35.3960   40.9330 S   0  0  0  0  0  0  0  0  0  0  0  0
   39.7310   34.6030   40.2770 C   0  0  0  0  0  0  0  0  0  0  0  0
   40.8720   34.1770   40.9580 C   0  0  0  0  0  0  0  0  0  0  0  0
   40.9270   32.9320   41.5240 C   0  0  0  0  0  0  0  0  0  0  0  0
   39.8620   32.0640   41.4370 C   0  0  0  0  0  0  0  0  0  0  0  0
   38.7230   32.4750   40.7610 C   0  0  0  0  0  0  0  0  0  0  0  0
   38.6360   33.7170   40.1830 C   0  0  0  0  0  0  0  0  0  0  0  0
   37.8050   31.4050   40.8210 O   0  0  0  0  0  0  0  0  0  0  0  0
   38.2770   30.4940   41.7450 C   0  0  0  0  0  0  0  0  0  0  0  0
   39.6510   30.7660   41.9090 O   0  0  0  0  0  0  0  0  0  0  0  0
   47.0880   34.5230   41.8200 O   0  0  0  0  0  0  0  0  0  0  0  0
   48.3000   34.9250   41.2240 C   0  0  0  0  0  0  0  0  0  0  0  0
   49.2980   34.0220   41.4290 F   0  0  0  0  0  0  0  0  0  0  0  0
   48.0260   35.1060   39.8540 F   0  0  0  0  0  0  0  0  0  0  0  0
   48.6830   36.1240   41.8120 F   0  0  0  0  0  0  0  0  0  0  0  0
   46.0009   31.7859   37.8909 H   0  0  0  0  0  0  0  0  0  0  0  0
   44.2770   32.0344   37.5046 H   0  0  0  0  0  0  0  0  0  0  0  0
   41.8268   33.0560   38.9590 H   0  0  0  0  0  0  0  0  0  0  0  0
   42.5100   34.2690   37.8239 H   0  0  0  0  0  0  0  0  0  0  0  0
   43.1371   32.5857   37.8239 H   0  0  0  0  0  0  0  0  0  0  0  0
   39.6859   35.6046   39.8245 H   0  0  0  0  0  0  0  0  0  0  0  0
   41.8371   32.6199   42.0572 H   0  0  0  0  0  0  0  0  0  0  0  0
   37.7215   34.0191   39.6515 H   0  0  0  0  0  0  0  0  0  0  0  0
   37.7487   30.6150   42.7022 H   0  0  0  0  0  0  0  0  0  0  0  0
   38.1137   29.4609   41.4045 H   0  0  0  0  0  0  0  0  0  0  0  0
  1  9  1  0
  1  6  1  0
  2  1  2  0
  3  2  1  0
  3  4  2  0
  4  5  1  0
  5  6  2  0
  5 19  1  0
  7  3  1  0
  8  2  1  0
  9 11  1  0
 10 11  2  0
 11 12  1  0
 13 12  2  0
 13 18  1  0
 14 16  1  0
 14 13  1  0
 15 10  1  0
 15 14  2  0
 16 17  1  0
 17 18  1  0
 20 21  1  0
 20 23  1  0
 20 19  1  0
 22 20  1  0
  7 24  1  0
  7 25  1  0
  8 26  1  0
  8 27  1  0
  8 28  1  0
 10 29  1  0
 12 30  1  0
 15 31  1  0
 17 32  1  0
 17 33  1  0
M  ISO  8  26   8  27   8  28   8  29  14  30  14  31  14  32  13  33  13
M  END
>  <minimizedAffinity>  (1) 
-5.67455292

>  <minimizedRMSD>  (1) 
0.399361014

$$$$
