
     RDKit          3D

 35 37  0  0  1  0  0  0  0  0999 V2000
   42.7550   34.3730   40.8680 C   0  0  0  0  0  0  0  0  0  0  0  0
   42.8490   34.2440   39.5240 C   0  0  0  0  0  0  0  0  0  0  0  0
   44.1160   33.9100   39.0590 C   0  0  0  0  0  0  0  0  0  0  0  0
   45.1640   33.7340   39.8880 N   0  0  0  0  0  0  0  0  0  0  0  0
   45.0180   33.8770   41.2200 C   0  0  0  0  0  0  0  0  0  0  0  0
   43.8030   34.1950   41.6680 N   0  0  0  0  0  0  0  0  0  0  0  0
   44.3360   33.7230   37.6430 N   0  0  0  0  0  0  0  0  0  0  0  0
   41.9000   34.4090   38.3890 C   0  0  0  0  0  0  0  0  0  0  0  0
   41.0990   34.7790   41.5130 S   0  0  0  0  0  0  0  0  0  0  0  0
   38.9380   33.6170   40.4820 C   0  0  0  0  0  0  0  0  0  0  0  0
   40.0160   33.3650   41.3340 C   0  0  0  0  0  0  0  0  0  0  0  0
   40.1800   32.1330   41.9320 C   0  0  0  0  0  0  0  0  0  0  0  0
   39.2870   31.1230   41.7020 C   0  0  0  0  0  0  0  0  0  0  0  0
   38.2160   31.3580   40.8610 C   0  0  0  0  0  0  0  0  0  0  0  0
   38.0310   32.5670   40.2590 C   0  0  0  0  0  0  0  0  0  0  0  0
   37.4730   30.1600   40.8100 O   0  0  0  0  0  0  0  0  0  0  0  0
   37.9420   29.3120   41.7860 C   0  0  1  0  0  0  0  0  0  0  0  0
   39.2070   29.8010   42.1650 O   0  0  0  0  0  0  0  0  0  0  0  0
   37.0110   29.2630   42.8910 N   0  0  0  0  0  0  0  0  0  0  0  0
   46.0200   33.7220   42.1480 O   0  0  0  0  0  0  0  0  0  0  0  0
   46.8560   34.8360   42.3990 C   0  0  0  0  0  0  0  0  0  0  0  0
   47.7060   34.6040   43.4260 F   0  0  0  0  0  0  0  0  0  0  0  0
   47.5250   35.1160   41.1920 F   0  0  0  0  0  0  0  0  0  0  0  0
   46.0460   35.9100   42.7510 F   0  0  0  0  0  0  0  0  0  0  0  0
   45.2736   33.4755   37.2958 H   0  0  0  0  0  0  0  0  0  0  0  0
   43.5552   33.8372   36.9810 H   0  0  0  0  0  0  0  0  0  0  0  0
   40.8872   34.5851   38.7805 H   0  0  0  0  0  0  0  0  0  0  0  0
   42.2096   35.2668   37.7739 H   0  0  0  0  0  0  0  0  0  0  0  0
   41.9019   33.4970   37.7739 H   0  0  0  0  0  0  0  0  0  0  0  0
   38.8043   34.5988   40.0044 H   0  0  0  0  0  0  0  0  0  0  0  0
   41.0369   31.9612   42.6000 H   0  0  0  0  0  0  0  0  0  0  0  0
   37.1674   32.7215   39.5954 H   0  0  0  0  0  0  0  0  0  0  0  0
   38.0384   28.2772   41.4256 H   0  0  0  0  0  0  0  0  0  0  0  0
   37.5311   29.2904   43.7796 H   0  0  0  0  0  0  0  0  0  0  0  0
   36.3751   30.0717   42.8403 H   0  0  0  0  0  0  0  0  0  0  0  0
  1  9  1  0
  1  6  1  0
  2  1  2  0
  3  2  1  0
  3  4  2  0
  4  5  1  0
  5  6  2  0
  5 20  1  0
  7  3  1  0
  8  2  1  0
 10 11  2  0
 11  9  1  0
 11 12  1  0
 13 12  2  0
 13 18  1  0
 14 13  1  0
 15 10  1  0
 15 14  2  0
 16 14  1  0
 16 17  1  0
 17 18  1  0
 17 19  1  0
 20 21  1  0
 21 24  1  0
 21 22  1  0
 23 21  1  0
  7 25  1  0
  7 26  1  0
  8 27  1  0
  8 28  1  0
  8 29  1  0
 10 30  1  0
 12 31  1  0
 15 32  1  0
 17 33  1  6
 19 34  1  0
 19 35  1  0
M  ISO  8  27   8  28   8  29   8  30  14  31  14  32  14  33  13  34   5
M  ISO  1  35   5
M  END
>  <minimizedAffinity>  (1) 
-6.10264492

>  <minimizedRMSD>  (1) 
1.46307993

$$$$
