
     RDKit          3D

 36 37  0  0  0  0  0  0  0  0999 V2000
   44.8001   33.2241   41.7564 C   0  0  1  0  0  0  0  0  0  0  0  0
   44.3329   34.2225   40.6374 C   0  0  0  0  0  0  0  0  0  0  0  0
   44.1981   33.4916   39.3605 C   0  0  0  0  0  0  0  0  0  0  0  0
   45.6372   33.1315   38.9461 C   0  0  0  0  0  0  0  0  0  0  0  0
   46.1523   32.3148   39.9985 C   0  0  0  0  0  0  0  0  0  0  0  0
   46.0979   32.7969   41.5127 C   0  0  1  0  0  0  0  0  0  0  0  0
   44.4709   35.9498   44.4732 C   0  0  0  0  0  0  0  0  0  0  0  0
   44.3940   35.3729   43.2518 C   0  0  0  0  0  0  0  0  0  0  0  0
   44.7807   34.0239   43.0330 C   0  0  0  0  0  0  0  0  0  0  0  0
   45.2153   33.3797   44.0963 N   0  0  0  0  0  0  0  0  0  0  0  0
   45.2898   33.9498   45.2988 C   0  0  0  0  0  0  0  0  0  0  0  0
   44.9166   35.2463   45.4992 N   0  0  0  0  0  0  0  0  0  0  0  0
   47.0431   33.8730   41.5534 O   0  0  0  0  0  0  0  0  0  0  0  0
   48.2792   33.1211   41.9563 C   0  0  2  0  0  0  0  0  0  0  0  0
   49.1283   34.1083   41.4563 O   0  0  0  0  0  0  0  0  0  0  0  0
   49.4724   35.2915   41.9484 C   0  0  0  0  0  0  0  0  0  0  0  0
   49.2406   36.3412   41.4401 O   0  0  0  0  0  0  0  0  0  0  0  0
   50.1427   35.2402   43.1447 N   0  0  0  0  0  0  0  0  0  0  0  0
   44.0698   32.4056   41.8741 H   0  0  0  0  0  0  0  0  0  0  0  0
   43.3175   34.5504   40.9848 H   0  0  0  0  0  0  0  0  0  0  0  0
   45.0246   35.0597   40.6429 H   0  0  0  0  0  0  0  0  0  0  0  0
   43.7942   34.1707   38.6041 H   0  0  0  0  0  0  0  0  0  0  0  0
   43.6372   32.5620   39.5114 H   0  0  0  0  0  0  0  0  0  0  0  0
   45.5126   32.5023   38.0697 H   0  0  0  0  0  0  0  0  0  0  0  0
   46.1964   34.0523   38.6891 H   0  0  0  0  0  0  0  0  0  0  0  0
   46.9415   31.6820   39.7340 H   0  0  0  0  0  0  0  0  0  0  0  0
   45.3003   31.5275   40.1370 H   0  0  0  0  0  0  0  0  0  0  0  0
   46.4601   31.8934   41.9899 H   0  0  0  0  0  0  0  0  0  0  0  0
   44.1370   36.9892   44.4715 H   0  0  0  0  0  0  0  0  0  0  0  0
   44.0482   35.8458   42.3348 H   0  0  0  0  0  0  0  0  0  0  0  0
   45.6628   33.3518   46.1415 H   0  0  0  0  0  0  0  0  0  0  0  0
   47.6827   32.4349   42.3140 H   0  0  0  0  0  0  0  0  0  0  0  0
   50.2429   35.9376   43.9537 H   0  0  0  0  0  0  0  0  0  0  0  0
   50.6120   35.3449   44.1097 H   0  0  0  0  0  0  0  0  0  0  0  0
   48.6789   32.2990   40.7989 O   0  0  0  0  0  0  0  0  0  0  0  0
   49.5844   32.0091   40.9146 H   0  0  0  0  0  0  0  0  0  0  0  0
  1  9  1  0
  2  1  1  0
  3  2  1  0
  4  3  1  0
  4  5  1  0
  5  6  1  0
  6 13  1  0
  6  1  1  0
  7 12  2  0
  8  7  1  0
  9  8  2  0
  9 10  1  0
 10 11  2  0
 11 12  1  0
 13 14  1  0
 15 16  1  0
 15 14  1  0
 16 18  1  0
 17 16  2  0
  1 19  1  1
  2 20  1  0
  2 21  1  0
  3 22  1  0
  3 23  1  0
  4 24  1  0
  4 25  1  0
  5 26  1  0
  5 27  1  0
  6 28  1  1
  7 29  1  0
  8 30  1  0
 11 31  1  0
 14 32  1  1
 18 33  1  0
 18 34  1  0
 35 36  1  0
 14 35  1  0
M  END
>  <DihAtoms>  (1) 
12,13,34,35

>  <DihDeg>  (1) 
163.50889124733462

$$$$
