
     RDKit          3D

 22 23  0  0  0  0  0  0  0  0999 V2000
   44.4970   35.5640   45.1130 C   0  0  0  0  0  0  0  0  0  0  0  0
   45.1000   35.4910   43.8550 C   0  0  0  0  0  0  0  0  0  0  0  0
   46.0260   34.4820   43.6390 C   0  0  0  0  0  0  0  0  0  0  0  0
   46.2920   33.6190   44.6670 N   0  0  0  0  0  0  0  0  0  0  0  0
   45.6930   33.7210   45.8600 C   0  0  0  0  0  0  0  0  0  0  0  0
   44.7830   34.7030   46.0910 N   0  0  0  0  0  0  0  0  0  0  0  0
   46.0170   32.7670   46.9310 C   0  0  0  0  0  0  0  0  0  0  0  0
   47.1860   32.0390   46.8630 C   0  0  0  0  0  0  0  0  0  0  0  0
   47.4390   31.1540   47.9030 C   0  0  0  0  0  0  0  0  0  0  0  0
   46.5770   30.9890   48.9700 C   0  0  0  0  0  0  0  0  0  0  0  0
   45.4160   31.7410   48.9950 C   0  0  0  0  0  0  0  0  0  0  0  0
   45.1420   32.6260   47.9760 C   0  0  0  0  0  0  0  0  0  0  0  0
   44.7100   36.4720   42.8850 N   0  0  0  0  0  0  0  0  0  0  0  0
   43.7609   36.3589   45.3037 H   0  0  0  0  0  0  0  0  0  0  0  0
   46.5328   34.3781   42.6682 H   0  0  0  0  0  0  0  0  0  0  0  0
   47.8867   32.1540   46.0229 H   0  0  0  0  0  0  0  0  0  0  0  0
   48.3642   30.5597   47.8761 H   0  0  0  0  0  0  0  0  0  0  0  0
   46.8076   30.2789   49.7778 H   0  0  0  0  0  0  0  0  0  0  0  0
   44.7097   31.6317   49.8312 H   0  0  0  0  0  0  0  0  0  0  0  0
   44.2176   33.2217   48.0011 H   0  0  0  0  0  0  0  0  0  0  0  0
   45.1269   36.4592   41.9432 H   0  0  0  0  0  0  0  0  0  0  0  0
   44.0129   37.1896   43.1299 H   0  0  0  0  0  0  0  0  0  0  0  0
  1  6  2  0
  2  1  1  0
  3  2  2  0
  3  4  1  0
  4  5  2  0
  5  6  1  0
  5  7  1  0
  7 12  1  0
  8  7  2  0
  8  9  1  0
  9 10  2  0
 10 11  1  0
 12 11  2  0
 13  2  1  0
  1 14  1  0
  3 15  1  0
  8 16  1  0
  9 17  1  0
 10 18  1  0
 11 19  1  0
 12 20  1  0
 13 21  1  0
 13 22  1  0
M  ISO  7  14  14  15  14  16  14  17  14  18  14  19  14  20  14
M  END
>  <minimizedAffinity>  (1) 
-5.01711273

>  <minimizedRMSD>  (1) 
0.755166292

$$$$
