
     RDKit          3D

 20 21  0  0  0  0  0  0  0  0999 V2000
   44.5070   35.5300   45.0960 C   0  0  0  0  0  0  0  0  0  0  0  0
   45.1220   35.4380   43.8330 C   0  0  0  0  0  0  0  0  0  0  0  0
   46.0620   34.4410   43.6310 C   0  0  0  0  0  0  0  0  0  0  0  0
   46.3310   33.6090   44.6780 N   0  0  0  0  0  0  0  0  0  0  0  0
   45.7290   33.7210   45.8700 C   0  0  0  0  0  0  0  0  0  0  0  0
   44.8140   34.6810   46.0870 N   0  0  0  0  0  0  0  0  0  0  0  0
   46.0650   32.7970   46.9460 C   0  0  0  0  0  0  0  0  0  0  0  0
   45.1720   32.5600   47.9720 C   0  0  0  0  0  0  0  0  0  0  0  0
   45.4260   31.6930   49.0290 C   0  0  0  0  0  0  0  0  0  0  0  0
   46.6390   31.0730   48.9960 N   0  0  0  0  0  0  0  0  0  0  0  0
   47.5120   31.3040   47.9940 C   0  0  0  0  0  0  0  0  0  0  0  0
   47.2440   32.1570   46.9680 N   0  0  0  0  0  0  0  0  0  0  0  0
   44.6900   36.4130   42.8820 N   0  0  0  0  0  0  0  0  0  0  0  0
   43.7581   36.3158   45.2736 H   0  0  0  0  0  0  0  0  0  0  0  0
   46.5721   34.3246   42.6634 H   0  0  0  0  0  0  0  0  0  0  0  0
   44.2062   33.0862   47.9521 H   0  0  0  0  0  0  0  0  0  0  0  0
   44.6984   31.5197   49.8356 H   0  0  0  0  0  0  0  0  0  0  0  0
   48.4800   30.7816   48.0067 H   0  0  0  0  0  0  0  0  0  0  0  0
   45.0887   36.4181   41.9323 H   0  0  0  0  0  0  0  0  0  0  0  0
   43.9798   37.1107   43.1461 H   0  0  0  0  0  0  0  0  0  0  0  0
  1  6  2  0
  2  1  1  0
  3  2  2  0
  3  4  1  0
  4  5  2  0
  5  6  1  0
  5  7  1  0
  7 12  1  0
  7  8  2  0
  8  9  1  0
 10  9  2  0
 11 10  1  0
 12 11  2  0
 13  2  1  0
  1 14  1  0
  3 15  1  0
  8 16  1  0
  9 17  1  0
 11 18  1  0
 13 19  1  0
 13 20  1  0
M  ISO  5  14  14  15  14  16  14  17  14  18  14
M  END
>  <minimizedAffinity>  (1) 
-4.75624084

>  <minimizedRMSD>  (1) 
1.24402189

$$$$
