
     RDKit          3D

 18 19  0  0  0  0  0  0  0  0999 V2000
   44.4930   35.6120   45.1050 C   0  0  0  0  0  0  0  0  0  0  0  0
   45.1090   35.5520   43.8430 C   0  0  0  0  0  0  0  0  0  0  0  0
   46.0230   34.5370   43.6140 C   0  0  0  0  0  0  0  0  0  0  0  0
   46.2750   33.6570   44.6120 N   0  0  0  0  0  0  0  0  0  0  0  0
   45.6610   33.7450   45.8210 C   0  0  0  0  0  0  0  0  0  0  0  0
   44.7690   34.7240   46.0660 N   0  0  0  0  0  0  0  0  0  0  0  0
   46.0220   32.7240   46.8290 C   0  0  0  0  0  0  0  0  0  0  0  0
   47.0840   31.7090   46.6900 C   0  0  0  0  0  0  0  0  0  0  0  0
   46.9390   30.8510   48.2650 S   0  0  0  0  0  0  0  0  0  0  0  0
   45.5360   31.9280   48.8560 C   0  0  0  0  0  0  0  0  0  0  0  0
   45.3280   32.7120   47.9720 N   0  0  0  0  0  0  0  0  0  0  0  0
   44.7260   36.5630   42.9030 N   0  0  0  0  0  0  0  0  0  0  0  0
   43.7644   36.4108   45.3075 H   0  0  0  0  0  0  0  0  0  0  0  0
   46.5328   34.4476   42.6434 H   0  0  0  0  0  0  0  0  0  0  0  0
   47.7746   31.5269   45.8534 H   0  0  0  0  0  0  0  0  0  0  0  0
   45.0074   31.8587   49.8181 H   0  0  0  0  0  0  0  0  0  0  0  0
   45.1415   36.5740   41.9606 H   0  0  0  0  0  0  0  0  0  0  0  0
   44.0351   37.2789   43.1696 H   0  0  0  0  0  0  0  0  0  0  0  0
  1  6  2  0
  2  1  1  0
  3  2  2  0
  3  4  1  0
  4  5  2  0
  5  6  1  0
  5  7  1  0
  7 11  1  0
  8  7  2  0
  8  9  1  0
  9 10  1  0
 11 10  2  0
 12  2  1  0
  1 13  1  0
  3 14  1  0
  8 15  1  0
 10 16  1  0
 12 17  1  0
 12 18  1  0
M  ISO  4  13  14  14  14  15  14  16  14
M  END
>  <minimizedAffinity>  (1) 
-4.36864138

>  <minimizedRMSD>  (1) 
0.881902277

$$$$
