
     RDKit          3D

 18 18  0  0  0  0  0  0  0  0999 V2000
   44.5400   35.5290   45.0830 C   0  0  0  0  0  0  0  0  0  0  0  0
   45.0920   35.6380   43.8070 C   0  0  0  0  0  0  0  0  0  0  0  0
   46.0750   34.7440   43.4170 C   0  0  0  0  0  0  0  0  0  0  0  0
   46.4520   33.7960   44.3170 N   0  0  0  0  0  0  0  0  0  0  0  0
   45.9060   33.7090   45.5460 C   0  0  0  0  0  0  0  0  0  0  0  0
   44.9380   34.5850   45.9370 N   0  0  0  0  0  0  0  0  0  0  0  0
   44.5780   36.6910   42.9940 N   0  0  0  0  0  0  0  0  0  0  0  0
   46.3440   32.6640   46.4940 C   0  0  0  0  0  0  0  0  0  0  0  0
   45.3810   32.6620   47.6570 C   0  0  0  0  0  0  0  0  0  0  0  0
   43.7581   36.2381   45.3924 H   0  0  0  0  0  0  0  0  0  0  0  0
   46.5332   34.7982   42.4184 H   0  0  0  0  0  0  0  0  0  0  0  0
   44.9409   36.8291   42.0400 H   0  0  0  0  0  0  0  0  0  0  0  0
   43.8439   37.3134   43.3609 H   0  0  0  0  0  0  0  0  0  0  0  0
   46.3345   31.6819   45.9987 H   0  0  0  0  0  0  0  0  0  0  0  0
   47.3672   32.8668   46.8431 H   0  0  0  0  0  0  0  0  0  0  0  0
   45.9459   32.6632   48.6008 H   0  0  0  0  0  0  0  0  0  0  0  0
   44.7459   33.5588   47.6087 H   0  0  0  0  0  0  0  0  0  0  0  0
   44.7496   31.7625   47.6087 H   0  0  0  0  0  0  0  0  0  0  0  0
  1  6  2  0
  2  1  1  0
  3  2  2  0
  3  4  1  0
  4  5  2  0
  5  6  1  0
  5  8  1  0
  7  2  1  0
  8  9  1  0
  1 10  1  0
  3 11  1  0
  7 12  1  0
  7 13  1  0
  8 14  1  0
  8 15  1  0
  9 16  1  0
  9 17  1  0
  9 18  1  0
M  ISO  7  10  14  11  14  14   8  15   8  16   8  17   8  18   8
M  END
>  <minimizedAffinity>  (1) 
-3.59590125

>  <minimizedRMSD>  (1) 
0.817346513

$$$$
