
     RDKit          3D

 13 13  0  0  0  0  0  0  0  0999 V2000
   44.4490   35.7670   44.6120 C   0  0  0  0  0  0  0  0  0  0  0  0
   44.5080   35.3870   43.2720 C   0  0  0  0  0  0  0  0  0  0  0  0
   45.0850   34.1550   42.9520 C   0  0  0  0  0  0  0  0  0  0  0  0
   45.5580   33.3970   43.9760 N   0  0  0  0  0  0  0  0  0  0  0  0
   45.4850   33.7910   45.2550 C   0  0  0  0  0  0  0  0  0  0  0  0
   44.9340   34.9710   45.5890 N   0  0  0  0  0  0  0  0  0  0  0  0
   43.9660   36.3010   42.3220 N   0  0  0  0  0  0  0  0  0  0  0  0
   46.1010   32.8080   46.6170 S   0  0  0  0  0  0  0  0  0  0  0  0
   43.9984   36.7344   44.8787 H   0  0  0  0  0  0  0  0  0  0  0  0
   45.1538   33.8114   41.9093 H   0  0  0  0  0  0  0  0  0  0  0  0
   43.9832   36.0710   41.3182 H   0  0  0  0  0  0  0  0  0  0  0  0
   43.5571   37.1915   42.6393 H   0  0  0  0  0  0  0  0  0  0  0  0
   45.7361   33.3903   47.8022 H   0  0  0  0  0  0  0  0  0  0  0  0
  1  6  2  0
  2  1  1  0
  3  2  2  0
  3  4  1  0
  4  5  2  0
  5  6  1  0
  5  8  1  0
  7  2  1  0
  1  9  1  0
  3 10  1  0
  7 11  1  0
  7 12  1  0
  8 13  1  0
M  ISO  3   9  14  10  14  13  11
M  END
>  <minimizedAffinity>  (1) 
-3.10202503

>  <minimizedRMSD>  (1) 
0.278418988

$$$$
