
     RDKit          3D

 39 42  0  0  0  0  0  0  0  0999 V2000
   45.9660   32.7540   46.4790 C   0  0  0  0  0  0  0  0  0  0  0  0
   45.4220   32.8760   47.7870 C   0  0  0  0  0  0  0  0  0  0  0  0
   45.6390   31.9660   48.7910 C   0  0  0  0  0  0  0  0  0  0  0  0
   46.4050   30.8810   48.5720 C   0  0  0  0  0  0  0  0  0  0  0  0
   46.9630   30.7060   47.3180 C   0  0  0  0  0  0  0  0  0  0  0  0
   47.7310   29.6040   47.1140 C   0  0  0  0  0  0  0  0  0  0  0  0
   48.3130   29.3580   45.9040 C   0  0  0  0  0  0  0  0  0  0  0  0
   48.0840   30.2760   44.9090 C   0  0  0  0  0  0  0  0  0  0  0  0
   47.3110   31.3560   45.1660 C   0  0  0  0  0  0  0  0  0  0  0  0
   46.7320   31.6250   46.3310 C   0  0  0  0  0  0  0  0  0  0  0  0
   44.4670   35.7160   45.1070 C   0  0  0  0  0  0  0  0  0  0  0  0
   45.1030   35.8340   43.8370 C   0  0  0  0  0  0  0  0  0  0  0  0
   46.0640   34.8620   43.4400 C   0  0  0  0  0  0  0  0  0  0  0  0
   46.3090   33.8780   44.3150 N   0  0  0  0  0  0  0  0  0  0  0  0
   45.7420   33.7560   45.4750 C   0  0  0  0  0  0  0  0  0  0  0  0
   44.8200   34.6840   45.8570 N   0  0  0  0  0  0  0  0  0  0  0  0
   44.7070   36.9510   43.0670 N   0  0  0  0  0  0  0  0  0  0  0  0
   47.2450   32.0910   44.0050 O   0  0  0  0  0  0  0  0  0  0  0  0
   48.1370   30.4180   40.8440 N   0  0  0  0  0  0  0  0  0  0  0  0
   47.5170   30.7180   41.9910 C   0  0  0  0  0  0  0  0  0  0  0  0
   47.8720   31.7620   42.8080 C   0  0  0  0  0  0  0  0  0  0  0  0
   48.9630   32.4930   42.3170 C   0  0  0  0  0  0  0  0  0  0  0  0
   49.4270   33.4940   42.9520 O   0  0  0  0  0  0  0  0  0  0  0  0
   49.6010   32.2170   41.1780 N   0  0  0  0  0  0  0  0  0  0  0  0
   49.1740   31.1770   40.4540 C   0  0  0  0  0  0  0  0  0  0  0  0
   49.7780   30.9120   39.3690 O   0  0  0  0  0  0  0  0  0  0  0  0
   44.7911   33.7499   48.0067 H   0  0  0  0  0  0  0  0  0  0  0  0
   45.1845   32.1241   49.7802 H   0  0  0  0  0  0  0  0  0  0  0  0
   46.5836   30.1488   49.3732 H   0  0  0  0  0  0  0  0  0  0  0  0
   47.8870   28.8955   47.9408 H   0  0  0  0  0  0  0  0  0  0  0  0
   48.9355   28.4671   45.7342 H   0  0  0  0  0  0  0  0  0  0  0  0
   48.5253   30.1345   43.9114 H   0  0  0  0  0  0  0  0  0  0  0  0
   43.7190   36.4471   45.4474 H   0  0  0  0  0  0  0  0  0  0  0  0
   46.5770   34.9160   42.4685 H   0  0  0  0  0  0  0  0  0  0  0  0
   45.1203   37.1078   42.1367 H   0  0  0  0  0  0  0  0  0  0  0  0
   44.0051   37.6083   43.4362 H   0  0  0  0  0  0  0  0  0  0  0  0
   47.8251   29.6207   40.2714 H   0  0  0  0  0  0  0  0  0  0  0  0
   46.6693   30.0881   42.2986 H   0  0  0  0  0  0  0  0  0  0  0  0
   50.3991   32.7883   40.8656 H   0  0  0  0  0  0  0  0  0  0  0  0
  1  2  2  0
  2  3  1  0
  4  3  2  0
  5  4  1  0
  6  5  2  0
  7  6  1  0
  8  9  1  0
  8  7  2  0
  9 10  2  0
 10  1  1  0
 10  5  1  0
 11 16  2  0
 12 11  1  0
 13 12  2  0
 13 14  1  0
 14 15  2  0
 15 16  1  0
 15  1  1  0
 17 12  1  0
 18  9  1  0
 19 20  1  0
 20 21  2  0
 21 18  1  0
 22 21  1  0
 22 23  2  0
 24 22  1  0
 25 19  1  0
 25 24  1  0
 26 25  2  0
  2 27  1  0
  3 28  1  0
  4 29  1  0
  6 30  1  0
  7 31  1  0
  8 32  1  0
 11 33  1  0
 13 34  1  0
 17 35  1  0
 17 36  1  0
 19 37  1  0
 20 38  1  0
 24 39  1  0
M  ISO  8  27  14  28  14  29  14  30  14  31  14  32  14  33  14  34  14
M  ISO  3  37   9  38  14  39   9
M  END
>  <minimizedAffinity>  (1) 
-6.12577486

>  <minimizedRMSD>  (1) 
0.527892113

$$$$
