
     RDKit          3D

 39 42  0  0  0  0  0  0  0  0999 V2000
   45.9700   32.7600   46.4000 C   0  0  0  0  0  0  0  0  0  0  0  0
   45.4280   32.8730   47.7070 C   0  0  0  0  0  0  0  0  0  0  0  0
   45.6430   31.9470   48.6970 C   0  0  0  0  0  0  0  0  0  0  0  0
   46.3970   30.8610   48.4690 C   0  0  0  0  0  0  0  0  0  0  0  0
   46.9560   30.6890   47.2110 C   0  0  0  0  0  0  0  0  0  0  0  0
   47.7190   29.5770   47.0010 C   0  0  0  0  0  0  0  0  0  0  0  0
   48.2900   29.3590   45.7810 C   0  0  0  0  0  0  0  0  0  0  0  0
   48.0620   30.3040   44.7870 C   0  0  0  0  0  0  0  0  0  0  0  0
   47.2970   31.3750   45.0690 C   0  0  0  0  0  0  0  0  0  0  0  0
   46.7210   31.6370   46.2380 C   0  0  0  0  0  0  0  0  0  0  0  0
   44.4770   35.7510   45.0710 C   0  0  0  0  0  0  0  0  0  0  0  0
   45.1050   35.8650   43.7930 C   0  0  0  0  0  0  0  0  0  0  0  0
   46.0570   34.8930   43.3720 C   0  0  0  0  0  0  0  0  0  0  0  0
   46.3110   33.8970   44.2350 N   0  0  0  0  0  0  0  0  0  0  0  0
   45.7500   33.7750   45.4050 C   0  0  0  0  0  0  0  0  0  0  0  0
   44.8360   34.7070   45.8060 N   0  0  0  0  0  0  0  0  0  0  0  0
   44.7130   36.9910   43.0080 N   0  0  0  0  0  0  0  0  0  0  0  0
   47.2370   32.1120   43.9290 O   0  0  0  0  0  0  0  0  0  0  0  0
   46.3160   30.3690   41.5980 Cl  0  0  0  0  0  0  0  0  0  0  0  0
   47.8630   31.2260   41.7320 C   0  0  0  0  0  0  0  0  0  0  0  0
   48.1320   31.9980   42.8730 C   0  0  0  0  0  0  0  0  0  0  0  0
   49.3540   32.6260   42.8400 C   0  0  0  0  0  0  0  0  0  0  0  0
   50.2460   32.5150   41.7820 C   0  0  0  0  0  0  0  0  0  0  0  0
   49.9060   31.7380   40.7020 C   0  0  0  0  0  0  0  0  0  0  0  0
   48.6970   31.0790   40.6690 C   0  0  0  0  0  0  0  0  0  0  0  0
   44.8032   33.7482   47.9385 H   0  0  0  0  0  0  0  0  0  0  0  0
   45.1918   32.0970   49.6889 H   0  0  0  0  0  0  0  0  0  0  0  0
   46.5687   30.1209   49.2645 H   0  0  0  0  0  0  0  0  0  0  0  0
   47.8739   28.8553   47.8166 H   0  0  0  0  0  0  0  0  0  0  0  0
   48.9076   28.4688   45.5910 H   0  0  0  0  0  0  0  0  0  0  0  0
   48.4999   30.1784   43.7858 H   0  0  0  0  0  0  0  0  0  0  0  0
   43.7390   36.4860   45.4247 H   0  0  0  0  0  0  0  0  0  0  0  0
   46.5564   34.9551   42.3939 H   0  0  0  0  0  0  0  0  0  0  0  0
   45.1250   37.1371   42.0753 H   0  0  0  0  0  0  0  0  0  0  0  0
   44.0182   37.6573   43.3742 H   0  0  0  0  0  0  0  0  0  0  0  0
   49.6410   33.2507   43.6987 H   0  0  0  0  0  0  0  0  0  0  0  0
   51.2112   33.0419   41.8084 H   0  0  0  0  0  0  0  0  0  0  0  0
   50.6040   31.6412   39.8574 H   0  0  0  0  0  0  0  0  0  0  0  0
   48.4153   30.4533   39.8092 H   0  0  0  0  0  0  0  0  0  0  0  0
  1  2  2  0
  2  3  1  0
  4  3  2  0
  5  4  1  0
  6  5  2  0
  7  6  1  0
  8  9  1  0
  8  7  2  0
  9 10  2  0
 10  1  1  0
 10  5  1  0
 11 16  2  0
 12 11  1  0
 13 12  2  0
 13 14  1  0
 14 15  2  0
 15 16  1  0
 15  1  1  0
 17 12  1  0
 18  9  1  0
 19 20  1  0
 20 21  2  0
 21 18  1  0
 22 21  1  0
 23 22  2  0
 24 23  1  0
 25 24  2  0
 25 20  1  0
  2 26  1  0
  3 27  1  0
  4 28  1  0
  6 29  1  0
  7 30  1  0
  8 31  1  0
 11 32  1  0
 13 33  1  0
 17 34  1  0
 17 35  1  0
 22 36  1  0
 23 37  1  0
 24 38  1  0
 25 39  1  0
M  ISO  8  26  14  27  14  28  14  29  14  30  14  31  14  32  14  33  14
M  ISO  4  36  14  37  14  38  14  39  14
M  END
>  <minimizedAffinity>  (1) 
-6.0100646

>  <minimizedRMSD>  (1) 
0.926154375

$$$$
