
     RDKit          3D

 45 48  0  0  0  0  0  0  0  0999 V2000
   46.0190   32.6900   46.6960 C   0  0  0  0  0  0  0  0  0  0  0  0
   45.5060   32.9180   48.0000 C   0  0  0  0  0  0  0  0  0  0  0  0
   45.7020   32.0630   49.0550 C   0  0  0  0  0  0  0  0  0  0  0  0
   46.4120   30.9350   48.8910 C   0  0  0  0  0  0  0  0  0  0  0  0
   46.9370   30.6560   47.6470 C   0  0  0  0  0  0  0  0  0  0  0  0
   47.6570   29.4970   47.5110 C   0  0  0  0  0  0  0  0  0  0  0  0
   48.2000   29.1730   46.2940 C   0  0  0  0  0  0  0  0  0  0  0  0
   47.9870   30.0500   45.2340 C   0  0  0  0  0  0  0  0  0  0  0  0
   47.2720   31.1650   45.4370 C   0  0  0  0  0  0  0  0  0  0  0  0
   46.7290   31.5260   46.5970 C   0  0  0  0  0  0  0  0  0  0  0  0
   44.4810   35.5090   45.0800 C   0  0  0  0  0  0  0  0  0  0  0  0
   45.2410   35.6310   43.8770 C   0  0  0  0  0  0  0  0  0  0  0  0
   46.2970   34.7140   43.6130 C   0  0  0  0  0  0  0  0  0  0  0  0
   46.5200   33.7670   44.5310 N   0  0  0  0  0  0  0  0  0  0  0  0
   45.8320   33.6470   45.6340 C   0  0  0  0  0  0  0  0  0  0  0  0
   44.8180   34.5220   45.8950 N   0  0  0  0  0  0  0  0  0  0  0  0
   44.8560   36.7030   43.0320 N   0  0  0  0  0  0  0  0  0  0  0  0
   47.2180   31.8080   44.2550 O   0  0  0  0  0  0  0  0  0  0  0  0
   47.8120   31.4540   43.0530 C   0  0  0  0  0  0  0  0  0  0  0  0
   46.7850   31.5170   41.8930 C   0  0  0  0  0  0  0  0  0  0  0  0
   47.4060   30.6900   40.7890 C   0  0  0  0  0  0  0  0  0  0  0  0
   48.6940   31.2970   40.3440 C   0  0  0  0  0  0  0  0  0  0  0  0
   48.9540   32.5790   41.1040 C   0  0  0  0  0  0  0  0  0  0  0  0
   48.9130   32.3830   42.6030 C   0  0  0  0  0  0  0  0  0  0  0  0
   44.9184   33.8314   48.1743 H   0  0  0  0  0  0  0  0  0  0  0  0
   45.2754   32.3027   50.0402 H   0  0  0  0  0  0  0  0  0  0  0  0
   46.5718   30.2463   49.7337 H   0  0  0  0  0  0  0  0  0  0  0  0
   47.7985   28.8300   48.3742 H   0  0  0  0  0  0  0  0  0  0  0  0
   48.7844   28.2508   46.1599 H   0  0  0  0  0  0  0  0  0  0  0  0
   48.4017   29.8298   44.2393 H   0  0  0  0  0  0  0  0  0  0  0  0
   43.6582   36.1995   45.3170 H   0  0  0  0  0  0  0  0  0  0  0  0
   46.9017   34.7809   42.6966 H   0  0  0  0  0  0  0  0  0  0  0  0
   45.3525   36.8625   42.1438 H   0  0  0  0  0  0  0  0  0  0  0  0
   44.0799   37.3220   43.3066 H   0  0  0  0  0  0  0  0  0  0  0  0
   48.2106   30.4481   43.2511 H   0  0  0  0  0  0  0  0  0  0  0  0
   45.8209   31.0883   42.2041 H   0  0  0  0  0  0  0  0  0  0  0  0
   46.5775   32.5493   41.5749 H   0  0  0  0  0  0  0  0  0  0  0  0
   47.5948   29.6723   41.1613 H   0  0  0  0  0  0  0  0  0  0  0  0
   46.7134   30.6585   39.9350 H   0  0  0  0  0  0  0  0  0  0  0  0
   49.5144   30.5891   40.5331 H   0  0  0  0  0  0  0  0  0  0  0  0
   48.6340   31.5215   39.2688 H   0  0  0  0  0  0  0  0  0  0  0  0
   49.9479   32.9589   40.8251 H   0  0  0  0  0  0  0  0  0  0  0  0
   48.1591   33.2916   40.8386 H   0  0  0  0  0  0  0  0  0  0  0  0
   49.8773   31.9645   42.9270 H   0  0  0  0  0  0  0  0  0  0  0  0
   48.7153   33.3661   43.0551 H   0  0  0  0  0  0  0  0  0  0  0  0
  1  2  2  0
  2  3  1  0
  4  3  2  0
  5  4  1  0
  6  5  2  0
  7  6  1  0
  8  9  1  0
  8  7  2  0
  9 10  2  0
 10  1  1  0
 10  5  1  0
 11 16  2  0
 12 11  1  0
 13 12  2  0
 13 14  1  0
 14 15  2  0
 15 16  1  0
 15  1  1  0
 17 12  1  0
 18  9  1  0
 19 18  1  0
 20 19  1  0
 21 20  1  0
 22 21  1  0
 22 23  1  0
 23 24  1  0
 24 19  1  0
  2 25  1  0
  3 26  1  0
  4 27  1  0
  6 28  1  0
  7 29  1  0
  8 30  1  0
 11 31  1  0
 13 32  1  0
 17 33  1  0
 17 34  1  0
 19 35  1  0
 20 36  1  0
 20 37  1  0
 21 38  1  0
 21 39  1  0
 22 40  1  0
 22 41  1  0
 23 42  1  0
 23 43  1  0
 24 44  1  0
 24 45  1  0
M  ISO  8  25  14  26  14  27  14  28  14  29  14  30  14  31  14  32  14
M  ISO  8  35  13  36  13  37  13  38  13  39  13  40  13  41  13  42  13
M  ISO  3  43  13  44  13  45  13
M  END
>  <minimizedAffinity>  (1) 
-5.78025961

>  <minimizedRMSD>  (1) 
0.457120329

$$$$
