
     RDKit          3D

 20 21  0  0  0  0  0  0  0  0999 V2000
   44.4690   35.9670   44.7890 C   0  0  0  0  0  0  0  0  0  0  0  0
   45.1630   35.8880   43.5730 C   0  0  0  0  0  0  0  0  0  0  0  0
   46.0640   34.8560   43.3170 C   0  0  0  0  0  0  0  0  0  0  0  0
   46.2240   33.9460   44.3100 N   0  0  0  0  0  0  0  0  0  0  0  0
   45.5540   34.0300   45.4720 C   0  0  0  0  0  0  0  0  0  0  0  0
   44.6840   35.0270   45.7160 N   0  0  0  0  0  0  0  0  0  0  0  0
   44.7350   33.1910   41.2260 Cl  0  0  0  0  0  0  0  0  0  0  0  0
   46.2690   34.0080   41.0550 C   0  0  0  0  0  0  0  0  0  0  0  0
   46.8000   34.7470   42.0650 C   0  0  0  0  0  0  0  0  0  0  0  0
   48.0150   35.3440   41.8130 C   0  0  0  0  0  0  0  0  0  0  0  0
   48.6710   35.2170   40.6280 C   0  0  0  0  0  0  0  0  0  0  0  0
   48.1310   34.4700   39.6130 C   0  0  0  0  0  0  0  0  0  0  0  0
   46.9160   33.8640   39.8440 C   0  0  0  0  0  0  0  0  0  0  0  0
   43.7606   36.7872   44.9771 H   0  0  0  0  0  0  0  0  0  0  0  0
   44.9926   36.6568   42.8050 H   0  0  0  0  0  0  0  0  0  0  0  0
   45.7212   33.2639   46.2435 H   0  0  0  0  0  0  0  0  0  0  0  0
   48.4761   35.9512   42.6059 H   0  0  0  0  0  0  0  0  0  0  0  0
   49.6403   35.7165   40.4833 H   0  0  0  0  0  0  0  0  0  0  0  0
   48.6493   34.3587   38.6492 H   0  0  0  0  0  0  0  0  0  0  0  0
   46.4543   33.2563   39.0519 H   0  0  0  0  0  0  0  0  0  0  0  0
  1  6  2  0
  2  1  1  0
  3  2  2  0
  3  4  1  0
  4  5  2  0
  5  6  1  0
  8  7  1  0
  8  9  2  0
  9  3  1  0
 10  9  1  0
 11 10  2  0
 12 13  2  0
 12 11  1  0
 13  8  1  0
  1 14  1  0
  2 15  1  0
  5 16  1  0
 10 17  1  0
 11 18  1  0
 12 19  1  0
 13 20  1  0
M  ISO  7  14  14  15  14  16  14  17  14  18  14  19  14  20  14
M  END
>  <minimizedAffinity>  (1) 
-5.05249643

>  <minimizedRMSD>  (1) 
0.831715107

$$$$
