
     RDKit          3D

 31 34  0  0  0  0  0  0  0  0999 V2000
   44.8340   33.3360   41.1490 Cl  0  0  0  0  0  0  0  0  0  0  0  0
   46.3710   34.1360   41.0490 C   0  0  0  0  0  0  0  0  0  0  0  0
   46.8820   34.8110   42.1080 C   0  0  0  0  0  0  0  0  0  0  0  0
   48.1130   35.4120   41.9200 C   0  0  0  0  0  0  0  0  0  0  0  0
   48.7960   35.3460   40.7430 C   0  0  0  0  0  0  0  0  0  0  0  0
   48.2760   34.6660   39.6840 C   0  0  0  0  0  0  0  0  0  0  0  0
   47.0480   34.0570   39.8460 C   0  0  0  0  0  0  0  0  0  0  0  0
   46.5390   33.3570   38.7120 N   0  0  0  0  0  0  0  0  0  0  0  0
   45.2910   32.8470   38.7380 C   0  0  0  0  0  0  0  0  0  0  0  0
   44.9980   32.2250   37.5770 N   0  0  0  0  0  0  0  0  0  0  0  0
   46.0800   32.3340   36.7820 C   0  0  0  0  0  0  0  0  0  0  0  0
   46.4130   31.9230   35.5010 C   0  0  0  0  0  0  0  0  0  0  0  0
   47.6430   32.2190   35.0000 N   0  0  0  0  0  0  0  0  0  0  0  0
   48.5240   32.9180   35.7680 C   0  0  0  0  0  0  0  0  0  0  0  0
   48.2480   33.3470   37.0330 N   0  0  0  0  0  0  0  0  0  0  0  0
   47.0260   33.0370   37.4990 C   0  0  0  0  0  0  0  0  0  0  0  0
   44.4800   35.9030   44.8240 C   0  0  0  0  0  0  0  0  0  0  0  0
   45.1990   35.8740   43.6180 C   0  0  0  0  0  0  0  0  0  0  0  0
   46.1290   34.8610   43.3450 C   0  0  0  0  0  0  0  0  0  0  0  0
   46.2720   33.9400   44.3130 N   0  0  0  0  0  0  0  0  0  0  0  0
   45.5840   33.9710   45.4630 C   0  0  0  0  0  0  0  0  0  0  0  0
   44.6880   34.9490   45.7240 N   0  0  0  0  0  0  0  0  0  0  0  0
   48.5604   35.9677   42.7573 H   0  0  0  0  0  0  0  0  0  0  0  0
   49.7720   35.8443   40.6477 H   0  0  0  0  0  0  0  0  0  0  0  0
   48.8179   34.6039   38.7288 H   0  0  0  0  0  0  0  0  0  0  0  0
   44.6030   32.9274   39.5925 H   0  0  0  0  0  0  0  0  0  0  0  0
   45.6880   31.3614   34.8935 H   0  0  0  0  0  0  0  0  0  0  0  0
   49.5126   33.1494   35.3449 H   0  0  0  0  0  0  0  0  0  0  0  0
   43.7539   36.7056   45.0206 H   0  0  0  0  0  0  0  0  0  0  0  0
   45.0288   36.6634   42.8711 H   0  0  0  0  0  0  0  0  0  0  0  0
   45.7523   33.1826   46.2114 H   0  0  0  0  0  0  0  0  0  0  0  0
  2  1  1  0
  2  3  2  0
  3 19  1  0
  4  3  1  0
  5  4  2  0
  6  7  2  0
  6  5  1  0
  7  2  1  0
  8  9  1  0
  8  7  1  0
 10  9  2  0
 11 16  2  0
 11 10  1  0
 12 11  1  0
 13 12  2  0
 13 14  1  0
 14 15  2  0
 15 16  1  0
 16  8  1  0
 17 22  2  0
 18 17  1  0
 19 18  2  0
 19 20  1  0
 20 21  2  0
 21 22  1  0
  4 23  1  0
  5 24  1  0
  6 25  1  0
  9 26  1  0
 12 27  1  0
 14 28  1  0
 17 29  1  0
 18 30  1  0
 21 31  1  0
M  ISO  8  23  14  24  14  25  14  26  14  27  14  28  14  29  14  30  14
M  ISO  1  31  14
M  END
>  <minimizedAffinity>  (1) 
-6.33639669

>  <minimizedRMSD>  (1) 
0.417900413

$$$$
