
     RDKit          3D

 30 32  0  0  0  0  0  0  0  0999 V2000
   44.9540   33.0090   41.1510 Cl  0  0  0  0  0  0  0  0  0  0  0  0
   46.4430   33.9000   40.9620 C   0  0  0  0  0  0  0  0  0  0  0  0
   46.8870   34.7390   41.9220 C   0  0  0  0  0  0  0  0  0  0  0  0
   48.0750   35.3950   41.6730 C   0  0  0  0  0  0  0  0  0  0  0  0
   48.7880   35.2270   40.5210 C   0  0  0  0  0  0  0  0  0  0  0  0
   48.3240   34.3690   39.5480 C   0  0  0  0  0  0  0  0  0  0  0  0
   47.1350   33.7050   39.7870 C   0  0  0  0  0  0  0  0  0  0  0  0
   44.4750   36.0670   44.5210 C   0  0  0  0  0  0  0  0  0  0  0  0
   45.2120   35.9270   43.3400 C   0  0  0  0  0  0  0  0  0  0  0  0
   46.1150   34.9000   43.1350 C   0  0  0  0  0  0  0  0  0  0  0  0
   46.2380   34.0220   44.1730 N   0  0  0  0  0  0  0  0  0  0  0  0
   45.5250   34.1620   45.3080 C   0  0  0  0  0  0  0  0  0  0  0  0
   44.6470   35.1730   45.4910 N   0  0  0  0  0  0  0  0  0  0  0  0
   47.2830   34.6160   37.2190 F   0  0  0  0  0  0  0  0  0  0  0  0
   46.8060   33.3530   37.4510 C   0  0  0  0  0  0  0  0  0  0  0  0
   46.6970   32.8120   38.7190 C   0  0  0  0  0  0  0  0  0  0  0  0
   46.2030   31.5290   38.8350 C   0  0  0  0  0  0  0  0  0  0  0  0
   45.8360   30.8300   37.7030 C   0  0  0  0  0  0  0  0  0  0  0  0
   45.9560   31.4000   36.4340 C   0  0  0  0  0  0  0  0  0  0  0  0
   46.4490   32.6860   36.2810 C   0  0  0  0  0  0  0  0  0  0  0  0
   48.4650   36.0840   42.4367 H   0  0  0  0  0  0  0  0  0  0  0  0
   49.7299   35.7749   40.3701 H   0  0  0  0  0  0  0  0  0  0  0  0
   48.8812   34.2172   38.6118 H   0  0  0  0  0  0  0  0  0  0  0  0
   43.7673   36.8999   44.6450 H   0  0  0  0  0  0  0  0  0  0  0  0
   45.0667   36.6668   42.5390 H   0  0  0  0  0  0  0  0  0  0  0  0
   45.6626   33.4268   46.1146 H   0  0  0  0  0  0  0  0  0  0  0  0
   46.1019   31.0645   39.8270 H   0  0  0  0  0  0  0  0  0  0  0  0
   45.4427   29.8075   37.8020 H   0  0  0  0  0  0  0  0  0  0  0  0
   45.6562   30.8225   35.5470 H   0  0  0  0  0  0  0  0  0  0  0  0
   46.5527   33.1541   35.2910 H   0  0  0  0  0  0  0  0  0  0  0  0
  2  1  1  0
  2  3  2  0
  3 10  1  0
  4  3  1  0
  5  4  2  0
  6  7  2  0
  6  5  1  0
  7  2  1  0
  8 13  2  0
  9  8  1  0
 10  9  2  0
 10 11  1  0
 11 12  2  0
 12 13  1  0
 14 15  1  0
 15 16  2  0
 16 17  1  0
 16  7  1  0
 18 17  2  0
 19 18  1  0
 20 19  2  0
 20 15  1  0
  4 21  1  0
  5 22  1  0
  6 23  1  0
  8 24  1  0
  9 25  1  0
 12 26  1  0
 17 27  1  0
 18 28  1  0
 19 29  1  0
 20 30  1  0
M  ISO  8  21  14  22  14  23  14  24  14  25  14  26  14  27  14  28  14
M  ISO  2  29  14  30  14
M  END
>  <minimizedAffinity>  (1) 
-5.71455908

>  <minimizedRMSD>  (1) 
0.361353904

$$$$
