
     RDKit          3D

 35 37  0  0  0  0  0  0  0  0999 V2000
   44.7670   33.0480   41.2000 Cl  0  0  0  0  0  0  0  0  0  0  0  0
   46.2720   33.8920   40.9630 C   0  0  0  0  0  0  0  0  0  0  0  0
   46.7930   34.6980   41.9210 C   0  0  0  0  0  0  0  0  0  0  0  0
   47.9890   35.3210   41.6340 C   0  0  0  0  0  0  0  0  0  0  0  0
   48.6430   35.1600   40.4610 C   0  0  0  0  0  0  0  0  0  0  0  0
   48.1120   34.3400   39.4860 C   0  0  0  0  0  0  0  0  0  0  0  0
   46.9090   33.7060   39.7580 C   0  0  0  0  0  0  0  0  0  0  0  0
   44.4960   36.0230   44.6350 C   0  0  0  0  0  0  0  0  0  0  0  0
   45.1840   35.8920   43.4240 C   0  0  0  0  0  0  0  0  0  0  0  0
   46.0670   34.8520   43.1740 C   0  0  0  0  0  0  0  0  0  0  0  0
   46.2130   33.9630   44.1960 N   0  0  0  0  0  0  0  0  0  0  0  0
   45.5530   34.0840   45.3600 C   0  0  0  0  0  0  0  0  0  0  0  0
   44.7070   35.0960   45.5830 N   0  0  0  0  0  0  0  0  0  0  0  0
   46.4260   32.8810   38.7120 N   0  0  0  0  0  0  0  0  0  0  0  0
   45.4550   33.3070   37.7400 C   0  0  0  0  0  0  0  0  0  0  0  0
   45.5310   32.6570   36.4140 C   0  0  0  0  0  0  0  0  0  0  0  0
   46.8090   31.9820   36.0560 C   0  0  0  0  0  0  0  0  0  0  0  0
   47.5820   31.4330   37.2120 C   0  0  0  0  0  0  0  0  0  0  0  0
   46.8730   31.5190   38.5250 C   0  0  0  0  0  0  0  0  0  0  0  0
   48.4323   35.9801   42.3949 H   0  0  0  0  0  0  0  0  0  0  0  0
   49.5955   35.6812   40.2846 H   0  0  0  0  0  0  0  0  0  0  0  0
   48.6262   34.1941   38.5246 H   0  0  0  0  0  0  0  0  0  0  0  0
   43.8031   36.8602   44.8054 H   0  0  0  0  0  0  0  0  0  0  0  0
   45.0180   36.6440   42.6385 H   0  0  0  0  0  0  0  0  0  0  0  0
   45.7120   33.3333   46.1481 H   0  0  0  0  0  0  0  0  0  0  0  0
   44.4556   33.1084   38.1545 H   0  0  0  0  0  0  0  0  0  0  0  0
   45.6665   34.3712   37.5591 H   0  0  0  0  0  0  0  0  0  0  0  0
   44.7342   31.8998   36.3712 H   0  0  0  0  0  0  0  0  0  0  0  0
   45.4342   33.4799   35.6905 H   0  0  0  0  0  0  0  0  0  0  0  0
   46.5758   31.1495   35.3759 H   0  0  0  0  0  0  0  0  0  0  0  0
   47.4462   32.7544   35.6007 H   0  0  0  0  0  0  0  0  0  0  0  0
   47.8010   30.3745   37.0079 H   0  0  0  0  0  0  0  0  0  0  0  0
   48.4891   32.0484   37.3039 H   0  0  0  0  0  0  0  0  0  0  0  0
   46.0074   30.8402   38.5253 H   0  0  0  0  0  0  0  0  0  0  0  0
   47.5506   31.2274   39.3410 H   0  0  0  0  0  0  0  0  0  0  0  0
  2  1  1  0
  2  3  2  0
  3 10  1  0
  4  3  1  0
  5  4  2  0
  6  7  2  0
  6  5  1  0
  7  2  1  0
  8 13  2  0
  9  8  1  0
 10  9  2  0
 10 11  1  0
 11 12  2  0
 12 13  1  0
 14  7  1  0
 15 14  1  0
 16 15  1  0
 17 16  1  0
 17 18  1  0
 18 19  1  0
 19 14  1  0
  4 20  1  0
  5 21  1  0
  6 22  1  0
  8 23  1  0
  9 24  1  0
 12 25  1  0
 15 26  1  0
 15 27  1  0
 16 28  1  0
 16 29  1  0
 17 30  1  0
 17 31  1  0
 18 32  1  0
 18 33  1  0
 19 34  1  0
 19 35  1  0
M  ISO  8  20  14  21  14  22  14  23  14  24  14  25  14  26  13  27  13
M  ISO  8  28  13  29  13  30  13  31  13  32  13  33  13  34  13  35  13
M  END
>  <minimizedAffinity>  (1) 
-5.49958801

>  <minimizedRMSD>  (1) 
0.919816017

$$$$
