
     RDKit          3D

 27 29  0  0  0  0  0  0  0  0999 V2000
   44.8220   33.0660   41.2130 Cl  0  0  0  0  0  0  0  0  0  0  0  0
   46.3170   33.9300   41.0060 C   0  0  0  0  0  0  0  0  0  0  0  0
   46.8190   34.7170   41.9920 C   0  0  0  0  0  0  0  0  0  0  0  0
   48.0150   35.3630   41.7280 C   0  0  0  0  0  0  0  0  0  0  0  0
   48.6760   35.2340   40.5550 C   0  0  0  0  0  0  0  0  0  0  0  0
   48.1710   34.4420   39.5640 C   0  0  0  0  0  0  0  0  0  0  0  0
   46.9880   33.7940   39.8030 C   0  0  0  0  0  0  0  0  0  0  0  0
   44.4780   35.9600   44.6950 C   0  0  0  0  0  0  0  0  0  0  0  0
   45.1790   35.8570   43.4880 C   0  0  0  0  0  0  0  0  0  0  0  0
   46.0830   34.8360   43.2440 C   0  0  0  0  0  0  0  0  0  0  0  0
   46.2470   33.9430   44.2480 N   0  0  0  0  0  0  0  0  0  0  0  0
   45.5730   34.0430   45.4110 C   0  0  0  0  0  0  0  0  0  0  0  0
   44.7010   35.0320   45.6380 N   0  0  0  0  0  0  0  0  0  0  0  0
   46.4220   32.9370   38.7590 C   0  0  0  0  0  0  0  0  0  0  0  0
   46.6990   31.6170   38.5320 C   0  0  0  0  0  0  0  0  0  0  0  0
   45.9470   31.2050   37.4520 C   0  0  0  0  0  0  0  0  0  0  0  0
   45.2430   32.2520   37.0460 N   0  0  0  0  0  0  0  0  0  0  0  0
   45.5100   33.3100   37.8160 N   0  0  0  0  0  0  0  0  0  0  0  0
   48.4465   36.0095   42.5064 H   0  0  0  0  0  0  0  0  0  0  0  0
   49.6242   35.7693   40.3988 H   0  0  0  0  0  0  0  0  0  0  0  0
   48.6971   34.3280   38.6047 H   0  0  0  0  0  0  0  0  0  0  0  0
   43.7640   36.7791   44.8658 H   0  0  0  0  0  0  0  0  0  0  0  0
   45.0064   36.6121   42.7069 H   0  0  0  0  0  0  0  0  0  0  0  0
   45.7446   33.2908   46.1950 H   0  0  0  0  0  0  0  0  0  0  0  0
   47.3982   30.9940   39.1091 H   0  0  0  0  0  0  0  0  0  0  0  0
   45.9339   30.1975   37.0107 H   0  0  0  0  0  0  0  0  0  0  0  0
   44.5861   32.2500   36.2527 H   0  0  0  0  0  0  0  0  0  0  0  0
  2  1  1  0
  2  3  2  0
  3 10  1  0
  4  3  1  0
  5  4  2  0
  6  7  2  0
  6  5  1  0
  7  2  1  0
  8 13  2  0
  9  8  1  0
 10  9  2  0
 10 11  1  0
 11 12  2  0
 12 13  1  0
 14  7  1  0
 15 14  1  0
 16 15  2  0
 17 16  1  0
 17 18  1  0
 18 14  2  0
  4 19  1  0
  5 20  1  0
  6 21  1  0
  8 22  1  0
  9 23  1  0
 12 24  1  0
 15 25  1  0
 16 26  1  0
 17 27  1  0
M  ISO  8  19  14  20  14  21  14  22  14  23  14  24  14  25  14  26  14
M  ISO  1  27   9
M  END
>  <minimizedAffinity>  (1) 
-5.37414932

>  <minimizedRMSD>  (1) 
0.421886384

$$$$
