
     RDKit          3D

 21 22  0  0  0  0  0  0  0  0999 V2000
   44.7190   33.1940   41.2810 Cl  0  0  0  0  0  0  0  0  0  0  0  0
   46.2580   34.0080   41.1010 C   0  0  0  0  0  0  0  0  0  0  0  0
   46.7870   34.7490   42.1180 C   0  0  0  0  0  0  0  0  0  0  0  0
   47.9960   35.3370   41.8560 C   0  0  0  0  0  0  0  0  0  0  0  0
   48.6520   35.2130   40.6740 C   0  0  0  0  0  0  0  0  0  0  0  0
   48.1130   34.4710   39.6650 C   0  0  0  0  0  0  0  0  0  0  0  0
   46.8960   33.8630   39.8960 C   0  0  0  0  0  0  0  0  0  0  0  0
   44.4580   35.9490   44.8460 C   0  0  0  0  0  0  0  0  0  0  0  0
   45.1530   35.8760   43.6300 C   0  0  0  0  0  0  0  0  0  0  0  0
   46.0510   34.8550   43.3680 C   0  0  0  0  0  0  0  0  0  0  0  0
   46.2130   33.9360   44.3610 N   0  0  0  0  0  0  0  0  0  0  0  0
   45.5440   34.0120   45.5260 C   0  0  0  0  0  0  0  0  0  0  0  0
   44.6760   35.0090   45.7630 N   0  0  0  0  0  0  0  0  0  0  0  0
   46.2230   32.8960   38.5420 S   0  0  0  0  0  0  0  0  0  0  0  0
   48.4612   35.9433   42.6472 H   0  0  0  0  0  0  0  0  0  0  0  0
   49.6213   35.7126   40.5298 H   0  0  0  0  0  0  0  0  0  0  0  0
   48.6303   34.3609   38.7005 H   0  0  0  0  0  0  0  0  0  0  0  0
   43.7473   36.7663   45.0380 H   0  0  0  0  0  0  0  0  0  0  0  0
   44.9806   36.6484   42.8660 H   0  0  0  0  0  0  0  0  0  0  0  0
   45.7108   33.2451   46.2967 H   0  0  0  0  0  0  0  0  0  0  0  0
   45.4951   31.8502   39.0454 H   0  0  0  0  0  0  0  0  0  0  0  0
  2  1  1  0
  2  3  2  0
  3 10  1  0
  4  3  1  0
  5  4  2  0
  6  7  2  0
  6  5  1  0
  7  2  1  0
  8 13  2  0
  9  8  1  0
 10  9  2  0
 10 11  1  0
 11 12  2  0
 12 13  1  0
 14  7  1  0
  4 15  1  0
  5 16  1  0
  6 17  1  0
  8 18  1  0
  9 19  1  0
 12 20  1  0
 14 21  1  0
M  ISO  7  15  14  16  14  17  14  18  14  19  14  20  14  21  11
M  END
>  <minimizedAffinity>  (1) 
-5.14437056

>  <minimizedRMSD>  (1) 
0.0534930378

$$$$
