
     RDKit          3D

 33 36  0  0  0  0  0  0  0  0999 V2000
   45.0600   32.8560   41.2940 Cl  0  0  0  0  0  0  0  0  0  0  0  0
   46.4880   33.8380   41.0630 C   0  0  0  0  0  0  0  0  0  0  0  0
   46.8990   34.7370   41.9980 C   0  0  0  0  0  0  0  0  0  0  0  0
   48.0370   35.4460   41.6930 C   0  0  0  0  0  0  0  0  0  0  0  0
   48.7240   35.2840   40.5480 C   0  0  0  0  0  0  0  0  0  0  0  0
   48.3110   34.3840   39.6100 C   0  0  0  0  0  0  0  0  0  0  0  0
   47.1690   33.6490   39.8790 C   0  0  0  0  0  0  0  0  0  0  0  0
   44.4630   36.0080   44.6070 C   0  0  0  0  0  0  0  0  0  0  0  0
   45.2030   35.8860   43.4270 C   0  0  0  0  0  0  0  0  0  0  0  0
   46.1280   34.8740   43.2130 C   0  0  0  0  0  0  0  0  0  0  0  0
   46.2650   33.9960   44.2520 N   0  0  0  0  0  0  0  0  0  0  0  0
   45.5520   34.1170   45.3830 C   0  0  0  0  0  0  0  0  0  0  0  0
   44.6650   35.1070   45.5610 N   0  0  0  0  0  0  0  0  0  0  0  0
   46.6990   32.6610   38.8720 C   0  0  0  0  0  0  0  0  0  0  0  0
   46.7390   31.2700   39.1140 C   0  0  0  0  0  0  0  0  0  0  0  0
   46.0580   30.5650   37.5810 S   0  0  0  0  0  0  0  0  0  0  0  0
   45.8260   32.3110   36.8470 C   0  0  0  0  0  0  0  0  0  0  0  0
   46.2150   32.8940   37.7040 N   0  0  0  0  0  0  0  0  0  0  0  0
   45.2600   32.5610   35.4840 C   0  0  0  0  0  0  0  0  0  0  0  0
   46.0160   32.1060   34.2790 C   0  0  0  0  0  0  0  0  0  0  0  0
   44.7640   31.4030   34.6920 C   0  0  0  0  0  0  0  0  0  0  0  0
   48.4042   36.1830   42.4224 H   0  0  0  0  0  0  0  0  0  0  0  0
   49.6282   35.8835   40.3662 H   0  0  0  0  0  0  0  0  0  0  0  0
   48.8669   34.2467   38.6708 H   0  0  0  0  0  0  0  0  0  0  0  0
   43.7372   36.8237   44.7406 H   0  0  0  0  0  0  0  0  0  0  0  0
   45.0444   36.6276   42.6303 H   0  0  0  0  0  0  0  0  0  0  0  0
   45.6998   33.3820   46.1880 H   0  0  0  0  0  0  0  0  0  0  0  0
   47.0951   30.7417   40.0107 H   0  0  0  0  0  0  0  0  0  0  0  0
   44.8366   33.5214   35.8133 H   0  0  0  0  0  0  0  0  0  0  0  0
   46.9905   31.6092   34.3954 H   0  0  0  0  0  0  0  0  0  0  0  0
   46.3720   32.5857   33.3553 H   0  0  0  0  0  0  0  0  0  0  0  0
   43.8520   31.5024   34.0851 H   0  0  0  0  0  0  0  0  0  0  0  0
   44.4977   30.3609   34.9223 H   0  0  0  0  0  0  0  0  0  0  0  0
  2  1  1  0
  2  3  2  0
  3 10  1  0
  4  3  1  0
  5  4  2  0
  6  7  2  0
  6  5  1  0
  7  2  1  0
  8 13  2  0
  9  8  1  0
 10  9  2  0
 10 11  1  0
 11 12  2  0
 12 13  1  0
 14 15  2  0
 14  7  1  0
 16 15  1  0
 17 16  1  0
 17 18  2  0
 18 14  1  0
 19 17  1  0
 20 21  1  0
 20 19  1  0
 21 19  1  0
  4 22  1  0
  5 23  1  0
  6 24  1  0
  8 25  1  0
  9 26  1  0
 12 27  1  0
 15 28  1  0
 19 29  1  0
 20 30  1  0
 20 31  1  0
 21 32  1  0
 21 33  1  0
M  ISO  8  22  14  23  14  24  14  25  14  26  14  27  14  28  14  29  13
M  ISO  4  30  13  31  13  32  13  33  13
M  END
>  <minimizedAffinity>  (1) 
-5.50602007

>  <minimizedRMSD>  (1) 
0.610129774

$$$$
