
     RDKit          3D

 38 41  0  0  0  0  0  0  0  0999 V2000
   45.2910   32.5220   41.6370 Cl  0  0  0  0  0  0  0  0  0  0  0  0
   46.9540   33.0410   41.7760 C   0  0  0  0  0  0  0  0  0  0  0  0
   47.3690   33.9050   42.7410 C   0  0  0  0  0  0  0  0  0  0  0  0
   48.6980   34.2250   42.7320 C   0  0  0  0  0  0  0  0  0  0  0  0
   49.5770   33.7370   41.8410 C   0  0  0  0  0  0  0  0  0  0  0  0
   49.1680   32.8740   40.8770 C   0  0  0  0  0  0  0  0  0  0  0  0
   47.8180   32.5130   40.8400 C   0  0  0  0  0  0  0  0  0  0  0  0
   47.3540   31.5690   39.7910 C   0  0  0  0  0  0  0  0  0  0  0  0
   47.5130   30.1770   39.9250 C   0  0  0  0  0  0  0  0  0  0  0  0
   46.7830   29.5520   38.3810 S   0  0  0  0  0  0  0  0  0  0  0  0
   46.3770   31.3050   37.8050 C   0  0  0  0  0  0  0  0  0  0  0  0
   46.7770   31.8770   38.6790 N   0  0  0  0  0  0  0  0  0  0  0  0
   45.7200   31.4220   36.5080 N   0  0  0  0  0  0  0  0  0  0  0  0
   45.5440   32.5670   35.6750 C   0  0  0  0  0  0  0  0  0  0  0  0
   45.2610   31.9980   34.3160 C   0  0  0  0  0  0  0  0  0  0  0  0
   44.5840   30.6830   34.6350 C   0  0  0  0  0  0  0  0  0  0  0  0
   45.1620   30.2300   35.9730 C   0  0  0  0  0  0  0  0  0  0  0  0
   44.6510   35.9980   44.3580 C   0  0  0  0  0  0  0  0  0  0  0  0
   45.5970   35.5200   43.4420 C   0  0  0  0  0  0  0  0  0  0  0  0
   46.3870   34.4080   43.6800 C   0  0  0  0  0  0  0  0  0  0  0  0
   46.1750   33.8080   44.8820 N   0  0  0  0  0  0  0  0  0  0  0  0
   45.2650   34.2740   45.7540 C   0  0  0  0  0  0  0  0  0  0  0  0
   44.5160   35.3430   45.5060 N   0  0  0  0  0  0  0  0  0  0  0  0
   49.0688   34.9219   43.4981 H   0  0  0  0  0  0  0  0  0  0  0  0
   50.6336   34.0385   41.8931 H   0  0  0  0  0  0  0  0  0  0  0  0
   49.8805   32.4688   40.1434 H   0  0  0  0  0  0  0  0  0  0  0  0
   47.9642   29.6109   40.7532 H   0  0  0  0  0  0  0  0  0  0  0  0
   44.6986   33.1774   36.0254 H   0  0  0  0  0  0  0  0  0  0  0  0
   46.4232   33.2280   35.6786 H   0  0  0  0  0  0  0  0  0  0  0  0
   46.1919   31.8375   33.7524 H   0  0  0  0  0  0  0  0  0  0  0  0
   44.6489   32.6604   33.6863 H   0  0  0  0  0  0  0  0  0  0  0  0
   43.4958   30.8223   34.7156 H   0  0  0  0  0  0  0  0  0  0  0  0
   44.7582   29.9367   33.8459 H   0  0  0  0  0  0  0  0  0  0  0  0
   44.3729   29.8349   36.6297 H   0  0  0  0  0  0  0  0  0  0  0  0
   45.8972   29.4181   35.8717 H   0  0  0  0  0  0  0  0  0  0  0  0
   44.0407   36.8854   44.1344 H   0  0  0  0  0  0  0  0  0  0  0  0
   45.7180   36.0537   42.4878 H   0  0  0  0  0  0  0  0  0  0  0  0
   45.1349   33.7492   46.7119 H   0  0  0  0  0  0  0  0  0  0  0  0
  1  2  1  0
  2  3  2  0
  3 20  1  0
  4  3  1  0
  5  4  2  0
  6  5  1  0
  7  6  2  0
  7  2  1  0
  8  9  2  0
  8  7  1  0
 10  9  1  0
 11 10  1  0
 11 12  2  0
 12  8  1  0
 13 11  1  0
 14 13  1  0
 15 16  1  0
 15 14  1  0
 16 17  1  0
 17 13  1  0
 18 23  2  0
 19 20  2  0
 19 18  1  0
 20 21  1  0
 21 22  2  0
 23 22  1  0
  4 24  1  0
  5 25  1  0
  6 26  1  0
  9 27  1  0
 14 28  1  0
 14 29  1  0
 15 30  1  0
 15 31  1  0
 16 32  1  0
 16 33  1  0
 17 34  1  0
 17 35  1  0
 18 36  1  0
 19 37  1  0
 22 38  1  0
M  ISO  8  24  14  25  14  26  14  27  14  28  13  29  13  30  13  31  13
M  ISO  7  32  13  33  13  34  13  35  13  36  14  37  14  38  14
M  END
>  <minimizedAffinity>  (1) 
-5.01157856

>  <minimizedRMSD>  (1) 
1.74484777

$$$$
