
     RDKit          3D

 22 23  0  0  0  0  0  0  0  0999 V2000
   44.5190   35.8000   44.7090 C   0  0  0  0  0  0  0  0  0  0  0  0
   45.1670   35.7470   43.4520 C   0  0  0  0  0  0  0  0  0  0  0  0
   46.1130   34.7280   43.2970 C   0  0  0  0  0  0  0  0  0  0  0  0
   46.3550   33.8640   44.3290 N   0  0  0  0  0  0  0  0  0  0  0  0
   45.6890   33.9760   45.5160 C   0  0  0  0  0  0  0  0  0  0  0  0
   44.7820   34.9400   45.6900 N   0  0  0  0  0  0  0  0  0  0  0  0
   45.9950   33.0210   46.5800 C   0  0  0  0  0  0  0  0  0  0  0  0
   45.1660   32.9320   47.6690 C   0  0  0  0  0  0  0  0  0  0  0  0
   45.4880   32.0180   48.6520 C   0  0  0  0  0  0  0  0  0  0  0  0
   46.6140   31.2250   48.5260 C   0  0  0  0  0  0  0  0  0  0  0  0
   47.4420   31.3360   47.4040 C   0  0  0  0  0  0  0  0  0  0  0  0
   47.0850   32.2420   46.4750 N   0  0  0  0  0  0  0  0  0  0  0  0
   46.7820   34.6780   41.9940 C   0  0  0  0  0  0  0  0  0  0  0  0
   47.5700   33.5400   41.9240 F   0  0  0  0  0  0  0  0  0  0  0  0
   47.6890   35.7380   41.9900 F   0  0  0  0  0  0  0  0  0  0  0  0
   45.9390   34.7040   40.9360 F   0  0  0  0  0  0  0  0  0  0  0  0
   43.7672   36.5841   44.8823 H   0  0  0  0  0  0  0  0  0  0  0  0
   44.9411   36.4621   42.6473 H   0  0  0  0  0  0  0  0  0  0  0  0
   44.2732   33.5686   47.7563 H   0  0  0  0  0  0  0  0  0  0  0  0
   44.8459   31.9199   49.5398 H   0  0  0  0  0  0  0  0  0  0  0  0
   46.8609   30.5000   49.3156 H   0  0  0  0  0  0  0  0  0  0  0  0
   48.3411   30.7132   47.2867 H   0  0  0  0  0  0  0  0  0  0  0  0
  1  6  2  0
  2  1  1  0
  3  2  2  0
  3  4  1  0
  4  5  2  0
  5  6  1  0
  5  7  1  0
  7  8  2  0
  8  9  1  0
 10  9  2  0
 11 10  1  0
 12  7  1  0
 12 11  2  0
 13  3  1  0
 14 13  1  0
 15 13  1  0
 16 13  1  0
  1 17  1  0
  2 18  1  0
  8 19  1  0
  9 20  1  0
 10 21  1  0
 11 22  1  0
M  ISO  6  17  14  18  14  19  14  20  14  21  14  22  14
M  END
>  <minimizedAffinity>  (1) 
-5.47155762

>  <minimizedRMSD>  (1) 
0.400951236

$$$$
