
     RDKit          3D

 30 32  0  0  0  0  0  0  0  0999 V2000
   45.0540   33.0660   41.0720 Cl  0  0  0  0  0  0  0  0  0  0  0  0
   46.5270   33.9870   40.9330 C   0  0  0  0  0  0  0  0  0  0  0  0
   46.9730   34.8090   41.9360 C   0  0  0  0  0  0  0  0  0  0  0  0
   48.1420   35.4740   41.6970 C   0  0  0  0  0  0  0  0  0  0  0  0
   48.8430   35.3530   40.5520 C   0  0  0  0  0  0  0  0  0  0  0  0
   48.4050   34.5400   39.5560 C   0  0  0  0  0  0  0  0  0  0  0  0
   47.2220   33.8450   39.7570 C   0  0  0  0  0  0  0  0  0  0  0  0
   44.4710   35.9760   44.5350 C   0  0  0  0  0  0  0  0  0  0  0  0
   45.2290   35.9000   43.3690 C   0  0  0  0  0  0  0  0  0  0  0  0
   46.1760   34.9000   43.1480 C   0  0  0  0  0  0  0  0  0  0  0  0
   46.3100   34.0030   44.1520 N   0  0  0  0  0  0  0  0  0  0  0  0
   45.5760   34.0790   45.2780 C   0  0  0  0  0  0  0  0  0  0  0  0
   44.6690   35.0490   45.4700 N   0  0  0  0  0  0  0  0  0  0  0  0
   46.7280   32.9520   38.6790 C   0  0  0  0  0  0  0  0  0  0  0  0
   46.8260   31.5590   38.7320 C   0  0  0  0  0  0  0  0  0  0  0  0
   46.0710   31.0170   37.1730 S   0  0  0  0  0  0  0  0  0  0  0  0
   45.7250   32.8210   36.6690 C   0  0  0  0  0  0  0  0  0  0  0  0
   46.1500   33.3240   37.5670 N   0  0  0  0  0  0  0  0  0  0  0  0
   45.0960   33.2410   35.4610 N   0  0  0  0  0  0  0  0  0  0  0  0
   47.3830   30.7180   39.7540 N   0  0  0  0  0  0  0  0  0  0  0  0
   48.5313   36.1425   42.4790 H   0  0  0  0  0  0  0  0  0  0  0  0
   49.7781   35.9177   40.4231 H   0  0  0  0  0  0  0  0  0  0  0  0
   48.9713   34.4361   38.6187 H   0  0  0  0  0  0  0  0  0  0  0  0
   43.7314   36.7774   44.6790 H   0  0  0  0  0  0  0  0  0  0  0  0
   45.0743   36.6606   42.5896 H   0  0  0  0  0  0  0  0  0  0  0  0
   45.7242   33.3236   46.0638 H   0  0  0  0  0  0  0  0  0  0  0  0
   44.9521   34.2442   35.2771 H   0  0  0  0  0  0  0  0  0  0  0  0
   44.7854   32.5413   34.7719 H   0  0  0  0  0  0  0  0  0  0  0  0
   47.3773   29.6945   39.6385 H   0  0  0  0  0  0  0  0  0  0  0  0
   47.7882   31.1382   40.6026 H   0  0  0  0  0  0  0  0  0  0  0  0
  2  1  1  0
  2  3  2  0
  3 10  1  0
  4  3  1  0
  5  4  2  0
  6  7  2  0
  6  5  1  0
  7  2  1  0
  8 13  2  0
  9  8  1  0
 10  9  2  0
 10 11  1  0
 11 12  2  0
 12 13  1  0
 14 15  2  0
 14  7  1  0
 15 20  1  0
 16 15  1  0
 17 16  1  0
 17 18  2  0
 18 14  1  0
 19 17  1  0
  4 21  1  0
  5 22  1  0
  6 23  1  0
  8 24  1  0
  9 25  1  0
 12 26  1  0
 19 27  1  0
 19 28  1  0
 20 29  1  0
 20 30  1  0
M  ISO  6  21  14  22  14  23  14  24  14  25  14  26  14
M  END
>  <minimizedAffinity>  (1) 
-6.07107878

>  <minimizedRMSD>  (1) 
0.0655831322

$$$$
