
     RDKit          3D

 34 37  0  0  0  0  0  0  0  0999 V2000
   45.3970   32.9950   41.1450 Cl  0  0  0  0  0  0  0  0  0  0  0  0
   46.7810   34.0620   41.0450 C   0  0  0  0  0  0  0  0  0  0  0  0
   47.1190   34.8880   42.0730 C   0  0  0  0  0  0  0  0  0  0  0  0
   48.2240   35.6820   41.8850 C   0  0  0  0  0  0  0  0  0  0  0  0
   48.9550   35.6610   40.7440 C   0  0  0  0  0  0  0  0  0  0  0  0
   48.6110   34.8280   39.7110 C   0  0  0  0  0  0  0  0  0  0  0  0
   47.5050   34.0240   39.8830 C   0  0  0  0  0  0  0  0  0  0  0  0
   44.4960   35.7740   44.6710 C   0  0  0  0  0  0  0  0  0  0  0  0
   45.2770   35.8020   43.5100 C   0  0  0  0  0  0  0  0  0  0  0  0
   46.3020   34.8710   43.2730 C   0  0  0  0  0  0  0  0  0  0  0  0
   46.4740   33.9500   44.2510 N   0  0  0  0  0  0  0  0  0  0  0  0
   45.7190   33.9310   45.3610 C   0  0  0  0  0  0  0  0  0  0  0  0
   44.7460   34.8330   45.5630 N   0  0  0  0  0  0  0  0  0  0  0  0
   47.1160   33.1120   38.7730 C   0  0  0  0  0  0  0  0  0  0  0  0
   47.5760   31.7950   38.6640 C   0  0  0  0  0  0  0  0  0  0  0  0
   46.8090   31.1590   37.1620 S   0  0  0  0  0  0  0  0  0  0  0  0
   45.9320   32.8470   36.8790 C   0  0  0  0  0  0  0  0  0  0  0  0
   46.3140   33.4020   37.7700 N   0  0  0  0  0  0  0  0  0  0  0  0
   45.0540   33.1810   35.7930 N   0  0  0  0  0  0  0  0  0  0  0  0
   48.4920   31.1120   39.5980 C   0  0  0  0  0  0  0  0  0  0  0  0
   48.0180   30.2740   40.7410 C   0  0  0  0  0  0  0  0  0  0  0  0
   49.5660   29.7700   41.4320 S   0  0  0  0  0  0  0  0  0  0  0  0
   50.6210   30.7180   40.1410 C   0  0  0  0  0  0  0  0  0  0  0  0
   49.7740   31.3110   39.3290 N   0  0  0  0  0  0  0  0  0  0  0  0
   48.5280   36.3628   42.6937 H   0  0  0  0  0  0  0  0  0  0  0  0
   49.8318   36.3179   40.6459 H   0  0  0  0  0  0  0  0  0  0  0  0
   49.1959   34.8023   38.7797 H   0  0  0  0  0  0  0  0  0  0  0  0
   43.6983   36.5133   44.8354 H   0  0  0  0  0  0  0  0  0  0  0  0
   45.0815   36.5798   42.7571 H   0  0  0  0  0  0  0  0  0  0  0  0
   45.9021   33.1584   46.1223 H   0  0  0  0  0  0  0  0  0  0  0  0
   44.6364   34.1210   35.7388 H   0  0  0  0  0  0  0  0  0  0  0  0
   44.8418   32.4806   35.0682 H   0  0  0  0  0  0  0  0  0  0  0  0
   46.9931   30.0370   41.0625 H   0  0  0  0  0  0  0  0  0  0  0  0
   51.7191   30.7577   40.0900 H   0  0  0  0  0  0  0  0  0  0  0  0
  2  1  1  0
  2  3  2  0
  3 10  1  0
  4  3  1  0
  5  4  2  0
  6  7  2  0
  6  5  1  0
  7  2  1  0
  8 13  2  0
  9  8  1  0
 10  9  2  0
 10 11  1  0
 11 12  2  0
 12 13  1  0
 14  7  1  0
 15 14  2  0
 15 20  1  0
 16 15  1  0
 17 16  1  0
 17 18  2  0
 18 14  1  0
 19 17  1  0
 20 21  2  0
 21 22  1  0
 23 22  1  0
 24 20  1  0
 24 23  2  0
  4 25  1  0
  5 26  1  0
  6 27  1  0
  8 28  1  0
  9 29  1  0
 12 30  1  0
 19 31  1  0
 19 32  1  0
 21 33  1  0
 23 34  1  0
M  ISO  8  25  14  26  14  27  14  28  14  29  14  30  14  33  14  34  14
M  END
>  <minimizedAffinity>  (1) 
-5.97080135

>  <minimizedRMSD>  (1) 
1.05905426

$$$$
