
     RDKit          3D

 32 34  0  0  0  0  0  0  0  0999 V2000
   45.2560   33.0430   41.1770 Cl  0  0  0  0  0  0  0  0  0  0  0  0
   46.6810   34.0610   41.0730 C   0  0  0  0  0  0  0  0  0  0  0  0
   47.0610   34.8930   42.0920 C   0  0  0  0  0  0  0  0  0  0  0  0
   48.1840   35.6330   41.8930 C   0  0  0  0  0  0  0  0  0  0  0  0
   48.9070   35.5670   40.7560 C   0  0  0  0  0  0  0  0  0  0  0  0
   48.5380   34.7380   39.7300 C   0  0  0  0  0  0  0  0  0  0  0  0
   47.3920   33.9740   39.9130 C   0  0  0  0  0  0  0  0  0  0  0  0
   44.4640   35.8650   44.6750 C   0  0  0  0  0  0  0  0  0  0  0  0
   45.2380   35.8710   43.5190 C   0  0  0  0  0  0  0  0  0  0  0  0
   46.2360   34.9140   43.2910 C   0  0  0  0  0  0  0  0  0  0  0  0
   46.3850   33.9890   44.2820 N   0  0  0  0  0  0  0  0  0  0  0  0
   45.6250   34.0040   45.3920 C   0  0  0  0  0  0  0  0  0  0  0  0
   44.6810   34.9200   45.5920 N   0  0  0  0  0  0  0  0  0  0  0  0
   46.9770   33.0680   38.8080 C   0  0  0  0  0  0  0  0  0  0  0  0
   47.3500   31.7000   38.7750 C   0  0  0  0  0  0  0  0  0  0  0  0
   46.5760   31.1130   37.2350 S   0  0  0  0  0  0  0  0  0  0  0  0
   45.8600   32.8370   36.8770 C   0  0  0  0  0  0  0  0  0  0  0  0
   46.2550   33.3810   37.7770 N   0  0  0  0  0  0  0  0  0  0  0  0
   45.0690   33.1900   35.7490 N   0  0  0  0  0  0  0  0  0  0  0  0
   49.5720   31.0200   39.8750 C   0  0  0  0  0  0  0  0  0  0  0  0
   50.2190   31.7010   39.0700 O   0  0  0  0  0  0  0  0  0  0  0  0
   48.1540   30.9970   39.7580 N   0  0  0  0  0  0  0  0  0  0  0  0
   48.5165   36.3129   42.6912 H   0  0  0  0  0  0  0  0  0  0  0  0
   49.8079   36.1893   40.6511 H   0  0  0  0  0  0  0  0  0  0  0  0
   49.1239   34.6796   38.8009 H   0  0  0  0  0  0  0  0  0  0  0  0
   43.6858   36.6267   44.8306 H   0  0  0  0  0  0  0  0  0  0  0  0
   45.0615   36.6494   42.7621 H   0  0  0  0  0  0  0  0  0  0  0  0
   45.7895   33.2335   46.1596 H   0  0  0  0  0  0  0  0  0  0  0  0
   44.7256   34.1552   35.6426 H   0  0  0  0  0  0  0  0  0  0  0  0
   44.8396   32.4804   35.0385 H   0  0  0  0  0  0  0  0  0  0  0  0
   50.0810   30.4456   40.6630 H   0  0  0  0  0  0  0  0  0  0  0  0
   47.6445   30.4208   40.4430 H   0  0  0  0  0  0  0  0  0  0  0  0
  2  1  1  0
  2  3  2  0
  3 10  1  0
  4  3  1  0
  5  4  2  0
  6  7  2  0
  6  5  1  0
  7  2  1  0
  8 13  2  0
  9  8  1  0
 10  9  2  0
 10 11  1  0
 11 12  2  0
 12 13  1  0
 14  7  1  0
 15 14  2  0
 15 22  1  0
 16 15  1  0
 17 16  1  0
 17 18  2  0
 18 14  1  0
 19 17  1  0
 21 20  2  0
 22 20  1  0
  4 23  1  0
  5 24  1  0
  6 25  1  0
  8 26  1  0
  9 27  1  0
 12 28  1  0
 19 29  1  0
 19 30  1  0
 20 31  1  0
 22 32  1  0
M  ISO  7  23  14  24  14  25  14  26  14  27  14  28  14  31   6
M  END
>  <minimizedAffinity>  (1) 
-5.9706912

>  <minimizedRMSD>  (1) 
1.09707415

$$$$
