
     RDKit          3D

 30 32  0  0  1  0  0  0  0  0999 V2000
   48.4810   34.4640   41.9920 C   0  0  0  0  0  0  0  0  0  0  0  0
   48.9860   35.7820   41.4930 C   0  0  0  0  0  0  0  0  0  0  0  0
   49.7690   35.0080   42.4680 C   0  0  0  0  0  0  0  0  0  0  0  0
   46.2280   35.3100   42.6760 C   0  0  0  0  0  0  0  0  0  0  0  0
   47.3140   34.4680   42.9120 C   0  0  0  0  0  0  0  0  0  0  0  0
   47.2230   33.6320   44.0500 C   0  0  0  0  0  0  0  0  0  0  0  0
   46.1110   33.6930   44.8320 N   0  0  0  0  0  0  0  0  0  0  0  0
   45.0960   34.5190   44.5590 C   0  0  0  0  0  0  0  0  0  0  0  0
   45.1720   35.3160   43.4830 N   0  0  0  0  0  0  0  0  0  0  0  0
   48.0670   33.8740   39.5620 C   0  0  1  0  0  0  0  0  0  0  0  0
   48.3480   33.4030   40.9420 C   0  0  1  0  0  0  0  0  0  0  0  0
   49.5680   32.7220   40.7980 O   0  0  0  0  0  0  0  0  0  0  0  0
   49.5210   32.0210   39.6220 C   0  0  0  0  0  0  0  0  0  0  0  0
   48.4800   32.6400   38.7470 C   0  0  2  0  0  0  0  0  0  0  0  0
   46.7080   34.0920   39.3430 O   0  0  0  0  0  0  0  0  0  0  0  0
   48.8910   32.9730   37.4820 O   0  0  0  0  0  0  0  0  0  0  0  0
   49.3393   35.8797   40.4559 H   0  0  0  0  0  0  0  0  0  0  0  0
   48.5850   36.8055   41.4515 H   0  0  0  0  0  0  0  0  0  0  0  0
   49.8620   35.3671   43.5036 H   0  0  0  0  0  0  0  0  0  0  0  0
   50.8012   34.6292   42.5023 H   0  0  0  0  0  0  0  0  0  0  0  0
   46.2456   35.9821   41.8054 H   0  0  0  0  0  0  0  0  0  0  0  0
   48.0416   32.9409   44.2996 H   0  0  0  0  0  0  0  0  0  0  0  0
   44.2090   34.5447   45.2091 H   0  0  0  0  0  0  0  0  0  0  0  0
   48.5744   34.8208   39.3251 H   0  0  0  0  0  0  0  0  0  0  0  0
   47.4995   32.8061   41.3078 H   0  0  0  0  0  0  0  0  0  0  0  0
   50.5004   32.0656   39.1232 H   0  0  0  0  0  0  0  0  0  0  0  0
   49.2726   30.9676   39.8188 H   0  0  0  0  0  0  0  0  0  0  0  0
   47.6660   31.9326   38.5301 H   0  0  0  0  0  0  0  0  0  0  0  0
   46.2414   34.1668   40.2129 H   0  0  0  0  0  0  0  0  0  0  0  0
   49.6590   33.5952   37.5376 H   0  0  0  0  0  0  0  0  0  0  0  0
  1  3  1  0
  1  5  1  0
  2  1  1  0
  2  3  1  0
  4  5  2  0
  4  9  1  0
  5  6  1  0
  6  7  2  0
  8  7  1  0
  9  8  2  0
 10 15  1  0
 10 11  1  0
 11  1  1  0
 12 11  1  0
 13 12  1  0
 14 16  1  0
 14 10  1  0
 14 13  1  0
  2 17  1  0
  2 18  1  0
  3 19  1  0
  3 20  1  0
  4 21  1  0
  6 22  1  0
  8 23  1  0
 10 24  1  6
 11 25  1  1
 13 26  1  0
 13 27  1  0
 14 28  1  6
 15 29  1  0
 16 30  1  0
M  ISO  8  17  13  18  13  19  13  20  13  21  14  22  14  23  14  24  13
M  ISO  6  25  13  26  13  27  13  28  13  29   3  30   3
M  END
>  <minimizedAffinity>  (1) 
-5.10239649

>  <minimizedRMSD>  (1) 
0.145721555

$$$$
