
     RDKit          3D

 29 31  0  0  1  0  0  0  0  0999 V2000
   47.8340   34.7170   41.7450 C   0  0  0  0  0  0  0  0  0  0  0  0
   48.8740   35.7930   41.6860 C   0  0  0  0  0  0  0  0  0  0  0  0
   49.2530   34.4090   42.0050 C   0  0  0  0  0  0  0  0  0  0  0  0
   45.8540   35.6980   42.8970 C   0  0  0  0  0  0  0  0  0  0  0  0
   46.8660   34.7440   42.8630 C   0  0  0  0  0  0  0  0  0  0  0  0
   46.9040   33.8110   43.9000 C   0  0  0  0  0  0  0  0  0  0  0  0
   45.9570   33.8770   44.8900 N   0  0  0  0  0  0  0  0  0  0  0  0
   44.9940   34.8120   44.8900 C   0  0  0  0  0  0  0  0  0  0  0  0
   44.9450   35.7180   43.8980 N   0  0  0  0  0  0  0  0  0  0  0  0
   48.1810   33.8060   39.5020 C   0  0  1  0  0  0  0  0  0  0  0  0
   47.1740   34.4420   40.4320 C   0  0  1  0  0  0  0  0  0  0  0  0
   45.9880   33.5570   40.4410 C   0  0  0  0  0  0  0  0  0  0  0  0
   45.9850   33.1020   39.1000 O   0  0  0  0  0  0  0  0  0  0  0  0
   47.3010   32.7720   38.8100 C   0  0  0  0  0  0  0  0  0  0  0  0
   48.6860   34.7110   38.5640 O   0  0  0  0  0  0  0  0  0  0  0  0
   49.1575   36.2330   40.7185 H   0  0  0  0  0  0  0  0  0  0  0  0
   49.0129   36.7711   42.1697 H   0  0  0  0  0  0  0  0  0  0  0  0
   49.5791   34.1523   43.0237 H   0  0  0  0  0  0  0  0  0  0  0  0
   49.9753   33.6917   41.5882 H   0  0  0  0  0  0  0  0  0  0  0  0
   45.7922   36.4491   42.0957 H   0  0  0  0  0  0  0  0  0  0  0  0
   47.6822   33.0339   43.9231 H   0  0  0  0  0  0  0  0  0  0  0  0
   44.2482   34.8368   45.6981 H   0  0  0  0  0  0  0  0  0  0  0  0
   49.0707   33.4130   40.0158 H   0  0  0  0  0  0  0  0  0  0  0  0
   46.8113   35.4305   40.1137 H   0  0  0  0  0  0  0  0  0  0  0  0
   46.1093   32.7250   41.1503 H   0  0  0  0  0  0  0  0  0  0  0  0
   45.0559   34.0484   40.7568 H   0  0  0  0  0  0  0  0  0  0  0  0
   47.5307   31.7654   39.1895 H   0  0  0  0  0  0  0  0  0  0  0  0
   47.4758   32.7706   37.7240 H   0  0  0  0  0  0  0  0  0  0  0  0
   49.1104   35.4716   39.0346 H   0  0  0  0  0  0  0  0  0  0  0  0
  1  3  1  0
  1  5  1  0
  2  1  1  0
  2  3  1  0
  4  9  2  0
  5  4  1  0
  5  6  2  0
  6  7  1  0
  8  7  2  0
  9  8  1  0
 10 15  1  0
 10 11  1  0
 11 12  1  0
 11  1  1  0
 13 12  1  0
 14 13  1  0
 14 10  1  0
  2 16  1  0
  2 17  1  0
  3 18  1  0
  3 19  1  0
  4 20  1  0
  6 21  1  0
  8 22  1  0
 10 23  1  1
 11 24  1  6
 12 25  1  0
 12 26  1  0
 14 27  1  0
 14 28  1  0
 15 29  1  0
M  ISO  8  16  13  17  13  18  13  19  13  20  14  21  14  22  14  23  13
M  ISO  6  24  13  25  13  26  13  27  13  28  13  29   3
M  END
>  <minimizedAffinity>  (1) 
-4.96272087

>  <minimizedRMSD>  (1) 
1.52802622

$$$$
