
     RDKit          3D

 20 21  0  0  0  0  0  0  0  0999 V2000
   45.9720   35.5210   42.6760 C   0  0  0  0  0  0  0  0  0  0  0  0
   47.1080   34.7160   42.7090 C   0  0  0  0  0  0  0  0  0  0  0  0
   47.2040   33.8080   43.7920 C   0  0  0  0  0  0  0  0  0  0  0  0
   46.2090   33.7690   44.7180 N   0  0  0  0  0  0  0  0  0  0  0  0
   45.1360   34.5590   44.6510 C   0  0  0  0  0  0  0  0  0  0  0  0
   45.0360   35.4230   43.6290 N   0  0  0  0  0  0  0  0  0  0  0  0
   48.1300   34.8030   41.6460 C   0  0  0  0  0  0  0  0  0  0  0  0
   49.0690   35.9700   41.6700 C   0  0  0  0  0  0  0  0  0  0  0  0
   49.5510   34.6220   42.0060 C   0  0  0  0  0  0  0  0  0  0  0  0
   47.5970   34.3590   40.2980 C   0  0  0  0  0  0  0  0  0  0  0  0
   45.8420   36.2452   41.8583 H   0  0  0  0  0  0  0  0  0  0  0  0
   48.0743   33.1415   43.8830 H   0  0  0  0  0  0  0  0  0  0  0  0
   44.3493   34.5033   45.4178 H   0  0  0  0  0  0  0  0  0  0  0  0
   49.3790   36.4472   40.7286 H   0  0  0  0  0  0  0  0  0  0  0  0
   49.0824   36.9499   42.1696 H   0  0  0  0  0  0  0  0  0  0  0  0
   49.8261   34.3824   43.0437 H   0  0  0  0  0  0  0  0  0  0  0  0
   50.3643   33.9795   41.6375 H   0  0  0  0  0  0  0  0  0  0  0  0
   46.7596   33.6614   40.4465 H   0  0  0  0  0  0  0  0  0  0  0  0
   47.2475   35.2368   39.7347 H   0  0  0  0  0  0  0  0  0  0  0  0
   48.3972   33.8566   39.7347 H   0  0  0  0  0  0  0  0  0  0  0  0
  1  2  2  0
  1  6  1  0
  2  3  1  0
  3  4  2  0
  5  4  1  0
  6  5  2  0
  7  8  1  0
  7  9  1  0
  7  2  1  0
  8  9  1  0
 10  7  1  0
  1 11  1  0
  3 12  1  0
  5 13  1  0
  8 14  1  0
  8 15  1  0
  9 16  1  0
  9 17  1  0
 10 18  1  0
 10 19  1  0
 10 20  1  0
M  ISO  8  11  14  12  14  13  14  14  13  15  13  16  13  17  13  18   8
M  ISO  2  19   8  20   8
M  END
>  <minimizedAffinity>  (1) 
-4.05113888

>  <minimizedRMSD>  (1) 
0.57352823

$$$$
