
     RDKit          3D

 19 20  0  0  0  0  0  0  0  0999 V2000
   48.3180   34.7690   41.8130 C   0  0  0  0  0  0  0  0  0  0  0  0
   49.0480   36.0040   41.5690 C   0  0  0  0  0  0  0  0  0  0  0  0
   49.7360   34.9450   42.3570 C   0  0  0  0  0  0  0  0  0  0  0  0
   46.1430   35.5900   42.7440 C   0  0  0  0  0  0  0  0  0  0  0  0
   47.2330   34.6650   42.8080 C   0  0  0  0  0  0  0  0  0  0  0  0
   47.1900   33.7160   43.7980 C   0  0  0  0  0  0  0  0  0  0  0  0
   46.1160   33.7100   44.6600 N   0  0  0  0  0  0  0  0  0  0  0  0
   45.1060   34.5950   44.5750 C   0  0  0  0  0  0  0  0  0  0  0  0
   45.1190   35.5420   43.6100 N   0  0  0  0  0  0  0  0  0  0  0  0
   48.2250   33.7200   40.7520 C   0  0  0  0  0  0  0  0  0  0  0  0
   47.5970   34.2710   39.8360 O   0  0  0  0  0  0  0  0  0  0  0  0
   49.3966   36.2365   40.5519 H   0  0  0  0  0  0  0  0  0  0  0  0
   48.8293   37.0670   41.7484 H   0  0  0  0  0  0  0  0  0  0  0  0
   49.9058   35.0760   43.4359 H   0  0  0  0  0  0  0  0  0  0  0  0
   50.6858   34.3950   42.2835 H   0  0  0  0  0  0  0  0  0  0  0  0
   46.1446   36.3633   41.9617 H   0  0  0  0  0  0  0  0  0  0  0  0
   47.9967   32.9753   43.9010 H   0  0  0  0  0  0  0  0  0  0  0  0
   44.2710   34.5481   45.2895 H   0  0  0  0  0  0  0  0  0  0  0  0
   48.6225   32.6947   40.7780 H   0  0  0  0  0  0  0  0  0  0  0  0
  1  3  1  0
  1  5  1  0
  2  1  1  0
  2  3  1  0
  4  5  2  0
  4  9  1  0
  5  6  1  0
  6  7  2  0
  8  7  1  0
  9  8  2  0
 10  1  1  0
 11 10  2  0
  2 12  1  0
  2 13  1  0
  3 14  1  0
  3 15  1  0
  4 16  1  0
  6 17  1  0
  8 18  1  0
 10 19  1  0
M  ISO  8  12  13  13  13  14  13  15  13  16  14  17  14  18  14  19   6
M  END
>  <minimizedAffinity>  (1) 
-3.99443007

>  <minimizedRMSD>  (1) 
0.804984689

$$$$
