
     RDKit          3D

 35 37  0  0  0  0  0  0  0  0999 V2000
   48.0100   34.5020   41.7730 C   0  0  0  0  0  0  0  0  0  0  0  0
   48.7540   35.7550   41.4350 C   0  0  0  0  0  0  0  0  0  0  0  0
   49.4660   34.6110   41.9950 C   0  0  0  0  0  0  0  0  0  0  0  0
   47.5470   33.7020   40.5840 C   0  0  0  0  0  0  0  0  0  0  0  0
   48.0460   34.2130   39.2500 C   0  0  0  0  0  0  0  0  0  0  0  0
   47.5790   33.1400   38.2380 C   0  0  0  0  0  0  0  0  0  0  0  0
   46.2180   33.3720   38.0560 O   0  0  0  0  0  0  0  0  0  0  0  0
   45.6350   32.8820   39.2510 C   0  0  0  0  0  0  0  0  0  0  0  0
   46.0300   33.7700   40.4190 C   0  0  0  0  0  0  0  0  0  0  0  0
   46.0560   35.4560   42.9910 C   0  0  0  0  0  0  0  0  0  0  0  0
   47.0920   34.5260   42.9580 C   0  0  0  0  0  0  0  0  0  0  0  0
   47.2440   33.6290   44.0490 C   0  0  0  0  0  0  0  0  0  0  0  0
   46.3580   33.7280   45.0830 N   0  0  0  0  0  0  0  0  0  0  0  0
   45.3840   34.6400   45.0610 C   0  0  0  0  0  0  0  0  0  0  0  0
   45.2190   35.4940   44.0450 N   0  0  0  0  0  0  0  0  0  0  0  0
   44.6170   33.8100   47.2720 C   0  0  0  0  0  0  0  0  0  0  0  0
   45.5430   32.9350   47.3060 O   0  0  0  0  0  0  0  0  0  0  0  0
   44.4850   34.7030   46.1630 N   0  0  0  0  0  0  0  0  0  0  0  0
   48.9072   36.0370   40.3829 H   0  0  0  0  0  0  0  0  0  0  0  0
   48.6530   36.8166   41.7047 H   0  0  0  0  0  0  0  0  0  0  0  0
   49.8601   34.6614   43.0207 H   0  0  0  0  0  0  0  0  0  0  0  0
   50.3392   34.0192   41.6831 H   0  0  0  0  0  0  0  0  0  0  0  0
   47.9383   32.6978   40.8040 H   0  0  0  0  0  0  0  0  0  0  0  0
   47.6014   35.1914   39.0152 H   0  0  0  0  0  0  0  0  0  0  0  0
   49.1357   34.3622   39.2352 H   0  0  0  0  0  0  0  0  0  0  0  0
   48.1187   33.2482   37.2856 H   0  0  0  0  0  0  0  0  0  0  0  0
   47.7755   32.1208   38.6021 H   0  0  0  0  0  0  0  0  0  0  0  0
   44.5398   32.8794   39.1485 H   0  0  0  0  0  0  0  0  0  0  0  0
   45.9927   31.8584   39.4361 H   0  0  0  0  0  0  0  0  0  0  0  0
   45.7243   34.8072   40.2173 H   0  0  0  0  0  0  0  0  0  0  0  0
   45.5337   33.4277   41.3391 H   0  0  0  0  0  0  0  0  0  0  0  0
   45.9215   36.1595   42.1561 H   0  0  0  0  0  0  0  0  0  0  0  0
   48.0490   32.8794   44.0603 H   0  0  0  0  0  0  0  0  0  0  0  0
   43.9075   33.8794   48.1097 H   0  0  0  0  0  0  0  0  0  0  0  0
   43.7285   35.4020   46.1615 H   0  0  0  0  0  0  0  0  0  0  0  0
  1  3  1  0
  1 11  1  0
  2  1  1  0
  2  3  1  0
  4  1  1  0
  5  4  1  0
  6  5  1  0
  7  6  1  0
  7  8  1  0
  8  9  1  0
  9  4  1  0
 10 15  2  0
 11 10  1  0
 11 12  2  0
 12 13  1  0
 14 13  2  0
 14 18  1  0
 15 14  1  0
 16 17  2  0
 18 16  1  0
  2 19  1  0
  2 20  1  0
  3 21  1  0
  3 22  1  0
  4 23  1  0
  5 24  1  0
  5 25  1  0
  6 26  1  0
  6 27  1  0
  8 28  1  0
  8 29  1  0
  9 30  1  0
  9 31  1  0
 10 32  1  0
 12 33  1  0
 16 34  1  0
 18 35  1  0
M  ISO  8  19  13  20  13  21  13  22  13  23  13  24  13  25  13  26  13
M  ISO  8  27  13  28  13  29  13  30  13  31  13  32  14  33  14  34   6
M  END
>  <minimizedAffinity>  (1) 
-5.37812901

>  <minimizedRMSD>  (1) 
0.606776416

$$$$
