
     RDKit          3D

 20 21  0  0  0  0  0  0  0  0999 V2000
   44.5600   35.8690   44.3790 C   0  0  0  0  0  0  0  0  0  0  0  0
   45.3220   35.7790   43.1780 C   0  0  0  0  0  0  0  0  0  0  0  0
   46.3010   34.7730   43.1240 C   0  0  0  0  0  0  0  0  0  0  0  0
   46.4690   33.9510   44.2040 N   0  0  0  0  0  0  0  0  0  0  0  0
   45.7060   34.0940   45.3180 C   0  0  0  0  0  0  0  0  0  0  0  0
   44.7650   35.0410   45.4020 N   0  0  0  0  0  0  0  0  0  0  0  0
   45.8970   33.2080   46.4620 C   0  0  0  0  0  0  0  0  0  0  0  0
   46.9130   32.3120   46.7140 C   0  0  0  0  0  0  0  0  0  0  0  0
   46.7330   31.6760   47.8860 N   0  0  0  0  0  0  0  0  0  0  0  0
   45.5790   32.1740   48.3940 C   0  0  0  0  0  0  0  0  0  0  0  0
   45.0800   33.0970   47.5290 N   0  0  0  0  0  0  0  0  0  0  0  0
   47.0560   34.7140   41.8820 C   0  0  0  0  0  0  0  0  0  0  0  0
   47.8660   33.5980   41.8860 F   0  0  0  0  0  0  0  0  0  0  0  0
   47.9170   35.8040   41.8780 F   0  0  0  0  0  0  0  0  0  0  0  0
   46.2760   34.6750   40.7610 F   0  0  0  0  0  0  0  0  0  0  0  0
   43.7823   36.6424   44.4633 H   0  0  0  0  0  0  0  0  0  0  0  0
   45.1518   36.4640   42.3343 H   0  0  0  0  0  0  0  0  0  0  0  0
   47.7653   32.1382   46.0407 H   0  0  0  0  0  0  0  0  0  0  0  0
   47.3432   30.9616   48.3081 H   0  0  0  0  0  0  0  0  0  0  0  0
   45.1211   31.8795   49.3498 H   0  0  0  0  0  0  0  0  0  0  0  0
  1  6  2  0
  2  1  1  0
  3  2  2  0
  3  4  1  0
  4  5  2  0
  5  6  1  0
  5  7  1  0
  7  8  2  0
  7 11  1  0
  8  9  1  0
  9 10  1  0
 11 10  2  0
 12 13  1  0
 12  3  1  0
 14 12  1  0
 15 12  1  0
  1 16  1  0
  2 17  1  0
  8 18  1  0
  9 19  1  0
 10 20  1  0
M  ISO  5  16  14  17  14  18  14  19   9  20  14
M  END
>  <minimizedAffinity>  (1) 
-5.0717845

>  <minimizedRMSD>  (1) 
0.203719214

$$$$
