
     RDKit          3D

 46 50  0  0  0  0  0  0  0  0999 V2000
   48.0870   34.6090   41.6880 C   0  0  0  0  0  0  0  0  0  0  0  0
   48.9160   35.8690   41.4260 C   0  0  0  0  0  0  0  0  0  0  0  0
   49.4840   34.7200   42.0980 C   0  0  0  0  0  0  0  0  0  0  0  0
   47.7470   33.8620   40.4490 C   0  0  0  0  0  0  0  0  0  0  0  0
   48.2340   34.4950   39.1500 C   0  0  0  0  0  0  0  0  0  0  0  0
   47.9190   33.4340   38.0800 C   0  0  0  0  0  0  0  0  0  0  0  0
   46.5500   33.4560   37.8750 O   0  0  0  0  0  0  0  0  0  0  0  0
   46.0260   32.8360   39.0390 C   0  0  0  0  0  0  0  0  0  0  0  0
   46.2430   33.7430   40.2450 C   0  0  0  0  0  0  0  0  0  0  0  0
   46.2190   35.8890   42.7800 C   0  0  0  0  0  0  0  0  0  0  0  0
   47.0170   34.7430   42.7200 C   0  0  0  0  0  0  0  0  0  0  0  0
   46.7530   33.7460   43.6780 C   0  0  0  0  0  0  0  0  0  0  0  0
   45.7660   33.9460   44.5850 N   0  0  0  0  0  0  0  0  0  0  0  0
   45.0380   35.0680   44.5880 C   0  0  0  0  0  0  0  0  0  0  0  0
   45.2530   36.0270   43.7070 N   0  0  0  0  0  0  0  0  0  0  0  0
   44.0070   35.2890   45.5250 N   0  0  0  0  0  0  0  0  0  0  0  0
   47.1380   31.8000   44.9910 C   0  0  0  0  0  0  0  0  0  0  0  0
   47.4740   32.5040   43.8200 C   0  0  0  0  0  0  0  0  0  0  0  0
   48.4070   31.8350   43.0650 C   0  0  0  0  0  0  0  0  0  0  0  0
   48.9490   30.6380   43.3990 C   0  0  0  0  0  0  0  0  0  0  0  0
   49.8630   29.9220   42.7190 N   0  0  0  0  0  0  0  0  0  0  0  0
   50.0820   28.8140   43.4490 C   0  0  0  0  0  0  0  0  0  0  0  0
   49.3310   28.8400   44.5420 N   0  0  0  0  0  0  0  0  0  0  0  0
   48.6090   29.9740   44.5390 C   0  0  0  0  0  0  0  0  0  0  0  0
   47.6760   30.5800   45.3520 C   0  0  0  0  0  0  0  0  0  0  0  0
   49.2293   36.1228   40.4026 H   0  0  0  0  0  0  0  0  0  0  0  0
   48.8111   36.9400   41.6538 H   0  0  0  0  0  0  0  0  0  0  0  0
   49.7289   34.7870   43.1683 H   0  0  0  0  0  0  0  0  0  0  0  0
   50.3766   34.1030   41.9175 H   0  0  0  0  0  0  0  0  0  0  0  0
   48.2509   32.8999   40.6234 H   0  0  0  0  0  0  0  0  0  0  0  0
   47.6938   35.4308   38.9441 H   0  0  0  0  0  0  0  0  0  0  0  0
   49.3008   34.7615   39.1819 H   0  0  0  0  0  0  0  0  0  0  0  0
   48.4445   33.6745   37.1441 H   0  0  0  0  0  0  0  0  0  0  0  0
   48.2497   32.4374   38.4078 H   0  0  0  0  0  0  0  0  0  0  0  0
   44.9490   32.6571   38.9049 H   0  0  0  0  0  0  0  0  0  0  0  0
   46.5411   31.8784   39.2055 H   0  0  0  0  0  0  0  0  0  0  0  0
   45.8082   34.7352   40.0543 H   0  0  0  0  0  0  0  0  0  0  0  0
   45.7575   33.3276   41.1404 H   0  0  0  0  0  0  0  0  0  0  0  0
   46.3844   36.6972   42.0524 H   0  0  0  0  0  0  0  0  0  0  0  0
   43.4660   36.1651   45.4984 H   0  0  0  0  0  0  0  0  0  0  0  0
   43.7952   34.5743   46.2358 H   0  0  0  0  0  0  0  0  0  0  0  0
   46.3959   32.2522   45.6654 H   0  0  0  0  0  0  0  0  0  0  0  0
   48.7367   32.3025   42.1255 H   0  0  0  0  0  0  0  0  0  0  0  0
   50.3047   30.1715   41.8226 H   0  0  0  0  0  0  0  0  0  0  0  0
   50.7795   28.0070   43.1800 H   0  0  0  0  0  0  0  0  0  0  0  0
   47.3603   30.0933   46.2866 H   0  0  0  0  0  0  0  0  0  0  0  0
  1  3  1  0
  1 11  1  0
  2  1  1  0
  2  3  1  0
  4  1  1  0
  5  4  1  0
  6  5  1  0
  7  6  1  0
  7  8  1  0
  8  9  1  0
  9  4  1  0
 10 15  2  0
 11 10  1  0
 11 12  2  0
 12 18  1  0
 12 13  1  0
 13 14  2  0
 14 16  1  0
 15 14  1  0
 17 25  2  0
 18 17  1  0
 19 20  1  0
 19 18  2  0
 20 24  2  0
 21 20  1  0
 21 22  1  0
 22 23  2  0
 24 23  1  0
 24 25  1  0
  2 26  1  0
  2 27  1  0
  3 28  1  0
  3 29  1  0
  4 30  1  0
  5 31  1  0
  5 32  1  0
  6 33  1  0
  6 34  1  0
  8 35  1  0
  8 36  1  0
  9 37  1  0
  9 38  1  0
 10 39  1  0
 16 40  1  0
 16 41  1  0
 17 42  1  0
 19 43  1  0
 21 44  1  0
 22 45  1  0
 25 46  1  0
M  ISO  8  26  13  27  13  28  13  29  13  30  13  31  13  32  13  33  13
M  ISO  8  34  13  35  13  36  13  37  13  38  13  39  14  42  14  43  14
M  ISO  3  44   9  45  14  46  14
M  END
>  <minimizedAffinity>  (1) 
-6.12493706

>  <minimizedRMSD>  (1) 
0.743996739

$$$$
