
     RDKit          3D

 40 42  0  0  0  0  0  0  0  0999 V2000
   47.9790   34.5910   41.6860 C   0  0  0  0  0  0  0  0  0  0  0  0
   48.8920   35.7430   41.4360 C   0  0  0  0  0  0  0  0  0  0  0  0
   49.3720   34.4790   41.9800 C   0  0  0  0  0  0  0  0  0  0  0  0
   46.0060   35.6720   42.6940 C   0  0  0  0  0  0  0  0  0  0  0  0
   46.9770   34.7040   42.8020 C   0  0  0  0  0  0  0  0  0  0  0  0
   46.9730   33.8960   43.9310 C   0  0  0  0  0  0  0  0  0  0  0  0
   46.0490   34.0540   44.9000 N   0  0  0  0  0  0  0  0  0  0  0  0
   45.1080   35.0270   44.7510 C   0  0  0  0  0  0  0  0  0  0  0  0
   45.0800   35.8230   43.6710 N   0  0  0  0  0  0  0  0  0  0  0  0
   44.1120   35.2700   45.7320 N   0  0  0  0  0  0  0  0  0  0  0  0
   48.3180   32.7230   41.7210 N   0  0  0  0  0  0  0  0  0  0  0  0
   48.4930   32.2250   42.9220 C   0  0  0  0  0  0  0  0  0  0  0  0
   47.9480   32.8770   44.0630 N   0  0  0  0  0  0  0  0  0  0  0  0
   49.2580   31.0030   42.9870 N   0  0  0  0  0  0  0  0  0  0  0  0
   48.7010   32.2780   40.8570 H   0  0  0  0  0  0  0  0  0  0  0  0
   47.3080   34.3550   40.3740 C   0  0  0  0  0  0  0  0  0  0  0  0
   48.1240   34.1050   39.2370 C   0  0  0  0  0  0  0  0  0  0  0  0
   47.5300   33.2120   38.1930 C   0  0  0  0  0  0  0  0  0  0  0  0
   46.1870   33.5450   38.0130 O   0  0  0  0  0  0  0  0  0  0  0  0
   45.6220   32.9790   39.1700 C   0  0  0  0  0  0  0  0  0  0  0  0
   46.0750   33.5770   40.4600 C   0  0  0  0  0  0  0  0  0  0  0  0
   49.1462   36.0374   40.4071 H   0  0  0  0  0  0  0  0  0  0  0  0
   48.9319   36.7995   41.7397 H   0  0  0  0  0  0  0  0  0  0  0  0
   49.7044   34.4290   43.0274 H   0  0  0  0  0  0  0  0  0  0  0  0
   50.1608   33.7707   41.6865 H   0  0  0  0  0  0  0  0  0  0  0  0
   45.9813   36.3265   41.8103 H   0  0  0  0  0  0  0  0  0  0  0  0
   43.4158   36.0149   45.5856 H   0  0  0  0  0  0  0  0  0  0  0  0
   44.0852   34.7015   46.5905 H   0  0  0  0  0  0  0  0  0  0  0  0
   48.2684   32.6029   45.0027 H   0  0  0  0  0  0  0  0  0  0  0  0
   49.4356   30.5544   43.8970 H   0  0  0  0  0  0  0  0  0  0  0  0
   49.6263   30.5794   42.1234 H   0  0  0  0  0  0  0  0  0  0  0  0
   46.9766   35.3723   40.1185 H   0  0  0  0  0  0  0  0  0  0  0  0
   48.3504   35.0723   38.7647 H   0  0  0  0  0  0  0  0  0  0  0  0
   49.0098   33.5740   39.6157 H   0  0  0  0  0  0  0  0  0  0  0  0
   48.0718   33.3438   37.2448 H   0  0  0  0  0  0  0  0  0  0  0  0
   47.6102   32.1633   38.5152 H   0  0  0  0  0  0  0  0  0  0  0  0
   44.5300   33.0954   39.1066 H   0  0  0  0  0  0  0  0  0  0  0  0
   45.9536   31.9303   39.1882 H   0  0  0  0  0  0  0  0  0  0  0  0
   46.2353   32.7597   41.1786 H   0  0  0  0  0  0  0  0  0  0  0  0
   45.2867   34.2787   40.7702 H   0  0  0  0  0  0  0  0  0  0  0  0
  1  3  1  0
  1  5  1  0
  2  1  1  0
  2  3  1  0
  4  5  2  0
  4  9  1  0
  5  6  1  0
  6 13  1  0
  6  7  2  0
  8  7  1  0
  8 10  1  0
  9  8  2  0
 11 12  2  0
 12 14  1  0
 12 13  1  0
 15 11  1  0
 16 21  1  0
 16  1  1  0
 17 16  1  0
 18 17  1  0
 19 18  1  0
 19 20  1  0
 20 21  1  0
  2 22  1  0
  2 23  1  0
  3 24  1  0
  3 25  1  0
  4 26  1  0
 10 27  1  0
 10 28  1  0
 13 29  1  0
 14 30  1  0
 14 31  1  0
 16 32  1  0
 17 33  1  0
 17 34  1  0
 18 35  1  0
 18 36  1  0
 20 37  1  0
 20 38  1  0
 21 39  1  0
 21 40  1  0
M  ISO  8  22  13  23  13  24  13  25  13  26  14  32  13  33  13  34  13
M  ISO  6  35  13  36  13  37  13  38  13  39  13  40  13
M  END
>  <minimizedAffinity>  (1) 
-6.11266804

>  <minimizedRMSD>  (1) 
0.150300547

$$$$
