
     RDKit          3D

 47 51  0  0  0  0  0  0  0  0999 V2000
   48.2150   33.7240   42.1500 C   0  0  0  0  0  0  0  0  0  0  0  0
   49.5030   34.4410   42.5720 C   0  0  0  0  0  0  0  0  0  0  0  0
   49.2170   33.0910   42.9990 C   0  0  0  0  0  0  0  0  0  0  0  0
   48.1640   33.4100   40.7000 C   0  0  0  0  0  0  0  0  0  0  0  0
   48.1540   34.6180   39.7710 C   0  0  0  0  0  0  0  0  0  0  0  0
   48.2980   34.0120   38.3610 C   0  0  0  0  0  0  0  0  0  0  0  0
   47.0450   33.4730   38.0510 O   0  0  0  0  0  0  0  0  0  0  0  0
   46.9900   32.2980   38.8490 C   0  0  0  0  0  0  0  0  0  0  0  0
   46.8360   32.7260   40.3090 C   0  0  0  0  0  0  0  0  0  0  0  0
   46.4950   35.5160   42.4560 C   0  0  0  0  0  0  0  0  0  0  0  0
   46.9370   34.2130   42.7830 C   0  0  0  0  0  0  0  0  0  0  0  0
   46.1760   33.4690   43.6910 C   0  0  0  0  0  0  0  0  0  0  0  0
   45.0650   34.0860   44.1800 N   0  0  0  0  0  0  0  0  0  0  0  0
   44.6830   35.3030   43.8520 C   0  0  0  0  0  0  0  0  0  0  0  0
   45.3720   36.0320   43.0020 N   0  0  0  0  0  0  0  0  0  0  0  0
   43.5040   35.8490   44.3990 N   0  0  0  0  0  0  0  0  0  0  0  0
   46.5990   32.1150   44.0180 C   0  0  0  0  0  0  0  0  0  0  0  0
   46.6870   31.0860   43.1790 N   0  0  0  0  0  0  0  0  0  0  0  0
   47.0600   29.8490   43.3950 C   0  0  0  0  0  0  0  0  0  0  0  0
   47.4270   29.4880   44.6360 N   0  0  0  0  0  0  0  0  0  0  0  0
   47.3930   30.4250   45.6050 C   0  0  0  0  0  0  0  0  0  0  0  0
   47.7750   30.0360   46.8630 C   0  0  0  0  0  0  0  0  0  0  0  0
   47.7610   30.9540   47.8830 C   0  0  0  0  0  0  0  0  0  0  0  0
   47.3620   32.2540   47.6210 C   0  0  0  0  0  0  0  0  0  0  0  0
   46.9970   32.5490   46.3310 C   0  0  0  0  0  0  0  0  0  0  0  0
   46.9840   31.6990   45.2710 C   0  0  0  0  0  0  0  0  0  0  0  0
   50.2972   34.6326   41.8354 H   0  0  0  0  0  0  0  0  0  0  0  0
   49.7470   35.3892   43.0733 H   0  0  0  0  0  0  0  0  0  0  0  0
   48.9836   32.8979   44.0565 H   0  0  0  0  0  0  0  0  0  0  0  0
   49.7735   32.1444   42.9328 H   0  0  0  0  0  0  0  0  0  0  0  0
   49.0702   32.7989   40.5759 H   0  0  0  0  0  0  0  0  0  0  0  0
   47.2085   35.1727   39.8625 H   0  0  0  0  0  0  0  0  0  0  0  0
   48.9540   35.3359   40.0047 H   0  0  0  0  0  0  0  0  0  0  0  0
   48.5706   34.7916   37.6344 H   0  0  0  0  0  0  0  0  0  0  0  0
   49.0886   33.2479   38.3262 H   0  0  0  0  0  0  0  0  0  0  0  0
   46.1299   31.6819   38.5478 H   0  0  0  0  0  0  0  0  0  0  0  0
   47.9069   31.7043   38.7192 H   0  0  0  0  0  0  0  0  0  0  0  0
   45.9986   33.4316   40.4132 H   0  0  0  0  0  0  0  0  0  0  0  0
   46.6224   31.8645   40.9588 H   0  0  0  0  0  0  0  0  0  0  0  0
   47.0762   36.1205   41.7441 H   0  0  0  0  0  0  0  0  0  0  0  0
   43.2089   36.8012   44.1398 H   0  0  0  0  0  0  0  0  0  0  0  0
   42.9377   35.2958   45.0579 H   0  0  0  0  0  0  0  0  0  0  0  0
   47.0725   29.1176   42.5735 H   0  0  0  0  0  0  0  0  0  0  0  0
   48.0894   28.9991   47.0527 H   0  0  0  0  0  0  0  0  0  0  0  0
   48.0638   30.6601   48.8988 H   0  0  0  0  0  0  0  0  0  0  0  0
   47.3386   33.0174   48.4126 H   0  0  0  0  0  0  0  0  0  0  0  0
   46.6813   33.5842   46.1344 H   0  0  0  0  0  0  0  0  0  0  0  0
  1  2  1  0
  1 11  1  0
  1  3  1  0
  2  3  1  0
  4  1  1  0
  5  4  1  0
  6  5  1  0
  7  6  1  0
  7  8  1  0
  8  9  1  0
  9  4  1  0
 10 11  2  0
 10 15  1  0
 11 12  1  0
 12 17  1  0
 12 13  2  0
 14 13  1  0
 14 16  1  0
 15 14  2  0
 17 26  2  0
 18 19  2  0
 18 17  1  0
 19 20  1  0
 20 21  2  0
 21 22  1  0
 22 23  2  0
 24 23  1  0
 25 24  2  0
 26 21  1  0
 26 25  1  0
  2 27  1  0
  2 28  1  0
  3 29  1  0
  3 30  1  0
  4 31  1  0
  5 32  1  0
  5 33  1  0
  6 34  1  0
  6 35  1  0
  8 36  1  0
  8 37  1  0
  9 38  1  0
  9 39  1  0
 10 40  1  0
 16 41  1  0
 16 42  1  0
 19 43  1  0
 22 44  1  0
 23 45  1  0
 24 46  1  0
 25 47  1  0
M  ISO  8  27  13  28  13  29  13  30  13  31  13  32  13  33  13  34  13
M  ISO  8  35  13  36  13  37  13  38  13  39  13  40  14  43  14  44  14
M  ISO  3  45  14  46  14  47  14
M  END
>  <minimizedAffinity>  (1) 
-6.07586336

>  <minimizedRMSD>  (1) 
1.44934452

$$$$
