
     RDKit          3D

 40 43  0  0  0  0  0  0  0  0999 V2000
   48.0230   34.5650   41.6870 C   0  0  0  0  0  0  0  0  0  0  0  0
   48.8660   35.8010   41.3950 C   0  0  0  0  0  0  0  0  0  0  0  0
   49.4410   34.6540   42.0650 C   0  0  0  0  0  0  0  0  0  0  0  0
   47.6620   33.7760   40.4800 C   0  0  0  0  0  0  0  0  0  0  0  0
   48.1490   34.3750   39.1620 C   0  0  0  0  0  0  0  0  0  0  0  0
   47.7930   33.2970   38.1190 C   0  0  0  0  0  0  0  0  0  0  0  0
   46.4300   33.4150   37.9180 O   0  0  0  0  0  0  0  0  0  0  0  0
   45.8610   32.8370   39.0910 C   0  0  0  0  0  0  0  0  0  0  0  0
   46.1440   33.7480   40.2840 C   0  0  0  0  0  0  0  0  0  0  0  0
   46.2020   35.8640   42.8120 C   0  0  0  0  0  0  0  0  0  0  0  0
   46.9810   34.6950   42.7640 C   0  0  0  0  0  0  0  0  0  0  0  0
   46.7480   33.7010   43.7340 C   0  0  0  0  0  0  0  0  0  0  0  0
   45.8010   33.9030   44.6620 N   0  0  0  0  0  0  0  0  0  0  0  0
   45.0780   35.0520   44.6600 C   0  0  0  0  0  0  0  0  0  0  0  0
   45.2580   36.0140   43.7710 N   0  0  0  0  0  0  0  0  0  0  0  0
   44.0780   35.2800   45.6520 N   0  0  0  0  0  0  0  0  0  0  0  0
   47.5600   32.4900   43.6800 C   0  0  0  0  0  0  0  0  0  0  0  0
   47.3560   31.5240   44.6460 C   0  0  0  0  0  0  0  0  0  0  0  0
   48.1990   30.4890   44.4220 N   0  0  0  0  0  0  0  0  0  0  0  0
   48.9260   30.7930   43.3330 C   0  0  0  0  0  0  0  0  0  0  0  0
   48.5350   32.0010   42.8890 N   0  0  0  0  0  0  0  0  0  0  0  0
   49.1565   36.0395   40.3612 H   0  0  0  0  0  0  0  0  0  0  0  0
   48.7820   36.8753   41.6161 H   0  0  0  0  0  0  0  0  0  0  0  0
   49.7145   34.7285   43.1279 H   0  0  0  0  0  0  0  0  0  0  0  0
   50.3203   34.0223   41.8705 H   0  0  0  0  0  0  0  0  0  0  0  0
   48.1268   32.7980   40.6735 H   0  0  0  0  0  0  0  0  0  0  0  0
   47.6286   35.3192   38.9439 H   0  0  0  0  0  0  0  0  0  0  0  0
   49.2215   34.6193   39.1745 H   0  0  0  0  0  0  0  0  0  0  0  0
   48.3372   33.4758   37.1799 H   0  0  0  0  0  0  0  0  0  0  0  0
   48.0697   32.2892   38.4622 H   0  0  0  0  0  0  0  0  0  0  0  0
   44.7742   32.7297   38.9589 H   0  0  0  0  0  0  0  0  0  0  0  0
   46.3036   31.8457   39.2681 H   0  0  0  0  0  0  0  0  0  0  0  0
   45.7712   34.7627   40.0805 H   0  0  0  0  0  0  0  0  0  0  0  0
   45.6396   33.3764   41.1882 H   0  0  0  0  0  0  0  0  0  0  0  0
   46.3597   36.6591   42.0684 H   0  0  0  0  0  0  0  0  0  0  0  0
   43.5339   36.1545   45.6433 H   0  0  0  0  0  0  0  0  0  0  0  0
   43.9002   34.5701   46.3768 H   0  0  0  0  0  0  0  0  0  0  0  0
   46.6254   31.5859   45.4660 H   0  0  0  0  0  0  0  0  0  0  0  0
   48.2703   29.6277   44.9824 H   0  0  0  0  0  0  0  0  0  0  0  0
   49.7065   30.1623   42.8824 H   0  0  0  0  0  0  0  0  0  0  0  0
  1  3  1  0
  1 11  1  0
  2  1  1  0
  2  3  1  0
  4  1  1  0
  5  4  1  0
  6  5  1  0
  7  6  1  0
  7  8  1  0
  8  9  1  0
  9  4  1  0
 10 15  2  0
 11 10  1  0
 11 12  2  0
 12 13  1  0
 14 13  2  0
 14 16  1  0
 15 14  1  0
 17 12  1  0
 17 18  2  0
 19 18  1  0
 20 19  1  0
 21 20  2  0
 21 17  1  0
  2 22  1  0
  2 23  1  0
  3 24  1  0
  3 25  1  0
  4 26  1  0
  5 27  1  0
  5 28  1  0
  6 29  1  0
  6 30  1  0
  8 31  1  0
  8 32  1  0
  9 33  1  0
  9 34  1  0
 10 35  1  0
 16 36  1  0
 16 37  1  0
 18 38  1  0
 19 39  1  0
 20 40  1  0
M  ISO  8  22  13  23  13  24  13  25  13  26  13  27  13  28  13  29  13
M  ISO  8  30  13  31  13  32  13  33  13  34  13  35  14  38  14  39   9
M  ISO  1  40  14
M  END
>  <minimizedAffinity>  (1) 
-5.67780304

>  <minimizedRMSD>  (1) 
0.403330415

$$$$
