
     RDKit          3D

 39 42  0  0  0  0  0  0  0  0999 V2000
   47.1310   34.1070   41.6850 C   0  0  0  0  0  0  0  0  0  0  0  0
   48.0400   35.2280   41.1960 C   0  0  0  0  0  0  0  0  0  0  0  0
   48.5880   34.0150   41.7680 C   0  0  0  0  0  0  0  0  0  0  0  0
   46.4240   33.3810   40.5880 C   0  0  0  0  0  0  0  0  0  0  0  0
   47.0060   33.5970   39.2000 C   0  0  0  0  0  0  0  0  0  0  0  0
   46.2120   32.6100   38.3170 C   0  0  0  0  0  0  0  0  0  0  0  0
   44.9540   33.1590   38.1410 O   0  0  0  0  0  0  0  0  0  0  0  0
   44.3160   32.9820   39.3920 C   0  0  0  0  0  0  0  0  0  0  0  0
   44.9750   33.8730   40.4340 C   0  0  0  0  0  0  0  0  0  0  0  0
   45.7910   35.6380   43.1450 C   0  0  0  0  0  0  0  0  0  0  0  0
   46.3550   34.3680   42.9450 C   0  0  0  0  0  0  0  0  0  0  0  0
   46.1640   33.3890   43.9370 C   0  0  0  0  0  0  0  0  0  0  0  0
   45.4420   33.7160   45.0390 N   0  0  0  0  0  0  0  0  0  0  0  0
   44.9210   34.9550   45.1810 C   0  0  0  0  0  0  0  0  0  0  0  0
   45.0830   35.8970   44.2690 N   0  0  0  0  0  0  0  0  0  0  0  0
   44.1580   35.3230   46.3110 N   0  0  0  0  0  0  0  0  0  0  0  0
   46.7390   32.0460   43.7950 C   0  0  0  0  0  0  0  0  0  0  0  0
   45.7710   31.0740   43.3110 C   0  0  0  0  0  0  0  0  0  0  0  0
   46.7960   29.5610   43.2490 S   0  0  0  0  0  0  0  0  0  0  0  0
   48.3520   30.4930   43.8840 C   0  0  0  0  0  0  0  0  0  0  0  0
   47.9670   31.6480   44.0400 N   0  0  0  0  0  0  0  0  0  0  0  0
   48.1424   35.4270   40.1190 H   0  0  0  0  0  0  0  0  0  0  0  0
   48.1368   36.3046   41.3997 H   0  0  0  0  0  0  0  0  0  0  0  0
   49.0775   34.0540   42.7523 H   0  0  0  0  0  0  0  0  0  0  0  0
   49.3229   33.2753   41.4176 H   0  0  0  0  0  0  0  0  0  0  0  0
   46.5193   32.3295   40.8968 H   0  0  0  0  0  0  0  0  0  0  0  0
   46.8522   34.6339   38.8664 H   0  0  0  0  0  0  0  0  0  0  0  0
   48.0922   33.4280   39.1604 H   0  0  0  0  0  0  0  0  0  0  0  0
   46.7108   32.4853   37.3446 H   0  0  0  0  0  0  0  0  0  0  0  0
   46.1490   31.6185   38.7892 H   0  0  0  0  0  0  0  0  0  0  0  0
   43.2529   33.2498   39.3015 H   0  0  0  0  0  0  0  0  0  0  0  0
   44.4068   31.9304   39.7018 H   0  0  0  0  0  0  0  0  0  0  0  0
   44.9645   34.9203   40.0977 H   0  0  0  0  0  0  0  0  0  0  0  0
   44.4375   33.8230   41.3924 H   0  0  0  0  0  0  0  0  0  0  0  0
   45.9247   36.4238   42.3870 H   0  0  0  0  0  0  0  0  0  0  0  0
   43.7761   36.2766   46.3862 H   0  0  0  0  0  0  0  0  0  0  0  0
   43.9835   34.6378   47.0599 H   0  0  0  0  0  0  0  0  0  0  0  0
   44.7107   31.2117   43.0526 H   0  0  0  0  0  0  0  0  0  0  0  0
   49.3572   30.0850   44.0659 H   0  0  0  0  0  0  0  0  0  0  0  0
  1  3  1  0
  1 11  1  0
  2  1  1  0
  2  3  1  0
  4  1  1  0
  5  4  1  0
  6  5  1  0
  7  6  1  0
  7  8  1  0
  8  9  1  0
  9  4  1  0
 10 15  2  0
 11 10  1  0
 11 12  2  0
 12 13  1  0
 13 14  2  0
 14 16  1  0
 15 14  1  0
 17 12  1  0
 17 21  1  0
 18 17  2  0
 19 18  1  0
 19 20  1  0
 20 21  2  0
  2 22  1  0
  2 23  1  0
  3 24  1  0
  3 25  1  0
  4 26  1  0
  5 27  1  0
  5 28  1  0
  6 29  1  0
  6 30  1  0
  8 31  1  0
  8 32  1  0
  9 33  1  0
  9 34  1  0
 10 35  1  0
 16 36  1  0
 16 37  1  0
 18 38  1  0
 20 39  1  0
M  ISO  8  22  13  23  13  24  13  25  13  26  13  27  13  28  13  29  13
M  ISO  8  30  13  31  13  32  13  33  13  34  13  35  14  38  14  39  14
M  END
>  <minimizedAffinity>  (1) 
-5.08275843

>  <minimizedRMSD>  (1) 
1.54180348

$$$$
