
     RDKit          3D

 46 50  0  0  1  0  0  0  0  0999 V2000
   48.3600   33.9370   42.0280 C   0  0  0  0  0  0  0  0  0  0  0  0
   49.6070   34.7660   42.3560 C   0  0  0  0  0  0  0  0  0  0  0  0
   49.4570   33.4170   42.8370 C   0  0  0  0  0  0  0  0  0  0  0  0
   48.2700   33.5330   40.5980 C   0  0  0  0  0  0  0  0  0  0  0  0
   48.1870   34.6870   39.6120 C   0  0  0  0  0  0  0  0  0  0  0  0
   48.2410   34.0170   38.2330 C   0  0  0  0  0  0  0  0  0  0  0  0
   46.9690   33.4630   38.0270 O   0  0  0  0  0  0  0  0  0  0  0  0
   46.9710   32.3280   38.8760 C   0  0  0  0  0  0  0  0  0  0  0  0
   46.9640   32.7590   40.3250 C   0  0  0  0  0  0  0  0  0  0  0  0
   46.5660   35.6350   42.4480 C   0  0  0  0  0  0  0  0  0  0  0  0
   47.0940   34.3790   42.6890 C   0  0  0  0  0  0  0  0  0  0  0  0
   46.4050   33.5600   43.5770 C   0  0  0  0  0  0  0  0  0  0  0  0
   45.2550   33.9970   44.1730 N   0  0  0  0  0  0  0  0  0  0  0  0
   44.8020   35.2240   43.8920 C   0  0  0  0  0  0  0  0  0  0  0  0
   45.4310   36.0290   43.0550 N   0  0  0  0  0  0  0  0  0  0  0  0
   43.6140   35.7470   44.4730 N   0  0  0  0  0  0  0  0  0  0  0  0
   46.8840   32.2560   43.9800 C   0  0  0  0  0  0  0  0  0  0  0  0
   46.9360   31.1770   43.3340 O   0  0  0  0  0  0  0  0  0  0  0  0
   47.4650   31.2860   44.9220 C   0  0  1  0  0  0  0  0  0  0  0  0
   46.6270   30.0290   45.0500 C   0  0  0  0  0  0  0  0  0  0  0  0
   45.5700   30.4340   46.0180 C   0  0  0  0  0  0  0  0  0  0  0  0
   45.8840   31.6930   46.5110 O   0  0  0  0  0  0  0  0  0  0  0  0
   47.2670   31.8000   46.3810 C   0  0  0  0  0  0  0  0  0  0  0  0
   50.3419   34.9951   41.5703 H   0  0  0  0  0  0  0  0  0  0  0  0
   49.7998   35.7468   42.8152 H   0  0  0  0  0  0  0  0  0  0  0  0
   49.2987   33.2423   43.9114 H   0  0  0  0  0  0  0  0  0  0  0  0
   50.0853   32.5168   42.7670 H   0  0  0  0  0  0  0  0  0  0  0  0
   49.1927   32.9528   40.4499 H   0  0  0  0  0  0  0  0  0  0  0  0
   47.2448   35.2402   39.7391 H   0  0  0  0  0  0  0  0  0  0  0  0
   48.9963   35.4183   39.7542 H   0  0  0  0  0  0  0  0  0  0  0  0
   48.4655   34.7608   37.4543 H   0  0  0  0  0  0  0  0  0  0  0  0
   49.0287   33.2507   38.1859 H   0  0  0  0  0  0  0  0  0  0  0  0
   46.0762   31.7212   38.6732 H   0  0  0  0  0  0  0  0  0  0  0  0
   47.8781   31.7367   38.6821 H   0  0  0  0  0  0  0  0  0  0  0  0
   46.0976   33.4091   40.5170 H   0  0  0  0  0  0  0  0  0  0  0  0
   46.8948   31.8814   40.9845 H   0  0  0  0  0  0  0  0  0  0  0  0
   47.0783   36.3177   41.7541 H   0  0  0  0  0  0  0  0  0  0  0  0
   43.2975   36.6969   44.2314 H   0  0  0  0  0  0  0  0  0  0  0  0
   43.0701   35.1759   45.1354 H   0  0  0  0  0  0  0  0  0  0  0  0
   47.8925   32.5174   43.6272 H   0  0  0  0  0  0  0  0  0  0  0  0
   46.1894   29.7442   44.0818 H   0  0  0  0  0  0  0  0  0  0  0  0
   47.2046   29.1521   45.3777 H   0  0  0  0  0  0  0  0  0  0  0  0
   44.5947   30.4668   45.5104 H   0  0  0  0  0  0  0  0  0  0  0  0
   45.5163   29.7085   46.8431 H   0  0  0  0  0  0  0  0  0  0  0  0
   47.7923   31.1641   47.1088 H   0  0  0  0  0  0  0  0  0  0  0  0
   47.6648   32.8087   46.5660 H   0  0  0  0  0  0  0  0  0  0  0  0
  1  2  1  0
  1 11  1  0
  1  3  1  0
  2  3  1  0
  4  1  1  0
  5  4  1  0
  6  5  1  0
  7  6  1  0
  7  8  1  0
  8  9  1  0
  9  4  1  0
 10 11  2  0
 10 15  1  0
 11 12  1  0
 12 13  2  0
 14 13  1  0
 14 16  1  0
 15 14  2  0
 17 12  1  0
 17 19  1  0
 18 17  1  0
 19 18  1  6
 19 20  1  0
 19 23  1  0
 20 21  1  0
 21 22  1  0
 23 22  1  0
  2 24  1  0
  2 25  1  0
  3 26  1  0
  3 27  1  0
  4 28  1  0
  5 29  1  0
  5 30  1  0
  6 31  1  0
  6 32  1  0
  8 33  1  0
  8 34  1  0
  9 35  1  0
  9 36  1  0
 10 37  1  0
 16 38  1  0
 16 39  1  0
 17 40  1  0
 20 41  1  0
 20 42  1  0
 21 43  1  0
 21 44  1  0
 23 45  1  0
 23 46  1  0
M  ISO  8  24  13  25  13  26  13  27  13  28  13  29  13  30  13  31  13
M  ISO  8  32  13  33  13  34  13  35  13  36  13  37  14  40  13  41  13
M  ISO  5  42  13  43  13  44  13  45  13  46  13
M  END
>  <minimizedAffinity>  (1) 
-5.22896194

>  <minimizedRMSD>  (1) 
1.57269478

$$$$
