
     RDKit          3D

 34 36  0  0  0  0  0  0  0  0999 V2000
   45.9550   32.8020   47.0240 C   0  0  0  0  0  0  0  0  0  0  0  0
   47.2110   32.2680   47.2590 C   0  0  0  0  0  0  0  0  0  0  0  0
   47.4520   31.4350   48.3340 C   0  0  0  0  0  0  0  0  0  0  0  0
   46.4220   31.1120   49.2110 C   0  0  0  0  0  0  0  0  0  0  0  0
   45.1770   31.6310   48.9900 C   0  0  0  0  0  0  0  0  0  0  0  0
   44.9680   32.4590   47.9110 C   0  0  0  0  0  0  0  0  0  0  0  0
   44.5630   35.5120   45.0190 C   0  0  0  0  0  0  0  0  0  0  0  0
   45.2220   35.4160   43.7950 C   0  0  0  0  0  0  0  0  0  0  0  0
   46.1670   34.3950   43.6550 C   0  0  0  0  0  0  0  0  0  0  0  0
   46.4150   33.5390   44.6950 N   0  0  0  0  0  0  0  0  0  0  0  0
   45.7350   33.6850   45.8730 C   0  0  0  0  0  0  0  0  0  0  0  0
   44.8080   34.6710   46.0350 N   0  0  0  0  0  0  0  0  0  0  0  0
   48.7790   30.9100   48.5280 N   0  0  0  0  0  0  0  0  0  0  0  0
   49.6290   31.6580   49.4450 C   0  0  0  0  0  0  0  0  0  0  0  0
   51.0120   31.1110   49.5380 C   0  0  0  0  0  0  0  0  0  0  0  0
   51.1750   29.7450   49.1720 N   0  0  0  0  0  0  0  0  0  0  0  0
   50.5920   29.3900   47.9080 C   0  0  0  0  0  0  0  0  0  0  0  0
   49.1400   29.6920   47.7940 C   0  0  0  0  0  0  0  0  0  0  0  0
   48.0358   32.5130   46.5736 H   0  0  0  0  0  0  0  0  0  0  0  0
   46.6065   30.4491   50.0692 H   0  0  0  0  0  0  0  0  0  0  0  0
   44.3474   31.3883   49.6704 H   0  0  0  0  0  0  0  0  0  0  0  0
   43.9584   32.8659   47.7524 H   0  0  0  0  0  0  0  0  0  0  0  0
   43.8147   36.3063   45.1572 H   0  0  0  0  0  0  0  0  0  0  0  0
   45.0076   36.1146   42.9728 H   0  0  0  0  0  0  0  0  0  0  0  0
   46.7127   34.2790   42.7070 H   0  0  0  0  0  0  0  0  0  0  0  0
   49.6873   32.7000   49.0973 H   0  0  0  0  0  0  0  0  0  0  0  0
   49.1784   31.5823   50.4456 H   0  0  0  0  0  0  0  0  0  0  0  0
   51.6558   31.7135   48.8803 H   0  0  0  0  0  0  0  0  0  0  0  0
   51.2774   31.1631   50.6042 H   0  0  0  0  0  0  0  0  0  0  0  0
   52.1839   29.5424   49.1285 H   0  0  0  0  0  0  0  0  0  0  0  0
   51.1213   29.9426   47.1178 H   0  0  0  0  0  0  0  0  0  0  0  0
   50.6941   28.2991   47.8108 H   0  0  0  0  0  0  0  0  0  0  0  0
   48.8865   29.8275   46.7322 H   0  0  0  0  0  0  0  0  0  0  0  0
   48.5800   28.8511   48.2292 H   0  0  0  0  0  0  0  0  0  0  0  0
  1  2  2  0
  1  6  1  0
  2  3  1  0
  3 13  1  0
  3  4  2  0
  5  4  1  0
  6  5  2  0
  7 12  2  0
  8  7  1  0
  9  8  2  0
  9 10  1  0
 10 11  2  0
 11 12  1  0
 11  1  1  0
 13 14  1  0
 14 15  1  0
 16 15  1  0
 17 16  1  0
 18 17  1  0
 18 13  1  0
  2 19  1  0
  4 20  1  0
  5 21  1  0
  6 22  1  0
  7 23  1  0
  8 24  1  0
  9 25  1  0
 14 26  1  0
 14 27  1  0
 15 28  1  0
 15 29  1  0
 16 30  1  0
 17 31  1  0
 17 32  1  0
 18 33  1  0
 18 34  1  0
M  ISO  8  19  14  20  14  21  14  22  14  23  14  24  14  25  14  26  13
M  ISO  8  27  13  28  13  29  13  30   5  31  13  32  13  33  13  34  13
M  END
>  <minimizedAffinity>  (1) 
-5.49414587

>  <minimizedRMSD>  (1) 
0.659222186

$$$$
