
     RDKit          3D

 32 34  0  0  0  0  0  0  0  0999 V2000
   46.0210   32.7480   47.0460 C   0  0  0  0  0  0  0  0  0  0  0  0
   47.2640   32.3050   47.4660 C   0  0  0  0  0  0  0  0  0  0  0  0
   47.4010   31.5110   48.5840 C   0  0  0  0  0  0  0  0  0  0  0  0
   46.3190   31.1230   49.3320 C   0  0  0  0  0  0  0  0  0  0  0  0
   45.0860   31.5500   48.9330 C   0  0  0  0  0  0  0  0  0  0  0  0
   44.9340   32.3510   47.8090 C   0  0  0  0  0  0  0  0  0  0  0  0
   44.7480   35.3520   44.8250 C   0  0  0  0  0  0  0  0  0  0  0  0
   45.5140   35.2160   43.6690 C   0  0  0  0  0  0  0  0  0  0  0  0
   46.4860   34.2110   43.6480 C   0  0  0  0  0  0  0  0  0  0  0  0
   46.6340   33.4210   44.7580 N   0  0  0  0  0  0  0  0  0  0  0  0
   45.8670   33.5870   45.8660 C   0  0  0  0  0  0  0  0  0  0  0  0
   44.9200   34.5580   45.8960 N   0  0  0  0  0  0  0  0  0  0  0  0
   48.7050   31.0890   48.9640 N   0  0  0  0  0  0  0  0  0  0  0  0
   49.1840   29.7280   48.7940 C   0  0  0  0  0  0  0  0  0  0  0  0
   50.4890   29.6420   49.5260 C   0  0  0  0  0  0  0  0  0  0  0  0
   50.4870   30.8610   50.4310 C   0  0  0  0  0  0  0  0  0  0  0  0
   49.7650   31.8770   49.5620 C   0  0  0  0  0  0  0  0  0  0  0  0
   48.1597   32.5926   46.8959 H   0  0  0  0  0  0  0  0  0  0  0  0
   46.4409   30.4894   50.2229 H   0  0  0  0  0  0  0  0  0  0  0  0
   44.1980   31.2549   49.5112 H   0  0  0  0  0  0  0  0  0  0  0  0
   43.9255   32.6788   47.5167 H   0  0  0  0  0  0  0  0  0  0  0  0
   43.9767   36.1354   44.8625 H   0  0  0  0  0  0  0  0  0  0  0  0
   45.3594   35.8764   42.8030 H   0  0  0  0  0  0  0  0  0  0  0  0
   47.1176   34.0579   42.7605 H   0  0  0  0  0  0  0  0  0  0  0  0
   48.4621   29.0151   49.2190 H   0  0  0  0  0  0  0  0  0  0  0  0
   49.3077   29.4797   47.7296 H   0  0  0  0  0  0  0  0  0  0  0  0
   50.5445   28.7164   50.1178 H   0  0  0  0  0  0  0  0  0  0  0  0
   51.3537   29.6222   48.8464 H   0  0  0  0  0  0  0  0  0  0  0  0
   49.9387   30.6681   51.3649 H   0  0  0  0  0  0  0  0  0  0  0  0
   51.4874   31.1795   50.7592 H   0  0  0  0  0  0  0  0  0  0  0  0
   50.4352   32.2888   48.7931 H   0  0  0  0  0  0  0  0  0  0  0  0
   49.3974   32.7486   50.1233 H   0  0  0  0  0  0  0  0  0  0  0  0
  1  2  2  0
  1  6  1  0
  2  3  1  0
  3 13  1  0
  3  4  2  0
  5  4  1  0
  6  5  2  0
  7 12  2  0
  8  7  1  0
  9  8  2  0
  9 10  1  0
 10 11  2  0
 11 12  1  0
 11  1  1  0
 13 17  1  0
 14 13  1  0
 14 15  1  0
 15 16  1  0
 17 16  1  0
  2 18  1  0
  4 19  1  0
  5 20  1  0
  6 21  1  0
  7 22  1  0
  8 23  1  0
  9 24  1  0
 14 25  1  0
 14 26  1  0
 15 27  1  0
 15 28  1  0
 16 29  1  0
 16 30  1  0
 17 31  1  0
 17 32  1  0
M  ISO  8  18  14  19  14  20  14  21  14  22  14  23  14  24  14  25  13
M  ISO  7  26  13  27  13  28  13  29  13  30  13  31  13  32  13
M  END
>  <minimizedAffinity>  (1) 
-5.46919107

>  <minimizedRMSD>  (1) 
0.771565616

$$$$
