
     RDKit          3D

 26 27  0  0  0  0  0  0  0  0999 V2000
   45.9710   32.9090   47.0100 C   0  0  0  0  0  0  0  0  0  0  0  0
   47.2720   32.7110   47.4450 C   0  0  0  0  0  0  0  0  0  0  0  0
   47.5420   31.9160   48.5600 C   0  0  0  0  0  0  0  0  0  0  0  0
   46.5170   31.3090   49.2570 C   0  0  0  0  0  0  0  0  0  0  0  0
   45.2270   31.5040   48.8280 C   0  0  0  0  0  0  0  0  0  0  0  0
   44.9750   32.2900   47.7260 C   0  0  0  0  0  0  0  0  0  0  0  0
   44.5080   35.5510   44.9510 C   0  0  0  0  0  0  0  0  0  0  0  0
   45.1440   35.3790   43.7020 C   0  0  0  0  0  0  0  0  0  0  0  0
   46.0920   34.3360   43.5690 C   0  0  0  0  0  0  0  0  0  0  0  0
   46.3350   33.5590   44.6500 N   0  0  0  0  0  0  0  0  0  0  0  0
   45.7090   33.7470   45.8380 C   0  0  0  0  0  0  0  0  0  0  0  0
   44.7930   34.7450   45.9940 N   0  0  0  0  0  0  0  0  0  0  0  0
   48.8280   31.6930   49.0280 O   0  0  0  0  0  0  0  0  0  0  0  0
   50.9410   30.1840   49.0310 O   0  0  0  0  0  0  0  0  0  0  0  0
   49.4720   30.1850   49.4470 P   0  0  0  0  0  0  0  0  0  0  0  0
   49.4320   29.9600   51.1280 O   0  0  0  0  0  0  0  0  0  0  0  0
   48.6630   28.9720   48.6270 O   0  0  0  0  0  0  0  0  0  0  0  0
   48.1032   33.1869   46.9041 H   0  0  0  0  0  0  0  0  0  0  0  0
   46.7286   30.6830   50.1364 H   0  0  0  0  0  0  0  0  0  0  0  0
   44.3926   31.0308   49.3664 H   0  0  0  0  0  0  0  0  0  0  0  0
   43.9320   32.4283   47.4052 H   0  0  0  0  0  0  0  0  0  0  0  0
   43.7681   36.3555   45.0752 H   0  0  0  0  0  0  0  0  0  0  0  0
   44.9088   36.0388   42.8538 H   0  0  0  0  0  0  0  0  0  0  0  0
   46.6147   34.1626   42.6168 H   0  0  0  0  0  0  0  0  0  0  0  0
   49.5861   30.8268   51.5807 H   0  0  0  0  0  0  0  0  0  0  0  0
   48.2495   28.3521   49.2788 H   0  0  0  0  0  0  0  0  0  0  0  0
  1  2  2  0
  1  6  1  0
  2  3  1  0
  3 13  1  0
  3  4  2  0
  5  4  1  0
  6  5  2  0
  7 12  2  0
  8  7  1  0
  9  8  2  0
  9 10  1  0
 10 11  2  0
 11 12  1  0
 11  1  1  0
 13 15  1  0
 14 15  2  0
 15 16  1  0
 17 15  1  0
  2 18  1  0
  4 19  1  0
  5 20  1  0
  6 21  1  0
  7 22  1  0
  8 23  1  0
  9 24  1  0
 16 25  1  0
 17 26  1  0
M  ISO  8  18  14  19  14  20  14  21  14  22  14  23  14  24  14  25   3
M  ISO  1  26   3
M  END
>  <minimizedAffinity>  (1) 
-5.36747551

>  <minimizedRMSD>  (1) 
0.852252722

$$$$
