
     RDKit          3D

 31 33  0  0  0  0  0  0  0  0999 V2000
   46.0370   32.7260   46.9330 C   0  0  0  0  0  0  0  0  0  0  0  0
   47.1730   31.9360   47.0590 C   0  0  0  0  0  0  0  0  0  0  0  0
   47.3690   31.0990   48.1400 C   0  0  0  0  0  0  0  0  0  0  0  0
   46.4190   31.0300   49.1380 C   0  0  0  0  0  0  0  0  0  0  0  0
   45.2810   31.7990   49.0440 C   0  0  0  0  0  0  0  0  0  0  0  0
   45.1120   32.6300   47.9460 C   0  0  0  0  0  0  0  0  0  0  0  0
   44.7120   35.4010   44.8410 C   0  0  0  0  0  0  0  0  0  0  0  0
   45.4330   35.3150   43.6640 C   0  0  0  0  0  0  0  0  0  0  0  0
   46.3960   34.3160   43.5880 C   0  0  0  0  0  0  0  0  0  0  0  0
   46.6110   33.4590   44.6430 N   0  0  0  0  0  0  0  0  0  0  0  0
   45.8630   33.6000   45.7750 C   0  0  0  0  0  0  0  0  0  0  0  0
   44.9130   34.5690   45.8770 N   0  0  0  0  0  0  0  0  0  0  0  0
   48.8480   30.1240   48.2230 S   0  0  0  0  0  0  0  0  0  0  0  0
   49.8190   30.6390   49.6050 C   0  0  0  0  0  0  0  0  0  0  0  0
   50.1510   29.7140   50.5800 C   0  0  0  0  0  0  0  0  0  0  0  0
   50.8940   29.9540   51.7070 C   0  0  0  0  0  0  0  0  0  0  0  0
   51.3620   31.2490   51.8920 C   0  0  0  0  0  0  0  0  0  0  0  0
   51.0640   32.2270   50.9470 C   0  0  0  0  0  0  0  0  0  0  0  0
   50.3110   31.9200   49.8350 C   0  0  0  0  0  0  0  0  0  0  0  0
   47.9409   31.9785   46.2726 H   0  0  0  0  0  0  0  0  0  0  0  0
   46.5696   30.3659   50.0019 H   0  0  0  0  0  0  0  0  0  0  0  0
   44.5139   31.7550   49.8311 H   0  0  0  0  0  0  0  0  0  0  0  0
   44.1980   33.2388   47.8830 H   0  0  0  0  0  0  0  0  0  0  0  0
   43.9429   36.1820   44.9329 H   0  0  0  0  0  0  0  0  0  0  0  0
   45.2526   36.0053   42.8268 H   0  0  0  0  0  0  0  0  0  0  0  0
   46.9949   34.2088   42.6716 H   0  0  0  0  0  0  0  0  0  0  0  0
   49.7832   28.6873   50.4367 H   0  0  0  0  0  0  0  0  0  0  0  0
   51.1101   29.1563   52.4329 H   0  0  0  0  0  0  0  0  0  0  0  0
   51.9634   31.4997   52.7783 H   0  0  0  0  0  0  0  0  0  0  0  0
   51.4329   33.2535   51.0895 H   0  0  0  0  0  0  0  0  0  0  0  0
   50.0916   32.7133   49.1053 H   0  0  0  0  0  0  0  0  0  0  0  0
  1  2  2  0
  1  6  1  0
  2  3  1  0
  3 13  1  0
  3  4  2  0
  5  4  1  0
  6  5  2  0
  7 12  2  0
  8  7  1  0
  9  8  2  0
  9 10  1  0
 10 11  2  0
 11 12  1  0
 11  1  1  0
 13 14  1  0
 14 19  1  0
 14 15  2  0
 15 16  1  0
 16 17  2  0
 18 17  1  0
 19 18  2  0
  2 20  1  0
  4 21  1  0
  5 22  1  0
  6 23  1  0
  7 24  1  0
  8 25  1  0
  9 26  1  0
 15 27  1  0
 16 28  1  0
 17 29  1  0
 18 30  1  0
 19 31  1  0
M  ISO  8  20  14  21  14  22  14  23  14  24  14  25  14  26  14  27  14
M  ISO  4  28  14  29  14  30  14  31  14
M  END
>  <minimizedAffinity>  (1) 
-5.93251038

>  <minimizedRMSD>  (1) 
1.67337251

$$$$
