
     RDKit          3D

 36 38  0  0  0  0  0  0  0  0999 V2000
   46.0350   32.7280   47.0020 C   0  0  0  0  0  0  0  0  0  0  0  0
   47.2560   32.1150   47.2700 C   0  0  0  0  0  0  0  0  0  0  0  0
   47.4250   31.3070   48.3690 C   0  0  0  0  0  0  0  0  0  0  0  0
   46.3680   31.0820   49.2450 C   0  0  0  0  0  0  0  0  0  0  0  0
   45.1720   31.6680   49.0020 C   0  0  0  0  0  0  0  0  0  0  0  0
   45.0080   32.4820   47.8940 C   0  0  0  0  0  0  0  0  0  0  0  0
   44.7330   35.3630   44.8390 C   0  0  0  0  0  0  0  0  0  0  0  0
   45.4800   35.2500   43.6770 C   0  0  0  0  0  0  0  0  0  0  0  0
   46.4530   34.2520   43.6290 C   0  0  0  0  0  0  0  0  0  0  0  0
   46.6400   33.4300   44.7000 N   0  0  0  0  0  0  0  0  0  0  0  0
   45.8710   33.5860   45.8270 C   0  0  0  0  0  0  0  0  0  0  0  0
   44.9190   34.5510   45.8980 N   0  0  0  0  0  0  0  0  0  0  0  0
   49.0010   30.5530   48.6550 S   0  0  0  0  0  0  0  0  0  0  0  0
   52.1650   31.1420   51.5530 N   0  0  0  0  0  0  0  0  0  0  0  0
   52.1810   31.8290   50.2740 C   0  0  0  0  0  0  0  0  0  0  0  0
   50.7730   32.1530   49.8640 C   0  0  0  0  0  0  0  0  0  0  0  0
   49.7720   31.1030   50.2040 C   0  0  0  0  0  0  0  0  0  0  0  0
   50.2330   29.9090   50.9360 C   0  0  0  0  0  0  0  0  0  0  0  0
   51.6870   29.8090   51.2400 C   0  0  0  0  0  0  0  0  0  0  0  0
   48.1030   32.2808   46.5880 H   0  0  0  0  0  0  0  0  0  0  0  0
   46.5024   30.4355   50.1248 H   0  0  0  0  0  0  0  0  0  0  0  0
   44.3282   31.4970   49.6867 H   0  0  0  0  0  0  0  0  0  0  0  0
   44.0276   32.9486   47.7176 H   0  0  0  0  0  0  0  0  0  0  0  0
   43.9604   36.1438   44.8988 H   0  0  0  0  0  0  0  0  0  0  0  0
   45.3115   35.9231   42.8235 H   0  0  0  0  0  0  0  0  0  0  0  0
   47.0697   34.1282   42.7266 H   0  0  0  0  0  0  0  0  0  0  0  0
   53.1111   31.1042   51.9583 H   0  0  0  0  0  0  0  0  0  0  0  0
   52.7602   32.7597   50.3646 H   0  0  0  0  0  0  0  0  0  0  0  0
   52.6449   31.1818   49.5151 H   0  0  0  0  0  0  0  0  0  0  0  0
   50.7583   32.3013   48.7741 H   0  0  0  0  0  0  0  0  0  0  0  0
   50.4837   33.0537   50.4253 H   0  0  0  0  0  0  0  0  0  0  0  0
   49.0928   31.5981   50.9136 H   0  0  0  0  0  0  0  0  0  0  0  0
   49.6932   29.8808   51.8940 H   0  0  0  0  0  0  0  0  0  0  0  0
   50.0297   29.0677   50.2571 H   0  0  0  0  0  0  0  0  0  0  0  0
   51.8447   29.1427   52.1009 H   0  0  0  0  0  0  0  0  0  0  0  0
   52.2330   29.3964   50.3788 H   0  0  0  0  0  0  0  0  0  0  0  0
  1  2  2  0
  1  6  1  0
  2  3  1  0
  3 13  1  0
  3  4  2  0
  5  4  1  0
  6  5  2  0
  7 12  2  0
  8  7  1  0
  9  8  2  0
  9 10  1  0
 10 11  2  0
 11 12  1  0
 11  1  1  0
 13 17  1  0
 15 14  1  0
 16 17  1  0
 16 15  1  0
 17 18  1  0
 18 19  1  0
 19 14  1  0
  2 20  1  0
  4 21  1  0
  5 22  1  0
  6 23  1  0
  7 24  1  0
  8 25  1  0
  9 26  1  0
 14 27  1  0
 15 28  1  0
 15 29  1  0
 16 30  1  0
 16 31  1  0
 17 32  1  0
 18 33  1  0
 18 34  1  0
 19 35  1  0
 19 36  1  0
M  ISO  8  20  14  21  14  22  14  23  14  24  14  25  14  26  14  27   5
M  ISO  8  28  13  29  13  30  13  31  13  32  13  33  13  34  13  35  13
M  ISO  1  36  13
M  END
>  <minimizedAffinity>  (1) 
-5.66512108

>  <minimizedRMSD>  (1) 
1.22537708

$$$$
