
     RDKit          3D

 38 40  0  0  1  0  0  0  0  0999 V2000
   45.9150   32.7740   47.1010 C   0  0  0  0  0  0  0  0  0  0  0  0
   47.1850   32.4960   47.5560 C   0  0  0  0  0  0  0  0  0  0  0  0
   47.4110   31.6740   48.6420 C   0  0  0  0  0  0  0  0  0  0  0  0
   46.3360   31.0940   49.3160 C   0  0  0  0  0  0  0  0  0  0  0  0
   45.0650   31.3580   48.8790 C   0  0  0  0  0  0  0  0  0  0  0  0
   44.8680   32.1910   47.7810 C   0  0  0  0  0  0  0  0  0  0  0  0
   44.5770   35.4680   45.0360 C   0  0  0  0  0  0  0  0  0  0  0  0
   45.2550   35.3200   43.8150 C   0  0  0  0  0  0  0  0  0  0  0  0
   46.1750   34.2890   43.7040 C   0  0  0  0  0  0  0  0  0  0  0  0
   46.3780   33.4740   44.7750 N   0  0  0  0  0  0  0  0  0  0  0  0
   45.7020   33.6470   45.9440 C   0  0  0  0  0  0  0  0  0  0  0  0
   44.7980   34.6450   46.0800 N   0  0  0  0  0  0  0  0  0  0  0  0
   49.0700   31.3640   49.1770 S   0  0  0  0  0  0  0  0  0  0  0  0
   49.9300   29.1420   47.7490 C   0  0  1  0  0  0  0  0  0  0  0  0
   49.5060   29.6210   49.1200 C   0  0  1  0  0  0  0  0  0  0  0  0
   50.5730   29.3070   49.9600 O   0  0  0  0  0  0  0  0  0  0  0  0
   50.4360   27.9760   50.2760 C   0  0  0  0  0  0  0  0  0  0  0  0
   50.3420   27.0530   49.1180 C   0  0  2  0  0  0  0  0  0  0  0  0
   49.9280   27.6360   47.8120 C   0  0  2  0  0  0  0  0  0  0  0  0
   49.1290   29.6090   46.7350 O   0  0  0  0  0  0  0  0  0  0  0  0
   49.4500   26.0370   49.4890 O   0  0  0  0  0  0  0  0  0  0  0  0
   50.7040   27.1740   46.7500 O   0  0  0  0  0  0  0  0  0  0  0  0
   48.0462   32.9429   47.0378 H   0  0  0  0  0  0  0  0  0  0  0  0
   46.5059   30.4372   50.1819 H   0  0  0  0  0  0  0  0  0  0  0  0
   44.2014   30.9126   49.3947 H   0  0  0  0  0  0  0  0  0  0  0  0
   43.8400   32.3908   47.4444 H   0  0  0  0  0  0  0  0  0  0  0  0
   43.8432   36.2804   45.1434 H   0  0  0  0  0  0  0  0  0  0  0  0
   45.0620   36.0010   42.9730 H   0  0  0  0  0  0  0  0  0  0  0  0
   46.7307   34.1325   42.7677 H   0  0  0  0  0  0  0  0  0  0  0  0
   50.9275   29.5373   47.5067 H   0  0  0  0  0  0  0  0  0  0  0  0
   48.5757   29.1256   49.4348 H   0  0  0  0  0  0  0  0  0  0  0  0
   51.3079   27.6785   50.8771 H   0  0  0  0  0  0  0  0  0  0  0  0
   49.4791   27.8887   50.8114 H   0  0  0  0  0  0  0  0  0  0  0  0
   51.3659   26.7054   48.9160 H   0  0  0  0  0  0  0  0  0  0  0  0
   48.8871   27.2922   47.7204 H   0  0  0  0  0  0  0  0  0  0  0  0
   48.3415   30.0681   47.1213 H   0  0  0  0  0  0  0  0  0  0  0  0
   49.4030   25.9835   50.4764 H   0  0  0  0  0  0  0  0  0  0  0  0
   51.4986   26.7009   47.1033 H   0  0  0  0  0  0  0  0  0  0  0  0
  1  2  2  0
  1  6  1  0
  2  3  1  0
  3 13  1  0
  3  4  2  0
  5  4  1  0
  6  5  2  0
  7 12  2  0
  8  7  1  0
  9  8  2  0
  9 10  1  0
 10 11  2  0
 11 12  1  0
 11  1  1  0
 14 20  1  0
 14 19  1  0
 14 15  1  0
 15 13  1  0
 15 16  1  0
 16 17  1  0
 18 21  1  0
 18 17  1  0
 19 22  1  0
 19 18  1  0
  2 23  1  0
  4 24  1  0
  5 25  1  0
  6 26  1  0
  7 27  1  0
  8 28  1  0
  9 29  1  0
 14 30  1  6
 15 31  1  1
 17 32  1  0
 17 33  1  0
 18 34  1  6
 19 35  1  6
 20 36  1  0
 21 37  1  0
 22 38  1  0
M  ISO  8  23  14  24  14  25  14  26  14  27  14  28  14  29  14  30  13
M  ISO  8  31  13  32  13  33  13  34  13  35  13  36   3  37   3  38   3
M  END
>  <minimizedAffinity>  (1) 
-5.55387926

>  <minimizedRMSD>  (1) 
1.14127064

$$$$
