
     RDKit          3D

 35 38  0  0  0  0  0  0  0  0999 V2000
   46.1380   32.6660   46.9480 C   0  0  0  0  0  0  0  0  0  0  0  0
   47.2620   31.8820   47.0550 C   0  0  0  0  0  0  0  0  0  0  0  0
   47.4680   31.0490   48.1340 C   0  0  0  0  0  0  0  0  0  0  0  0
   46.5160   30.9870   49.1560 C   0  0  0  0  0  0  0  0  0  0  0  0
   45.3990   31.7510   49.0750 C   0  0  0  0  0  0  0  0  0  0  0  0
   45.2260   32.5730   47.9820 C   0  0  0  0  0  0  0  0  0  0  0  0
   44.7230   35.3340   44.8900 C   0  0  0  0  0  0  0  0  0  0  0  0
   45.4590   35.2520   43.6960 C   0  0  0  0  0  0  0  0  0  0  0  0
   46.4440   34.2780   43.5980 C   0  0  0  0  0  0  0  0  0  0  0  0
   46.6760   33.4290   44.6500 N   0  0  0  0  0  0  0  0  0  0  0  0
   45.9320   33.5470   45.7960 C   0  0  0  0  0  0  0  0  0  0  0  0
   44.9680   34.4910   45.9060 N   0  0  0  0  0  0  0  0  0  0  0  0
   48.9490   30.0650   48.1980 S   0  0  0  0  0  0  0  0  0  0  0  0
   49.9070   30.5420   49.6290 C   0  0  0  0  0  0  0  0  0  0  0  0
   50.1170   31.8140   50.0460 N   0  0  0  0  0  0  0  0  0  0  0  0
   50.8390   32.1150   51.1200 C   0  0  0  0  0  0  0  0  0  0  0  0
   51.3850   31.1030   51.8220 N   0  0  0  0  0  0  0  0  0  0  0  0
   51.2310   29.8140   51.4840 C   0  0  0  0  0  0  0  0  0  0  0  0
   51.7880   28.7600   52.1990 C   0  0  0  0  0  0  0  0  0  0  0  0
   51.5940   27.4490   51.8010 C   0  0  0  0  0  0  0  0  0  0  0  0
   50.8390   27.1310   50.6790 C   0  0  0  0  0  0  0  0  0  0  0  0
   50.3060   28.2000   50.0000 C   0  0  0  0  0  0  0  0  0  0  0  0
   50.4780   29.5210   50.3670 C   0  0  0  0  0  0  0  0  0  0  0  0
   48.0184   31.9203   46.2572 H   0  0  0  0  0  0  0  0  0  0  0  0
   46.6721   30.3234   50.0193 H   0  0  0  0  0  0  0  0  0  0  0  0
   44.6407   31.7154   49.8710 H   0  0  0  0  0  0  0  0  0  0  0  0
   44.3146   33.1868   47.9302 H   0  0  0  0  0  0  0  0  0  0  0  0
   43.9375   36.0971   44.9936 H   0  0  0  0  0  0  0  0  0  0  0  0
   45.2604   35.9406   42.8615 H   0  0  0  0  0  0  0  0  0  0  0  0
   47.0382   34.1874   42.6767 H   0  0  0  0  0  0  0  0  0  0  0  0
   50.9868   33.1608   51.4273 H   0  0  0  0  0  0  0  0  0  0  0  0
   52.3916   28.9712   53.0940 H   0  0  0  0  0  0  0  0  0  0  0  0
   52.0493   26.6378   52.3881 H   0  0  0  0  0  0  0  0  0  0  0  0
   50.6785   26.0920   50.3555 H   0  0  0  0  0  0  0  0  0  0  0  0
   49.7022   27.9903   49.1047 H   0  0  0  0  0  0  0  0  0  0  0  0
  1  2  2  0
  1  6  1  0
  2  3  1  0
  3 13  1  0
  3  4  2  0
  5  4  1  0
  6  5  2  0
  7 12  2  0
  8  7  1  0
  9  8  2  0
  9 10  1  0
 10 11  2  0
 11 12  1  0
 11  1  1  0
 13 14  1  0
 14 15  2  0
 14 23  1  0
 15 16  1  0
 16 17  2  0
 18 17  1  0
 18 19  2  0
 20 19  1  0
 21 20  2  0
 22 23  2  0
 22 21  1  0
 23 18  1  0
  2 24  1  0
  4 25  1  0
  5 26  1  0
  6 27  1  0
  7 28  1  0
  8 29  1  0
  9 30  1  0
 16 31  1  0
 19 32  1  0
 20 33  1  0
 21 34  1  0
 22 35  1  0
M  ISO  8  24  14  25  14  26  14  27  14  28  14  29  14  30  14  31  14
M  ISO  4  32  14  33  14  34  14  35  14
M  END
>  <minimizedAffinity>  (1) 
-6.56118059

>  <minimizedRMSD>  (1) 
1.65717113

$$$$
