
     RDKit          3D

 36 39  0  0  0  0  0  0  0  0999 V2000
   46.1000   32.6840   46.9490 C   0  0  0  0  0  0  0  0  0  0  0  0
   47.2250   31.8850   47.0610 C   0  0  0  0  0  0  0  0  0  0  0  0
   47.4020   31.0590   48.1520 C   0  0  0  0  0  0  0  0  0  0  0  0
   46.4540   31.0100   49.1640 C   0  0  0  0  0  0  0  0  0  0  0  0
   45.3360   31.7890   49.0780 C   0  0  0  0  0  0  0  0  0  0  0  0
   45.1820   32.6010   47.9840 C   0  0  0  0  0  0  0  0  0  0  0  0
   44.7110   35.3580   44.8790 C   0  0  0  0  0  0  0  0  0  0  0  0
   45.4570   35.2650   43.6910 C   0  0  0  0  0  0  0  0  0  0  0  0
   46.4360   34.2820   43.6070 C   0  0  0  0  0  0  0  0  0  0  0  0
   46.6580   33.4350   44.6570 N   0  0  0  0  0  0  0  0  0  0  0  0
   45.9080   33.5600   45.7970 C   0  0  0  0  0  0  0  0  0  0  0  0
   44.9610   34.5090   45.8810 N   0  0  0  0  0  0  0  0  0  0  0  0
   48.8800   30.0590   48.2210 S   0  0  0  0  0  0  0  0  0  0  0  0
   49.8760   30.5750   49.6030 C   0  0  0  0  0  0  0  0  0  0  0  0
   50.1120   31.8700   49.9500 N   0  0  0  0  0  0  0  0  0  0  0  0
   50.8660   32.2040   50.9940 C   0  0  0  0  0  0  0  0  0  0  0  0
   51.4120   31.2260   51.7300 N   0  0  0  0  0  0  0  0  0  0  0  0
   51.2270   29.9210   51.4560 C   0  0  0  0  0  0  0  0  0  0  0  0
   51.7830   28.8870   52.2050 C   0  0  0  0  0  0  0  0  0  0  0  0
   51.5650   27.5650   51.8850 C   0  0  0  0  0  0  0  0  0  0  0  0
   50.7850   27.2080   50.8020 C   0  0  0  0  0  0  0  0  0  0  0  0
   50.2510   28.2560   50.0850 C   0  0  0  0  0  0  0  0  0  0  0  0
   50.4490   29.5810   50.3780 C   0  0  0  0  0  0  0  0  0  0  0  0
   49.4600   27.8890   48.9870 O   0  0  0  0  0  0  0  0  0  0  0  0
   47.9883   31.9090   46.2693 H   0  0  0  0  0  0  0  0  0  0  0  0
   46.6022   30.3479   50.0298 H   0  0  0  0  0  0  0  0  0  0  0  0
   44.5738   31.7656   49.8708 H   0  0  0  0  0  0  0  0  0  0  0  0
   44.2768   33.2231   47.9243 H   0  0  0  0  0  0  0  0  0  0  0  0
   43.9278   36.1233   44.9833 H   0  0  0  0  0  0  0  0  0  0  0  0
   45.2711   35.9510   42.8515 H   0  0  0  0  0  0  0  0  0  0  0  0
   47.0359   34.1849   42.6901 H   0  0  0  0  0  0  0  0  0  0  0  0
   51.0377   33.2605   51.2478 H   0  0  0  0  0  0  0  0  0  0  0  0
   52.4118   29.1320   53.0737 H   0  0  0  0  0  0  0  0  0  0  0  0
   52.0209   26.7782   52.5039 H   0  0  0  0  0  0  0  0  0  0  0  0
   50.6027   26.1577   50.5306 H   0  0  0  0  0  0  0  0  0  0  0  0
   49.3181   26.9320   48.7770 H   0  0  0  0  0  0  0  0  0  0  0  0
  1  2  2  0
  1  6  1  0
  2  3  1  0
  3 13  1  0
  3  4  2  0
  5  4  1  0
  6  5  2  0
  7 12  2  0
  8  7  1  0
  9  8  2  0
  9 10  1  0
 10 11  2  0
 11 12  1  0
 11  1  1  0
 13 14  1  0
 14 15  2  0
 14 23  1  0
 15 16  1  0
 16 17  2  0
 18 17  1  0
 18 19  2  0
 20 19  1  0
 21 20  2  0
 22 23  2  0
 22 21  1  0
 23 18  1  0
 24 22  1  0
  2 25  1  0
  4 26  1  0
  5 27  1  0
  6 28  1  0
  7 29  1  0
  8 30  1  0
  9 31  1  0
 16 32  1  0
 19 33  1  0
 20 34  1  0
 21 35  1  0
 24 36  1  0
M  ISO  8  25  14  26  14  27  14  28  14  29  14  30  14  31  14  32  14
M  ISO  4  33  14  34  14  35  14  36   3
M  END
>  <minimizedAffinity>  (1) 
-6.81942368

>  <minimizedRMSD>  (1) 
0.0921989083

$$$$
