
     RDKit          3D

 41 45  0  0  0  0  0  0  0  0999 V2000
   49.7870   30.2960   49.4900 C   0  0  0  0  0  0  0  0  0  0  0  0
   50.0220   31.4960   50.0730 N   0  0  0  0  0  0  0  0  0  0  0  0
   50.7170   31.6440   51.2110 C   0  0  0  0  0  0  0  0  0  0  0  0
   51.1970   30.5220   51.7880 N   0  0  0  0  0  0  0  0  0  0  0  0
   51.0060   29.2890   51.2710 C   0  0  0  0  0  0  0  0  0  0  0  0
   51.5030   28.1360   51.8500 C   0  0  0  0  0  0  0  0  0  0  0  0
   51.3020   26.9090   51.3050 C   0  0  0  0  0  0  0  0  0  0  0  0
   50.5850   26.7780   50.1390 C   0  0  0  0  0  0  0  0  0  0  0  0
   50.0810   27.9210   49.5490 C   0  0  0  0  0  0  0  0  0  0  0  0
   50.2800   29.1600   50.0890 C   0  0  0  0  0  0  0  0  0  0  0  0
   49.3300   27.5540   48.3270 C   0  0  0  0  0  0  0  0  0  0  0  0
   48.1500   27.4670   47.7710 N   0  0  0  0  0  0  0  0  0  0  0  0
   48.0450   27.1180   46.5340 C   0  0  0  0  0  0  0  0  0  0  0  0
   49.2920   26.9350   46.1670 N   0  0  0  0  0  0  0  0  0  0  0  0
   49.9830   27.1920   47.2140 N   0  0  0  0  0  0  0  0  0  0  0  0
   48.9160   30.1110   47.9730 S   0  0  0  0  0  0  0  0  0  0  0  0
   46.0300   32.7130   46.9360 C   0  0  0  0  0  0  0  0  0  0  0  0
   47.1720   31.9310   46.9580 C   0  0  0  0  0  0  0  0  0  0  0  0
   47.4050   31.0660   48.0180 C   0  0  0  0  0  0  0  0  0  0  0  0
   46.4970   30.9710   49.0730 C   0  0  0  0  0  0  0  0  0  0  0  0
   45.3830   31.7350   49.0510 C   0  0  0  0  0  0  0  0  0  0  0  0
   45.1630   32.5870   47.9980 C   0  0  0  0  0  0  0  0  0  0  0  0
   44.5720   35.4890   45.0520 C   0  0  0  0  0  0  0  0  0  0  0  0
   45.2350   35.4280   43.8130 C   0  0  0  0  0  0  0  0  0  0  0  0
   46.1910   34.4260   43.6200 C   0  0  0  0  0  0  0  0  0  0  0  0
   46.4600   33.5370   44.6220 N   0  0  0  0  0  0  0  0  0  0  0  0
   45.7910   33.6350   45.8100 C   0  0  0  0  0  0  0  0  0  0  0  0
   44.8580   34.6010   46.0180 N   0  0  0  0  0  0  0  0  0  0  0  0
   50.8882   32.6360   51.6544 H   0  0  0  0  0  0  0  0  0  0  0  0
   52.0803   28.2155   52.7830 H   0  0  0  0  0  0  0  0  0  0  0  0
   51.7142   26.0162   51.7980 H   0  0  0  0  0  0  0  0  0  0  0  0
   50.4171   25.7889   49.6878 H   0  0  0  0  0  0  0  0  0  0  0  0
   47.1316   27.0018   45.9321 H   0  0  0  0  0  0  0  0  0  0  0  0
   49.6385   26.6478   45.2405 H   0  0  0  0  0  0  0  0  0  0  0  0
   47.8968   31.9954   46.1331 H   0  0  0  0  0  0  0  0  0  0  0  0
   46.6855   30.2837   49.9109 H   0  0  0  0  0  0  0  0  0  0  0  0
   44.6554   31.6744   49.8737 H   0  0  0  0  0  0  0  0  0  0  0  0
   44.2492   33.1993   48.0027 H   0  0  0  0  0  0  0  0  0  0  0  0
   43.8158   36.2676   45.2305 H   0  0  0  0  0  0  0  0  0  0  0  0
   45.0071   36.1507   43.0156 H   0  0  0  0  0  0  0  0  0  0  0  0
   46.7263   34.3535   42.6618 H   0  0  0  0  0  0  0  0  0  0  0  0
  1  2  2  0
  1 10  1  0
  2  3  1  0
  3  4  2  0
  5  4  1  0
  5  6  2  0
  7  6  1  0
  8  7  2  0
  9 10  2  0
  9  8  1  0
 10  5  1  0
 11  9  1  0
 12 11  1  0
 13 12  2  0
 14 13  1  0
 14 15  1  0
 15 11  2  0
 16 19  1  0
 16  1  1  0
 17 18  2  0
 17 22  1  0
 18 19  1  0
 19 20  2  0
 21 20  1  0
 22 21  2  0
 23 28  2  0
 24 23  1  0
 25 24  2  0
 25 26  1  0
 26 27  2  0
 27 28  1  0
 27 17  1  0
  3 29  1  0
  6 30  1  0
  7 31  1  0
  8 32  1  0
 13 33  1  0
 14 34  1  0
 18 35  1  0
 20 36  1  0
 21 37  1  0
 22 38  1  0
 23 39  1  0
 24 40  1  0
 25 41  1  0
M  ISO  8  29  14  30  14  31  14  32  14  33  14  34   9  35  14  36  14
M  ISO  5  37  14  38  14  39  14  40  14  41  14
M  END
>  <minimizedAffinity>  (1) 
-6.56851912

>  <minimizedRMSD>  (1) 
0.605094552

$$$$
