
     RDKit          3D

 44 48  0  0  0  0  0  0  0  0999 V2000
   49.7980   30.2580   49.5890 C   0  0  0  0  0  0  0  0  0  0  0  0
   50.0140   31.5010   50.1140 N   0  0  0  0  0  0  0  0  0  0  0  0
   50.7340   31.7260   51.2070 C   0  0  0  0  0  0  0  0  0  0  0  0
   51.2730   30.6690   51.8190 N   0  0  0  0  0  0  0  0  0  0  0  0
   51.1120   29.4210   51.3750 C   0  0  0  0  0  0  0  0  0  0  0  0
   51.6780   28.3140   51.9970 C   0  0  0  0  0  0  0  0  0  0  0  0
   51.5090   27.0560   51.5210 C   0  0  0  0  0  0  0  0  0  0  0  0
   50.7660   26.8470   50.4040 C   0  0  0  0  0  0  0  0  0  0  0  0
   50.1700   27.9210   49.7340 C   0  0  0  0  0  0  0  0  0  0  0  0
   50.3510   29.1820   50.2230 C   0  0  0  0  0  0  0  0  0  0  0  0
   49.3530   27.5710   48.5510 C   0  0  0  0  0  0  0  0  0  0  0  0
   49.0940   26.0690   48.5340 C   0  0  0  0  0  0  0  0  0  0  0  0
   49.8260   25.0800   47.9410 N   0  0  0  0  0  0  0  0  0  0  0  0
   49.2600   23.8860   48.1530 C   0  0  0  0  0  0  0  0  0  0  0  0
   48.1580   24.0970   48.8870 N   0  0  0  0  0  0  0  0  0  0  0  0
   48.0680   25.3780   49.1050 N   0  0  0  0  0  0  0  0  0  0  0  0
   48.8960   30.0300   48.1400 S   0  0  0  0  0  0  0  0  0  0  0  0
   46.1140   32.6450   46.9440 C   0  0  0  0  0  0  0  0  0  0  0  0
   47.2450   31.8420   47.0160 C   0  0  0  0  0  0  0  0  0  0  0  0
   47.4410   31.0040   48.0830 C   0  0  0  0  0  0  0  0  0  0  0  0
   46.5180   30.9460   49.1020 C   0  0  0  0  0  0  0  0  0  0  0  0
   45.3940   31.7150   49.0740 C   0  0  0  0  0  0  0  0  0  0  0  0
   45.2160   32.5530   47.9900 C   0  0  0  0  0  0  0  0  0  0  0  0
   44.7260   35.3350   44.9000 C   0  0  0  0  0  0  0  0  0  0  0  0
   45.4750   35.2580   43.7000 C   0  0  0  0  0  0  0  0  0  0  0  0
   46.4580   34.2790   43.5970 C   0  0  0  0  0  0  0  0  0  0  0  0
   46.6800   33.4190   44.6420 N   0  0  0  0  0  0  0  0  0  0  0  0
   45.9190   33.5380   45.7920 C   0  0  0  0  0  0  0  0  0  0  0  0
   44.9540   34.4830   45.9190 N   0  0  0  0  0  0  0  0  0  0  0  0
   50.8808   32.7453   51.5937 H   0  0  0  0  0  0  0  0  0  0  0  0
   52.2821   28.4636   52.9040 H   0  0  0  0  0  0  0  0  0  0  0  0
   51.9738   26.2046   52.0397 H   0  0  0  0  0  0  0  0  0  0  0  0
   50.6314   25.8241   50.0224 H   0  0  0  0  0  0  0  0  0  0  0  0
   48.3937   28.1073   48.5971 H   0  0  0  0  0  0  0  0  0  0  0  0
   49.8925   27.8588   47.6366 H   0  0  0  0  0  0  0  0  0  0  0  0
   49.6293   22.9144   47.7929 H   0  0  0  0  0  0  0  0  0  0  0  0
   47.5012   23.3762   49.2186 H   0  0  0  0  0  0  0  0  0  0  0  0
   47.9911   31.8789   46.2085 H   0  0  0  0  0  0  0  0  0  0  0  0
   46.6904   30.2688   49.9515 H   0  0  0  0  0  0  0  0  0  0  0  0
   44.6536   31.6704   49.8863 H   0  0  0  0  0  0  0  0  0  0  0  0
   44.3124   33.1795   47.9581 H   0  0  0  0  0  0  0  0  0  0  0  0
   43.9452   36.1031   45.0018 H   0  0  0  0  0  0  0  0  0  0  0  0
   45.2841   35.9548   42.8705 H   0  0  0  0  0  0  0  0  0  0  0  0
   47.0568   34.1947   42.6781 H   0  0  0  0  0  0  0  0  0  0  0  0
  1  2  2  0
  1 10  1  0
  2  3  1  0
  3  4  2  0
  5  4  1  0
  5  6  2  0
  7  6  1  0
  8  7  2  0
  9 10  2  0
  9  8  1  0
 10  5  1  0
 11  9  1  0
 12 11  1  0
 12 16  2  0
 13 14  2  0
 13 12  1  0
 14 15  1  0
 15 16  1  0
 17  1  1  0
 18 19  2  0
 18 23  1  0
 19 20  1  0
 20 17  1  0
 20 21  2  0
 22 21  1  0
 23 22  2  0
 24 29  2  0
 25 24  1  0
 26 25  2  0
 26 27  1  0
 27 28  2  0
 28 29  1  0
 28 18  1  0
  3 30  1  0
  6 31  1  0
  7 32  1  0
  8 33  1  0
 11 34  1  0
 11 35  1  0
 14 36  1  0
 15 37  1  0
 19 38  1  0
 21 39  1  0
 22 40  1  0
 23 41  1  0
 24 42  1  0
 25 43  1  0
 26 44  1  0
M  ISO  8  30  14  31  14  32  14  33  14  34   8  35   8  36  14  37   9
M  ISO  7  38  14  39  14  40  14  41  14  42  14  43  14  44  14
M  END
>  <minimizedAffinity>  (1) 
-6.59044838

>  <minimizedRMSD>  (1) 
0.464130342

$$$$
