
     RDKit          3D

 23 24  0  0  1  0  0  0  0  0999 V2000
   44.5100   36.0980   44.4830 C   0  0  0  0  0  0  0  0  0  0  0  0
   45.2570   35.9320   43.3080 C   0  0  0  0  0  0  0  0  0  0  0  0
   46.1220   34.8400   43.2140 C   0  0  0  0  0  0  0  0  0  0  0  0
   46.1890   33.9900   44.2810 N   0  0  0  0  0  0  0  0  0  0  0  0
   45.4640   34.1670   45.3980 C   0  0  0  0  0  0  0  0  0  0  0  0
   44.6240   35.2180   45.5050 N   0  0  0  0  0  0  0  0  0  0  0  0
   48.4290   34.9270   42.2730 C   0  0  2  0  0  0  0  0  0  0  0  0
   46.9890   34.4600   42.1120 C   0  0  1  0  0  0  0  0  0  0  0  0
   47.2200   33.0860   42.0180 O   0  0  0  0  0  0  0  0  0  0  0  0
   48.1790   32.9800   41.0120 C   0  0  0  0  0  0  0  0  0  0  0  0
   48.9600   34.2830   40.9820 C   0  0  1  0  0  0  0  0  0  0  0  0
   49.0380   34.2390   43.3030 O   0  0  0  0  0  0  0  0  0  0  0  0
   48.5110   35.1110   39.9400 O   0  0  0  0  0  0  0  0  0  0  0  0
   43.8238   36.9528   44.5752 H   0  0  0  0  0  0  0  0  0  0  0  0
   45.1635   36.6472   42.4775 H   0  0  0  0  0  0  0  0  0  0  0  0
   45.5554   33.4522   46.2291 H   0  0  0  0  0  0  0  0  0  0  0  0
   48.5691   36.0039   42.4483 H   0  0  0  0  0  0  0  0  0  0  0  0
   46.4425   34.9014   41.2655 H   0  0  0  0  0  0  0  0  0  0  0  0
   48.8572   32.1412   41.2273 H   0  0  0  0  0  0  0  0  0  0  0  0
   47.6996   32.7947   40.0395 H   0  0  0  0  0  0  0  0  0  0  0  0
   50.0458   34.1441   40.8736 H   0  0  0  0  0  0  0  0  0  0  0  0
   48.7219   34.5961   44.1706 H   0  0  0  0  0  0  0  0  0  0  0  0
   48.0754   35.9142   40.3211 H   0  0  0  0  0  0  0  0  0  0  0  0
  1  6  2  0
  2  1  1  0
  3  2  2  0
  3  4  1  0
  4  5  2  0
  5  6  1  0
  7 12  1  0
  8  7  1  0
  8  3  1  0
  9  8  1  0
 10  9  1  0
 11 13  1  0
 11 10  1  0
 11  7  1  0
  1 14  1  0
  2 15  1  0
  5 16  1  0
  7 17  1  6
  8 18  1  6
 10 19  1  0
 10 20  1  0
 11 21  1  1
 12 22  1  0
 13 23  1  0
M  ISO  8  14  14  15  14  16  14  17  13  18  13  19  13  20  13  21  13
M  ISO  2  22   3  23   3
M  END
>  <minimizedAffinity>  (1) 
-4.57445002

>  <minimizedRMSD>  (1) 
0.616329074

$$$$
