
     RDKit          3D

 26 27  0  0  1  0  0  0  0  0999 V2000
   48.2460   34.8990   42.2710 C   0  0  2  0  0  0  0  0  0  0  0  0
   46.8540   34.2500   42.2690 C   0  0  1  0  0  0  0  0  0  0  0  0
   47.2410   32.9220   42.3020 O   0  0  0  0  0  0  0  0  0  0  0  0
   48.1560   32.8090   41.2550 C   0  0  0  0  0  0  0  0  0  0  0  0
   48.7420   34.1860   41.0040 C   0  0  1  0  0  0  0  0  0  0  0  0
   44.4790   35.9550   44.7010 C   0  0  0  0  0  0  0  0  0  0  0  0
   45.1800   35.7510   43.5050 C   0  0  0  0  0  0  0  0  0  0  0  0
   46.0420   34.6710   43.4090 C   0  0  0  0  0  0  0  0  0  0  0  0
   46.1660   33.8480   44.5000 N   0  0  0  0  0  0  0  0  0  0  0  0
   45.4870   34.0540   45.6420 C   0  0  0  0  0  0  0  0  0  0  0  0
   44.6420   35.1050   45.7500 N   0  0  0  0  0  0  0  0  0  0  0  0
   49.0030   34.4250   43.2950 O   0  0  0  0  0  0  0  0  0  0  0  0
   48.1260   34.8130   39.9250 O   0  0  0  0  0  0  0  0  0  0  0  0
   48.0910   34.0580   38.7800 C   0  0  0  0  0  0  0  0  0  0  0  0
   48.2694   35.9969   42.3354 H   0  0  0  0  0  0  0  0  0  0  0  0
   46.1951   34.5104   41.4276 H   0  0  0  0  0  0  0  0  0  0  0  0
   48.9559   32.1060   41.5307 H   0  0  0  0  0  0  0  0  0  0  0  0
   47.6601   32.4303   40.3491 H   0  0  0  0  0  0  0  0  0  0  0  0
   49.8233   34.1792   40.8022 H   0  0  0  0  0  0  0  0  0  0  0  0
   43.7917   36.8090   44.7921 H   0  0  0  0  0  0  0  0  0  0  0  0
   45.0479   36.4376   42.6558 H   0  0  0  0  0  0  0  0  0  0  0  0
   45.6188   33.3664   46.4905 H   0  0  0  0  0  0  0  0  0  0  0  0
   48.5907   34.6832   44.1572 H   0  0  0  0  0  0  0  0  0  0  0  0
   48.0416   32.9916   39.0453 H   0  0  0  0  0  0  0  0  0  0  0  0
   47.2045   34.3301   38.1883 H   0  0  0  0  0  0  0  0  0  0  0  0
   48.9989   34.2469   38.1883 H   0  0  0  0  0  0  0  0  0  0  0  0
  1 12  1  0
  2  1  1  0
  2  3  1  0
  2  8  1  0
  4  3  1  0
  5  4  1  0
  5  1  1  0
  6 11  2  0
  7  6  1  0
  8  7  2  0
  8  9  1  0
  9 10  2  0
 10 11  1  0
 13  5  1  0
 14 13  1  0
  1 15  1  6
  2 16  1  6
  4 17  1  0
  4 18  1  0
  5 19  1  6
  6 20  1  0
  7 21  1  0
 10 22  1  0
 12 23  1  0
 14 24  1  0
 14 25  1  0
 14 26  1  0
M  ISO  8  15  13  16  13  17  13  18  13  19  13  20  14  21  14  22  14
M  ISO  4  23   3  24   8  25   8  26   8
M  END
>  <minimizedAffinity>  (1) 
-4.50313902

>  <minimizedRMSD>  (1) 
0.62899828

$$$$
