
     RDKit          3D

 52 56  0  0  1  0  0  0  0  0999 V2000
   49.1570   32.9840   38.0310 C   0  0  1  0  0  0  0  0  0  0  0  0
   48.3500   33.8650   39.1060 C   0  0  1  0  0  0  0  0  0  0  0  0
   47.2250   34.0380   38.3930 O   0  0  0  0  0  0  0  0  0  0  0  0
   46.8320   32.6920   38.2100 C   0  0  0  0  0  0  0  0  0  0  0  0
   48.0440   32.1330   37.4640 C   0  0  1  0  0  0  0  0  0  0  0  0
   49.5330   33.8850   37.0370 O   0  0  0  0  0  0  0  0  0  0  0  0
   48.1100   32.9630   40.1440 O   0  0  0  0  0  0  0  0  0  0  0  0
   48.2520   34.2860   42.1000 C   0  0  2  0  0  0  0  0  0  0  0  0
   47.0040   33.4990   42.5750 C   0  0  1  0  0  0  0  0  0  0  0  0
   47.6270   32.4530   43.1910 O   0  0  0  0  0  0  0  0  0  0  0  0
   48.5530   31.9920   42.2340 C   0  0  0  0  0  0  0  0  0  0  0  0
   48.8440   33.1680   41.2760 C   0  0  1  0  0  0  0  0  0  0  0  0
   44.7150   36.1000   44.1390 C   0  0  0  0  0  0  0  0  0  0  0  0
   45.5080   35.5060   43.1640 C   0  0  0  0  0  0  0  0  0  0  0  0
   46.1520   34.3210   43.4370 C   0  0  0  0  0  0  0  0  0  0  0  0
   45.9700   33.7840   44.6800 N   0  0  0  0  0  0  0  0  0  0  0  0
   45.1990   34.3700   45.6140 C   0  0  0  0  0  0  0  0  0  0  0  0
   44.5730   35.5230   45.3470 N   0  0  0  0  0  0  0  0  0  0  0  0
   49.1140   34.4990   43.1460 O   0  0  0  0  0  0  0  0  0  0  0  0
   47.8900   32.2900   36.1390 O   0  0  0  0  0  0  0  0  0  0  0  0
   47.8280   31.7480   34.9980 C   0  0  0  0  0  0  0  0  0  0  0  0
   47.0620   30.5720   35.1920 C   0  0  0  0  0  0  0  0  0  0  0  0
   46.7500   29.6640   34.1630 C   0  0  0  0  0  0  0  0  0  0  0  0
   47.2330   29.9620   32.9000 C   0  0  0  0  0  0  0  0  0  0  0  0
   47.9850   31.0790   32.6140 C   0  0  0  0  0  0  0  0  0  0  0  0
   48.4900   31.4260   31.3780 C   0  0  0  0  0  0  0  0  0  0  0  0
   49.2380   32.5730   31.1860 C   0  0  0  0  0  0  0  0  0  0  0  0
   49.4760   33.3930   32.2950 C   0  0  0  0  0  0  0  0  0  0  0  0
   48.9620   33.0250   33.5140 C   0  0  0  0  0  0  0  0  0  0  0  0
   48.2220   31.8880   33.7000 C   0  0  0  0  0  0  0  0  0  0  0  0
   50.0231   32.4191   38.4063 H   0  0  0  0  0  0  0  0  0  0  0  0
   48.7911   34.7913   39.5026 H   0  0  0  0  0  0  0  0  0  0  0  0
   46.6792   32.1814   39.1723 H   0  0  0  0  0  0  0  0  0  0  0  0
   45.8761   32.5667   37.6803 H   0  0  0  0  0  0  0  0  0  0  0  0
   48.2203   31.0547   37.5913 H   0  0  0  0  0  0  0  0  0  0  0  0
   49.8785   34.7129   37.4556 H   0  0  0  0  0  0  0  0  0  0  0  0
   48.0596   35.2630   41.6325 H   0  0  0  0  0  0  0  0  0  0  0  0
   46.2882   33.1807   41.8028 H   0  0  0  0  0  0  0  0  0  0  0  0
   49.4808   31.6723   42.7309 H   0  0  0  0  0  0  0  0  0  0  0  0
   48.1483   31.1304   41.6827 H   0  0  0  0  0  0  0  0  0  0  0  0
   49.8862   33.3275   40.9624 H   0  0  0  0  0  0  0  0  0  0  0  0
   44.2002   37.0476   43.9221 H   0  0  0  0  0  0  0  0  0  0  0  0
   45.6202   35.9813   42.1783 H   0  0  0  0  0  0  0  0  0  0  0  0
   45.0824   33.8997   46.6015 H   0  0  0  0  0  0  0  0  0  0  0  0
   48.6305   34.3795   44.0016 H   0  0  0  0  0  0  0  0  0  0  0  0
   46.6900   30.3564   36.2045 H   0  0  0  0  0  0  0  0  0  0  0  0
   46.1512   28.7610   34.3529 H   0  0  0  0  0  0  0  0  0  0  0  0
   47.0028   29.2671   32.0790 H   0  0  0  0  0  0  0  0  0  0  0  0
   48.2913   30.7695   30.5180 H   0  0  0  0  0  0  0  0  0  0  0  0
   49.6335   32.8328   30.1930 H   0  0  0  0  0  0  0  0  0  0  0  0
   50.0647   34.3165   32.1919 H   0  0  0  0  0  0  0  0  0  0  0  0
   49.1536   33.6738   34.3814 H   0  0  0  0  0  0  0  0  0  0  0  0
  1  2  1  0
  2  7  1  0
  3  2  1  0
  4  3  1  0
  5  1  1  0
  5  4  1  0
  6  1  1  0
  7 12  1  0
  8  9  1  0
  8 19  1  0
  9 10  1  0
  9 15  1  0
 11 10  1  0
 12  8  1  0
 12 11  1  0
 13 18  2  0
 14 15  2  0
 14 13  1  0
 15 16  1  0
 16 17  2  0
 18 17  1  0
 20  5  1  0
 21 22  2  0
 21 20  1  0
 23 22  1  0
 24 23  2  0
 25 24  1  0
 25 30  2  0
 26 25  1  0
 27 26  2  0
 27 28  1  0
 28 29  2  0
 29 30  1  0
 30 21  1  0
  1 31  1  1
  2 32  1  1
  4 33  1  0
  4 34  1  0
  5 35  1  6
  6 36  1  0
  8 37  1  6
  9 38  1  6
 11 39  1  0
 11 40  1  0
 12 41  1  6
 13 42  1  0
 14 43  1  0
 17 44  1  0
 19 45  1  0
 22 46  1  0
 23 47  1  0
 24 48  1  0
 26 49  1  0
 27 50  1  0
 28 51  1  0
 29 52  1  0
M  ISO  8  31  13  32  13  33  13  34  13  35  13  36   3  37  13  38  13
M  ISO  8  39  13  40  13  41  13  42  14  43  14  44  14  45   3  46  14
M  ISO  6  47  14  48  14  49  14  50  14  51  14  52  14
M  END
>  <minimizedAffinity>  (1) 
-6.81477261

>  <minimizedRMSD>  (1) 
2.34649158

$$$$
