
     RDKit          3D

 47 50  0  0  1  0  0  0  0  0999 V2000
   47.7590   33.9220   39.7330 O   0  0  0  0  0  0  0  0  0  0  0  0
   48.0260   34.6710   41.9620 C   0  0  2  0  0  0  0  0  0  0  0  0
   46.7140   33.8880   42.2410 C   0  0  1  0  0  0  0  0  0  0  0  0
   47.2510   32.6730   42.5530 O   0  0  0  0  0  0  0  0  0  0  0  0
   48.1290   32.4070   41.4830 C   0  0  0  0  0  0  0  0  0  0  0  0
   48.5130   33.7670   40.8540 C   0  0  1  0  0  0  0  0  0  0  0  0
   44.5190   36.0610   44.4580 C   0  0  0  0  0  0  0  0  0  0  0  0
   45.1810   35.6830   43.2880 C   0  0  0  0  0  0  0  0  0  0  0  0
   45.9420   34.5300   43.3130 C   0  0  0  0  0  0  0  0  0  0  0  0
   45.9960   33.8310   44.4990 N   0  0  0  0  0  0  0  0  0  0  0  0
   45.3460   34.2240   45.6080 C   0  0  0  0  0  0  0  0  0  0  0  0
   44.6040   35.3470   45.5830 N   0  0  0  0  0  0  0  0  0  0  0  0
   48.9030   34.5350   42.9960 O   0  0  0  0  0  0  0  0  0  0  0  0
   49.1480   32.9420   38.1030 C   0  0  1  0  0  0  0  0  0  0  0  0
   48.4410   34.3110   38.5830 C   0  0  1  0  0  0  0  0  0  0  0  0
   47.5690   34.4310   37.5650 O   0  0  0  0  0  0  0  0  0  0  0  0
   46.8620   33.2120   37.6920 C   0  0  0  0  0  0  0  0  0  0  0  0
   47.9660   32.2270   37.5120 C   0  0  1  0  0  0  0  0  0  0  0  0
   49.9610   33.3320   37.0340 O   0  0  0  0  0  0  0  0  0  0  0  0
   48.1480   31.8850   36.2190 O   0  0  0  0  0  0  0  0  0  0  0  0
   47.0860   31.5650   35.4500 C   0  0  1  0  0  0  0  0  0  0  0  0
   47.2820   31.7250   33.9560 C   0  0  0  0  0  0  0  0  0  0  0  0
   46.5740   30.4790   33.4210 C   0  0  0  0  0  0  0  0  0  0  0  0
   46.0060   29.8430   34.5230 O   0  0  0  0  0  0  0  0  0  0  0  0
   46.9430   30.0380   35.5120 C   0  0  0  0  0  0  0  0  0  0  0  0
   47.9172   35.7500   41.7780 H   0  0  0  0  0  0  0  0  0  0  0  0
   45.9723   33.8351   41.4304 H   0  0  0  0  0  0  0  0  0  0  0  0
   49.0298   31.8958   41.8534 H   0  0  0  0  0  0  0  0  0  0  0  0
   47.6490   31.7552   40.7382 H   0  0  0  0  0  0  0  0  0  0  0  0
   49.5615   33.9224   40.5598 H   0  0  0  0  0  0  0  0  0  0  0  0
   43.9082   36.9758   44.4526 H   0  0  0  0  0  0  0  0  0  0  0  0
   45.0989   36.2864   42.3719 H   0  0  0  0  0  0  0  0  0  0  0  0
   45.4200   33.6309   46.5315 H   0  0  0  0  0  0  0  0  0  0  0  0
   48.4155   34.6106   43.8543 H   0  0  0  0  0  0  0  0  0  0  0  0
   49.7114   32.3717   38.8563 H   0  0  0  0  0  0  0  0  0  0  0  0
   49.0457   35.2085   38.7800 H   0  0  0  0  0  0  0  0  0  0  0  0
   46.3931   33.1176   38.6826 H   0  0  0  0  0  0  0  0  0  0  0  0
   46.0277   33.0943   36.9849 H   0  0  0  0  0  0  0  0  0  0  0  0
   47.7681   31.2601   37.9978 H   0  0  0  0  0  0  0  0  0  0  0  0
   50.7961   33.7326   37.3836 H   0  0  0  0  0  0  0  0  0  0  0  0
   46.2743   32.2082   35.8206 H   0  0  0  0  0  0  0  0  0  0  0  0
   46.8093   32.6464   33.5850 H   0  0  0  0  0  0  0  0  0  0  0  0
   48.3346   31.8100   33.6481 H   0  0  0  0  0  0  0  0  0  0  0  0
   45.7918   30.7654   32.7026 H   0  0  0  0  0  0  0  0  0  0  0  0
   47.2780   29.8152   32.8977 H   0  0  0  0  0  0  0  0  0  0  0  0
   47.8910   29.5299   35.2815 H   0  0  0  0  0  0  0  0  0  0  0  0
   46.6637   29.6395   36.4985 H   0  0  0  0  0  0  0  0  0  0  0  0
  1  6  1  0
  2  3  1  0
  2 13  1  0
  3  4  1  0
  3  9  1  0
  5  4  1  0
  6  5  1  0
  6  2  1  0
  7 12  2  0
  8  9  2  0
  8  7  1  0
  9 10  1  0
 10 11  2  0
 12 11  1  0
 14 15  1  0
 15  1  1  0
 16 17  1  0
 16 15  1  0
 18 17  1  0
 18 14  1  0
 19 14  1  0
 20 18  1  0
 21 25  1  0
 21 20  1  0
 22 21  1  0
 23 22  1  0
 23 24  1  0
 24 25  1  0
  2 26  1  6
  3 27  1  6
  5 28  1  0
  5 29  1  0
  6 30  1  6
  7 31  1  0
  8 32  1  0
 11 33  1  0
 13 34  1  0
 14 35  1  1
 15 36  1  1
 17 37  1  0
 17 38  1  0
 18 39  1  1
 19 40  1  0
 21 41  1  1
 22 42  1  0
 22 43  1  0
 23 44  1  0
 23 45  1  0
 25 46  1  0
 25 47  1  0
M  ISO  8  26  13  27  13  28  13  29  13  30  13  31  14  32  14  33  14
M  ISO  8  34   3  35  13  36  13  37  13  38  13  39  13  40   3  41  13
M  ISO  6  42  13  43  13  44  13  45  13  46  13  47  13
M  END
>  <minimizedAffinity>  (1) 
-5.37883997

>  <minimizedRMSD>  (1) 
1.15772378

$$$$
