
     RDKit          3D

 48 50  0  0  0  0  0  0  0  0999 V2000
   48.0511   34.6280   42.0496 C   0  0  2  0  0  0  0  0  0  0  0  0
   46.7579   33.8215   42.3516 C   0  0  1  0  0  0  0  0  0  0  0  0
   47.3210   32.6284   42.6930 O   0  0  0  0  0  0  0  0  0  0  0  0
   48.2036   32.3553   41.6286 C   0  0  0  0  0  0  0  0  0  0  0  0
   48.5546   33.7026   40.9657 C   0  0  1  0  0  0  0  0  0  0  0  0
   44.5130   36.0096   44.5050 C   0  0  0  0  0  0  0  0  0  0  0  0
   45.1854   35.6081   43.3495 C   0  0  0  0  0  0  0  0  0  0  0  0
   45.9702   34.4767   43.4034 C   0  0  0  0  0  0  0  0  0  0  0  0
   46.0370   33.8125   44.6085 N   0  0  0  0  0  0  0  0  0  0  0  0
   45.3778   34.2226   45.7048 C   0  0  0  0  0  0  0  0  0  0  0  0
   44.6124   35.3282   45.6484 N   0  0  0  0  0  0  0  0  0  0  0  0
   48.9357   34.5336   43.0869 O   0  0  0  0  0  0  0  0  0  0  0  0
   47.7979   33.8177   39.8386 O   0  0  0  0  0  0  0  0  0  0  0  0
   49.1443   32.7894   38.2019 C   0  0  1  0  0  0  0  0  0  0  0  0
   48.4889   34.1744   38.6806 C   0  0  1  0  0  0  0  0  0  0  0  0
   47.6178   34.3259   37.6688 O   0  0  0  0  0  0  0  0  0  0  0  0
   46.8631   33.1273   37.8135 C   0  0  0  0  0  0  0  0  0  0  0  0
   47.9168   32.0756   37.6493 C   0  0  1  0  0  0  0  0  0  0  0  0
   49.9479   33.1253   37.1146 O   0  0  0  0  0  0  0  0  0  0  0  0
   48.0917   31.7671   36.3228 O   0  0  0  0  0  0  0  0  0  0  0  0
   47.7971   35.6326   41.7058 H   0  0  0  0  0  0  0  0  0  0  0  0
   46.2440   33.7510   41.3772 H   0  0  0  0  0  0  0  0  0  0  0  0
   47.6329   31.7553   40.8973 H   0  0  0  0  0  0  0  0  0  0  0  0
   49.1192   31.8314   41.9554 H   0  0  0  0  0  0  0  0  0  0  0  0
   49.6393   33.8253   40.8073 H   0  0  0  0  0  0  0  0  0  0  0  0
   43.9080   36.9217   44.3809 H   0  0  0  0  0  0  0  0  0  0  0  0
   45.1829   36.0674   42.3850 H   0  0  0  0  0  0  0  0  0  0  0  0
   45.4481   33.6829   46.6350 H   0  0  0  0  0  0  0  0  0  0  0  0
   49.8197   34.1883   42.8090 H   0  0  0  0  0  0  0  0  0  0  0  0
   49.6278   32.3135   39.0334 H   0  0  0  0  0  0  0  0  0  0  0  0
   49.3950   34.7594   38.8390 H   0  0  0  0  0  0  0  0  0  0  0  0
   46.4008   33.0491   38.8155 H   0  0  0  0  0  0  0  0  0  0  0  0
   46.0870   33.0812   37.0331 H   0  0  0  0  0  0  0  0  0  0  0  0
   47.8126   31.1994   38.3263 H   0  0  0  0  0  0  0  0  0  0  0  0
   49.4474   33.7586   36.5466 H   0  0  0  0  0  0  0  0  0  0  0  0
   48.2154   30.4284   36.0992 C   0  0  0  0  0  0  0  0  0  0  0  0
   47.0442   29.6903   35.7684 N   0  0  0  0  0  4  0  0  0  0  0  0
   46.4599   28.9320   36.8653 C   0  0  0  0  0  0  0  0  0  0  0  0
   45.5024   29.3805   37.1773 H   0  0  0  0  0  0  0  0  0  0  0  0
   46.0306   30.5295   35.1673 C   0  0  0  0  0  0  0  0  0  0  0  0
   46.4926   31.3878   34.6594 H   0  0  0  0  0  0  0  0  0  0  0  0
   48.7359   29.9092   36.9666 H   0  0  0  0  0  0  0  0  0  0  0  0
   48.9827   30.2725   35.2589 H   0  0  0  0  0  0  0  0  0  0  0  0
   47.3283   28.9390   35.0440 H   0  0  0  0  0  0  0  0  0  0  0  0
   46.1904   27.8918   36.5114 H   0  0  0  0  0  0  0  0  0  0  0  0
   47.1225   28.8577   37.7301 H   0  0  0  0  0  0  0  0  0  0  0  0
   45.4701   29.9017   34.4082 H   0  0  0  0  0  0  0  0  0  0  0  0
   45.3099   30.8245   35.9468 H   0  0  0  0  0  0  0  0  0  0  0  0
  1  2  1  0
  1 12  1  0
  2  3  1  0
  2  8  1  0
  4  3  1  0
  5  4  1  0
  5  1  1  0
  6 11  2  0
  7  8  2  0
  7  6  1  0
  8  9  1  0
  9 10  2  0
 11 10  1  0
 13  5  1  0
 14 19  1  0
 14 15  1  0
 15 13  1  0
 16 17  1  0
 16 15  1  0
 18 20  1  0
 18 17  1  0
 18 14  1  0
  1 21  1  6
  2 22  1  6
  4 23  1  0
  4 24  1  0
  5 25  1  6
  6 26  1  0
  7 27  1  0
 10 28  1  0
 12 29  1  0
 14 30  1  1
 15 31  1  1
 17 32  1  0
 17 33  1  0
 18 34  1  1
 19 35  1  0
 36 37  1  0
 37 38  1  0
 38 39  1  0
 37 40  1  0
 40 41  1  0
 36 42  1  0
 36 43  1  0
 37 44  1  0
 38 45  1  0
 38 46  1  0
 40 47  1  0
 40 48  1  0
 20 36  1  0
M  CHG  1  37   1
M  END
>  <DihAtoms>  (1) 
17,19,35,36

>  <DihDeg>  (1) 
63.6378073622733

$$$$
