
     RDKit          3D

 22 23  0  0  0  0  0  0  0  0999 V2000
   45.2140   34.3760   45.7330 C   0  0  0  0  0  0  0  0  0  0  0  0
   45.6980   34.7010   44.4550 C   0  0  0  0  0  0  0  0  0  0  0  0
   46.6900   33.9210   43.8460 C   0  0  0  0  0  0  0  0  0  0  0  0
   47.1270   32.8630   44.5690 N   0  0  0  0  0  0  0  0  0  0  0  0
   46.6620   32.5610   45.7820 C   0  0  0  0  0  0  0  0  0  0  0  0
   45.7100   33.3110   46.3660 N   0  0  0  0  0  0  0  0  0  0  0  0
   44.2110   35.1840   46.3200 N   0  0  0  0  0  0  0  0  0  0  0  0
   45.5640   32.7660   41.5890 F   0  0  0  0  0  0  0  0  0  0  0  0
   46.6140   33.6270   41.4450 C   0  0  0  0  0  0  0  0  0  0  0  0
   47.2080   34.2270   42.5360 C   0  0  0  0  0  0  0  0  0  0  0  0
   48.2560   35.0720   42.2500 C   0  0  0  0  0  0  0  0  0  0  0  0
   48.7160   35.3310   40.9780 C   0  0  0  0  0  0  0  0  0  0  0  0
   48.0860   34.7030   39.8980 C   0  0  0  0  0  0  0  0  0  0  0  0
   47.0340   33.8520   40.1510 C   0  0  0  0  0  0  0  0  0  0  0  0
   45.2940   35.5771   43.9267 H   0  0  0  0  0  0  0  0  0  0  0  0
   47.0631   31.6852   46.3131 H   0  0  0  0  0  0  0  0  0  0  0  0
   43.8444   36.0009   45.8109 H   0  0  0  0  0  0  0  0  0  0  0  0
   43.8477   34.9551   47.2562 H   0  0  0  0  0  0  0  0  0  0  0  0
   48.7582   35.5724   43.0910 H   0  0  0  0  0  0  0  0  0  0  0  0
   49.5604   36.0167   40.8146 H   0  0  0  0  0  0  0  0  0  0  0  0
   48.4246   34.8856   38.8675 H   0  0  0  0  0  0  0  0  0  0  0  0
   46.5253   33.3484   39.3158 H   0  0  0  0  0  0  0  0  0  0  0  0
  1  7  1  0
  1  6  2  0
  2  1  1  0
  3  2  2  0
  3  4  1  0
  4  5  2  0
  5  6  1  0
  9  8  1  0
  9 10  2  0
 10  3  1  0
 11 10  1  0
 12 11  2  0
 13 14  2  0
 13 12  1  0
 14  9  1  0
  2 15  1  0
  5 16  1  0
  7 17  1  0
  7 18  1  0
 11 19  1  0
 12 20  1  0
 13 21  1  0
 14 22  1  0
M  ISO  6  15  14  16  14  19  14  20  14  21  14  22  14
M  END
>  <minimizedAffinity>  (1) 
-5.25350332

>  <minimizedRMSD>  (1) 
2.78351307

$$$$
