
     RDKit          3D

 22 23  0  0  0  0  0  0  0  0999 V2000
   44.8920   35.1030   44.6980 C   0  0  0  0  0  0  0  0  0  0  0  0
   45.4560   35.2630   43.4150 C   0  0  0  0  0  0  0  0  0  0  0  0
   46.5360   34.4540   43.0420 C   0  0  0  0  0  0  0  0  0  0  0  0
   46.9760   33.5550   43.9480 N   0  0  0  0  0  0  0  0  0  0  0  0
   46.4180   33.4180   45.1760 C   0  0  0  0  0  0  0  0  0  0  0  0
   45.3900   34.1890   45.5310 N   0  0  0  0  0  0  0  0  0  0  0  0
   43.7990   35.9240   45.0770 N   0  0  0  0  0  0  0  0  0  0  0  0
   47.1830   34.5300   41.7680 C   0  0  0  0  0  0  0  0  0  0  0  0
   48.2440   35.4020   41.6350 C   0  0  0  0  0  0  0  0  0  0  0  0
   48.9440   35.5580   40.4490 C   0  0  0  0  0  0  0  0  0  0  0  0
   48.5200   34.7790   39.3710 C   0  0  0  0  0  0  0  0  0  0  0  0
   47.4810   33.9100   39.4620 C   0  0  0  0  0  0  0  0  0  0  0  0
   46.8180   33.7910   40.6620 C   0  0  0  0  0  0  0  0  0  0  0  0
   45.0532   36.0124   42.7178 H   0  0  0  0  0  0  0  0  0  0  0  0
   46.8135   32.6706   45.8795 H   0  0  0  0  0  0  0  0  0  0  0  0
   43.4286   36.6245   44.4190 H   0  0  0  0  0  0  0  0  0  0  0  0
   43.3758   35.8196   46.0102 H   0  0  0  0  0  0  0  0  0  0  0  0
   48.5473   35.9990   42.5077 H   0  0  0  0  0  0  0  0  0  0  0  0
   49.7881   36.2579   40.3619 H   0  0  0  0  0  0  0  0  0  0  0  0
   49.0482   34.8729   38.4107 H   0  0  0  0  0  0  0  0  0  0  0  0
   47.1744   33.3114   38.5916 H   0  0  0  0  0  0  0  0  0  0  0  0
   45.9753   33.0885   40.7412 H   0  0  0  0  0  0  0  0  0  0  0  0
  1  7  1  0
  1  6  2  0
  2  1  1  0
  3  2  2  0
  3  4  1  0
  4  5  2  0
  5  6  1  0
  8  3  1  0
  9  8  2  0
 10  9  1  0
 11 12  1  0
 11 10  2  0
 12 13  2  0
 13  8  1  0
  2 14  1  0
  5 15  1  0
  7 16  1  0
  7 17  1  0
  9 18  1  0
 10 19  1  0
 11 20  1  0
 12 21  1  0
 13 22  1  0
M  ISO  7  14  14  15  14  18  14  19  14  20  14  21  14  22  14
M  END
>  <minimizedAffinity>  (1) 
-4.69301081

>  <minimizedRMSD>  (1) 
2.38340092

$$$$
