
     RDKit          3D

 18 18  0  0  0  0  0  0  0  0999 V2000
   45.3030   35.6690   43.5750 C   0  0  0  0  0  0  0  0  0  0  0  0
   46.2900   35.0620   42.7690 C   0  0  0  0  0  0  0  0  0  0  0  0
   46.9690   33.9250   43.2660 C   0  0  0  0  0  0  0  0  0  0  0  0
   46.6190   33.4910   44.5010 N   0  0  0  0  0  0  0  0  0  0  0  0
   45.6780   34.0880   45.2390 C   0  0  0  0  0  0  0  0  0  0  0  0
   45.0220   35.1690   44.7840 N   0  0  0  0  0  0  0  0  0  0  0  0
   44.6330   36.8060   43.0620 N   0  0  0  0  0  0  0  0  0  0  0  0
   47.9080   33.4050   42.4180 O   0  0  0  0  0  0  0  0  0  0  0  0
   50.3730   33.2750   41.6610 O   0  0  0  0  0  0  0  0  0  0  0  0
   49.3190   34.2850   42.0600 P   0  0  0  0  0  0  0  0  0  0  0  0
   49.0730   35.3150   40.7470 O   0  0  0  0  0  0  0  0  0  0  0  0
   49.8640   35.1690   43.3900 O   0  0  0  0  0  0  0  0  0  0  0  0
   46.5266   35.4654   41.7734 H   0  0  0  0  0  0  0  0  0  0  0  0
   45.4366   33.6880   46.2349 H   0  0  0  0  0  0  0  0  0  0  0  0
   44.8723   37.1667   42.1274 H   0  0  0  0  0  0  0  0  0  0  0  0
   43.9063   37.2724   43.6235 H   0  0  0  0  0  0  0  0  0  0  0  0
   48.8561   36.2232   41.0761 H   0  0  0  0  0  0  0  0  0  0  0  0
   49.5845   34.7156   44.2245 H   0  0  0  0  0  0  0  0  0  0  0  0
  1  6  2  0
  2  3  2  0
  2  1  1  0
  3  4  1  0
  4  5  2  0
  6  5  1  0
  7  1  1  0
  8  3  1  0
  9 10  2  0
 10  8  1  0
 10 12  1  0
 11 10  1  0
  2 13  1  0
  5 14  1  0
  7 15  1  0
  7 16  1  0
 11 17  1  0
 12 18  1  0
M  ISO  4  13  14  14  14  17   3  18   3
M  END
>  <minimizedAffinity>  (1) 
-4.57840919

>  <minimizedRMSD>  (1) 
0.882395566

$$$$
