
     RDKit          3D

 13 13  0  0  0  0  0  0  0  0999 V2000
   45.0990   35.3560   44.1650 C   0  0  0  0  0  0  0  0  0  0  0  0
   46.1390   34.8060   43.3870 C   0  0  0  0  0  0  0  0  0  0  0  0
   46.8890   33.7380   43.9190 C   0  0  0  0  0  0  0  0  0  0  0  0
   46.5500   33.3120   45.1590 N   0  0  0  0  0  0  0  0  0  0  0  0
   45.5600   33.8490   45.8770 C   0  0  0  0  0  0  0  0  0  0  0  0
   44.8410   34.8660   45.3790 N   0  0  0  0  0  0  0  0  0  0  0  0
   44.3480   36.4370   43.6120 N   0  0  0  0  0  0  0  0  0  0  0  0
   48.2060   33.0410   42.9360 S   0  0  0  0  0  0  0  0  0  0  0  0
   46.3602   35.2027   42.3852 H   0  0  0  0  0  0  0  0  0  0  0  0
   45.3337   33.4562   46.8793 H   0  0  0  0  0  0  0  0  0  0  0  0
   44.5726   36.7921   42.6716 H   0  0  0  0  0  0  0  0  0  0  0  0
   43.5816   36.8617   44.1534 H   0  0  0  0  0  0  0  0  0  0  0  0
   49.1716   32.5300   43.7627 H   0  0  0  0  0  0  0  0  0  0  0  0
  1  6  2  0
  2  3  2  0
  2  1  1  0
  3  4  1  0
  4  5  2  0
  6  5  1  0
  7  1  1  0
  8  3  1  0
  2  9  1  0
  5 10  1  0
  7 11  1  0
  7 12  1  0
  8 13  1  0
M  ISO  3   9  14  10  14  13  11
M  END
>  <minimizedAffinity>  (1) 
-3.18705583

>  <minimizedRMSD>  (1) 
0.0344178118

$$$$
