
     RDKit          3D

 32 33  0  0  0  0  0  0  0  0999 V2000
   46.0320   32.2960   44.4530 C   0  0  0  0  0  0  0  0  0  0  0  0
   48.5990   34.5180   42.8280 C   0  0  0  0  0  0  0  0  0  0  0  0
   47.9830   33.6220   43.7080 C   0  0  0  0  0  0  0  0  0  0  0  0
   46.6650   33.2540   43.5040 C   0  0  0  0  0  0  0  0  0  0  0  0
   46.0420   33.7960   42.4430 N   0  0  0  0  0  0  0  0  0  0  0  0
   46.6270   34.6560   41.5970 C   0  0  0  0  0  0  0  0  0  0  0  0
   47.9110   35.0210   41.7860 N   0  0  0  0  0  0  0  0  0  0  0  0
   49.9420   34.9030   43.0160 N   0  0  0  0  0  0  0  0  0  0  0  0
   46.4230   32.6770   45.8470 C   0  0  0  0  0  0  0  0  0  0  0  0
   45.8000   31.8700   46.8660 N   0  0  0  0  0  0  0  0  0  0  0  0
   45.6340   32.5220   48.1230 C   0  0  0  0  0  0  0  0  0  0  0  0
   45.5450   31.4690   49.2280 C   0  0  0  0  0  0  0  0  0  0  0  0
   46.9120   31.0080   49.4460 N   0  0  0  0  0  0  0  0  0  0  0  0
   47.6450   31.0440   48.1900 C   0  0  0  0  0  0  0  0  0  0  0  0
   46.6570   30.7050   47.0830 C   0  0  0  0  0  0  0  0  0  0  0  0
   46.3798   31.2752   44.2363 H   0  0  0  0  0  0  0  0  0  0  0  0
   44.9376   32.3292   44.3470 H   0  0  0  0  0  0  0  0  0  0  0  0
   48.5449   33.2112   44.5598 H   0  0  0  0  0  0  0  0  0  0  0  0
   46.0589   35.0641   40.7480 H   0  0  0  0  0  0  0  0  0  0  0  0
   50.3849   35.5635   42.3614 H   0  0  0  0  0  0  0  0  0  0  0  0
   50.4804   34.5238   43.8080 H   0  0  0  0  0  0  0  0  0  0  0  0
   47.5141   32.5742   45.9417 H   0  0  0  0  0  0  0  0  0  0  0  0
   46.0829   33.7112   46.0043 H   0  0  0  0  0  0  0  0  0  0  0  0
   46.4939   33.1815   48.3117 H   0  0  0  0  0  0  0  0  0  0  0  0
   44.7120   33.1218   48.1091 H   0  0  0  0  0  0  0  0  0  0  0  0
   45.1386   31.9129   50.1488 H   0  0  0  0  0  0  0  0  0  0  0  0
   44.8776   30.6411   48.9467 H   0  0  0  0  0  0  0  0  0  0  0  0
   47.3756   31.6216   50.1312 H   0  0  0  0  0  0  0  0  0  0  0  0
   48.0641   32.0478   48.0268 H   0  0  0  0  0  0  0  0  0  0  0  0
   48.4783   30.3261   48.2033 H   0  0  0  0  0  0  0  0  0  0  0  0
   46.0441   29.8418   47.3818 H   0  0  0  0  0  0  0  0  0  0  0  0
   47.1944   30.4498   46.1578 H   0  0  0  0  0  0  0  0  0  0  0  0
  1  9  1  0
  2  8  1  0
  2  3  2  0
  4  3  1  0
  4  1  1  0
  5  4  2  0
  6  7  2  0
  6  5  1  0
  7  2  1  0
  9 10  1  0
 10 15  1  0
 10 11  1  0
 11 12  1  0
 12 13  1  0
 14 13  1  0
 15 14  1  0
  1 16  1  0
  1 17  1  0
  3 18  1  0
  6 19  1  0
  8 20  1  0
  8 21  1  0
  9 22  1  0
  9 23  1  0
 11 24  1  0
 11 25  1  0
 12 26  1  0
 12 27  1  0
 13 28  1  0
 14 29  1  0
 14 30  1  0
 15 31  1  0
 15 32  1  0
M  ISO  8  16   8  17   8  18  14  19  14  22   8  23   8  24  13  25  13
M  ISO  7  26  13  27  13  28   5  29  13  30  13  31  13  32  13
M  END
>  <minimizedAffinity>  (1) 
-4.63211393

>  <minimizedRMSD>  (1) 
7.62104368

$$$$
