
     RDKit          3D

 30 31  0  0  0  0  0  0  0  0999 V2000
   46.1550   34.9380   42.0580 C   0  0  0  0  0  0  0  0  0  0  0  0
   45.0720   34.5700   45.6480 C   0  0  0  0  0  0  0  0  0  0  0  0
   45.1640   35.0250   44.3290 C   0  0  0  0  0  0  0  0  0  0  0  0
   46.0740   34.4410   43.4550 C   0  0  0  0  0  0  0  0  0  0  0  0
   46.8290   33.4450   43.9490 N   0  0  0  0  0  0  0  0  0  0  0  0
   46.7370   33.0120   45.2150 C   0  0  0  0  0  0  0  0  0  0  0  0
   45.8640   33.5670   46.0680 N   0  0  0  0  0  0  0  0  0  0  0  0
   44.1500   35.1530   46.5490 N   0  0  0  0  0  0  0  0  0  0  0  0
   47.6120   34.8800   41.6210 C   0  0  0  0  0  0  0  0  0  0  0  0
   47.6520   34.0260   40.4820 N   0  0  0  0  0  0  0  0  0  0  0  0
   48.2850   34.5770   39.3140 C   0  0  0  0  0  0  0  0  0  0  0  0
   47.9690   33.4640   38.2980 C   0  0  0  0  0  0  0  0  0  0  0  0
   46.5030   33.2250   38.5750 C   0  0  0  0  0  0  0  0  0  0  0  0
   46.4060   33.4570   40.0670 C   0  0  0  0  0  0  0  0  0  0  0  0
   45.5426   34.3038   41.4002 H   0  0  0  0  0  0  0  0  0  0  0  0
   45.7790   35.9700   41.9975 H   0  0  0  0  0  0  0  0  0  0  0  0
   44.5168   35.8445   43.9831 H   0  0  0  0  0  0  0  0  0  0  0  0
   47.3853   32.1920   45.5575 H   0  0  0  0  0  0  0  0  0  0  0  0
   43.5397   35.9214   46.2360 H   0  0  0  0  0  0  0  0  0  0  0  0
   44.0891   34.8090   47.5179 H   0  0  0  0  0  0  0  0  0  0  0  0
   47.9709   35.8855   41.3563 H   0  0  0  0  0  0  0  0  0  0  0  0
   48.2575   34.5024   42.4277 H   0  0  0  0  0  0  0  0  0  0  0  0
   47.8376   35.5382   39.0208 H   0  0  0  0  0  0  0  0  0  0  0  0
   49.3532   34.8127   39.4301 H   0  0  0  0  0  0  0  0  0  0  0  0
   48.5681   32.5614   38.4888 H   0  0  0  0  0  0  0  0  0  0  0  0
   48.1953   33.7267   37.2541 H   0  0  0  0  0  0  0  0  0  0  0  0
   45.8732   33.9365   38.0209 H   0  0  0  0  0  0  0  0  0  0  0  0
   46.1561   32.2285   38.2641 H   0  0  0  0  0  0  0  0  0  0  0  0
   45.5812   34.1501   40.2890 H   0  0  0  0  0  0  0  0  0  0  0  0
   46.2069   32.5152   40.5994 H   0  0  0  0  0  0  0  0  0  0  0  0
  1  4  1  0
  2  7  2  0
  2  8  1  0
  3  2  1  0
  4  5  1  0
  4  3  2  0
  5  6  2  0
  6  7  1  0
  9  1  1  0
 10  9  1  0
 11 10  1  0
 12 13  1  0
 12 11  1  0
 13 14  1  0
 14 10  1  0
  1 15  1  0
  1 16  1  0
  3 17  1  0
  6 18  1  0
  8 19  1  0
  8 20  1  0
  9 21  1  0
  9 22  1  0
 11 23  1  0
 11 24  1  0
 12 25  1  0
 12 26  1  0
 13 27  1  0
 13 28  1  0
 14 29  1  0
 14 30  1  0
M  ISO  8  15   8  16   8  17  14  18  14  21   8  22   8  23  13  24  13
M  ISO  6  25  13  26  13  27  13  28  13  29  13  30  13
M  END
>  <minimizedAffinity>  (1) 
-4.33145714

>  <minimizedRMSD>  (1) 
2.51623678

$$$$
