
     RDKit          3D

 30 32  0  0  0  0  0  0  0  0999 V2000
   47.5380   31.8840   44.8080 Cl  0  0  0  0  0  0  0  0  0  0  0  0
   46.7450   31.9700   46.3650 C   0  0  0  0  0  0  0  0  0  0  0  0
   45.8500   33.0020   46.5630 C   0  0  0  0  0  0  0  0  0  0  0  0
   45.2200   33.0850   47.7660 C   0  0  0  0  0  0  0  0  0  0  0  0
   45.4980   32.1360   48.7430 C   0  0  0  0  0  0  0  0  0  0  0  0
   46.3900   31.1140   48.5380 C   0  0  0  0  0  0  0  0  0  0  0  0
   47.0430   31.0230   47.3020 C   0  0  0  0  0  0  0  0  0  0  0  0
   44.5190   35.8560   44.7110 C   0  0  0  0  0  0  0  0  0  0  0  0
   45.1760   35.7950   43.4620 C   0  0  0  0  0  0  0  0  0  0  0  0
   46.0890   34.7280   43.3010 C   0  0  0  0  0  0  0  0  0  0  0  0
   46.2610   33.8610   44.3340 N   0  0  0  0  0  0  0  0  0  0  0  0
   45.6030   33.9700   45.5050 C   0  0  0  0  0  0  0  0  0  0  0  0
   44.7290   34.9780   45.6840 N   0  0  0  0  0  0  0  0  0  0  0  0
   46.7640   34.6760   42.0010 C   0  0  0  0  0  0  0  0  0  0  0  0
   47.5150   33.5180   41.9270 F   0  0  0  0  0  0  0  0  0  0  0  0
   47.6790   35.7150   41.9860 F   0  0  0  0  0  0  0  0  0  0  0  0
   45.9020   34.7180   40.9440 F   0  0  0  0  0  0  0  0  0  0  0  0
   47.9740   29.9230   47.1420 C   0  0  0  0  0  0  0  0  0  0  0  0
   48.0040   28.7430   46.4560 C   0  0  0  0  0  0  0  0  0  0  0  0
   49.1470   28.0360   46.6420 C   0  0  0  0  0  0  0  0  0  0  0  0
   49.8420   28.8080   47.4700 N   0  0  0  0  0  0  0  0  0  0  0  0
   49.1780   29.8950   47.7640 N   0  0  0  0  0  0  0  0  0  0  0  0
   44.4998   33.8928   47.9630 H   0  0  0  0  0  0  0  0  0  0  0  0
   44.9853   32.2069   49.7136 H   0  0  0  0  0  0  0  0  0  0  0  0
   46.5891   30.3782   49.3311 H   0  0  0  0  0  0  0  0  0  0  0  0
   43.7994   36.6695   44.8855 H   0  0  0  0  0  0  0  0  0  0  0  0
   44.9891   36.5306   42.6658 H   0  0  0  0  0  0  0  0  0  0  0  0
   47.1801   28.3983   45.8138 H   0  0  0  0  0  0  0  0  0  0  0  0
   49.4288   27.0631   46.2128 H   0  0  0  0  0  0  0  0  0  0  0  0
   50.7790   28.5805   47.8321 H   0  0  0  0  0  0  0  0  0  0  0  0
  1  2  1  0
  2  3  2  0
  2  7  1  0
  3  4  1  0
  4  5  2  0
  6  5  1  0
  7  6  2  0
  8 13  2  0
  9  8  1  0
 10  9  2  0
 10 11  1  0
 11 12  2  0
 12 13  1  0
 12  3  1  0
 14 10  1  0
 15 14  1  0
 16 14  1  0
 17 14  1  0
 18  7  1  0
 18 22  2  0
 19 20  2  0
 19 18  1  0
 20 21  1  0
 21 22  1  0
  4 23  1  0
  5 24  1  0
  6 25  1  0
  8 26  1  0
  9 27  1  0
 19 28  1  0
 20 29  1  0
 21 30  1  0
M  ISO  8  23  14  24  14  25  14  26  14  27  14  28  14  29  14  30   9
M  END
>  <minimizedAffinity>  (1) 
-5.9074564

>  <minimizedRMSD>  (1) 
0.397941351

$$$$
