
     RDKit          3D

 26 26  0  0  0  0  0  0  0  0999 V2000
   47.8830   34.2220   42.2730 C   0  0  0  0  0  0  0  0  0  0  0  0
   44.8690   35.0870   44.3650 C   0  0  0  0  0  0  0  0  0  0  0  0
   45.8040   35.0590   43.2970 C   0  0  0  0  0  0  0  0  0  0  0  0
   46.9180   34.2390   43.3930 C   0  0  0  0  0  0  0  0  0  0  0  0
   47.0710   33.4900   44.5080 N   0  0  0  0  0  0  0  0  0  0  0  0
   46.1650   33.5340   45.5140 C   0  0  0  0  0  0  0  0  0  0  0  0
   45.0740   34.3260   45.4410 N   0  0  0  0  0  0  0  0  0  0  0  0
   43.7410   35.9030   44.2850 N   0  0  0  0  0  0  0  0  0  0  0  0
   49.1660   33.6200   42.7380 C   0  0  0  0  0  0  0  0  0  0  0  0
   49.2540   32.3010   42.3130 O   0  0  0  0  0  0  0  0  0  0  0  0
   51.3360   30.7150   42.2570 O   0  0  0  0  0  0  0  0  0  0  0  0
   50.7540   31.9550   41.6370 P   0  0  2  0  0  0  0  0  0  0  0  0
   51.7300   33.3120   41.7950 O   0  0  0  0  0  0  0  0  0  0  0  0
   50.5500   31.7440   39.9490 O   0  0  0  0  0  0  0  0  0  0  0  0
   49.2450   31.8230   39.4730 C   0  0  0  0  0  0  0  0  0  0  0  0
   48.7790   32.9290   39.0610 O   0  0  0  0  0  0  0  0  0  0  0  0
   48.0635   35.2507   41.9276 H   0  0  0  0  0  0  0  0  0  0  0  0
   47.4750   33.6257   41.4436 H   0  0  0  0  0  0  0  0  0  0  0  0
   45.6465   35.6808   42.4034 H   0  0  0  0  0  0  0  0  0  0  0  0
   46.3212   32.9123   46.4079 H   0  0  0  0  0  0  0  0  0  0  0  0
   43.5872   36.4888   43.4519 H   0  0  0  0  0  0  0  0  0  0  0  0
   43.0616   35.9199   45.0590 H   0  0  0  0  0  0  0  0  0  0  0  0
   50.0085   34.1931   42.3235 H   0  0  0  0  0  0  0  0  0  0  0  0
   49.2002   33.6479   43.8371 H   0  0  0  0  0  0  0  0  0  0  0  0
   51.8705   33.5074   42.7553 H   0  0  0  0  0  0  0  0  0  0  0  0
   48.6141   30.9221   39.4537 H   0  0  0  0  0  0  0  0  0  0  0  0
  1  9  1  0
  1  4  1  0
  2  7  2  0
  3  4  2  0
  3  2  1  0
  4  5  1  0
  5  6  2  0
  7  6  1  0
  8  2  1  0
 10  9  1  0
 12 13  1  0
 12 11  2  0
 12 10  1  0
 14 12  1  0
 15 14  1  0
 16 15  2  0
  1 17  1  0
  1 18  1  0
  3 19  1  0
  6 20  1  0
  8 21  1  0
  8 22  1  0
  9 23  1  0
  9 24  1  0
 13 25  1  0
 15 26  1  0
M  ISO  8  17   8  18   8  19  14  20  14  23   8  24   8  25   3  26   6
M  END
>  <minimizedAffinity>  (1) 
-4.09890509

>  <minimizedRMSD>  (1) 
0.534578383

$$$$
