
     RDKit          3D

 29 31  0  0  0  0  0  0  0  0999 V2000
   47.4620   31.8150   44.7890 Cl  0  0  0  0  0  0  0  0  0  0  0  0
   46.6960   31.9140   46.3590 C   0  0  0  0  0  0  0  0  0  0  0  0
   45.8460   32.9720   46.5680 C   0  0  0  0  0  0  0  0  0  0  0  0
   45.2180   33.0680   47.7800 C   0  0  0  0  0  0  0  0  0  0  0  0
   45.4640   32.0960   48.7430 C   0  0  0  0  0  0  0  0  0  0  0  0
   46.3140   31.0480   48.5190 C   0  0  0  0  0  0  0  0  0  0  0  0
   46.9640   30.9400   47.2810 C   0  0  0  0  0  0  0  0  0  0  0  0
   44.5270   35.8450   44.7230 C   0  0  0  0  0  0  0  0  0  0  0  0
   45.1990   35.7900   43.4850 C   0  0  0  0  0  0  0  0  0  0  0  0
   46.1140   34.7270   43.3290 C   0  0  0  0  0  0  0  0  0  0  0  0
   46.2810   33.8560   44.3530 N   0  0  0  0  0  0  0  0  0  0  0  0
   45.6090   33.9580   45.5210 C   0  0  0  0  0  0  0  0  0  0  0  0
   44.7290   34.9630   45.6980 N   0  0  0  0  0  0  0  0  0  0  0  0
   46.7970   34.6870   42.0400 C   0  0  0  0  0  0  0  0  0  0  0  0
   47.5610   33.5190   41.9640 F   0  0  0  0  0  0  0  0  0  0  0  0
   47.6840   35.7270   42.0210 F   0  0  0  0  0  0  0  0  0  0  0  0
   45.9420   34.6940   40.9560 F   0  0  0  0  0  0  0  0  0  0  0  0
   47.8240   29.7870   47.1230 C   0  0  0  0  0  0  0  0  0  0  0  0
   47.3340   28.5360   46.5030 C   0  0  0  0  0  0  0  0  0  0  0  0
   48.8480   27.4790   46.5350 S   0  0  0  0  0  0  0  0  0  0  0  0
   49.8620   28.8640   47.3540 C   0  0  0  0  0  0  0  0  0  0  0  0
   49.1060   29.7540   47.4770 N   0  0  0  0  0  0  0  0  0  0  0  0
   44.5299   33.9005   47.9888 H   0  0  0  0  0  0  0  0  0  0  0  0
   44.9585   32.1722   49.7170 H   0  0  0  0  0  0  0  0  0  0  0  0
   46.4863   30.2962   49.3033 H   0  0  0  0  0  0  0  0  0  0  0  0
   43.8018   36.6550   44.8905 H   0  0  0  0  0  0  0  0  0  0  0  0
   45.0213   36.5294   42.6902 H   0  0  0  0  0  0  0  0  0  0  0  0
   46.3298   28.2977   46.1223 H   0  0  0  0  0  0  0  0  0  0  0  0
   50.9218   28.8372   47.6474 H   0  0  0  0  0  0  0  0  0  0  0  0
  1  2  1  0
  2  3  2  0
  2  7  1  0
  3  4  1  0
  4  5  2  0
  6  5  1  0
  7  6  2  0
  8 13  2  0
  9  8  1  0
 10  9  2  0
 10 11  1  0
 11 12  2  0
 12 13  1  0
 12  3  1  0
 14 10  1  0
 15 14  1  0
 16 14  1  0
 17 14  1  0
 18  7  1  0
 18 22  1  0
 19 20  1  0
 19 18  2  0
 20 21  1  0
 21 22  2  0
  4 23  1  0
  5 24  1  0
  6 25  1  0
  8 26  1  0
  9 27  1  0
 19 28  1  0
 21 29  1  0
M  ISO  7  23  14  24  14  25  14  26  14  27  14  28  14  29  14
M  END
>  <minimizedAffinity>  (1) 
-5.88695574

>  <minimizedRMSD>  (1) 
0.620831609

$$$$
