
     RDKit          3D

 42 43  0  0  1  0  0  0  0  0999 V2000
   49.7200   31.4040   42.4670 O   0  0  0  0  0  0  0  0  0  0  0  0
   50.2070   32.1580   41.2440 P   0  0  2  0  0  0  0  0  0  0  0  0
   51.7270   32.8170   41.4590 O   0  0  0  0  0  0  0  0  0  0  0  0
   49.1160   33.3850   40.8770 O   0  0  0  0  0  0  0  0  0  0  0  0
   49.1250   34.3780   41.8450 C   0  0  0  0  0  0  0  0  0  0  0  0
   47.8810   35.2010   41.7690 C   0  0  0  0  0  0  0  0  0  0  0  0
   44.8790   35.1090   44.0230 C   0  0  0  0  0  0  0  0  0  0  0  0
   45.7490   35.4660   42.9810 C   0  0  0  0  0  0  0  0  0  0  0  0
   46.9610   34.8160   42.8790 C   0  0  0  0  0  0  0  0  0  0  0  0
   47.2720   33.8530   43.7890 N   0  0  0  0  0  0  0  0  0  0  0  0
   46.4030   33.5380   44.7810 C   0  0  0  0  0  0  0  0  0  0  0  0
   45.2250   34.1430   44.9110 N   0  0  0  0  0  0  0  0  0  0  0  0
   43.6230   35.7440   44.1760 N   0  0  0  0  0  0  0  0  0  0  0  0
   50.3000   31.0750   39.9200 O   0  0  0  0  0  0  0  0  0  0  0  0
   50.4030   31.6250   37.6380 C   0  0  1  0  0  0  0  0  0  0  0  0
   51.1410   31.5440   38.9450 C   0  0  2  0  0  0  0  0  0  0  0  0
   52.0660   30.3520   38.6100 C   0  0  0  0  0  0  0  0  0  0  0  0
   51.3060   29.4760   37.8870 O   0  0  0  0  0  0  0  0  0  0  0  0
   50.3060   30.1690   37.2550 C   0  0  0  0  0  0  0  0  0  0  0  0
   49.1700   32.2450   37.7630 O   0  0  0  0  0  0  0  0  0  0  0  0
   48.9180   33.2490   36.8510 C   0  0  0  0  0  0  0  0  0  0  0  0
   48.4070   34.4930   37.5470 C   0  0  0  0  0  0  0  0  0  0  0  0
   51.9170   32.8994   42.4271 H   0  0  0  0  0  0  0  0  0  0  0  0
   49.1896   33.9122   42.8394 H   0  0  0  0  0  0  0  0  0  0  0  0
   49.9926   35.0319   41.6726 H   0  0  0  0  0  0  0  0  0  0  0  0
   48.1400   36.2662   41.8602 H   0  0  0  0  0  0  0  0  0  0  0  0
   47.3840   35.0258   40.8035 H   0  0  0  0  0  0  0  0  0  0  0  0
   45.4697   36.2486   42.2602 H   0  0  0  0  0  0  0  0  0  0  0  0
   46.6812   32.7559   45.5027 H   0  0  0  0  0  0  0  0  0  0  0  0
   43.3346   36.4807   43.5164 H   0  0  0  0  0  0  0  0  0  0  0  0
   42.9976   35.4693   44.9469 H   0  0  0  0  0  0  0  0  0  0  0  0
   50.9027   32.2417   36.8764 H   0  0  0  0  0  0  0  0  0  0  0  0
   51.5927   32.4896   39.2794 H   0  0  0  0  0  0  0  0  0  0  0  0
   52.9269   30.6918   38.0155 H   0  0  0  0  0  0  0  0  0  0  0  0
   52.4637   29.8824   39.5218 H   0  0  0  0  0  0  0  0  0  0  0  0
   49.3284   29.7703   37.5637 H   0  0  0  0  0  0  0  0  0  0  0  0
   50.4101   30.0626   36.1651 H   0  0  0  0  0  0  0  0  0  0  0  0
   48.1613   32.9015   36.1322 H   0  0  0  0  0  0  0  0  0  0  0  0
   49.8554   33.4961   36.3312 H   0  0  0  0  0  0  0  0  0  0  0  0
   48.4644   34.3533   38.6366 H   0  0  0  0  0  0  0  0  0  0  0  0
   49.0235   35.3559   37.2550 H   0  0  0  0  0  0  0  0  0  0  0  0
   47.3619   34.6734   37.2550 H   0  0  0  0  0  0  0  0  0  0  0  0
  2  3  1  0
  2  1  2  0
  4  2  1  0
  4  5  1  0
  6  5  1  0
  6  9  1  0
  7 13  1  0
  7 12  2  0
  8  7  1  0
  9  8  2  0
  9 10  1  0
 10 11  2  0
 11 12  1  0
 14  2  1  0
 15 20  1  0
 15 16  1  0
 16 14  1  0
 17 16  1  0
 18 17  1  0
 19 15  1  0
 19 18  1  0
 21 22  1  0
 21 20  1  0
  3 23  1  0
  5 24  1  0
  5 25  1  0
  6 26  1  0
  6 27  1  0
  8 28  1  0
 11 29  1  0
 13 30  1  0
 13 31  1  0
 15 32  1  6
 16 33  1  1
 17 34  1  0
 17 35  1  0
 19 36  1  0
 19 37  1  0
 21 38  1  0
 21 39  1  0
 22 40  1  0
 22 41  1  0
 22 42  1  0
M  ISO  8  23   3  24   8  25   8  26   8  27   8  28  14  29  14  32  13
M  ISO  8  33  13  34  13  35  13  36  13  37  13  38   8  39   8  40   8
M  ISO  2  41   8  42   8
M  END
>  <minimizedAffinity>  (1) 
-4.75047588

>  <minimizedRMSD>  (1) 
1.32361507

$$$$
