
     RDKit          3D

 32 34  0  0  0  0  0  0  0  0999 V2000
   47.2880   31.6680   44.6850 Cl  0  0  0  0  0  0  0  0  0  0  0  0
   46.5630   31.8170   46.2850 C   0  0  0  0  0  0  0  0  0  0  0  0
   45.8090   32.9330   46.5390 C   0  0  0  0  0  0  0  0  0  0  0  0
   45.2480   33.0630   47.7770 C   0  0  0  0  0  0  0  0  0  0  0  0
   45.4540   32.0710   48.7300 C   0  0  0  0  0  0  0  0  0  0  0  0
   46.2110   30.9600   48.4610 C   0  0  0  0  0  0  0  0  0  0  0  0
   46.7870   30.8200   47.1980 C   0  0  0  0  0  0  0  0  0  0  0  0
   44.5530   35.8450   44.7250 C   0  0  0  0  0  0  0  0  0  0  0  0
   45.2490   35.8060   43.4930 C   0  0  0  0  0  0  0  0  0  0  0  0
   46.1560   34.7390   43.3400 C   0  0  0  0  0  0  0  0  0  0  0  0
   46.3070   33.8420   44.3450 N   0  0  0  0  0  0  0  0  0  0  0  0
   45.6090   33.9360   45.5000 C   0  0  0  0  0  0  0  0  0  0  0  0
   44.7280   34.9470   45.6830 N   0  0  0  0  0  0  0  0  0  0  0  0
   46.8510   34.7360   42.0560 C   0  0  0  0  0  0  0  0  0  0  0  0
   47.6670   33.5990   42.0030 F   0  0  0  0  0  0  0  0  0  0  0  0
   47.7160   35.7900   42.0490 F   0  0  0  0  0  0  0  0  0  0  0  0
   46.0110   34.6720   40.9630 F   0  0  0  0  0  0  0  0  0  0  0  0
   47.6080   29.6800   46.8060 C   0  0  0  0  0  0  0  0  0  0  0  0
   48.9630   29.5950   47.0430 C   0  0  0  0  0  0  0  0  0  0  0  0
   49.7480   28.5220   46.6760 C   0  0  0  0  0  0  0  0  0  0  0  0
   49.1680   27.4560   46.0340 C   0  0  0  0  0  0  0  0  0  0  0  0
   47.8200   27.5600   45.8090 C   0  0  0  0  0  0  0  0  0  0  0  0
   47.0750   28.6180   46.1750 N   0  0  0  0  0  0  0  0  0  0  0  0
   44.6377   33.9456   48.0189 H   0  0  0  0  0  0  0  0  0  0  0  0
   44.9979   32.1807   49.7250 H   0  0  0  0  0  0  0  0  0  0  0  0
   46.3622   30.1891   49.2309 H   0  0  0  0  0  0  0  0  0  0  0  0
   43.8331   36.6592   44.8948 H   0  0  0  0  0  0  0  0  0  0  0  0
   45.0920   36.5592   42.7069 H   0  0  0  0  0  0  0  0  0  0  0  0
   49.4495   30.4367   47.5577 H   0  0  0  0  0  0  0  0  0  0  0  0
   50.8260   28.5203   46.8951 H   0  0  0  0  0  0  0  0  0  0  0  0
   49.7477   26.5753   45.7204 H   0  0  0  0  0  0  0  0  0  0  0  0
   47.3164   26.7265   45.2974 H   0  0  0  0  0  0  0  0  0  0  0  0
  1  2  1  0
  2  3  2  0
  2  7  1  0
  3  4  1  0
  4  5  2  0
  6  5  1  0
  7  6  2  0
  8 13  2  0
  9  8  1  0
 10  9  2  0
 10 11  1  0
 11 12  2  0
 12 13  1  0
 12  3  1  0
 14 10  1  0
 15 14  1  0
 16 14  1  0
 17 14  1  0
 18 19  2  0
 18  7  1  0
 20 19  1  0
 21 20  2  0
 22 21  1  0
 22 23  2  0
 23 18  1  0
  4 24  1  0
  5 25  1  0
  6 26  1  0
  8 27  1  0
  9 28  1  0
 19 29  1  0
 20 30  1  0
 21 31  1  0
 22 32  1  0
M  ISO  8  24  14  25  14  26  14  27  14  28  14  29  14  30  14  31  14
M  ISO  1  32  14
M  END
>  <minimizedAffinity>  (1) 
-5.88685799

>  <minimizedRMSD>  (1) 
0.319526196

$$$$
