
     RDKit          3D

 38 39  0  0  1  0  0  0  0  0999 V2000
   49.6730   31.3580   42.3580 O   0  0  0  0  0  0  0  0  0  0  0  0
   50.1760   32.1390   41.1580 P   0  0  2  0  0  0  0  0  0  0  0  0
   51.7100   32.7600   41.3930 O   0  0  0  0  0  0  0  0  0  0  0  0
   49.1010   33.3920   40.8360 O   0  0  0  0  0  0  0  0  0  0  0  0
   49.1220   34.3470   41.8420 C   0  0  0  0  0  0  0  0  0  0  0  0
   47.8900   35.1940   41.7800 C   0  0  0  0  0  0  0  0  0  0  0  0
   44.8830   35.1040   44.0270 C   0  0  0  0  0  0  0  0  0  0  0  0
   45.7520   35.4630   42.9890 C   0  0  0  0  0  0  0  0  0  0  0  0
   46.9660   34.8150   42.8810 C   0  0  0  0  0  0  0  0  0  0  0  0
   47.2730   33.8490   43.7920 N   0  0  0  0  0  0  0  0  0  0  0  0
   46.4090   33.5260   44.7840 C   0  0  0  0  0  0  0  0  0  0  0  0
   45.2220   34.1450   44.9070 N   0  0  0  0  0  0  0  0  0  0  0  0
   43.6300   35.7440   44.1700 N   0  0  0  0  0  0  0  0  0  0  0  0
   50.2460   31.0960   39.8020 O   0  0  0  0  0  0  0  0  0  0  0  0
   50.3740   31.7370   37.5370 C   0  0  1  0  0  0  0  0  0  0  0  0
   51.0930   31.5720   38.8440 C   0  0  2  0  0  0  0  0  0  0  0  0
   51.9930   30.3720   38.4670 C   0  0  0  0  0  0  0  0  0  0  0  0
   51.2080   29.5400   37.7160 O   0  0  0  0  0  0  0  0  0  0  0  0
   50.2280   30.2850   37.1110 C   0  0  0  0  0  0  0  0  0  0  0  0
   49.1200   32.3460   37.6900 O   0  0  0  0  0  0  0  0  0  0  0  0
   48.9060   33.5580   37.0190 C   0  0  0  0  0  0  0  0  0  0  0  0
   48.5500   34.6930   37.4870 O   0  0  0  0  0  0  0  0  0  0  0  0
   51.8912   32.8334   42.3635 H   0  0  0  0  0  0  0  0  0  0  0  0
   49.1676   33.8438   42.8191 H   0  0  0  0  0  0  0  0  0  0  0  0
   50.0048   34.9892   41.7072 H   0  0  0  0  0  0  0  0  0  0  0  0
   48.1686   36.2530   41.8846 H   0  0  0  0  0  0  0  0  0  0  0  0
   47.3886   35.0379   40.8134 H   0  0  0  0  0  0  0  0  0  0  0  0
   45.4717   36.2484   42.2716 H   0  0  0  0  0  0  0  0  0  0  0  0
   46.6843   32.7410   45.5037 H   0  0  0  0  0  0  0  0  0  0  0  0
   43.3497   36.4812   43.5075 H   0  0  0  0  0  0  0  0  0  0  0  0
   42.9978   35.4729   44.9366 H   0  0  0  0  0  0  0  0  0  0  0  0
   50.8986   32.3844   36.8189 H   0  0  0  0  0  0  0  0  0  0  0  0
   51.5632   32.4932   39.2185 H   0  0  0  0  0  0  0  0  0  0  0  0
   52.8602   30.7122   37.8820 H   0  0  0  0  0  0  0  0  0  0  0  0
   52.3848   29.8629   39.3599 H   0  0  0  0  0  0  0  0  0  0  0  0
   49.2395   29.9096   37.4143 H   0  0  0  0  0  0  0  0  0  0  0  0
   50.3246   30.2075   36.0180 H   0  0  0  0  0  0  0  0  0  0  0  0
   49.0680   33.5280   35.9314 H   0  0  0  0  0  0  0  0  0  0  0  0
  2  3  1  0
  2  1  2  0
  4  2  1  0
  4  5  1  0
  6  5  1  0
  6  9  1  0
  7 13  1  0
  7 12  2  0
  8  7  1  0
  9  8  2  0
  9 10  1  0
 10 11  2  0
 11 12  1  0
 14  2  1  0
 15 20  1  0
 15 16  1  0
 16 14  1  0
 17 16  1  0
 18 17  1  0
 19 15  1  0
 19 18  1  0
 21 22  2  0
 21 20  1  0
  3 23  1  0
  5 24  1  0
  5 25  1  0
  6 26  1  0
  6 27  1  0
  8 28  1  0
 11 29  1  0
 13 30  1  0
 13 31  1  0
 15 32  1  6
 16 33  1  1
 17 34  1  0
 17 35  1  0
 19 36  1  0
 19 37  1  0
 21 38  1  0
M  ISO  8  23   3  24   8  25   8  26   8  27   8  28  14  29  14  32  13
M  ISO  6  33  13  34  13  35  13  36  13  37  13  38   6
M  END
>  <minimizedAffinity>  (1) 
-4.70480633

>  <minimizedRMSD>  (1) 
1.40136158

$$$$
