
     RDKit          3D

 34 37  0  0  1  0  0  0  0  0999 V2000
   47.2490   34.0560   42.8340 C   0  0  1  0  0  0  0  0  0  0  0  0
   46.4810   34.0610   41.5760 C   0  0  2  0  0  0  0  0  0  0  0  0
   46.9560   35.3300   42.1130 C   0  0  0  0  0  0  0  0  0  0  0  0
   47.0480   32.6590   44.8810 C   0  0  0  0  0  0  0  0  0  0  0  0
   46.6260   33.7780   44.1430 C   0  0  0  0  0  0  0  0  0  0  0  0
   45.6390   34.5750   44.7020 C   0  0  0  0  0  0  0  0  0  0  0  0
   45.1440   34.2300   45.9200 N   0  0  0  0  0  0  0  0  0  0  0  0
   45.5620   33.1610   46.6020 C   0  0  0  0  0  0  0  0  0  0  0  0
   46.5250   32.3720   46.0700 N   0  0  0  0  0  0  0  0  0  0  0  0
   45.0190   33.9030   41.4690 C   0  0  0  0  0  0  0  0  0  0  0  0
   44.2160   32.8540   41.7780 N   0  0  0  0  0  0  0  0  0  0  0  0
   42.9420   33.1360   41.5010 C   0  0  0  0  0  0  0  0  0  0  0  0
   42.9310   34.3900   41.0040 N   0  0  0  0  0  0  0  0  0  0  0  0
   44.1580   34.8610   40.9780 N   0  0  0  0  0  0  0  0  0  0  0  0
   39.9670   34.2150   41.9010 O   0  0  0  0  0  0  0  0  0  0  0  0
   40.5110   34.4000   40.7630 C   0  0  0  0  0  0  0  0  0  0  0  0
   41.7740   35.1460   40.5530 C   0  0  2  0  0  0  0  0  0  0  0  0
   41.8110   35.3690   39.0550 C   0  0  0  0  0  0  0  0  0  0  0  0
   41.1660   34.0780   38.5510 C   0  0  0  0  0  0  0  0  0  0  0  0
   40.0480   33.9500   39.4730 N   0  0  0  0  0  0  0  0  0  0  0  0
   48.1472   33.5291   43.1885 H   0  0  0  0  0  0  0  0  0  0  0  0
   46.5958   33.4575   40.6635 H   0  0  0  0  0  0  0  0  0  0  0  0
   47.7662   35.8736   41.6050 H   0  0  0  0  0  0  0  0  0  0  0  0
   46.4841   36.2862   42.3830 H   0  0  0  0  0  0  0  0  0  0  0  0
   47.8291   32.0051   44.4658 H   0  0  0  0  0  0  0  0  0  0  0  0
   45.2658   35.4644   44.1731 H   0  0  0  0  0  0  0  0  0  0  0  0
   45.1289   32.9240   47.5850 H   0  0  0  0  0  0  0  0  0  0  0  0
   42.0735   32.4773   41.6485 H   0  0  0  0  0  0  0  0  0  0  0  0
   41.8083   36.0835   41.1274 H   0  0  0  0  0  0  0  0  0  0  0  0
   41.2253   36.2534   38.7638 H   0  0  0  0  0  0  0  0  0  0  0  0
   42.8155   35.5617   38.6503 H   0  0  0  0  0  0  0  0  0  0  0  0
   40.8227   34.1770   37.5106 H   0  0  0  0  0  0  0  0  0  0  0  0
   41.8414   33.2099   38.5329 H   0  0  0  0  0  0  0  0  0  0  0  0
   39.1046   33.6037   39.2474 H   0  0  0  0  0  0  0  0  0  0  0  0
  1  5  1  0
  2  3  1  0
  2  1  1  0
  3  1  1  0
  4  9  2  0
  5  6  2  0
  5  4  1  0
  6  7  1  0
  7  8  2  0
  9  8  1  0
 10  2  1  0
 10 11  1  0
 12 11  2  0
 13 12  1  0
 14 13  1  0
 14 10  2  0
 16 15  2  0
 17 16  1  0
 17 13  1  0
 18 17  1  0
 19 18  1  0
 19 20  1  0
 20 16  1  0
  1 21  1  6
  2 22  1  6
  3 23  1  0
  3 24  1  0
  4 25  1  0
  6 26  1  0
  8 27  1  0
 12 28  1  0
 17 29  1  1
 18 30  1  0
 18 31  1  0
 19 32  1  0
 19 33  1  0
 20 34  1  0
M  ISO  8  21  13  22  13  23  13  24  13  25  14  26  14  27  14  28  14
M  ISO  6  29  13  30  13  31  13  32  13  33  13  34  10
M  END
>  <minimizedAffinity>  (1) 
-5.01686573

>  <minimizedRMSD>  (1) 
5.28232479

$$$$
