
     RDKit          3D

 41 45  0  0  1  0  0  0  0  0999 V2000
   45.4620   32.9970   42.2690 C   0  0  0  0  0  0  0  0  0  0  0  0
   44.6510   31.9270   42.3790 N   0  0  0  0  0  0  0  0  0  0  0  0
   43.3980   32.2430   42.0260 C   0  0  0  0  0  0  0  0  0  0  0  0
   43.4230   33.5570   41.6840 N   0  0  0  0  0  0  0  0  0  0  0  0
   44.6460   34.0260   41.8210 N   0  0  0  0  0  0  0  0  0  0  0  0
   40.4060   32.8770   41.4980 O   0  0  0  0  0  0  0  0  0  0  0  0
   41.1830   33.5400   40.7420 C   0  0  0  0  0  0  0  0  0  0  0  0
   42.3090   34.3720   41.2270 C   0  0  2  0  0  0  0  0  0  0  0  0
   42.6940   35.1840   40.0010 C   0  0  0  0  0  0  0  0  0  0  0  0
   42.4280   34.1700   38.8800 C   0  0  0  0  0  0  0  0  0  0  0  0
   41.1480   33.6290   39.2990 N   0  0  0  0  0  0  0  0  0  0  0  0
   40.0110   33.2280   38.5420 C   0  0  0  0  0  0  0  0  0  0  0  0
   39.1010   34.1870   38.0940 C   0  0  0  0  0  0  0  0  0  0  0  0
   38.0930   33.5470   37.3880 C   0  0  0  0  0  0  0  0  0  0  0  0
   38.4610   32.2010   37.4530 C   0  0  0  0  0  0  0  0  0  0  0  0
   39.5780   32.0700   38.1320 O   0  0  0  0  0  0  0  0  0  0  0  0
   47.5360   33.1950   43.8710 C   0  0  1  0  0  0  0  0  0  0  0  0
   46.9000   33.1510   42.5280 C   0  0  2  0  0  0  0  0  0  0  0  0
   47.3690   34.4150   43.0530 C   0  0  0  0  0  0  0  0  0  0  0  0
   46.9410   31.8220   45.8550 C   0  0  0  0  0  0  0  0  0  0  0  0
   46.7680   32.9880   45.1100 C   0  0  0  0  0  0  0  0  0  0  0  0
   45.8720   33.9040   45.6100 C   0  0  0  0  0  0  0  0  0  0  0  0
   45.2290   33.6190   46.7700 N   0  0  0  0  0  0  0  0  0  0  0  0
   45.4130   32.5020   47.4580 C   0  0  0  0  0  0  0  0  0  0  0  0
   46.2880   31.5960   46.9800 N   0  0  0  0  0  0  0  0  0  0  0  0
   42.5253   31.5735   42.0153 H   0  0  0  0  0  0  0  0  0  0  0  0
   42.0349   34.9929   42.0926 H   0  0  0  0  0  0  0  0  0  0  0  0
   42.0624   36.0783   39.8945 H   0  0  0  0  0  0  0  0  0  0  0  0
   43.7215   35.5761   40.0222 H   0  0  0  0  0  0  0  0  0  0  0  0
   43.2046   33.3917   38.8458 H   0  0  0  0  0  0  0  0  0  0  0  0
   42.4307   34.6000   37.8675 H   0  0  0  0  0  0  0  0  0  0  0  0
   39.1715   35.2703   38.2714 H   0  0  0  0  0  0  0  0  0  0  0  0
   37.2157   33.9920   36.8958 H   0  0  0  0  0  0  0  0  0  0  0  0
   37.8974   31.3713   37.0013 H   0  0  0  0  0  0  0  0  0  0  0  0
   48.3758   32.6772   44.3573 H   0  0  0  0  0  0  0  0  0  0  0  0
   47.0821   32.5099   41.6529 H   0  0  0  0  0  0  0  0  0  0  0  0
   48.2502   34.8994   42.6070 H   0  0  0  0  0  0  0  0  0  0  0  0
   46.9077   35.3993   43.2211 H   0  0  0  0  0  0  0  0  0  0  0  0
   47.6482   31.0618   45.4917 H   0  0  0  0  0  0  0  0  0  0  0  0
   45.6807   34.8487   45.0799 H   0  0  0  0  0  0  0  0  0  0  0  0
   44.8659   32.3191   48.3946 H   0  0  0  0  0  0  0  0  0  0  0  0
  1  2  1  0
  1 18  1  0
  3  2  2  0
  4  5  1  0
  4  3  1  0
  5  1  2  0
  7  8  1  0
  7  6  2  0
  8  4  1  0
  9  8  1  0
 10 11  1  0
 10  9  1  0
 11  7  1  0
 12 11  1  0
 13 12  2  0
 14 15  2  0
 14 13  1  0
 15 16  1  0
 16 12  1  0
 17 21  1  0
 18 19  1  0
 18 17  1  0
 19 17  1  0
 20 25  2  0
 21 22  2  0
 21 20  1  0
 22 23  1  0
 23 24  2  0
 25 24  1  0
  3 26  1  0
  8 27  1  1
  9 28  1  0
  9 29  1  0
 10 30  1  0
 10 31  1  0
 13 32  1  0
 14 33  1  0
 15 34  1  0
 17 35  1  6
 18 36  1  6
 19 37  1  0
 19 38  1  0
 20 39  1  0
 22 40  1  0
 24 41  1  0
M  ISO  8  26  14  27  13  28  13  29  13  30  13  31  13  32  14  33  14
M  ISO  8  34  14  35  13  36  13  37  13  38  13  39  14  40  14  41  14
M  END
>  <minimizedAffinity>  (1) 
-5.83851242

>  <minimizedRMSD>  (1) 
1.42026758

$$$$
