
     RDKit          3D

 48 51  0  0  1  0  0  0  0  0999 V2000
   47.8300   32.8400   41.5880 C   0  0  1  0  0  0  0  0  0  0  0  0
   47.3690   32.1430   40.3710 C   0  0  0  0  0  0  0  0  0  0  0  0
   48.3640   32.5160   39.2750 C   0  0  0  0  0  0  0  0  0  0  0  0
   48.1160   33.9930   38.9760 C   0  0  0  0  0  0  0  0  0  0  0  0
   48.1760   34.8770   40.1560 C   0  0  0  0  0  0  0  0  0  0  0  0
   47.7470   34.3480   41.4630 C   0  0  1  0  0  0  0  0  0  0  0  0
   45.5330   31.0660   44.0060 C   0  0  0  0  0  0  0  0  0  0  0  0
   46.1580   31.5120   42.8440 C   0  0  0  0  0  0  0  0  0  0  0  0
   47.2220   32.4000   42.8380 C   0  0  0  0  0  0  0  0  0  0  0  0
   47.6310   32.8220   44.0460 N   0  0  0  0  0  0  0  0  0  0  0  0
   47.0360   32.4010   45.1890 C   0  0  0  0  0  0  0  0  0  0  0  0
   46.0100   31.5430   45.1800 N   0  0  0  0  0  0  0  0  0  0  0  0
   46.4000   34.8350   41.8490 C   0  0  0  0  0  0  0  0  0  0  0  0
   46.1040   35.6860   42.9170 C   0  0  0  0  0  0  0  0  0  0  0  0
   44.7540   36.0160   43.0570 C   0  0  0  0  0  0  0  0  0  0  0  0
   43.8530   35.4970   42.1660 C   0  0  0  0  0  0  0  0  0  0  0  0
   44.1490   34.6660   41.1280 C   0  0  0  0  0  0  0  0  0  0  0  0
   45.4610   34.3470   40.9930 N   0  0  0  0  0  0  0  0  0  0  0  0
   41.8410   34.3370   40.0730 C   0  0  0  0  0  0  0  0  0  0  0  0
   43.1950   34.1590   40.1490 C   0  0  0  0  0  0  0  0  0  0  0  0
   43.7420   33.3430   39.1710 C   0  0  0  0  0  0  0  0  0  0  0  0
   43.0450   32.7250   38.1670 C   0  0  0  0  0  0  0  0  0  0  0  0
   41.6830   32.9040   38.0850 C   0  0  0  0  0  0  0  0  0  0  0  0
   41.1210   33.7100   39.0490 C   0  0  0  0  0  0  0  0  0  0  0  0
   41.0430   35.2660   41.2760 S   0  0  0  0  0  0  0  0  0  0  0  0
   40.0430   34.5070   42.0980 O   0  0  0  0  0  0  0  0  0  0  0  0
   40.1750   36.2840   40.5050 O   0  0  0  0  0  0  0  0  0  0  0  0
   48.8867   32.5419   41.6547 H   0  0  0  0  0  0  0  0  0  0  0  0
   47.3658   31.0547   40.5310 H   0  0  0  0  0  0  0  0  0  0  0  0
   46.3429   32.4343   40.1021 H   0  0  0  0  0  0  0  0  0  0  0  0
   49.3955   32.3637   39.6255 H   0  0  0  0  0  0  0  0  0  0  0  0
   48.2323   31.8928   38.3782 H   0  0  0  0  0  0  0  0  0  0  0  0
   48.8764   34.3297   38.2560 H   0  0  0  0  0  0  0  0  0  0  0  0
   47.0903   34.0640   38.5850 H   0  0  0  0  0  0  0  0  0  0  0  0
   49.2220   35.1993   40.2654 H   0  0  0  0  0  0  0  0  0  0  0  0
   47.4417   35.6656   39.9347 H   0  0  0  0  0  0  0  0  0  0  0  0
   48.4825   34.7508   42.1749 H   0  0  0  0  0  0  0  0  0  0  0  0
   44.6910   30.3591   43.9716 H   0  0  0  0  0  0  0  0  0  0  0  0
   45.7868   31.1390   41.8781 H   0  0  0  0  0  0  0  0  0  0  0  0
   47.4084   32.7766   46.1535 H   0  0  0  0  0  0  0  0  0  0  0  0
   46.8783   36.0685   43.5983 H   0  0  0  0  0  0  0  0  0  0  0  0
   44.4208   36.6804   43.8679 H   0  0  0  0  0  0  0  0  0  0  0  0
   42.7974   35.7756   42.3002 H   0  0  0  0  0  0  0  0  0  0  0  0
   44.8290   33.1777   39.2041 H   0  0  0  0  0  0  0  0  0  0  0  0
   43.5680   32.0927   37.4344 H   0  0  0  0  0  0  0  0  0  0  0  0
   41.0795   32.4312   37.2962 H   0  0  0  0  0  0  0  0  0  0  0  0
   40.0337   33.8723   39.0124 H   0  0  0  0  0  0  0  0  0  0  0  0
   42.0148   35.7593   42.1061 H   0  0  0  0  0  0  0  0  0  0  0  0
  1  9  1  0
  2  1  1  0
  3  2  1  0
  4  3  1  0
  4  5  1  0
  5  6  1  0
  6  1  1  0
  6 13  1  0
  7 12  2  0
  8  7  1  0
  9  8  2  0
  9 10  1  0
 10 11  2  0
 12 11  1  0
 13 14  2  0
 14 15  1  0
 16 15  2  0
 17 16  1  0
 18 17  2  0
 18 13  1  0
 19 20  2  0
 19 25  1  0
 20 17  1  0
 21 20  1  0
 22 21  2  0
 23 22  1  0
 23 24  2  0
 24 19  1  0
 25 26  2  0
 27 25  2  0
  1 28  1  1
  2 29  1  0
  2 30  1  0
  3 31  1  0
  3 32  1  0
  4 33  1  0
  4 34  1  0
  5 35  1  0
  5 36  1  0
  6 37  1  1
  7 38  1  0
  8 39  1  0
 11 40  1  0
 14 41  1  0
 15 42  1  0
 16 43  1  0
 21 44  1  0
 22 45  1  0
 23 46  1  0
 24 47  1  0
 25 48  1  0
M  ISO  8  28  13  29  13  30  13  31  13  32  13  33  13  34  13  35  13
M  ISO  8  36  13  37  13  38  14  39  14  40  14  41  14  42  14  43  14
M  ISO  5  44  14  45  14  46  14  47  14  48  11
M  END
>  <minimizedAffinity>  (1) 
-6.13757944

>  <minimizedRMSD>  (1) 
1.00385058

$$$$
