
     RDKit          3D

 41 43  0  0  1  0  0  0  0  0999 V2000
   47.8380   32.8310   41.5940 C   0  0  1  0  0  0  0  0  0  0  0  0
   47.5490   31.9250   40.4610 C   0  0  0  0  0  0  0  0  0  0  0  0
   48.5640   32.3000   39.3740 C   0  0  0  0  0  0  0  0  0  0  0  0
   48.1380   33.6660   38.8550 C   0  0  0  0  0  0  0  0  0  0  0  0
   48.0210   34.7060   39.9210 C   0  0  0  0  0  0  0  0  0  0  0  0
   47.5650   34.2780   41.2490 C   0  0  1  0  0  0  0  0  0  0  0  0
   45.5470   31.1650   44.0970 C   0  0  0  0  0  0  0  0  0  0  0  0
   46.1930   31.5340   42.9180 C   0  0  0  0  0  0  0  0  0  0  0  0
   47.2060   32.4810   42.8610 C   0  0  0  0  0  0  0  0  0  0  0  0
   47.5460   33.0460   44.0300 N   0  0  0  0  0  0  0  0  0  0  0  0
   46.9280   32.7000   45.1880 C   0  0  0  0  0  0  0  0  0  0  0  0
   45.9520   31.7850   45.2310 N   0  0  0  0  0  0  0  0  0  0  0  0
   46.1590   34.6370   41.5090 C   0  0  0  0  0  0  0  0  0  0  0  0
   45.6820   35.4820   42.5210 C   0  0  0  0  0  0  0  0  0  0  0  0
   44.2920   35.6790   42.5350 C   0  0  0  0  0  0  0  0  0  0  0  0
   43.5250   35.0440   41.5790 C   0  0  0  0  0  0  0  0  0  0  0  0
   44.0190   34.2190   40.5960 C   0  0  0  0  0  0  0  0  0  0  0  0
   45.3640   34.0280   40.5810 N   0  0  0  0  0  0  0  0  0  0  0  0
   43.1500   33.6310   39.6800 O   0  0  0  0  0  0  0  0  0  0  0  0
   41.2800   35.4530   39.6740 O   0  0  0  0  0  0  0  0  0  0  0  0
   42.1340   34.6140   38.7190 P   0  0  0  0  0  0  0  0  0  0  0  0
   42.9790   35.6550   37.7050 O   0  0  0  0  0  0  0  0  0  0  0  0
   41.0870   33.6670   37.7890 O   0  0  0  0  0  0  0  0  0  0  0  0
   48.9163   32.6920   41.7611 H   0  0  0  0  0  0  0  0  0  0  0  0
   47.6789   30.8756   40.7640 H   0  0  0  0  0  0  0  0  0  0  0  0
   46.5125   32.0281   40.1074 H   0  0  0  0  0  0  0  0  0  0  0  0
   49.5773   32.3516   39.7988 H   0  0  0  0  0  0  0  0  0  0  0  0
   48.5858   31.5518   38.5680 H   0  0  0  0  0  0  0  0  0  0  0  0
   48.8824   34.0053   38.1196 H   0  0  0  0  0  0  0  0  0  0  0  0
   47.1372   33.5439   38.4151 H   0  0  0  0  0  0  0  0  0  0  0  0
   49.0149   35.1604   40.0463 H   0  0  0  0  0  0  0  0  0  0  0  0
   47.2312   35.3823   39.5621 H   0  0  0  0  0  0  0  0  0  0  0  0
   48.2000   34.8569   41.9357 H   0  0  0  0  0  0  0  0  0  0  0  0
   44.7486   30.4084   44.1058 H   0  0  0  0  0  0  0  0  0  0  0  0
   45.8828   31.0478   41.9813 H   0  0  0  0  0  0  0  0  0  0  0  0
   47.2399   33.1883   46.1230 H   0  0  0  0  0  0  0  0  0  0  0  0
   46.3507   35.9578   43.2535 H   0  0  0  0  0  0  0  0  0  0  0  0
   43.8240   36.3257   43.2918 H   0  0  0  0  0  0  0  0  0  0  0  0
   42.4380   35.2103   41.6055 H   0  0  0  0  0  0  0  0  0  0  0  0
   43.4997   36.2965   38.2504 H   0  0  0  0  0  0  0  0  0  0  0  0
   40.5018   33.1377   38.3869 H   0  0  0  0  0  0  0  0  0  0  0  0
  1  9  1  0
  2  1  1  0
  3  2  1  0
  4  3  1  0
  4  5  1  0
  5  6  1  0
  6 13  1  0
  6  1  1  0
  7 12  2  0
  8  7  1  0
  9  8  2  0
  9 10  1  0
 10 11  2  0
 11 12  1  0
 13 14  2  0
 14 15  1  0
 16 15  2  0
 17 16  1  0
 18 17  2  0
 18 13  1  0
 19 17  1  0
 21 20  2  0
 21 19  1  0
 22 21  1  0
 23 21  1  0
  1 24  1  1
  2 25  1  0
  2 26  1  0
  3 27  1  0
  3 28  1  0
  4 29  1  0
  4 30  1  0
  5 31  1  0
  5 32  1  0
  6 33  1  1
  7 34  1  0
  8 35  1  0
 11 36  1  0
 14 37  1  0
 15 38  1  0
 16 39  1  0
 22 40  1  0
 23 41  1  0
M  ISO  8  24  13  25  13  26  13  27  13  28  13  29  13  30  13  31  13
M  ISO  8  32  13  33  13  34  14  35  14  36  14  37  14  38  14  39  14
M  ISO  2  40   3  41   3
M  END
>  <minimizedAffinity>  (1) 
-5.49781895

>  <minimizedRMSD>  (1) 
0.827759206

$$$$
