
     RDKit          3D

 39 41  0  0  1  0  0  0  0  0999 V2000
   47.8560   32.9070   41.8970 C   0  0  1  0  0  0  0  0  0  0  0  0
   47.5740   32.3090   40.5750 C   0  0  0  0  0  0  0  0  0  0  0  0
   48.6560   32.8640   39.6420 C   0  0  0  0  0  0  0  0  0  0  0  0
   48.3270   34.3310   39.4450 C   0  0  0  0  0  0  0  0  0  0  0  0
   48.2240   35.1030   40.7260 C   0  0  0  0  0  0  0  0  0  0  0  0
   47.6740   34.4120   41.8970 C   0  0  1  0  0  0  0  0  0  0  0  0
   46.2700   34.7770   42.1740 C   0  0  0  0  0  0  0  0  0  0  0  0
   45.7540   35.2320   43.3950 C   0  0  0  0  0  0  0  0  0  0  0  0
   44.3930   35.5360   43.4010 C   0  0  0  0  0  0  0  0  0  0  0  0
   43.6770   35.3660   42.2220 C   0  0  0  0  0  0  0  0  0  0  0  0
   44.2020   34.9230   41.0550 C   0  0  0  0  0  0  0  0  0  0  0  0
   45.5170   34.6330   41.0590 N   0  0  0  0  0  0  0  0  0  0  0  0
   42.1270   34.9700   39.5680 C   0  0  0  0  0  0  0  0  0  0  0  0
   41.4020   35.3850   40.4740 O   0  0  0  0  0  0  0  0  0  0  0  0
   43.4790   34.7480   39.8480 N   0  0  0  0  0  0  0  0  0  0  0  0
   45.3310   30.9050   43.8700 C   0  0  0  0  0  0  0  0  0  0  0  0
   46.0480   31.4940   42.8310 C   0  0  0  0  0  0  0  0  0  0  0  0
   47.1510   32.3120   43.0270 C   0  0  0  0  0  0  0  0  0  0  0  0
   47.5040   32.5160   44.3070 N   0  0  0  0  0  0  0  0  0  0  0  0
   46.8150   31.9500   45.3290 C   0  0  0  0  0  0  0  0  0  0  0  0
   45.7550   31.1630   45.1290 N   0  0  0  0  0  0  0  0  0  0  0  0
   48.9173   32.6660   42.0570 H   0  0  0  0  0  0  0  0  0  0  0  0
   47.6356   31.2120   40.6271 H   0  0  0  0  0  0  0  0  0  0  0  0
   46.5617   32.5540   40.2211 H   0  0  0  0  0  0  0  0  0  0  0  0
   49.6496   32.7536   40.1009 H   0  0  0  0  0  0  0  0  0  0  0  0
   48.6770   32.3240   38.6839 H   0  0  0  0  0  0  0  0  0  0  0  0
   49.1174   34.7844   38.8289 H   0  0  0  0  0  0  0  0  0  0  0  0
   47.3399   34.3769   38.9618 H   0  0  0  0  0  0  0  0  0  0  0  0
   49.2378   35.4391   40.9892 H   0  0  0  0  0  0  0  0  0  0  0  0
   47.5005   35.9031   40.5106 H   0  0  0  0  0  0  0  0  0  0  0  0
   48.2928   34.7848   42.7266 H   0  0  0  0  0  0  0  0  0  0  0  0
   46.3823   35.3423   44.2912 H   0  0  0  0  0  0  0  0  0  0  0  0
   43.8996   35.9004   44.3141 H   0  0  0  0  0  0  0  0  0  0  0  0
   42.6044   35.6093   42.2380 H   0  0  0  0  0  0  0  0  0  0  0  0
   41.7207   34.7789   38.5638 H   0  0  0  0  0  0  0  0  0  0  0  0
   44.0366   34.4036   39.0534 H   0  0  0  0  0  0  0  0  0  0  0  0
   44.4610   30.2604   43.6762 H   0  0  0  0  0  0  0  0  0  0  0  0
   45.7216   31.2998   41.7986 H   0  0  0  0  0  0  0  0  0  0  0  0
   47.1415   32.1466   46.3609 H   0  0  0  0  0  0  0  0  0  0  0  0
  1  6  1  0
  1 18  1  0
  2  1  1  0
  3  2  1  0
  4  3  1  0
  4  5  1  0
  5  6  1  0
  6  7  1  0
  7  8  2  0
  8  9  1  0
 10  9  2  0
 11 12  2  0
 11 10  1  0
 12  7  1  0
 13 15  1  0
 13 14  2  0
 15 11  1  0
 16 21  2  0
 17 18  2  0
 17 16  1  0
 18 19  1  0
 19 20  2  0
 21 20  1  0
  1 22  1  1
  2 23  1  0
  2 24  1  0
  3 25  1  0
  3 26  1  0
  4 27  1  0
  4 28  1  0
  5 29  1  0
  5 30  1  0
  6 31  1  1
  8 32  1  0
  9 33  1  0
 10 34  1  0
 13 35  1  0
 15 36  1  0
 16 37  1  0
 17 38  1  0
 20 39  1  0
M  ISO  8  22  13  23  13  24  13  25  13  26  13  27  13  28  13  29  13
M  ISO  8  30  13  31  13  32  14  33  14  34  14  35   6  37  14  38  14
M  ISO  1  39  14
M  END
>  <minimizedAffinity>  (1) 
-5.45048189

>  <minimizedRMSD>  (1) 
0.170629457

$$$$
