
     RDKit          3D

 25 26  0  0  0  0  0  0  0  0999 V2000
   47.5210   31.8460   44.7160 Cl  0  0  0  0  0  0  0  0  0  0  0  0
   46.7160   31.9180   46.2890 C   0  0  0  0  0  0  0  0  0  0  0  0
   45.8500   32.9620   46.5180 C   0  0  0  0  0  0  0  0  0  0  0  0
   45.2470   33.0110   47.7230 C   0  0  0  0  0  0  0  0  0  0  0  0
   45.5250   32.0140   48.6710 C   0  0  0  0  0  0  0  0  0  0  0  0
   46.3900   30.9780   48.4280 C   0  0  0  0  0  0  0  0  0  0  0  0
   47.0120   30.9190   47.1980 C   0  0  0  0  0  0  0  0  0  0  0  0
   44.5330   35.8520   44.7340 C   0  0  0  0  0  0  0  0  0  0  0  0
   45.1960   35.8110   43.4800 C   0  0  0  0  0  0  0  0  0  0  0  0
   46.1080   34.7420   43.2950 C   0  0  0  0  0  0  0  0  0  0  0  0
   46.2740   33.8630   44.3070 N   0  0  0  0  0  0  0  0  0  0  0  0
   45.6210   33.9490   45.4750 C   0  0  0  0  0  0  0  0  0  0  0  0
   44.7460   34.9500   45.6870 N   0  0  0  0  0  0  0  0  0  0  0  0
   46.7600   34.7440   41.9930 C   0  0  0  0  0  0  0  0  0  0  0  0
   47.5260   33.5780   41.8900 F   0  0  0  0  0  0  0  0  0  0  0  0
   47.6650   35.7640   41.9920 F   0  0  0  0  0  0  0  0  0  0  0  0
   45.8850   34.7510   40.9270 F   0  0  0  0  0  0  0  0  0  0  0  0
   47.9090   29.8550   46.9310 N   0  0  0  0  0  0  0  0  0  0  0  0
   44.5447   33.8236   47.9605 H   0  0  0  0  0  0  0  0  0  0  0  0
   45.0277   32.0659   49.6508 H   0  0  0  0  0  0  0  0  0  0  0  0
   46.5831   30.2132   49.1946 H   0  0  0  0  0  0  0  0  0  0  0  0
   43.8142   36.6624   44.9251 H   0  0  0  0  0  0  0  0  0  0  0  0
   45.0131   36.5634   42.6987 H   0  0  0  0  0  0  0  0  0  0  0  0
   48.0885   29.1400   47.6503 H   0  0  0  0  0  0  0  0  0  0  0  0
   48.3815   29.7967   46.0176 H   0  0  0  0  0  0  0  0  0  0  0  0
  1  2  1  0
  2  3  2  0
  2  7  1  0
  3  4  1  0
  4  5  2  0
  6  5  1  0
  7  6  2  0
  8 13  2  0
  9  8  1  0
 10  9  2  0
 10 11  1  0
 11 12  2  0
 12 13  1  0
 12  3  1  0
 14 10  1  0
 15 14  1  0
 16 14  1  0
 17 14  1  0
 18  7  1  0
  4 19  1  0
  5 20  1  0
  6 21  1  0
  8 22  1  0
  9 23  1  0
 18 24  1  0
 18 25  1  0
M  ISO  5  19  14  20  14  21  14  22  14  23  14
M  END
>  <minimizedAffinity>  (1) 
-5.74074268

>  <minimizedRMSD>  (1) 
0.0250815246

$$$$
