
     RDKit          3D

 45 48  0  0  1  0  0  0  0  0999 V2000
   47.8440   32.9060   41.8370 C   0  0  1  0  0  0  0  0  0  0  0  0
   47.5420   32.2840   40.5480 C   0  0  0  0  0  0  0  0  0  0  0  0
   48.5670   32.8260   39.5580 C   0  0  0  0  0  0  0  0  0  0  0  0
   48.2270   34.2760   39.3330 C   0  0  0  0  0  0  0  0  0  0  0  0
   48.1460   35.0830   40.5920 C   0  0  0  0  0  0  0  0  0  0  0  0
   47.6380   34.4240   41.8050 C   0  0  1  0  0  0  0  0  0  0  0  0
   45.4020   30.9350   43.9360 C   0  0  0  0  0  0  0  0  0  0  0  0
   46.0880   31.5010   42.8580 C   0  0  0  0  0  0  0  0  0  0  0  0
   47.1860   32.3520   43.0010 C   0  0  0  0  0  0  0  0  0  0  0  0
   47.5580   32.6060   44.2560 N   0  0  0  0  0  0  0  0  0  0  0  0
   46.9010   32.0610   45.3120 C   0  0  0  0  0  0  0  0  0  0  0  0
   45.8520   31.2490   45.1690 N   0  0  0  0  0  0  0  0  0  0  0  0
   46.2500   34.7840   42.1030 C   0  0  0  0  0  0  0  0  0  0  0  0
   45.7830   35.3330   43.3000 C   0  0  0  0  0  0  0  0  0  0  0  0
   44.4150   35.6130   43.3550 C   0  0  0  0  0  0  0  0  0  0  0  0
   43.6500   35.3270   42.2360 C   0  0  0  0  0  0  0  0  0  0  0  0
   44.1300   34.7820   41.0540 C   0  0  0  0  0  0  0  0  0  0  0  0
   45.4690   34.5200   41.0310 N   0  0  0  0  0  0  0  0  0  0  0  0
   43.2310   34.5270   39.9360 C   0  0  0  0  0  0  0  0  0  0  0  0
   42.2500   35.3240   39.7910 O   0  0  0  0  0  0  0  0  0  0  0  0
   43.3130   33.4580   38.9480 C   0  0  0  0  0  0  0  0  0  0  0  0
   42.1790   32.7150   38.7080 C   0  0  0  0  0  0  0  0  0  0  0  0
   42.2200   31.6800   37.7680 C   0  0  0  0  0  0  0  0  0  0  0  0
   43.3840   31.4270   37.1080 N   0  0  0  0  0  0  0  0  0  0  0  0
   44.4770   32.1410   37.3380 C   0  0  0  0  0  0  0  0  0  0  0  0
   44.3950   33.1110   38.2340 N   0  0  0  0  0  0  0  0  0  0  0  0
   48.9085   32.6615   41.9680 H   0  0  0  0  0  0  0  0  0  0  0  0
   47.6280   31.1900   40.6240 H   0  0  0  0  0  0  0  0  0  0  0  0
   46.5157   32.5133   40.2252 H   0  0  0  0  0  0  0  0  0  0  0  0
   49.5811   32.7346   39.9742 H   0  0  0  0  0  0  0  0  0  0  0  0
   48.5413   32.2625   38.6136 H   0  0  0  0  0  0  0  0  0  0  0  0
   49.0012   34.7172   38.6881 H   0  0  0  0  0  0  0  0  0  0  0  0
   47.2284   34.3019   38.8725 H   0  0  0  0  0  0  0  0  0  0  0  0
   49.1614   35.4419   40.8160 H   0  0  0  0  0  0  0  0  0  0  0  0
   47.4012   35.8617   40.3709 H   0  0  0  0  0  0  0  0  0  0  0  0
   48.2680   34.8237   42.6132 H   0  0  0  0  0  0  0  0  0  0  0  0
   44.5399   30.2681   43.7872 H   0  0  0  0  0  0  0  0  0  0  0  0
   45.7441   31.2630   41.8406 H   0  0  0  0  0  0  0  0  0  0  0  0
   47.2483   32.2990   46.3283 H   0  0  0  0  0  0  0  0  0  0  0  0
   46.4529   35.5331   44.1493 H   0  0  0  0  0  0  0  0  0  0  0  0
   43.9602   36.0466   44.2579 H   0  0  0  0  0  0  0  0  0  0  0  0
   42.5742   35.5503   42.2890 H   0  0  0  0  0  0  0  0  0  0  0  0
   41.2479   32.9336   39.2513 H   0  0  0  0  0  0  0  0  0  0  0  0
   41.3225   31.0775   37.5643 H   0  0  0  0  0  0  0  0  0  0  0  0
   45.4164   31.9348   36.8042 H   0  0  0  0  0  0  0  0  0  0  0  0
  1  9  1  0
  2  1  1  0
  3  2  1  0
  4  3  1  0
  4  5  1  0
  5  6  1  0
  6  1  1  0
  6 13  1  0
  7 12  2  0
  8  9  2  0
  8  7  1  0
  9 10  1  0
 10 11  2  0
 12 11  1  0
 13 14  2  0
 14 15  1  0
 16 15  2  0
 17 16  1  0
 18 17  2  0
 18 13  1  0
 19 17  1  0
 20 19  2  0
 21 19  1  0
 22 21  2  0
 23 22  1  0
 24 25  1  0
 24 23  2  0
 25 26  2  0
 26 21  1  0
  1 27  1  1
  2 28  1  0
  2 29  1  0
  3 30  1  0
  3 31  1  0
  4 32  1  0
  4 33  1  0
  5 34  1  0
  5 35  1  0
  6 36  1  1
  7 37  1  0
  8 38  1  0
 11 39  1  0
 14 40  1  0
 15 41  1  0
 16 42  1  0
 22 43  1  0
 23 44  1  0
 25 45  1  0
M  ISO  8  27  13  28  13  29  13  30  13  31  13  32  13  33  13  34  13
M  ISO  8  35  13  36  13  37  14  38  14  39  14  40  14  41  14  42  14
M  ISO  3  43  14  44  14  45  14
M  END
>  <minimizedAffinity>  (1) 
-5.46260834

>  <minimizedRMSD>  (1) 
0.56552434

$$$$
