
     RDKit          3D

 44 47  0  0  1  0  0  0  0  0999 V2000
   47.8600   32.9100   41.8690 C   0  0  1  0  0  0  0  0  0  0  0  0
   47.5710   32.2870   40.5770 C   0  0  0  0  0  0  0  0  0  0  0  0
   48.6060   32.8380   39.5990 C   0  0  0  0  0  0  0  0  0  0  0  0
   48.2610   34.2860   39.3710 C   0  0  0  0  0  0  0  0  0  0  0  0
   48.1590   35.0950   40.6330 C   0  0  0  0  0  0  0  0  0  0  0  0
   47.6470   34.4270   41.8420 C   0  0  1  0  0  0  0  0  0  0  0  0
   45.4090   30.9340   43.9520 C   0  0  0  0  0  0  0  0  0  0  0  0
   46.1020   31.5020   42.8790 C   0  0  0  0  0  0  0  0  0  0  0  0
   47.1950   32.3530   43.0300 C   0  0  0  0  0  0  0  0  0  0  0  0
   47.5580   32.6070   44.2870 N   0  0  0  0  0  0  0  0  0  0  0  0
   46.8940   32.0630   45.3410 C   0  0  0  0  0  0  0  0  0  0  0  0
   45.8450   31.2460   45.1890 N   0  0  0  0  0  0  0  0  0  0  0  0
   46.2570   34.7840   42.1270 C   0  0  0  0  0  0  0  0  0  0  0  0
   45.7820   35.3280   43.3270 C   0  0  0  0  0  0  0  0  0  0  0  0
   44.4170   35.6060   43.3710 C   0  0  0  0  0  0  0  0  0  0  0  0
   43.6550   35.3240   42.2400 C   0  0  0  0  0  0  0  0  0  0  0  0
   44.1490   34.7840   41.0640 C   0  0  0  0  0  0  0  0  0  0  0  0
   45.4850   34.5210   41.0440 N   0  0  0  0  0  0  0  0  0  0  0  0
   43.2650   34.5300   39.9330 C   0  0  0  0  0  0  0  0  0  0  0  0
   42.2050   35.2250   39.8590 O   0  0  0  0  0  0  0  0  0  0  0  0
   43.4810   33.5480   38.8730 C   0  0  0  0  0  0  0  0  0  0  0  0
   42.4480   32.8290   38.3090 C   0  0  0  0  0  0  0  0  0  0  0  0
   42.9930   32.0160   37.3690 N   0  0  0  0  0  0  0  0  0  0  0  0
   44.3060   32.1910   37.3170 C   0  0  0  0  0  0  0  0  0  0  0  0
   44.5850   33.1270   38.2390 N   0  0  0  0  0  0  0  0  0  0  0  0
   48.9250   32.6690   42.0023 H   0  0  0  0  0  0  0  0  0  0  0  0
   47.6613   31.1933   40.6521 H   0  0  0  0  0  0  0  0  0  0  0  0
   46.5463   32.5092   40.2445 H   0  0  0  0  0  0  0  0  0  0  0  0
   49.6154   32.7521   40.0276 H   0  0  0  0  0  0  0  0  0  0  0  0
   48.5945   32.2758   38.6536 H   0  0  0  0  0  0  0  0  0  0  0  0
   49.0410   34.7318   38.7362 H   0  0  0  0  0  0  0  0  0  0  0  0
   47.2680   34.3064   38.8983 H   0  0  0  0  0  0  0  0  0  0  0  0
   49.1679   35.4660   40.8664 H   0  0  0  0  0  0  0  0  0  0  0  0
   47.4081   35.8661   40.4057 H   0  0  0  0  0  0  0  0  0  0  0  0
   48.2696   34.8202   42.6592 H   0  0  0  0  0  0  0  0  0  0  0  0
   44.5500   30.2652   43.7947 H   0  0  0  0  0  0  0  0  0  0  0  0
   45.7659   31.2640   41.8590 H   0  0  0  0  0  0  0  0  0  0  0  0
   47.2324   32.3039   46.3595 H   0  0  0  0  0  0  0  0  0  0  0  0
   46.4455   35.5238   44.1822 H   0  0  0  0  0  0  0  0  0  0  0  0
   43.9553   36.0354   44.2723 H   0  0  0  0  0  0  0  0  0  0  0  0
   42.5788   35.5471   42.2839 H   0  0  0  0  0  0  0  0  0  0  0  0
   41.3823   32.9010   38.5718 H   0  0  0  0  0  0  0  0  0  0  0  0
   42.4627   31.3576   36.7806 H   0  0  0  0  0  0  0  0  0  0  0  0
   45.0190   31.6765   36.6560 H   0  0  0  0  0  0  0  0  0  0  0  0
  1  9  1  0
  2  1  1  0
  3  2  1  0
  4  3  1  0
  4  5  1  0
  5  6  1  0
  6  1  1  0
  6 13  1  0
  7 12  2  0
  8  9  2  0
  8  7  1  0
  9 10  1  0
 10 11  2  0
 12 11  1  0
 13 14  2  0
 14 15  1  0
 16 15  2  0
 17 16  1  0
 18 17  2  0
 18 13  1  0
 19 17  1  0
 20 19  2  0
 21 19  1  0
 22 21  2  0
 23 22  1  0
 24 23  1  0
 24 25  2  0
 25 21  1  0
  1 26  1  1
  2 27  1  0
  2 28  1  0
  3 29  1  0
  3 30  1  0
  4 31  1  0
  4 32  1  0
  5 33  1  0
  5 34  1  0
  6 35  1  1
  7 36  1  0
  8 37  1  0
 11 38  1  0
 14 39  1  0
 15 40  1  0
 16 41  1  0
 22 42  1  0
 23 43  1  0
 24 44  1  0
M  ISO  8  26  13  27  13  28  13  29  13  30  13  31  13  32  13  33  13
M  ISO  8  34  13  35  13  36  14  37  14  38  14  39  14  40  14  41  14
M  ISO  3  42  14  43   9  44  14
M  END
>  <minimizedAffinity>  (1) 
-5.44164801

>  <minimizedRMSD>  (1) 
0.559174836

$$$$
