
     RDKit          3D

 38 40  0  0  1  0  0  0  0  0999 V2000
   47.8700   32.8880   41.7990 C   0  0  1  0  0  0  0  0  0  0  0  0
   47.5740   32.1930   40.5460 C   0  0  0  0  0  0  0  0  0  0  0  0
   48.5980   32.6970   39.5330 C   0  0  0  0  0  0  0  0  0  0  0  0
   48.2420   34.1480   39.2390 C   0  0  0  0  0  0  0  0  0  0  0  0
   48.1580   35.0140   40.4580 C   0  0  0  0  0  0  0  0  0  0  0  0
   47.6480   34.4010   41.6880 C   0  0  1  0  0  0  0  0  0  0  0  0
   45.4580   31.0010   44.0100 C   0  0  0  0  0  0  0  0  0  0  0  0
   46.1410   31.5160   42.9040 C   0  0  0  0  0  0  0  0  0  0  0  0
   47.2220   32.3950   42.9970 C   0  0  0  0  0  0  0  0  0  0  0  0
   47.5820   32.7290   44.2360 N   0  0  0  0  0  0  0  0  0  0  0  0
   46.9290   32.2360   45.3220 C   0  0  0  0  0  0  0  0  0  0  0  0
   45.8970   31.3980   45.2290 N   0  0  0  0  0  0  0  0  0  0  0  0
   46.2590   34.7660   41.9710 C   0  0  0  0  0  0  0  0  0  0  0  0
   45.7940   35.3920   43.1380 C   0  0  0  0  0  0  0  0  0  0  0  0
   44.4320   35.6590   43.1830 C   0  0  0  0  0  0  0  0  0  0  0  0
   43.6560   35.2920   42.0900 C   0  0  0  0  0  0  0  0  0  0  0  0
   44.1370   34.6770   40.9530 C   0  0  0  0  0  0  0  0  0  0  0  0
   45.4780   34.4220   40.9270 N   0  0  0  0  0  0  0  0  0  0  0  0
   43.2420   34.3260   39.8420 C   0  0  0  0  0  0  0  0  0  0  0  0
   42.3500   35.1580   39.5260 O   0  0  0  0  0  0  0  0  0  0  0  0
   43.2690   33.1620   39.0850 O   0  0  0  0  0  0  0  0  0  0  0  0
   48.9369   32.6578   41.9356 H   0  0  0  0  0  0  0  0  0  0  0  0
   47.6721   31.1056   40.6798 H   0  0  0  0  0  0  0  0  0  0  0  0
   46.5450   32.3889   40.2101 H   0  0  0  0  0  0  0  0  0  0  0  0
   49.6120   32.6330   39.9545 H   0  0  0  0  0  0  0  0  0  0  0  0
   48.5797   32.0905   38.6155 H   0  0  0  0  0  0  0  0  0  0  0  0
   49.0108   34.5643   38.5714 H   0  0  0  0  0  0  0  0  0  0  0  0
   47.2413   34.1437   38.7823 H   0  0  0  0  0  0  0  0  0  0  0  0
   49.1719   35.3844   40.6699 H   0  0  0  0  0  0  0  0  0  0  0  0
   47.4192   35.7879   40.2025 H   0  0  0  0  0  0  0  0  0  0  0  0
   48.2759   34.8404   42.4771 H   0  0  0  0  0  0  0  0  0  0  0  0
   44.6094   30.3103   43.8966 H   0  0  0  0  0  0  0  0  0  0  0  0
   45.8070   31.2107   41.9014 H   0  0  0  0  0  0  0  0  0  0  0  0
   47.2679   32.5427   46.3225 H   0  0  0  0  0  0  0  0  0  0  0  0
   46.4677   35.6552   43.9668 H   0  0  0  0  0  0  0  0  0  0  0  0
   43.9801   36.1472   44.0590 H   0  0  0  0  0  0  0  0  0  0  0  0
   42.5784   35.5080   42.1350 H   0  0  0  0  0  0  0  0  0  0  0  0
   42.6129   33.0307   38.3554 H   0  0  0  0  0  0  0  0  0  0  0  0
  1  9  1  0
  2  1  1  0
  3  2  1  0
  4  3  1  0
  4  5  1  0
  5  6  1  0
  6  1  1  0
  6 13  1  0
  7 12  2  0
  8  9  2  0
  8  7  1  0
  9 10  1  0
 10 11  2  0
 12 11  1  0
 13 14  2  0
 14 15  1  0
 16 15  2  0
 17 16  1  0
 18 17  2  0
 18 13  1  0
 19 17  1  0
 20 19  2  0
 21 19  1  0
  1 22  1  1
  2 23  1  0
  2 24  1  0
  3 25  1  0
  3 26  1  0
  4 27  1  0
  4 28  1  0
  5 29  1  0
  5 30  1  0
  6 31  1  1
  7 32  1  0
  8 33  1  0
 11 34  1  0
 14 35  1  0
 15 36  1  0
 16 37  1  0
 21 38  1  0
M  ISO  8  22  13  23  13  24  13  25  13  26  13  27  13  28  13  29  13
M  ISO  8  30  13  31  13  32  14  33  14  34  14  35  14  36  14  37  14
M  ISO  1  38   3
M  END
>  <minimizedAffinity>  (1) 
-4.92221069

>  <minimizedRMSD>  (1) 
0.108283803

$$$$
