
     RDKit          3D

 20 21  0  0  0  0  0  0  0  0999 V2000
   44.4770   35.9850   44.7780 C   0  0  0  0  0  0  0  0  0  0  0  0
   45.1230   35.9320   43.5200 C   0  0  0  0  0  0  0  0  0  0  0  0
   45.9970   34.8780   43.2610 C   0  0  0  0  0  0  0  0  0  0  0  0
   46.1750   33.9560   44.2400 N   0  0  0  0  0  0  0  0  0  0  0  0
   45.5530   34.0140   45.4400 C   0  0  0  0  0  0  0  0  0  0  0  0
   44.6990   35.0340   45.7080 N   0  0  0  0  0  0  0  0  0  0  0  0
   46.7190   34.7190   42.0050 C   0  0  0  0  0  0  0  0  0  0  0  0
   47.9320   35.3630   41.8970 C   0  0  0  0  0  0  0  0  0  0  0  0
   48.6790   35.2660   40.7420 C   0  0  0  0  0  0  0  0  0  0  0  0
   48.1740   34.5040   39.7030 C   0  0  0  0  0  0  0  0  0  0  0  0
   46.9640   33.8370   39.7570 C   0  0  0  0  0  0  0  0  0  0  0  0
   46.2590   33.9800   40.9580 C   0  0  0  0  0  0  0  0  0  0  0  0
   43.7858   36.8115   44.9998 H   0  0  0  0  0  0  0  0  0  0  0  0
   44.9389   36.7073   42.7617 H   0  0  0  0  0  0  0  0  0  0  0  0
   45.7389   33.2369   46.1960 H   0  0  0  0  0  0  0  0  0  0  0  0
   48.3084   35.9605   42.7404 H   0  0  0  0  0  0  0  0  0  0  0  0
   49.6476   35.7791   40.6492 H   0  0  0  0  0  0  0  0  0  0  0  0
   48.7693   34.4244   38.7814 H   0  0  0  0  0  0  0  0  0  0  0  0
   46.5830   33.2375   38.9171 H   0  0  0  0  0  0  0  0  0  0  0  0
   45.2888   33.4719   41.0605 H   0  0  0  0  0  0  0  0  0  0  0  0
  1  6  2  0
  2  1  1  0
  3  2  2  0
  3  4  1  0
  4  5  2  0
  5  6  1  0
  7  3  1  0
  8  7  2  0
  9  8  1  0
 10 11  1  0
 10  9  2  0
 11 12  2  0
 12  7  1  0
  1 13  1  0
  2 14  1  0
  5 15  1  0
  8 16  1  0
  9 17  1  0
 10 18  1  0
 11 19  1  0
 12 20  1  0
M  ISO  8  13  14  14  14  15  14  16  14  17  14  18  14  19  14  20  14
M  END
>  <minimizedAffinity>  (1) 
-4.96724463

>  <minimizedRMSD>  (1) 
1.1097914

$$$$
