
     RDKit          3D

 28 30  0  0  0  0  0  0  0  0999 V2000
   46.6660   34.7910   42.0450 C   0  0  0  0  0  0  0  0  0  0  0  0
   47.9630   35.2580   42.0110 C   0  0  0  0  0  0  0  0  0  0  0  0
   48.7210   35.1200   40.8710 C   0  0  0  0  0  0  0  0  0  0  0  0
   48.1560   34.5100   39.7800 C   0  0  0  0  0  0  0  0  0  0  0  0
   46.8700   34.0300   39.7650 C   0  0  0  0  0  0  0  0  0  0  0  0
   46.1180   34.1840   40.9420 C   0  0  0  0  0  0  0  0  0  0  0  0
   44.4580   36.1410   44.8040 C   0  0  0  0  0  0  0  0  0  0  0  0
   45.1140   36.0560   43.5610 C   0  0  0  0  0  0  0  0  0  0  0  0
   45.9410   34.9800   43.2910 C   0  0  0  0  0  0  0  0  0  0  0  0
   46.0660   34.0460   44.2760 N   0  0  0  0  0  0  0  0  0  0  0  0
   45.4360   34.1260   45.4680 C   0  0  0  0  0  0  0  0  0  0  0  0
   44.6250   35.1830   45.7360 N   0  0  0  0  0  0  0  0  0  0  0  0
   44.7430   33.6920   40.9740 C   0  0  0  0  0  0  0  0  0  0  0  0
   43.6770   34.4110   40.4930 C   0  0  0  0  0  0  0  0  0  0  0  0
   42.3790   33.9570   40.5220 C   0  0  0  0  0  0  0  0  0  0  0  0
   42.1220   32.7440   41.0490 N   0  0  0  0  0  0  0  0  0  0  0  0
   43.1570   32.0110   41.5320 C   0  0  0  0  0  0  0  0  0  0  0  0
   44.4150   32.4720   41.4940 N   0  0  0  0  0  0  0  0  0  0  0  0
   48.3937   35.7431   42.8994 H   0  0  0  0  0  0  0  0  0  0  0  0
   49.7562   35.4903   40.8353 H   0  0  0  0  0  0  0  0  0  0  0  0
   48.7647   34.3998   38.8704 H   0  0  0  0  0  0  0  0  0  0  0  0
   46.4473   33.5466   38.8719 H   0  0  0  0  0  0  0  0  0  0  0  0
   43.8025   36.9985   45.0161 H   0  0  0  0  0  0  0  0  0  0  0  0
   44.9694   36.8431   42.8064 H   0  0  0  0  0  0  0  0  0  0  0  0
   45.5791   33.3368   46.2207 H   0  0  0  0  0  0  0  0  0  0  0  0
   43.8714   35.4038   40.0611 H   0  0  0  0  0  0  0  0  0  0  0  0
   41.5625   34.5753   40.1207 H   0  0  0  0  0  0  0  0  0  0  0  0
   42.9595   31.0186   41.9634 H   0  0  0  0  0  0  0  0  0  0  0  0
  1  9  1  0
  2  1  2  0
  3  2  1  0
  4  3  2  0
  5  4  1  0
  5  6  2  0
  6 13  1  0
  6  1  1  0
  7 12  2  0
  8  7  1  0
  9  8  2  0
  9 10  1  0
 10 11  2  0
 11 12  1  0
 13 18  2  0
 14 15  2  0
 14 13  1  0
 15 16  1  0
 16 17  2  0
 18 17  1  0
  2 19  1  0
  3 20  1  0
  4 21  1  0
  5 22  1  0
  7 23  1  0
  8 24  1  0
 11 25  1  0
 14 26  1  0
 15 27  1  0
 17 28  1  0
M  ISO  8  19  14  20  14  21  14  22  14  23  14  24  14  25  14  26  14
M  ISO  2  27  14  28  14
M  END
>  <minimizedAffinity>  (1) 
-5.72054338

>  <minimizedRMSD>  (1) 
0.710853159

$$$$
