
     RDKit          3D

 29 31  0  0  0  0  0  0  0  0999 V2000
   46.6440   34.7680   42.0350 C   0  0  0  0  0  0  0  0  0  0  0  0
   47.9360   35.2540   41.9750 C   0  0  0  0  0  0  0  0  0  0  0  0
   48.6910   35.1160   40.8340 C   0  0  0  0  0  0  0  0  0  0  0  0
   48.1110   34.4780   39.7590 C   0  0  0  0  0  0  0  0  0  0  0  0
   46.8150   33.9680   39.7550 C   0  0  0  0  0  0  0  0  0  0  0  0
   46.1180   34.1500   40.9550 C   0  0  0  0  0  0  0  0  0  0  0  0
   44.4520   36.1120   44.8140 C   0  0  0  0  0  0  0  0  0  0  0  0
   45.1010   36.0230   43.5670 C   0  0  0  0  0  0  0  0  0  0  0  0
   45.9320   34.9560   43.2830 C   0  0  0  0  0  0  0  0  0  0  0  0
   46.0730   34.0220   44.2690 N   0  0  0  0  0  0  0  0  0  0  0  0
   45.4560   34.0970   45.4680 C   0  0  0  0  0  0  0  0  0  0  0  0
   44.6440   35.1430   45.7430 N   0  0  0  0  0  0  0  0  0  0  0  0
   44.7650   33.6150   40.9500 C   0  0  0  0  0  0  0  0  0  0  0  0
   44.2550   32.4060   41.3450 C   0  0  0  0  0  0  0  0  0  0  0  0
   42.9040   32.1620   41.2240 C   0  0  0  0  0  0  0  0  0  0  0  0
   42.0380   33.0850   40.7180 C   0  0  0  0  0  0  0  0  0  0  0  0
   42.5790   34.2930   40.3280 C   0  0  0  0  0  0  0  0  0  0  0  0
   43.8980   34.5390   40.4440 N   0  0  0  0  0  0  0  0  0  0  0  0
   48.3668   35.7585   42.8524 H   0  0  0  0  0  0  0  0  0  0  0  0
   49.7202   35.5008   40.7813 H   0  0  0  0  0  0  0  0  0  0  0  0
   48.7110   34.3641   38.8441 H   0  0  0  0  0  0  0  0  0  0  0  0
   46.3758   33.4641   38.8814 H   0  0  0  0  0  0  0  0  0  0  0  0
   43.7920   36.9642   45.0334 H   0  0  0  0  0  0  0  0  0  0  0  0
   44.9451   36.8090   42.8134 H   0  0  0  0  0  0  0  0  0  0  0  0
   45.6135   33.3091   46.2192 H   0  0  0  0  0  0  0  0  0  0  0  0
   44.9211   31.6335   41.7569 H   0  0  0  0  0  0  0  0  0  0  0  0
   42.5103   31.1871   41.5475 H   0  0  0  0  0  0  0  0  0  0  0  0
   40.9618   32.8773   40.6252 H   0  0  0  0  0  0  0  0  0  0  0  0
   41.9199   35.0704   39.9142 H   0  0  0  0  0  0  0  0  0  0  0  0
  1  9  1  0
  2  1  2  0
  3  2  1  0
  4  3  2  0
  5  4  1  0
  5  6  2  0
  6  1  1  0
  7 12  2  0
  8  7  1  0
  9  8  2  0
  9 10  1  0
 10 11  2  0
 11 12  1  0
 13  6  1  0
 13 14  2  0
 15 14  1  0
 16 15  2  0
 17 18  2  0
 17 16  1  0
 18 13  1  0
  2 19  1  0
  3 20  1  0
  4 21  1  0
  5 22  1  0
  7 23  1  0
  8 24  1  0
 11 25  1  0
 14 26  1  0
 15 27  1  0
 16 28  1  0
 17 29  1  0
M  ISO  8  19  14  20  14  21  14  22  14  23  14  24  14  25  14  26  14
M  ISO  3  27  14  28  14  29  14
M  END
>  <minimizedAffinity>  (1) 
-5.68252945

>  <minimizedRMSD>  (1) 
0.864735305

$$$$
