
     RDKit          3D

 28 29  0  0  0  0  0  0  0  0999 V2000
   46.6990   34.7690   42.0070 C   0  0  0  0  0  0  0  0  0  0  0  0
   47.9200   35.3630   41.8900 C   0  0  0  0  0  0  0  0  0  0  0  0
   48.7230   35.2880   40.7880 C   0  0  0  0  0  0  0  0  0  0  0  0
   48.2340   34.5490   39.7380 C   0  0  0  0  0  0  0  0  0  0  0  0
   47.0140   33.9180   39.7740 C   0  0  0  0  0  0  0  0  0  0  0  0
   46.2670   34.0560   40.9470 C   0  0  0  0  0  0  0  0  0  0  0  0
   44.4860   36.0810   44.7610 C   0  0  0  0  0  0  0  0  0  0  0  0
   45.1470   36.0250   43.5130 C   0  0  0  0  0  0  0  0  0  0  0  0
   45.9700   34.9450   43.2470 C   0  0  0  0  0  0  0  0  0  0  0  0
   46.0990   33.9900   44.2120 N   0  0  0  0  0  0  0  0  0  0  0  0
   45.4660   34.0460   45.4060 C   0  0  0  0  0  0  0  0  0  0  0  0
   44.6590   35.0950   45.6780 N   0  0  0  0  0  0  0  0  0  0  0  0
   44.9990   33.4190   41.0250 N   0  0  0  0  0  0  0  0  0  0  0  0
   43.3770   33.9100   40.7320 S   0  0  0  0  0  0  0  0  0  0  0  0
   43.2400   35.3650   40.4130 O   0  0  0  0  0  0  0  0  0  0  0  0
   42.8150   33.1370   39.5470 O   0  0  0  0  0  0  0  0  0  0  0  0
   42.3840   33.5990   42.0470 O   0  0  0  0  0  0  0  0  0  0  0  0
   48.2861   35.9466   42.7475 H   0  0  0  0  0  0  0  0  0  0  0  0
   49.7015   35.7886   40.7437 H   0  0  0  0  0  0  0  0  0  0  0  0
   48.8461   34.4585   38.8285 H   0  0  0  0  0  0  0  0  0  0  0  0
   46.6429   33.3321   38.9202 H   0  0  0  0  0  0  0  0  0  0  0  0
   43.8260   36.9304   44.9912 H   0  0  0  0  0  0  0  0  0  0  0  0
   45.0100   36.8233   42.7687 H   0  0  0  0  0  0  0  0  0  0  0  0
   45.6067   33.2460   46.1478 H   0  0  0  0  0  0  0  0  0  0  0  0
   45.0671   32.4365   41.3266 H   0  0  0  0  0  0  0  0  0  0  0  0
   43.1911   35.8842   41.2545 H   0  0  0  0  0  0  0  0  0  0  0  0
   42.2659   32.3818   39.8761 H   0  0  0  0  0  0  0  0  0  0  0  0
   42.8871   33.7566   42.8850 H   0  0  0  0  0  0  0  0  0  0  0  0
  1  9  1  0
  2  1  2  0
  3  2  1  0
  4  5  1  0
  4  3  2  0
  5  6  2  0
  6 13  1  0
  6  1  1  0
  7 12  2  0
  8  7  1  0
  9  8  2  0
  9 10  1  0
 10 11  2  0
 11 12  1  0
 14 13  1  0
 14 17  1  0
 15 14  1  0
 16 14  1  0
  2 18  1  0
  3 19  1  0
  4 20  1  0
  5 21  1  0
  7 22  1  0
  8 23  1  0
 11 24  1  0
 13 25  1  0
 15 26  1  0
 16 27  1  0
 17 28  1  0
M  ISO  8  18  14  19  14  20  14  21  14  22  14  23  14  24  14  26   3
M  ISO  2  27   3  28   3
M  END
>  <minimizedAffinity>  (1) 
-5.56695318

>  <minimizedRMSD>  (1) 
1.04307139

$$$$
