
     RDKit          3D

 26 27  0  0  0  0  0  0  0  0999 V2000
   46.7770   34.8000   42.0970 C   0  0  0  0  0  0  0  0  0  0  0  0
   48.0100   35.4010   42.0490 C   0  0  0  0  0  0  0  0  0  0  0  0
   48.7790   35.3350   40.9080 C   0  0  0  0  0  0  0  0  0  0  0  0
   48.2830   34.6550   39.8180 C   0  0  0  0  0  0  0  0  0  0  0  0
   47.0560   34.0380   39.8220 C   0  0  0  0  0  0  0  0  0  0  0  0
   46.3020   34.1270   41.0010 C   0  0  0  0  0  0  0  0  0  0  0  0
   44.4680   35.9660   44.8580 C   0  0  0  0  0  0  0  0  0  0  0  0
   45.1380   35.9570   43.6120 C   0  0  0  0  0  0  0  0  0  0  0  0
   46.0250   34.9170   43.3470 C   0  0  0  0  0  0  0  0  0  0  0  0
   46.1930   33.9760   44.2960 N   0  0  0  0  0  0  0  0  0  0  0  0
   45.5520   33.9860   45.4860 C   0  0  0  0  0  0  0  0  0  0  0  0
   44.6790   34.9990   45.7600 N   0  0  0  0  0  0  0  0  0  0  0  0
   45.0470   33.5610   41.1650 O   0  0  0  0  0  0  0  0  0  0  0  0
   43.3620   35.5240   40.7090 O   0  0  0  0  0  0  0  0  0  0  0  0
   43.6560   34.0750   40.3540 P   0  0  0  0  0  0  0  0  0  0  0  0
   42.3600   33.1350   40.8890 O   0  0  0  0  0  0  0  0  0  0  0  0
   43.8130   33.9370   38.6770 O   0  0  0  0  0  0  0  0  0  0  0  0
   48.3877   35.9405   42.9301 H   0  0  0  0  0  0  0  0  0  0  0  0
   49.7679   35.8151   40.8684 H   0  0  0  0  0  0  0  0  0  0  0  0
   48.8954   34.6039   38.9057 H   0  0  0  0  0  0  0  0  0  0  0  0
   46.6815   33.4981   38.9398 H   0  0  0  0  0  0  0  0  0  0  0  0
   43.7638   36.7788   45.0891 H   0  0  0  0  0  0  0  0  0  0  0  0
   44.9627   36.7513   42.8715 H   0  0  0  0  0  0  0  0  0  0  0  0
   45.7313   33.1893   46.2230 H   0  0  0  0  0  0  0  0  0  0  0  0
   42.3461   33.1249   41.8789 H   0  0  0  0  0  0  0  0  0  0  0  0
   44.5393   33.2986   38.4650 H   0  0  0  0  0  0  0  0  0  0  0  0
  1  9  1  0
  2  1  2  0
  3  2  1  0
  4  5  1  0
  4  3  2  0
  5  6  2  0
  6 13  1  0
  6  1  1  0
  7 12  2  0
  8  7  1  0
  9  8  2  0
  9 10  1  0
 10 11  2  0
 11 12  1  0
 15 14  2  0
 15 16  1  0
 15 13  1  0
 17 15  1  0
  2 18  1  0
  3 19  1  0
  4 20  1  0
  5 21  1  0
  7 22  1  0
  8 23  1  0
 11 24  1  0
 16 25  1  0
 17 26  1  0
M  ISO  8  18  14  19  14  20  14  21  14  22  14  23  14  24  14  25   3
M  ISO  1  26   3
M  END
>  <minimizedAffinity>  (1) 
-5.54120302

>  <minimizedRMSD>  (1) 
0.315139621

$$$$
