
     RDKit          3D

 35 37  0  0  0  0  0  0  0  0999 V2000
   46.6430   34.7500   42.0420 C   0  0  0  0  0  0  0  0  0  0  0  0
   47.9070   35.2650   41.9470 C   0  0  0  0  0  0  0  0  0  0  0  0
   48.6540   35.1320   40.8030 C   0  0  0  0  0  0  0  0  0  0  0  0
   48.0900   34.4600   39.7440 C   0  0  0  0  0  0  0  0  0  0  0  0
   46.8180   33.9140   39.7690 C   0  0  0  0  0  0  0  0  0  0  0  0
   46.1190   34.0890   40.9660 C   0  0  0  0  0  0  0  0  0  0  0  0
   44.4590   36.0920   44.8200 C   0  0  0  0  0  0  0  0  0  0  0  0
   45.1010   36.0140   43.5650 C   0  0  0  0  0  0  0  0  0  0  0  0
   45.9320   34.9400   43.2880 C   0  0  0  0  0  0  0  0  0  0  0  0
   46.0730   34.0110   44.2750 N   0  0  0  0  0  0  0  0  0  0  0  0
   45.4570   34.0910   45.4730 C   0  0  0  0  0  0  0  0  0  0  0  0
   44.6440   35.1380   45.7500 N   0  0  0  0  0  0  0  0  0  0  0  0
   44.8090   33.5440   41.0360 N   0  0  0  0  0  0  0  0  0  0  0  0
   44.3200   32.2940   41.5560 C   0  0  0  0  0  0  0  0  0  0  0  0
   43.3950   31.5590   40.6220 C   0  0  0  0  0  0  0  0  0  0  0  0
   42.6240   32.4850   39.7070 C   0  0  0  0  0  0  0  0  0  0  0  0
   42.4580   33.8010   40.4360 C   0  0  0  0  0  0  0  0  0  0  0  0
   43.8370   34.4420   40.4710 C   0  0  0  0  0  0  0  0  0  0  0  0
   48.3351   35.7987   42.8084 H   0  0  0  0  0  0  0  0  0  0  0  0
   49.6697   35.5490   40.7356 H   0  0  0  0  0  0  0  0  0  0  0  0
   48.6835   34.3500   38.8244 H   0  0  0  0  0  0  0  0  0  0  0  0
   46.3885   33.3806   38.9082 H   0  0  0  0  0  0  0  0  0  0  0  0
   43.7990   36.9440   45.0401 H   0  0  0  0  0  0  0  0  0  0  0  0
   44.9427   36.8003   42.8122 H   0  0  0  0  0  0  0  0  0  0  0  0
   45.6155   33.3046   46.2256 H   0  0  0  0  0  0  0  0  0  0  0  0
   45.1836   31.6463   41.7673 H   0  0  0  0  0  0  0  0  0  0  0  0
   43.7367   32.5321   42.4577 H   0  0  0  0  0  0  0  0  0  0  0  0
   43.9928   30.8728   40.0041 H   0  0  0  0  0  0  0  0  0  0  0  0
   42.6618   31.0202   41.2401 H   0  0  0  0  0  0  0  0  0  0  0  0
   41.6381   32.0539   39.4788 H   0  0  0  0  0  0  0  0  0  0  0  0
   43.1602   32.6302   38.7576 H   0  0  0  0  0  0  0  0  0  0  0  0
   41.7498   34.4485   39.8982 H   0  0  0  0  0  0  0  0  0  0  0  0
   42.0594   33.6506   41.4501 H   0  0  0  0  0  0  0  0  0  0  0  0
   44.1396   34.7006   39.4455 H   0  0  0  0  0  0  0  0  0  0  0  0
   43.7880   35.3447   41.0977 H   0  0  0  0  0  0  0  0  0  0  0  0
  1  9  1  0
  2  1  2  0
  3  2  1  0
  4  5  1  0
  4  3  2  0
  5  6  2  0
  6 13  1  0
  6  1  1  0
  7 12  2  0
  8  7  1  0
  9  8  2  0
  9 10  1  0
 10 11  2  0
 11 12  1  0
 13 14  1  0
 15 14  1  0
 16 17  1  0
 16 15  1  0
 17 18  1  0
 18 13  1  0
  2 19  1  0
  3 20  1  0
  4 21  1  0
  5 22  1  0
  7 23  1  0
  8 24  1  0
 11 25  1  0
 14 26  1  0
 14 27  1  0
 15 28  1  0
 15 29  1  0
 16 30  1  0
 16 31  1  0
 17 32  1  0
 17 33  1  0
 18 34  1  0
 18 35  1  0
M  ISO  8  19  14  20  14  21  14  22  14  23  14  24  14  25  14  26  13
M  ISO  8  27  13  28  13  29  13  30  13  31  13  32  13  33  13  34  13
M  ISO  1  35  13
M  END
>  <minimizedAffinity>  (1) 
-5.52992439

>  <minimizedRMSD>  (1) 
0.644741237

$$$$
