
     RDKit          3D

 23 24  0  0  0  0  0  0  0  0999 V2000
   46.7200   34.7240   41.9930 C   0  0  0  0  0  0  0  0  0  0  0  0
   47.9470   35.3590   41.9090 C   0  0  0  0  0  0  0  0  0  0  0  0
   48.6860   35.2470   40.7380 C   0  0  0  0  0  0  0  0  0  0  0  0
   48.1710   34.5050   39.6960 C   0  0  0  0  0  0  0  0  0  0  0  0
   46.9590   33.8620   39.7460 C   0  0  0  0  0  0  0  0  0  0  0  0
   46.2430   33.9980   40.9410 C   0  0  0  0  0  0  0  0  0  0  0  0
   44.4730   35.9750   44.7710 C   0  0  0  0  0  0  0  0  0  0  0  0
   45.1220   35.9140   43.5200 C   0  0  0  0  0  0  0  0  0  0  0  0
   46.0000   34.8810   43.2470 C   0  0  0  0  0  0  0  0  0  0  0  0
   46.1910   33.9550   44.2330 N   0  0  0  0  0  0  0  0  0  0  0  0
   45.5690   34.0130   45.4350 C   0  0  0  0  0  0  0  0  0  0  0  0
   44.7040   35.0340   45.6970 N   0  0  0  0  0  0  0  0  0  0  0  0
   44.9120   33.3430   41.1100 C   0  0  0  0  0  0  0  0  0  0  0  0
   48.3315   35.9440   42.7574 H   0  0  0  0  0  0  0  0  0  0  0  0
   49.6642   35.7412   40.6437 H   0  0  0  0  0  0  0  0  0  0  0  0
   48.7643   34.4238   38.7733 H   0  0  0  0  0  0  0  0  0  0  0  0
   46.5741   33.2757   38.8986 H   0  0  0  0  0  0  0  0  0  0  0  0
   43.7752   36.7974   44.9872 H   0  0  0  0  0  0  0  0  0  0  0  0
   44.9298   36.6877   42.7620 H   0  0  0  0  0  0  0  0  0  0  0  0
   45.7605   33.2412   46.1950 H   0  0  0  0  0  0  0  0  0  0  0  0
   44.6905   33.2340   42.1819 H   0  0  0  0  0  0  0  0  0  0  0  0
   44.1359   33.9621   40.6363 H   0  0  0  0  0  0  0  0  0  0  0  0
   44.9290   32.3504   40.6363 H   0  0  0  0  0  0  0  0  0  0  0  0
  1  9  1  0
  2  1  2  0
  3  2  1  0
  4  5  1  0
  4  3  2  0
  5  6  2  0
  6 13  1  0
  6  1  1  0
  7 12  2  0
  8  7  1  0
  9  8  2  0
  9 10  1  0
 10 11  2  0
 11 12  1  0
  2 14  1  0
  3 15  1  0
  4 16  1  0
  5 17  1  0
  7 18  1  0
  8 19  1  0
 11 20  1  0
 13 21  1  0
 13 22  1  0
 13 23  1  0
M  ISO  8  14  14  15  14  16  14  17  14  18  14  19  14  20  14  21   8
M  ISO  2  22   8  23   8
M  END
>  <minimizedAffinity>  (1) 
-5.11650753

>  <minimizedRMSD>  (1) 
0.0139917294

$$$$
