
     RDKit          3D

 37 39  0  0  0  0  0  0  0  0999 V2000
   46.3450   34.6100   41.8070 C   0  0  0  0  0  0  0  0  0  0  0  0
   47.7180   34.7530   41.7300 C   0  0  0  0  0  0  0  0  0  0  0  0
   48.3510   34.4240   40.5460 C   0  0  0  0  0  0  0  0  0  0  0  0
   47.6230   33.9700   39.4840 C   0  0  0  0  0  0  0  0  0  0  0  0
   46.2650   33.8160   39.5240 C   0  0  0  0  0  0  0  0  0  0  0  0
   45.6430   34.1550   40.7350 C   0  0  0  0  0  0  0  0  0  0  0  0
   44.5740   36.4200   44.6180 C   0  0  0  0  0  0  0  0  0  0  0  0
   45.1400   36.1840   43.3460 C   0  0  0  0  0  0  0  0  0  0  0  0
   45.7280   34.9710   43.0810 C   0  0  0  0  0  0  0  0  0  0  0  0
   45.7300   34.0480   44.0840 N   0  0  0  0  0  0  0  0  0  0  0  0
   45.1930   34.2610   45.3040 C   0  0  0  0  0  0  0  0  0  0  0  0
   44.6080   35.4690   45.5670 N   0  0  0  0  0  0  0  0  0  0  0  0
   43.1040   34.0800   40.0740 C   0  0  0  0  0  0  0  0  0  0  0  0
   43.1190   34.2780   38.8480 O   0  0  0  0  0  0  0  0  0  0  0  0
   44.2430   34.0430   40.9180 N   0  0  0  0  0  0  0  0  0  0  0  0
   41.8140   33.8470   40.8290 C   0  0  0  0  0  0  0  0  0  0  0  0
   40.7360   33.9000   39.7620 C   0  0  0  0  0  0  0  0  0  0  0  0
   40.1780   35.2930   39.7560 C   0  0  0  0  0  0  0  0  0  0  0  0
   40.7600   36.0120   40.9420 C   0  0  0  0  0  0  0  0  0  0  0  0
   41.6080   35.0360   41.7080 C   0  0  0  0  0  0  0  0  0  0  0  0
   48.2940   35.1205   42.5920 H   0  0  0  0  0  0  0  0  0  0  0  0
   49.4426   34.5281   40.4594 H   0  0  0  0  0  0  0  0  0  0  0  0
   48.1530   33.7166   38.5540 H   0  0  0  0  0  0  0  0  0  0  0  0
   45.6943   33.4483   38.6585 H   0  0  0  0  0  0  0  0  0  0  0  0
   44.1016   37.3897   44.8338 H   0  0  0  0  0  0  0  0  0  0  0  0
   45.1103   36.9659   42.5728 H   0  0  0  0  0  0  0  0  0  0  0  0
   45.2254   33.4760   46.0739 H   0  0  0  0  0  0  0  0  0  0  0  0
   43.9903   33.8995   41.9061 H   0  0  0  0  0  0  0  0  0  0  0  0
   41.8098   32.9131   41.4103 H   0  0  0  0  0  0  0  0  0  0  0  0
   41.1686   33.6641   38.7785 H   0  0  0  0  0  0  0  0  0  0  0  0
   39.9446   33.1657   39.9729 H   0  0  0  0  0  0  0  0  0  0  0  0
   40.4619   35.8084   38.8266 H   0  0  0  0  0  0  0  0  0  0  0  0
   39.0796   35.2732   39.8126 H   0  0  0  0  0  0  0  0  0  0  0  0
   41.3781   36.8554   40.6005 H   0  0  0  0  0  0  0  0  0  0  0  0
   39.9564   36.4042   41.5826 H   0  0  0  0  0  0  0  0  0  0  0  0
   41.0950   34.7362   42.6337 H   0  0  0  0  0  0  0  0  0  0  0  0
   42.5714   35.4888   41.9853 H   0  0  0  0  0  0  0  0  0  0  0  0
  1  9  1  0
  2  1  2  0
  3  2  1  0
  4  5  1  0
  4  3  2  0
  5  6  2  0
  6 15  1  0
  6  1  1  0
  7 12  2  0
  8  7  1  0
  9  8  2  0
  9 10  1  0
 10 11  2  0
 11 12  1  0
 13 16  1  0
 13 15  1  0
 14 13  2  0
 16 20  1  0
 17 16  1  0
 18 17  1  0
 18 19  1  0
 19 20  1  0
  2 21  1  0
  3 22  1  0
  4 23  1  0
  5 24  1  0
  7 25  1  0
  8 26  1  0
 11 27  1  0
 15 28  1  0
 16 29  1  0
 17 30  1  0
 17 31  1  0
 18 32  1  0
 18 33  1  0
 19 34  1  0
 19 35  1  0
 20 36  1  0
 20 37  1  0
M  ISO  8  21  14  22  14  23  14  24  14  25  14  26  14  27  14  29  13
M  ISO  8  30  13  31  13  32  13  33  13  34  13  35  13  36  13  37  13
M  END
>  <minimizedAffinity>  (1) 
-5.99127102

>  <minimizedRMSD>  (1) 
1.18513536

$$$$
