
     RDKit          3D

 35 37  0  0  0  0  0  0  0  0999 V2000
   46.5940   34.7470   41.9820 C   0  0  0  0  0  0  0  0  0  0  0  0
   47.9250   35.1300   41.9520 C   0  0  0  0  0  0  0  0  0  0  0  0
   48.6370   34.9110   40.7820 C   0  0  0  0  0  0  0  0  0  0  0  0
   48.0420   34.3380   39.7060 C   0  0  0  0  0  0  0  0  0  0  0  0
   46.7160   33.9450   39.7050 C   0  0  0  0  0  0  0  0  0  0  0  0
   46.0070   34.1720   40.8940 C   0  0  0  0  0  0  0  0  0  0  0  0
   44.5060   36.2530   44.7370 C   0  0  0  0  0  0  0  0  0  0  0  0
   45.1520   36.1270   43.4840 C   0  0  0  0  0  0  0  0  0  0  0  0
   45.8810   34.9960   43.2370 C   0  0  0  0  0  0  0  0  0  0  0  0
   45.9450   34.0490   44.2190 N   0  0  0  0  0  0  0  0  0  0  0  0
   45.3280   34.1720   45.4110 C   0  0  0  0  0  0  0  0  0  0  0  0
   44.6000   35.2850   45.6770 N   0  0  0  0  0  0  0  0  0  0  0  0
   43.4170   34.2950   40.5750 C   0  0  0  0  0  0  0  0  0  0  0  0
   43.2650   35.2800   39.8720 O   0  0  0  0  0  0  0  0  0  0  0  0
   44.6500   33.8140   41.0470 N   0  0  0  0  0  0  0  0  0  0  0  0
   42.2700   33.5860   40.9400 O   0  0  0  0  0  0  0  0  0  0  0  0
   40.3250   35.8800   41.1820 Cl  0  0  0  0  0  0  0  0  0  0  0  0
   40.1850   34.5830   40.0290 C   0  0  0  0  0  0  0  0  0  0  0  0
   41.1820   33.6220   40.0770 C   0  0  0  0  0  0  0  0  0  0  0  0
   41.1330   32.5590   39.1870 C   0  0  0  0  0  0  0  0  0  0  0  0
   40.1090   32.4470   38.2590 C   0  0  0  0  0  0  0  0  0  0  0  0
   39.1200   33.4210   38.2280 C   0  0  0  0  0  0  0  0  0  0  0  0
   37.8060   33.3200   37.0710 Cl  0  0  0  0  0  0  0  0  0  0  0  0
   39.1620   34.4820   39.1110 C   0  0  0  0  0  0  0  0  0  0  0  0
   48.4021   35.5931   42.8283 H   0  0  0  0  0  0  0  0  0  0  0  0
   49.6955   35.2051   40.7260 H   0  0  0  0  0  0  0  0  0  0  0  0
   48.6393   34.1793   38.7960 H   0  0  0  0  0  0  0  0  0  0  0  0
   46.2456   33.4823   38.8249 H   0  0  0  0  0  0  0  0  0  0  0  0
   43.9157   37.1563   44.9506 H   0  0  0  0  0  0  0  0  0  0  0  0
   45.0698   36.9201   42.7263 H   0  0  0  0  0  0  0  0  0  0  0  0
   45.4144   33.3744   46.1636 H   0  0  0  0  0  0  0  0  0  0  0  0
   44.5347   32.9934   41.6588 H   0  0  0  0  0  0  0  0  0  0  0  0
   41.9204   31.7915   39.2181 H   0  0  0  0  0  0  0  0  0  0  0  0
   40.0806   31.5996   37.5582 H   0  0  0  0  0  0  0  0  0  0  0  0
   38.3752   35.2502   39.0815 H   0  0  0  0  0  0  0  0  0  0  0  0
  1  9  1  0
  2  1  2  0
  3  2  1  0
  4  3  2  0
  5  4  1  0
  5  6  2  0
  6 15  1  0
  6  1  1  0
  7 12  2  0
  8  7  1  0
  9  8  2  0
  9 10  1  0
 10 11  2  0
 11 12  1  0
 13 16  1  0
 13 15  1  0
 14 13  2  0
 18 19  2  0
 18 17  1  0
 19 16  1  0
 20 19  1  0
 21 20  2  0
 22 21  1  0
 22 24  2  0
 23 22  1  0
 24 18  1  0
  2 25  1  0
  3 26  1  0
  4 27  1  0
  5 28  1  0
  7 29  1  0
  8 30  1  0
 11 31  1  0
 15 32  1  0
 20 33  1  0
 21 34  1  0
 24 35  1  0
M  ISO  8  25  14  26  14  27  14  28  14  29  14  30  14  31  14  33  14
M  ISO  2  34  14  35  14
M  END
>  <minimizedAffinity>  (1) 
-7.1081028

>  <minimizedRMSD>  (1) 
1.09118307

$$$$
