
     RDKit          3D

 40 42  0  0  0  0  0  0  0  0999 V2000
   46.5990   34.7620   41.9790 C   0  0  0  0  0  0  0  0  0  0  0  0
   47.9060   35.2170   41.9200 C   0  0  0  0  0  0  0  0  0  0  0  0
   48.6110   35.0180   40.7500 C   0  0  0  0  0  0  0  0  0  0  0  0
   48.0370   34.3930   39.6920 C   0  0  0  0  0  0  0  0  0  0  0  0
   46.7400   33.9290   39.7170 C   0  0  0  0  0  0  0  0  0  0  0  0
   46.0290   34.1350   40.9100 C   0  0  0  0  0  0  0  0  0  0  0  0
   44.5440   36.2340   44.7760 C   0  0  0  0  0  0  0  0  0  0  0  0
   45.1820   36.1320   43.5200 C   0  0  0  0  0  0  0  0  0  0  0  0
   45.8920   34.9950   43.2440 C   0  0  0  0  0  0  0  0  0  0  0  0
   45.9510   34.0180   44.1980 N   0  0  0  0  0  0  0  0  0  0  0  0
   45.3400   34.1200   45.3960 C   0  0  0  0  0  0  0  0  0  0  0  0
   44.6270   35.2430   45.6910 N   0  0  0  0  0  0  0  0  0  0  0  0
   43.4240   34.2980   40.9800 C   0  0  0  0  0  0  0  0  0  0  0  0
   43.2080   35.4680   40.7050 O   0  0  0  0  0  0  0  0  0  0  0  0
   44.6970   33.7100   41.0910 N   0  0  0  0  0  0  0  0  0  0  0  0
   42.3200   33.4700   41.2050 O   0  0  0  0  0  0  0  0  0  0  0  0
   39.2000   33.7050   38.7310 N   0  0  0  0  0  0  0  0  0  0  0  0
   39.2010   34.7700   39.6870 C   0  0  0  0  0  0  0  0  0  0  0  0
   40.2130   34.5920   40.7830 C   0  0  0  0  0  0  0  0  0  0  0  0
   41.2230   33.5370   40.3470 C   0  0  0  0  0  0  0  0  0  0  0  0
   41.6510   33.7970   38.9070 C   0  0  0  0  0  0  0  0  0  0  0  0
   40.4440   33.5640   38.0310 C   0  0  0  0  0  0  0  0  0  0  0  0
   48.3687   35.7223   42.7806 H   0  0  0  0  0  0  0  0  0  0  0  0
   49.6503   35.3704   40.6749 H   0  0  0  0  0  0  0  0  0  0  0  0
   48.6309   34.2508   38.7771 H   0  0  0  0  0  0  0  0  0  0  0  0
   46.2868   33.4252   38.8505 H   0  0  0  0  0  0  0  0  0  0  0  0
   43.9671   37.1397   45.0145 H   0  0  0  0  0  0  0  0  0  0  0  0
   45.1101   36.9453   42.7828 H   0  0  0  0  0  0  0  0  0  0  0  0
   45.4166   33.3033   46.1289 H   0  0  0  0  0  0  0  0  0  0  0  0
   44.6423   32.7217   41.3758 H   0  0  0  0  0  0  0  0  0  0  0  0
   39.0022   32.8233   39.2253 H   0  0  0  0  0  0  0  0  0  0  0  0
   39.4205   35.7103   39.1601 H   0  0  0  0  0  0  0  0  0  0  0  0
   38.2088   34.7789   40.1618 H   0  0  0  0  0  0  0  0  0  0  0  0
   40.7297   35.5452   40.9684 H   0  0  0  0  0  0  0  0  0  0  0  0
   39.7118   34.2720   41.7084 H   0  0  0  0  0  0  0  0  0  0  0  0
   40.7340   32.5531   40.3991 H   0  0  0  0  0  0  0  0  0  0  0  0
   41.9995   34.8348   38.7994 H   0  0  0  0  0  0  0  0  0  0  0  0
   42.4759   33.1287   38.6192 H   0  0  0  0  0  0  0  0  0  0  0  0
   40.5009   32.5445   37.6219 H   0  0  0  0  0  0  0  0  0  0  0  0
   40.4620   34.3290   37.2408 H   0  0  0  0  0  0  0  0  0  0  0  0
  1  9  1  0
  2  1  2  0
  3  2  1  0
  4  5  1  0
  4  3  2  0
  5  6  2  0
  6 15  1  0
  6  1  1  0
  7 12  2  0
  8  7  1  0
  9  8  2  0
  9 10  1  0
 10 11  2  0
 11 12  1  0
 13 15  1  0
 13 16  1  0
 14 13  2  0
 17 18  1  0
 18 19  1  0
 20 19  1  0
 20 16  1  0
 21 20  1  0
 22 17  1  0
 22 21  1  0
  2 23  1  0
  3 24  1  0
  4 25  1  0
  5 26  1  0
  7 27  1  0
  8 28  1  0
 11 29  1  0
 15 30  1  0
 17 31  1  0
 18 32  1  0
 18 33  1  0
 19 34  1  0
 19 35  1  0
 20 36  1  0
 21 37  1  0
 21 38  1  0
 22 39  1  0
 22 40  1  0
M  ISO  8  23  14  24  14  25  14  26  14  27  14  28  14  29  14  31   5
M  ISO  8  32  13  33  13  34  13  35  13  36  13  37  13  38  13  39  13
M  ISO  1  40  13
M  END
>  <minimizedAffinity>  (1) 
-6.39035225

>  <minimizedRMSD>  (1) 
0.712165177

$$$$
