
     RDKit          3D

 28 29  0  0  0  0  0  0  0  0999 V2000
   46.6560   34.7540   41.9780 C   0  0  0  0  0  0  0  0  0  0  0  0
   47.9230   35.3210   41.9040 C   0  0  0  0  0  0  0  0  0  0  0  0
   48.6430   35.1500   40.7320 C   0  0  0  0  0  0  0  0  0  0  0  0
   48.1120   34.4420   39.6920 C   0  0  0  0  0  0  0  0  0  0  0  0
   46.8600   33.8700   39.7390 C   0  0  0  0  0  0  0  0  0  0  0  0
   46.1380   34.0500   40.9310 C   0  0  0  0  0  0  0  0  0  0  0  0
   44.5130   36.1630   44.7450 C   0  0  0  0  0  0  0  0  0  0  0  0
   45.1660   36.0650   43.4940 C   0  0  0  0  0  0  0  0  0  0  0  0
   45.9330   34.9640   43.2380 C   0  0  0  0  0  0  0  0  0  0  0  0
   46.0250   34.0190   44.2050 N   0  0  0  0  0  0  0  0  0  0  0  0
   45.4060   34.1060   45.3990 C   0  0  0  0  0  0  0  0  0  0  0  0
   44.6460   35.1800   45.6750 N   0  0  0  0  0  0  0  0  0  0  0  0
   43.5350   33.9200   40.8150 C   0  0  0  0  0  0  0  0  0  0  0  0
   43.2260   34.9680   40.2680 O   0  0  0  0  0  0  0  0  0  0  0  0
   44.8460   33.5160   41.1280 N   0  0  0  0  0  0  0  0  0  0  0  0
   42.5000   33.0470   41.1600 O   0  0  0  0  0  0  0  0  0  0  0  0
   41.1790   33.4670   41.0270 C   0  0  0  0  0  0  0  0  0  0  0  0
   48.3411   35.8876   42.7491 H   0  0  0  0  0  0  0  0  0  0  0  0
   49.6481   35.5872   40.6391 H   0  0  0  0  0  0  0  0  0  0  0  0
   48.7104   34.3233   38.7767 H   0  0  0  0  0  0  0  0  0  0  0  0
   46.4482   33.3038   38.8906 H   0  0  0  0  0  0  0  0  0  0  0  0
   43.8916   37.0430   44.9676 H   0  0  0  0  0  0  0  0  0  0  0  0
   45.0582   36.8602   42.7417 H   0  0  0  0  0  0  0  0  0  0  0  0
   45.5218   33.3037   46.1426 H   0  0  0  0  0  0  0  0  0  0  0  0
   44.8685   32.6114   41.6201 H   0  0  0  0  0  0  0  0  0  0  0  0
   40.7368   33.6076   42.0243 H   0  0  0  0  0  0  0  0  0  0  0  0
   41.1505   34.4185   40.4758 H   0  0  0  0  0  0  0  0  0  0  0  0
   40.6062   32.7067   40.4758 H   0  0  0  0  0  0  0  0  0  0  0  0
  1  9  1  0
  2  1  2  0
  3  2  1  0
  4  5  1  0
  4  3  2  0
  5  6  2  0
  6 15  1  0
  6  1  1  0
  7 12  2  0
  8  7  1  0
  9  8  2  0
  9 10  1  0
 10 11  2  0
 11 12  1  0
 13 15  1  0
 13 16  1  0
 14 13  2  0
 17 16  1  0
  2 18  1  0
  3 19  1  0
  4 20  1  0
  5 21  1  0
  7 22  1  0
  8 23  1  0
 11 24  1  0
 15 25  1  0
 17 26  1  0
 17 27  1  0
 17 28  1  0
M  ISO  8  18  14  19  14  20  14  21  14  22  14  23  14  24  14  26   8
M  ISO  2  27   8  28   8
M  END
>  <minimizedAffinity>  (1) 
-5.37505102

>  <minimizedRMSD>  (1) 
0.0417901352

$$$$
