
     RDKit          3D

 36 38  0  0  1  0  0  0  0  0999 V2000
   46.3400   33.9370   43.2450 C   0  0  2  0  0  0  0  0  0  0  0  0
   45.7830   35.0960   42.4990 C   0  0  2  0  0  0  0  0  0  0  0  0
   45.4630   36.2600   43.3590 C   0  0  0  0  0  0  0  0  0  0  0  0
   44.5900   35.9400   44.5380 C   0  0  0  0  0  0  0  0  0  0  0  0
   44.9430   34.6430   45.2000 C   0  0  0  0  0  0  0  0  0  0  0  0
   46.2760   34.1020   44.7530 C   0  0  0  0  0  0  0  0  0  0  0  0
   47.7520   33.6910   42.8840 C   0  0  0  0  0  0  0  0  0  0  0  0
   48.5630   34.8340   42.7030 C   0  0  0  0  0  0  0  0  0  0  0  0
   49.9080   34.6710   42.3670 C   0  0  0  0  0  0  0  0  0  0  0  0
   50.3570   33.3710   42.2330 N   0  0  0  0  0  0  0  0  0  0  0  0
   49.5640   32.3010   42.4100 C   0  0  0  0  0  0  0  0  0  0  0  0
   48.2580   32.4640   42.7360 N   0  0  0  0  0  0  0  0  0  0  0  0
   46.1040   33.5000   40.1440 F   0  0  0  0  0  0  0  0  0  0  0  0
   44.8530   33.9980   40.4140 C   0  0  0  0  0  0  0  0  0  0  0  0
   44.6870   34.7950   41.5600 C   0  0  0  0  0  0  0  0  0  0  0  0
   43.3850   35.1990   41.6690 C   0  0  0  0  0  0  0  0  0  0  0  0
   42.3580   34.8960   40.8090 C   0  0  0  0  0  0  0  0  0  0  0  0
   42.6130   34.1130   39.7190 C   0  0  0  0  0  0  0  0  0  0  0  0
   43.8830   33.6480   39.5070 C   0  0  0  0  0  0  0  0  0  0  0  0
   45.7057   33.0867   42.9539 H   0  0  0  0  0  0  0  0  0  0  0  0
   46.6279   35.3828   41.8557 H   0  0  0  0  0  0  0  0  0  0  0  0
   46.4077   36.6800   43.7346 H   0  0  0  0  0  0  0  0  0  0  0  0
   44.8979   36.9663   42.7330 H   0  0  0  0  0  0  0  0  0  0  0  0
   44.6908   36.7484   45.2771 H   0  0  0  0  0  0  0  0  0  0  0  0
   43.5593   35.8465   44.1653 H   0  0  0  0  0  0  0  0  0  0  0  0
   44.9752   34.8013   46.2881 H   0  0  0  0  0  0  0  0  0  0  0  0
   44.1757   33.9075   44.9166 H   0  0  0  0  0  0  0  0  0  0  0  0
   46.4394   33.1223   45.2257 H   0  0  0  0  0  0  0  0  0  0  0  0
   47.0542   34.8197   45.0520 H   0  0  0  0  0  0  0  0  0  0  0  0
   48.1389   35.8415   42.8256 H   0  0  0  0  0  0  0  0  0  0  0  0
   50.5755   35.5323   42.2168 H   0  0  0  0  0  0  0  0  0  0  0  0
   49.9761   31.2882   42.2899 H   0  0  0  0  0  0  0  0  0  0  0  0
   43.1348   35.8312   42.5337 H   0  0  0  0  0  0  0  0  0  0  0  0
   41.3437   35.2787   40.9954 H   0  0  0  0  0  0  0  0  0  0  0  0
   41.8048   33.8583   39.0177 H   0  0  0  0  0  0  0  0  0  0  0  0
   44.1187   33.0149   38.6389 H   0  0  0  0  0  0  0  0  0  0  0  0
  1  6  1  0
  2  1  1  0
  2  3  1  0
  3  4  1  0
  4  5  1  0
  6  5  1  0
  7  1  1  0
  8  7  2  0
  9  8  1  0
 10  9  2  0
 10 11  1  0
 11 12  2  0
 12  7  1  0
 13 14  1  0
 14 15  2  0
 15 16  1  0
 15  2  1  0
 17 16  2  0
 18 17  1  0
 19 18  2  0
 19 14  1  0
  1 20  1  1
  2 21  1  6
  3 22  1  0
  3 23  1  0
  4 24  1  0
  4 25  1  0
  5 26  1  0
  5 27  1  0
  6 28  1  0
  6 29  1  0
  8 30  1  0
  9 31  1  0
 11 32  1  0
 16 33  1  0
 17 34  1  0
 18 35  1  0
 19 36  1  0
M  ISO  8  20  13  21  13  22  13  23  13  24  13  25  13  26  13  27  13
M  ISO  8  28  13  29  13  30  14  31  14  32  14  33  14  34  14  35  14
M  ISO  1  36  14
M  END
>  <minimizedAffinity>  (1) 
-5.46491671

>  <minimizedRMSD>  (1) 
2.5688827

$$$$
