
     RDKit          3D

 33 35  0  0  1  0  0  0  0  0999 V2000
   46.4730   33.7340   42.8980 C   0  0  2  0  0  0  0  0  0  0  0  0
   45.8710   34.8570   42.1410 C   0  0  2  0  0  0  0  0  0  0  0  0
   45.5540   36.0440   43.0320 C   0  0  0  0  0  0  0  0  0  0  0  0
   44.7310   35.7170   44.2410 C   0  0  0  0  0  0  0  0  0  0  0  0
   45.0930   34.4000   44.8770 C   0  0  0  0  0  0  0  0  0  0  0  0
   46.4340   33.9110   44.4090 C   0  0  0  0  0  0  0  0  0  0  0  0
   47.8800   33.4970   42.5260 C   0  0  0  0  0  0  0  0  0  0  0  0
   48.7660   34.5600   42.7910 C   0  0  0  0  0  0  0  0  0  0  0  0
   50.1270   34.4520   42.4800 C   0  0  0  0  0  0  0  0  0  0  0  0
   50.5180   33.2560   41.9090 N   0  0  0  0  0  0  0  0  0  0  0  0
   49.6520   32.2520   41.6650 C   0  0  0  0  0  0  0  0  0  0  0  0
   48.3380   32.3740   41.9730 N   0  0  0  0  0  0  0  0  0  0  0  0
   44.7230   34.4710   41.2720 C   0  0  0  0  0  0  0  0  0  0  0  0
   43.4010   34.1080   41.7320 C   0  0  0  0  0  0  0  0  0  0  0  0
   43.6170   35.5050   41.1380 C   0  0  0  0  0  0  0  0  0  0  0  0
   45.8440   32.8751   42.6213 H   0  0  0  0  0  0  0  0  0  0  0  0
   46.6536   35.1774   41.4375 H   0  0  0  0  0  0  0  0  0  0  0  0
   46.5046   36.4805   43.3724 H   0  0  0  0  0  0  0  0  0  0  0  0
   44.9527   36.7366   42.4248 H   0  0  0  0  0  0  0  0  0  0  0  0
   44.8742   36.5140   44.9855 H   0  0  0  0  0  0  0  0  0  0  0  0
   43.6853   35.6389   43.9087 H   0  0  0  0  0  0  0  0  0  0  0  0
   45.1203   34.5265   45.9694 H   0  0  0  0  0  0  0  0  0  0  0  0
   44.3351   33.6575   44.5867 H   0  0  0  0  0  0  0  0  0  0  0  0
   46.6472   32.9434   44.8868 H   0  0  0  0  0  0  0  0  0  0  0  0
   47.1884   34.6622   44.6857 H   0  0  0  0  0  0  0  0  0  0  0  0
   48.3842   35.4852   43.2474 H   0  0  0  0  0  0  0  0  0  0  0  0
   50.8391   35.2668   42.6775 H   0  0  0  0  0  0  0  0  0  0  0  0
   50.0174   31.3200   41.2092 H   0  0  0  0  0  0  0  0  0  0  0  0
   45.4197   33.9210   40.6223 H   0  0  0  0  0  0  0  0  0  0  0  0
   42.8144   33.3623   41.1754 H   0  0  0  0  0  0  0  0  0  0  0  0
   42.9925   33.7290   42.6804 H   0  0  0  0  0  0  0  0  0  0  0  0
   43.6027   36.3956   41.7835 H   0  0  0  0  0  0  0  0  0  0  0  0
   43.1782   36.1028   40.3256 H   0  0  0  0  0  0  0  0  0  0  0  0
  1  6  1  0
  2  1  1  0
  2  3  1  0
  3  4  1  0
  4  5  1  0
  6  5  1  0
  7  8  2  0
  7  1  1  0
  9  8  1  0
 10  9  2  0
 11 10  1  0
 11 12  2  0
 12  7  1  0
 13 14  1  0
 13  2  1  0
 15 13  1  0
 15 14  1  0
  1 16  1  1
  2 17  1  6
  3 18  1  0
  3 19  1  0
  4 20  1  0
  4 21  1  0
  5 22  1  0
  5 23  1  0
  6 24  1  0
  6 25  1  0
  8 26  1  0
  9 27  1  0
 11 28  1  0
 13 29  1  0
 14 30  1  0
 14 31  1  0
 15 32  1  0
 15 33  1  0
M  ISO  8  16  13  17  13  18  13  19  13  20  13  21  13  22  13  23  13
M  ISO  8  24  13  25  13  26  14  27  14  28  14  29  13  30  13  31  13
M  ISO  2  32  13  33  13
M  END
>  <minimizedAffinity>  (1) 
-4.58318233

>  <minimizedRMSD>  (1) 
2.06342769

$$$$
