
     RDKit          3D

 28 29  0  0  1  0  0  0  0  0999 V2000
   46.6270   33.3700   42.7430 C   0  0  2  0  0  0  0  0  0  0  0  0
   45.9220   33.2110   41.4550 C   0  0  1  0  0  0  0  0  0  0  0  0
   45.1990   34.4630   41.0170 C   0  0  0  0  0  0  0  0  0  0  0  0
   44.1920   34.8830   42.0760 C   0  0  0  0  0  0  0  0  0  0  0  0
   44.7570   34.8580   43.4800 C   0  0  0  0  0  0  0  0  0  0  0  0
   46.2550   34.6430   43.4920 C   0  0  0  0  0  0  0  0  0  0  0  0
   48.0950   33.3750   42.5990 C   0  0  0  0  0  0  0  0  0  0  0  0
   48.7200   34.6360   42.6320 C   0  0  0  0  0  0  0  0  0  0  0  0
   50.1020   34.7280   42.5060 C   0  0  0  0  0  0  0  0  0  0  0  0
   50.7870   33.5390   42.3530 N   0  0  0  0  0  0  0  0  0  0  0  0
   50.1620   32.3400   42.3250 C   0  0  0  0  0  0  0  0  0  0  0  0
   48.8310   32.2680   42.4480 N   0  0  0  0  0  0  0  0  0  0  0  0
   46.7660   32.7130   40.4190 N   0  0  0  0  0  0  0  0  0  0  0  0
   46.2983   32.4912   43.3172 H   0  0  0  0  0  0  0  0  0  0  0  0
   45.1534   32.4468   41.6428 H   0  0  0  0  0  0  0  0  0  0  0  0
   45.9296   35.2719   40.8687 H   0  0  0  0  0  0  0  0  0  0  0  0
   44.6677   34.2609   40.0753 H   0  0  0  0  0  0  0  0  0  0  0  0
   43.8561   35.9064   41.8526 H   0  0  0  0  0  0  0  0  0  0  0  0
   43.3638   34.1598   42.0443 H   0  0  0  0  0  0  0  0  0  0  0  0
   44.5334   35.8179   43.9685 H   0  0  0  0  0  0  0  0  0  0  0  0
   44.2918   34.0171   44.0153 H   0  0  0  0  0  0  0  0  0  0  0  0
   46.5989   34.5616   44.5337 H   0  0  0  0  0  0  0  0  0  0  0  0
   46.7368   35.4974   42.9942 H   0  0  0  0  0  0  0  0  0  0  0  0
   48.1163   35.5470   42.7572 H   0  0  0  0  0  0  0  0  0  0  0  0
   50.6220   35.6971   42.5271 H   0  0  0  0  0  0  0  0  0  0  0  0
   50.7505   31.4191   42.2005 H   0  0  0  0  0  0  0  0  0  0  0  0
   47.5768   32.2346   40.8369 H   0  0  0  0  0  0  0  0  0  0  0  0
   46.2380   32.0481   39.8359 H   0  0  0  0  0  0  0  0  0  0  0  0
  1  6  1  0
  2  1  1  0
  3  2  1  0
  3  4  1  0
  4  5  1  0
  5  6  1  0
  7  8  2  0
  7  1  1  0
  9  8  1  0
 10  9  2  0
 11 10  1  0
 11 12  2  0
 12  7  1  0
 13  2  1  0
  1 14  1  1
  2 15  1  1
  3 16  1  0
  3 17  1  0
  4 18  1  0
  4 19  1  0
  5 20  1  0
  5 21  1  0
  6 22  1  0
  6 23  1  0
  8 24  1  0
  9 25  1  0
 11 26  1  0
 13 27  1  0
 13 28  1  0
M  ISO  8  14  13  15  13  16  13  17  13  18  13  19  13  20  13  21  13
M  ISO  7  22  13  23  13  24  14  25  14  26  14  27   5  28   5
M  END
>  <minimizedAffinity>  (1) 
-3.63119435

>  <minimizedRMSD>  (1) 
1.58661759

$$$$
