
     RDKit          3D

 27 28  0  0  1  0  0  0  0  0999 V2000
   46.7260   33.2620   42.8110 C   0  0  2  0  0  0  0  0  0  0  0  0
   45.9910   33.2770   41.5320 C   0  0  1  0  0  0  0  0  0  0  0  0
   45.2740   34.5710   41.2730 C   0  0  0  0  0  0  0  0  0  0  0  0
   44.3320   34.9400   42.4060 C   0  0  0  0  0  0  0  0  0  0  0  0
   44.9040   34.6760   43.7760 C   0  0  0  0  0  0  0  0  0  0  0  0
   46.3980   34.4350   43.7270 C   0  0  0  0  0  0  0  0  0  0  0  0
   48.1910   33.2620   42.6230 C   0  0  0  0  0  0  0  0  0  0  0  0
   48.8240   34.5140   42.7070 C   0  0  0  0  0  0  0  0  0  0  0  0
   50.2090   34.5880   42.5400 C   0  0  0  0  0  0  0  0  0  0  0  0
   50.8770   33.4040   42.3000 N   0  0  0  0  0  0  0  0  0  0  0  0
   50.2310   32.2140   42.2280 C   0  0  0  0  0  0  0  0  0  0  0  0
   48.9060   32.1530   42.3870 N   0  0  0  0  0  0  0  0  0  0  0  0
   46.8000   32.9850   40.4540 O   0  0  0  0  0  0  0  0  0  0  0  0
   46.3919   32.3262   43.2829 H   0  0  0  0  0  0  0  0  0  0  0  0
   45.2372   32.4832   41.6401 H   0  0  0  0  0  0  0  0  0  0  0  0
   46.0190   35.3719   41.1562 H   0  0  0  0  0  0  0  0  0  0  0  0
   44.6731   34.4480   40.3599 H   0  0  0  0  0  0  0  0  0  0  0  0
   44.0968   36.0117   42.3278 H   0  0  0  0  0  0  0  0  0  0  0  0
   43.4383   34.3072   42.3019 H   0  0  0  0  0  0  0  0  0  0  0  0
   44.7051   35.5466   44.4183 H   0  0  0  0  0  0  0  0  0  0  0  0
   44.4254   33.7702   44.1766 H   0  0  0  0  0  0  0  0  0  0  0  0
   46.7612   34.2133   44.7414 H   0  0  0  0  0  0  0  0  0  0  0  0
   46.8886   35.3377   43.3341 H   0  0  0  0  0  0  0  0  0  0  0  0
   48.2367   35.4235   42.9016 H   0  0  0  0  0  0  0  0  0  0  0  0
   50.7438   35.5476   42.5972 H   0  0  0  0  0  0  0  0  0  0  0  0
   50.8016   31.2930   42.0375 H   0  0  0  0  0  0  0  0  0  0  0  0
   47.6799   32.6674   40.7782 H   0  0  0  0  0  0  0  0  0  0  0  0
  1  6  1  0
  2  1  1  0
  3  2  1  0
  3  4  1  0
  4  5  1  0
  6  5  1  0
  7  8  2  0
  7  1  1  0
  9  8  1  0
 10  9  2  0
 11 10  1  0
 11 12  2  0
 12  7  1  0
 13  2  1  0
  1 14  1  1
  2 15  1  1
  3 16  1  0
  3 17  1  0
  4 18  1  0
  4 19  1  0
  5 20  1  0
  5 21  1  0
  6 22  1  0
  6 23  1  0
  8 24  1  0
  9 25  1  0
 11 26  1  0
 13 27  1  0
M  ISO  8  14  13  15  13  16  13  17  13  18  13  19  13  20  13  21  13
M  ISO  6  22  13  23  13  24  14  25  14  26  14  27   3
M  END
>  <minimizedAffinity>  (1) 
-3.59205651

>  <minimizedRMSD>  (1) 
1.46976936

$$$$
