
     RDKit          3D

 37 39  0  0  0  0  0  0  0  0999 V2000
   47.5320   31.5090   45.2800 Cl  0  0  0  0  0  0  0  0  0  0  0  0
   46.7420   31.6560   46.8540 C   0  0  0  0  0  0  0  0  0  0  0  0
   45.8600   32.7120   47.0330 C   0  0  0  0  0  0  0  0  0  0  0  0
   45.2640   32.8150   48.2390 C   0  0  0  0  0  0  0  0  0  0  0  0
   45.5520   31.8720   49.2340 C   0  0  0  0  0  0  0  0  0  0  0  0
   46.4290   30.8340   49.0310 C   0  0  0  0  0  0  0  0  0  0  0  0
   47.0570   30.7100   47.7960 C   0  0  0  0  0  0  0  0  0  0  0  0
   49.6300   31.0560   48.6660 F   0  0  0  0  0  0  0  0  0  0  0  0
   49.2760   29.9200   47.9930 C   0  0  0  0  0  0  0  0  0  0  0  0
   48.0070   29.6280   47.5020 C   0  0  0  0  0  0  0  0  0  0  0  0
   47.7610   28.4530   46.8380 C   0  0  0  0  0  0  0  0  0  0  0  0
   48.8110   27.5680   46.6710 C   0  0  0  0  0  0  0  0  0  0  0  0
   50.0800   27.8280   47.1450 C   0  0  0  0  0  0  0  0  0  0  0  0
   50.3110   29.0180   47.8120 C   0  0  0  0  0  0  0  0  0  0  0  0
   44.4990   35.4630   45.0820 C   0  0  0  0  0  0  0  0  0  0  0  0
   45.1900   35.3980   43.8530 C   0  0  0  0  0  0  0  0  0  0  0  0
   46.1450   34.3640   43.7300 C   0  0  0  0  0  0  0  0  0  0  0  0
   46.3120   33.5350   44.7890 N   0  0  0  0  0  0  0  0  0  0  0  0
   45.6180   33.6460   45.9460 C   0  0  0  0  0  0  0  0  0  0  0  0
   44.7100   34.6190   46.0810 N   0  0  0  0  0  0  0  0  0  0  0  0
   43.8540   36.1220   41.9050 C   0  0  0  0  0  0  0  0  0  0  0  0
   42.9170   35.2670   41.7370 O   0  0  0  0  0  0  0  0  0  0  0  0
   44.9410   36.3190   42.7980 N   0  0  0  0  0  0  0  0  0  0  0  0
   46.8380   34.3220   42.4590 C   0  0  0  0  0  0  0  0  0  0  0  0
   47.9310   33.4640   42.5670 F   0  0  0  0  0  0  0  0  0  0  0  0
   47.3720   35.5670   42.2420 F   0  0  0  0  0  0  0  0  0  0  0  0
   46.0650   33.8660   41.4230 F   0  0  0  0  0  0  0  0  0  0  0  0
   44.5570   33.6335   48.4395 H   0  0  0  0  0  0  0  0  0  0  0  0
   45.0585   31.9658   50.2126 H   0  0  0  0  0  0  0  0  0  0  0  0
   46.6318   30.1106   49.8345 H   0  0  0  0  0  0  0  0  0  0  0  0
   46.7582   28.2214   46.4498 H   0  0  0  0  0  0  0  0  0  0  0  0
   48.6272   26.6220   46.1406 H   0  0  0  0  0  0  0  0  0  0  0  0
   50.8933   27.1026   46.9955 H   0  0  0  0  0  0  0  0  0  0  0  0
   51.3153   29.2472   48.1979 H   0  0  0  0  0  0  0  0  0  0  0  0
   43.7472   36.2546   45.2171 H   0  0  0  0  0  0  0  0  0  0  0  0
   43.8042   36.9230   41.1527 H   0  0  0  0  0  0  0  0  0  0  0  0
   45.5553   37.1373   42.6803 H   0  0  0  0  0  0  0  0  0  0  0  0
  1  2  1  0
  2  3  2  0
  2  7  1  0
  3  4  1  0
  4  5  2  0
  6  5  1  0
  7  6  2  0
  9  8  1  0
 10  7  1  0
 10  9  2  0
 11 10  1  0
 12 11  2  0
 12 13  1  0
 13 14  2  0
 14  9  1  0
 15 20  2  0
 16 15  1  0
 17 16  2  0
 17 18  1  0
 18 19  2  0
 19 20  1  0
 19  3  1  0
 21 23  1  0
 22 21  2  0
 23 16  1  0
 24 25  1  0
 24 17  1  0
 26 24  1  0
 27 24  1  0
  4 28  1  0
  5 29  1  0
  6 30  1  0
 11 31  1  0
 12 32  1  0
 13 33  1  0
 14 34  1  0
 15 35  1  0
 21 36  1  0
 23 37  1  0
M  ISO  8  28  14  29  14  30  14  31  14  32  14  33  14  34  14  35  14
M  ISO  1  36   6
M  END
>  <minimizedAffinity>  (1) 
-6.16971207

>  <minimizedRMSD>  (1) 
0.557407022

$$$$
