
     RDKit          3D

 49 52  0  0  1  0  0  0  0  0999 V2000
   45.9350   33.7400   43.3280 C   0  0  2  0  0  0  0  0  0  0  0  0
   45.0030   34.7870   42.8290 C   0  0  2  0  0  0  0  0  0  0  0  0
   44.9260   35.9680   43.7220 C   0  0  0  0  0  0  0  0  0  0  0  0
   44.6500   35.6480   45.1660 C   0  0  0  0  0  0  0  0  0  0  0  0
   45.2810   34.3690   45.6380 C   0  0  0  0  0  0  0  0  0  0  0  0
   46.4220   33.9370   44.7370 C   0  0  0  0  0  0  0  0  0  0  0  0
   42.6800   35.1010   41.8900 C   0  0  1  0  0  0  0  0  0  0  0  0
   43.6310   34.1920   42.5960 C   0  0  1  0  0  0  0  0  0  0  0  0
   43.7880   33.0310   41.8470 O   0  0  0  0  0  0  0  0  0  0  0  0
   43.3690   33.2960   40.5490 C   0  0  0  0  0  0  0  0  0  0  0  0
   42.1390   34.1550   40.8030 C   0  0  2  0  0  0  0  0  0  0  0  0
   41.6160   35.4990   42.6750 O   0  0  0  0  0  0  0  0  0  0  0  0
   41.7640   34.8680   39.6950 O   0  0  0  0  0  0  0  0  0  0  0  0
   40.6040   34.5840   39.0020 C   0  0  0  0  0  0  0  0  0  0  0  0
   39.7000   34.0040   39.9040 C   0  0  0  0  0  0  0  0  0  0  0  0
   38.4200   33.6020   39.5020 C   0  0  0  0  0  0  0  0  0  0  0  0
   38.0260   33.7710   38.1910 C   0  0  0  0  0  0  0  0  0  0  0  0
   38.9270   34.3410   37.3160 C   0  0  0  0  0  0  0  0  0  0  0  0
   40.1880   34.7420   37.6980 C   0  0  0  0  0  0  0  0  0  0  0  0
   47.1080   33.5610   42.4490 C   0  0  0  0  0  0  0  0  0  0  0  0
   48.2510   34.2580   42.8460 C   0  0  0  0  0  0  0  0  0  0  0  0
   49.4310   34.1650   42.0930 C   0  0  0  0  0  0  0  0  0  0  0  0
   49.3610   33.3540   40.9650 N   0  0  0  0  0  0  0  0  0  0  0  0
   48.2330   32.6970   40.6150 C   0  0  0  0  0  0  0  0  0  0  0  0
   47.1010   32.7960   41.3540 N   0  0  0  0  0  0  0  0  0  0  0  0
   45.3107   32.8344   43.3199 H   0  0  0  0  0  0  0  0  0  0  0  0
   45.4077   35.1529   41.8738 H   0  0  0  0  0  0  0  0  0  0  0  0
   45.8860   36.5022   43.6670 H   0  0  0  0  0  0  0  0  0  0  0  0
   44.0751   36.5691   43.3691 H   0  0  0  0  0  0  0  0  0  0  0  0
   45.0357   36.4728   45.7833 H   0  0  0  0  0  0  0  0  0  0  0  0
   43.5616   35.5213   45.2623 H   0  0  0  0  0  0  0  0  0  0  0  0
   45.6687   34.5181   46.6566 H   0  0  0  0  0  0  0  0  0  0  0  0
   44.5131   33.5816   45.6181 H   0  0  0  0  0  0  0  0  0  0  0  0
   46.8403   32.9909   45.1110 H   0  0  0  0  0  0  0  0  0  0  0  0
   47.1940   34.7206   44.7402 H   0  0  0  0  0  0  0  0  0  0  0  0
   43.1626   36.0315   41.5565 H   0  0  0  0  0  0  0  0  0  0  0  0
   43.1899   33.9994   43.5851 H   0  0  0  0  0  0  0  0  0  0  0  0
   43.1106   32.3712   40.0124 H   0  0  0  0  0  0  0  0  0  0  0  0
   44.1317   33.7762   39.9183 H   0  0  0  0  0  0  0  0  0  0  0  0
   41.2430   33.5781   41.0756 H   0  0  0  0  0  0  0  0  0  0  0  0
   41.8587   35.4082   43.6305 H   0  0  0  0  0  0  0  0  0  0  0  0
   40.0034   33.8615   40.9517 H   0  0  0  0  0  0  0  0  0  0  0  0
   37.7298   33.1521   40.2308 H   0  0  0  0  0  0  0  0  0  0  0  0
   37.0257   33.4612   37.8543 H   0  0  0  0  0  0  0  0  0  0  0  0
   38.6253   34.4814   36.2675 H   0  0  0  0  0  0  0  0  0  0  0  0
   40.8668   35.1909   36.9579 H   0  0  0  0  0  0  0  0  0  0  0  0
   48.2261   34.8817   43.7517 H   0  0  0  0  0  0  0  0  0  0  0  0
   50.3507   34.6981   42.3758 H   0  0  0  0  0  0  0  0  0  0  0  0
   48.2336   32.0690   39.7119 H   0  0  0  0  0  0  0  0  0  0  0  0
  1  6  1  0
  2  1  1  0
  2  3  1  0
  3  4  1  0
  4  5  1  0
  6  5  1  0
  7  8  1  0
  7 12  1  0
  8  2  1  0
  9  8  1  0
 10 11  1  0
 10  9  1  0
 11  7  1  0
 13 11  1  0
 14 13  1  0
 14 15  2  0
 16 15  1  0
 17 16  2  0
 18 19  2  0
 18 17  1  0
 19 14  1  0
 20 21  2  0
 20  1  1  0
 22 21  1  0
 23 22  2  0
 24 23  1  0
 24 25  2  0
 25 20  1  0
  1 26  1  1
  2 27  1  6
  3 28  1  0
  3 29  1  0
  4 30  1  0
  4 31  1  0
  5 32  1  0
  5 33  1  0
  6 34  1  0
  6 35  1  0
  7 36  1  6
  8 37  1  1
 10 38  1  0
 10 39  1  0
 11 40  1  1
 12 41  1  0
 15 42  1  0
 16 43  1  0
 17 44  1  0
 18 45  1  0
 19 46  1  0
 21 47  1  0
 22 48  1  0
 24 49  1  0
M  ISO  8  26  13  27  13  28  13  29  13  30  13  31  13  32  13  33  13
M  ISO  8  34  13  35  13  36  13  37  13  38  13  39  13  40  13  41   3
M  ISO  8  42  14  43  14  44  14  45  14  46  14  47  14  48  14  49  14
M  END
>  <minimizedAffinity>  (1) 
-6.56169033

>  <minimizedRMSD>  (1) 
1.1174705

$$$$
