
     RDKit          3D

 42 44  0  0  1  0  0  0  0  0999 V2000
   46.0570   33.8130   43.1880 C   0  0  2  0  0  0  0  0  0  0  0  0
   45.2690   34.8870   42.5250 C   0  0  2  0  0  0  0  0  0  0  0  0
   45.1100   36.0990   43.3620 C   0  0  0  0  0  0  0  0  0  0  0  0
   44.5980   35.8410   44.7510 C   0  0  0  0  0  0  0  0  0  0  0  0
   45.0620   34.5410   45.3430 C   0  0  0  0  0  0  0  0  0  0  0  0
   46.3120   34.0240   44.6530 C   0  0  0  0  0  0  0  0  0  0  0  0
   43.0290   35.3460   41.4470 C   0  0  1  0  0  0  0  0  0  0  0  0
   43.9260   34.3540   42.0800 C   0  0  1  0  0  0  0  0  0  0  0  0
   44.1580   33.3270   41.1730 O   0  0  0  0  0  0  0  0  0  0  0  0
   43.8610   33.7990   39.9040 C   0  0  0  0  0  0  0  0  0  0  0  0
   42.6000   34.6010   40.1780 C   0  0  2  0  0  0  0  0  0  0  0  0
   41.9030   35.6420   42.1810 O   0  0  0  0  0  0  0  0  0  0  0  0
   42.3440   35.5200   39.1690 O   0  0  0  0  0  0  0  0  0  0  0  0
   41.0880   35.4490   38.6250 C   0  0  0  0  0  0  0  0  0  0  0  0
   41.0370   36.4130   37.6180 F   0  0  0  0  0  0  0  0  0  0  0  0
   40.9100   34.1980   38.0650 F   0  0  0  0  0  0  0  0  0  0  0  0
   40.1100   35.7260   39.5340 F   0  0  0  0  0  0  0  0  0  0  0  0
   47.3450   33.5630   42.5180 C   0  0  0  0  0  0  0  0  0  0  0  0
   48.4040   34.3550   42.9640 C   0  0  0  0  0  0  0  0  0  0  0  0
   49.6850   34.2080   42.4080 C   0  0  0  0  0  0  0  0  0  0  0  0
   49.7970   33.2410   41.4130 N   0  0  0  0  0  0  0  0  0  0  0  0
   48.7440   32.4950   41.0090 C   0  0  0  0  0  0  0  0  0  0  0  0
   47.5180   32.6530   41.5590 N   0  0  0  0  0  0  0  0  0  0  0  0
   45.4035   32.9333   43.0927 H   0  0  0  0  0  0  0  0  0  0  0  0
   45.8437   35.2030   41.6419 H   0  0  0  0  0  0  0  0  0  0  0  0
   46.0911   36.5896   43.4442 H   0  0  0  0  0  0  0  0  0  0  0  0
   44.3539   36.7234   42.8635 H   0  0  0  0  0  0  0  0  0  0  0  0
   44.9393   36.6589   45.4026 H   0  0  0  0  0  0  0  0  0  0  0  0
   43.5018   35.7843   44.6800 H   0  0  0  0  0  0  0  0  0  0  0  0
   45.2810   34.6933   46.4102 H   0  0  0  0  0  0  0  0  0  0  0  0
   44.2628   33.7976   45.2068 H   0  0  0  0  0  0  0  0  0  0  0  0
   46.6083   33.0683   45.1099 H   0  0  0  0  0  0  0  0  0  0  0  0
   47.1151   34.7664   44.7703 H   0  0  0  0  0  0  0  0  0  0  0  0
   43.5344   36.3134   41.3101 H   0  0  0  0  0  0  0  0  0  0  0  0
   43.4054   34.0248   42.9914 H   0  0  0  0  0  0  0  0  0  0  0  0
   43.6702   32.9746   39.2012 H   0  0  0  0  0  0  0  0  0  0  0  0
   44.6713   34.3762   39.4348 H   0  0  0  0  0  0  0  0  0  0  0  0
   41.6884   33.9903   40.2559 H   0  0  0  0  0  0  0  0  0  0  0  0
   42.1144   35.5864   43.1466 H   0  0  0  0  0  0  0  0  0  0  0  0
   48.2341   35.0991   43.7561 H   0  0  0  0  0  0  0  0  0  0  0  0
   50.5413   34.8154   42.7362 H   0  0  0  0  0  0  0  0  0  0  0  0
   48.8870   31.7447   40.2174 H   0  0  0  0  0  0  0  0  0  0  0  0
  1  6  1  0
  2  1  1  0
  2  3  1  0
  3  4  1  0
  4  5  1  0
  6  5  1  0
  7  8  1  0
  7 12  1  0
  8  2  1  0
  9  8  1  0
 10 11  1  0
 10  9  1  0
 11  7  1  0
 13 11  1  0
 14 13  1  0
 14 17  1  0
 15 14  1  0
 16 14  1  0
 18 19  2  0
 18  1  1  0
 20 19  1  0
 21 20  2  0
 22 21  1  0
 22 23  2  0
 23 18  1  0
  1 24  1  1
  2 25  1  6
  3 26  1  0
  3 27  1  0
  4 28  1  0
  4 29  1  0
  5 30  1  0
  5 31  1  0
  6 32  1  0
  6 33  1  0
  7 34  1  6
  8 35  1  1
 10 36  1  0
 10 37  1  0
 11 38  1  1
 12 39  1  0
 19 40  1  0
 20 41  1  0
 22 42  1  0
M  ISO  8  24  13  25  13  26  13  27  13  28  13  29  13  30  13  31  13
M  ISO  8  32  13  33  13  34  13  35  13  36  13  37  13  38  13  39   3
M  ISO  3  40  14  41  14  42  14
M  END
>  <minimizedAffinity>  (1) 
-6.3525877

>  <minimizedRMSD>  (1) 
0.431866854

$$$$
