
     RDKit          3D

 51 54  0  0  1  0  0  0  0  0999 V2000
   46.0720   33.6930   43.3870 C   0  0  2  0  0  0  0  0  0  0  0  0
   45.2410   34.7760   42.7950 C   0  0  2  0  0  0  0  0  0  0  0  0
   45.0940   35.9490   43.6900 C   0  0  0  0  0  0  0  0  0  0  0  0
   44.6270   35.6140   45.0850 C   0  0  0  0  0  0  0  0  0  0  0  0
   45.1530   34.3080   45.6070 C   0  0  0  0  0  0  0  0  0  0  0  0
   46.3870   33.8570   44.8470 C   0  0  0  0  0  0  0  0  0  0  0  0
   42.9440   35.2460   41.8510 C   0  0  1  0  0  0  0  0  0  0  0  0
   43.8910   34.2340   42.3810 C   0  0  1  0  0  0  0  0  0  0  0  0
   44.0970   33.2640   41.4080 O   0  0  0  0  0  0  0  0  0  0  0  0
   43.7220   33.7940   40.1860 C   0  0  0  0  0  0  0  0  0  0  0  0
   42.4690   34.5590   40.5620 C   0  0  2  0  0  0  0  0  0  0  0  0
   41.8430   35.4520   42.6590 O   0  0  0  0  0  0  0  0  0  0  0  0
   42.1300   35.5210   39.6280 O   0  0  0  0  0  0  0  0  0  0  0  0
   41.2070   34.1580   37.9280 N   0  0  0  0  0  0  0  0  0  0  0  0
   40.0640   35.0200   37.6980 C   0  0  0  0  0  0  0  0  0  0  0  0
   40.6400   36.1340   36.8800 C   0  0  0  0  0  0  0  0  0  0  0  0
   42.0280   36.3070   37.4240 C   0  0  0  0  0  0  0  0  0  0  0  0
   42.2280   35.1010   38.3220 C   0  0  1  0  0  0  0  0  0  0  0  0
   47.3380   33.4880   42.6550 C   0  0  0  0  0  0  0  0  0  0  0  0
   48.3800   34.3310   43.0370 C   0  0  0  0  0  0  0  0  0  0  0  0
   49.6360   34.2310   42.4190 C   0  0  0  0  0  0  0  0  0  0  0  0
   49.7390   33.2570   41.4300 N   0  0  0  0  0  0  0  0  0  0  0  0
   48.7040   32.4610   41.0870 C   0  0  0  0  0  0  0  0  0  0  0  0
   47.5010   32.5730   41.6980 N   0  0  0  0  0  0  0  0  0  0  0  0
   45.4271   32.8074   43.2879 H   0  0  0  0  0  0  0  0  0  0  0  0
   45.7723   35.1379   41.9024 H   0  0  0  0  0  0  0  0  0  0  0  0
   46.0709   36.4490   43.7650 H   0  0  0  0  0  0  0  0  0  0  0  0
   44.3179   36.5886   43.2443 H   0  0  0  0  0  0  0  0  0  0  0  0
   44.9570   36.4155   45.7623 H   0  0  0  0  0  0  0  0  0  0  0  0
   43.5318   35.5216   45.0408 H   0  0  0  0  0  0  0  0  0  0  0  0
   45.4121   34.4269   46.6694 H   0  0  0  0  0  0  0  0  0  0  0  0
   44.3710   33.5457   45.4754 H   0  0  0  0  0  0  0  0  0  0  0  0
   46.7317   32.8948   45.2537 H   0  0  0  0  0  0  0  0  0  0  0  0
   47.1732   34.6181   44.9591 H   0  0  0  0  0  0  0  0  0  0  0  0
   43.4161   36.2341   41.7472 H   0  0  0  0  0  0  0  0  0  0  0  0
   43.4225   33.8359   43.2931 H   0  0  0  0  0  0  0  0  0  0  0  0
   43.5052   33.0022   39.4538 H   0  0  0  0  0  0  0  0  0  0  0  0
   44.4973   34.4098   39.7066 H   0  0  0  0  0  0  0  0  0  0  0  0
   41.5773   33.9204   40.6463 H   0  0  0  0  0  0  0  0  0  0  0  0
   42.1167   35.4008   43.6090 H   0  0  0  0  0  0  0  0  0  0  0  0
   41.4743   33.6556   37.0695 H   0  0  0  0  0  0  0  0  0  0  0  0
   39.2747   34.4904   37.1443 H   0  0  0  0  0  0  0  0  0  0  0  0
   39.5888   35.3663   38.6276 H   0  0  0  0  0  0  0  0  0  0  0  0
   40.0531   37.0556   37.0069 H   0  0  0  0  0  0  0  0  0  0  0  0
   40.6331   35.9139   35.8023 H   0  0  0  0  0  0  0  0  0  0  0  0
   42.7680   36.3145   36.6101 H   0  0  0  0  0  0  0  0  0  0  0  0
   42.1546   37.2584   37.9614 H   0  0  0  0  0  0  0  0  0  0  0  0
   43.2116   34.6171   38.2303 H   0  0  0  0  0  0  0  0  0  0  0  0
   48.2171   35.0788   43.8271 H   0  0  0  0  0  0  0  0  0  0  0  0
   50.4811   34.8779   42.6971 H   0  0  0  0  0  0  0  0  0  0  0  0
   48.8405   31.7079   40.2969 H   0  0  0  0  0  0  0  0  0  0  0  0
  1  6  1  0
  2  1  1  0
  2  3  1  0
  3  4  1  0
  4  5  1  0
  6  5  1  0
  7  8  1  0
  7 12  1  0
  8  2  1  0
  9  8  1  0
 10 11  1  0
 10  9  1  0
 11  7  1  0
 13 11  1  0
 14 18  1  0
 15 14  1  0
 16 17  1  0
 16 15  1  0
 17 18  1  0
 18 13  1  0
 19 20  2  0
 19  1  1  0
 21 20  1  0
 22 21  2  0
 23 22  1  0
 23 24  2  0
 24 19  1  0
  1 25  1  1
  2 26  1  6
  3 27  1  0
  3 28  1  0
  4 29  1  0
  4 30  1  0
  5 31  1  0
  5 32  1  0
  6 33  1  0
  6 34  1  0
  7 35  1  6
  8 36  1  1
 10 37  1  0
 10 38  1  0
 11 39  1  1
 12 40  1  0
 14 41  1  0
 15 42  1  0
 15 43  1  0
 16 44  1  0
 16 45  1  0
 17 46  1  0
 17 47  1  0
 18 48  1  1
 20 49  1  0
 21 50  1  0
 23 51  1  0
M  ISO  8  25  13  26  13  27  13  28  13  29  13  30  13  31  13  32  13
M  ISO  8  33  13  34  13  35  13  36  13  37  13  38  13  39  13  40   3
M  ISO  8  41   5  42  13  43  13  44  13  45  13  46  13  47  13  48  13
M  ISO  3  49  14  50  14  51  14
M  END
>  <minimizedAffinity>  (1) 
-6.26070547

>  <minimizedRMSD>  (1) 
0.97559166

$$$$
