
     RDKit          3D

 42 44  0  0  1  0  0  0  0  0999 V2000
   45.9620   33.8680   43.1080 C   0  0  2  0  0  0  0  0  0  0  0  0
   45.1960   34.9660   42.4530 C   0  0  2  0  0  0  0  0  0  0  0  0
   45.0730   36.1730   43.3090 C   0  0  0  0  0  0  0  0  0  0  0  0
   44.5480   35.9020   44.6970 C   0  0  0  0  0  0  0  0  0  0  0  0
   45.0090   34.5990   45.2770 C   0  0  0  0  0  0  0  0  0  0  0  0
   46.2410   34.0670   44.5700 C   0  0  0  0  0  0  0  0  0  0  0  0
   43.0110   35.4590   41.2860 C   0  0  1  0  0  0  0  0  0  0  0  0
   43.8340   34.4670   42.0220 C   0  0  1  0  0  0  0  0  0  0  0  0
   44.0240   33.3570   41.2050 O   0  0  0  0  0  0  0  0  0  0  0  0
   43.7720   33.7300   39.8990 C   0  0  0  0  0  0  0  0  0  0  0  0
   42.5560   34.6280   40.0800 C   0  0  2  0  0  0  0  0  0  0  0  0
   41.8910   35.8800   41.9670 O   0  0  0  0  0  0  0  0  0  0  0  0
   42.3600   35.4540   38.9850 O   0  0  0  0  0  0  0  0  0  0  0  0
   41.0410   35.2930   38.5640 C   0  0  0  0  0  0  0  0  0  0  0  0
   47.2380   33.5840   42.4200 C   0  0  0  0  0  0  0  0  0  0  0  0
   48.3240   34.3360   42.8710 C   0  0  0  0  0  0  0  0  0  0  0  0
   49.5920   34.1580   42.3020 C   0  0  0  0  0  0  0  0  0  0  0  0
   49.6700   33.2060   41.2900 N   0  0  0  0  0  0  0  0  0  0  0  0
   48.5900   32.4990   40.8830 C   0  0  0  0  0  0  0  0  0  0  0  0
   47.3700   32.6830   41.4440 N   0  0  0  0  0  0  0  0  0  0  0  0
   45.2816   33.0081   43.0211 H   0  0  0  0  0  0  0  0  0  0  0  0
   45.7661   35.2743   41.5642 H   0  0  0  0  0  0  0  0  0  0  0  0
   46.0683   36.6322   43.4013 H   0  0  0  0  0  0  0  0  0  0  0  0
   44.3405   36.8316   42.8194 H   0  0  0  0  0  0  0  0  0  0  0  0
   44.8838   36.7139   45.3589 H   0  0  0  0  0  0  0  0  0  0  0  0
   43.4522   35.8468   44.6188 H   0  0  0  0  0  0  0  0  0  0  0  0
   45.2464   34.7479   46.3407 H   0  0  0  0  0  0  0  0  0  0  0  0
   44.2000   33.8648   45.1490 H   0  0  0  0  0  0  0  0  0  0  0  0
   46.5285   33.1045   45.0182 H   0  0  0  0  0  0  0  0  0  0  0  0
   47.0578   34.7953   44.6809 H   0  0  0  0  0  0  0  0  0  0  0  0
   43.5765   36.3793   41.0783 H   0  0  0  0  0  0  0  0  0  0  0  0
   43.2780   34.2360   42.9426 H   0  0  0  0  0  0  0  0  0  0  0  0
   43.5402   32.8592   39.2682 H   0  0  0  0  0  0  0  0  0  0  0  0
   44.6212   34.2145   39.3950 H   0  0  0  0  0  0  0  0  0  0  0  0
   41.6081   34.0833   40.2020 H   0  0  0  0  0  0  0  0  0  0  0  0
   42.0547   35.8185   42.9414 H   0  0  0  0  0  0  0  0  0  0  0  0
   40.3831   35.2127   39.4419 H   0  0  0  0  0  0  0  0  0  0  0  0
   40.7407   36.1612   37.9589 H   0  0  0  0  0  0  0  0  0  0  0  0
   40.9583   34.3781   37.9589 H   0  0  0  0  0  0  0  0  0  0  0  0
   48.1838   35.0716   43.6767 H   0  0  0  0  0  0  0  0  0  0  0  0
   50.4689   34.7334   42.6337 H   0  0  0  0  0  0  0  0  0  0  0  0
   48.7051   31.7579   40.0783 H   0  0  0  0  0  0  0  0  0  0  0  0
  1  6  1  0
  2  1  1  0
  2  3  1  0
  3  4  1  0
  4  5  1  0
  6  5  1  0
  7 12  1  0
  7  8  1  0
  8  2  1  0
  9  8  1  0
 10 11  1  0
 10  9  1  0
 11  7  1  0
 13 11  1  0
 14 13  1  0
 15 16  2  0
 15  1  1  0
 17 16  1  0
 18 17  2  0
 19 18  1  0
 19 20  2  0
 20 15  1  0
  1 21  1  1
  2 22  1  6
  3 23  1  0
  3 24  1  0
  4 25  1  0
  4 26  1  0
  5 27  1  0
  5 28  1  0
  6 29  1  0
  6 30  1  0
  7 31  1  6
  8 32  1  1
 10 33  1  0
 10 34  1  0
 11 35  1  1
 12 36  1  0
 14 37  1  0
 14 38  1  0
 14 39  1  0
 16 40  1  0
 17 41  1  0
 19 42  1  0
M  ISO  8  21  13  22  13  23  13  24  13  25  13  26  13  27  13  28  13
M  ISO  8  29  13  30  13  31  13  32  13  33  13  34  13  35  13  36   3
M  ISO  6  37   8  38   8  39   8  40  14  41  14  42  14
M  END
>  <minimizedAffinity>  (1) 
-5.48685789

>  <minimizedRMSD>  (1) 
0.262508541

$$$$
