
     RDKit          3D

 17 17  0  0  0  0  0  0  0  0999 V2000
   44.2980   35.7880   44.1920 C   0  0  0  0  0  0  0  0  0  0  0  0
   44.4710   34.9370   43.0910 C   0  0  0  0  0  0  0  0  0  0  0  0
   45.0880   33.7060   43.3050 C   0  0  0  0  0  0  0  0  0  0  0  0
   45.4960   33.3850   44.5700 N   0  0  0  0  0  0  0  0  0  0  0  0
   45.3100   34.2340   45.6030 C   0  0  0  0  0  0  0  0  0  0  0  0
   44.7180   35.4170   45.4040 N   0  0  0  0  0  0  0  0  0  0  0  0
   44.0310   35.2910   41.7470 C   0  0  0  0  0  0  0  0  0  0  0  0
   43.0080   34.7610   41.1030 C   0  0  0  0  0  0  0  0  0  0  0  0
   42.6380   35.1990   39.7140 C   0  0  0  0  0  0  0  0  0  0  0  0
   43.8137   36.7663   44.0565 H   0  0  0  0  0  0  0  0  0  0  0  0
   45.2440   33.0053   42.4715 H   0  0  0  0  0  0  0  0  0  0  0  0
   45.6463   33.9521   46.6117 H   0  0  0  0  0  0  0  0  0  0  0  0
   44.6032   36.0702   41.2222 H   0  0  0  0  0  0  0  0  0  0  0  0
   42.4113   33.9790   41.5954 H   0  0  0  0  0  0  0  0  0  0  0  0
   41.9291   36.0382   39.7708 H   0  0  0  0  0  0  0  0  0  0  0  0
   43.5431   35.5193   39.1772 H   0  0  0  0  0  0  0  0  0  0  0  0
   42.1709   34.3601   39.1772 H   0  0  0  0  0  0  0  0  0  0  0  0
  1  6  2  0
  2  3  2  0
  2  1  1  0
  3  4  1  0
  4  5  2  0
  6  5  1  0
  7  2  1  0
  8  7  2  0
  9  8  1  0
  1 10  1  0
  3 11  1  0
  5 12  1  0
  7 13  1  0
  8 14  1  0
  9 15  1  0
  9 16  1  0
  9 17  1  0
M  ISO  6  10  14  11  14  12  14  15   8  16   8  17   8
M  END
>  <minimizedAffinity>  (1) 
-3.15885735

>  <minimizedRMSD>  (1) 
1.51928997

$$$$
