
     RDKit          3D

 19 19  0  0  0  0  0  0  0  0999 V2000
   44.3070   35.7900   44.1850 C   0  0  0  0  0  0  0  0  0  0  0  0
   44.4580   34.9590   43.0790 C   0  0  0  0  0  0  0  0  0  0  0  0
   45.0660   33.7340   43.2900 C   0  0  0  0  0  0  0  0  0  0  0  0
   45.4960   33.3690   44.5320 N   0  0  0  0  0  0  0  0  0  0  0  0
   45.3250   34.2170   45.5800 C   0  0  0  0  0  0  0  0  0  0  0  0
   44.7400   35.3970   45.3860 N   0  0  0  0  0  0  0  0  0  0  0  0
   44.0170   35.3040   41.7400 C   0  0  0  0  0  0  0  0  0  0  0  0
   43.0190   34.7620   41.0840 C   0  0  0  0  0  0  0  0  0  0  0  0
   42.6310   35.1780   39.7050 C   0  0  0  0  0  0  0  0  0  0  0  0
   42.8040   34.1120   38.7420 N   0  0  0  0  0  0  0  0  0  0  0  0
   43.8293   36.7741   44.0698 H   0  0  0  0  0  0  0  0  0  0  0  0
   45.2045   33.0447   42.4440 H   0  0  0  0  0  0  0  0  0  0  0  0
   45.6686   33.9296   46.5846 H   0  0  0  0  0  0  0  0  0  0  0  0
   44.5753   36.0991   41.2241 H   0  0  0  0  0  0  0  0  0  0  0  0
   42.4414   33.9638   41.5732 H   0  0  0  0  0  0  0  0  0  0  0  0
   41.5737   35.4814   39.7111 H   0  0  0  0  0  0  0  0  0  0  0  0
   43.2854   36.0106   39.4074 H   0  0  0  0  0  0  0  0  0  0  0  0
   42.9486   33.2211   39.2383 H   0  0  0  0  0  0  0  0  0  0  0  0
   41.9632   34.0433   38.1511 H   0  0  0  0  0  0  0  0  0  0  0  0
  1  6  2  0
  2  3  2  0
  2  1  1  0
  3  4  1  0
  4  5  2  0
  6  5  1  0
  7  2  1  0
  8  7  2  0
  9  8  1  0
 10  9  1  0
  1 11  1  0
  3 12  1  0
  5 13  1  0
  7 14  1  0
  8 15  1  0
  9 16  1  0
  9 17  1  0
 10 18  1  0
 10 19  1  0
M  ISO  7  11  14  12  14  13  14  16   8  17   8  18   5  19   5
M  END
>  <minimizedAffinity>  (1) 
-3.15169644

>  <minimizedRMSD>  (1) 
0.0607830063

$$$$
