
     RDKit          3D

 29 30  0  0  0  0  0  0  0  0999 V2000
   41.4330   35.8140   39.8830 C   0  0  0  0  0  0  0  0  0  0  0  0
   40.7610   35.5300   37.1880 F   0  0  0  0  0  0  0  0  0  0  0  0
   39.9930   34.8790   38.0980 C   0  0  0  0  0  0  0  0  0  0  0  0
   40.2980   34.9970   39.4680 C   0  0  0  0  0  0  0  0  0  0  0  0
   39.4500   34.2950   40.2710 C   0  0  0  0  0  0  0  0  0  0  0  0
   38.3760   33.5180   39.8980 C   0  0  0  0  0  0  0  0  0  0  0  0
   38.1530   33.4640   38.5170 C   0  0  0  0  0  0  0  0  0  0  0  0
   38.9370   34.1270   37.6030 C   0  0  0  0  0  0  0  0  0  0  0  0
   43.3380   35.5200   41.4160 C   0  0  0  0  0  0  0  0  0  0  0  0
   42.1130   35.2180   41.0660 C   0  0  0  0  0  0  0  0  0  0  0  0
   44.3120   35.7330   43.7210 C   0  0  0  0  0  0  0  0  0  0  0  0
   44.0560   34.9660   42.5700 C   0  0  0  0  0  0  0  0  0  0  0  0
   44.5100   33.6610   42.5650 C   0  0  0  0  0  0  0  0  0  0  0  0
   45.1690   33.2100   43.6660 N   0  0  0  0  0  0  0  0  0  0  0  0
   45.3970   33.9570   44.7420 C   0  0  0  0  0  0  0  0  0  0  0  0
   44.9620   35.2160   44.7530 N   0  0  0  0  0  0  0  0  0  0  0  0
   46.0940   33.4810   45.9080 C   0  0  0  0  0  0  0  0  0  0  0  0
   45.5070   33.0320   46.9460 O   0  0  0  0  0  0  0  0  0  0  0  0
   41.0756   36.8214   40.1428 H   0  0  0  0  0  0  0  0  0  0  0  0
   42.1524   35.8636   39.0524 H   0  0  0  0  0  0  0  0  0  0  0  0
   39.6479   34.3566   41.3513 H   0  0  0  0  0  0  0  0  0  0  0  0
   37.7458   32.9842   40.6246 H   0  0  0  0  0  0  0  0  0  0  0  0
   37.3103   32.8624   38.1456 H   0  0  0  0  0  0  0  0  0  0  0  0
   38.7355   34.0640   36.5234 H   0  0  0  0  0  0  0  0  0  0  0  0
   43.8743   36.2506   40.7926 H   0  0  0  0  0  0  0  0  0  0  0  0
   41.5593   34.4886   41.6755 H   0  0  0  0  0  0  0  0  0  0  0  0
   43.9676   36.7768   43.7648 H   0  0  0  0  0  0  0  0  0  0  0  0
   44.3435   33.0065   41.6967 H   0  0  0  0  0  0  0  0  0  0  0  0
   47.1937   33.5062   45.9027 H   0  0  0  0  0  0  0  0  0  0  0  0
  1 10  1  0
  2  3  1  0
  3  4  2  0
  4  1  1  0
  4  5  1  0
  6  5  2  0
  7  6  1  0
  8  3  1  0
  8  7  2  0
  9 12  1  0
 10  9  2  0
 11 16  2  0
 12 11  1  0
 13 12  2  0
 13 14  1  0
 14 15  2  0
 15 16  1  0
 15 17  1  0
 17 18  2  0
  1 19  1  0
  1 20  1  0
  5 21  1  0
  6 22  1  0
  7 23  1  0
  8 24  1  0
  9 25  1  0
 10 26  1  0
 11 27  1  0
 13 28  1  0
 17 29  1  0
M  ISO  8  19   8  20   8  21  14  22  14  23  14  24  14  27  14  28  14
M  ISO  1  29   6
M  END
>  <minimizedAffinity>  (1) 
-5.85217237

>  <minimizedRMSD>  (1) 
0.16701442

$$$$
