
     RDKit          3D

 28 29  0  0  0  0  0  0  0  0999 V2000
   41.2920   35.9620   39.9700 C   0  0  0  0  0  0  0  0  0  0  0  0
   40.8620   35.5530   37.2470 F   0  0  0  0  0  0  0  0  0  0  0  0
   40.0360   34.9160   38.1070 C   0  0  0  0  0  0  0  0  0  0  0  0
   40.2220   35.0980   39.4880 C   0  0  0  0  0  0  0  0  0  0  0  0
   39.3280   34.4040   40.2470 C   0  0  0  0  0  0  0  0  0  0  0  0
   38.3080   33.5810   39.8100 C   0  0  0  0  0  0  0  0  0  0  0  0
   38.2020   33.4620   38.4200 C   0  0  0  0  0  0  0  0  0  0  0  0
   39.0430   34.1100   37.5480 C   0  0  0  0  0  0  0  0  0  0  0  0
   43.2580   35.5080   41.3720 C   0  0  0  0  0  0  0  0  0  0  0  0
   41.9800   35.3560   41.1480 C   0  0  0  0  0  0  0  0  0  0  0  0
   44.3100   35.7060   43.6520 C   0  0  0  0  0  0  0  0  0  0  0  0
   43.9930   34.9500   42.4930 C   0  0  0  0  0  0  0  0  0  0  0  0
   44.4210   33.6310   42.4680 C   0  0  0  0  0  0  0  0  0  0  0  0
   45.1080   33.1640   43.5510 N   0  0  0  0  0  0  0  0  0  0  0  0
   45.3890   33.9030   44.6260 C   0  0  0  0  0  0  0  0  0  0  0  0
   44.9810   35.1810   44.6630 N   0  0  0  0  0  0  0  0  0  0  0  0
   46.2970   33.1600   45.9710 S   0  0  0  0  0  0  0  0  0  0  0  0
   40.8659   36.9330   40.2627 H   0  0  0  0  0  0  0  0  0  0  0  0
   42.0281   36.0914   39.1629 H   0  0  0  0  0  0  0  0  0  0  0  0
   39.4306   34.5119   41.3369 H   0  0  0  0  0  0  0  0  0  0  0  0
   37.6308   33.0591   40.5021 H   0  0  0  0  0  0  0  0  0  0  0  0
   37.4096   32.8207   38.0067 H   0  0  0  0  0  0  0  0  0  0  0  0
   38.9385   33.9987   36.4587 H   0  0  0  0  0  0  0  0  0  0  0  0
   43.8266   36.1110   40.6487 H   0  0  0  0  0  0  0  0  0  0  0  0
   41.3873   34.7577   41.8556 H   0  0  0  0  0  0  0  0  0  0  0  0
   43.9888   36.7564   43.7105 H   0  0  0  0  0  0  0  0  0  0  0  0
   44.2136   32.9827   41.6039 H   0  0  0  0  0  0  0  0  0  0  0  0
   45.7760   33.5863   47.1642 H   0  0  0  0  0  0  0  0  0  0  0  0
  1 10  1  0
  2  3  1  0
  3  4  2  0
  4  1  1  0
  4  5  1  0
  6  5  2  0
  7  6  1  0
  8  3  1  0
  8  7  2  0
  9 12  1  0
 10  9  2  0
 11 16  2  0
 12 11  1  0
 13 12  2  0
 13 14  1  0
 14 15  2  0
 15 16  1  0
 15 17  1  0
  1 18  1  0
  1 19  1  0
  5 20  1  0
  6 21  1  0
  7 22  1  0
  8 23  1  0
  9 24  1  0
 10 25  1  0
 11 26  1  0
 13 27  1  0
 17 28  1  0
M  ISO  8  18   8  19   8  20  14  21  14  22  14  23  14  26  14  27  14
M  ISO  1  28  11
M  END
>  <minimizedAffinity>  (1) 
-5.83803511

>  <minimizedRMSD>  (1) 
0.257099241

$$$$
