
     RDKit          3D

 30 32  0  0  0  0  0  0  0  0999 V2000
   45.5995   34.0374   45.3358 C   0  0  0  0  0  0  0  0  0  0  0  0
   44.7007   35.0905   45.5891 C   0  0  0  0  0  0  0  0  0  0  0  0
   44.5273   36.0486   44.5687 C   0  0  0  0  0  0  0  0  0  0  0  0
   45.2295   35.8951   43.4230 N   0  0  0  0  0  0  0  0  0  0  0  0
   46.0948   34.8599   43.2094 C   0  0  0  0  0  0  0  0  0  0  0  0
   46.2611   33.9456   44.1815 N   0  0  0  0  0  0  0  0  0  0  0  0
   44.5865   33.1390   41.1894 Br  0  0  0  0  0  0  0  0  0  0  0  0
   46.2848   33.9975   40.9504 C   0  0  0  0  0  0  0  0  0  0  0  0
   46.8273   34.7380   41.9601 C   0  0  0  0  0  0  0  0  0  0  0  0
   48.0693   35.3734   41.8032 C   0  0  0  0  0  0  0  0  0  0  0  0
   48.7154   35.2252   40.6064 C   0  0  0  0  0  0  0  0  0  0  0  0
   48.1269   34.4670   39.6162 C   0  0  0  0  0  0  0  0  0  0  0  0
   46.9189   33.8378   39.7427 C   0  0  0  0  0  0  0  0  0  0  0  0
   45.7036   33.3156   46.1560 H   0  0  0  0  0  0  0  0  0  0  0  0
   44.1337   35.2277   46.4954 H   0  0  0  0  0  0  0  0  0  0  0  0
   43.8642   36.9079   44.6390 H   0  0  0  0  0  0  0  0  0  0  0  0
   48.4601   35.9507   42.6326 H   0  0  0  0  0  0  0  0  0  0  0  0
   49.6666   35.7316   40.5324 H   0  0  0  0  0  0  0  0  0  0  0  0
   48.7230   34.4112   38.7008 H   0  0  0  0  0  0  0  0  0  0  0  0
   46.4012   33.0633   38.6211 C   0  0  0  0  0  0  0  0  0  0  0  0
   45.2126   32.3655   38.5612 C   0  0  0  0  0  0  0  0  0  0  0  0
   44.6108   32.4098   39.4568 H   0  0  0  0  0  0  0  0  0  0  0  0
   44.8599   31.6753   37.4186 C   0  0  0  0  0  0  0  0  0  0  0  0
   45.7134   31.6924   36.3346 C   0  0  0  0  0  0  0  0  0  0  0  0
   45.3512   31.1198   35.4782 H   0  0  0  0  0  0  0  0  0  0  0  0
   46.9126   32.3746   36.3440 C   0  0  0  0  0  0  0  0  0  0  0  0
   47.5462   32.3569   35.4688 H   0  0  0  0  0  0  0  0  0  0  0  0
   47.2492   33.0662   37.5113 C   0  0  0  0  0  0  0  0  0  0  0  0
   43.9179   31.1464   37.4276 H   0  0  0  0  0  0  0  0  0  0  0  0
   48.1993   33.5755   37.4459 H   0  0  0  0  0  0  0  0  0  0  0  0
  1  2  2  0
  3  2  1  0
  4  3  2  0
  5  4  1  0
  5  6  2  0
  6  1  1  0
  8  7  1  0
  8  9  2  0
  9  5  1  0
 10  9  1  0
 11 10  2  0
 12 13  2  0
 12 11  1  0
 13  8  1  0
  1 14  1  0
  2 15  1  0
  3 16  1  0
 10 17  1  0
 11 18  1  0
 12 19  1  0
 20 21  2  0
 21 22  1  0
 21 23  1  0
 23 24  2  0
 24 25  1  0
 24 26  1  0
 26 27  1  0
 26 28  2  0
 28 20  1  0
 23 29  1  0
 28 30  1  0
 13 20  1  0
M  END
>  <DihAtoms>  (1) 
11,12,19,20

>  <DihDeg>  (1) 
-134.9818292338761

$$$$
