
     RDKit          3D

 33 34  0  0  0  0  0  0  0  0999 V2000
   40.4110   36.2120   40.7550 C   0  0  0  0  0  0  0  0  0  0  0  0
   41.0660   36.1180   38.0410 F   0  0  0  0  0  0  0  0  0  0  0  0
   40.1550   35.2350   38.5020 C   0  0  0  0  0  0  0  0  0  0  0  0
   39.8040   35.2530   39.8470 C   0  0  0  0  0  0  0  0  0  0  0  0
   38.8680   34.3040   40.1800 C   0  0  0  0  0  0  0  0  0  0  0  0
   38.2680   33.3770   39.3500 C   0  0  0  0  0  0  0  0  0  0  0  0
   38.6890   33.4410   38.0160 C   0  0  0  0  0  0  0  0  0  0  0  0
   39.6220   34.3510   37.5650 C   0  0  0  0  0  0  0  0  0  0  0  0
   42.7120   35.5320   41.3050 C   0  0  0  0  0  0  0  0  0  0  0  0
   41.4450   35.5770   41.6180 C   0  0  0  0  0  0  0  0  0  0  0  0
   44.5820   35.7240   42.9610 C   0  0  0  0  0  0  0  0  0  0  0  0
   43.7650   34.9170   42.1250 C   0  0  0  0  0  0  0  0  0  0  0  0
   43.9900   33.5540   42.1090 C   0  0  0  0  0  0  0  0  0  0  0  0
   44.9870   33.0780   42.9020 N   0  0  0  0  0  0  0  0  0  0  0  0
   45.7500   33.8510   43.6860 C   0  0  0  0  0  0  0  0  0  0  0  0
   45.5350   35.1740   43.7040 N   0  0  0  0  0  0  0  0  0  0  0  0
   46.8310   33.3470   44.5480 C   0  0  0  0  0  0  0  0  0  0  0  0
   46.3430   33.2240   45.9800 C   0  0  0  0  0  0  0  0  0  0  0  0
   39.6269   36.6415   41.3959 H   0  0  0  0  0  0  0  0  0  0  0  0
   40.8997   36.9919   40.1526 H   0  0  0  0  0  0  0  0  0  0  0  0
   38.5589   34.2794   41.2354 H   0  0  0  0  0  0  0  0  0  0  0  0
   37.5230   32.6505   39.7066 H   0  0  0  0  0  0  0  0  0  0  0  0
   38.2555   32.7328   37.2945 H   0  0  0  0  0  0  0  0  0  0  0  0
   39.9326   34.3782   36.5101 H   0  0  0  0  0  0  0  0  0  0  0  0
   43.0150   35.9907   40.3522 H   0  0  0  0  0  0  0  0  0  0  0  0
   41.1254   35.1227   42.5674 H   0  0  0  0  0  0  0  0  0  0  0  0
   44.4240   36.8121   42.9930 H   0  0  0  0  0  0  0  0  0  0  0  0
   43.3875   32.8815   41.4807 H   0  0  0  0  0  0  0  0  0  0  0  0
   47.1530   32.3589   44.1874 H   0  0  0  0  0  0  0  0  0  0  0  0
   47.6753   34.0513   44.5150 H   0  0  0  0  0  0  0  0  0  0  0  0
   47.1739   33.4334   46.6698 H   0  0  0  0  0  0  0  0  0  0  0  0
   45.5312   33.9456   46.1540 H   0  0  0  0  0  0  0  0  0  0  0  0
   45.9702   32.2038   46.1540 H   0  0  0  0  0  0  0  0  0  0  0  0
  1 10  1  0
  2  3  1  0
  3  4  2  0
  4  5  1  0
  4  1  1  0
  6  5  2  0
  7  6  1  0
  8  7  2  0
  8  3  1  0
  9 10  2  0
  9 12  1  0
 11 16  2  0
 12 11  1  0
 13 12  2  0
 13 14  1  0
 14 15  2  0
 15 16  1  0
 15 17  1  0
 17 18  1  0
  1 19  1  0
  1 20  1  0
  5 21  1  0
  6 22  1  0
  7 23  1  0
  8 24  1  0
  9 25  1  0
 10 26  1  0
 11 27  1  0
 13 28  1  0
 17 29  1  0
 17 30  1  0
 18 31  1  0
 18 32  1  0
 18 33  1  0
M  ISO  8  19   8  20   8  21  14  22  14  23  14  24  14  27  14  28  14
M  ISO  5  29   8  30   8  31   8  32   8  33   8
M  END
>  <minimizedAffinity>  (1) 
-5.85130119

>  <minimizedRMSD>  (1) 
1.06481266

$$$$
