
     RDKit          3D

 46 49  0  0  0  0  0  0  0  0999 V2000
   44.5180   35.5890   42.9090 C   0  0  0  0  0  0  0  0  0  0  0  0
   43.6900   34.8020   42.0810 C   0  0  0  0  0  0  0  0  0  0  0  0
   43.8890   33.4430   42.0920 C   0  0  0  0  0  0  0  0  0  0  0  0
   44.8690   32.9390   42.8990 N   0  0  0  0  0  0  0  0  0  0  0  0
   45.6410   33.6950   43.6740 C   0  0  0  0  0  0  0  0  0  0  0  0
   45.4500   35.0300   43.6680 N   0  0  0  0  0  0  0  0  0  0  0  0
   46.7020   33.2030   44.5550 C   0  0  0  0  0  0  0  0  0  0  0  0
   46.3600   33.4970   46.0090 C   0  0  0  0  0  0  0  0  0  0  0  0
   45.3790   32.3410   47.8810 C   0  0  0  0  0  0  0  0  0  0  0  0
   45.9840   32.2020   46.6360 C   0  0  0  0  0  0  0  0  0  0  0  0
   46.1920   30.9590   46.0780 C   0  0  0  0  0  0  0  0  0  0  0  0
   45.7830   29.8420   46.7900 C   0  0  0  0  0  0  0  0  0  0  0  0
   45.8570   28.5360   46.4970 N   0  0  0  0  0  0  0  0  0  0  0  0
   45.3110   27.8600   47.5380 C   0  0  0  0  0  0  0  0  0  0  0  0
   44.8880   28.7270   48.4920 N   0  0  0  0  0  0  0  0  0  0  0  0
   45.1820   29.9710   48.0270 C   0  0  0  0  0  0  0  0  0  0  0  0
   44.9620   31.2200   48.6070 C   0  0  0  0  0  0  0  0  0  0  0  0
   42.6610   35.4160   41.2440 C   0  0  0  0  0  0  0  0  0  0  0  0
   41.4150   35.6050   41.5880 C   0  0  0  0  0  0  0  0  0  0  0  0
   40.3930   36.2310   40.7140 C   0  0  0  0  0  0  0  0  0  0  0  0
   41.0530   36.1210   37.9920 F   0  0  0  0  0  0  0  0  0  0  0  0
   40.1470   35.2460   38.4530 C   0  0  0  0  0  0  0  0  0  0  0  0
   39.7850   35.2640   39.8030 C   0  0  0  0  0  0  0  0  0  0  0  0
   38.8530   34.3210   40.1400 C   0  0  0  0  0  0  0  0  0  0  0  0
   38.2510   33.3900   39.3190 C   0  0  0  0  0  0  0  0  0  0  0  0
   38.6670   33.4420   37.9910 C   0  0  0  0  0  0  0  0  0  0  0  0
   39.6080   34.3560   37.5390 C   0  0  0  0  0  0  0  0  0  0  0  0
   44.3884   36.6812   42.9249 H   0  0  0  0  0  0  0  0  0  0  0  0
   43.2750   32.7778   41.4671 H   0  0  0  0  0  0  0  0  0  0  0  0
   46.8109   32.1167   44.4203 H   0  0  0  0  0  0  0  0  0  0  0  0
   47.6437   33.7107   44.2992 H   0  0  0  0  0  0  0  0  0  0  0  0
   47.2324   33.9268   46.5231 H   0  0  0  0  0  0  0  0  0  0  0  0
   45.5360   34.2223   46.0802 H   0  0  0  0  0  0  0  0  0  0  0  0
   45.2263   33.3463   48.3005 H   0  0  0  0  0  0  0  0  0  0  0  0
   46.6703   30.8559   45.0928 H   0  0  0  0  0  0  0  0  0  0  0  0
   46.2543   28.1231   45.6411 H   0  0  0  0  0  0  0  0  0  0  0  0
   45.2235   26.7652   47.6001 H   0  0  0  0  0  0  0  0  0  0  0  0
   44.4819   31.3195   49.5917 H   0  0  0  0  0  0  0  0  0  0  0  0
   42.9613   35.7471   40.2389 H   0  0  0  0  0  0  0  0  0  0  0  0
   41.1034   35.2786   42.5912 H   0  0  0  0  0  0  0  0  0  0  0  0
   39.6053   36.6679   41.3454 H   0  0  0  0  0  0  0  0  0  0  0  0
   40.8908   37.0022   40.1079 H   0  0  0  0  0  0  0  0  0  0  0  0
   38.5456   34.3028   41.1960 H   0  0  0  0  0  0  0  0  0  0  0  0
   37.5054   32.6676   39.6826 H   0  0  0  0  0  0  0  0  0  0  0  0
   38.2328   32.7310   37.2727 H   0  0  0  0  0  0  0  0  0  0  0  0
   39.9174   34.3732   36.4836 H   0  0  0  0  0  0  0  0  0  0  0  0
  1  6  2  0
  2  3  2  0
  2  1  1  0
  3  4  1  0
  4  5  2  0
  5  7  1  0
  6  5  1  0
  7  8  1  0
  8 10  1  0
  9 17  2  0
 10  9  1  0
 11 10  2  0
 11 12  1  0
 12 16  2  0
 13 12  1  0
 13 14  1  0
 14 15  2  0
 16 15  1  0
 16 17  1  0
 18 19  2  0
 18  2  1  0
 20 19  1  0
 21 22  1  0
 22 23  2  0
 23 24  1  0
 23 20  1  0
 25 24  2  0
 26 25  1  0
 27 26  2  0
 27 22  1  0
  1 28  1  0
  3 29  1  0
  7 30  1  0
  7 31  1  0
  8 32  1  0
  8 33  1  0
  9 34  1  0
 11 35  1  0
 13 36  1  0
 14 37  1  0
 17 38  1  0
 18 39  1  0
 19 40  1  0
 20 41  1  0
 20 42  1  0
 24 43  1  0
 25 44  1  0
 26 45  1  0
 27 46  1  0
M  ISO  8  28  14  29  14  30   8  31   8  32   8  33   8  34  14  35  14
M  ISO  8  36   9  37  14  38  14  41   8  42   8  43  14  44  14  45  14
M  ISO  1  46  14
M  END
>  <minimizedAffinity>  (1) 
-7.10837507

>  <minimizedRMSD>  (1) 
1.61833012

$$$$
