
     RDKit          3D

 40 42  0  0  0  0  0  0  0  0999 V2000
   44.6530   35.2960   43.1420 C   0  0  0  0  0  0  0  0  0  0  0  0
   43.8030   34.6130   42.2290 C   0  0  0  0  0  0  0  0  0  0  0  0
   43.9550   33.2550   42.1030 C   0  0  0  0  0  0  0  0  0  0  0  0
   44.9090   32.6450   42.8590 N   0  0  0  0  0  0  0  0  0  0  0  0
   45.7040   33.2920   43.7140 C   0  0  0  0  0  0  0  0  0  0  0  0
   45.5630   34.6150   43.8430 N   0  0  0  0  0  0  0  0  0  0  0  0
   46.7360   32.6740   44.5400 C   0  0  0  0  0  0  0  0  0  0  0  0
   46.7090   33.2660   45.9460 C   0  0  0  0  0  0  0  0  0  0  0  0
   45.8910   32.4660   46.8620 C   0  0  0  0  0  0  0  0  0  0  0  0
   45.9390   31.0770   46.9000 C   0  0  0  0  0  0  0  0  0  0  0  0
   45.0200   30.7310   47.8910 C   0  0  0  0  0  0  0  0  0  0  0  0
   44.4730   31.8720   48.3970 N   0  0  0  0  0  0  0  0  0  0  0  0
   45.0030   32.9060   47.7710 N   0  0  0  0  0  0  0  0  0  0  0  0
   42.8040   35.3490   41.4550 C   0  0  0  0  0  0  0  0  0  0  0  0
   41.5260   35.3620   41.6860 C   0  0  0  0  0  0  0  0  0  0  0  0
   40.5530   36.1320   40.8640 C   0  0  0  0  0  0  0  0  0  0  0  0
   41.4000   36.1370   38.2110 F   0  0  0  0  0  0  0  0  0  0  0  0
   40.3780   35.3360   38.5410 C   0  0  0  0  0  0  0  0  0  0  0  0
   39.9130   35.2940   39.8600 C   0  0  0  0  0  0  0  0  0  0  0  0
   38.8650   34.4360   40.0700 C   0  0  0  0  0  0  0  0  0  0  0  0
   38.2460   33.6350   39.1320 C   0  0  0  0  0  0  0  0  0  0  0  0
   38.7660   33.7290   37.8330 C   0  0  0  0  0  0  0  0  0  0  0  0
   39.8120   34.5580   37.5240 C   0  0  0  0  0  0  0  0  0  0  0  0
   44.5609   36.3846   43.2707 H   0  0  0  0  0  0  0  0  0  0  0  0
   43.3247   32.6764   41.4117 H   0  0  0  0  0  0  0  0  0  0  0  0
   46.5546   31.5906   44.5982 H   0  0  0  0  0  0  0  0  0  0  0  0
   47.7204   32.8658   44.0882 H   0  0  0  0  0  0  0  0  0  0  0  0
   47.7377   33.3087   46.3334 H   0  0  0  0  0  0  0  0  0  0  0  0
   46.2658   34.2708   45.8835 H   0  0  0  0  0  0  0  0  0  0  0  0
   46.5593   30.4050   46.2888 H   0  0  0  0  0  0  0  0  0  0  0  0
   44.7772   29.7069   48.2109 H   0  0  0  0  0  0  0  0  0  0  0  0
   43.7645   31.9195   49.1431 H   0  0  0  0  0  0  0  0  0  0  0  0
   43.1665   35.9432   40.6032 H   0  0  0  0  0  0  0  0  0  0  0  0
   41.1429   34.7736   42.5328 H   0  0  0  0  0  0  0  0  0  0  0  0
   39.7795   36.5494   41.5254 H   0  0  0  0  0  0  0  0  0  0  0  0
   41.1010   36.9315   40.3440 H   0  0  0  0  0  0  0  0  0  0  0  0
   38.4752   34.3798   41.0971 H   0  0  0  0  0  0  0  0  0  0  0  0
   37.4060   32.9713   39.3848 H   0  0  0  0  0  0  0  0  0  0  0  0
   38.3192   33.1168   37.0358 H   0  0  0  0  0  0  0  0  0  0  0  0
   40.1999   34.6113   36.4960 H   0  0  0  0  0  0  0  0  0  0  0  0
  1  6  2  0
  2  1  1  0
  3  2  2  0
  3  4  1  0
  4  5  2  0
  5  6  1  0
  5  7  1  0
  7  8  1  0
  8  9  1  0
  9 10  1  0
  9 13  2  0
 10 11  2  0
 11 12  1  0
 13 12  1  0
 14 15  2  0
 14  2  1  0
 16 15  1  0
 17 18  1  0
 18 19  2  0
 19 20  1  0
 19 16  1  0
 21 20  2  0
 22 21  1  0
 23 22  2  0
 23 18  1  0
  1 24  1  0
  3 25  1  0
  7 26  1  0
  7 27  1  0
  8 28  1  0
  8 29  1  0
 10 30  1  0
 11 31  1  0
 12 32  1  0
 14 33  1  0
 15 34  1  0
 16 35  1  0
 16 36  1  0
 20 37  1  0
 21 38  1  0
 22 39  1  0
 23 40  1  0
M  ISO  8  24  14  25  14  26   8  27   8  28   8  29   8  30  14  31  14
M  ISO  7  32   9  35   8  36   8  37  14  38  14  39  14  40  14
M  END
>  <minimizedAffinity>  (1) 
-6.63284063

>  <minimizedRMSD>  (1) 
0.926209033

$$$$
