
     RDKit          3D

 35 36  0  0  0  0  0  0  0  0999 V2000
   44.6280   35.7610   42.9130 C   0  0  0  0  0  0  0  0  0  0  0  0
   43.7850   34.9450   42.1270 C   0  0  0  0  0  0  0  0  0  0  0  0
   43.9930   33.5840   42.1490 C   0  0  0  0  0  0  0  0  0  0  0  0
   45.0010   33.1110   42.9290 N   0  0  0  0  0  0  0  0  0  0  0  0
   45.7920   33.8840   43.6670 C   0  0  0  0  0  0  0  0  0  0  0  0
   45.5920   35.2020   43.6470 N   0  0  0  0  0  0  0  0  0  0  0  0
   46.8790   33.3950   44.5100 C   0  0  0  0  0  0  0  0  0  0  0  0
   46.3820   33.1800   45.9390 C   0  0  0  0  0  0  0  0  0  0  0  0
   45.4340   32.1140   46.0200 N   0  0  0  0  0  0  0  0  0  0  0  0
   42.7220   35.5440   41.3150 C   0  0  0  0  0  0  0  0  0  0  0  0
   41.4560   35.5690   41.6210 C   0  0  0  0  0  0  0  0  0  0  0  0
   40.4090   36.1920   40.7600 C   0  0  0  0  0  0  0  0  0  0  0  0
   41.1520   36.0400   38.0760 F   0  0  0  0  0  0  0  0  0  0  0  0
   40.2150   35.1830   38.5100 C   0  0  0  0  0  0  0  0  0  0  0  0
   39.8150   35.2290   39.8510 C   0  0  0  0  0  0  0  0  0  0  0  0
   38.8580   34.3090   40.1690 C   0  0  0  0  0  0  0  0  0  0  0  0
   38.2680   33.3770   39.3370 C   0  0  0  0  0  0  0  0  0  0  0  0
   38.7230   33.4030   38.0230 C   0  0  0  0  0  0  0  0  0  0  0  0
   39.6850   34.2840   37.5860 C   0  0  0  0  0  0  0  0  0  0  0  0
   44.4906   36.8524   42.9201 H   0  0  0  0  0  0  0  0  0  0  0  0
   43.3651   32.9029   41.5558 H   0  0  0  0  0  0  0  0  0  0  0  0
   47.2506   32.4413   44.1071 H   0  0  0  0  0  0  0  0  0  0  0  0
   47.6889   34.1393   44.5195 H   0  0  0  0  0  0  0  0  0  0  0  0
   47.2418   32.9406   46.5820 H   0  0  0  0  0  0  0  0  0  0  0  0
   45.8843   34.1038   46.2688 H   0  0  0  0  0  0  0  0  0  0  0  0
   45.2428   31.8990   47.0090 H   0  0  0  0  0  0  0  0  0  0  0  0
   44.5595   32.3962   45.5547 H   0  0  0  0  0  0  0  0  0  0  0  0
   43.0188   36.0129   40.3652 H   0  0  0  0  0  0  0  0  0  0  0  0
   41.1413   35.1047   42.5673 H   0  0  0  0  0  0  0  0  0  0  0  0
   39.6198   36.6077   41.4037 H   0  0  0  0  0  0  0  0  0  0  0  0
   40.8855   36.9805   40.1590 H   0  0  0  0  0  0  0  0  0  0  0  0
   38.5150   34.3097   41.2142 H   0  0  0  0  0  0  0  0  0  0  0  0
   37.5000   32.6710   39.6859 H   0  0  0  0  0  0  0  0  0  0  0  0
   38.2958   32.6893   37.3031 H   0  0  0  0  0  0  0  0  0  0  0  0
   40.0253   34.2791   36.5400 H   0  0  0  0  0  0  0  0  0  0  0  0
  1  6  2  0
  2  3  2  0
  2  1  1  0
  3  4  1  0
  4  5  2  0
  5  7  1  0
  6  5  1  0
  7  8  1  0
  8  9  1  0
 10 11  2  0
 10  2  1  0
 12 11  1  0
 13 14  1  0
 14 15  2  0
 15 16  1  0
 15 12  1  0
 17 16  2  0
 18 17  1  0
 19 18  2  0
 19 14  1  0
  1 20  1  0
  3 21  1  0
  7 22  1  0
  7 23  1  0
  8 24  1  0
  8 25  1  0
  9 26  1  0
  9 27  1  0
 10 28  1  0
 11 29  1  0
 12 30  1  0
 12 31  1  0
 16 32  1  0
 17 33  1  0
 18 34  1  0
 19 35  1  0
M  ISO  8  20  14  21  14  22   8  23   8  24   8  25   8  26   5  27   5
M  ISO  6  30   8  31   8  32  14  33  14  34  14  35  14
M  END
>  <minimizedAffinity>  (1) 
-5.90205145

>  <minimizedRMSD>  (1) 
0.105064608

$$$$
