
     RDKit          3D

 36 38  0  0  1  0  0  0  0  0999 V2000
   44.5270   35.5550   45.0540 C   0  0  0  0  0  0  0  0  0  0  0  0
   45.0720   35.4200   43.7570 C   0  0  0  0  0  0  0  0  0  0  0  0
   45.9590   34.3710   43.4920 C   0  0  0  0  0  0  0  0  0  0  0  0
   46.2410   33.5340   44.5250 N   0  0  0  0  0  0  0  0  0  0  0  0
   45.7240   33.6620   45.7560 C   0  0  0  0  0  0  0  0  0  0  0  0
   44.8610   34.6800   46.0200 N   0  0  0  0  0  0  0  0  0  0  0  0
   46.0590   32.7450   46.8080 N   0  0  0  0  0  0  0  0  0  0  0  0
   45.1640   32.6650   47.9430 C   0  0  0  0  0  0  0  0  0  0  0  0
   45.7890   32.0170   49.1440 C   0  0  0  0  0  0  0  0  0  0  0  0
   46.5760   30.8400   48.6760 C   0  0  0  0  0  0  0  0  0  0  0  0
   47.7570   31.3760   47.9080 C   0  0  0  0  0  0  0  0  0  0  0  0
   47.2680   31.9840   46.6360 C   0  0  1  0  0  0  0  0  0  0  0  0
   46.3200   30.0620   45.3360 C   0  0  0  0  0  0  0  0  0  0  0  0
   47.2530   31.0750   45.4720 C   0  0  0  0  0  0  0  0  0  0  0  0
   48.1770   31.1860   44.4420 C   0  0  0  0  0  0  0  0  0  0  0  0
   48.1780   30.3460   43.3470 C   0  0  0  0  0  0  0  0  0  0  0  0
   47.2160   29.3490   43.2720 C   0  0  0  0  0  0  0  0  0  0  0  0
   46.2620   29.1870   44.2700 C   0  0  0  0  0  0  0  0  0  0  0  0
   44.5550   29.8000   47.2390 N   0  0  0  0  0  0  0  0  0  0  0  0
   45.3520   29.9260   46.3880 C   0  0  0  0  0  0  0  0  0  0  0  0
   43.8290   36.3763   45.2739 H   0  0  0  0  0  0  0  0  0  0  0  0
   44.8015   36.1325   42.9638 H   0  0  0  0  0  0  0  0  0  0  0  0
   46.4061   34.2306   42.4968 H   0  0  0  0  0  0  0  0  0  0  0  0
   44.8548   33.6845   48.2170 H   0  0  0  0  0  0  0  0  0  0  0  0
   44.3095   32.0409   47.6423 H   0  0  0  0  0  0  0  0  0  0  0  0
   46.4533   32.7325   49.6508 H   0  0  0  0  0  0  0  0  0  0  0  0
   45.0116   31.6987   49.8541 H   0  0  0  0  0  0  0  0  0  0  0  0
   46.9220   30.2502   49.5377 H   0  0  0  0  0  0  0  0  0  0  0  0
   45.9612   30.1837   48.0425 H   0  0  0  0  0  0  0  0  0  0  0  0
   48.2726   32.1399   48.5085 H   0  0  0  0  0  0  0  0  0  0  0  0
   48.4599   30.5596   47.6858 H   0  0  0  0  0  0  0  0  0  0  0  0
   48.0425   32.7160   46.3636 H   0  0  0  0  0  0  0  0  0  0  0  0
   48.9400   31.9762   44.5010 H   0  0  0  0  0  0  0  0  0  0  0  0
   48.9265   30.4645   42.5497 H   0  0  0  0  0  0  0  0  0  0  0  0
   47.2081   28.6726   42.4046 H   0  0  0  0  0  0  0  0  0  0  0  0
   45.4969   28.3987   44.2129 H   0  0  0  0  0  0  0  0  0  0  0  0
  1  6  2  0
  2  1  1  0
  3  2  2  0
  3  4  1  0
  4  5  2  0
  5  6  1  0
  5  7  1  0
  7  8  1  0
  8  9  1  0
 10  9  1  0
 11 10  1  0
 12  7  1  0
 12 11  1  0
 13 14  2  0
 13 20  1  0
 14 12  1  0
 15 14  1  0
 16 15  2  0
 17 16  1  0
 17 18  2  0
 18 13  1  0
 20 19  3  0
  1 21  1  0
  2 22  1  0
  3 23  1  0
  8 24  1  0
  8 25  1  0
  9 26  1  0
  9 27  1  0
 10 28  1  0
 10 29  1  0
 11 30  1  0
 11 31  1  0
 12 32  1  6
 15 33  1  0
 16 34  1  0
 17 35  1  0
 18 36  1  0
M  ISO  8  21  14  22  14  23  14  24  13  25  13  26  13  27  13  28  13
M  ISO  8  29  13  30  13  31  13  32  13  33  14  34  14  35  14  36  14
M  END
>  <minimizedAffinity>  (1) 
-4.94540405

>  <minimizedRMSD>  (1) 
0.681560576

$$$$
