
     RDKit          3D

 26 27  0  0  1  0  0  0  0  0999 V2000
   44.5500   35.6570   44.8450 C   0  0  0  0  0  0  0  0  0  0  0  0
   45.2050   35.5790   43.6150 C   0  0  0  0  0  0  0  0  0  0  0  0
   46.1510   34.5780   43.4200 C   0  0  0  0  0  0  0  0  0  0  0  0
   46.3870   33.7160   44.4610 N   0  0  0  0  0  0  0  0  0  0  0  0
   45.7330   33.8210   45.6420 C   0  0  0  0  0  0  0  0  0  0  0  0
   44.8060   34.8030   45.8310 N   0  0  0  0  0  0  0  0  0  0  0  0
   46.0240   32.8870   46.6990 N   0  0  0  0  0  0  0  0  0  0  0  0
   45.0930   32.8480   47.7970 C   0  0  0  0  0  0  0  0  0  0  0  0
   45.5810   32.1570   49.0110 C   0  0  0  0  0  0  0  0  0  0  0  0
   46.5100   31.0600   48.6650 C   0  0  0  0  0  0  0  0  0  0  0  0
   47.7220   31.6850   47.9810 C   0  0  0  0  0  0  0  0  0  0  0  0
   47.2120   32.0640   46.5910 C   0  0  1  0  0  0  0  0  0  0  0  0
   46.9340   30.5430   45.6470 S   0  0  0  0  0  0  0  0  0  0  0  0
   43.8011   36.4471   45.0029 H   0  0  0  0  0  0  0  0  0  0  0  0
   44.9770   36.2969   42.8134 H   0  0  0  0  0  0  0  0  0  0  0  0
   46.6901   34.4811   42.4661 H   0  0  0  0  0  0  0  0  0  0  0  0
   44.8461   33.8843   48.0711 H   0  0  0  0  0  0  0  0  0  0  0  0
   44.2269   32.2695   47.4432 H   0  0  0  0  0  0  0  0  0  0  0  0
   46.1049   32.8825   49.6506 H   0  0  0  0  0  0  0  0  0  0  0  0
   44.7165   31.7279   49.5387 H   0  0  0  0  0  0  0  0  0  0  0  0
   46.8243   30.5320   49.5774 H   0  0  0  0  0  0  0  0  0  0  0  0
   46.0211   30.3333   47.9995 H   0  0  0  0  0  0  0  0  0  0  0  0
   48.0626   32.5763   48.5283 H   0  0  0  0  0  0  0  0  0  0  0  0
   48.5836   31.0022   47.9427 H   0  0  0  0  0  0  0  0  0  0  0  0
   47.9563   32.6688   46.0523 H   0  0  0  0  0  0  0  0  0  0  0  0
   46.7429   29.4975   46.5115 H   0  0  0  0  0  0  0  0  0  0  0  0
  1  6  2  0
  2  1  1  0
  3  2  2  0
  3  4  1  0
  4  5  2  0
  5  6  1  0
  5  7  1  0
  7  8  1  0
  8  9  1  0
 10  9  1  0
 11 10  1  0
 12  7  1  0
 12 11  1  0
 13 12  1  0
  1 14  1  0
  2 15  1  0
  3 16  1  0
  8 17  1  0
  8 18  1  0
  9 19  1  0
  9 20  1  0
 10 21  1  0
 10 22  1  0
 11 23  1  0
 11 24  1  0
 12 25  1  6
 13 26  1  0
M  ISO  8  14  14  15  14  16  14  17  13  18  13  19  13  20  13  21  13
M  ISO  5  22  13  23  13  24  13  25  13  26  11
M  END
>  <minimizedAffinity>  (1) 
-4.80284214

>  <minimizedRMSD>  (1) 
0.0438102409

$$$$
