
     RDKit          3D

 35 37  0  0  1  0  0  0  0  0999 V2000
   43.5700   35.6480   42.7340 C   0  0  0  0  0  0  0  0  0  0  0  0
   43.4330   35.6230   41.3270 C   0  0  0  0  0  0  0  0  0  0  0  0
   44.1770   34.6890   40.5770 C   0  0  0  0  0  0  0  0  0  0  0  0
   44.9960   33.8560   41.2650 N   0  0  0  0  0  0  0  0  0  0  0  0
   45.1130   33.8970   42.6110 C   0  0  0  0  0  0  0  0  0  0  0  0
   44.3990   34.7950   43.3510 N   0  0  0  0  0  0  0  0  0  0  0  0
   46.0130   32.9790   43.2580 N   0  0  0  0  0  0  0  0  0  0  0  0
   45.8570   32.8220   44.6920 C   0  0  0  0  0  0  0  0  0  0  0  0
   47.0060   32.1940   45.3860 C   0  0  0  0  0  0  0  0  0  0  0  0
   47.6260   31.1520   44.5110 C   0  0  0  0  0  0  0  0  0  0  0  0
   48.1730   31.8720   43.3020 C   0  0  0  0  0  0  0  0  0  0  0  0
   46.9940   32.2850   42.4770 C   0  0  2  0  0  0  0  0  0  0  0  0
   46.3920   30.8300   39.8280 Cl  0  0  0  0  0  0  0  0  0  0  0  0
   47.1680   32.3920   39.9680 C   0  0  0  0  0  0  0  0  0  0  0  0
   47.3870   32.9670   41.2260 C   0  0  0  0  0  0  0  0  0  0  0  0
   48.0010   34.2060   41.2210 C   0  0  0  0  0  0  0  0  0  0  0  0
   48.4040   34.9030   40.1230 C   0  0  0  0  0  0  0  0  0  0  0  0
   48.1740   34.3060   38.8810 C   0  0  0  0  0  0  0  0  0  0  0  0
   47.5670   33.0750   38.8160 C   0  0  0  0  0  0  0  0  0  0  0  0
   42.9920   36.3727   43.3263 H   0  0  0  0  0  0  0  0  0  0  0  0
   42.7529   36.3251   40.8225 H   0  0  0  0  0  0  0  0  0  0  0  0
   44.0964   34.6385   39.4811 H   0  0  0  0  0  0  0  0  0  0  0  0
   45.6993   33.8193   45.1285 H   0  0  0  0  0  0  0  0  0  0  0  0
   45.0049   32.1410   44.8339 H   0  0  0  0  0  0  0  0  0  0  0  0
   47.7549   32.9647   45.6210 H   0  0  0  0  0  0  0  0  0  0  0  0
   46.6522   31.7215   46.3142 H   0  0  0  0  0  0  0  0  0  0  0  0
   48.4386   30.6405   45.0477 H   0  0  0  0  0  0  0  0  0  0  0  0
   46.8883   30.3903   44.2184 H   0  0  0  0  0  0  0  0  0  0  0  0
   48.7455   32.7576   43.6151 H   0  0  0  0  0  0  0  0  0  0  0  0
   48.8498   31.2225   42.7275 H   0  0  0  0  0  0  0  0  0  0  0  0
   46.4895   31.3691   42.1356 H   0  0  0  0  0  0  0  0  0  0  0  0
   48.1815   34.6743   42.1998 H   0  0  0  0  0  0  0  0  0  0  0  0
   48.8868   35.8876   40.2095 H   0  0  0  0  0  0  0  0  0  0  0  0
   48.4781   34.8202   37.9574 H   0  0  0  0  0  0  0  0  0  0  0  0
   47.3907   32.6155   37.8322 H   0  0  0  0  0  0  0  0  0  0  0  0
  1  6  2  0
  2  1  1  0
  3  4  1  0
  3  2  2  0
  4  5  2  0
  5  7  1  0
  5  6  1  0
  7  8  1  0
  8  9  1  0
 10  9  1  0
 11 10  1  0
 12  7  1  0
 12 11  1  0
 13 14  1  0
 14 15  2  0
 15 12  1  0
 16 15  1  0
 17 16  2  0
 18 17  1  0
 19 18  2  0
 19 14  1  0
  1 20  1  0
  2 21  1  0
  3 22  1  0
  8 23  1  0
  8 24  1  0
  9 25  1  0
  9 26  1  0
 10 27  1  0
 10 28  1  0
 11 29  1  0
 11 30  1  0
 12 31  1  6
 16 32  1  0
 17 33  1  0
 18 34  1  0
 19 35  1  0
M  ISO  8  20  14  21  14  22  14  23  13  24  13  25  13  26  13  27  13
M  ISO  8  28  13  29  13  30  13  31  13  32  14  33  14  34  14  35  14
M  END
>  <minimizedAffinity>  (1) 
-4.16338634

>  <minimizedRMSD>  (1) 
4.31563568

$$$$
