
     RDKit          3D

 42 45  0  0  1  0  0  0  0  0999 V2000
   44.6530   35.3250   45.4980 C   0  0  0  0  0  0  0  0  0  0  0  0
   44.4510   35.9280   44.2400 C   0  0  0  0  0  0  0  0  0  0  0  0
   44.9790   35.3000   43.1000 C   0  0  0  0  0  0  0  0  0  0  0  0
   45.6560   34.1420   43.2800 N   0  0  0  0  0  0  0  0  0  0  0  0
   45.8350   33.5840   44.5020 C   0  0  0  0  0  0  0  0  0  0  0  0
   45.3280   34.1810   45.6190 N   0  0  0  0  0  0  0  0  0  0  0  0
   46.5650   32.3600   44.5860 N   0  0  0  0  0  0  0  0  0  0  0  0
   46.4730   31.6450   45.8510 C   0  0  0  0  0  0  0  0  0  0  0  0
   47.5090   30.6130   46.0620 C   0  0  0  0  0  0  0  0  0  0  0  0
   47.8580   29.9460   44.7750 C   0  0  0  0  0  0  0  0  0  0  0  0
   48.4490   31.0080   43.8890 C   0  0  0  0  0  0  0  0  0  0  0  0
   47.3360   31.8960   43.4590 C   0  0  2  0  0  0  0  0  0  0  0  0
   46.7950   31.9880   40.6390 F   0  0  0  0  0  0  0  0  0  0  0  0
   47.5240   33.0100   41.1720 C   0  0  0  0  0  0  0  0  0  0  0  0
   47.7920   32.9740   42.5460 C   0  0  0  0  0  0  0  0  0  0  0  0
   48.5360   34.0400   43.0310 C   0  0  0  0  0  0  0  0  0  0  0  0
   48.9910   35.0690   42.2360 C   0  0  0  0  0  0  0  0  0  0  0  0
   48.7120   35.0750   40.8910 C   0  0  0  0  0  0  0  0  0  0  0  0
   47.9780   34.0400   40.3700 C   0  0  0  0  0  0  0  0  0  0  0  0
   47.6480   33.9910   38.9480 C   0  0  0  0  0  0  0  0  0  0  0  0
   46.5750   33.2920   38.4080 C   0  0  0  0  0  0  0  0  0  0  0  0
   46.6170   33.5030   37.0310 C   0  0  0  0  0  0  0  0  0  0  0  0
   47.6760   34.2950   36.7820 N   0  0  0  0  0  0  0  0  0  0  0  0
   48.3010   34.5930   37.9110 N   0  0  0  0  0  0  0  0  0  0  0  0
   44.2456   35.8079   46.3985 H   0  0  0  0  0  0  0  0  0  0  0  0
   43.8914   36.8710   44.1529 H   0  0  0  0  0  0  0  0  0  0  0  0
   44.8471   35.7335   42.0976 H   0  0  0  0  0  0  0  0  0  0  0  0
   46.5531   32.3803   46.6652 H   0  0  0  0  0  0  0  0  0  0  0  0
   45.5096   31.1144   45.8347 H   0  0  0  0  0  0  0  0  0  0  0  0
   48.4101   31.0859   46.4796 H   0  0  0  0  0  0  0  0  0  0  0  0
   47.1179   29.8562   46.7579 H   0  0  0  0  0  0  0  0  0  0  0  0
   48.5916   29.1450   44.9490 H   0  0  0  0  0  0  0  0  0  0  0  0
   46.9714   29.4894   44.3109 H   0  0  0  0  0  0  0  0  0  0  0  0
   49.1995   31.5881   44.4461 H   0  0  0  0  0  0  0  0  0  0  0  0
   48.9451   30.5560   43.0175 H   0  0  0  0  0  0  0  0  0  0  0  0
   46.6423   31.2955   42.8523 H   0  0  0  0  0  0  0  0  0  0  0  0
   48.7746   34.0648   44.1045 H   0  0  0  0  0  0  0  0  0  0  0  0
   49.5784   35.8868   42.6788 H   0  0  0  0  0  0  0  0  0  0  0  0
   49.0692   35.8915   40.2462 H   0  0  0  0  0  0  0  0  0  0  0  0
   45.8374   32.6903   38.9592 H   0  0  0  0  0  0  0  0  0  0  0  0
   45.9156   33.0978   36.2868 H   0  0  0  0  0  0  0  0  0  0  0  0
   47.9598   34.6224   35.8476 H   0  0  0  0  0  0  0  0  0  0  0  0
  1  6  2  0
  2  1  1  0
  3  4  1  0
  3  2  2  0
  4  5  2  0
  5  7  1  0
  5  6  1  0
  7  8  1  0
  8  9  1  0
 10  9  1  0
 11 10  1  0
 12 11  1  0
 12  7  1  0
 13 14  1  0
 14 15  2  0
 15 16  1  0
 15 12  1  0
 17 16  2  0
 18 17  1  0
 19 18  2  0
 19 14  1  0
 20 19  1  0
 21 20  1  0
 22 21  2  0
 23 22  1  0
 23 24  1  0
 24 20  2  0
  1 25  1  0
  2 26  1  0
  3 27  1  0
  8 28  1  0
  8 29  1  0
  9 30  1  0
  9 31  1  0
 10 32  1  0
 10 33  1  0
 11 34  1  0
 11 35  1  0
 12 36  1  6
 16 37  1  0
 17 38  1  0
 18 39  1  0
 21 40  1  0
 22 41  1  0
 23 42  1  0
M  ISO  8  25  14  26  14  27  14  28  13  29  13  30  13  31  13  32  13
M  ISO  8  33  13  34  13  35  13  36  13  37  14  38  14  39  14  40  14
M  ISO  2  41  14  42   9
M  END
>  <minimizedAffinity>  (1) 
-6.62750292

>  <minimizedRMSD>  (1) 
0.829901457

$$$$
