
     RDKit          3D

 47 50  0  0  0  0  0  0  0  0999 V2000
   44.6853   35.3163   45.4670 C   0  0  0  0  0  0  0  0  0  0  0  0
   44.5713   36.1178   44.3171 C   0  0  0  0  0  0  0  0  0  0  0  0
   45.1546   35.6558   43.1278 C   0  0  0  0  0  0  0  0  0  0  0  0
   45.7950   34.4640   43.1523 N   0  0  0  0  0  0  0  0  0  0  0  0
   45.8882   33.7133   44.2777 C   0  0  0  0  0  0  0  0  0  0  0  0
   45.3319   34.1371   45.4449 N   0  0  0  0  0  0  0  0  0  0  0  0
   46.5866   32.4681   44.1998 N   0  0  0  0  0  0  0  0  0  0  0  0
   46.4124   31.5696   45.3387 C   0  0  0  0  0  0  0  0  0  0  0  0
   47.3980   30.4848   45.4416 C   0  0  0  0  0  0  0  0  0  0  0  0
   47.8247   30.0197   44.0833 C   0  0  0  0  0  0  0  0  0  0  0  0
   48.4721   31.1869   43.4084 C   0  0  0  0  0  0  0  0  0  0  0  0
   47.4007   32.1559   43.0528 C   0  0  2  0  0  0  0  0  0  0  0  0
   46.6756   32.9080   40.3906 F   0  0  0  0  0  0  0  0  0  0  0  0
   47.5804   33.7141   41.0391 C   0  0  0  0  0  0  0  0  0  0  0  0
   47.9253   33.3417   42.3411 C   0  0  0  0  0  0  0  0  0  0  0  0
   48.8469   34.1958   42.9630 C   0  0  0  0  0  0  0  0  0  0  0  0
   49.3796   35.3068   42.3688 C   0  0  0  0  0  0  0  0  0  0  0  0
   49.0087   35.6296   41.0883 C   0  0  0  0  0  0  0  0  0  0  0  0
   48.1177   34.8416   40.4286 C   0  0  0  0  0  0  0  0  0  0  0  0
   44.2637   35.6070   46.4109 H   0  0  0  0  0  0  0  0  0  0  0  0
   44.0534   37.0462   44.3661 H   0  0  0  0  0  0  0  0  0  0  0  0
   45.0359   36.3025   42.2969 H   0  0  0  0  0  0  0  0  0  0  0  0
   46.4945   32.2193   46.2525 H   0  0  0  0  0  0  0  0  0  0  0  0
   45.3763   31.1621   45.3634 H   0  0  0  0  0  0  0  0  0  0  0  0
   46.9785   29.6359   45.9990 H   0  0  0  0  0  0  0  0  0  0  0  0
   48.3054   30.8772   45.9758 H   0  0  0  0  0  0  0  0  0  0  0  0
   48.5876   29.2149   44.1352 H   0  0  0  0  0  0  0  0  0  0  0  0
   46.9295   29.7450   43.5025 H   0  0  0  0  0  0  0  0  0  0  0  0
   49.3018   31.6267   43.9773 H   0  0  0  0  0  0  0  0  0  0  0  0
   48.9261   30.8211   42.4507 H   0  0  0  0  0  0  0  0  0  0  0  0
   46.7062   31.6579   42.3277 H   0  0  0  0  0  0  0  0  0  0  0  0
   49.1242   33.9188   43.9756 H   0  0  0  0  0  0  0  0  0  0  0  0
   50.0882   35.9314   42.8971 H   0  0  0  0  0  0  0  0  0  0  0  0
   49.4233   36.4887   40.6315 H   0  0  0  0  0  0  0  0  0  0  0  0
   48.6968   37.2648   38.8157 O   0  0  0  0  0  0  0  0  0  0  0  0
   48.3811   36.0659   38.2410 C   0  0  2  0  0  0  0  0  0  0  0  0
   47.6472   35.0793   39.0496 C   0  0  1  0  0  0  0  0  0  0  0  0
   47.8897   33.8052   38.2668 C   0  0  1  0  0  0  0  0  0  0  0  0
   47.7550   32.9197   38.9190 H   0  0  0  0  0  0  0  0  0  0  0  0
   49.2053   33.9312   37.8684 O   0  0  0  0  0  0  0  0  0  0  0  0
   49.4991   35.2695   37.6727 C   0  0  1  0  0  0  0  0  0  0  0  0
   49.5954   35.3865   36.5531 H   0  0  0  0  0  0  0  0  0  0  0  0
   49.5665   37.6029   38.4437 H   0  0  0  0  0  0  0  0  0  0  0  0
   47.7031   36.3137   37.3694 H   0  0  0  0  0  0  0  0  0  0  0  0
   46.5514   35.2979   39.0366 H   0  0  0  0  0  0  0  0  0  0  0  0
   47.2222   33.7717   37.3761 H   0  0  0  0  0  0  0  0  0  0  0  0
   50.5138   35.5465   38.0436 H   0  0  0  0  0  0  0  0  0  0  0  0
  2  1  2  0
  3  4  2  0
  3  2  1  0
  4  5  1  0
  5  6  2  0
  6  1  1  0
  7  5  1  0
  7  8  1  0
  8  9  1  0
 10  9  1  0
 11 10  1  0
 12 11  1  0
 12  7  1  0
 13 14  1  0
 14 15  2  0
 15 16  1  0
 15 12  1  0
 17 16  2  0
 18 17  1  0
 19 14  1  0
 19 18  2  0
  1 20  1  0
  2 21  1  0
  3 22  1  0
  8 23  1  0
  8 24  1  0
  9 25  1  0
  9 26  1  0
 10 27  1  0
 10 28  1  0
 11 29  1  0
 11 30  1  0
 12 31  1  6
 16 32  1  0
 17 33  1  0
 18 34  1  0
 35 36  1  0
 36 37  1  0
 37 38  1  0
 38 39  1  1
 38 40  1  0
 40 41  1  0
 41 42  1  6
 41 36  1  0
 35 43  1  0
 36 44  1  6
 37 45  1  1
 38 46  1  0
 41 47  1  0
 19 37  1  0
M  END
>  <DihAtoms>  (1) 
13,18,36,35

>  <DihDeg>  (1) 
88.11979869527094

$$$$
