
     RDKit          3D

 45 48  0  0  1  0  0  0  0  0999 V2000
   44.5720   35.3980   45.5610 C   0  0  0  0  0  0  0  0  0  0  0  0
   44.3160   35.8700   44.2600 C   0  0  0  0  0  0  0  0  0  0  0  0
   44.7870   35.1380   43.1570 C   0  0  0  0  0  0  0  0  0  0  0  0
   45.4740   33.9950   43.4190 N   0  0  0  0  0  0  0  0  0  0  0  0
   45.7100   33.5550   44.6830 C   0  0  0  0  0  0  0  0  0  0  0  0
   45.2570   34.2580   45.7610 N   0  0  0  0  0  0  0  0  0  0  0  0
   46.4430   32.3400   44.8530 N   0  0  0  0  0  0  0  0  0  0  0  0
   46.4120   31.7590   46.1890 C   0  0  0  0  0  0  0  0  0  0  0  0
   47.4570   30.7540   46.4570 C   0  0  0  0  0  0  0  0  0  0  0  0
   47.7350   29.9510   45.2260 C   0  0  0  0  0  0  0  0  0  0  0  0
   48.2770   30.9100   44.2040 C   0  0  0  0  0  0  0  0  0  0  0  0
   47.1530   31.7650   43.7390 C   0  0  2  0  0  0  0  0  0  0  0  0
   46.7740   31.3970   40.9190 F   0  0  0  0  0  0  0  0  0  0  0  0
   47.3790   32.5570   41.3250 C   0  0  0  0  0  0  0  0  0  0  0  0
   47.5660   32.7440   42.7030 C   0  0  0  0  0  0  0  0  0  0  0  0
   48.1820   33.9310   43.0640 C   0  0  0  0  0  0  0  0  0  0  0  0
   48.5920   34.8820   42.1580 C   0  0  0  0  0  0  0  0  0  0  0  0
   48.3950   34.6710   40.8160 C   0  0  0  0  0  0  0  0  0  0  0  0
   47.7940   33.5170   40.4160 C   0  0  0  0  0  0  0  0  0  0  0  0
   44.9300   33.8320   39.8620 Cl  0  0  0  0  0  0  0  0  0  0  0  0
   46.1820   33.3370   38.7260 C   0  0  0  0  0  0  0  0  0  0  0  0
   47.5380   33.1940   39.0110 C   0  0  0  0  0  0  0  0  0  0  0  0
   48.4030   32.8020   38.0300 C   0  0  0  0  0  0  0  0  0  0  0  0
   47.9310   32.5500   36.7640 C   0  0  0  0  0  0  0  0  0  0  0  0
   46.5760   32.6880   36.4600 C   0  0  0  0  0  0  0  0  0  0  0  0
   45.6980   33.0830   37.4390 C   0  0  0  0  0  0  0  0  0  0  0  0
   44.2065   35.9698   46.4267 H   0  0  0  0  0  0  0  0  0  0  0  0
   43.7528   36.8026   44.1082 H   0  0  0  0  0  0  0  0  0  0  0  0
   44.6074   35.4756   42.1256 H   0  0  0  0  0  0  0  0  0  0  0  0
   46.5280   32.5743   46.9182 H   0  0  0  0  0  0  0  0  0  0  0  0
   45.4503   31.2315   46.2720 H   0  0  0  0  0  0  0  0  0  0  0  0
   48.3787   31.2646   46.7727 H   0  0  0  0  0  0  0  0  0  0  0  0
   47.1079   30.0791   47.2524 H   0  0  0  0  0  0  0  0  0  0  0  0
   48.4762   29.1677   45.4427 H   0  0  0  0  0  0  0  0  0  0  0  0
   46.8240   29.4541   44.8612 H   0  0  0  0  0  0  0  0  0  0  0  0
   49.0601   31.5358   44.6569 H   0  0  0  0  0  0  0  0  0  0  0  0
   48.7164   30.3609   43.3581 H   0  0  0  0  0  0  0  0  0  0  0  0
   46.4294   31.1186   43.2207 H   0  0  0  0  0  0  0  0  0  0  0  0
   48.3527   34.1239   44.1334 H   0  0  0  0  0  0  0  0  0  0  0  0
   49.0751   35.8065   42.5073 H   0  0  0  0  0  0  0  0  0  0  0  0
   48.7167   35.4203   40.0778 H   0  0  0  0  0  0  0  0  0  0  0  0
   49.4743   32.6882   38.2522 H   0  0  0  0  0  0  0  0  0  0  0  0
   48.6326   32.2345   35.9777 H   0  0  0  0  0  0  0  0  0  0  0  0
   46.2135   32.4816   35.4422 H   0  0  0  0  0  0  0  0  0  0  0  0
   44.6275   33.1982   37.2137 H   0  0  0  0  0  0  0  0  0  0  0  0
  1  6  2  0
  2  1  1  0
  3  4  1  0
  3  2  2  0
  4  5  2  0
  5  7  1  0
  5  6  1  0
  7  8  1  0
  8  9  1  0
 10  9  1  0
 11 10  1  0
 12 11  1  0
 12  7  1  0
 13 14  1  0
 14 15  2  0
 15 16  1  0
 15 12  1  0
 17 16  2  0
 18 17  1  0
 19 18  2  0
 19 14  1  0
 21 22  2  0
 21 20  1  0
 22 19  1  0
 23 22  1  0
 24 23  2  0
 25 24  1  0
 25 26  2  0
 26 21  1  0
  1 27  1  0
  2 28  1  0
  3 29  1  0
  8 30  1  0
  8 31  1  0
  9 32  1  0
  9 33  1  0
 10 34  1  0
 10 35  1  0
 11 36  1  0
 11 37  1  0
 12 38  1  6
 16 39  1  0
 17 40  1  0
 18 41  1  0
 23 42  1  0
 24 43  1  0
 25 44  1  0
 26 45  1  0
M  ISO  8  27  14  28  14  29  14  30  13  31  13  32  13  33  13  34  13
M  ISO  8  35  13  36  13  37  13  38  13  39  14  40  14  41  14  42  14
M  ISO  3  43  14  44  14  45  14
M  END
>  <minimizedAffinity>  (1) 
-5.98327398

>  <minimizedRMSD>  (1) 
1.39619243

$$$$
