
     RDKit          3D

 50 53  0  0  1  0  0  0  0  0999 V2000
   44.5980   35.4750   45.4550 C   0  0  0  0  0  0  0  0  0  0  0  0
   44.2530   35.8220   44.1400 C   0  0  0  0  0  0  0  0  0  0  0  0
   44.6250   34.9520   43.0880 C   0  0  0  0  0  0  0  0  0  0  0  0
   45.2990   33.8240   43.4230 N   0  0  0  0  0  0  0  0  0  0  0  0
   45.6160   33.5190   44.7040 C   0  0  0  0  0  0  0  0  0  0  0  0
   45.2630   34.3500   45.7240 N   0  0  0  0  0  0  0  0  0  0  0  0
   46.3290   32.3060   44.9510 N   0  0  0  0  0  0  0  0  0  0  0  0
   46.3850   31.8620   46.3430 C   0  0  0  0  0  0  0  0  0  0  0  0
   47.4210   30.8670   46.6530 C   0  0  0  0  0  0  0  0  0  0  0  0
   47.6130   29.9390   45.4980 C   0  0  0  0  0  0  0  0  0  0  0  0
   48.0850   30.7550   44.3330 C   0  0  0  0  0  0  0  0  0  0  0  0
   46.9440   31.5870   43.8640 C   0  0  2  0  0  0  0  0  0  0  0  0
   45.8260   31.2830   41.2360 F   0  0  0  0  0  0  0  0  0  0  0  0
   46.7470   32.2740   41.4210 C   0  0  0  0  0  0  0  0  0  0  0  0
   47.2890   32.4280   42.6890 C   0  0  0  0  0  0  0  0  0  0  0  0
   48.2190   33.4500   42.8210 C   0  0  0  0  0  0  0  0  0  0  0  0
   48.6030   34.2780   41.7920 C   0  0  0  0  0  0  0  0  0  0  0  0
   48.0480   34.0990   40.5440 C   0  0  0  0  0  0  0  0  0  0  0  0
   47.1230   33.0940   40.3760 C   0  0  0  0  0  0  0  0  0  0  0  0
   46.5620   32.9320   39.0780 N   0  0  0  0  0  0  0  0  0  0  0  0
   47.4910   32.5410   38.0180 C   0  0  0  0  0  0  0  0  0  0  0  0
   46.6160   32.1240   36.8380 C   0  0  0  0  0  0  0  0  0  0  0  0
   45.6000   33.2320   36.6470 C   0  0  0  0  0  0  0  0  0  0  0  0
   44.5300   33.0750   37.7050 C   0  0  0  0  0  0  0  0  0  0  0  0
   45.1350   33.1930   39.0650 C   0  0  0  0  0  0  0  0  0  0  0  0
   44.3145   36.1440   46.2809 H   0  0  0  0  0  0  0  0  0  0  0  0
   43.7041   36.7521   43.9310 H   0  0  0  0  0  0  0  0  0  0  0  0
   44.3775   35.1813   42.0410 H   0  0  0  0  0  0  0  0  0  0  0  0
   46.5658   32.7457   46.9726 H   0  0  0  0  0  0  0  0  0  0  0  0
   45.4235   31.3646   46.5381 H   0  0  0  0  0  0  0  0  0  0  0  0
   48.3687   31.3840   46.8641 H   0  0  0  0  0  0  0  0  0  0  0  0
   47.1051   30.2841   47.5308 H   0  0  0  0  0  0  0  0  0  0  0  0
   48.3646   29.1766   45.7507 H   0  0  0  0  0  0  0  0  0  0  0  0
   46.6706   29.4270   45.2538 H   0  0  0  0  0  0  0  0  0  0  0  0
   48.9173   31.4036   44.6439 H   0  0  0  0  0  0  0  0  0  0  0  0
   48.4382   30.0987   43.5240 H   0  0  0  0  0  0  0  0  0  0  0  0
   46.1697   30.9026   43.4871 H   0  0  0  0  0  0  0  0  0  0  0  0
   48.6768   33.6073   43.8088 H   0  0  0  0  0  0  0  0  0  0  0  0
   49.3438   35.0729   41.9634 H   0  0  0  0  0  0  0  0  0  0  0  0
   48.3374   34.7443   39.7014 H   0  0  0  0  0  0  0  0  0  0  0  0
   48.1337   33.3889   37.7387 H   0  0  0  0  0  0  0  0  0  0  0  0
   48.1558   31.7258   38.3398 H   0  0  0  0  0  0  0  0  0  0  0  0
   47.2288   32.0092   35.9317 H   0  0  0  0  0  0  0  0  0  0  0  0
   46.1232   31.1591   37.0280 H   0  0  0  0  0  0  0  0  0  0  0  0
   46.0906   34.2106   36.7550 H   0  0  0  0  0  0  0  0  0  0  0  0
   45.1550   33.1725   35.6428 H   0  0  0  0  0  0  0  0  0  0  0  0
   43.7709   33.8603   37.5747 H   0  0  0  0  0  0  0  0  0  0  0  0
   44.0634   32.0842   37.6022 H   0  0  0  0  0  0  0  0  0  0  0  0
   44.9624   34.2135   39.4375 H   0  0  0  0  0  0  0  0  0  0  0  0
   44.6573   32.4351   39.7032 H   0  0  0  0  0  0  0  0  0  0  0  0
  1  6  2  0
  2  1  1  0
  3  4  1  0
  3  2  2  0
  4  5  2  0
  5  7  1  0
  5  6  1  0
  7  8  1  0
  8  9  1  0
 10  9  1  0
 11 10  1  0
 12 11  1  0
 12  7  1  0
 13 14  1  0
 14 15  2  0
 15 16  1  0
 15 12  1  0
 17 16  2  0
 18 17  1  0
 19 18  2  0
 19 14  1  0
 20 19  1  0
 21 20  1  0
 22 21  1  0
 23 22  1  0
 23 24  1  0
 24 25  1  0
 25 20  1  0
  1 26  1  0
  2 27  1  0
  3 28  1  0
  8 29  1  0
  8 30  1  0
  9 31  1  0
  9 32  1  0
 10 33  1  0
 10 34  1  0
 11 35  1  0
 11 36  1  0
 12 37  1  6
 16 38  1  0
 17 39  1  0
 18 40  1  0
 21 41  1  0
 21 42  1  0
 22 43  1  0
 22 44  1  0
 23 45  1  0
 23 46  1  0
 24 47  1  0
 24 48  1  0
 25 49  1  0
 25 50  1  0
M  ISO  8  26  14  27  14  28  14  29  13  30  13  31  13  32  13  33  13
M  ISO  8  34  13  35  13  36  13  37  13  38  14  39  14  40  14  41  13
M  ISO  8  42  13  43  13  44  13  45  13  46  13  47  13  48  13  49  13
M  ISO  1  50  13
M  END
>  <minimizedAffinity>  (1) 
-5.45997477

>  <minimizedRMSD>  (1) 
1.88510776

$$$$
