
     RDKit          3D

 24 25  0  0  0  0  0  0  0  0999 V2000
   44.8940   34.9760   45.0850 C   0  0  0  0  0  0  0  0  0  0  0  0
   45.6690   34.7780   43.9130 C   0  0  0  0  0  0  0  0  0  0  0  0
   46.6480   33.7640   43.9340 C   0  0  0  0  0  0  0  0  0  0  0  0
   46.7910   33.0360   45.0750 N   0  0  0  0  0  0  0  0  0  0  0  0
   46.0370   33.2500   46.1730 C   0  0  0  0  0  0  0  0  0  0  0  0
   45.0950   34.2200   46.1680 N   0  0  0  0  0  0  0  0  0  0  0  0
   46.2660   32.4450   47.2950 N   0  0  0  0  0  0  0  0  0  0  0  0
   47.5420   32.4200   47.9400 C   0  0  0  0  0  0  0  0  0  0  0  0
   47.7550   31.2420   48.8370 C   0  0  0  0  0  0  0  0  0  0  0  0
   46.5950   30.8060   49.5510 N   0  0  0  0  0  0  0  0  0  0  0  0
   45.4170   31.6040   49.3200 C   0  0  0  0  0  0  0  0  0  0  0  0
   45.1820   31.6130   47.8210 C   0  0  0  0  0  0  0  0  0  0  0  0
   44.1212   35.7586   45.1020 H   0  0  0  0  0  0  0  0  0  0  0  0
   45.5109   35.3959   43.0168 H   0  0  0  0  0  0  0  0  0  0  0  0
   47.2779   33.5669   43.0540 H   0  0  0  0  0  0  0  0  0  0  0  0
   48.3206   32.4067   47.1631 H   0  0  0  0  0  0  0  0  0  0  0  0
   47.5902   33.3147   48.5780 H   0  0  0  0  0  0  0  0  0  0  0  0
   48.1106   30.4036   48.2200 H   0  0  0  0  0  0  0  0  0  0  0  0
   48.4807   31.5638   49.5985 H   0  0  0  0  0  0  0  0  0  0  0  0
   46.3882   29.8374   49.2683 H   0  0  0  0  0  0  0  0  0  0  0  0
   44.5524   31.1616   49.8364 H   0  0  0  0  0  0  0  0  0  0  0  0
   45.5500   32.6257   49.7053 H   0  0  0  0  0  0  0  0  0  0  0  0
   44.2019   32.0515   47.5819 H   0  0  0  0  0  0  0  0  0  0  0  0
   45.1776   30.6018   47.3881 H   0  0  0  0  0  0  0  0  0  0  0  0
  1  6  2  0
  2  3  2  0
  2  1  1  0
  3  4  1  0
  4  5  2  0
  5  7  1  0
  6  5  1  0
  7 12  1  0
  7  8  1  0
  8  9  1  0
  9 10  1  0
 11 10  1  0
 12 11  1  0
  1 13  1  0
  2 14  1  0
  3 15  1  0
  8 16  1  0
  8 17  1  0
  9 18  1  0
  9 19  1  0
 10 20  1  0
 11 21  1  0
 11 22  1  0
 12 23  1  0
 12 24  1  0
M  ISO  8  13  14  14  14  15  14  16  13  17  13  18  13  19  13  20   5
M  ISO  4  21  13  22  13  23  13  24  13
M  END
>  <minimizedAffinity>  (1) 
-4.67756033

>  <minimizedRMSD>  (1) 
1.34405959

$$$$
