
     RDKit          3D

 26 27  0  0  1  0  0  0  0  0999 V2000
   44.7790   35.1210   45.2060 C   0  0  0  0  0  0  0  0  0  0  0  0
   45.4740   34.9130   43.9960 C   0  0  0  0  0  0  0  0  0  0  0  0
   46.4110   33.8530   43.9420 C   0  0  0  0  0  0  0  0  0  0  0  0
   46.5910   33.0910   45.0590 N   0  0  0  0  0  0  0  0  0  0  0  0
   45.8970   33.3330   46.1980 C   0  0  0  0  0  0  0  0  0  0  0  0
   44.9960   34.3420   46.2730 N   0  0  0  0  0  0  0  0  0  0  0  0
   46.1370   32.5060   47.3080 N   0  0  0  0  0  0  0  0  0  0  0  0
   47.4410   32.4270   47.8940 C   0  0  0  0  0  0  0  0  0  0  0  0
   47.6650   31.2170   48.7430 C   0  0  0  0  0  0  0  0  0  0  0  0
   46.5340   30.7830   49.4880 N   0  0  0  0  0  0  0  0  0  0  0  0
   45.3880   31.6640   49.3620 C   0  0  0  0  0  0  0  0  0  0  0  0
   45.0640   31.7160   47.8770 C   0  0  2  0  0  0  0  0  0  0  0  0
   44.9210   30.4190   47.2850 N   0  0  0  0  0  0  0  0  0  0  0  0
   44.0456   35.9380   45.2740 H   0  0  0  0  0  0  0  0  0  0  0  0
   45.2934   35.5549   43.1211 H   0  0  0  0  0  0  0  0  0  0  0  0
   46.9794   33.6491   43.0226 H   0  0  0  0  0  0  0  0  0  0  0  0
   48.1831   32.4196   47.0820 H   0  0  0  0  0  0  0  0  0  0  0  0
   47.5399   33.2986   48.5578 H   0  0  0  0  0  0  0  0  0  0  0  0
   47.9761   30.3923   48.0850 H   0  0  0  0  0  0  0  0  0  0  0  0
   48.4281   31.5000   49.4830 H   0  0  0  0  0  0  0  0  0  0  0  0
   46.2638   29.8464   49.1554 H   0  0  0  0  0  0  0  0  0  0  0  0
   44.5332   31.2630   49.9264 H   0  0  0  0  0  0  0  0  0  0  0  0
   45.6020   32.6652   49.7641 H   0  0  0  0  0  0  0  0  0  0  0  0
   44.0813   32.1696   47.6807 H   0  0  0  0  0  0  0  0  0  0  0  0
   44.8428   29.7094   48.0275 H   0  0  0  0  0  0  0  0  0  0  0  0
   44.0728   30.3998   46.7010 H   0  0  0  0  0  0  0  0  0  0  0  0
  1  6  2  0
  2  1  1  0
  3  2  2  0
  3  4  1  0
  4  5  2  0
  5  6  1  0
  5  7  1  0
  7 12  1  0
  7  8  1  0
  8  9  1  0
  9 10  1  0
 11 10  1  0
 12 11  1  0
 13 12  1  0
  1 14  1  0
  2 15  1  0
  3 16  1  0
  8 17  1  0
  8 18  1  0
  9 19  1  0
  9 20  1  0
 10 21  1  0
 11 22  1  0
 11 23  1  0
 12 24  1  1
 13 25  1  0
 13 26  1  0
M  ISO  8  14  14  15  14  16  14  17  13  18  13  19  13  20  13  21   5
M  ISO  5  22  13  23  13  24  13  25   5  26   5
M  END
>  <minimizedAffinity>  (1) 
-5.13857937

>  <minimizedRMSD>  (1) 
0.180972815

$$$$
