
     RDKit          3D

 34 35  0  0  1  0  0  0  0  0999 V2000
   44.9930   34.6470   44.9320 C   0  0  0  0  0  0  0  0  0  0  0  0
   45.9050   34.6000   43.8400 C   0  0  0  0  0  0  0  0  0  0  0  0
   47.0200   33.7490   43.9500 C   0  0  0  0  0  0  0  0  0  0  0  0
   47.1580   33.0290   45.0850 N   0  0  0  0  0  0  0  0  0  0  0  0
   46.2890   33.0830   46.1110 C   0  0  0  0  0  0  0  0  0  0  0  0
   45.2250   33.8930   46.0080 N   0  0  0  0  0  0  0  0  0  0  0  0
   46.5160   32.3010   47.2450 N   0  0  0  0  0  0  0  0  0  0  0  0
   47.7300   32.4490   47.9910 C   0  0  0  0  0  0  0  0  0  0  0  0
   48.0080   31.3100   48.9210 C   0  0  0  0  0  0  0  0  0  0  0  0
   46.8770   30.6570   49.4810 N   0  0  0  0  0  0  0  0  0  0  0  0
   45.6290   31.2760   49.1490 C   0  0  0  0  0  0  0  0  0  0  0  0
   45.4970   31.3330   47.6550 C   0  0  2  0  0  0  0  0  0  0  0  0
   45.6830   30.0010   47.0100 C   0  0  0  0  0  0  0  0  0  0  0  0
   44.8590   29.0000   47.7710 C   0  0  0  0  0  0  0  0  0  0  0  0
   45.1510   27.7110   47.7780 C   0  0  0  0  0  0  0  0  0  0  0  0
   44.3630   26.6710   48.5190 C   0  0  0  0  0  0  0  0  0  0  0  0
   44.1070   35.2976   44.8892 H   0  0  0  0  0  0  0  0  0  0  0  0
   45.7431   35.2096   42.9388 H   0  0  0  0  0  0  0  0  0  0  0  0
   47.7568   33.6722   43.1369 H   0  0  0  0  0  0  0  0  0  0  0  0
   48.5662   32.5294   47.2809 H   0  0  0  0  0  0  0  0  0  0  0  0
   47.6178   33.3503   48.6116 H   0  0  0  0  0  0  0  0  0  0  0  0
   48.5863   30.5578   48.3644 H   0  0  0  0  0  0  0  0  0  0  0  0
   48.5391   31.7552   49.7752 H   0  0  0  0  0  0  0  0  0  0  0  0
   46.8595   29.6861   49.1375 H   0  0  0  0  0  0  0  0  0  0  0  0
   44.8010   30.6872   49.5707 H   0  0  0  0  0  0  0  0  0  0  0  0
   45.5953   32.2936   49.5653 H   0  0  0  0  0  0  0  0  0  0  0  0
   44.4866   31.6330   47.3404 H   0  0  0  0  0  0  0  0  0  0  0  0
   45.3476   30.0425   45.9632 H   0  0  0  0  0  0  0  0  0  0  0  0
   46.7446   29.7133   47.0241 H   0  0  0  0  0  0  0  0  0  0  0  0
   43.9856   29.3514   48.3399 H   0  0  0  0  0  0  0  0  0  0  0  0
   46.0284   27.3791   47.2035 H   0  0  0  0  0  0  0  0  0  0  0  0
   44.4797   26.8251   49.6019 H   0  0  0  0  0  0  0  0  0  0  0  0
   43.2999   26.7552   48.2492 H   0  0  0  0  0  0  0  0  0  0  0  0
   44.7317   25.6704   48.2492 H   0  0  0  0  0  0  0  0  0  0  0  0
  1  6  2  0
  2  3  2  0
  2  1  1  0
  3  4  1  0
  4  5  2  0
  5  7  1  0
  6  5  1  0
  7 12  1  0
  7  8  1  0
  8  9  1  0
  9 10  1  0
 11 10  1  0
 12 11  1  0
 13 12  1  0
 13 14  1  0
 14 15  2  0
 15 16  1  0
  1 17  1  0
  2 18  1  0
  3 19  1  0
  8 20  1  0
  8 21  1  0
  9 22  1  0
  9 23  1  0
 10 24  1  0
 11 25  1  0
 11 26  1  0
 12 27  1  1
 13 28  1  0
 13 29  1  0
 14 30  1  0
 15 31  1  0
 16 32  1  0
 16 33  1  0
 16 34  1  0
M  ISO  8  17  14  18  14  19  14  20  13  21  13  22  13  23  13  24   5
M  ISO  8  25  13  26  13  27  13  28   8  29   8  32   8  33   8  34   8
M  END
>  <minimizedAffinity>  (1) 
-4.94703388

>  <minimizedRMSD>  (1) 
0.71691674

$$$$
