
     RDKit          3D

 49 51  0  0  1  0  0  0  0  0999 V2000
   44.9990   34.6950   44.9560 C   0  0  0  0  0  0  0  0  0  0  0  0
   45.8890   34.6110   43.8470 C   0  0  0  0  0  0  0  0  0  0  0  0
   46.9870   33.7210   43.9470 C   0  0  0  0  0  0  0  0  0  0  0  0
   47.1090   33.0160   45.0850 N   0  0  0  0  0  0  0  0  0  0  0  0
   46.2610   33.1050   46.1250 C   0  0  0  0  0  0  0  0  0  0  0  0
   45.2260   33.9450   46.0330 N   0  0  0  0  0  0  0  0  0  0  0  0
   46.4840   32.3260   47.2670 N   0  0  0  0  0  0  0  0  0  0  0  0
   47.7060   32.4440   47.9910 C   0  0  0  0  0  0  0  0  0  0  0  0
   47.9720   31.2890   48.9180 C   0  0  0  0  0  0  0  0  0  0  0  0
   46.8290   30.6790   49.4990 N   0  0  0  0  0  0  0  0  0  0  0  0
   45.5940   31.3400   49.1870 C   0  0  0  0  0  0  0  0  0  0  0  0
   45.4430   31.3920   47.7030 C   0  0  2  0  0  0  0  0  0  0  0  0
   45.5790   30.0510   47.0660 C   0  0  0  0  0  0  0  0  0  0  0  0
   44.8550   29.0530   47.9160 C   0  0  0  0  0  0  0  0  0  0  0  0
   45.1540   27.7750   47.9280 C   0  0  0  0  0  0  0  0  0  0  0  0
   44.4180   26.7630   48.7760 C   0  0  0  0  0  0  0  0  0  0  0  0
   44.0300   25.7260   47.8410 N   0  0  0  0  0  0  0  0  0  0  0  0
   44.9230   25.4470   46.8070 C   0  0  0  0  0  0  0  0  0  0  0  0
   44.3690   25.2980   45.4330 C   0  0  0  0  0  0  0  0  0  0  0  0
   42.9230   24.9200   45.3560 C   0  0  0  0  0  0  0  0  0  0  0  0
   42.1880   25.9480   46.2270 C   0  0  0  0  0  0  0  0  0  0  0  0
   42.6300   25.6580   47.6180 C   0  0  0  0  0  0  0  0  0  0  0  0
   44.1330   35.3724   44.9233 H   0  0  0  0  0  0  0  0  0  0  0  0
   45.7292   35.2170   42.9430 H   0  0  0  0  0  0  0  0  0  0  0  0
   47.7108   33.6113   43.1260 H   0  0  0  0  0  0  0  0  0  0  0  0
   48.5332   32.5076   47.2687 H   0  0  0  0  0  0  0  0  0  0  0  0
   47.6248   33.3460   48.6153 H   0  0  0  0  0  0  0  0  0  0  0  0
   48.5115   30.5180   48.3483 H   0  0  0  0  0  0  0  0  0  0  0  0
   48.5422   31.7101   49.7591 H   0  0  0  0  0  0  0  0  0  0  0  0
   46.7718   29.7083   49.1594 H   0  0  0  0  0  0  0  0  0  0  0  0
   44.7538   30.7817   49.6256 H   0  0  0  0  0  0  0  0  0  0  0  0
   45.5988   32.3595   49.6000 H   0  0  0  0  0  0  0  0  0  0  0  0
   44.4376   31.7225   47.4031 H   0  0  0  0  0  0  0  0  0  0  0  0
   45.1383   30.0711   46.0583 H   0  0  0  0  0  0  0  0  0  0  0  0
   46.6409   29.7773   46.9802 H   0  0  0  0  0  0  0  0  0  0  0  0
   44.0358   29.4069   48.5592 H   0  0  0  0  0  0  0  0  0  0  0  0
   45.9791   27.4238   47.2909 H   0  0  0  0  0  0  0  0  0  0  0  0
   45.0771   26.3564   49.5572 H   0  0  0  0  0  0  0  0  0  0  0  0
   43.5552   27.2013   49.2989 H   0  0  0  0  0  0  0  0  0  0  0  0
   45.6573   26.2655   46.7778 H   0  0  0  0  0  0  0  0  0  0  0  0
   45.3287   24.4542   47.0515 H   0  0  0  0  0  0  0  0  0  0  0  0
   44.4961   26.2579   44.9110 H   0  0  0  0  0  0  0  0  0  0  0  0
   44.9224   24.4654   44.9742 H   0  0  0  0  0  0  0  0  0  0  0  0
   42.5665   24.9707   44.3166 H   0  0  0  0  0  0  0  0  0  0  0  0
   42.7495   23.8905   45.7025 H   0  0  0  0  0  0  0  0  0  0  0  0
   42.4684   26.9715   45.9374 H   0  0  0  0  0  0  0  0  0  0  0  0
   41.0958   25.8783   46.1168 H   0  0  0  0  0  0  0  0  0  0  0  0
   42.1447   26.3846   48.2862 H   0  0  0  0  0  0  0  0  0  0  0  0
   42.3432   24.6144   47.8146 H   0  0  0  0  0  0  0  0  0  0  0  0
  1  6  2  0
  2  3  2  0
  2  1  1  0
  3  4  1  0
  4  5  2  0
  5  7  1  0
  6  5  1  0
  7 12  1  0
  7  8  1  0
  8  9  1  0
  9 10  1  0
 11 10  1  0
 12 11  1  0
 13 12  1  0
 13 14  1  0
 14 15  2  0
 15 16  1  0
 17 16  1  0
 18 17  1  0
 19 18  1  0
 20 19  1  0
 20 21  1  0
 21 22  1  0
 22 17  1  0
  1 23  1  0
  2 24  1  0
  3 25  1  0
  8 26  1  0
  8 27  1  0
  9 28  1  0
  9 29  1  0
 10 30  1  0
 11 31  1  0
 11 32  1  0
 12 33  1  1
 13 34  1  0
 13 35  1  0
 14 36  1  0
 15 37  1  0
 16 38  1  0
 16 39  1  0
 18 40  1  0
 18 41  1  0
 19 42  1  0
 19 43  1  0
 20 44  1  0
 20 45  1  0
 21 46  1  0
 21 47  1  0
 22 48  1  0
 22 49  1  0
M  ISO  8  23  14  24  14  25  14  26  13  27  13  28  13  29  13  30   5
M  ISO  8  31  13  32  13  33  13  34   8  35   8  38   8  39   8  40  13
M  ISO  8  41  13  42  13  43  13  44  13  45  13  46  13  47  13  48  13
M  ISO  1  49  13
M  END
>  <minimizedAffinity>  (1) 
-5.4035182

>  <minimizedRMSD>  (1) 
0.741210997

$$$$
