
     RDKit          3D

 45 47  0  0  1  0  0  0  0  0999 V2000
   44.9960   34.6980   44.9880 C   0  0  0  0  0  0  0  0  0  0  0  0
   45.8770   34.5860   43.8770 C   0  0  0  0  0  0  0  0  0  0  0  0
   46.9430   33.6870   43.9640 C   0  0  0  0  0  0  0  0  0  0  0  0
   47.0770   32.9690   45.1120 N   0  0  0  0  0  0  0  0  0  0  0  0
   46.2520   33.0770   46.1460 C   0  0  0  0  0  0  0  0  0  0  0  0
   45.2270   33.9450   46.0540 N   0  0  0  0  0  0  0  0  0  0  0  0
   46.4580   32.3090   47.2780 N   0  0  0  0  0  0  0  0  0  0  0  0
   47.7110   32.3920   47.9960 C   0  0  0  0  0  0  0  0  0  0  0  0
   47.9390   31.2600   48.9460 C   0  0  0  0  0  0  0  0  0  0  0  0
   46.7990   30.6660   49.5390 N   0  0  0  0  0  0  0  0  0  0  0  0
   45.5800   31.3580   49.2370 C   0  0  0  0  0  0  0  0  0  0  0  0
   45.3930   31.4010   47.7540 C   0  0  2  0  0  0  0  0  0  0  0  0
   45.5180   30.0410   47.1140 C   0  0  0  0  0  0  0  0  0  0  0  0
   44.9070   29.0630   48.0750 C   0  0  0  0  0  0  0  0  0  0  0  0
   44.9990   27.7540   47.8680 C   0  0  0  0  0  0  0  0  0  0  0  0
   44.4380   26.6930   48.7490 C   0  0  0  0  0  0  0  0  0  0  0  0
   43.3520   25.9520   47.9990 C   0  0  2  0  0  0  0  0  0  0  0  0
   43.7830   24.9220   46.9930 C   0  0  0  0  0  0  0  0  0  0  0  0
   43.1500   26.2140   46.5500 C   0  0  1  0  0  0  0  0  0  0  0  0
   41.2000   27.3480   45.5270 C   0  0  0  0  0  0  0  0  0  0  0  0
   41.8090   28.4310   45.3610 O   0  0  0  0  0  0  0  0  0  0  0  0
   41.7650   26.1700   46.1100 N   0  0  0  0  0  0  0  0  0  0  0  0
   44.1435   35.3928   44.9631 H   0  0  0  0  0  0  0  0  0  0  0  0
   45.7229   35.1920   42.9720 H   0  0  0  0  0  0  0  0  0  0  0  0
   47.6511   33.5637   43.1313 H   0  0  0  0  0  0  0  0  0  0  0  0
   48.5309   32.3997   47.2627 H   0  0  0  0  0  0  0  0  0  0  0  0
   47.6749   33.3123   48.5974 H   0  0  0  0  0  0  0  0  0  0  0  0
   48.4737   30.4711   48.3966 H   0  0  0  0  0  0  0  0  0  0  0  0
   48.4924   31.7055   49.7859 H   0  0  0  0  0  0  0  0  0  0  0  0
   46.7191   29.6977   49.1970 H   0  0  0  0  0  0  0  0  0  0  0  0
   44.7330   30.8300   49.6994 H   0  0  0  0  0  0  0  0  0  0  0  0
   45.6293   32.3831   49.6330 H   0  0  0  0  0  0  0  0  0  0  0  0
   44.3829   31.7451   47.4870 H   0  0  0  0  0  0  0  0  0  0  0  0
   44.9784   30.0204   46.1556 H   0  0  0  0  0  0  0  0  0  0  0  0
   46.5694   29.7928   46.9067 H   0  0  0  0  0  0  0  0  0  0  0  0
   44.3756   29.4355   48.9632 H   0  0  0  0  0  0  0  0  0  0  0  0
   45.5369   27.4252   46.9666 H   0  0  0  0  0  0  0  0  0  0  0  0
   45.2351   25.9902   49.0332 H   0  0  0  0  0  0  0  0  0  0  0  0
   44.0172   27.1487   49.6574 H   0  0  0  0  0  0  0  0  0  0  0  0
   42.6887   25.9669   48.8764 H   0  0  0  0  0  0  0  0  0  0  0  0
   44.8528   24.7407   46.8120 H   0  0  0  0  0  0  0  0  0  0  0  0
   43.5775   23.8538   46.8298 H   0  0  0  0  0  0  0  0  0  0  0  0
   43.4422   26.9992   45.8372 H   0  0  0  0  0  0  0  0  0  0  0  0
   40.1510   27.2997   45.1994 H   0  0  0  0  0  0  0  0  0  0  0  0
   41.2046   25.3122   46.2154 H   0  0  0  0  0  0  0  0  0  0  0  0
  1  6  2  0
  2  3  2  0
  2  1  1  0
  3  4  1  0
  4  5  2  0
  5  7  1  0
  6  5  1  0
  7 12  1  0
  7  8  1  0
  8  9  1  0
  9 10  1  0
 11 10  1  0
 12 11  1  0
 13 12  1  0
 13 14  1  0
 15 14  2  0
 15 16  1  0
 17 16  1  0
 18 17  1  0
 19 18  1  0
 19 17  1  0
 20 22  1  0
 21 20  2  0
 22 19  1  0
  1 23  1  0
  2 24  1  0
  3 25  1  0
  8 26  1  0
  8 27  1  0
  9 28  1  0
  9 29  1  0
 10 30  1  0
 11 31  1  0
 11 32  1  0
 12 33  1  1
 13 34  1  0
 13 35  1  0
 14 36  1  0
 15 37  1  0
 16 38  1  0
 16 39  1  0
 17 40  1  1
 18 41  1  0
 18 42  1  0
 19 43  1  6
 20 44  1  0
 22 45  1  0
M  ISO  8  23  14  24  14  25  14  26  13  27  13  28  13  29  13  30   5
M  ISO  8  31  13  32  13  33  13  34   8  35   8  38   8  39   8  40  13
M  ISO  4  41  13  42  13  43  13  44   6
M  END
>  <minimizedAffinity>  (1) 
-5.62937069

>  <minimizedRMSD>  (1) 
1.17249572

$$$$
