
     RDKit          3D

 29 30  0  0  0  0  0  0  0  0999 V2000
   43.9130   35.0210   41.2170 C   0  0  0  0  0  0  0  0  0  0  0  0
   42.6860   35.0140   40.7560 C   0  0  0  0  0  0  0  0  0  0  0  0
   44.2240   35.8930   43.5290 C   0  0  0  0  0  0  0  0  0  0  0  0
   44.3390   34.8620   42.5930 C   0  0  0  0  0  0  0  0  0  0  0  0
   44.8770   33.6560   43.0080 C   0  0  0  0  0  0  0  0  0  0  0  0
   45.2740   33.5280   44.3170 N   0  0  0  0  0  0  0  0  0  0  0  0
   45.1490   34.5410   45.1900 C   0  0  0  0  0  0  0  0  0  0  0  0
   44.6270   35.7140   44.7910 N   0  0  0  0  0  0  0  0  0  0  0  0
   42.3580   35.1880   39.3130 C   0  0  0  0  0  0  0  0  0  0  0  0
   40.9420   35.4200   39.1130 N   0  0  0  0  0  0  0  0  0  0  0  0
   40.5130   34.4170   38.1460 C   0  0  0  0  0  0  0  0  0  0  0  0
   39.0110   34.2990   38.3320 C   0  0  0  0  0  0  0  0  0  0  0  0
   38.9180   34.3840   39.8470 C   0  0  0  0  0  0  0  0  0  0  0  0
   40.1740   35.0610   40.2950 C   0  0  0  0  0  0  0  0  0  0  0  0
   44.7113   35.1640   40.4738 H   0  0  0  0  0  0  0  0  0  0  0  0
   41.8595   34.8730   41.4680 H   0  0  0  0  0  0  0  0  0  0  0  0
   43.7981   36.8605   43.2248 H   0  0  0  0  0  0  0  0  0  0  0  0
   44.9844   32.8174   42.3042 H   0  0  0  0  0  0  0  0  0  0  0  0
   45.4741   34.4108   46.2328 H   0  0  0  0  0  0  0  0  0  0  0  0
   42.9198   36.0483   38.9203 H   0  0  0  0  0  0  0  0  0  0  0  0
   42.6339   34.2643   38.7833 H   0  0  0  0  0  0  0  0  0  0  0  0
   41.0032   33.4531   38.3473 H   0  0  0  0  0  0  0  0  0  0  0  0
   40.7781   34.6996   37.1165 H   0  0  0  0  0  0  0  0  0  0  0  0
   38.4742   35.1260   37.8442 H   0  0  0  0  0  0  0  0  0  0  0  0
   38.5620   33.3959   37.8929 H   0  0  0  0  0  0  0  0  0  0  0  0
   38.0381   34.9735   40.1443 H   0  0  0  0  0  0  0  0  0  0  0  0
   38.8100   33.3886   40.3025 H   0  0  0  0  0  0  0  0  0  0  0  0
   40.7604   34.3779   40.9270 H   0  0  0  0  0  0  0  0  0  0  0  0
   39.9332   35.9609   40.8800 H   0  0  0  0  0  0  0  0  0  0  0  0
  1  4  1  0
  2  1  2  0
  3  8  2  0
  4  5  2  0
  4  3  1  0
  5  6  1  0
  6  7  2  0
  8  7  1  0
  9  2  1  0
 10  9  1  0
 10 14  1  0
 11 12  1  0
 11 10  1  0
 12 13  1  0
 13 14  1  0
  1 15  1  0
  2 16  1  0
  3 17  1  0
  5 18  1  0
  7 19  1  0
  9 20  1  0
  9 21  1  0
 11 22  1  0
 11 23  1  0
 12 24  1  0
 12 25  1  0
 13 26  1  0
 13 27  1  0
 14 28  1  0
 14 29  1  0
M  ISO  8  17  14  18  14  19  14  20   8  21   8  22  13  23  13  24  13
M  ISO  5  25  13  26  13  27  13  28  13  29  13
M  END
>  <minimizedAffinity>  (1) 
-4.57228184

>  <minimizedRMSD>  (1) 
2.48202324

$$$$
