
     RDKit          3D

 23 23  0  0  0  0  0  0  0  0999 V2000
   44.0410   35.2770   41.8310 C   0  0  0  0  0  0  0  0  0  0  0  0
   43.0550   34.7440   41.1490 C   0  0  0  0  0  0  0  0  0  0  0  0
   44.2960   35.7240   44.2560 C   0  0  0  0  0  0  0  0  0  0  0  0
   44.4900   34.8960   43.1530 C   0  0  0  0  0  0  0  0  0  0  0  0
   45.1300   33.6860   43.3500 C   0  0  0  0  0  0  0  0  0  0  0  0
   45.5410   33.3580   44.6070 N   0  0  0  0  0  0  0  0  0  0  0  0
   45.3430   34.1770   45.6620 C   0  0  0  0  0  0  0  0  0  0  0  0
   44.7190   35.3590   45.4820 N   0  0  0  0  0  0  0  0  0  0  0  0
   42.6550   35.2030   39.7790 C   0  0  0  0  0  0  0  0  0  0  0  0
   41.2910   35.4510   39.7280 O   0  0  0  0  0  0  0  0  0  0  0  0
   39.2570   34.6110   38.2800 O   0  0  0  0  0  0  0  0  0  0  0  0
   40.7510   34.9070   38.2060 P   0  0  0  0  0  0  0  0  0  0  0  0
   41.0330   36.0500   36.9940 O   0  0  0  0  0  0  0  0  0  0  0  0
   41.5050   33.4470   37.8010 O   0  0  0  0  0  0  0  0  0  0  0  0
   44.5844   36.1015   41.3462 H   0  0  0  0  0  0  0  0  0  0  0  0
   42.4923   33.9169   41.6064 H   0  0  0  0  0  0  0  0  0  0  0  0
   43.7893   36.6914   44.1241 H   0  0  0  0  0  0  0  0  0  0  0  0
   45.3041   33.0008   42.5073 H   0  0  0  0  0  0  0  0  0  0  0  0
   45.6890   33.8816   46.6635 H   0  0  0  0  0  0  0  0  0  0  0  0
   43.2001   36.1263   39.5332 H   0  0  0  0  0  0  0  0  0  0  0  0
   42.9000   34.4130   39.0538 H   0  0  0  0  0  0  0  0  0  0  0  0
   41.2485   36.9233   37.4076 H   0  0  0  0  0  0  0  0  0  0  0  0
   41.7545   32.9639   38.6283 H   0  0  0  0  0  0  0  0  0  0  0  0
  1  4  1  0
  2  1  2  0
  3  8  2  0
  4  5  2  0
  4  3  1  0
  5  6  1  0
  6  7  2  0
  8  7  1  0
  9  2  1  0
 10  9  1  0
 12 11  2  0
 12 10  1  0
 13 12  1  0
 14 12  1  0
  1 15  1  0
  2 16  1  0
  3 17  1  0
  5 18  1  0
  7 19  1  0
  9 20  1  0
  9 21  1  0
 13 22  1  0
 14 23  1  0
M  ISO  7  17  14  18  14  19  14  20   8  21   8  22   3  23   3
M  END
>  <minimizedAffinity>  (1) 
-4.27548933

>  <minimizedRMSD>  (1) 
0.791100204

$$$$
