
     RDKit          3D

 24 24  0  0  0  0  0  0  0  0999 V2000
   44.2960   35.7840   44.2070 C   0  0  0  0  0  0  0  0  0  0  0  0
   44.4080   34.9730   43.0810 C   0  0  0  0  0  0  0  0  0  0  0  0
   45.0330   33.7270   43.2450 C   0  0  0  0  0  0  0  0  0  0  0  0
   45.4960   33.3650   44.4750 N   0  0  0  0  0  0  0  0  0  0  0  0
   45.3590   34.1980   45.5330 C   0  0  0  0  0  0  0  0  0  0  0  0
   44.7660   35.3870   45.3920 N   0  0  0  0  0  0  0  0  0  0  0  0
   43.9120   35.3590   41.7680 C   0  0  0  0  0  0  0  0  0  0  0  0
   42.9060   34.8010   41.1280 C   0  0  0  0  0  0  0  0  0  0  0  0
   42.4680   35.2660   39.7780 C   0  0  0  0  0  0  0  0  0  0  0  0
   41.0560   34.8540   39.5670 C   0  0  0  0  0  0  0  0  0  0  0  0
   39.8940   34.8930   40.2060 C   0  0  0  0  0  0  0  0  0  0  0  0
   38.6360   34.3410   39.6260 C   0  0  0  0  0  0  0  0  0  0  0  0
   43.8123   36.7680   44.1190 H   0  0  0  0  0  0  0  0  0  0  0  0
   45.1483   33.0477   42.3875 H   0  0  0  0  0  0  0  0  0  0  0  0
   45.7397   33.8930   46.5189 H   0  0  0  0  0  0  0  0  0  0  0  0
   44.4242   36.1925   41.2650 H   0  0  0  0  0  0  0  0  0  0  0  0
   42.3708   33.9654   41.6028 H   0  0  0  0  0  0  0  0  0  0  0  0
   42.5464   36.3617   39.7205 H   0  0  0  0  0  0  0  0  0  0  0  0
   43.1082   34.8206   39.0023 H   0  0  0  0  0  0  0  0  0  0  0  0
   40.9390   34.3714   38.5855 H   0  0  0  0  0  0  0  0  0  0  0  0
   39.8570   35.3516   41.2052 H   0  0  0  0  0  0  0  0  0  0  0  0
   37.9573   34.0432   40.4388 H   0  0  0  0  0  0  0  0  0  0  0  0
   38.1505   35.1088   39.0057 H   0  0  0  0  0  0  0  0  0  0  0  0
   38.8722   33.4639   39.0057 H   0  0  0  0  0  0  0  0  0  0  0  0
  1  6  2  0
  2  3  2  0
  2  1  1  0
  3  4  1  0
  4  5  2  0
  6  5  1  0
  7  2  1  0
  8  7  2  0
  9  8  1  0
 10  9  1  0
 10 11  2  0
 12 11  1  0
  1 13  1  0
  3 14  1  0
  5 15  1  0
  7 16  1  0
  8 17  1  0
  9 18  1  0
  9 19  1  0
 10 20  1  0
 11 21  1  0
 12 22  1  0
 12 23  1  0
 12 24  1  0
M  ISO  8  13  14  14  14  15  14  18   8  19   8  22   8  23   8  24   8
M  END
>  <minimizedAffinity>  (1) 
-4.0467205

>  <minimizedRMSD>  (1) 
1.86415827

$$$$
