
     RDKit          3D

 44 46  0  0  1  0  0  0  0  0999 V2000
   45.1620   34.5760   44.8790 C   0  0  0  0  0  0  0  0  0  0  0  0
   44.9710   34.1160   43.5820 C   0  0  0  0  0  0  0  0  0  0  0  0
   45.2000   32.7830   43.3330 C   0  0  0  0  0  0  0  0  0  0  0  0
   45.6060   31.9590   44.3590 N   0  0  0  0  0  0  0  0  0  0  0  0
   45.7830   32.4430   45.6170 C   0  0  0  0  0  0  0  0  0  0  0  0
   45.5580   33.7470   45.8620 N   0  0  0  0  0  0  0  0  0  0  0  0
   45.9390   32.2140   48.0210 C   0  0  2  0  0  0  0  0  0  0  0  0
   46.2190   31.5360   46.7020 C   0  0  2  0  0  0  0  0  0  0  0  0
   47.5620   31.2040   46.5780 O   0  0  0  0  0  0  0  0  0  0  0  0
   47.9080   30.2610   47.5150 C   0  0  0  0  0  0  0  0  0  0  0  0
   47.8300   30.8520   48.9060 C   0  0  2  0  0  0  0  0  0  0  0  0
   46.4440   31.3950   49.1900 C   0  0  2  0  0  0  0  0  0  0  0  0
   44.5500   32.3490   48.1450 O   0  0  0  0  0  0  0  0  0  0  0  0
   48.7860   31.8480   49.0840 O   0  0  0  0  0  0  0  0  0  0  0  0
   45.5900   30.3210   49.3920 O   0  0  0  0  0  0  0  0  0  0  0  0
   44.5440   34.9680   42.4890 C   0  0  0  0  0  0  0  0  0  0  0  0
   43.5180   34.7500   41.6890 C   0  0  0  0  0  0  0  0  0  0  0  0
   43.1310   35.6710   40.5780 C   0  0  0  0  0  0  0  0  0  0  0  0
   41.8140   35.2700   39.9980 C   0  0  0  0  0  0  0  0  0  0  0  0
   41.7020   35.2370   38.6170 C   0  0  0  0  0  0  0  0  0  0  0  0
   40.4750   34.8640   38.0570 C   0  0  0  0  0  0  0  0  0  0  0  0
   39.3750   34.5290   38.8540 C   0  0  0  0  0  0  0  0  0  0  0  0
   39.5080   34.5690   40.2280 C   0  0  0  0  0  0  0  0  0  0  0  0
   40.7190   34.9370   40.7740 C   0  0  0  0  0  0  0  0  0  0  0  0
   44.9862   35.6378   45.1065 H   0  0  0  0  0  0  0  0  0  0  0  0
   45.0597   32.3773   42.3202 H   0  0  0  0  0  0  0  0  0  0  0  0
   46.4529   33.1865   48.0355 H   0  0  0  0  0  0  0  0  0  0  0  0
   45.6599   30.5905   46.6429 H   0  0  0  0  0  0  0  0  0  0  0  0
   47.2175   29.4077   47.4437 H   0  0  0  0  0  0  0  0  0  0  0  0
   48.9387   29.9275   47.3244 H   0  0  0  0  0  0  0  0  0  0  0  0
   48.0388   30.0427   49.6212 H   0  0  0  0  0  0  0  0  0  0  0  0
   46.4819   32.0415   50.0792 H   0  0  0  0  0  0  0  0  0  0  0  0
   44.3051   32.3728   49.1039 H   0  0  0  0  0  0  0  0  0  0  0  0
   48.9300   31.9980   50.0519 H   0  0  0  0  0  0  0  0  0  0  0  0
   45.4714   30.1719   50.3635 H   0  0  0  0  0  0  0  0  0  0  0  0
   45.1304   35.8814   42.3103 H   0  0  0  0  0  0  0  0  0  0  0  0
   42.9162   33.8431   41.8481 H   0  0  0  0  0  0  0  0  0  0  0  0
   43.0571   36.6969   40.9679 H   0  0  0  0  0  0  0  0  0  0  0  0
   43.8967   35.6179   39.7900 H   0  0  0  0  0  0  0  0  0  0  0  0
   42.5573   35.4978   37.9763 H   0  0  0  0  0  0  0  0  0  0  0  0
   40.3727   34.8334   36.9622 H   0  0  0  0  0  0  0  0  0  0  0  0
   38.4193   34.2383   38.3935 H   0  0  0  0  0  0  0  0  0  0  0  0
   38.6590   34.3107   40.8780 H   0  0  0  0  0  0  0  0  0  0  0  0
   40.8181   34.9669   41.8691 H   0  0  0  0  0  0  0  0  0  0  0  0
  1  6  2  0
  2  1  1  0
  3  2  2  0
  3  4  1  0
  4  5  2  0
  5  6  1  0
  7 13  1  0
  7 12  1  0
  8  5  1  0
  8  7  1  0
  9  8  1  0
  9 10  1  0
 10 11  1  0
 11 14  1  0
 11 12  1  0
 12 15  1  0
 16  2  1  0
 17 16  2  0
 18 17  1  0
 19 18  1  0
 19 24  1  0
 20 19  2  0
 21 20  1  0
 21 22  2  0
 22 23  1  0
 23 24  2  0
  1 25  1  0
  3 26  1  0
  7 27  1  6
  8 28  1  1
 10 29  1  0
 10 30  1  0
 11 31  1  1
 12 32  1  1
 13 33  1  0
 14 34  1  0
 15 35  1  0
 16 36  1  0
 17 37  1  0
 18 38  1  0
 18 39  1  0
 20 40  1  0
 21 41  1  0
 22 42  1  0
 23 43  1  0
 24 44  1  0
M  ISO  8  25  14  26  14  27  13  28  13  29  13  30  13  31  13  32  13
M  ISO  8  33   3  34   3  35   3  38   8  39   8  40  14  41  14  42  14
M  ISO  2  43  14  44  14
M  END
>  <minimizedAffinity>  (1) 
-7.10305882

>  <minimizedRMSD>  (1) 
2.23191404

$$$$
