
     RDKit          3D

 40 42  0  0  0  0  0  0  0  0999 V2000
   43.0250   35.7970   41.2180 C   0  0  0  0  0  0  0  0  0  0  0  0
   41.8330   35.3140   41.5110 C   0  0  0  0  0  0  0  0  0  0  0  0
   44.9430   35.6670   42.7870 C   0  0  0  0  0  0  0  0  0  0  0  0
   44.2830   35.2440   41.6490 C   0  0  0  0  0  0  0  0  0  0  0  0
   44.8850   34.2460   40.9160 C   0  0  0  0  0  0  0  0  0  0  0  0
   46.0770   33.7090   41.3090 N   0  0  0  0  0  0  0  0  0  0  0  0
   46.6940   34.1480   42.4290 C   0  0  0  0  0  0  0  0  0  0  0  0
   46.1220   35.1230   43.1590 N   0  0  0  0  0  0  0  0  0  0  0  0
   47.9900   33.6220   42.9270 C   0  0  0  0  0  0  0  0  0  0  0  0
   49.1140   34.6140   42.7410 C   0  0  0  0  0  0  0  0  0  0  0  0
   50.2880   33.7340   42.2900 C   0  0  0  0  0  0  0  0  0  0  0  0
   49.5420   32.8030   41.3390 C   0  0  0  0  0  0  0  0  0  0  0  0
   48.4040   32.3390   42.2480 C   0  0  0  0  0  0  0  0  0  0  0  0
   40.5590   35.9440   41.0270 C   0  0  0  0  0  0  0  0  0  0  0  0
   39.9590   35.1440   39.9360 C   0  0  0  0  0  0  0  0  0  0  0  0
   40.4360   35.2930   38.6390 C   0  0  0  0  0  0  0  0  0  0  0  0
   39.8790   34.5490   37.6160 C   0  0  0  0  0  0  0  0  0  0  0  0
   38.8510   33.6500   37.8350 C   0  0  0  0  0  0  0  0  0  0  0  0
   38.3630   33.4880   39.1220 C   0  0  0  0  0  0  0  0  0  0  0  0
   38.9190   34.2320   40.1520 C   0  0  0  0  0  0  0  0  0  0  0  0
   43.0613   36.6998   40.5905 H   0  0  0  0  0  0  0  0  0  0  0  0
   41.7697   34.4114   42.1365 H   0  0  0  0  0  0  0  0  0  0  0  0
   44.4990   36.4632   43.4026 H   0  0  0  0  0  0  0  0  0  0  0  0
   44.3988   33.8763   40.0012 H   0  0  0  0  0  0  0  0  0  0  0  0
   47.8187   33.4324   43.9969 H   0  0  0  0  0  0  0  0  0  0  0  0
   48.8602   35.3578   41.9713 H   0  0  0  0  0  0  0  0  0  0  0  0
   49.3333   35.1927   43.6504 H   0  0  0  0  0  0  0  0  0  0  0  0
   51.0640   34.3165   41.7718 H   0  0  0  0  0  0  0  0  0  0  0  0
   50.8423   33.2361   43.0992 H   0  0  0  0  0  0  0  0  0  0  0  0
   50.1726   31.9620   41.0147 H   0  0  0  0  0  0  0  0  0  0  0  0
   49.2179   33.2700   40.3973 H   0  0  0  0  0  0  0  0  0  0  0  0
   47.5757   31.9128   41.6631 H   0  0  0  0  0  0  0  0  0  0  0  0
   48.6974   31.5444   42.9498 H   0  0  0  0  0  0  0  0  0  0  0  0
   39.8467   36.0055   41.8630 H   0  0  0  0  0  0  0  0  0  0  0  0
   40.7863   36.9495   40.6432 H   0  0  0  0  0  0  0  0  0  0  0  0
   41.2524   35.9993   38.4279 H   0  0  0  0  0  0  0  0  0  0  0  0
   40.2660   34.6760   36.5942 H   0  0  0  0  0  0  0  0  0  0  0  0
   38.4272   33.0723   37.0003 H   0  0  0  0  0  0  0  0  0  0  0  0
   37.5462   32.7793   39.3237 H   0  0  0  0  0  0  0  0  0  0  0  0
   38.5299   34.1012   41.1725 H   0  0  0  0  0  0  0  0  0  0  0  0
  1  2  2  0
  1  4  1  0
  3  8  2  0
  4  3  1  0
  5  6  1  0
  5  4  2  0
  6  7  2  0
  7  9  1  0
  7  8  1  0
 10  9  1  0
 11 10  1  0
 12 13  1  0
 12 11  1  0
 13  9  1  0
 14  2  1  0
 15 20  1  0
 15 14  1  0
 16 15  2  0
 17 18  2  0
 17 16  1  0
 18 19  1  0
 19 20  2  0
  1 21  1  0
  2 22  1  0
  3 23  1  0
  5 24  1  0
  9 25  1  0
 10 26  1  0
 10 27  1  0
 11 28  1  0
 11 29  1  0
 12 30  1  0
 12 31  1  0
 13 32  1  0
 13 33  1  0
 14 34  1  0
 14 35  1  0
 16 36  1  0
 17 37  1  0
 18 38  1  0
 19 39  1  0
 20 40  1  0
M  ISO  8  23  14  24  14  25  13  26  13  27  13  28  13  29  13  30  13
M  ISO  8  31  13  32  13  33  13  34   8  35   8  36  14  37  14  38  14
M  ISO  2  39  14  40  14
M  END
>  <minimizedAffinity>  (1) 
-6.39065027

>  <minimizedRMSD>  (1) 
2.95589375

$$$$
