
     RDKit          3D

 28 29  0  0  0  0  0  0  0  0999 V2000
   42.0560   35.3750   39.5160 C   0  0  0  0  0  0  0  0  0  0  0  0
   40.7030   34.7940   39.2600 C   0  0  0  0  0  0  0  0  0  0  0  0
   40.2800   34.6480   37.9320 C   0  0  0  0  0  0  0  0  0  0  0  0
   39.0340   34.1130   37.6790 C   0  0  0  0  0  0  0  0  0  0  0  0
   38.1840   33.7130   38.7060 C   0  0  0  0  0  0  0  0  0  0  0  0
   38.6190   33.8630   40.0230 C   0  0  0  0  0  0  0  0  0  0  0  0
   39.8580   34.3960   40.2810 C   0  0  0  0  0  0  0  0  0  0  0  0
   43.7150   35.3370   41.3550 C   0  0  0  0  0  0  0  0  0  0  0  0
   42.5220   35.0390   40.8980 C   0  0  0  0  0  0  0  0  0  0  0  0
   44.2180   35.9420   43.7180 C   0  0  0  0  0  0  0  0  0  0  0  0
   44.2250   35.0420   42.6710 C   0  0  0  0  0  0  0  0  0  0  0  0
   44.7620   33.7830   42.9280 C   0  0  0  0  0  0  0  0  0  0  0  0
   45.2420   33.5120   44.1740 N   0  0  0  0  0  0  0  0  0  0  0  0
   45.2170   34.4200   45.1720 C   0  0  0  0  0  0  0  0  0  0  0  0
   44.7000   35.6290   44.9240 N   0  0  0  0  0  0  0  0  0  0  0  0
   45.7610   33.9040   46.3360 O   0  0  0  0  0  0  0  0  0  0  0  0
   42.0061   36.4685   39.4074 H   0  0  0  0  0  0  0  0  0  0  0  0
   42.7661   34.9520   38.7902 H   0  0  0  0  0  0  0  0  0  0  0  0
   40.9331   34.9560   37.1022 H   0  0  0  0  0  0  0  0  0  0  0  0
   38.7028   33.9993   36.6362 H   0  0  0  0  0  0  0  0  0  0  0  0
   37.1935   33.2890   38.4846 H   0  0  0  0  0  0  0  0  0  0  0  0
   37.9692   33.5542   40.8551 H   0  0  0  0  0  0  0  0  0  0  0  0
   40.1867   34.5093   41.3246 H   0  0  0  0  0  0  0  0  0  0  0  0
   44.3927   35.8635   40.6668 H   0  0  0  0  0  0  0  0  0  0  0  0
   41.8256   34.5130   41.5676 H   0  0  0  0  0  0  0  0  0  0  0  0
   43.8029   36.9474   43.5542 H   0  0  0  0  0  0  0  0  0  0  0  0
   44.7981   33.0192   42.1373 H   0  0  0  0  0  0  0  0  0  0  0  0
   45.8069   34.4636   47.1514 H   0  0  0  0  0  0  0  0  0  0  0  0
  1  9  1  0
  2  1  1  0
  2  7  1  0
  3  2  2  0
  4  3  1  0
  4  5  2  0
  5  6  1  0
  6  7  2  0
  8 11  1  0
  9  8  2  0
 10 15  2  0
 11 12  2  0
 11 10  1  0
 12 13  1  0
 13 14  2  0
 14 16  1  0
 15 14  1  0
  1 17  1  0
  1 18  1  0
  3 19  1  0
  4 20  1  0
  5 21  1  0
  6 22  1  0
  7 23  1  0
  8 24  1  0
  9 25  1  0
 10 26  1  0
 12 27  1  0
 16 28  1  0
M  ISO  8  17   8  18   8  19  14  20  14  21  14  22  14  23  14  26  14
M  ISO  2  27  14  28   3
M  END
>  <minimizedAffinity>  (1) 
-5.80670547

>  <minimizedRMSD>  (1) 
0.168644145

$$$$
