
     RDKit          3D

 19 19  0  0  0  0  0  0  0  0999 V2000
   47.7400   34.9960   42.2880 C   0  0  0  0  0  0  0  0  0  0  0  0
   48.0200   34.0020   43.2580 C   0  0  0  0  0  0  0  0  0  0  0  0
   46.9750   33.5460   44.0780 C   0  0  0  0  0  0  0  0  0  0  0  0
   45.7520   34.1030   43.8740 N   0  0  0  0  0  0  0  0  0  0  0  0
   45.5040   35.0460   42.9480 C   0  0  0  0  0  0  0  0  0  0  0  0
   46.5010   35.4810   42.1670 N   0  0  0  0  0  0  0  0  0  0  0  0
   48.8860   35.4410   41.4480 C   0  0  0  0  0  0  0  0  0  0  0  0
   48.5970   35.3640   40.1070 F   0  0  0  0  0  0  0  0  0  0  0  0
   49.2360   36.7200   41.8290 F   0  0  0  0  0  0  0  0  0  0  0  0
   50.0130   34.6440   41.7250 F   0  0  0  0  0  0  0  0  0  0  0  0
   44.1070   35.5530   42.8540 C   0  0  0  0  0  0  0  0  0  0  0  0
   43.5840   35.5960   41.4440 C   0  0  0  0  0  0  0  0  0  0  0  0
   49.0362   33.5953   43.3667 H   0  0  0  0  0  0  0  0  0  0  0  0
   47.1381   32.7765   44.8470 H   0  0  0  0  0  0  0  0  0  0  0  0
   43.4559   34.8950   43.4481 H   0  0  0  0  0  0  0  0  0  0  0  0
   44.1086   36.5857   43.2329 H   0  0  0  0  0  0  0  0  0  0  0  0
   42.4878   35.6861   41.4621 H   0  0  0  0  0  0  0  0  0  0  0  0
   44.0145   36.4618   40.9195 H   0  0  0  0  0  0  0  0  0  0  0  0
   43.8673   34.6715   40.9195 H   0  0  0  0  0  0  0  0  0  0  0  0
  1  2  2  0
  2  3  1  0
  4  3  2  0
  5  4  1  0
  6  1  1  0
  6  5  2  0
  7 10  1  0
  7  9  1  0
  7  1  1  0
  8  7  1  0
 11  5  1  0
 12 11  1  0
  2 13  1  0
  3 14  1  0
 11 15  1  0
 11 16  1  0
 12 17  1  0
 12 18  1  0
 12 19  1  0
M  ISO  7  13  14  14  14  15   8  16   8  17   8  18   8  19   8
M  END
>  <minimizedAffinity>  (1) 
-4.32216597

>  <minimizedRMSD>  (1) 
0.453291774

$$$$
