
     RDKit          3D

 46 49  0  0  1  0  0  0  0  0999 V2000
   42.9400   36.0140   40.3280 C   0  0  0  0  0  0  0  0  0  0  0  0
   41.8620   35.3910   39.5150 C   0  0  0  0  0  0  0  0  0  0  0  0
   41.6330   35.8530   38.2190 C   0  0  0  0  0  0  0  0  0  0  0  0
   40.6240   35.2780   37.4630 C   0  0  0  0  0  0  0  0  0  0  0  0
   39.8360   34.2400   37.9890 C   0  0  0  0  0  0  0  0  0  0  0  0
   40.0880   33.7970   39.2920 C   0  0  0  0  0  0  0  0  0  0  0  0
   41.1000   34.3790   40.0400 C   0  0  0  0  0  0  0  0  0  0  0  0
   41.5350   32.3350   41.2670 C   0  0  2  0  0  0  0  0  0  0  0  0
   41.2130   33.7910   41.3730 C   0  0  2  0  0  0  0  0  0  0  0  0
   39.8880   33.7600   42.0980 C   0  0  0  0  0  0  0  0  0  0  0  0
   39.2790   32.5650   41.8310 O   0  0  0  0  0  0  0  0  0  0  0  0
   40.2030   31.6500   41.4080 C   0  0  0  0  0  0  0  0  0  0  0  0
   42.4370   31.9200   42.2550 O   0  0  0  0  0  0  0  0  0  0  0  0
   44.3230   35.5670   42.3190 C   0  0  0  0  0  0  0  0  0  0  0  0
   43.3930   35.1540   41.4500 C   0  0  0  0  0  0  0  0  0  0  0  0
   44.6220   35.3050   44.7250 C   0  0  0  0  0  0  0  0  0  0  0  0
   44.7690   34.7490   43.4280 C   0  0  0  0  0  0  0  0  0  0  0  0
   45.2990   33.4810   43.3400 C   0  0  0  0  0  0  0  0  0  0  0  0
   45.6460   32.8400   44.4890 N   0  0  0  0  0  0  0  0  0  0  0  0
   45.4970   33.3830   45.7020 C   0  0  0  0  0  0  0  0  0  0  0  0
   44.9820   34.6280   45.8400 N   0  0  0  0  0  0  0  0  0  0  0  0
   45.8630   32.6820   46.9060 C   0  0  0  0  0  0  0  0  0  0  0  0
   45.2660   32.6370   48.1130 C   0  0  0  0  0  0  0  0  0  0  0  0
   45.7770   31.9180   49.1270 C   0  0  0  0  0  0  0  0  0  0  0  0
   47.0010   31.2090   48.8220 C   0  0  0  0  0  0  0  0  0  0  0  0
   47.3010   31.6680   47.0280 S   0  0  0  0  0  0  0  0  0  0  0  0
   42.5634   36.9608   40.7424 H   0  0  0  0  0  0  0  0  0  0  0  0
   43.8034   36.1698   39.6644 H   0  0  0  0  0  0  0  0  0  0  0  0
   42.2467   36.6649   37.8016 H   0  0  0  0  0  0  0  0  0  0  0  0
   40.4379   35.6378   36.4403 H   0  0  0  0  0  0  0  0  0  0  0  0
   39.0358   33.7842   37.3874 H   0  0  0  0  0  0  0  0  0  0  0  0
   39.4826   32.9862   39.7234 H   0  0  0  0  0  0  0  0  0  0  0  0
   42.0338   32.0922   40.3171 H   0  0  0  0  0  0  0  0  0  0  0  0
   41.9711   34.3984   41.8892 H   0  0  0  0  0  0  0  0  0  0  0  0
   40.0544   33.8587   43.1809 H   0  0  0  0  0  0  0  0  0  0  0  0
   39.2526   34.5922   41.7609 H   0  0  0  0  0  0  0  0  0  0  0  0
   39.8954   31.2363   40.4363 H   0  0  0  0  0  0  0  0  0  0  0  0
   40.2795   30.8313   42.1386 H   0  0  0  0  0  0  0  0  0  0  0  0
   42.0514   32.0974   43.1494 H   0  0  0  0  0  0  0  0  0  0  0  0
   44.7654   36.5653   42.1861 H   0  0  0  0  0  0  0  0  0  0  0  0
   42.9535   34.1528   41.5700 H   0  0  0  0  0  0  0  0  0  0  0  0
   44.2028   36.3168   44.8273 H   0  0  0  0  0  0  0  0  0  0  0  0
   45.4388   32.9969   42.3622 H   0  0  0  0  0  0  0  0  0  0  0  0
   44.3365   33.2032   48.2726 H   0  0  0  0  0  0  0  0  0  0  0  0
   45.2995   31.8718   50.1169 H   0  0  0  0  0  0  0  0  0  0  0  0
   47.6039   30.5632   49.4773 H   0  0  0  0  0  0  0  0  0  0  0  0
  1 15  1  0
  2  7  1  0
  2  1  1  0
  3  2  2  0
  4  5  2  0
  4  3  1  0
  5  6  1  0
  6  7  2  0
  8  9  1  0
  8 12  1  0
  8 13  1  0
  9  7  1  0
  9 10  1  0
 11 10  1  0
 12 11  1  0
 14 17  1  0
 15 14  2  0
 16 21  2  0
 17 16  1  0
 18 17  2  0
 18 19  1  0
 19 20  2  0
 20 21  1  0
 20 22  1  0
 22 26  1  0
 22 23  2  0
 23 24  1  0
 25 24  2  0
 26 25  1  0
  1 27  1  0
  1 28  1  0
  3 29  1  0
  4 30  1  0
  5 31  1  0
  6 32  1  0
  8 33  1  6
  9 34  1  1
 10 35  1  0
 10 36  1  0
 12 37  1  0
 12 38  1  0
 13 39  1  0
 14 40  1  0
 15 41  1  0
 16 42  1  0
 18 43  1  0
 23 44  1  0
 24 45  1  0
 25 46  1  0
M  ISO  8  27   8  28   8  29  14  30  14  31  14  32  14  33  13  34  13
M  ISO  8  35  13  36  13  37  13  38  13  39   3  42  14  43  14  44  14
M  ISO  2  45  14  46  14
M  END
>  <minimizedAffinity>  (1) 
-6.53933764

>  <minimizedRMSD>  (1) 
1.4845618

$$$$
