
     RDKit          3D

 36 38  0  0  0  0  0  0  0  0999 V2000
   44.4010   35.2520   42.2760 C   0  0  0  0  0  0  0  0  0  0  0  0
   43.4470   34.8570   41.4560 C   0  0  0  0  0  0  0  0  0  0  0  0
   44.7330   35.1640   44.7550 C   0  0  0  0  0  0  0  0  0  0  0  0
   44.7970   34.5620   43.4780 C   0  0  0  0  0  0  0  0  0  0  0  0
   45.2600   33.2650   43.4180 C   0  0  0  0  0  0  0  0  0  0  0  0
   45.6390   32.6040   44.5660 N   0  0  0  0  0  0  0  0  0  0  0  0
   45.5580   33.2230   45.7520 C   0  0  0  0  0  0  0  0  0  0  0  0
   45.1100   34.4950   45.8640 N   0  0  0  0  0  0  0  0  0  0  0  0
   45.9430   32.5580   46.9890 C   0  0  0  0  0  0  0  0  0  0  0  0
   45.3820   32.5460   48.1970 C   0  0  0  0  0  0  0  0  0  0  0  0
   45.9210   31.8450   49.2260 C   0  0  0  0  0  0  0  0  0  0  0  0
   47.1160   31.1380   48.9060 C   0  0  0  0  0  0  0  0  0  0  0  0
   47.3760   31.5430   47.1190 S   0  0  0  0  0  0  0  0  0  0  0  0
   43.0700   35.6070   40.2190 C   0  0  0  0  0  0  0  0  0  0  0  0
   41.7090   35.1910   39.7330 C   0  0  0  0  0  0  0  0  0  0  0  0
   41.5140   35.0080   38.3700 C   0  0  0  0  0  0  0  0  0  0  0  0
   40.2680   34.6260   37.9020 C   0  0  0  0  0  0  0  0  0  0  0  0
   39.2060   34.4220   38.7750 C   0  0  0  0  0  0  0  0  0  0  0  0
   39.4070   34.6070   40.1320 C   0  0  0  0  0  0  0  0  0  0  0  0
   40.6500   34.9890   40.6110 C   0  0  0  0  0  0  0  0  0  0  0  0
   40.8290   35.1700   41.9960 N   0  0  0  0  0  0  0  0  0  0  0  0
   44.9358   36.1794   42.0234 H   0  0  0  0  0  0  0  0  0  0  0  0
   42.9024   33.9312   41.6935 H   0  0  0  0  0  0  0  0  0  0  0  0
   44.3688   36.1979   44.8464 H   0  0  0  0  0  0  0  0  0  0  0  0
   45.3274   32.7539   42.4463 H   0  0  0  0  0  0  0  0  0  0  0  0
   44.4581   33.1190   48.3646 H   0  0  0  0  0  0  0  0  0  0  0  0
   45.4705   31.8241   50.2293 H   0  0  0  0  0  0  0  0  0  0  0  0
   47.7333   30.5058   49.5612 H   0  0  0  0  0  0  0  0  0  0  0  0
   43.0596   36.6845   40.4402 H   0  0  0  0  0  0  0  0  0  0  0  0
   43.8071   35.3830   39.4338 H   0  0  0  0  0  0  0  0  0  0  0  0
   42.3447   35.1656   37.6663 H   0  0  0  0  0  0  0  0  0  0  0  0
   40.1163   34.4817   36.8221 H   0  0  0  0  0  0  0  0  0  0  0  0
   38.2202   34.1180   38.3932 H   0  0  0  0  0  0  0  0  0  0  0  0
   38.5751   34.4499   40.8343 H   0  0  0  0  0  0  0  0  0  0  0  0
   40.0406   35.0188   42.6413 H   0  0  0  0  0  0  0  0  0  0  0  0
   41.7484   35.4536   42.3637 H   0  0  0  0  0  0  0  0  0  0  0  0
  1  4  1  0
  2  1  2  0
  3  8  2  0
  4  3  1  0
  5  4  2  0
  5  6  1  0
  6  7  2  0
  7  8  1  0
  7  9  1  0
  9 13  1  0
  9 10  2  0
 10 11  1  0
 12 11  2  0
 13 12  1  0
 14  2  1  0
 15 14  1  0
 15 20  1  0
 16 15  2  0
 17 16  1  0
 17 18  2  0
 18 19  1  0
 19 20  2  0
 20 21  1  0
  1 22  1  0
  2 23  1  0
  3 24  1  0
  5 25  1  0
 10 26  1  0
 11 27  1  0
 12 28  1  0
 14 29  1  0
 14 30  1  0
 16 31  1  0
 17 32  1  0
 18 33  1  0
 19 34  1  0
 21 35  1  0
 21 36  1  0
M  ISO  8  24  14  25  14  26  14  27  14  28  14  29   8  30   8  31  14
M  ISO  3  32  14  33  14  34  14
M  END
>  <minimizedAffinity>  (1) 
-6.31513596

>  <minimizedRMSD>  (1) 
0.124570154

$$$$
