
     RDKit          3D

 36 38  0  0  0  0  0  0  0  0999 V2000
   44.0760   35.4470   41.8650 C   0  0  0  0  0  0  0  0  0  0  0  0
   43.0420   35.0660   41.1310 C   0  0  0  0  0  0  0  0  0  0  0  0
   44.5440   35.4440   44.2970 C   0  0  0  0  0  0  0  0  0  0  0  0
   44.5310   34.7690   43.0550 C   0  0  0  0  0  0  0  0  0  0  0  0
   44.9670   33.4460   43.0390 C   0  0  0  0  0  0  0  0  0  0  0  0
   45.3820   32.8650   44.2000 N   0  0  0  0  0  0  0  0  0  0  0  0
   45.3770   33.5400   45.3590 C   0  0  0  0  0  0  0  0  0  0  0  0
   44.9620   34.8280   45.4210 N   0  0  0  0  0  0  0  0  0  0  0  0
   45.8120   32.9280   46.6000 C   0  0  0  0  0  0  0  0  0  0  0  0
   45.2740   32.9460   47.8170 C   0  0  0  0  0  0  0  0  0  0  0  0
   45.8620   32.2900   48.8580 C   0  0  0  0  0  0  0  0  0  0  0  0
   47.0740   31.6010   48.5280 C   0  0  0  0  0  0  0  0  0  0  0  0
   47.2860   31.9520   46.7240 S   0  0  0  0  0  0  0  0  0  0  0  0
   42.5920   35.7810   39.9150 C   0  0  0  0  0  0  0  0  0  0  0  0
   41.3140   35.2480   39.3760 C   0  0  0  0  0  0  0  0  0  0  0  0
   41.1060   35.1910   38.0210 C   0  0  0  0  0  0  0  0  0  0  0  0
   39.9020   34.6940   37.5340 C   0  0  0  0  0  0  0  0  0  0  0  0
   38.8980   34.2480   38.3730 C   0  0  0  0  0  0  0  0  0  0  0  0
   39.1140   34.3070   39.7280 C   0  0  0  0  0  0  0  0  0  0  0  0
   40.3180   34.8070   40.2080 C   0  0  0  0  0  0  0  0  0  0  0  0
   40.4040   34.8190   41.6520 C   0  0  0  0  0  0  0  0  0  0  0  0
   39.9000   34.0370   42.4700 O   0  0  0  0  0  0  0  0  0  0  0  0
   44.6272   36.3436   41.5452 H   0  0  0  0  0  0  0  0  0  0  0  0
   42.4866   34.1688   41.4417 H   0  0  0  0  0  0  0  0  0  0  0  0
   44.2072   36.4900   44.3472 H   0  0  0  0  0  0  0  0  0  0  0  0
   44.9763   32.8757   42.0984 H   0  0  0  0  0  0  0  0  0  0  0  0
   44.3387   33.4997   47.9863 H   0  0  0  0  0  0  0  0  0  0  0  0
   45.4383   32.2899   49.8731 H   0  0  0  0  0  0  0  0  0  0  0  0
   47.7224   31.0064   49.1883 H   0  0  0  0  0  0  0  0  0  0  0  0
   42.4534   36.8437   40.1627 H   0  0  0  0  0  0  0  0  0  0  0  0
   43.3626   35.6403   39.1427 H   0  0  0  0  0  0  0  0  0  0  0  0
   41.8854   35.5357   37.3255 H   0  0  0  0  0  0  0  0  0  0  0  0
   39.7435   34.6545   36.4462 H   0  0  0  0  0  0  0  0  0  0  0  0
   37.9533   33.8571   37.9671 H   0  0  0  0  0  0  0  0  0  0  0  0
   38.3394   33.9609   40.4281 H   0  0  0  0  0  0  0  0  0  0  0  0
   41.0000   35.6365   42.0839 H   0  0  0  0  0  0  0  0  0  0  0  0
  1  4  1  0
  2  1  2  0
  3  8  2  0
  4  3  1  0
  5  4  2  0
  5  6  1  0
  6  7  2  0
  7  8  1  0
  7  9  1  0
  9 13  1  0
  9 10  2  0
 10 11  1  0
 12 11  2  0
 13 12  1  0
 14  2  1  0
 15 14  1  0
 15 20  1  0
 16 15  2  0
 17 16  1  0
 17 18  2  0
 18 19  1  0
 19 20  2  0
 20 21  1  0
 21 22  2  0
  1 23  1  0
  2 24  1  0
  3 25  1  0
  5 26  1  0
 10 27  1  0
 11 28  1  0
 12 29  1  0
 14 30  1  0
 14 31  1  0
 16 32  1  0
 17 33  1  0
 18 34  1  0
 19 35  1  0
 21 36  1  0
M  ISO  8  25  14  26  14  27  14  28  14  29  14  30   8  31   8  32  14
M  ISO  4  33  14  34  14  35  14  36   6
M  END
>  <minimizedAffinity>  (1) 
-6.06045437

>  <minimizedRMSD>  (1) 
0.586057603

$$$$
