
     RDKit          3D

 28 30  0  0  0  0  0  0  0  0999 V2000
   41.3950   33.5750   41.0590 C   0  0  0  0  0  0  0  0  0  0  0  0
   40.0600   33.5540   40.6890 C   0  0  0  0  0  0  0  0  0  0  0  0
   39.4100   34.7360   40.3910 C   0  0  0  0  0  0  0  0  0  0  0  0
   40.0650   35.9480   40.4540 C   0  0  0  0  0  0  0  0  0  0  0  0
   41.3920   35.9640   40.8220 C   0  0  0  0  0  0  0  0  0  0  0  0
   42.0680   34.7830   41.1280 C   0  0  0  0  0  0  0  0  0  0  0  0
   43.4740   34.8480   41.5140 C   0  0  0  0  0  0  0  0  0  0  0  0
   43.9670   35.3150   42.7130 C   0  0  0  0  0  0  0  0  0  0  0  0
   45.3560   35.1830   42.6250 C   0  0  0  0  0  0  0  0  0  0  0  0
   45.6310   34.6390   41.3670 C   0  0  0  0  0  0  0  0  0  0  0  0
   44.4850   34.4720   40.7780 O   0  0  0  0  0  0  0  0  0  0  0  0
   42.3430   32.1330   41.4630 S   0  0  0  0  0  0  0  0  0  0  0  0
   40.7670   30.5410   43.1020 C   0  0  0  0  0  0  0  0  0  0  0  0
   41.2580   30.7610   41.7860 C   0  0  0  0  0  0  0  0  0  0  0  0
   40.8690   29.8820   40.7690 C   0  0  0  0  0  0  0  0  0  0  0  0
   40.0360   28.8600   41.1080 N   0  0  0  0  0  0  0  0  0  0  0  0
   39.5920   28.6850   42.3680 C   0  0  0  0  0  0  0  0  0  0  0  0
   39.9410   29.4980   43.3530 N   0  0  0  0  0  0  0  0  0  0  0  0
   39.5187   32.5980   40.6326 H   0  0  0  0  0  0  0  0  0  0  0  0
   38.3501   34.7100   40.0980 H   0  0  0  0  0  0  0  0  0  0  0  0
   39.5379   36.8835   40.2150 H   0  0  0  0  0  0  0  0  0  0  0  0
   41.9273   36.9235   40.8755 H   0  0  0  0  0  0  0  0  0  0  0  0
   43.3887   35.7091   43.5617 H   0  0  0  0  0  0  0  0  0  0  0  0
   46.0909   35.4548   43.3970 H   0  0  0  0  0  0  0  0  0  0  0  0
   46.6229   34.3994   40.9563 H   0  0  0  0  0  0  0  0  0  0  0  0
   41.0586   31.2192   43.9175 H   0  0  0  0  0  0  0  0  0  0  0  0
   41.2227   30.0118   39.7355 H   0  0  0  0  0  0  0  0  0  0  0  0
   38.9197   27.8418   42.5847 H   0  0  0  0  0  0  0  0  0  0  0  0
  1  6  1  0
  1 12  1  0
  2  1  2  0
  3  4  2  0
  3  2  1  0
  4  5  1  0
  5  6  2  0
  6  7  1  0
  7  8  2  0
  9  8  1  0
 10  9  2  0
 11 10  1  0
 11  7  1  0
 12 14  1  0
 13 18  2  0
 14 13  1  0
 15 16  1  0
 15 14  2  0
 16 17  2  0
 17 18  1  0
  2 19  1  0
  3 20  1  0
  4 21  1  0
  5 22  1  0
  8 23  1  0
  9 24  1  0
 10 25  1  0
 13 26  1  0
 15 27  1  0
 17 28  1  0
M  ISO  8  19  14  20  14  21  14  22  14  23  14  24  14  25  14  26  14
M  ISO  2  27  14  28  14
M  END
>  <minimizedAffinity>  (1) 
-4.58104181

>  <minimizedRMSD>  (1) 
4.99388266

$$$$
