
     RDKit          3D

 31 33  0  0  0  0  0  0  0  0999 V2000
   43.1560   31.8400   39.9660 C   0  0  0  0  0  0  0  0  0  0  0  0
   44.2940   31.2570   39.4680 C   0  0  0  0  0  0  0  0  0  0  0  0
   44.4050   31.0350   38.1030 C   0  0  0  0  0  0  0  0  0  0  0  0
   43.4040   31.3810   37.2340 C   0  0  0  0  0  0  0  0  0  0  0  0
   42.2590   31.9680   37.7420 C   0  0  0  0  0  0  0  0  0  0  0  0
   42.1270   32.2000   39.1070 C   0  0  0  0  0  0  0  0  0  0  0  0
   39.9150   30.7410   40.1290 F   0  0  0  0  0  0  0  0  0  0  0  0
   39.8050   32.0770   39.9490 C   0  0  0  0  0  0  0  0  0  0  0  0
   40.8520   32.8260   39.4550 C   0  0  0  0  0  0  0  0  0  0  0  0
   40.8030   34.1860   39.2490 C   0  0  0  0  0  0  0  0  0  0  0  0
   39.6520   34.8720   39.5440 C   0  0  0  0  0  0  0  0  0  0  0  0
   38.5750   34.1700   40.0400 C   0  0  0  0  0  0  0  0  0  0  0  0
   38.6470   32.7970   40.2410 C   0  0  0  0  0  0  0  0  0  0  0  0
   42.8310   32.2030   41.6750 S   0  0  0  0  0  0  0  0  0  0  0  0
   44.9050   33.4070   43.0730 C   0  0  0  0  0  0  0  0  0  0  0  0
   43.8290   33.6070   42.1800 C   0  0  0  0  0  0  0  0  0  0  0  0
   43.5780   34.8950   41.7190 C   0  0  0  0  0  0  0  0  0  0  0  0
   44.3860   35.8980   42.1550 N   0  0  0  0  0  0  0  0  0  0  0  0
   45.3940   35.6770   42.9990 C   0  0  0  0  0  0  0  0  0  0  0  0
   45.6760   34.4570   43.4710 N   0  0  0  0  0  0  0  0  0  0  0  0
   45.1113   30.9681   40.1452 H   0  0  0  0  0  0  0  0  0  0  0  0
   45.3201   30.5693   37.7084 H   0  0  0  0  0  0  0  0  0  0  0  0
   43.5086   31.1959   36.1547 H   0  0  0  0  0  0  0  0  0  0  0  0
   41.4450   32.2541   37.0597 H   0  0  0  0  0  0  0  0  0  0  0  0
   41.6794   34.7185   38.8511 H   0  0  0  0  0  0  0  0  0  0  0  0
   39.5903   35.9591   39.3879 H   0  0  0  0  0  0  0  0  0  0  0  0
   37.6442   34.7046   40.2805 H   0  0  0  0  0  0  0  0  0  0  0  0
   37.7702   32.2657   40.6397 H   0  0  0  0  0  0  0  0  0  0  0  0
   45.1218   32.3964   43.4496 H   0  0  0  0  0  0  0  0  0  0  0  0
   42.7507   35.0962   41.0226 H   0  0  0  0  0  0  0  0  0  0  0  0
   46.0153   36.5267   43.3184 H   0  0  0  0  0  0  0  0  0  0  0  0
  1 14  1  0
  2  1  2  0
  3  2  1  0
  4  5  1  0
  4  3  2  0
  5  6  2  0
  6  9  1  0
  6  1  1  0
  8  7  1  0
  8 13  2  0
  9  8  1  0
 10  9  2  0
 10 11  1  0
 11 12  2  0
 12 13  1  0
 14 16  1  0
 15 20  2  0
 16 15  1  0
 17 18  1  0
 17 16  2  0
 18 19  2  0
 19 20  1  0
  2 21  1  0
  3 22  1  0
  4 23  1  0
  5 24  1  0
 10 25  1  0
 11 26  1  0
 12 27  1  0
 13 28  1  0
 15 29  1  0
 17 30  1  0
 19 31  1  0
M  ISO  8  21  14  22  14  23  14  24  14  25  14  26  14  27  14  28  14
M  ISO  3  29  14  30  14  31  14
M  END
>  <minimizedAffinity>  (1) 
-4.34263611

>  <minimizedRMSD>  (1) 
4.68922281

$$$$
