
     RDKit          3D

 35 37  0  0  0  0  0  0  0  0999 V2000
   40.9560   33.9830   39.7140 C   0  0  0  0  0  0  0  0  0  0  0  0
   39.8590   34.0000   38.8620 C   0  0  0  0  0  0  0  0  0  0  0  0
   39.8430   34.8450   37.7560 C   0  0  0  0  0  0  0  0  0  0  0  0
   40.8970   35.6720   37.4840 C   0  0  0  0  0  0  0  0  0  0  0  0
   41.9840   35.6520   38.3330 C   0  0  0  0  0  0  0  0  0  0  0  0
   42.0320   34.8220   39.4440 C   0  0  0  0  0  0  0  0  0  0  0  0
   43.1840   34.8160   40.3250 C   0  0  0  0  0  0  0  0  0  0  0  0
   44.2860   34.0370   40.1570 C   0  0  0  0  0  0  0  0  0  0  0  0
   45.3830   34.0500   41.0190 C   0  0  0  0  0  0  0  0  0  0  0  0
   45.3530   34.8750   42.0760 N   0  0  0  0  0  0  0  0  0  0  0  0
   44.2620   35.6530   42.2530 C   0  0  0  0  0  0  0  0  0  0  0  0
   43.2130   35.6250   41.4060 N   0  0  0  0  0  0  0  0  0  0  0  0
   41.0690   32.9470   41.1420 S   0  0  0  0  0  0  0  0  0  0  0  0
   38.5690   31.7720   41.2540 C   0  0  0  0  0  0  0  0  0  0  0  0
   39.9400   31.5860   41.0070 C   0  0  0  0  0  0  0  0  0  0  0  0
   40.3700   30.3180   40.6580 C   0  0  0  0  0  0  0  0  0  0  0  0
   39.4600   29.3240   40.5720 N   0  0  0  0  0  0  0  0  0  0  0  0
   38.1420   29.5420   40.8180 C   0  0  0  0  0  0  0  0  0  0  0  0
   37.6640   30.7440   41.1600 N   0  0  0  0  0  0  0  0  0  0  0  0
   37.2040   28.3880   40.7010 C   0  0  0  0  0  0  0  0  0  0  0  0
   36.1110   28.6590   39.6760 C   0  0  0  0  0  0  0  0  0  0  0  0
   38.9996   33.3432   39.0621 H   0  0  0  0  0  0  0  0  0  0  0  0
   38.9677   34.8474   37.0898 H   0  0  0  0  0  0  0  0  0  0  0  0
   40.8787   36.3378   36.6086 H   0  0  0  0  0  0  0  0  0  0  0  0
   42.8376   36.3133   38.1232 H   0  0  0  0  0  0  0  0  0  0  0  0
   44.3141   33.3579   39.2921 H   0  0  0  0  0  0  0  0  0  0  0  0
   46.2511   33.3996   40.8362 H   0  0  0  0  0  0  0  0  0  0  0  0
   44.2286   36.3323   43.1176 H   0  0  0  0  0  0  0  0  0  0  0  0
   38.2094   32.7738   41.5317 H   0  0  0  0  0  0  0  0  0  0  0  0
   41.4333   30.1233   40.4544 H   0  0  0  0  0  0  0  0  0  0  0  0
   37.7703   27.4969   40.3925 H   0  0  0  0  0  0  0  0  0  0  0  0
   36.7277   28.2298   41.6798 H   0  0  0  0  0  0  0  0  0  0  0  0
   35.1702   28.8923   40.1961 H   0  0  0  0  0  0  0  0  0  0  0  0
   36.4027   29.5120   39.0457 H   0  0  0  0  0  0  0  0  0  0  0  0
   35.9705   27.7685   39.0457 H   0  0  0  0  0  0  0  0  0  0  0  0
  1 13  1  0
  2  1  2  0
  3  2  1  0
  4  3  2  0
  4  5  1  0
  5  6  2  0
  6  1  1  0
  6  7  1  0
  7 12  1  0
  8  7  2  0
  8  9  1  0
  9 10  2  0
 10 11  1  0
 12 11  2  0
 15 13  1  0
 15 14  2  0
 16 15  1  0
 17 16  2  0
 17 18  1  0
 18 19  2  0
 19 14  1  0
 20 18  1  0
 21 20  1  0
  2 22  1  0
  3 23  1  0
  4 24  1  0
  5 25  1  0
  8 26  1  0
  9 27  1  0
 11 28  1  0
 14 29  1  0
 16 30  1  0
 20 31  1  0
 20 32  1  0
 21 33  1  0
 21 34  1  0
 21 35  1  0
M  ISO  8  22  14  23  14  24  14  25  14  26  14  27  14  28  14  29  14
M  ISO  6  30  14  31   8  32   8  33   8  34   8  35   8
M  END
>  <minimizedAffinity>  (1) 
-5.21529961

>  <minimizedRMSD>  (1) 
1.93406236

$$$$
