
     RDKit          3D

 16 16  0  0  0  0  0  0  0  0999 V2000
   48.0220   34.7050   42.4650 C   0  0  0  0  0  0  0  0  0  0  0  0
   48.4340   33.4570   42.9930 C   0  0  0  0  0  0  0  0  0  0  0  0
   47.5120   32.7530   43.7670 C   0  0  0  0  0  0  0  0  0  0  0  0
   46.2910   33.2950   43.9670 N   0  0  0  0  0  0  0  0  0  0  0  0
   45.9240   34.4820   43.4550 C   0  0  0  0  0  0  0  0  0  0  0  0
   46.7910   35.1920   42.7000 N   0  0  0  0  0  0  0  0  0  0  0  0
   49.0470   35.4410   41.6290 C   0  0  0  0  0  0  0  0  0  0  0  0
   48.7730   35.2980   40.2940 F   0  0  0  0  0  0  0  0  0  0  0  0
   49.0050   36.7620   42.0170 F   0  0  0  0  0  0  0  0  0  0  0  0
   50.3240   34.9750   41.9440 F   0  0  0  0  0  0  0  0  0  0  0  0
   44.6660   35.0500   43.6560 O   0  0  0  0  0  0  0  0  0  0  0  0
   44.4310   35.9200   44.7370 C   0  0  0  0  0  0  0  0  0  0  0  0
   44.4740   35.4260   45.9040 O   0  0  0  0  0  0  0  0  0  0  0  0
   49.4411   33.0589   42.8002 H   0  0  0  0  0  0  0  0  0  0  0  0
   47.7732   31.7783   44.2048 H   0  0  0  0  0  0  0  0  0  0  0  0
   44.2183   36.9871   44.5758 H   0  0  0  0  0  0  0  0  0  0  0  0
  1  6  2  0
  1  2  1  0
  2  3  2  0
  3  4  1  0
  5 11  1  0
  5  4  2  0
  6  5  1  0
  7 10  1  0
  7  9  1  0
  7  1  1  0
  8  7  1  0
 11 12  1  0
 12 13  2  0
  2 14  1  0
  3 15  1  0
 12 16  1  0
M  ISO  3  14  14  15  14  16   6
M  END
>  <minimizedAffinity>  (1) 
-4.23348236

>  <minimizedRMSD>  (1) 
1.05968642

$$$$
