
     RDKit          3D

 42 45  0  0  0  0  0  0  0  0999 V2000
   38.5590   31.7840   41.2440 C   0  0  0  0  0  0  0  0  0  0  0  0
   39.9150   31.5870   40.9680 C   0  0  0  0  0  0  0  0  0  0  0  0
   40.3180   30.3120   40.5760 C   0  0  0  0  0  0  0  0  0  0  0  0
   39.3910   29.3400   40.4820 N   0  0  0  0  0  0  0  0  0  0  0  0
   38.0840   29.5760   40.7600 C   0  0  0  0  0  0  0  0  0  0  0  0
   37.6390   30.7760   41.1410 N   0  0  0  0  0  0  0  0  0  0  0  0
   37.1280   28.4320   40.6280 C   0  0  0  0  0  0  0  0  0  0  0  0
   36.3700   28.4950   39.3170 C   0  0  0  0  0  0  0  0  0  0  0  0
   35.0700   27.8170   39.5180 C   0  0  0  0  0  0  0  0  0  0  0  0
   34.9760   26.4860   39.9400 C   0  0  0  0  0  0  0  0  0  0  0  0
   33.6260   26.2860   39.9870 N   0  0  0  0  0  0  0  0  0  0  0  0
   32.9660   27.4140   39.6210 C   0  0  0  0  0  0  0  0  0  0  0  0
   33.8610   28.3750   39.3260 N   0  0  0  0  0  0  0  0  0  0  0  0
   41.0630   32.9340   41.1200 S   0  0  0  0  0  0  0  0  0  0  0  0
   40.9560   33.9840   39.6920 C   0  0  0  0  0  0  0  0  0  0  0  0
   39.8610   34.0070   38.8320 C   0  0  0  0  0  0  0  0  0  0  0  0
   39.8560   34.8620   37.7320 C   0  0  0  0  0  0  0  0  0  0  0  0
   40.9070   35.6880   37.4700 C   0  0  0  0  0  0  0  0  0  0  0  0
   41.9940   35.6620   38.3270 C   0  0  0  0  0  0  0  0  0  0  0  0
   42.0290   34.8270   39.4240 C   0  0  0  0  0  0  0  0  0  0  0  0
   43.1850   34.8150   40.3170 C   0  0  0  0  0  0  0  0  0  0  0  0
   44.2790   34.0330   40.1510 C   0  0  0  0  0  0  0  0  0  0  0  0
   45.3730   34.0440   41.0230 C   0  0  0  0  0  0  0  0  0  0  0  0
   45.3350   34.8690   42.0770 N   0  0  0  0  0  0  0  0  0  0  0  0
   44.2490   35.6460   42.2440 C   0  0  0  0  0  0  0  0  0  0  0  0
   43.2110   35.6210   41.3950 N   0  0  0  0  0  0  0  0  0  0  0  0
   38.2197   32.7832   41.5546 H   0  0  0  0  0  0  0  0  0  0  0  0
   41.3736   30.1035   40.3476 H   0  0  0  0  0  0  0  0  0  0  0  0
   37.6910   27.4880   40.6712 H   0  0  0  0  0  0  0  0  0  0  0  0
   36.4014   28.4904   41.4518 H   0  0  0  0  0  0  0  0  0  0  0  0
   36.9416   27.9837   38.5284 H   0  0  0  0  0  0  0  0  0  0  0  0
   36.2169   29.5400   39.0094 H   0  0  0  0  0  0  0  0  0  0  0  0
   35.7855   25.7791   40.1747 H   0  0  0  0  0  0  0  0  0  0  0  0
   33.1723   25.4030   40.2617 H   0  0  0  0  0  0  0  0  0  0  0  0
   31.8727   27.5252   39.5730 H   0  0  0  0  0  0  0  0  0  0  0  0
   38.9995   33.3497   39.0213 H   0  0  0  0  0  0  0  0  0  0  0  0
   38.9846   34.8702   37.0607 H   0  0  0  0  0  0  0  0  0  0  0  0
   40.8924   36.3593   36.5987 H   0  0  0  0  0  0  0  0  0  0  0  0
   42.8503   36.3232   38.1281 H   0  0  0  0  0  0  0  0  0  0  0  0
   44.3085   33.3543   39.2858 H   0  0  0  0  0  0  0  0  0  0  0  0
   46.2415   33.3921   40.8474 H   0  0  0  0  0  0  0  0  0  0  0  0
   44.2113   36.3260   43.1078 H   0  0  0  0  0  0  0  0  0  0  0  0
  2 14  1  0
  2  1  2  0
  3  2  1  0
  4  3  2  0
  4  5  1  0
  5  6  2  0
  6  1  1  0
  7  5  1  0
  8  9  1  0
  8  7  1  0
  9 10  2  0
 10 11  1  0
 12 11  1  0
 13  9  1  0
 13 12  2  0
 15 14  1  0
 16 15  2  0
 17 16  1  0
 18 17  2  0
 18 19  1  0
 19 20  2  0
 20 15  1  0
 20 21  1  0
 21 26  1  0
 22 21  2  0
 22 23  1  0
 23 24  2  0
 24 25  1  0
 26 25  2  0
  1 27  1  0
  3 28  1  0
  7 29  1  0
  7 30  1  0
  8 31  1  0
  8 32  1  0
 10 33  1  0
 11 34  1  0
 12 35  1  0
 16 36  1  0
 17 37  1  0
 18 38  1  0
 19 39  1  0
 22 40  1  0
 23 41  1  0
 25 42  1  0
M  ISO  8  27  14  28  14  29   8  30   8  31   8  32   8  33  14  34   9
M  ISO  8  35  14  36  14  37  14  38  14  39  14  40  14  41  14  42  14
M  END
>  <minimizedAffinity>  (1) 
-5.41237068

>  <minimizedRMSD>  (1) 
0.476582408

$$$$
