
     RDKit          3D

 45 48  0  0  0  0  0  0  0  0999 V2000
   38.5820   31.7640   41.2240 C   0  0  0  0  0  0  0  0  0  0  0  0
   39.9400   31.6040   40.9050 C   0  0  0  0  0  0  0  0  0  0  0  0
   40.3600   30.3690   40.4580 C   0  0  0  0  0  0  0  0  0  0  0  0
   39.4570   29.3720   40.3460 N   0  0  0  0  0  0  0  0  0  0  0  0
   38.1620   29.5620   40.6610 C   0  0  0  0  0  0  0  0  0  0  0  0
   37.6850   30.7360   41.1010 N   0  0  0  0  0  0  0  0  0  0  0  0
   37.2180   28.4160   40.5130 C   0  0  0  0  0  0  0  0  0  0  0  0
   35.9000   28.8300   39.9320 C   0  0  0  0  0  0  0  0  0  0  0  0
   35.3530   27.9430   38.9490 N   0  0  0  0  0  0  0  0  0  0  0  0
   36.0320   27.1340   38.1040 C   0  0  0  0  0  0  0  0  0  0  0  0
   35.3570   26.3460   37.2230 C   0  0  0  0  0  0  0  0  0  0  0  0
   33.9810   26.3080   37.1220 C   0  0  0  0  0  0  0  0  0  0  0  0
   33.3120   25.5990   36.3270 O   0  0  0  0  0  0  0  0  0  0  0  0
   33.3180   27.1250   37.9770 N   0  0  0  0  0  0  0  0  0  0  0  0
   33.9910   27.9050   38.8500 C   0  0  0  0  0  0  0  0  0  0  0  0
   33.2850   28.6270   39.5990 O   0  0  0  0  0  0  0  0  0  0  0  0
   41.0700   32.9630   41.0770 S   0  0  0  0  0  0  0  0  0  0  0  0
   40.9870   34.0180   39.6700 C   0  0  0  0  0  0  0  0  0  0  0  0
   39.9000   34.0540   38.8030 C   0  0  0  0  0  0  0  0  0  0  0  0
   39.9090   34.9150   37.7130 C   0  0  0  0  0  0  0  0  0  0  0  0
   40.9680   35.7380   37.4640 C   0  0  0  0  0  0  0  0  0  0  0  0
   42.0450   35.6980   38.3300 C   0  0  0  0  0  0  0  0  0  0  0  0
   42.0770   34.8480   39.4380 C   0  0  0  0  0  0  0  0  0  0  0  0
   43.2140   34.8220   40.3310 C   0  0  0  0  0  0  0  0  0  0  0  0
   44.2980   34.0310   40.1690 C   0  0  0  0  0  0  0  0  0  0  0  0
   45.3840   34.0280   41.0500 C   0  0  0  0  0  0  0  0  0  0  0  0
   45.3540   34.8520   42.1140 N   0  0  0  0  0  0  0  0  0  0  0  0
   44.2690   35.6450   42.2780 C   0  0  0  0  0  0  0  0  0  0  0  0
   43.2380   35.6270   41.4140 N   0  0  0  0  0  0  0  0  0  0  0  0
   38.2286   32.7420   41.5826 H   0  0  0  0  0  0  0  0  0  0  0  0
   41.4149   30.1989   40.1967 H   0  0  0  0  0  0  0  0  0  0  0  0
   37.6751   27.6655   39.8514 H   0  0  0  0  0  0  0  0  0  0  0  0
   37.0276   28.0078   41.5166 H   0  0  0  0  0  0  0  0  0  0  0  0
   35.1763   28.9097   40.7566 H   0  0  0  0  0  0  0  0  0  0  0  0
   36.0852   29.7808   39.4108 H   0  0  0  0  0  0  0  0  0  0  0  0
   37.1315   27.1129   38.1288 H   0  0  0  0  0  0  0  0  0  0  0  0
   35.9430   25.7011   36.5516 H   0  0  0  0  0  0  0  0  0  0  0  0
   32.2885   27.1511   37.9605 H   0  0  0  0  0  0  0  0  0  0  0  0
   39.0331   33.4006   38.9805 H   0  0  0  0  0  0  0  0  0  0  0  0
   39.0427   34.9336   37.0354 H   0  0  0  0  0  0  0  0  0  0  0  0
   40.9652   36.4154   36.5973 H   0  0  0  0  0  0  0  0  0  0  0  0
   42.9049   36.3572   38.1402 H   0  0  0  0  0  0  0  0  0  0  0  0
   44.3274   33.3560   39.3009 H   0  0  0  0  0  0  0  0  0  0  0  0
   46.2452   33.3658   40.8771 H   0  0  0  0  0  0  0  0  0  0  0  0
   44.2293   36.3237   43.1428 H   0  0  0  0  0  0  0  0  0  0  0  0
  2 17  1  0
  2  1  2  0
  3  2  1  0
  4  3  2  0
  4  5  1  0
  5  6  2  0
  6  1  1  0
  7  5  1  0
  8  7  1  0
  9  8  1  0
 10  9  1  0
 11 10  2  0
 12 11  1  0
 12 14  1  0
 13 12  2  0
 14 15  1  0
 15  9  1  0
 15 16  2  0
 18 17  1  0
 19 18  2  0
 20 19  1  0
 21 20  2  0
 21 22  1  0
 22 23  2  0
 23 18  1  0
 23 24  1  0
 24 29  1  0
 25 24  2  0
 25 26  1  0
 26 27  2  0
 27 28  1  0
 29 28  2  0
  1 30  1  0
  3 31  1  0
  7 32  1  0
  7 33  1  0
  8 34  1  0
  8 35  1  0
 10 36  1  0
 11 37  1  0
 14 38  1  0
 19 39  1  0
 20 40  1  0
 21 41  1  0
 22 42  1  0
 25 43  1  0
 26 44  1  0
 28 45  1  0
M  ISO  8  30  14  31  14  32   8  33   8  34   8  35   8  36  14  37  14
M  ISO  8  38   9  39  14  40  14  41  14  42  14  43  14  44  14  45  14
M  END
>  <minimizedAffinity>  (1) 
-5.40782499

>  <minimizedRMSD>  (1) 
1.93962193

$$$$
