
     RDKit          3D

 23 24  0  0  1  0  0  0  0  0999 V2000
   45.0840   33.6350   47.1110 O   0  0  0  0  0  0  0  0  0  0  0  0
   44.5920   36.0260   44.5210 C   0  0  0  0  0  0  0  0  0  0  0  0
   45.2310   35.4700   43.4030 C   0  0  0  0  0  0  0  0  0  0  0  0
   45.8470   34.2230   43.5740 C   0  0  0  0  0  0  0  0  0  0  0  0
   45.7870   33.6340   44.8060 N   0  0  0  0  0  0  0  0  0  0  0  0
   45.1650   34.1990   45.8500 C   0  0  0  0  0  0  0  0  0  0  0  0
   44.5720   35.3960   45.6930 N   0  0  0  0  0  0  0  0  0  0  0  0
   45.6740   32.1470   48.8950 C   0  0  2  0  0  0  0  0  0  0  0  0
   45.6750   32.3990   47.3960 C   0  0  2  0  0  0  0  0  0  0  0  0
   47.1860   32.4280   47.1520 C   0  0  0  0  0  0  0  0  0  0  0  0
   47.6450   31.3490   47.8950 O   0  0  0  0  0  0  0  0  0  0  0  0
   46.8910   31.2770   49.0440 C   0  0  0  0  0  0  0  0  0  0  0  0
   44.4980   31.5310   49.3200 O   0  0  0  0  0  0  0  0  0  0  0  0
   44.0968   37.0037   44.4270 H   0  0  0  0  0  0  0  0  0  0  0  0
   45.2479   35.9903   42.4340 H   0  0  0  0  0  0  0  0  0  0  0  0
   46.3656   33.7307   42.7381 H   0  0  0  0  0  0  0  0  0  0  0  0
   45.7096   33.0557   49.5139 H   0  0  0  0  0  0  0  0  0  0  0  0
   45.1198   31.6741   46.7826 H   0  0  0  0  0  0  0  0  0  0  0  0
   47.4162   32.2988   46.0842 H   0  0  0  0  0  0  0  0  0  0  0  0
   47.6526   33.3815   47.4402 H   0  0  0  0  0  0  0  0  0  0  0  0
   47.4894   31.6255   49.8986 H   0  0  0  0  0  0  0  0  0  0  0  0
   46.5808   30.2358   49.2165 H   0  0  0  0  0  0  0  0  0  0  0  0
   44.4717   31.5172   50.3096 H   0  0  0  0  0  0  0  0  0  0  0  0
  2  7  2  0
  3  4  2  0
  3  2  1  0
  4  5  1  0
  5  6  2  0
  6  1  1  0
  7  6  1  0
  8 12  1  0
  8 13  1  0
  9  1  1  0
  9  8  1  0
 10  9  1  0
 10 11  1  0
 11 12  1  0
  2 14  1  0
  3 15  1  0
  4 16  1  0
  8 17  1  1
  9 18  1  6
 10 19  1  0
 10 20  1  0
 12 21  1  0
 12 22  1  0
 13 23  1  0
M  ISO  8  14  14  15  14  16  14  17  13  18  13  19  13  20  13  21  13
M  ISO  2  22  13  23   3
M  END
>  <minimizedAffinity>  (1) 
-4.58223391

>  <minimizedRMSD>  (1) 
0.306559622

$$$$
