
     RDKit          3D

 20 21  0  0  0  0  0  0  0  0999 V2000
   44.7190   35.9410   44.4060 C   0  0  0  0  0  0  0  0  0  0  0  0
   45.4610   35.2150   43.4430 C   0  0  0  0  0  0  0  0  0  0  0  0
   45.9710   33.9750   43.8370 C   0  0  0  0  0  0  0  0  0  0  0  0
   45.7430   33.5270   45.0940 N   0  0  0  0  0  0  0  0  0  0  0  0
   45.0240   34.2630   45.9820 C   0  0  0  0  0  0  0  0  0  0  0  0
   44.5280   35.4460   45.6250 N   0  0  0  0  0  0  0  0  0  0  0  0
   44.7670   33.8420   47.2780 O   0  0  0  0  0  0  0  0  0  0  0  0
   45.5410   32.7770   47.7340 C   0  0  0  0  0  0  0  0  0  0  0  0
   44.9920   31.6090   48.2500 C   0  0  0  0  0  0  0  0  0  0  0  0
   45.7290   30.5520   48.7030 C   0  0  0  0  0  0  0  0  0  0  0  0
   47.1080   30.6210   48.6560 C   0  0  0  0  0  0  0  0  0  0  0  0
   47.6470   31.7820   48.1430 C   0  0  0  0  0  0  0  0  0  0  0  0
   46.9050   32.8360   47.6920 N   0  0  0  0  0  0  0  0  0  0  0  0
   44.2972   36.9224   44.1434 H   0  0  0  0  0  0  0  0  0  0  0  0
   45.6285   35.6095   42.4299 H   0  0  0  0  0  0  0  0  0  0  0  0
   46.5542   33.3666   43.1300 H   0  0  0  0  0  0  0  0  0  0  0  0
   43.8958   31.5310   48.2964 H   0  0  0  0  0  0  0  0  0  0  0  0
   45.2302   29.6559   49.1008 H   0  0  0  0  0  0  0  0  0  0  0  0
   47.7420   29.7942   49.0088 H   0  0  0  0  0  0  0  0  0  0  0  0
   48.7428   31.8642   48.0940 H   0  0  0  0  0  0  0  0  0  0  0  0
  1  6  2  0
  2  3  2  0
  2  1  1  0
  3  4  1  0
  4  5  2  0
  5  7  1  0
  6  5  1  0
  7  8  1  0
  8  9  2  0
  9 10  1  0
 11 10  2  0
 12 11  1  0
 13  8  1  0
 13 12  2  0
  1 14  1  0
  2 15  1  0
  3 16  1  0
  9 17  1  0
 10 18  1  0
 11 19  1  0
 12 20  1  0
M  ISO  7  14  14  15  14  16  14  17  14  18  14  19  14  20  14
M  END
>  <minimizedAffinity>  (1) 
-4.29122877

>  <minimizedRMSD>  (1) 
0.83043462

$$$$
