
     RDKit          3D

 19 20  0  0  0  0  0  0  0  0999 V2000
   44.7110   35.9370   44.4430 C   0  0  0  0  0  0  0  0  0  0  0  0
   45.4740   35.2680   43.4480 C   0  0  0  0  0  0  0  0  0  0  0  0
   46.0300   34.0280   43.7980 C   0  0  0  0  0  0  0  0  0  0  0  0
   45.7970   33.5610   45.0610 N   0  0  0  0  0  0  0  0  0  0  0  0
   45.0710   34.2260   45.9670 C   0  0  0  0  0  0  0  0  0  0  0  0
   44.5290   35.4110   45.6570 N   0  0  0  0  0  0  0  0  0  0  0  0
   44.8430   33.7330   47.2500 O   0  0  0  0  0  0  0  0  0  0  0  0
   45.6980   32.7420   47.6990 C   0  0  0  0  0  0  0  0  0  0  0  0
   45.0190   31.6440   48.2390 C   0  0  0  0  0  0  0  0  0  0  0  0
   45.6940   30.5690   48.7340 C   0  0  0  0  0  0  0  0  0  0  0  0
   47.0590   30.5880   48.6900 N   0  0  0  0  0  0  0  0  0  0  0  0
   47.7170   31.6610   48.1630 C   0  0  0  0  0  0  0  0  0  0  0  0
   47.0430   32.7200   47.6770 N   0  0  0  0  0  0  0  0  0  0  0  0
   44.2593   36.9119   44.2075 H   0  0  0  0  0  0  0  0  0  0  0  0
   45.6221   35.7027   42.4484 H   0  0  0  0  0  0  0  0  0  0  0  0
   46.6326   33.4518   43.0805 H   0  0  0  0  0  0  0  0  0  0  0  0
   43.9193   31.6489   48.2643 H   0  0  0  0  0  0  0  0  0  0  0  0
   45.1543   29.7092   49.1576 H   0  0  0  0  0  0  0  0  0  0  0  0
   48.8166   31.6606   48.1349 H   0  0  0  0  0  0  0  0  0  0  0  0
  1  6  2  0
  2  3  2  0
  2  1  1  0
  3  4  1  0
  4  5  2  0
  5  7  1  0
  6  5  1  0
  7  8  1  0
  8  9  2  0
  9 10  1  0
 11 10  2  0
 12 11  1  0
 13  8  1  0
 13 12  2  0
  1 14  1  0
  2 15  1  0
  3 16  1  0
  9 17  1  0
 10 18  1  0
 12 19  1  0
M  ISO  6  14  14  15  14  16  14  17  14  18  14  19  14
M  END
>  <minimizedAffinity>  (1) 
-4.25997639

>  <minimizedRMSD>  (1) 
0.675019562

$$$$
