
     RDKit          3D

 15 15  0  0  0  0  0  0  0  0999 V2000
   44.4230   35.8060   44.4680 C   0  0  0  0  0  0  0  0  0  0  0  0
   44.9320   35.9080   43.1680 C   0  0  0  0  0  0  0  0  0  0  0  0
   46.0240   35.0890   42.8180 C   0  0  0  0  0  0  0  0  0  0  0  0
   46.5060   34.2570   43.7690 N   0  0  0  0  0  0  0  0  0  0  0  0
   46.0040   34.1730   45.0110 C   0  0  0  0  0  0  0  0  0  0  0  0
   44.9610   34.9580   45.3400 N   0  0  0  0  0  0  0  0  0  0  0  0
   46.4910   33.3270   45.9850 O   0  0  0  0  0  0  0  0  0  0  0  0
   45.6380   32.6860   46.9000 C   0  0  0  0  0  0  0  0  0  0  0  0
   45.7320   31.4280   46.8050 O   0  0  0  0  0  0  0  0  0  0  0  0
   44.7890   33.4050   47.8050 N   0  0  0  0  0  0  0  0  0  0  0  0
   43.5710   36.4324   44.7709 H   0  0  0  0  0  0  0  0  0  0  0  0
   44.4925   36.6069   42.4411 H   0  0  0  0  0  0  0  0  0  0  0  0
   46.4666   35.1250   41.8116 H   0  0  0  0  0  0  0  0  0  0  0  0
   44.1803   32.8914   48.4582 H   0  0  0  0  0  0  0  0  0  0  0  0
   44.7879   34.4350   47.8018 H   0  0  0  0  0  0  0  0  0  0  0  0
  1  6  2  0
  2  1  1  0
  3  2  2  0
  3  4  1  0
  4  5  2  0
  5  6  1  0
  5  7  1  0
  7  8  1  0
  8 10  1  0
  9  8  2  0
  1 11  1  0
  2 12  1  0
  3 13  1  0
 10 14  1  0
 10 15  1  0
M  ISO  3  11  14  12  14  13  14
M  END
>  <minimizedAffinity>  (1) 
-3.89592338

>  <minimizedRMSD>  (1) 
1.27962732

$$$$
