
     RDKit          3D

 17 17  0  0  0  0  0  0  0  0999 V2000
   44.5070   36.0240   44.5290 C   0  0  0  0  0  0  0  0  0  0  0  0
   45.1950   35.9080   43.3100 C   0  0  0  0  0  0  0  0  0  0  0  0
   46.0960   34.8400   43.1610 C   0  0  0  0  0  0  0  0  0  0  0  0
   46.2500   33.9900   44.1920 N   0  0  0  0  0  0  0  0  0  0  0  0
   45.5790   34.1190   45.3560 C   0  0  0  0  0  0  0  0  0  0  0  0
   44.7120   35.1410   45.5070 N   0  0  0  0  0  0  0  0  0  0  0  0
   45.7120   33.2620   46.4420 O   0  0  0  0  0  0  0  0  0  0  0  0
   46.7880   32.3700   46.5970 C   0  0  0  0  0  0  0  0  0  0  0  0
   47.3770   32.3630   47.9860 C   0  0  0  0  0  0  0  0  0  0  0  0
   43.7944   36.8486   44.6779 H   0  0  0  0  0  0  0  0  0  0  0  0
   45.0335   36.6310   42.4969 H   0  0  0  0  0  0  0  0  0  0  0  0
   46.6600   34.7028   42.2266 H   0  0  0  0  0  0  0  0  0  0  0  0
   46.4332   31.3549   46.3655 H   0  0  0  0  0  0  0  0  0  0  0  0
   47.5825   32.7040   45.9135 H   0  0  0  0  0  0  0  0  0  0  0  0
   46.5654   32.3726   48.7285 H   0  0  0  0  0  0  0  0  0  0  0  0
   47.9868   31.4575   48.1211 H   0  0  0  0  0  0  0  0  0  0  0  0
   48.0082   33.2537   48.1211 H   0  0  0  0  0  0  0  0  0  0  0  0
  1  6  2  0
  2  1  1  0
  3  2  2  0
  3  4  1  0
  4  5  2  0
  5  6  1  0
  5  7  1  0
  7  8  1  0
  8  9  1  0
  1 10  1  0
  2 11  1  0
  3 12  1  0
  8 13  1  0
  8 14  1  0
  9 15  1  0
  9 16  1  0
  9 17  1  0
M  ISO  8  10  14  11  14  12  14  13   8  14   8  15   8  16   8  17   8
M  END
>  <minimizedAffinity>  (1) 
-3.3658793

>  <minimizedRMSD>  (1) 
0.76151067

$$$$
