
     RDKit          3D

 13 13  0  0  0  0  0  0  0  0999 V2000
   44.5250   36.0410   44.5160 C   0  0  0  0  0  0  0  0  0  0  0  0
   45.2260   35.8960   43.3050 C   0  0  0  0  0  0  0  0  0  0  0  0
   46.0840   34.8000   43.2180 C   0  0  0  0  0  0  0  0  0  0  0  0
   46.1980   33.9560   44.2660 N   0  0  0  0  0  0  0  0  0  0  0  0
   45.5040   34.1390   45.4080 C   0  0  0  0  0  0  0  0  0  0  0  0
   44.6780   35.1740   45.5220 N   0  0  0  0  0  0  0  0  0  0  0  0
   45.6050   33.2850   46.5010 O   0  0  0  0  0  0  0  0  0  0  0  0
   46.7580   32.5380   46.7500 C   0  0  0  0  0  0  0  0  0  0  0  0
   47.4610   32.6100   47.8140 O   0  0  0  0  0  0  0  0  0  0  0  0
   43.8342   36.8883   44.6381 H   0  0  0  0  0  0  0  0  0  0  0  0
   45.1043   36.6065   42.4741 H   0  0  0  0  0  0  0  0  0  0  0  0
   46.6648   34.6240   42.3006 H   0  0  0  0  0  0  0  0  0  0  0  0
   47.0858   31.8341   45.9708 H   0  0  0  0  0  0  0  0  0  0  0  0
  1  6  2  0
  2  1  1  0
  3  2  2  0
  3  4  1  0
  4  5  2  0
  5  6  1  0
  5  7  1  0
  7  8  1  0
  8  9  2  0
  1 10  1  0
  2 11  1  0
  3 12  1  0
  8 13  1  0
M  ISO  4  10  14  11  14  12  14  13   6
M  END
>  <minimizedAffinity>  (1) 
-3.35987473

>  <minimizedRMSD>  (1) 
1.25255847

$$$$
