
     RDKit          3D

 25 26  0  0  0  0  0  0  0  0999 V2000
   45.8600   30.6830   46.7460 C   0  0  0  0  0  0  0  0  0  0  0  0
   46.3380   31.9270   47.0260 C   0  0  0  0  0  0  0  0  0  0  0  0
   46.0950   32.4180   48.3200 C   0  0  0  0  0  0  0  0  0  0  0  0
   45.4130   31.6950   49.2630 C   0  0  0  0  0  0  0  0  0  0  0  0
   44.9410   30.4350   48.9420 C   0  0  0  0  0  0  0  0  0  0  0  0
   45.1690   29.9320   47.6780 C   0  0  0  0  0  0  0  0  0  0  0  0
   46.1920   30.1280   45.1250 S   0  0  0  0  0  0  0  0  0  0  0  0
   45.1210   30.5560   44.1650 O   0  0  0  0  0  0  0  0  0  0  0  0
   46.1780   28.6090   45.1420 O   0  0  0  0  0  0  0  0  0  0  0  0
   47.0400   32.8070   46.2290 O   0  0  0  0  0  0  0  0  0  0  0  0
   46.7210   34.3160   43.0380 C   0  0  0  0  0  0  0  0  0  0  0  0
   45.5600   35.0760   43.1520 C   0  0  0  0  0  0  0  0  0  0  0  0
   44.8760   35.0630   44.3620 C   0  0  0  0  0  0  0  0  0  0  0  0
   45.3860   34.3100   45.3530 N   0  0  0  0  0  0  0  0  0  0  0  0
   46.5050   33.5840   45.2240 C   0  0  0  0  0  0  0  0  0  0  0  0
   47.1670   33.5930   44.0630 N   0  0  0  0  0  0  0  0  0  0  0  0
   43.7090   35.7450   44.6830 O   0  0  0  0  0  0  0  0  0  0  0  0
   46.4657   33.4190   48.5854 H   0  0  0  0  0  0  0  0  0  0  0  0
   45.2423   32.1127   50.2662 H   0  0  0  0  0  0  0  0  0  0  0  0
   44.3902   29.8410   49.6861 H   0  0  0  0  0  0  0  0  0  0  0  0
   44.7999   28.9307   47.4111 H   0  0  0  0  0  0  0  0  0  0  0  0
   47.3950   30.6506   44.7294 H   0  0  0  0  0  0  0  0  0  0  0  0
   47.2769   34.3129   42.0888 H   0  0  0  0  0  0  0  0  0  0  0  0
   45.1926   35.6729   42.3042 H   0  0  0  0  0  0  0  0  0  0  0  0
   43.3151   35.6540   45.5867 H   0  0  0  0  0  0  0  0  0  0  0  0
  1  2  2  0
  1  6  1  0
  2  3  1  0
  3  4  2  0
  5  4  1  0
  6  5  2  0
  7  9  2  0
  7  1  1  0
  8  7  2  0
 10  2  1  0
 11 12  2  0
 11 16  1  0
 12 13  1  0
 13 17  1  0
 13 14  2  0
 15 14  1  0
 15 10  1  0
 16 15  2  0
  3 18  1  0
  4 19  1  0
  5 20  1  0
  6 21  1  0
  7 22  1  0
 11 23  1  0
 12 24  1  0
 17 25  1  0
M  ISO  8  18  14  19  14  20  14  21  14  22  11  23  14  24  14  25   3
M  END
>  <minimizedAffinity>  (1) 
-5.09270811

>  <minimizedRMSD>  (1) 
0.49393943

$$$$
