
     RDKit          3D

 27 28  0  0  0  0  0  0  0  0999 V2000
   45.6840   30.3860   47.0100 C   0  0  0  0  0  0  0  0  0  0  0  0
   46.4370   31.5180   46.9000 C   0  0  0  0  0  0  0  0  0  0  0  0
   46.4950   32.3680   48.0040 C   0  0  0  0  0  0  0  0  0  0  0  0
   45.8250   32.0910   49.1720 C   0  0  0  0  0  0  0  0  0  0  0  0
   45.0630   30.9330   49.2610 C   0  0  0  0  0  0  0  0  0  0  0  0
   44.9990   30.0780   48.1620 C   0  0  0  0  0  0  0  0  0  0  0  0
   45.6640   29.3810   45.5900 S   0  0  0  0  0  0  0  0  0  0  0  0
   44.8590   29.9890   44.4800 O   0  0  0  0  0  0  0  0  0  0  0  0
   44.9720   28.0720   45.9590 O   0  0  0  0  0  0  0  0  0  0  0  0
   47.1810   31.9740   45.8240 O   0  0  0  0  0  0  0  0  0  0  0  0
   47.2610   34.0130   42.9320 C   0  0  0  0  0  0  0  0  0  0  0  0
   46.2090   34.9100   43.1330 C   0  0  0  0  0  0  0  0  0  0  0  0
   45.4690   34.7910   44.2990 C   0  0  0  0  0  0  0  0  0  0  0  0
   45.8010   33.8250   45.1680 N   0  0  0  0  0  0  0  0  0  0  0  0
   46.8180   32.9710   44.9550 C   0  0  0  0  0  0  0  0  0  0  0  0
   47.5390   33.0780   43.8320 N   0  0  0  0  0  0  0  0  0  0  0  0
   44.3610   35.7350   44.5120 C   0  0  0  0  0  0  0  0  0  0  0  0
   47.0948   33.2877   47.9383 H   0  0  0  0  0  0  0  0  0  0  0  0
   45.8916   32.7794   50.0274 H   0  0  0  0  0  0  0  0  0  0  0  0
   44.5177   30.6940   50.1859 H   0  0  0  0  0  0  0  0  0  0  0  0
   44.4004   29.1567   48.2162 H   0  0  0  0  0  0  0  0  0  0  0  0
   46.9574   29.2156   45.1698 H   0  0  0  0  0  0  0  0  0  0  0  0
   47.8665   34.0825   42.0163 H   0  0  0  0  0  0  0  0  0  0  0  0
   45.9753   35.6862   42.3894 H   0  0  0  0  0  0  0  0  0  0  0  0
   44.1991   35.8729   45.5913 H   0  0  0  0  0  0  0  0  0  0  0  0
   44.6102   36.7026   44.0520 H   0  0  0  0  0  0  0  0  0  0  0  0
   43.4452   35.3353   44.0520 H   0  0  0  0  0  0  0  0  0  0  0  0
  1  6  2  0
  2  1  1  0
  2  3  2  0
  3  4  1  0
  4  5  2  0
  6  5  1  0
  7  9  2  0
  7  1  1  0
  8  7  2  0
 10  2  1  0
 11 12  2  0
 11 16  1  0
 12 13  1  0
 13 17  1  0
 13 14  2  0
 15 14  1  0
 15 10  1  0
 16 15  2  0
  3 18  1  0
  4 19  1  0
  5 20  1  0
  6 21  1  0
  7 22  1  0
 11 23  1  0
 12 24  1  0
 17 25  1  0
 17 26  1  0
 17 27  1  0
M  ISO  8  18  14  19  14  20  14  21  14  22  11  23  14  24  14  25   8
M  ISO  2  26   8  27   8
M  END
>  <minimizedAffinity>  (1) 
-4.6834507

>  <minimizedRMSD>  (1) 
1.08651042

$$$$
