
     RDKit          3D

 30 31  0  0  0  0  0  0  0  0999 V2000
   45.6440   30.4380   46.9030 C   0  0  0  0  0  0  0  0  0  0  0  0
   46.4430   31.5250   46.6710 C   0  0  0  0  0  0  0  0  0  0  0  0
   46.5880   32.4490   47.7020 C   0  0  0  0  0  0  0  0  0  0  0  0
   45.9530   32.2870   48.9230 C   0  0  0  0  0  0  0  0  0  0  0  0
   45.1540   31.1820   49.1290 C   0  0  0  0  0  0  0  0  0  0  0  0
   45.0060   30.2570   48.1030 C   0  0  0  0  0  0  0  0  0  0  0  0
   45.5140   29.3300   45.5640 S   0  0  0  0  0  0  0  0  0  0  0  0
   44.7330   29.9250   44.4200 O   0  0  0  0  0  0  0  0  0  0  0  0
   44.7000   28.1350   46.0390 O   0  0  0  0  0  0  0  0  0  0  0  0
   47.1530   31.8630   45.5370 O   0  0  0  0  0  0  0  0  0  0  0  0
   45.2230   34.3070   43.8480 C   0  0  0  0  0  0  0  0  0  0  0  0
   46.1540   34.9040   42.9790 C   0  0  0  0  0  0  0  0  0  0  0  0
   47.4670   34.4350   42.9950 C   0  0  0  0  0  0  0  0  0  0  0  0
   47.7550   33.4330   43.8510 N   0  0  0  0  0  0  0  0  0  0  0  0
   46.8610   32.8840   44.6630 C   0  0  0  0  0  0  0  0  0  0  0  0
   45.5930   33.3250   44.6590 N   0  0  0  0  0  0  0  0  0  0  0  0
   48.5600   34.9670   42.1350 C   0  0  0  0  0  0  0  0  0  0  0  0
   48.2100   34.8530   40.6620 C   0  0  0  0  0  0  0  0  0  0  0  0
   47.2242   33.3322   47.5431 H   0  0  0  0  0  0  0  0  0  0  0  0
   46.0850   33.0329   49.7206 H   0  0  0  0  0  0  0  0  0  0  0  0
   44.6416   31.0352   50.0912 H   0  0  0  0  0  0  0  0  0  0  0  0
   44.3713   29.3715   48.2548 H   0  0  0  0  0  0  0  0  0  0  0  0
   46.7801   29.0126   45.1479 H   0  0  0  0  0  0  0  0  0  0  0  0
   44.1803   34.6572   43.8550 H   0  0  0  0  0  0  0  0  0  0  0  0
   45.8541   35.7195   42.3044 H   0  0  0  0  0  0  0  0  0  0  0  0
   48.7272   36.0257   42.3824 H   0  0  0  0  0  0  0  0  0  0  0  0
   49.4678   34.3748   42.3224 H   0  0  0  0  0  0  0  0  0  0  0  0
   47.1688   34.5139   40.5577 H   0  0  0  0  0  0  0  0  0  0  0  0
   48.3257   35.8353   40.1806 H   0  0  0  0  0  0  0  0  0  0  0  0
   48.8820   34.1273   40.1806 H   0  0  0  0  0  0  0  0  0  0  0  0
  1  6  2  0
  2  1  1  0
  2  3  2  0
  3  4  1  0
  4  5  2  0
  6  5  1  0
  7  9  2  0
  7  1  1  0
  8  7  2  0
 10  2  1  0
 11 16  2  0
 12 13  2  0
 12 11  1  0
 13 14  1  0
 14 15  2  0
 15 10  1  0
 16 15  1  0
 17 13  1  0
 18 17  1  0
  3 19  1  0
  4 20  1  0
  5 21  1  0
  6 22  1  0
  7 23  1  0
 11 24  1  0
 12 25  1  0
 17 26  1  0
 17 27  1  0
 18 28  1  0
 18 29  1  0
 18 30  1  0
M  ISO  8  19  14  20  14  21  14  22  14  23  11  24  14  25  14  26   8
M  ISO  4  27   8  28   8  29   8  30   8
M  END
>  <minimizedAffinity>  (1) 
-4.86386728

>  <minimizedRMSD>  (1) 
2.84685445

$$$$
