
     RDKit          3D

 46 48  0  0  0  0  0  0  0  0999 V2000
   44.4950   35.3540   45.3580 C   0  0  0  0  0  0  0  0  0  0  0  0
   44.8300   35.5770   44.0070 C   0  0  0  0  0  0  0  0  0  0  0  0
   45.8610   34.8520   43.4440 C   0  0  0  0  0  0  0  0  0  0  0  0
   46.4760   33.9740   44.2420 N   0  0  0  0  0  0  0  0  0  0  0  0
   46.1600   33.7640   45.5120 C   0  0  0  0  0  0  0  0  0  0  0  0
   45.1650   34.4610   46.0650 N   0  0  0  0  0  0  0  0  0  0  0  0
   46.3080   35.0110   42.0340 C   0  0  0  0  0  0  0  0  0  0  0  0
   46.6790   33.6870   41.4200 C   0  0  0  0  0  0  0  0  0  0  0  0
   48.1030   33.6310   40.9560 C   0  0  0  0  0  0  0  0  0  0  0  0
   48.6050   32.2690   40.6580 C   0  0  0  0  0  0  0  0  0  0  0  0
   49.4010   32.2210   39.3470 C   0  0  0  0  0  0  0  0  0  0  0  0
   48.4450   32.6010   38.2580 C   0  0  0  0  0  0  0  0  0  0  0  0
   47.8790   33.9710   38.4850 C   0  0  0  0  0  0  0  0  0  0  0  0
   48.3070   34.5850   39.7980 C   0  0  0  0  0  0  0  0  0  0  0  0
   46.8120   32.8500   46.3160 O   0  0  0  0  0  0  0  0  0  0  0  0
   45.8430   30.6130   46.8120 C   0  0  0  0  0  0  0  0  0  0  0  0
   46.2110   31.8960   47.1160 C   0  0  0  0  0  0  0  0  0  0  0  0
   45.9680   32.3480   48.4030 C   0  0  0  0  0  0  0  0  0  0  0  0
   45.3720   31.5460   49.3650 C   0  0  0  0  0  0  0  0  0  0  0  0
   45.0110   30.2540   49.0270 C   0  0  0  0  0  0  0  0  0  0  0  0
   45.2540   29.7990   47.7410 C   0  0  0  0  0  0  0  0  0  0  0  0
   46.1850   30.1300   45.1780 S   0  0  0  0  0  0  0  0  0  0  0  0
   45.1590   30.6600   44.2040 O   0  0  0  0  0  0  0  0  0  0  0  0
   46.0520   28.6140   45.1190 O   0  0  0  0  0  0  0  0  0  0  0  0
   43.6765   35.9229   45.8233 H   0  0  0  0  0  0  0  0  0  0  0  0
   44.2779   36.3179   43.4101 H   0  0  0  0  0  0  0  0  0  0  0  0
   45.4920   35.4602   41.4489 H   0  0  0  0  0  0  0  0  0  0  0  0
   47.1982   35.6572   42.0249 H   0  0  0  0  0  0  0  0  0  0  0  0
   46.5243   32.8978   42.1704 H   0  0  0  0  0  0  0  0  0  0  0  0
   46.0406   33.5460   40.5354 H   0  0  0  0  0  0  0  0  0  0  0  0
   48.7204   33.9570   41.8060 H   0  0  0  0  0  0  0  0  0  0  0  0
   49.2578   31.9436   41.4814 H   0  0  0  0  0  0  0  0  0  0  0  0
   47.7357   31.6036   40.5509 H   0  0  0  0  0  0  0  0  0  0  0  0
   50.2383   32.9334   39.3840 H   0  0  0  0  0  0  0  0  0  0  0  0
   49.8253   31.2209   39.1743 H   0  0  0  0  0  0  0  0  0  0  0  0
   47.6213   31.8723   38.2336 H   0  0  0  0  0  0  0  0  0  0  0  0
   48.9898   32.6038   37.3024 H   0  0  0  0  0  0  0  0  0  0  0  0
   48.2134   34.6267   37.6676 H   0  0  0  0  0  0  0  0  0  0  0  0
   46.7840   33.8702   38.5142 H   0  0  0  0  0  0  0  0  0  0  0  0
   49.3731   34.8489   39.7373 H   0  0  0  0  0  0  0  0  0  0  0  0
   47.6892   35.4775   39.9764 H   0  0  0  0  0  0  0  0  0  0  0  0
   46.2568   33.3752   48.6703 H   0  0  0  0  0  0  0  0  0  0  0  0
   45.1895   31.9307   50.3793 H   0  0  0  0  0  0  0  0  0  0  0  0
   44.5368   29.5960   49.7701 H   0  0  0  0  0  0  0  0  0  0  0  0
   44.9705   28.7729   47.4640 H   0  0  0  0  0  0  0  0  0  0  0  0
   47.4274   30.6029   44.8468 H   0  0  0  0  0  0  0  0  0  0  0  0
  1  6  2  0
  2  1  1  0
  3  2  2  0
  3  4  1  0
  4  5  2  0
  5  6  1  0
  5 15  1  0
  7  3  1  0
  8  7  1  0
  9  8  1  0
 10  9  1  0
 11 10  1  0
 12 13  1  0
 12 11  1  0
 13 14  1  0
 14  9  1  0
 15 17  1  0
 16 17  2  0
 16 21  1  0
 17 18  1  0
 18 19  2  0
 20 19  1  0
 21 20  2  0
 22 16  1  0
 23 22  2  0
 24 22  2  0
  1 25  1  0
  2 26  1  0
  7 27  1  0
  7 28  1  0
  8 29  1  0
  8 30  1  0
  9 31  1  0
 10 32  1  0
 10 33  1  0
 11 34  1  0
 11 35  1  0
 12 36  1  0
 12 37  1  0
 13 38  1  0
 13 39  1  0
 14 40  1  0
 14 41  1  0
 18 42  1  0
 19 43  1  0
 20 44  1  0
 21 45  1  0
 22 46  1  0
M  ISO  8  25  14  26  14  27   8  28   8  29   8  30   8  31  13  32  13
M  ISO  8  33  13  34  13  35  13  36  13  37  13  38  13  39  13  40  13
M  ISO  6  41  13  42  14  43  14  44  14  45  14  46  11
M  END
>  <minimizedAffinity>  (1) 
-5.6034956

>  <minimizedRMSD>  (1) 
2.59437776

$$$$
