
     RDKit          3D

 43 45  0  0  0  0  0  0  0  0999 V2000
   45.2060   34.3980   43.9640 C   0  0  0  0  0  0  0  0  0  0  0  0
   46.1530   34.9580   43.0710 C   0  0  0  0  0  0  0  0  0  0  0  0
   47.4210   34.4110   43.0380 C   0  0  0  0  0  0  0  0  0  0  0  0
   47.6790   33.3820   43.8530 N   0  0  0  0  0  0  0  0  0  0  0  0
   46.7930   32.8590   44.6870 C   0  0  0  0  0  0  0  0  0  0  0  0
   45.5480   33.3780   44.7360 N   0  0  0  0  0  0  0  0  0  0  0  0
   48.4800   34.9340   42.1330 C   0  0  0  0  0  0  0  0  0  0  0  0
   48.1050   34.8120   40.6720 C   0  0  0  0  0  0  0  0  0  0  0  0
   47.7060   33.4130   40.2730 C   0  0  0  0  0  0  0  0  0  0  0  0
   46.8100   33.4960   39.0730 C   0  0  0  0  0  0  0  0  0  0  0  0
   47.7850   33.7740   37.9540 C   0  0  0  0  0  0  0  0  0  0  0  0
   48.8400   32.6960   38.2370 C   0  0  0  0  0  0  0  0  0  0  0  0
   48.9310   32.7070   39.7430 C   0  0  0  0  0  0  0  0  0  0  0  0
   47.0530   31.8050   45.5230 O   0  0  0  0  0  0  0  0  0  0  0  0
   45.5240   30.4960   46.9800 C   0  0  0  0  0  0  0  0  0  0  0  0
   46.3880   31.5120   46.7030 C   0  0  0  0  0  0  0  0  0  0  0  0
   46.6720   32.4120   47.7370 C   0  0  0  0  0  0  0  0  0  0  0  0
   46.0970   32.2790   48.9920 C   0  0  0  0  0  0  0  0  0  0  0  0
   45.2260   31.2370   49.2350 C   0  0  0  0  0  0  0  0  0  0  0  0
   44.9450   30.3430   48.2110 C   0  0  0  0  0  0  0  0  0  0  0  0
   45.2260   29.4230   45.6430 S   0  0  0  0  0  0  0  0  0  0  0  0
   43.8830   28.7320   45.7580 O   0  0  0  0  0  0  0  0  0  0  0  0
   46.2680   28.3200   45.6850 O   0  0  0  0  0  0  0  0  0  0  0  0
   44.1875   34.8103   44.0159 H   0  0  0  0  0  0  0  0  0  0  0  0
   45.8858   35.8050   42.4220 H   0  0  0  0  0  0  0  0  0  0  0  0
   48.6508   35.9954   42.3660 H   0  0  0  0  0  0  0  0  0  0  0  0
   49.3868   34.3333   42.2969 H   0  0  0  0  0  0  0  0  0  0  0  0
   47.2599   35.4868   40.4710 H   0  0  0  0  0  0  0  0  0  0  0  0
   48.9960   35.0768   40.0838 H   0  0  0  0  0  0  0  0  0  0  0  0
   47.2409   32.9122   41.1349 H   0  0  0  0  0  0  0  0  0  0  0  0
   46.2768   32.5480   38.9090 H   0  0  0  0  0  0  0  0  0  0  0  0
   46.0220   34.2578   39.1666 H   0  0  0  0  0  0  0  0  0  0  0  0
   48.2084   34.7867   38.0251 H   0  0  0  0  0  0  0  0  0  0  0  0
   47.3499   33.7392   36.9443 H   0  0  0  0  0  0  0  0  0  0  0  0
   48.5121   31.7134   37.8667 H   0  0  0  0  0  0  0  0  0  0  0  0
   49.8028   32.8870   37.7405 H   0  0  0  0  0  0  0  0  0  0  0  0
   48.9628   31.6755   40.1237 H   0  0  0  0  0  0  0  0  0  0  0  0
   49.8449   33.2248   40.0695 H   0  0  0  0  0  0  0  0  0  0  0  0
   47.3671   33.2437   47.5498 H   0  0  0  0  0  0  0  0  0  0  0  0
   46.3339   32.9997   49.7886 H   0  0  0  0  0  0  0  0  0  0  0  0
   44.7615   31.1166   50.2248 H   0  0  0  0  0  0  0  0  0  0  0  0
   44.2531   29.5068   48.3897 H   0  0  0  0  0  0  0  0  0  0  0  0
   45.2641   30.1688   44.4944 H   0  0  0  0  0  0  0  0  0  0  0  0
  1  6  2  0
  2  1  1  0
  3  2  2  0
  3  4  1  0
  4  5  2  0
  5  6  1  0
  5 14  1  0
  7  3  1  0
  8  7  1  0
  9  8  1  0
 10  9  1  0
 11 12  1  0
 11 10  1  0
 12 13  1  0
 13  9  1  0
 14 16  1  0
 15 20  2  0
 16 15  1  0
 16 17  2  0
 17 18  1  0
 18 19  2  0
 20 19  1  0
 21 23  2  0
 21 22  2  0
 21 15  1  0
  1 24  1  0
  2 25  1  0
  7 26  1  0
  7 27  1  0
  8 28  1  0
  8 29  1  0
  9 30  1  0
 10 31  1  0
 10 32  1  0
 11 33  1  0
 11 34  1  0
 12 35  1  0
 12 36  1  0
 13 37  1  0
 13 38  1  0
 17 39  1  0
 18 40  1  0
 19 41  1  0
 20 42  1  0
 21 43  1  0
M  ISO  8  24  14  25  14  26   8  27   8  28   8  29   8  30  13  31  13
M  ISO  8  32  13  33  13  34  13  35  13  36  13  37  13  38  13  39  14
M  ISO  4  40  14  41  14  42  14  43  11
M  END
>  <minimizedAffinity>  (1) 
-5.34267092

>  <minimizedRMSD>  (1) 
1.62397528

$$$$
