
     RDKit          3D

 32 33  0  0  0  0  0  0  0  0999 V2000
   45.0260   34.6090   43.9550 C   0  0  0  0  0  0  0  0  0  0  0  0
   45.8730   35.1720   42.9740 C   0  0  0  0  0  0  0  0  0  0  0  0
   47.1720   34.7230   42.8480 C   0  0  0  0  0  0  0  0  0  0  0  0
   47.5200   33.7570   43.7030 N   0  0  0  0  0  0  0  0  0  0  0  0
   46.7460   33.2200   44.6220 C   0  0  0  0  0  0  0  0  0  0  0  0
   45.4830   33.6530   44.7480 N   0  0  0  0  0  0  0  0  0  0  0  0
   48.1370   35.2410   41.8630 C   0  0  0  0  0  0  0  0  0  0  0  0
   47.9840   34.5290   40.5180 C   0  0  0  0  0  0  0  0  0  0  0  0
   48.1300   33.1090   40.6770 N   0  0  0  0  0  0  0  0  0  0  0  0
   47.1600   32.2190   45.4850 O   0  0  0  0  0  0  0  0  0  0  0  0
   45.7090   30.6080   46.6940 C   0  0  0  0  0  0  0  0  0  0  0  0
   46.4450   31.7550   46.5800 C   0  0  0  0  0  0  0  0  0  0  0  0
   46.5040   32.5860   47.6840 C   0  0  0  0  0  0  0  0  0  0  0  0
   45.8470   32.2770   48.8650 C   0  0  0  0  0  0  0  0  0  0  0  0
   45.1170   31.1200   48.9530 C   0  0  0  0  0  0  0  0  0  0  0  0
   45.0530   30.2810   47.8480 C   0  0  0  0  0  0  0  0  0  0  0  0
   45.6820   29.6110   45.2610 S   0  0  0  0  0  0  0  0  0  0  0  0
   44.8530   30.2390   44.1590 O   0  0  0  0  0  0  0  0  0  0  0  0
   44.9700   28.3150   45.6170 O   0  0  0  0  0  0  0  0  0  0  0  0
   43.9901   34.9642   44.0592 H   0  0  0  0  0  0  0  0  0  0  0  0
   45.4978   35.9665   42.3121 H   0  0  0  0  0  0  0  0  0  0  0  0
   47.9634   36.3180   41.7216 H   0  0  0  0  0  0  0  0  0  0  0  0
   49.1542   35.0606   42.2410 H   0  0  0  0  0  0  0  0  0  0  0  0
   48.7553   34.8962   39.8250 H   0  0  0  0  0  0  0  0  0  0  0  0
   46.9811   34.7393   40.1180 H   0  0  0  0  0  0  0  0  0  0  0  0
   48.1539   32.8765   41.6801 H   0  0  0  0  0  0  0  0  0  0  0  0
   47.3338   32.6301   40.2324 H   0  0  0  0  0  0  0  0  0  0  0  0
   47.0875   33.5165   47.6234 H   0  0  0  0  0  0  0  0  0  0  0  0
   45.9111   32.9569   49.7273 H   0  0  0  0  0  0  0  0  0  0  0  0
   44.5906   30.8604   49.8834 H   0  0  0  0  0  0  0  0  0  0  0  0
   44.4716   29.3488   47.9016 H   0  0  0  0  0  0  0  0  0  0  0  0
   46.9736   29.4387   44.8378 H   0  0  0  0  0  0  0  0  0  0  0  0
  1  6  2  0
  2  1  1  0
  3  2  2  0
  3  4  1  0
  4  5  2  0
  5  6  1  0
  5 10  1  0
  7  3  1  0
  8  9  1  0
  8  7  1  0
 10 12  1  0
 11 16  2  0
 12 11  1  0
 12 13  2  0
 13 14  1  0
 14 15  2  0
 16 15  1  0
 17 19  2  0
 17 11  1  0
 18 17  2  0
  1 20  1  0
  2 21  1  0
  7 22  1  0
  7 23  1  0
  8 24  1  0
  8 25  1  0
  9 26  1  0
  9 27  1  0
 13 28  1  0
 14 29  1  0
 15 30  1  0
 16 31  1  0
 17 32  1  0
M  ISO  8  20  14  21  14  22   8  23   8  24   8  25   8  26   5  27   5
M  ISO  5  28  14  29  14  30  14  31  14  32  11
M  END
>  <minimizedAffinity>  (1) 
-4.7054677

>  <minimizedRMSD>  (1) 
0.383542538

$$$$
