
     RDKit          3D

 50 53  0  0  0  0  0  0  0  0999 V2000
   45.4810   30.1480   47.3070 C   0  0  0  0  0  0  0  0  0  0  0  0
   46.1530   31.1980   46.7790 C   0  0  0  0  0  0  0  0  0  0  0  0
   46.3830   32.2980   47.5820 C   0  0  0  0  0  0  0  0  0  0  0  0
   45.9620   32.3730   48.8880 C   0  0  0  0  0  0  0  0  0  0  0  0
   45.2800   31.2990   49.4140 C   0  0  0  0  0  0  0  0  0  0  0  0
   45.0440   30.1890   48.6160 C   0  0  0  0  0  0  0  0  0  0  0  0
   45.1260   28.8370   46.2130 S   0  0  0  0  0  0  0  0  0  0  0  0
   44.4330   29.2470   44.9770 O   0  0  0  0  0  0  0  0  0  0  0  0
   44.1000   27.9540   46.9640 O   0  0  0  0  0  0  0  0  0  0  0  0
   47.3650   27.8650   44.9560 C   0  0  0  0  0  0  0  0  0  0  0  0
   46.4650   27.7310   46.0180 C   0  0  0  0  0  0  0  0  0  0  0  0
   46.7570   26.6740   46.8470 C   0  0  0  0  0  0  0  0  0  0  0  0
   47.8320   25.8320   46.6420 C   0  0  0  0  0  0  0  0  0  0  0  0
   48.6820   26.0240   45.5710 C   0  0  0  0  0  0  0  0  0  0  0  0
   48.4570   27.0640   44.6940 C   0  0  0  0  0  0  0  0  0  0  0  0
   49.6610   25.0410   45.6150 O   0  0  0  0  0  0  0  0  0  0  0  0
   49.2910   24.0510   46.5460 C   0  0  0  0  0  0  0  0  0  0  0  0
   48.3090   24.7220   47.3380 O   0  0  0  0  0  0  0  0  0  0  0  0
   46.6640   31.3170   45.4880 O   0  0  0  0  0  0  0  0  0  0  0  0
   45.3610   34.1850   43.8890 C   0  0  0  0  0  0  0  0  0  0  0  0
   46.4870   34.6880   43.2090 C   0  0  0  0  0  0  0  0  0  0  0  0
   47.6840   34.0300   43.3080 C   0  0  0  0  0  0  0  0  0  0  0  0
   47.6870   32.9280   44.0720 N   0  0  0  0  0  0  0  0  0  0  0  0
   46.6350   32.4530   44.7110 C   0  0  0  0  0  0  0  0  0  0  0  0
   45.4680   33.0840   44.6200 N   0  0  0  0  0  0  0  0  0  0  0  0
   48.9130   34.4510   42.6220 C   0  0  0  0  0  0  0  0  0  0  0  0
   48.6930   35.6230   41.7090 C   0  0  0  0  0  0  0  0  0  0  0  0
   48.5760   35.2600   40.3000 C   0  0  0  0  0  0  0  0  0  0  0  0
   48.0490   34.3360   39.5070 C   0  0  0  0  0  0  0  0  0  0  0  0
   48.2450   34.2310   38.0040 C   0  0  0  0  0  0  0  0  0  0  0  0
   46.9283   33.1534   47.1565 H   0  0  0  0  0  0  0  0  0  0  0  0
   46.1644   33.2668   49.4965 H   0  0  0  0  0  0  0  0  0  0  0  0
   44.9262   31.3207   50.4553 H   0  0  0  0  0  0  0  0  0  0  0  0
   44.5003   29.3283   49.0326 H   0  0  0  0  0  0  0  0  0  0  0  0
   47.1833   28.6950   44.2574 H   0  0  0  0  0  0  0  0  0  0  0  0
   46.1044   26.4906   47.7133 H   0  0  0  0  0  0  0  0  0  0  0  0
   49.1140   27.2454   43.8306 H   0  0  0  0  0  0  0  0  0  0  0  0
   48.8624   23.1721   46.0422 H   0  0  0  0  0  0  0  0  0  0  0  0
   50.1368   23.6631   47.1326 H   0  0  0  0  0  0  0  0  0  0  0  0
   44.3944   34.7046   43.8138 H   0  0  0  0  0  0  0  0  0  0  0  0
   46.4057   35.6024   42.6030 H   0  0  0  0  0  0  0  0  0  0  0  0
   49.6610   34.7297   43.3789 H   0  0  0  0  0  0  0  0  0  0  0  0
   49.2551   33.6075   42.0044 H   0  0  0  0  0  0  0  0  0  0  0  0
   47.7662   36.1308   42.0142 H   0  0  0  0  0  0  0  0  0  0  0  0
   49.5780   36.2699   41.8001 H   0  0  0  0  0  0  0  0  0  0  0  0
   49.1041   36.0058   39.6877 H   0  0  0  0  0  0  0  0  0  0  0  0
   47.4112   33.5757   39.9816 H   0  0  0  0  0  0  0  0  0  0  0  0
   49.1966   33.7212   37.7931 H   0  0  0  0  0  0  0  0  0  0  0  0
   47.4160   33.6562   37.5654 H   0  0  0  0  0  0  0  0  0  0  0  0
   48.2643   35.2396   37.5654 H   0  0  0  0  0  0  0  0  0  0  0  0
  1  6  2  0
  2  1  1  0
  2  3  2  0
  3  4  1  0
  4  5  2  0
  6  5  1  0
  7  9  2  0
  7  1  1  0
  8  7  2  0
 10 11  2  0
 11  7  1  0
 11 12  1  0
 13 12  2  0
 13 18  1  0
 14 16  1  0
 14 13  1  0
 15 10  1  0
 15 14  2  0
 16 17  1  0
 17 18  1  0
 19  2  1  0
 20 25  2  0
 21 22  2  0
 21 20  1  0
 22 23  1  0
 23 24  2  0
 24 19  1  0
 25 24  1  0
 26 22  1  0
 27 26  1  0
 28 27  1  0
 29 28  2  0
 30 29  1  0
  3 31  1  0
  4 32  1  0
  5 33  1  0
  6 34  1  0
 10 35  1  0
 12 36  1  0
 15 37  1  0
 17 38  1  0
 17 39  1  0
 20 40  1  0
 21 41  1  0
 26 42  1  0
 26 43  1  0
 27 44  1  0
 27 45  1  0
 28 46  1  0
 29 47  1  0
 30 48  1  0
 30 49  1  0
 30 50  1  0
M  ISO  8  31  14  32  14  33  14  34  14  35  14  36  14  37  14  38  13
M  ISO  8  39  13  40  14  41  14  42   8  43   8  44   8  45   8  48   8
M  ISO  2  49   8  50   8
M  END
>  <minimizedAffinity>  (1) 
-5.62362766

>  <minimizedRMSD>  (1) 
2.25412226

$$$$
