
     RDKit          3D

 44 45  0  0  0  0  0  0  0  0999 V2000
   45.3110   34.2640   43.7690 C   0  0  0  0  0  0  0  0  0  0  0  0
   46.4730   34.7650   43.1490 C   0  0  0  0  0  0  0  0  0  0  0  0
   47.6550   34.0860   43.2850 C   0  0  0  0  0  0  0  0  0  0  0  0
   47.6140   32.9640   44.0200 N   0  0  0  0  0  0  0  0  0  0  0  0
   46.5240   32.4930   44.6010 C   0  0  0  0  0  0  0  0  0  0  0  0
   45.3700   33.1430   44.4770 N   0  0  0  0  0  0  0  0  0  0  0  0
   48.9140   34.5140   42.6650 C   0  0  0  0  0  0  0  0  0  0  0  0
   48.7430   35.6680   41.7240 C   0  0  0  0  0  0  0  0  0  0  0  0
   48.6050   35.2660   40.3230 C   0  0  0  0  0  0  0  0  0  0  0  0
   48.0370   34.3450   39.5550 C   0  0  0  0  0  0  0  0  0  0  0  0
   48.2340   34.1900   38.0560 C   0  0  0  0  0  0  0  0  0  0  0  0
   46.4960   31.3410   45.3520 O   0  0  0  0  0  0  0  0  0  0  0  0
   45.4580   30.1580   47.2500 C   0  0  0  0  0  0  0  0  0  0  0  0
   46.0560   31.2250   46.6640 C   0  0  0  0  0  0  0  0  0  0  0  0
   46.2770   32.3530   47.4300 C   0  0  0  0  0  0  0  0  0  0  0  0
   45.9160   32.4300   48.7550 C   0  0  0  0  0  0  0  0  0  0  0  0
   45.3080   31.3360   49.3420 C   0  0  0  0  0  0  0  0  0  0  0  0
   45.0860   30.2040   48.5720 C   0  0  0  0  0  0  0  0  0  0  0  0
   45.1130   28.8110   46.2150 S   0  0  0  0  0  0  0  0  0  0  0  0
   44.2410   29.1130   45.0630 O   0  0  0  0  0  0  0  0  0  0  0  0
   44.3160   27.8040   47.0750 O   0  0  0  0  0  0  0  0  0  0  0  0
   46.5650   27.9890   45.6960 C   0  0  0  0  0  0  0  0  0  0  0  0
   47.7760   27.9560   46.2150 C   0  0  0  0  0  0  0  0  0  0  0  0
   48.9230   27.1940   45.6410 C   0  0  0  0  0  0  0  0  0  0  0  0
   44.3566   34.8011   43.6663 H   0  0  0  0  0  0  0  0  0  0  0  0
   46.4313   35.6935   42.5607 H   0  0  0  0  0  0  0  0  0  0  0  0
   49.6128   34.8116   43.4607 H   0  0  0  0  0  0  0  0  0  0  0  0
   49.2958   33.6657   42.0780 H   0  0  0  0  0  0  0  0  0  0  0  0
   47.8405   36.2246   42.0166 H   0  0  0  0  0  0  0  0  0  0  0  0
   49.6538   36.2806   41.7957 H   0  0  0  0  0  0  0  0  0  0  0  0
   49.1647   35.9694   39.6890 H   0  0  0  0  0  0  0  0  0  0  0  0
   47.3627   33.6291   40.0477 H   0  0  0  0  0  0  0  0  0  0  0  0
   49.0854   33.5201   37.8654 H   0  0  0  0  0  0  0  0  0  0  0  0
   47.3242   33.7630   37.6088 H   0  0  0  0  0  0  0  0  0  0  0  0
   48.4350   35.1747   37.6088 H   0  0  0  0  0  0  0  0  0  0  0  0
   46.7604   33.2234   46.9623 H   0  0  0  0  0  0  0  0  0  0  0  0
   46.1073   33.3441   49.3362 H   0  0  0  0  0  0  0  0  0  0  0  0
   45.0061   31.3628   50.3994 H   0  0  0  0  0  0  0  0  0  0  0  0
   44.6033   29.3270   49.0279 H   0  0  0  0  0  0  0  0  0  0  0  0
   46.4480   27.3963   44.7767 H   0  0  0  0  0  0  0  0  0  0  0  0
   47.9535   28.5306   47.1360 H   0  0  0  0  0  0  0  0  0  0  0  0
   49.5373   26.7859   46.4572 H   0  0  0  0  0  0  0  0  0  0  0  0
   48.5417   26.3690   45.0213 H   0  0  0  0  0  0  0  0  0  0  0  0
   49.5357   27.8652   45.0213 H   0  0  0  0  0  0  0  0  0  0  0  0
  1  6  2  0
  2  3  2  0
  2  1  1  0
  3  4  1  0
  4  5  2  0
  5 12  1  0
  6  5  1  0
  7  3  1  0
  8  7  1  0
  9  8  1  0
 10  9  2  0
 11 10  1  0
 12 14  1  0
 13 18  2  0
 14 13  1  0
 14 15  2  0
 15 16  1  0
 16 17  2  0
 18 17  1  0
 19 21  2  0
 19 13  1  0
 20 19  2  0
 22 23  2  0
 22 19  1  0
 24 23  1  0
  1 25  1  0
  2 26  1  0
  7 27  1  0
  7 28  1  0
  8 29  1  0
  8 30  1  0
  9 31  1  0
 10 32  1  0
 11 33  1  0
 11 34  1  0
 11 35  1  0
 15 36  1  0
 16 37  1  0
 17 38  1  0
 18 39  1  0
 22 40  1  0
 23 41  1  0
 24 42  1  0
 24 43  1  0
 24 44  1  0
M  ISO  8  25  14  26  14  27   8  28   8  29   8  30   8  33   8  34   8
M  ISO  8  35   8  36  14  37  14  38  14  39  14  42   8  43   8  44   8
M  END
>  <minimizedAffinity>  (1) 
-5.44506025

>  <minimizedRMSD>  (1) 
0.886248469

$$$$
