
     RDKit          3D

 26 27  0  0  0  0  0  0  0  0999 V2000
   46.4200   34.5270   41.6060 C   0  0  0  0  0  0  0  0  0  0  0  0
   45.1660   35.9010   43.1850 C   0  0  0  0  0  0  0  0  0  0  0  0
   45.8650   34.7280   42.9210 C   0  0  0  0  0  0  0  0  0  0  0  0
   45.9720   33.8190   43.9740 C   0  0  0  0  0  0  0  0  0  0  0  0
   45.3910   34.1440   45.1680 N   0  0  0  0  0  0  0  0  0  0  0  0
   44.7290   35.2870   45.3720 C   0  0  0  0  0  0  0  0  0  0  0  0
   44.6040   36.1970   44.3710 N   0  0  0  0  0  0  0  0  0  0  0  0
   47.7790   35.2400   41.5550 C   0  0  0  0  0  0  0  0  0  0  0  0
   50.0160   35.3330   43.1620 F   0  0  0  0  0  0  0  0  0  0  0  0
   49.8830   34.2730   42.3080 C   0  0  0  0  0  0  0  0  0  0  0  0
   48.7890   34.1430   41.4650 C   0  0  0  0  0  0  0  0  0  0  0  0
   48.7110   33.0530   40.6280 C   0  0  0  0  0  0  0  0  0  0  0  0
   49.7300   32.1190   40.6570 C   0  0  0  0  0  0  0  0  0  0  0  0
   50.8240   32.2640   41.5110 C   0  0  0  0  0  0  0  0  0  0  0  0
   50.8980   33.3640   42.3510 C   0  0  0  0  0  0  0  0  0  0  0  0
   46.5545   33.4517   41.4171 H   0  0  0  0  0  0  0  0  0  0  0  0
   45.7447   34.9326   40.8383 H   0  0  0  0  0  0  0  0  0  0  0  0
   45.0661   36.6344   42.3713 H   0  0  0  0  0  0  0  0  0  0  0  0
   46.5089   32.8674   43.8470 H   0  0  0  0  0  0  0  0  0  0  0  0
   44.2827   35.4921   46.3562 H   0  0  0  0  0  0  0  0  0  0  0  0
   47.8393   35.8942   40.6727 H   0  0  0  0  0  0  0  0  0  0  0  0
   47.9424   35.8805   42.4342 H   0  0  0  0  0  0  0  0  0  0  0  0
   47.8546   32.9275   39.9492 H   0  0  0  0  0  0  0  0  0  0  0  0
   49.6772   31.2435   39.9931 H   0  0  0  0  0  0  0  0  0  0  0  0
   51.6239   31.5089   41.5175 H   0  0  0  0  0  0  0  0  0  0  0  0
   51.7508   33.4995   43.0324 H   0  0  0  0  0  0  0  0  0  0  0  0
  1  3  1  0
  2  7  2  0
  3  2  1  0
  3  4  2  0
  4  5  1  0
  5  6  2  0
  7  6  1  0
  8  1  1  0
 10 15  2  0
 10  9  1  0
 11  8  1  0
 11 10  1  0
 12 13  1  0
 12 11  2  0
 13 14  2  0
 14 15  1  0
  1 16  1  0
  1 17  1  0
  2 18  1  0
  4 19  1  0
  6 20  1  0
  8 21  1  0
  8 22  1  0
 12 23  1  0
 13 24  1  0
 14 25  1  0
 15 26  1  0
M  ISO  8  16   8  17   8  18  14  19  14  20  14  21   8  22   8  23  14
M  ISO  3  24  14  25  14  26  14
M  END
>  <minimizedAffinity>  (1) 
-4.98124695

>  <minimizedRMSD>  (1) 
2.80770135

$$$$
