
     RDKit          3D

 23 24  0  0  0  0  0  0  0  0999 V2000
   46.8030   34.5840   41.6860 C   0  0  0  0  0  0  0  0  0  0  0  0
   45.3270   35.9270   43.0980 C   0  0  0  0  0  0  0  0  0  0  0  0
   46.1070   34.7830   42.9390 C   0  0  0  0  0  0  0  0  0  0  0  0
   46.1530   33.9040   44.0210 C   0  0  0  0  0  0  0  0  0  0  0  0
   45.4500   34.2110   45.1420 N   0  0  0  0  0  0  0  0  0  0  0  0
   44.7050   35.3380   45.2440 C   0  0  0  0  0  0  0  0  0  0  0  0
   44.6450   36.2020   44.2130 N   0  0  0  0  0  0  0  0  0  0  0  0
   48.0930   35.3860   41.7210 C   0  0  0  0  0  0  0  0  0  0  0  0
   49.2190   34.4090   41.8870 C   0  0  0  0  0  0  0  0  0  0  0  0
   50.3440   34.6160   42.6600 C   0  0  0  0  0  0  0  0  0  0  0  0
   51.0950   33.5090   42.5380 N   0  0  0  0  0  0  0  0  0  0  0  0
   50.4610   32.6300   41.7110 C   0  0  0  0  0  0  0  0  0  0  0  0
   49.2960   33.1850   41.3060 N   0  0  0  0  0  0  0  0  0  0  0  0
   46.1735   34.9291   40.8525 H   0  0  0  0  0  0  0  0  0  0  0  0
   47.0257   33.5163   41.5429 H   0  0  0  0  0  0  0  0  0  0  0  0
   45.2701   36.6400   42.2623 H   0  0  0  0  0  0  0  0  0  0  0  0
   46.7472   32.9798   43.9675 H   0  0  0  0  0  0  0  0  0  0  0  0
   44.1488   35.5473   46.1696 H   0  0  0  0  0  0  0  0  0  0  0  0
   48.2147   35.9451   40.7815 H   0  0  0  0  0  0  0  0  0  0  0  0
   48.0798   36.1105   42.5486 H   0  0  0  0  0  0  0  0  0  0  0  0
   50.5787   35.5096   43.2570 H   0  0  0  0  0  0  0  0  0  0  0  0
   52.0039   33.3498   42.9957 H   0  0  0  0  0  0  0  0  0  0  0  0
   50.8342   31.6365   41.4218 H   0  0  0  0  0  0  0  0  0  0  0  0
  1  8  1  0
  1  3  1  0
  2  7  2  0
  3  2  1  0
  3  4  2  0
  4  5  1  0
  5  6  2  0
  7  6  1  0
  8  9  1  0
  9 10  2  0
 11 10  1  0
 12 11  1  0
 13 12  2  0
 13  9  1  0
  1 14  1  0
  1 15  1  0
  2 16  1  0
  4 17  1  0
  6 18  1  0
  8 19  1  0
  8 20  1  0
 10 21  1  0
 11 22  1  0
 12 23  1  0
M  ISO  8  14   8  15   8  16  14  17  14  18  14  19   8  20   8  21  14
M  ISO  2  22   9  23  14
M  END
>  <minimizedAffinity>  (1) 
-4.57691765

>  <minimizedRMSD>  (1) 
2.63902187

$$$$
