
     RDKit          3D

 17 17  0  0  0  0  0  0  0  0999 V2000
   45.3220   35.9710   43.1140 C   0  0  0  0  0  0  0  0  0  0  0  0
   46.1860   34.8810   42.9140 C   0  0  0  0  0  0  0  0  0  0  0  0
   46.2920   33.9520   43.9710 C   0  0  0  0  0  0  0  0  0  0  0  0
   45.5610   34.1860   45.0770 N   0  0  0  0  0  0  0  0  0  0  0  0
   44.7470   35.2350   45.2340 C   0  0  0  0  0  0  0  0  0  0  0  0
   44.6310   36.1300   44.2430 N   0  0  0  0  0  0  0  0  0  0  0  0
   46.9140   34.7640   41.6570 C   0  0  0  0  0  0  0  0  0  0  0  0
   48.3120   35.3570   41.8810 C   0  0  0  0  0  0  0  0  0  0  0  0
   48.9310   35.6650   40.6910 O   0  0  0  0  0  0  0  0  0  0  0  0
   45.2123   36.7171   42.3132 H   0  0  0  0  0  0  0  0  0  0  0  0
   46.9463   33.0711   43.8942 H   0  0  0  0  0  0  0  0  0  0  0  0
   44.1783   35.3622   46.1669 H   0  0  0  0  0  0  0  0  0  0  0  0
   46.3911   35.3216   40.8661 H   0  0  0  0  0  0  0  0  0  0  0  0
   46.9834   33.7117   41.3441 H   0  0  0  0  0  0  0  0  0  0  0  0
   48.2183   36.2737   42.4818 H   0  0  0  0  0  0  0  0  0  0  0  0
   48.9239   34.6054   42.4013 H   0  0  0  0  0  0  0  0  0  0  0  0
   49.8020   36.0984   40.8746 H   0  0  0  0  0  0  0  0  0  0  0  0
  1  6  2  0
  2  1  1  0
  2  3  2  0
  3  4  1  0
  4  5  2  0
  6  5  1  0
  7  8  1  0
  7  2  1  0
  9  8  1  0
  1 10  1  0
  3 11  1  0
  5 12  1  0
  7 13  1  0
  7 14  1  0
  8 15  1  0
  8 16  1  0
  9 17  1  0
M  ISO  8  10  14  11  14  12  14  13   8  14   8  15   8  16   8  17   3
M  END
>  <minimizedAffinity>  (1) 
-3.61168504

>  <minimizedRMSD>  (1) 
1.29328144

$$$$
