
     RDKit          3D

 39 41  0  0  0  0  0  0  0  0999 V2000
   46.3510   31.6070   45.6600 C   0  0  0  0  0  0  0  0  0  0  0  0
   47.3480   32.3950   47.7970 C   0  0  0  0  0  0  0  0  0  0  0  0
   47.2480   31.4220   46.7860 C   0  0  0  0  0  0  0  0  0  0  0  0
   48.0510   30.2940   46.9340 C   0  0  0  0  0  0  0  0  0  0  0  0
   48.8630   30.1850   48.0050 N   0  0  0  0  0  0  0  0  0  0  0  0
   48.9400   31.1270   48.9550 C   0  0  0  0  0  0  0  0  0  0  0  0
   48.1890   32.2130   48.8420 N   0  0  0  0  0  0  0  0  0  0  0  0
   50.7140   33.1220   49.9170 F   0  0  0  0  0  0  0  0  0  0  0  0
   50.7040   31.9020   50.4940 C   0  0  0  0  0  0  0  0  0  0  0  0
   49.8600   30.8910   50.0660 C   0  0  0  0  0  0  0  0  0  0  0  0
   49.8630   29.6480   50.6690 C   0  0  0  0  0  0  0  0  0  0  0  0
   50.7200   29.3620   51.7370 C   0  0  0  0  0  0  0  0  0  0  0  0
   51.5230   30.4070   52.1050 C   0  0  0  0  0  0  0  0  0  0  0  0
   51.5820   31.6710   51.5590 C   0  0  0  0  0  0  0  0  0  0  0  0
   47.0150   32.5670   44.6950 C   0  0  0  0  0  0  0  0  0  0  0  0
   46.4670   34.4700   43.2390 C   0  0  0  0  0  0  0  0  0  0  0  0
   46.2550   33.7860   44.4210 C   0  0  0  0  0  0  0  0  0  0  0  0
   45.3510   34.1950   45.3630 C   0  0  0  0  0  0  0  0  0  0  0  0
   44.6170   35.3380   45.1280 C   0  0  0  0  0  0  0  0  0  0  0  0
   44.7640   36.0750   43.9870 C   0  0  0  0  0  0  0  0  0  0  0  0
   45.7010   35.6060   43.0650 C   0  0  0  0  0  0  0  0  0  0  0  0
   47.6150   33.9890   42.0090 S   0  0  0  0  0  0  0  0  0  0  0  0
   48.9720   34.6290   42.2120 O   0  0  0  0  0  0  0  0  0  0  0  0
   47.1490   34.5170   40.6770 O   0  0  0  0  0  0  0  0  0  0  0  0
   46.1693   30.6425   45.1634 H   0  0  0  0  0  0  0  0  0  0  0  0
   45.3847   32.0086   45.9992 H   0  0  0  0  0  0  0  0  0  0  0  0
   46.7391   33.3092   47.7380 H   0  0  0  0  0  0  0  0  0  0  0  0
   48.0230   29.4941   46.1794 H   0  0  0  0  0  0  0  0  0  0  0  0
   49.1787   28.8686   50.3025 H   0  0  0  0  0  0  0  0  0  0  0  0
   50.7461   28.3827   52.2372 H   0  0  0  0  0  0  0  0  0  0  0  0
   52.2086   30.2136   52.9432 H   0  0  0  0  0  0  0  0  0  0  0  0
   52.2701   32.4432   51.9336 H   0  0  0  0  0  0  0  0  0  0  0  0
   47.9880   32.8582   45.1174 H   0  0  0  0  0  0  0  0  0  0  0  0
   47.0995   32.0333   43.7369 H   0  0  0  0  0  0  0  0  0  0  0  0
   45.2123   33.6219   46.2916 H   0  0  0  0  0  0  0  0  0  0  0  0
   43.8890   35.6675   45.8840 H   0  0  0  0  0  0  0  0  0  0  0  0
   44.1766   36.9871   43.8052 H   0  0  0  0  0  0  0  0  0  0  0  0
   45.8387   36.1801   42.1368 H   0  0  0  0  0  0  0  0  0  0  0  0
   47.7050   32.6233   42.0703 H   0  0  0  0  0  0  0  0  0  0  0  0
  1  3  1  0
  2  7  2  0
  3  4  2  0
  3  2  1  0
  4  5  1  0
  5  6  2  0
  6 10  1  0
  7  6  1  0
  8  9  1  0
  9 14  2  0
 10  9  1  0
 10 11  2  0
 11 12  1  0
 12 13  2  0
 14 13  1  0
 15  1  1  0
 16 17  2  0
 17 15  1  0
 17 18  1  0
 19 18  2  0
 20 19  1  0
 21 16  1  0
 21 20  2  0
 22 23  2  0
 22 16  1  0
 24 22  2  0
  1 25  1  0
  1 26  1  0
  2 27  1  0
  4 28  1  0
 11 29  1  0
 12 30  1  0
 13 31  1  0
 14 32  1  0
 15 33  1  0
 15 34  1  0
 18 35  1  0
 19 36  1  0
 20 37  1  0
 21 38  1  0
 22 39  1  0
M  ISO  8  25   8  26   8  27  14  28  14  29  14  30  14  31  14  32  14
M  ISO  7  33   8  34   8  35  14  36  14  37  14  38  14  39  11
M  END
>  <minimizedAffinity>  (1) 
-6.13280249

>  <minimizedRMSD>  (1) 
0.594025731

$$$$
