
     RDKit          3D

 43 45  0  0  0  0  0  0  0  0999 V2000
   46.1960   31.6350   46.0720 C   0  0  0  0  0  0  0  0  0  0  0  0
   47.5390   32.2200   48.0720 C   0  0  0  0  0  0  0  0  0  0  0  0
   47.2660   31.3440   47.0080 C   0  0  0  0  0  0  0  0  0  0  0  0
   48.0770   30.2110   46.9200 C   0  0  0  0  0  0  0  0  0  0  0  0
   49.0480   30.0220   47.8340 N   0  0  0  0  0  0  0  0  0  0  0  0
   49.2890   30.8670   48.8380 C   0  0  0  0  0  0  0  0  0  0  0  0
   48.5390   31.9520   48.9510 N   0  0  0  0  0  0  0  0  0  0  0  0
   50.3490   30.5440   49.7330 N   0  0  0  0  0  0  0  0  0  0  0  0
   50.4610   29.1840   50.2260 C   0  0  0  0  0  0  0  0  0  0  0  0
   50.3580   29.2860   51.7380 C   0  0  0  0  0  0  0  0  0  0  0  0
   51.1920   30.2930   52.3130 N   0  0  0  0  0  0  0  0  0  0  0  0
   51.1290   31.5830   51.7030 C   0  0  0  0  0  0  0  0  0  0  0  0
   51.3360   31.5090   50.1850 C   0  0  0  0  0  0  0  0  0  0  0  0
   46.7820   32.4650   44.9480 C   0  0  0  0  0  0  0  0  0  0  0  0
   46.2290   34.3500   43.4620 C   0  0  0  0  0  0  0  0  0  0  0  0
   46.0680   33.7220   44.6800 C   0  0  0  0  0  0  0  0  0  0  0  0
   45.2620   34.2120   45.6720 C   0  0  0  0  0  0  0  0  0  0  0  0
   44.5800   35.3860   45.4430 C   0  0  0  0  0  0  0  0  0  0  0  0
   44.6840   36.0710   44.2630 C   0  0  0  0  0  0  0  0  0  0  0  0
   45.5220   35.5120   43.3060 C   0  0  0  0  0  0  0  0  0  0  0  0
   47.2550   33.7530   42.1730 S   0  0  0  0  0  0  0  0  0  0  0  0
   48.7120   34.1080   42.3800 O   0  0  0  0  0  0  0  0  0  0  0  0
   46.8680   34.4630   40.8940 O   0  0  0  0  0  0  0  0  0  0  0  0
   45.7841   30.6975   45.6703 H   0  0  0  0  0  0  0  0  0  0  0  0
   45.3837   32.1822   46.5726 H   0  0  0  0  0  0  0  0  0  0  0  0
   46.9366   33.1322   48.1943 H   0  0  0  0  0  0  0  0  0  0  0  0
   47.9245   29.4800   46.1123 H   0  0  0  0  0  0  0  0  0  0  0  0
   49.6456   28.5629   49.8269 H   0  0  0  0  0  0  0  0  0  0  0  0
   51.4058   28.7151   49.9138 H   0  0  0  0  0  0  0  0  0  0  0  0
   49.3135   29.5123   51.9986 H   0  0  0  0  0  0  0  0  0  0  0  0
   50.6982   28.3222   52.1447 H   0  0  0  0  0  0  0  0  0  0  0  0
   50.9224   30.3985   53.3015 H   0  0  0  0  0  0  0  0  0  0  0  0
   50.1422   32.0246   51.9062 H   0  0  0  0  0  0  0  0  0  0  0  0
   51.9348   32.2002   52.1271 H   0  0  0  0  0  0  0  0  0  0  0  0
   52.3536   31.1657   49.9471 H   0  0  0  0  0  0  0  0  0  0  0  0
   51.2193   32.4881   49.6975 H   0  0  0  0  0  0  0  0  0  0  0  0
   47.8223   32.7099   45.2085 H   0  0  0  0  0  0  0  0  0  0  0  0
   46.6979   31.8575   44.0348 H   0  0  0  0  0  0  0  0  0  0  0  0
   45.1615   33.6803   46.6297 H   0  0  0  0  0  0  0  0  0  0  0  0
   43.9300   35.7865   46.2349 H   0  0  0  0  0  0  0  0  0  0  0  0
   44.1369   37.0081   44.0828 H   0  0  0  0  0  0  0  0  0  0  0  0
   45.6254   36.0443   42.3489 H   0  0  0  0  0  0  0  0  0  0  0  0
   47.0971   32.3926   42.1377 H   0  0  0  0  0  0  0  0  0  0  0  0
  1  3  1  0
  2  7  2  0
  3  2  1  0
  4  3  2  0
  4  5  1  0
  5  6  2  0
  6  7  1  0
  6  8  1  0
  8 13  1  0
  8  9  1  0
  9 10  1  0
 10 11  1  0
 12 11  1  0
 13 12  1  0
 14  1  1  0
 15 16  2  0
 16 14  1  0
 16 17  1  0
 18 17  2  0
 19 18  1  0
 20 15  1  0
 20 19  2  0
 21 22  2  0
 21 15  1  0
 23 21  2  0
  1 24  1  0
  1 25  1  0
  2 26  1  0
  4 27  1  0
  9 28  1  0
  9 29  1  0
 10 30  1  0
 10 31  1  0
 11 32  1  0
 12 33  1  0
 12 34  1  0
 13 35  1  0
 13 36  1  0
 14 37  1  0
 14 38  1  0
 17 39  1  0
 18 40  1  0
 19 41  1  0
 20 42  1  0
 21 43  1  0
M  ISO  8  24   8  25   8  26  14  27  14  28  13  29  13  30  13  31  13
M  ISO  8  32   5  33  13  34  13  35  13  36  13  37   8  38   8  39  14
M  ISO  4  40  14  41  14  42  14  43  11
M  END
>  <minimizedAffinity>  (1) 
-5.8344698

>  <minimizedRMSD>  (1) 
0.686508954

$$$$
