
     RDKit          3D

 30 31  0  0  0  0  0  0  0  0999 V2000
   47.0300   32.7800   44.6470 C   0  0  0  0  0  0  0  0  0  0  0  0
   46.6910   34.6400   43.0720 C   0  0  0  0  0  0  0  0  0  0  0  0
   46.2840   33.9900   44.2260 C   0  0  0  0  0  0  0  0  0  0  0  0
   45.2330   34.4150   45.0020 C   0  0  0  0  0  0  0  0  0  0  0  0
   44.5560   35.5430   44.6080 C   0  0  0  0  0  0  0  0  0  0  0  0
   44.8800   36.2460   43.4950 C   0  0  0  0  0  0  0  0  0  0  0  0
   45.9530   35.7620   42.7550 C   0  0  0  0  0  0  0  0  0  0  0  0
   48.0120   34.1400   42.0600 S   0  0  0  0  0  0  0  0  0  0  0  0
   49.3500   34.5770   42.6010 O   0  0  0  0  0  0  0  0  0  0  0  0
   47.8970   34.8520   40.7250 O   0  0  0  0  0  0  0  0  0  0  0  0
   46.1680   31.7650   45.3680 C   0  0  0  0  0  0  0  0  0  0  0  0
   47.2230   32.4340   47.5060 C   0  0  0  0  0  0  0  0  0  0  0  0
   46.8320   31.4180   46.6160 C   0  0  0  0  0  0  0  0  0  0  0  0
   47.1170   30.1180   47.0010 C   0  0  0  0  0  0  0  0  0  0  0  0
   47.7390   29.8880   48.1780 N   0  0  0  0  0  0  0  0  0  0  0  0
   48.1020   30.8820   49.0090 C   0  0  0  0  0  0  0  0  0  0  0  0
   47.8380   32.1300   48.6570 N   0  0  0  0  0  0  0  0  0  0  0  0
   48.7210   30.4030   50.1490 O   0  0  0  0  0  0  0  0  0  0  0  0
   47.8435   33.0881   45.3202 H   0  0  0  0  0  0  0  0  0  0  0  0
   47.4079   32.2964   43.7341 H   0  0  0  0  0  0  0  0  0  0  0  0
   44.9426   33.8684   45.9113 H   0  0  0  0  0  0  0  0  0  0  0  0
   43.7132   35.8917   45.2229 H   0  0  0  0  0  0  0  0  0  0  0  0
   44.3258   37.1475   43.1946 H   0  0  0  0  0  0  0  0  0  0  0  0
   46.2351   36.3159   41.8475 H   0  0  0  0  0  0  0  0  0  0  0  0
   47.9451   32.7740   41.9799 H   0  0  0  0  0  0  0  0  0  0  0  0
   45.1789   32.1976   45.5789 H   0  0  0  0  0  0  0  0  0  0  0  0
   46.0309   30.8685   44.7455 H   0  0  0  0  0  0  0  0  0  0  0  0
   47.0225   33.4862   47.2555 H   0  0  0  0  0  0  0  0  0  0  0  0
   46.8378   29.2760   46.3506 H   0  0  0  0  0  0  0  0  0  0  0  0
   49.0372   31.0343   50.8430 H   0  0  0  0  0  0  0  0  0  0  0  0
  1 11  1  0
  2  3  2  0
  3  1  1  0
  3  4  1  0
  5  4  2  0
  6  5  1  0
  7  2  1  0
  7  6  2  0
  8  9  2  0
  8  2  1  0
 10  8  2  0
 11 13  1  0
 12 17  2  0
 13 14  2  0
 13 12  1  0
 14 15  1  0
 15 16  2  0
 16 18  1  0
 17 16  1  0
  1 19  1  0
  1 20  1  0
  4 21  1  0
  5 22  1  0
  6 23  1  0
  7 24  1  0
  8 25  1  0
 11 26  1  0
 11 27  1  0
 12 28  1  0
 14 29  1  0
 18 30  1  0
M  ISO  8  19   8  20   8  21  14  22  14  23  14  24  14  25  11  26   8
M  ISO  4  27   8  28  14  29  14  30   3
M  END
>  <minimizedAffinity>  (1) 
-5.27216005

>  <minimizedRMSD>  (1) 
0.555216014

$$$$
