
     RDKit          3D

 22 23  0  0  0  0  0  0  0  0999 V2000
   45.0590   35.7030   43.7820 C   0  0  0  0  0  0  0  0  0  0  0  0
   46.0080   34.7120   43.4750 C   0  0  0  0  0  0  0  0  0  0  0  0
   46.3210   33.7420   44.4540 C   0  0  0  0  0  0  0  0  0  0  0  0
   45.6660   33.8390   45.6460 N   0  0  0  0  0  0  0  0  0  0  0  0
   44.7700   34.8000   45.8970 C   0  0  0  0  0  0  0  0  0  0  0  0
   44.4650   35.7220   44.9810 N   0  0  0  0  0  0  0  0  0  0  0  0
   44.7460   36.6760   42.8010 N   0  0  0  0  0  0  0  0  0  0  0  0
   44.7320   33.1720   41.2040 Cl  0  0  0  0  0  0  0  0  0  0  0  0
   46.2510   33.9910   41.0640 C   0  0  0  0  0  0  0  0  0  0  0  0
   46.6880   34.6410   42.1860 C   0  0  0  0  0  0  0  0  0  0  0  0
   47.9000   35.3290   42.1720 C   0  0  0  0  0  0  0  0  0  0  0  0
   48.6680   35.3550   41.0170 C   0  0  0  0  0  0  0  0  0  0  0  0
   48.2460   34.7030   39.8620 C   0  0  0  0  0  0  0  0  0  0  0  0
   47.0280   34.0280   39.9250 C   0  0  0  0  0  0  0  0  0  0  0  0
   47.0573   32.9473   44.2636 H   0  0  0  0  0  0  0  0  0  0  0  0
   44.2743   34.8312   46.8785 H   0  0  0  0  0  0  0  0  0  0  0  0
   45.2110   36.6492   41.8823 H   0  0  0  0  0  0  0  0  0  0  0  0
   44.0534   37.4102   43.0064 H   0  0  0  0  0  0  0  0  0  0  0  0
   48.2473   35.8509   43.0759 H   0  0  0  0  0  0  0  0  0  0  0  0
   49.6242   35.8987   41.0140 H   0  0  0  0  0  0  0  0  0  0  0  0
   48.8468   34.7196   38.9407 H   0  0  0  0  0  0  0  0  0  0  0  0
   46.6710   33.5020   39.0273 H   0  0  0  0  0  0  0  0  0  0  0  0
  1  6  2  0
  2  1  1  0
  2  3  2  0
  3  4  1  0
  4  5  2  0
  6  5  1  0
  7  1  1  0
  9  8  1  0
  9 10  2  0
 10  2  1  0
 11 10  1  0
 12 11  2  0
 13 14  2  0
 13 12  1  0
 14  9  1  0
  3 15  1  0
  5 16  1  0
  7 17  1  0
  7 18  1  0
 11 19  1  0
 12 20  1  0
 13 21  1  0
 14 22  1  0
M  ISO  6  15  14  16  14  19  14  20  14  21  14  22  14
M  END
>  <minimizedAffinity>  (1) 
-5.36013603

>  <minimizedRMSD>  (1) 
1.12686861

$$$$
