
     RDKit          3D

 22 23  0  0  0  0  0  0  0  0999 V2000
   45.0850   35.6960   43.7750 C   0  0  0  0  0  0  0  0  0  0  0  0
   46.0360   34.7020   43.4860 C   0  0  0  0  0  0  0  0  0  0  0  0
   46.3210   33.7430   44.4820 C   0  0  0  0  0  0  0  0  0  0  0  0
   45.6520   33.8490   45.6560 N   0  0  0  0  0  0  0  0  0  0  0  0
   44.7500   34.8070   45.9050 C   0  0  0  0  0  0  0  0  0  0  0  0
   44.4720   35.7280   44.9570 N   0  0  0  0  0  0  0  0  0  0  0  0
   44.7760   36.6770   42.7890 N   0  0  0  0  0  0  0  0  0  0  0  0
   46.7240   34.6410   42.1990 C   0  0  0  0  0  0  0  0  0  0  0  0
   47.9290   35.3470   42.1270 C   0  0  0  0  0  0  0  0  0  0  0  0
   48.6350   35.3290   40.9280 C   0  0  0  0  0  0  0  0  0  0  0  0
   48.1500   34.6350   39.8520 C   0  0  0  0  0  0  0  0  0  0  0  0
   46.9590   33.9270   39.9000 C   0  0  0  0  0  0  0  0  0  0  0  0
   46.2480   33.9440   41.1070 C   0  0  0  0  0  0  0  0  0  0  0  0
   47.0560   32.9424   44.3122 H   0  0  0  0  0  0  0  0  0  0  0  0
   44.2376   34.8437   46.8777 H   0  0  0  0  0  0  0  0  0  0  0  0
   45.2487   36.6544   41.8742 H   0  0  0  0  0  0  0  0  0  0  0  0
   44.0799   37.4088   42.9911 H   0  0  0  0  0  0  0  0  0  0  0  0
   48.3094   35.9028   42.9967 H   0  0  0  0  0  0  0  0  0  0  0  0
   49.5865   35.8745   40.8443 H   0  0  0  0  0  0  0  0  0  0  0  0
   48.7264   34.6393   38.9151 H   0  0  0  0  0  0  0  0  0  0  0  0
   46.5870   33.3738   39.0250 H   0  0  0  0  0  0  0  0  0  0  0  0
   45.2982   33.3948   41.1854 H   0  0  0  0  0  0  0  0  0  0  0  0
  1  6  2  0
  2  1  1  0
  2  3  2  0
  3  4  1  0
  4  5  2  0
  6  5  1  0
  7  1  1  0
  8  2  1  0
  9  8  2  0
 10  9  1  0
 11 12  1  0
 11 10  2  0
 12 13  2  0
 13  8  1  0
  3 14  1  0
  5 15  1  0
  7 16  1  0
  7 17  1  0
  9 18  1  0
 10 19  1  0
 11 20  1  0
 12 21  1  0
 13 22  1  0
M  ISO  7  14  14  15  14  18  14  19  14  20  14  21  14  22  14
M  END
>  <minimizedAffinity>  (1) 
-5.24151468

>  <minimizedRMSD>  (1) 
1.29428709

$$$$
