
     RDKit          3D

 19 20  0  0  0  0  0  0  0  0999 V2000
   45.4170   32.9790   47.3140 C   0  0  0  0  0  0  0  0  0  0  0  0
   45.9840   33.0910   46.0330 C   0  0  0  0  0  0  0  0  0  0  0  0
   46.9460   32.1140   45.6460 C   0  0  0  0  0  0  0  0  0  0  0  0
   47.2490   31.1420   46.5390 N   0  0  0  0  0  0  0  0  0  0  0  0
   46.6820   31.0740   47.7530 C   0  0  0  0  0  0  0  0  0  0  0  0
   45.7740   31.9850   48.1360 N   0  0  0  0  0  0  0  0  0  0  0  0
   44.4620   33.9420   47.7080 N   0  0  0  0  0  0  0  0  0  0  0  0
   45.6480   34.1240   45.1110 C   0  0  0  0  0  0  0  0  0  0  0  0
   44.8170   35.1700   45.1050 C   0  0  0  0  0  0  0  0  0  0  0  0
   44.7110   36.0090   44.0380 C   0  0  0  0  0  0  0  0  0  0  0  0
   45.5610   35.6780   42.9280 C   0  0  0  0  0  0  0  0  0  0  0  0
   46.4140   34.2460   43.4760 S   0  0  0  0  0  0  0  0  0  0  0  0
   47.4257   32.1480   44.6567 H   0  0  0  0  0  0  0  0  0  0  0  0
   46.9641   30.2636   48.4412 H   0  0  0  0  0  0  0  0  0  0  0  0
   44.1989   34.7004   47.0626 H   0  0  0  0  0  0  0  0  0  0  0  0
   44.0286   33.8859   48.6407 H   0  0  0  0  0  0  0  0  0  0  0  0
   44.1966   35.3601   45.9933 H   0  0  0  0  0  0  0  0  0  0  0  0
   44.0287   36.8718   44.0267 H   0  0  0  0  0  0  0  0  0  0  0  0
   45.6548   36.1987   41.9636 H   0  0  0  0  0  0  0  0  0  0  0  0
  1  7  1  0
  1  6  2  0
  2  1  1  0
  3  2  2  0
  3  4  1  0
  4  5  2  0
  5  6  1  0
  8  2  1  0
  9  8  2  0
 10  9  1  0
 11 12  1  0
 11 10  2  0
 12  8  1  0
  3 13  1  0
  5 14  1  0
  7 15  1  0
  7 16  1  0
  9 17  1  0
 10 18  1  0
 11 19  1  0
M  ISO  5  13  14  14  14  17  14  18  14  19  14
M  END
>  <minimizedAffinity>  (1) 
-4.65876722

>  <minimizedRMSD>  (1) 
3.71924853

$$$$
