
     RDKit          3D

 18 19  0  0  0  0  0  0  0  0999 V2000
   45.4130   32.8640   47.7570 C   0  0  0  0  0  0  0  0  0  0  0  0
   46.2160   32.6280   46.6300 C   0  0  0  0  0  0  0  0  0  0  0  0
   47.1450   31.5840   46.6690 C   0  0  0  0  0  0  0  0  0  0  0  0
   47.2120   30.8530   47.8130 N   0  0  0  0  0  0  0  0  0  0  0  0
   46.4310   31.1030   48.8720 C   0  0  0  0  0  0  0  0  0  0  0  0
   45.5390   32.1040   48.8390 N   0  0  0  0  0  0  0  0  0  0  0  0
   44.4730   33.9250   47.7070 N   0  0  0  0  0  0  0  0  0  0  0  0
   46.0480   33.4800   45.4680 C   0  0  0  0  0  0  0  0  0  0  0  0
   46.9480   33.3410   44.3520 C   0  0  0  0  0  0  0  0  0  0  0  0
   46.3550   34.6250   43.1110 S   0  0  0  0  0  0  0  0  0  0  0  0
   45.0000   35.1050   44.3440 C   0  0  0  0  0  0  0  0  0  0  0  0
   45.1640   34.4220   45.2310 N   0  0  0  0  0  0  0  0  0  0  0  0
   47.7949   31.3633   45.8094 H   0  0  0  0  0  0  0  0  0  0  0  0
   46.5219   30.4825   49.7758 H   0  0  0  0  0  0  0  0  0  0  0  0
   44.3922   34.5018   46.8575 H   0  0  0  0  0  0  0  0  0  0  0  0
   43.8712   34.1187   48.5202 H   0  0  0  0  0  0  0  0  0  0  0  0
   47.7912   32.6423   44.2486 H   0  0  0  0  0  0  0  0  0  0  0  0
   44.2253   35.8767   44.2243 H   0  0  0  0  0  0  0  0  0  0  0  0
  1  6  2  0
  2  3  2  0
  2  1  1  0
  3  4  1  0
  4  5  2  0
  6  5  1  0
  7  1  1  0
  8  2  1  0
  9  8  2  0
 10 11  1  0
 10  9  1  0
 11 12  2  0
 12  8  1  0
  3 13  1  0
  5 14  1  0
  7 15  1  0
  7 16  1  0
  9 17  1  0
 11 18  1  0
M  ISO  4  13  14  14  14  17  14  18  14
M  END
>  <minimizedAffinity>  (1) 
-4.58120537

>  <minimizedRMSD>  (1) 
4.08589411

$$$$
