
     RDKit          3D

 20 21  0  0  0  0  0  0  0  0999 V2000
   45.1300   35.7290   43.7800 C   0  0  0  0  0  0  0  0  0  0  0  0
   46.0090   34.6600   43.5500 C   0  0  0  0  0  0  0  0  0  0  0  0
   46.2070   33.6980   44.5480 C   0  0  0  0  0  0  0  0  0  0  0  0
   45.5180   33.8550   45.7160 N   0  0  0  0  0  0  0  0  0  0  0  0
   44.6860   34.8860   45.9060 C   0  0  0  0  0  0  0  0  0  0  0  0
   44.4890   35.8110   44.9640 N   0  0  0  0  0  0  0  0  0  0  0  0
   44.9040   36.7200   42.7970 N   0  0  0  0  0  0  0  0  0  0  0  0
   46.6870   34.5990   42.2620 C   0  0  0  0  0  0  0  0  0  0  0  0
   46.2700   33.8610   41.2030 C   0  0  0  0  0  0  0  0  0  0  0  0
   46.9900   33.8710   40.0180 C   0  0  0  0  0  0  0  0  0  0  0  0
   48.1080   34.6110   39.9030 N   0  0  0  0  0  0  0  0  0  0  0  0
   48.5200   35.3480   40.9710 C   0  0  0  0  0  0  0  0  0  0  0  0
   47.8090   35.3270   42.1170 N   0  0  0  0  0  0  0  0  0  0  0  0
   46.8905   32.8495   44.3969 H   0  0  0  0  0  0  0  0  0  0  0  0
   44.1508   34.9733   46.8630 H   0  0  0  0  0  0  0  0  0  0  0  0
   45.3890   36.6657   41.8899 H   0  0  0  0  0  0  0  0  0  0  0  0
   44.2544   37.4962   42.9880 H   0  0  0  0  0  0  0  0  0  0  0  0
   45.3573   33.2524   41.2846 H   0  0  0  0  0  0  0  0  0  0  0  0
   46.6443   33.2689   39.1648 H   0  0  0  0  0  0  0  0  0  0  0  0
   49.4314   35.9597   40.8994 H   0  0  0  0  0  0  0  0  0  0  0  0
  1  6  2  0
  2  1  1  0
  2  3  2  0
  3  4  1  0
  4  5  2  0
  6  5  1  0
  7  1  1  0
  8  2  1  0
  9  8  2  0
 10  9  1  0
 11 10  2  0
 11 12  1  0
 12 13  2  0
 13  8  1  0
  3 14  1  0
  5 15  1  0
  7 16  1  0
  7 17  1  0
  9 18  1  0
 10 19  1  0
 12 20  1  0
M  ISO  5  14  14  15  14  18  14  19  14  20  14
M  END
>  <minimizedAffinity>  (1) 
-4.55993223

>  <minimizedRMSD>  (1) 
1.34359014

$$$$
