
     RDKit          3D

 25 26  0  0  0  0  0  0  0  0999 V2000
   46.4210   34.8650   42.2480 C   0  0  0  0  0  0  0  0  0  0  0  0
   45.7480   34.2880   41.1910 C   0  0  0  0  0  0  0  0  0  0  0  0
   46.4790   34.0170   40.0300 C   0  0  0  0  0  0  0  0  0  0  0  0
   47.8230   34.3300   39.9750 C   0  0  0  0  0  0  0  0  0  0  0  0
   48.5060   34.9130   41.0420 C   0  0  0  0  0  0  0  0  0  0  0  0
   47.7530   35.1650   42.1710 C   0  0  0  0  0  0  0  0  0  0  0  0
   43.8410   32.7120   41.6690 C   0  0  0  0  0  0  0  0  0  0  0  0
   44.3370   33.9220   41.1540 C   0  0  0  0  0  0  0  0  0  0  0  0
   43.4200   34.8380   40.5680 C   0  0  0  0  0  0  0  0  0  0  0  0
   42.1160   34.4690   40.5500 N   0  0  0  0  0  0  0  0  0  0  0  0
   41.6720   33.3030   41.0500 C   0  0  0  0  0  0  0  0  0  0  0  0
   42.5300   32.4230   41.6100 N   0  0  0  0  0  0  0  0  0  0  0  0
   44.7550   31.8010   42.2530 N   0  0  0  0  0  0  0  0  0  0  0  0
   45.4560   35.1790   43.6760 S   0  0  0  0  0  0  0  0  0  0  0  0
   44.1910   35.9120   43.3300 O   0  0  0  0  0  0  0  0  0  0  0  0
   45.1040   33.9340   44.3970 O   0  0  0  0  0  0  0  0  0  0  0  0
   45.9846   33.5555   39.1625 H   0  0  0  0  0  0  0  0  0  0  0  0
   48.3779   34.1103   39.0510 H   0  0  0  0  0  0  0  0  0  0  0  0
   49.5773   35.1567   40.9873 H   0  0  0  0  0  0  0  0  0  0  0  0
   48.2430   35.6247   43.0420 H   0  0  0  0  0  0  0  0  0  0  0  0
   43.7531   35.7993   40.1497 H   0  0  0  0  0  0  0  0  0  0  0  0
   40.5995   33.0632   41.0026 H   0  0  0  0  0  0  0  0  0  0  0  0
   44.4167   30.9074   42.6376 H   0  0  0  0  0  0  0  0  0  0  0  0
   45.7579   32.0322   42.2931 H   0  0  0  0  0  0  0  0  0  0  0  0
   46.2306   35.9582   44.4943 H   0  0  0  0  0  0  0  0  0  0  0  0
  1 14  1  0
  2  1  2  0
  3  2  1  0
  4  3  2  0
  4  5  1  0
  5  6  2  0
  6  1  1  0
  7 13  1  0
  8  2  1  0
  8  7  2  0
  9  8  1  0
 10  9  2  0
 10 11  1  0
 11 12  2  0
 12  7  1  0
 14 16  2  0
 15 14  2  0
  3 17  1  0
  4 18  1  0
  5 19  1  0
  6 20  1  0
  9 21  1  0
 11 22  1  0
 13 23  1  0
 13 24  1  0
 14 25  1  0
M  ISO  7  17  14  18  14  19  14  20  14  21  14  22  14  25  11
M  END
>  <minimizedAffinity>  (1) 
-4.40971804

>  <minimizedRMSD>  (1) 
4.01270676

$$$$
