
     RDKit          3D

 15 15  0  0  0  0  0  0  0  0999 V2000
   45.0680   35.3920   44.1550 C   0  0  0  0  0  0  0  0  0  0  0  0
   46.0740   34.6750   43.4850 C   0  0  0  0  0  0  0  0  0  0  0  0
   46.7120   33.6200   44.1560 C   0  0  0  0  0  0  0  0  0  0  0  0
   46.3170   33.3520   45.4240 N   0  0  0  0  0  0  0  0  0  0  0  0
   45.3560   34.0460   46.0450 C   0  0  0  0  0  0  0  0  0  0  0  0
   44.7330   35.0620   45.4150 N   0  0  0  0  0  0  0  0  0  0  0  0
   44.4180   36.4550   43.4900 N   0  0  0  0  0  0  0  0  0  0  0  0
   46.4340   35.0450   42.1010 C   0  0  0  0  0  0  0  0  0  0  0  0
   47.5043   33.0319   43.6698 H   0  0  0  0  0  0  0  0  0  0  0  0
   45.0728   33.7859   47.0756 H   0  0  0  0  0  0  0  0  0  0  0  0
   44.6837   36.6980   42.5250 H   0  0  0  0  0  0  0  0  0  0  0  0
   43.6783   36.9873   43.9701 H   0  0  0  0  0  0  0  0  0  0  0  0
   47.2010   35.8333   42.1199 H   0  0  0  0  0  0  0  0  0  0  0  0
   46.8283   34.1623   41.5762 H   0  0  0  0  0  0  0  0  0  0  0  0
   45.5408   35.4150   41.5762 H   0  0  0  0  0  0  0  0  0  0  0  0
  1  6  2  0
  2  1  1  0
  2  3  2  0
  3  4  1  0
  4  5  2  0
  6  5  1  0
  7  1  1  0
  8  2  1  0
  3  9  1  0
  5 10  1  0
  7 11  1  0
  7 12  1  0
  8 13  1  0
  8 14  1  0
  8 15  1  0
M  ISO  5   9  14  10  14  13   8  14   8  15   8
M  END
>  <minimizedAffinity>  (1) 
-3.31564522

>  <minimizedRMSD>  (1) 
0.24769035

$$$$
