
     RDKit          3D

 14 14  0  0  0  0  0  0  0  0999 V2000
   45.0490   35.4050   44.1950 C   0  0  0  0  0  0  0  0  0  0  0  0
   46.0530   34.7030   43.4860 C   0  0  0  0  0  0  0  0  0  0  0  0
   46.7000   33.6360   44.1340 C   0  0  0  0  0  0  0  0  0  0  0  0
   46.3210   33.3450   45.4020 N   0  0  0  0  0  0  0  0  0  0  0  0
   45.3590   34.0370   46.0430 C   0  0  0  0  0  0  0  0  0  0  0  0
   44.7400   35.0510   45.4360 N   0  0  0  0  0  0  0  0  0  0  0  0
   44.4010   36.4760   43.5400 N   0  0  0  0  0  0  0  0  0  0  0  0
   46.3730   35.0850   42.1730 N   0  0  0  0  0  0  0  0  0  0  0  0
   47.4871   33.0571   43.6287 H   0  0  0  0  0  0  0  0  0  0  0  0
   45.0825   33.7645   47.0722 H   0  0  0  0  0  0  0  0  0  0  0  0
   44.6646   36.7253   42.5760 H   0  0  0  0  0  0  0  0  0  0  0  0
   43.6650   37.0075   44.0265 H   0  0  0  0  0  0  0  0  0  0  0  0
   45.8776   35.8721   41.7304 H   0  0  0  0  0  0  0  0  0  0  0  0
   47.1031   34.5780   41.6526 H   0  0  0  0  0  0  0  0  0  0  0  0
  1  6  2  0
  2  3  2  0
  2  1  1  0
  3  4  1  0
  4  5  2  0
  6  5  1  0
  7  1  1  0
  8  2  1  0
  3  9  1  0
  5 10  1  0
  7 11  1  0
  7 12  1  0
  8 13  1  0
  8 14  1  0
M  ISO  2   9  14  10  14
M  END
>  <minimizedAffinity>  (1) 
-3.17215991

>  <minimizedRMSD>  (1) 
0.227603003

$$$$
