
     RDKit          3D

 40 42  0  0  1  0  0  0  0  0999 V2000
   46.3910   34.8950   42.1790 N   0  0  0  0  0  0  0  0  0  0  0  0
   47.7120   35.4070   41.9910 C   0  0  0  0  0  0  0  0  0  0  0  0
   48.5790   34.4460   41.2900 C   0  0  0  0  0  0  0  0  0  0  0  0
   47.9020   33.4420   40.4460 C   0  0  0  0  0  0  0  0  0  0  0  0
   46.4810   33.6640   40.0580 C   0  0  0  0  0  0  0  0  0  0  0  0
   45.6850   34.5030   41.0060 C   0  0  1  0  0  0  0  0  0  0  0  0
   45.0930   35.9320   43.9390 C   0  0  0  0  0  0  0  0  0  0  0  0
   45.8510   34.8220   43.4730 C   0  0  0  0  0  0  0  0  0  0  0  0
   45.9900   33.7250   44.3110 C   0  0  0  0  0  0  0  0  0  0  0  0
   45.3900   33.7810   45.5220 N   0  0  0  0  0  0  0  0  0  0  0  0
   44.6790   34.8350   45.9420 C   0  0  0  0  0  0  0  0  0  0  0  0
   44.5230   35.9270   45.1480 N   0  0  0  0  0  0  0  0  0  0  0  0
   44.9660   37.0830   43.1090 N   0  0  0  0  0  0  0  0  0  0  0  0
   43.7170   33.0080   41.3860 C   0  0  0  0  0  0  0  0  0  0  0  0
   44.2570   34.2370   41.0750 C   0  0  0  0  0  0  0  0  0  0  0  0
   43.2490   35.1950   40.8590 C   0  0  0  0  0  0  0  0  0  0  0  0
   41.9010   35.0250   40.9260 C   0  0  0  0  0  0  0  0  0  0  0  0
   41.4360   33.7840   41.2410 C   0  0  0  0  0  0  0  0  0  0  0  0
   42.3460   32.7580   41.4750 C   0  0  0  0  0  0  0  0  0  0  0  0
   44.6820   31.6310   41.6640 S   0  0  0  0  0  0  0  0  0  0  0  0
   44.3840   30.6470   40.5380 O   0  0  0  0  0  0  0  0  0  0  0  0
   44.2440   30.9220   42.9390 O   0  0  0  0  0  0  0  0  0  0  0  0
   47.6539   36.3317   41.3980 H   0  0  0  0  0  0  0  0  0  0  0  0
   48.1476   35.5984   42.9828 H   0  0  0  0  0  0  0  0  0  0  0  0
   49.2608   35.0197   40.6450 H   0  0  0  0  0  0  0  0  0  0  0  0
   49.0772   33.8705   42.0840 H   0  0  0  0  0  0  0  0  0  0  0  0
   48.4814   33.3606   39.5145 H   0  0  0  0  0  0  0  0  0  0  0  0
   47.8646   32.5452   41.0819 H   0  0  0  0  0  0  0  0  0  0  0  0
   46.4699   34.1578   39.0751 H   0  0  0  0  0  0  0  0  0  0  0  0
   46.0066   32.6716   40.0570 H   0  0  0  0  0  0  0  0  0  0  0  0
   45.5889   35.4807   40.5112 H   0  0  0  0  0  0  0  0  0  0  0  0
   46.5675   32.8414   44.0017 H   0  0  0  0  0  0  0  0  0  0  0  0
   44.2164   34.8169   46.9398 H   0  0  0  0  0  0  0  0  0  0  0  0
   45.4019   37.0957   42.1759 H   0  0  0  0  0  0  0  0  0  0  0  0
   44.4382   37.9024   43.4421 H   0  0  0  0  0  0  0  0  0  0  0  0
   43.5943   36.2078   40.6041 H   0  0  0  0  0  0  0  0  0  0  0  0
   41.2112   35.8598   40.7327 H   0  0  0  0  0  0  0  0  0  0  0  0
   40.3545   33.5954   41.3095 H   0  0  0  0  0  0  0  0  0  0  0  0
   41.9858   31.7504   41.7300 H   0  0  0  0  0  0  0  0  0  0  0  0
   45.9960   32.0103   41.7448 H   0  0  0  0  0  0  0  0  0  0  0  0
  1  8  1  0
  2  1  1  0
  3  2  1  0
  4  3  1  0
  5  4  1  0
  5  6  1  0
  6 15  1  0
  6  1  1  0
  7 12  2  0
  8  7  1  0
  8  9  2  0
  9 10  1  0
 10 11  2  0
 12 11  1  0
 13  7  1  0
 14 19  2  0
 14 20  1  0
 15 14  1  0
 16 17  1  0
 16 15  2  0
 17 18  2  0
 18 19  1  0
 20 22  2  0
 21 20  2  0
  2 23  1  0
  2 24  1  0
  3 25  1  0
  3 26  1  0
  4 27  1  0
  4 28  1  0
  5 29  1  0
  5 30  1  0
  6 31  1  6
  9 32  1  0
 11 33  1  0
 13 34  1  0
 13 35  1  0
 16 36  1  0
 17 37  1  0
 18 38  1  0
 19 39  1  0
 20 40  1  0
M  ISO  8  23  13  24  13  25  13  26  13  27  13  28  13  29  13  30  13
M  ISO  8  31  13  32  14  33  14  36  14  37  14  38  14  39  14  40  11
M  END
>  <minimizedAffinity>  (1) 
-5.53611946

>  <minimizedRMSD>  (1) 
0.563198924

$$$$
