
     RDKit          3D

 38 40  0  0  1  0  0  0  0  0999 V2000
   46.4910   34.8640   42.1740 N   0  0  0  0  0  0  0  0  0  0  0  0
   47.8190   35.3860   41.9940 C   0  0  0  0  0  0  0  0  0  0  0  0
   48.6780   34.4440   41.2640 C   0  0  0  0  0  0  0  0  0  0  0  0
   47.9970   33.4080   40.4480 C   0  0  0  0  0  0  0  0  0  0  0  0
   46.5880   33.6930   40.0340 C   0  0  0  0  0  0  0  0  0  0  0  0
   45.7730   34.4680   41.0140 C   0  0  1  0  0  0  0  0  0  0  0  0
   45.0240   35.7690   43.8760 C   0  0  0  0  0  0  0  0  0  0  0  0
   45.9440   34.7710   43.4610 C   0  0  0  0  0  0  0  0  0  0  0  0
   46.2330   33.7540   44.3690 C   0  0  0  0  0  0  0  0  0  0  0  0
   45.6340   33.7670   45.5760 N   0  0  0  0  0  0  0  0  0  0  0  0
   44.7640   34.7320   45.9320 C   0  0  0  0  0  0  0  0  0  0  0  0
   44.4530   35.7370   45.0910 N   0  0  0  0  0  0  0  0  0  0  0  0
   44.7010   36.8370   42.9880 N   0  0  0  0  0  0  0  0  0  0  0  0
   44.6020   32.3480   41.6760 C   0  0  0  0  0  0  0  0  0  0  0  0
   44.5380   33.6830   41.2470 C   0  0  0  0  0  0  0  0  0  0  0  0
   43.2430   34.1260   41.1110 C   0  0  0  0  0  0  0  0  0  0  0  0
   42.1220   33.3620   41.3610 C   0  0  0  0  0  0  0  0  0  0  0  0
   42.2730   32.0580   41.7810 C   0  0  0  0  0  0  0  0  0  0  0  0
   43.5380   31.5290   41.9460 C   0  0  0  0  0  0  0  0  0  0  0  0
   46.9870   31.3060   41.9900 N   0  0  0  0  0  0  0  0  0  0  0  0
   45.9170   31.7760   41.8550 C   0  0  0  0  0  0  0  0  0  0  0  0
   47.7586   36.3266   41.4269 H   0  0  0  0  0  0  0  0  0  0  0  0
   48.2598   35.5530   42.9879 H   0  0  0  0  0  0  0  0  0  0  0  0
   49.3171   35.0319   40.5887 H   0  0  0  0  0  0  0  0  0  0  0  0
   49.2184   33.8860   42.0429 H   0  0  0  0  0  0  0  0  0  0  0  0
   48.5897   33.2627   39.5328 H   0  0  0  0  0  0  0  0  0  0  0  0
   47.9319   32.5249   41.1006 H   0  0  0  0  0  0  0  0  0  0  0  0
   46.6202   34.2637   39.0942 H   0  0  0  0  0  0  0  0  0  0  0  0
   46.0970   32.7129   39.9423 H   0  0  0  0  0  0  0  0  0  0  0  0
   45.4941   35.4521   40.6093 H   0  0  0  0  0  0  0  0  0  0  0  0
   46.9391   32.9531   44.1045 H   0  0  0  0  0  0  0  0  0  0  0  0
   44.2989   34.6985   46.9283 H   0  0  0  0  0  0  0  0  0  0  0  0
   45.1301   36.8766   42.0525 H   0  0  0  0  0  0  0  0  0  0  0  0
   44.0386   37.5689   43.2821 H   0  0  0  0  0  0  0  0  0  0  0  0
   43.0903   35.1636   40.7792 H   0  0  0  0  0  0  0  0  0  0  0  0
   41.1174   33.7893   41.2265 H   0  0  0  0  0  0  0  0  0  0  0  0
   41.3867   31.4391   41.9846 H   0  0  0  0  0  0  0  0  0  0  0  0
   43.6851   30.4916   42.2808 H   0  0  0  0  0  0  0  0  0  0  0  0
  1  8  1  0
  2  1  1  0
  3  2  1  0
  4  3  1  0
  5  4  1  0
  5  6  1  0
  6 15  1  0
  6  1  1  0
  7 12  2  0
  8  7  1  0
  8  9  2  0
  9 10  1  0
 10 11  2  0
 12 11  1  0
 13  7  1  0
 14 21  1  0
 14 19  2  0
 15 14  1  0
 16 15  2  0
 16 17  1  0
 17 18  2  0
 18 19  1  0
 21 20  3  0
  2 22  1  0
  2 23  1  0
  3 24  1  0
  3 25  1  0
  4 26  1  0
  4 27  1  0
  5 28  1  0
  5 29  1  0
  6 30  1  6
  9 31  1  0
 11 32  1  0
 13 33  1  0
 13 34  1  0
 16 35  1  0
 17 36  1  0
 18 37  1  0
 19 38  1  0
M  ISO  8  22  13  23  13  24  13  25  13  26  13  27  13  28  13  29  13
M  ISO  7  30  13  31  14  32  14  35  14  36  14  37  14  38  14
M  END
>  <minimizedAffinity>  (1) 
-5.144557

>  <minimizedRMSD>  (1) 
0.133698791

$$$$
