
     RDKit          3D

 39 41  0  0  1  0  0  0  0  0999 V2000
   46.4180   34.8700   42.2050 N   0  0  0  0  0  0  0  0  0  0  0  0
   47.7450   35.3610   41.9980 C   0  0  0  0  0  0  0  0  0  0  0  0
   48.5730   34.4040   41.2450 C   0  0  0  0  0  0  0  0  0  0  0  0
   47.8420   33.4350   40.3870 C   0  0  0  0  0  0  0  0  0  0  0  0
   46.4340   33.7250   40.0420 C   0  0  0  0  0  0  0  0  0  0  0  0
   45.6560   34.5050   41.0580 C   0  0  1  0  0  0  0  0  0  0  0  0
   45.0430   35.8050   43.9680 C   0  0  0  0  0  0  0  0  0  0  0  0
   45.8960   34.7650   43.5010 C   0  0  0  0  0  0  0  0  0  0  0  0
   46.1530   33.6960   44.3630 C   0  0  0  0  0  0  0  0  0  0  0  0
   45.5800   33.7150   45.5840 N   0  0  0  0  0  0  0  0  0  0  0  0
   44.7730   34.7180   46.0000 C   0  0  0  0  0  0  0  0  0  0  0  0
   44.5030   35.7650   45.1970 N   0  0  0  0  0  0  0  0  0  0  0  0
   44.7620   36.9140   43.1170 N   0  0  0  0  0  0  0  0  0  0  0  0
   44.4340   33.8890   41.4280 N   0  0  0  0  0  0  0  0  0  0  0  0
   44.3070   32.4900   41.2930 C   0  0  0  0  0  0  0  0  0  0  0  0
   43.1430   32.2280   40.3490 C   0  0  0  0  0  0  0  0  0  0  0  0
   42.6390   33.6020   40.0040 C   0  0  0  0  0  0  0  0  0  0  0  0
   43.2280   34.5300   41.0480 C   0  0  0  0  0  0  0  0  0  0  0  0
   47.6914   36.3047   41.4353 H   0  0  0  0  0  0  0  0  0  0  0  0
   48.2100   35.5129   42.9832 H   0  0  0  0  0  0  0  0  0  0  0  0
   49.2487   34.9821   40.5975 H   0  0  0  0  0  0  0  0  0  0  0  0
   49.0841   33.7956   42.0057 H   0  0  0  0  0  0  0  0  0  0  0  0
   48.3984   33.3533   39.4416 H   0  0  0  0  0  0  0  0  0  0  0  0
   47.7886   32.5207   40.9962 H   0  0  0  0  0  0  0  0  0  0  0  0
   46.4286   34.2969   39.1024 H   0  0  0  0  0  0  0  0  0  0  0  0
   45.9371   32.7458   39.9758 H   0  0  0  0  0  0  0  0  0  0  0  0
   45.3991   35.4400   40.5386 H   0  0  0  0  0  0  0  0  0  0  0  0
   46.8031   32.8638   44.0552 H   0  0  0  0  0  0  0  0  0  0  0  0
   44.3318   34.6779   47.0068 H   0  0  0  0  0  0  0  0  0  0  0  0
   45.1708   36.9550   42.1725 H   0  0  0  0  0  0  0  0  0  0  0  0
   44.1502   37.6742   43.4468 H   0  0  0  0  0  0  0  0  0  0  0  0
   45.2325   32.0670   40.8752 H   0  0  0  0  0  0  0  0  0  0  0  0
   44.1272   32.0201   42.2712 H   0  0  0  0  0  0  0  0  0  0  0  0
   43.4827   31.6981   39.4469 H   0  0  0  0  0  0  0  0  0  0  0  0
   42.3664   31.5928   40.8001 H   0  0  0  0  0  0  0  0  0  0  0  0
   42.9766   33.8929   38.9983 H   0  0  0  0  0  0  0  0  0  0  0  0
   41.5397   33.6417   39.9999 H   0  0  0  0  0  0  0  0  0  0  0  0
   43.4299   35.5232   40.6204 H   0  0  0  0  0  0  0  0  0  0  0  0
   42.5502   34.6995   41.8976 H   0  0  0  0  0  0  0  0  0  0  0  0
  1  8  1  0
  2  1  1  0
  3  2  1  0
  4  3  1  0
  5  4  1  0
  5  6  1  0
  6 14  1  0
  6  1  1  0
  7 12  2  0
  8  7  1  0
  8  9  2  0
  9 10  1  0
 10 11  2  0
 12 11  1  0
 13  7  1  0
 14 15  1  0
 16 15  1  0
 17 16  1  0
 17 18  1  0
 18 14  1  0
  2 19  1  0
  2 20  1  0
  3 21  1  0
  3 22  1  0
  4 23  1  0
  4 24  1  0
  5 25  1  0
  5 26  1  0
  6 27  1  6
  9 28  1  0
 11 29  1  0
 13 30  1  0
 13 31  1  0
 15 32  1  0
 15 33  1  0
 16 34  1  0
 16 35  1  0
 17 36  1  0
 17 37  1  0
 18 38  1  0
 18 39  1  0
M  ISO  8  19  13  20  13  21  13  22  13  23  13  24  13  25  13  26  13
M  ISO  8  27  13  28  14  29  14  32  13  33  13  34  13  35  13  36  13
M  ISO  3  37  13  38  13  39  13
M  END
>  <minimizedAffinity>  (1) 
-4.99544287

>  <minimizedRMSD>  (1) 
0.980051398

$$$$
