
     RDKit          3D

 42 44  0  0  1  0  0  0  0  0999 V2000
   46.5260   34.3620   42.3870 N   0  0  0  0  0  0  0  0  0  0  0  0
   47.6330   35.2000   42.0380 C   0  0  0  0  0  0  0  0  0  0  0  0
   48.7910   34.3910   41.6070 C   0  0  0  0  0  0  0  0  0  0  0  0
   48.5240   32.9990   41.1710 C   0  0  0  0  0  0  0  0  0  0  0  0
   47.1410   32.6430   40.7670 C   0  0  0  0  0  0  0  0  0  0  0  0
   46.0470   33.3980   41.4510 C   0  0  2  0  0  0  0  0  0  0  0  0
   45.0050   35.5440   43.8830 C   0  0  0  0  0  0  0  0  0  0  0  0
   45.9190   34.5010   43.6670 C   0  0  0  0  0  0  0  0  0  0  0  0
   46.2000   33.6200   44.7430 C   0  0  0  0  0  0  0  0  0  0  0  0
   45.5580   33.8520   45.9180 N   0  0  0  0  0  0  0  0  0  0  0  0
   44.6940   34.8540   46.0850 C   0  0  0  0  0  0  0  0  0  0  0  0
   44.4150   35.6970   45.0810 N   0  0  0  0  0  0  0  0  0  0  0  0
   44.7230   36.4220   42.8210 N   0  0  0  0  0  0  0  0  0  0  0  0
   45.0030   33.8630   40.5680 N   0  0  0  0  0  0  0  0  0  0  0  0
   43.6960   33.4990   41.0880 C   0  0  0  0  0  0  0  0  0  0  0  0
   42.6740   34.3570   40.3840 C   0  0  0  0  0  0  0  0  0  0  0  0
   42.7170   34.0210   38.9230 C   0  0  0  0  0  0  0  0  0  0  0  0
   43.8870   33.2200   38.4780 C   0  0  0  0  0  0  0  0  0  0  0  0
   45.1720   33.4790   39.1980 C   0  0  0  0  0  0  0  0  0  0  0  0
   47.3343   35.8677   41.2164 H   0  0  0  0  0  0  0  0  0  0  0  0
   47.9232   35.7856   42.9228 H   0  0  0  0  0  0  0  0  0  0  0  0
   49.2654   34.9158   40.7647 H   0  0  0  0  0  0  0  0  0  0  0  0
   49.4154   34.2900   42.5070 H   0  0  0  0  0  0  0  0  0  0  0  0
   49.1776   32.7960   40.3099 H   0  0  0  0  0  0  0  0  0  0  0  0
   48.7100   32.3920   42.0693 H   0  0  0  0  0  0  0  0  0  0  0  0
   47.0490   32.8219   39.6855 H   0  0  0  0  0  0  0  0  0  0  0  0
   47.0061   31.5915   41.0606 H   0  0  0  0  0  0  0  0  0  0  0  0
   45.5271   32.6549   42.0735 H   0  0  0  0  0  0  0  0  0  0  0  0
   46.9072   32.7850   44.6309 H   0  0  0  0  0  0  0  0  0  0  0  0
   44.2036   34.9905   47.0601 H   0  0  0  0  0  0  0  0  0  0  0  0
   45.1833   36.2915   41.9089 H   0  0  0  0  0  0  0  0  0  0  0  0
   44.0562   37.1954   42.9554 H   0  0  0  0  0  0  0  0  0  0  0  0
   43.4952   32.4359   40.8891 H   0  0  0  0  0  0  0  0  0  0  0  0
   43.6531   33.6583   42.1756 H   0  0  0  0  0  0  0  0  0  0  0  0
   41.6713   34.1493   40.7858 H   0  0  0  0  0  0  0  0  0  0  0  0
   42.8972   35.4230   40.5385 H   0  0  0  0  0  0  0  0  0  0  0  0
   41.8069   33.4527   38.6804 H   0  0  0  0  0  0  0  0  0  0  0  0
   42.7966   34.9839   38.3971 H   0  0  0  0  0  0  0  0  0  0  0  0
   43.6363   32.1570   38.6090 H   0  0  0  0  0  0  0  0  0  0  0  0
   44.0679   33.5149   37.4338 H   0  0  0  0  0  0  0  0  0  0  0  0
   45.7770   32.5608   39.1678 H   0  0  0  0  0  0  0  0  0  0  0  0
   45.6592   34.3230   38.6878 H   0  0  0  0  0  0  0  0  0  0  0  0
  1  8  1  0
  2  1  1  0
  3  2  1  0
  4  3  1  0
  5  4  1  0
  5  6  1  0
  6  1  1  0
  7 12  2  0
  8  7  1  0
  8  9  2  0
  9 10  1  0
 10 11  2  0
 12 11  1  0
 13  7  1  0
 14 15  1  0
 14  6  1  0
 16 15  1  0
 17 16  1  0
 18 17  1  0
 18 19  1  0
 19 14  1  0
  2 20  1  0
  2 21  1  0
  3 22  1  0
  3 23  1  0
  4 24  1  0
  4 25  1  0
  5 26  1  0
  5 27  1  0
  6 28  1  1
  9 29  1  0
 11 30  1  0
 13 31  1  0
 13 32  1  0
 15 33  1  0
 15 34  1  0
 16 35  1  0
 16 36  1  0
 17 37  1  0
 17 38  1  0
 18 39  1  0
 18 40  1  0
 19 41  1  0
 19 42  1  0
M  ISO  8  20  13  21  13  22  13  23  13  24  13  25  13  26  13  27  13
M  ISO  8  28  13  29  14  30  14  33  13  34  13  35  13  36  13  37  13
M  ISO  5  38  13  39  13  40  13  41  13  42  13
M  END
>  <minimizedAffinity>  (1) 
-4.93643522

>  <minimizedRMSD>  (1) 
1.76809895

$$$$
