
     RDKit          3D

 16 16  0  0  0  0  0  0  0  0999 V2000
   47.2740   34.2070   43.2830 C   0  0  0  0  0  0  0  0  0  0  0  0
   46.6090   35.2020   42.5530 C   0  0  0  0  0  0  0  0  0  0  0  0
   45.3670   35.6420   43.0360 C   0  0  0  0  0  0  0  0  0  0  0  0
   44.8870   35.0780   44.1760 N   0  0  0  0  0  0  0  0  0  0  0  0
   45.5610   34.1210   44.8500 C   0  0  0  0  0  0  0  0  0  0  0  0
   46.7480   33.6880   44.4050 N   0  0  0  0  0  0  0  0  0  0  0  0
   48.5860   33.6480   42.8950 C   0  0  0  0  0  0  0  0  0  0  0  0
   49.5020   34.8110   42.5640 C   0  0  0  0  0  0  0  0  0  0  0  0
   47.0449   35.6226   41.6348 H   0  0  0  0  0  0  0  0  0  0  0  0
   44.7981   36.4210   42.5073 H   0  0  0  0  0  0  0  0  0  0  0  0
   45.1329   33.6949   45.7693 H   0  0  0  0  0  0  0  0  0  0  0  0
   49.0062   33.0652   43.7279 H   0  0  0  0  0  0  0  0  0  0  0  0
   48.4796   32.9815   42.0264 H   0  0  0  0  0  0  0  0  0  0  0  0
   49.8634   35.2699   43.4961 H   0  0  0  0  0  0  0  0  0  0  0  0
   50.3590   34.4475   41.9779 H   0  0  0  0  0  0  0  0  0  0  0  0
   48.9478   35.5589   41.9779 H   0  0  0  0  0  0  0  0  0  0  0  0
  1  6  2  0
  2  3  2  0
  2  1  1  0
  3  4  1  0
  4  5  2  0
  6  5  1  0
  7  1  1  0
  8  7  1  0
  2  9  1  0
  3 10  1  0
  5 11  1  0
  7 12  1  0
  7 13  1  0
  8 14  1  0
  8 15  1  0
  8 16  1  0
M  ISO  8   9  14  10  14  11  14  12   8  13   8  14   8  15   8  16   8
M  END
>  <minimizedAffinity>  (1) 
-3.01432514

>  <minimizedRMSD>  (1) 
3.95035887

$$$$
