
     RDKit          3D

 30 31  0  0  0  0  0  0  0  0999 V2000
   45.8140   33.4040   45.4880 C   0  0  0  0  0  0  0  0  0  0  0  0
   46.3990   33.9270   44.2450 C   0  0  0  0  0  0  0  0  0  0  0  0
   47.5980   33.4380   43.7520 C   0  0  0  0  0  0  0  0  0  0  0  0
   48.0960   33.9880   42.5490 C   0  0  0  0  0  0  0  0  0  0  0  0
   47.3550   34.9740   41.9490 N   0  0  0  0  0  0  0  0  0  0  0  0
   46.1990   35.4090   42.4760 C   0  0  0  0  0  0  0  0  0  0  0  0
   45.7180   34.9010   43.6050 N   0  0  0  0  0  0  0  0  0  0  0  0
   46.1110   31.9320   45.5880 C   0  0  0  0  0  0  0  0  0  0  0  0
   45.9960   31.5070   46.9330 N   0  0  0  0  0  0  0  0  0  0  0  0
   46.7210   32.2150   47.9260 C   0  0  0  0  0  0  0  0  0  0  0  0
   45.8820   32.1590   49.2110 C   0  0  0  0  0  0  0  0  0  0  0  0
   45.7990   30.7570   49.5590 N   0  0  0  0  0  0  0  0  0  0  0  0
   45.2310   29.9280   48.5370 C   0  0  0  0  0  0  0  0  0  0  0  0
   45.9000   30.1090   47.1740 C   0  0  0  0  0  0  0  0  0  0  0  0
   44.7253   33.5607   45.4776 H   0  0  0  0  0  0  0  0  0  0  0  0
   46.2462   33.9298   46.3521 H   0  0  0  0  0  0  0  0  0  0  0  0
   48.1463   32.6449   44.2814 H   0  0  0  0  0  0  0  0  0  0  0  0
   49.0423   33.6384   42.1104 H   0  0  0  0  0  0  0  0  0  0  0  0
   45.6383   36.2033   41.9615 H   0  0  0  0  0  0  0  0  0  0  0  0
   45.3961   31.3728   44.9665 H   0  0  0  0  0  0  0  0  0  0  0  0
   47.1362   31.7450   45.2358 H   0  0  0  0  0  0  0  0  0  0  0  0
   47.6994   31.7403   48.0914 H   0  0  0  0  0  0  0  0  0  0  0  0
   46.9016   33.2552   47.6171 H   0  0  0  0  0  0  0  0  0  0  0  0
   46.3730   32.7262   50.0155 H   0  0  0  0  0  0  0  0  0  0  0  0
   44.8859   32.6029   49.0671 H   0  0  0  0  0  0  0  0  0  0  0  0
   46.7507   30.4172   49.7580 H   0  0  0  0  0  0  0  0  0  0  0  0
   45.3363   28.8762   48.8413 H   0  0  0  0  0  0  0  0  0  0  0  0
   44.1769   30.2222   48.4256 H   0  0  0  0  0  0  0  0  0  0  0  0
   45.2927   29.6326   46.3903 H   0  0  0  0  0  0  0  0  0  0  0  0
   46.8961   29.6425   47.1639 H   0  0  0  0  0  0  0  0  0  0  0  0
  1  8  1  0
  2  1  1  0
  3  2  2  0
  4  3  1  0
  5  6  1  0
  5  4  2  0
  6  7  2  0
  7  2  1  0
  8  9  1  0
  9 14  1  0
  9 10  1  0
 10 11  1  0
 11 12  1  0
 13 12  1  0
 14 13  1  0
  1 15  1  0
  1 16  1  0
  3 17  1  0
  4 18  1  0
  6 19  1  0
  8 20  1  0
  8 21  1  0
 10 22  1  0
 10 23  1  0
 11 24  1  0
 11 25  1  0
 12 26  1  0
 13 27  1  0
 13 28  1  0
 14 29  1  0
 14 30  1  0
M  ISO  8  15   8  16   8  17  14  18  14  19  14  20   8  21   8  22  13
M  ISO  8  23  13  24  13  25  13  26   5  27  13  28  13  29  13  30  13
M  END
>  <minimizedAffinity>  (1) 
-3.9744072

>  <minimizedRMSD>  (1) 
6.74036503

$$$$
