
     RDKit          3D

 35 37  0  0  0  0  0  0  0  0999 V2000
   48.3710   33.9840   42.6140 C   0  0  0  0  0  0  0  0  0  0  0  0
   49.0400   33.1760   41.6530 C   0  0  0  0  0  0  0  0  0  0  0  0
   48.7540   32.5810   40.3770 C   0  0  0  0  0  0  0  0  0  0  0  0
   49.6870   31.8440   39.7530 C   0  0  0  0  0  0  0  0  0  0  0  0
   50.9820   31.6680   40.4000 C   0  0  0  0  0  0  0  0  0  0  0  0
   50.8240   32.6020   41.9530 S   0  0  0  0  0  0  0  0  0  0  0  0
   52.0600   30.9910   40.0250 N   0  0  0  0  0  0  0  0  0  0  0  0
   53.0590   30.2560   40.7840 C   0  0  0  0  0  0  0  0  0  0  0  0
   54.2500   30.0840   39.8760 C   0  0  0  0  0  0  0  0  0  0  0  0
   53.9420   30.9500   38.6780 C   0  0  0  0  0  0  0  0  0  0  0  0
   52.4340   30.8560   38.6080 C   0  0  0  0  0  0  0  0  0  0  0  0
   47.7660   35.2500   42.1120 C   0  0  0  0  0  0  0  0  0  0  0  0
   46.3150   35.1310   42.1530 C   0  0  0  0  0  0  0  0  0  0  0  0
   45.5350   35.6460   43.1790 C   0  0  0  0  0  0  0  0  0  0  0  0
   44.1510   35.4780   43.1170 C   0  0  0  0  0  0  0  0  0  0  0  0
   43.6380   34.8220   42.0600 N   0  0  0  0  0  0  0  0  0  0  0  0
   44.4020   34.3290   41.0730 C   0  0  0  0  0  0  0  0  0  0  0  0
   45.7230   34.4860   41.1280 N   0  0  0  0  0  0  0  0  0  0  0  0
   47.5645   33.3800   43.0552 H   0  0  0  0  0  0  0  0  0  0  0  0
   49.1498   34.2954   43.3256 H   0  0  0  0  0  0  0  0  0  0  0  0
   47.7690   32.7294   39.9104 H   0  0  0  0  0  0  0  0  0  0  0  0
   49.4792   31.3834   38.7759 H   0  0  0  0  0  0  0  0  0  0  0  0
   53.3455   30.8224   41.6824 H   0  0  0  0  0  0  0  0  0  0  0  0
   52.6685   29.2822   41.1145 H   0  0  0  0  0  0  0  0  0  0  0  0
   55.1704   30.4228   40.3740 H   0  0  0  0  0  0  0  0  0  0  0  0
   54.4161   29.0323   39.5996 H   0  0  0  0  0  0  0  0  0  0  0  0
   54.2717   31.9871   38.8381 H   0  0  0  0  0  0  0  0  0  0  0  0
   54.4514   30.6328   37.7561 H   0  0  0  0  0  0  0  0  0  0  0  0
   52.0093   31.6699   38.0020 H   0  0  0  0  0  0  0  0  0  0  0  0
   52.0658   29.9336   38.1351 H   0  0  0  0  0  0  0  0  0  0  0  0
   48.0922   35.4296   41.0769 H   0  0  0  0  0  0  0  0  0  0  0  0
   48.0879   36.0915   42.7431 H   0  0  0  0  0  0  0  0  0  0  0  0
   45.9985   36.1760   44.0242 H   0  0  0  0  0  0  0  0  0  0  0  0
   43.4977   35.8708   43.9100 H   0  0  0  0  0  0  0  0  0  0  0  0
   43.9409   33.7999   40.2260 H   0  0  0  0  0  0  0  0  0  0  0  0
  2  6  1  0
  2  1  1  0
  3  2  2  0
  4  3  1  0
  4  5  2  0
  5  6  1  0
  7  5  1  0
  7  8  1  0
  9  8  1  0
 10  9  1  0
 11 10  1  0
 11  7  1  0
 12 13  1  0
 12  1  1  0
 13 14  2  0
 15 14  1  0
 16 15  2  0
 17 18  2  0
 17 16  1  0
 18 13  1  0
  1 19  1  0
  1 20  1  0
  3 21  1  0
  4 22  1  0
  8 23  1  0
  8 24  1  0
  9 25  1  0
  9 26  1  0
 10 27  1  0
 10 28  1  0
 11 29  1  0
 11 30  1  0
 12 31  1  0
 12 32  1  0
 14 33  1  0
 15 34  1  0
 17 35  1  0
M  ISO  8  19   8  20   8  21  14  22  14  23  13  24  13  25  13  26  13
M  ISO  8  27  13  28  13  29  13  30  13  31   8  32   8  33  14  34  14
M  ISO  1  35  14
M  END
>  <minimizedAffinity>  (1) 
-3.92655206

>  <minimizedRMSD>  (1) 
0.955010355

$$$$
