
     RDKit          3D

 25 26  0  0  0  0  0  0  0  0999 V2000
   48.3480   34.0250   42.7450 C   0  0  0  0  0  0  0  0  0  0  0  0
   49.1210   33.1950   41.8730 C   0  0  0  0  0  0  0  0  0  0  0  0
   48.9230   32.4260   40.6770 C   0  0  0  0  0  0  0  0  0  0  0  0
   49.9580   31.7560   40.1410 C   0  0  0  0  0  0  0  0  0  0  0  0
   51.2520   31.8390   40.8020 C   0  0  0  0  0  0  0  0  0  0  0  0
   50.9490   32.9050   42.2180 S   0  0  0  0  0  0  0  0  0  0  0  0
   52.4580   31.2640   40.4720 C   0  0  0  0  0  0  0  0  0  0  0  0
   52.8210   31.4720   39.2660 O   0  0  0  0  0  0  0  0  0  0  0  0
   47.7320   35.2450   42.0990 C   0  0  0  0  0  0  0  0  0  0  0  0
   46.2840   35.1090   42.1010 C   0  0  0  0  0  0  0  0  0  0  0  0
   45.4980   35.6630   43.1160 C   0  0  0  0  0  0  0  0  0  0  0  0
   44.1200   35.5000   43.0630 C   0  0  0  0  0  0  0  0  0  0  0  0
   43.6020   34.8000   42.0140 N   0  0  0  0  0  0  0  0  0  0  0  0
   44.3880   34.2770   41.0480 C   0  0  0  0  0  0  0  0  0  0  0  0
   45.7100   34.4350   41.1010 N   0  0  0  0  0  0  0  0  0  0  0  0
   47.5340   33.4140   43.1622 H   0  0  0  0  0  0  0  0  0  0  0  0
   49.0486   34.4040   43.5036 H   0  0  0  0  0  0  0  0  0  0  0  0
   47.9314   32.3853   40.2025 H   0  0  0  0  0  0  0  0  0  0  0  0
   49.8300   31.1598   39.2255 H   0  0  0  0  0  0  0  0  0  0  0  0
   53.0562   30.6771   41.1845 H   0  0  0  0  0  0  0  0  0  0  0  0
   48.0915   35.3337   41.0632 H   0  0  0  0  0  0  0  0  0  0  0  0
   48.0189   36.1453   42.6622 H   0  0  0  0  0  0  0  0  0  0  0  0
   45.9637   36.2189   43.9431 H   0  0  0  0  0  0  0  0  0  0  0  0
   43.4677   35.9218   43.8419 H   0  0  0  0  0  0  0  0  0  0  0  0
   43.9354   33.7190   40.2151 H   0  0  0  0  0  0  0  0  0  0  0  0
  2  6  1  0
  2  1  1  0
  3  2  2  0
  4  3  1  0
  4  5  2  0
  5  6  1  0
  7  5  1  0
  8  7  2  0
  9 10  1  0
  9  1  1  0
 10 11  2  0
 12 11  1  0
 13 12  2  0
 14 15  2  0
 14 13  1  0
 15 10  1  0
  1 16  1  0
  1 17  1  0
  3 18  1  0
  4 19  1  0
  7 20  1  0
  9 21  1  0
  9 22  1  0
 11 23  1  0
 12 24  1  0
 14 25  1  0
M  ISO  8  16   8  17   8  18  14  19  14  20   6  21   8  22   8  23  14
M  ISO  2  24  14  25  14
M  END
>  <minimizedAffinity>  (1) 
-3.6465807

>  <minimizedRMSD>  (1) 
1.02858531

$$$$
