
     RDKit          3D

 27 28  0  0  0  0  0  0  0  0999 V2000
   44.5590   36.3180   44.2880 C   0  0  0  0  0  0  0  0  0  0  0  0
   45.2570   36.0290   43.1030 C   0  0  0  0  0  0  0  0  0  0  0  0
   46.0120   34.8400   43.0720 C   0  0  0  0  0  0  0  0  0  0  0  0
   46.0160   34.0550   44.1810 N   0  0  0  0  0  0  0  0  0  0  0  0
   45.3380   34.3680   45.2890 C   0  0  0  0  0  0  0  0  0  0  0  0
   44.6050   35.4980   45.3530 N   0  0  0  0  0  0  0  0  0  0  0  0
   46.4500   32.4920   46.3860 C   0  0  0  0  0  0  0  0  0  0  0  0
   47.2860   32.3620   45.4750 O   0  0  0  0  0  0  0  0  0  0  0  0
   45.4010   33.4760   46.4150 N   0  0  0  0  0  0  0  0  0  0  0  0
   46.4270   31.6120   47.6070 C   0  0  0  0  0  0  0  0  0  0  0  0
   45.5970   30.3840   47.4000 C   0  0  0  0  0  0  0  0  0  0  0  0
   45.0470   30.0630   48.7580 C   0  0  0  0  0  0  0  0  0  0  0  0
   45.2710   31.2700   49.6290 C   0  0  0  0  0  0  0  0  0  0  0  0
   45.6420   32.3680   48.6570 C   0  0  0  0  0  0  0  0  0  0  0  0
   43.9596   37.2385   44.3460 H   0  0  0  0  0  0  0  0  0  0  0  0
   45.2155   36.7036   42.2351 H   0  0  0  0  0  0  0  0  0  0  0  0
   46.5821   34.5552   42.1754 H   0  0  0  0  0  0  0  0  0  0  0  0
   44.7337   33.5380   47.1971 H   0  0  0  0  0  0  0  0  0  0  0  0
   47.4662   31.3531   47.8581 H   0  0  0  0  0  0  0  0  0  0  0  0
   44.7820   30.5820   46.6883 H   0  0  0  0  0  0  0  0  0  0  0  0
   46.1818   29.5521   46.9805 H   0  0  0  0  0  0  0  0  0  0  0  0
   43.9712   29.8450   48.6864 H   0  0  0  0  0  0  0  0  0  0  0  0
   45.5468   29.1793   49.1814 H   0  0  0  0  0  0  0  0  0  0  0  0
   44.3542   31.5295   50.1787 H   0  0  0  0  0  0  0  0  0  0  0  0
   46.0477   31.1015   50.3894 H   0  0  0  0  0  0  0  0  0  0  0  0
   46.2614   33.1372   49.1414 H   0  0  0  0  0  0  0  0  0  0  0  0
   44.7756   32.9129   48.2540 H   0  0  0  0  0  0  0  0  0  0  0  0
  1  6  2  0
  2  1  1  0
  3  2  2  0
  3  4  1  0
  4  5  2  0
  5  6  1  0
  5  9  1  0
  7  9  1  0
  7 10  1  0
  8  7  2  0
 10 14  1  0
 11 10  1  0
 11 12  1  0
 12 13  1  0
 14 13  1  0
  1 15  1  0
  2 16  1  0
  3 17  1  0
  9 18  1  0
 10 19  1  0
 11 20  1  0
 11 21  1  0
 12 22  1  0
 12 23  1  0
 13 24  1  0
 13 25  1  0
 14 26  1  0
 14 27  1  0
M  ISO  8  15  14  16  14  17  14  19  13  20  13  21  13  22  13  23  13
M  ISO  4  24  13  25  13  26  13  27  13
M  END
>  <minimizedAffinity>  (1) 
-5.56399155

>  <minimizedRMSD>  (1) 
0.732562602

$$$$
