
     RDKit          3D

 37 39  0  0  0  0  0  0  0  0999 V2000
   48.1910   33.7470   42.6130 C   0  0  0  0  0  0  0  0  0  0  0  0
   49.1040   33.0420   41.7950 C   0  0  0  0  0  0  0  0  0  0  0  0
   49.0540   32.2540   40.6190 C   0  0  0  0  0  0  0  0  0  0  0  0
   50.1660   31.6940   40.1040 C   0  0  0  0  0  0  0  0  0  0  0  0
   51.3980   31.9340   40.8020 C   0  0  0  0  0  0  0  0  0  0  0  0
   50.9470   32.9690   42.1990 S   0  0  0  0  0  0  0  0  0  0  0  0
   52.5740   31.4990   40.4920 O   0  0  0  0  0  0  0  0  0  0  0  0
   52.9480   30.7270   39.4020 C   0  0  0  0  0  0  0  0  0  0  0  0
   53.2910   31.5740   38.1850 C   0  0  0  0  0  0  0  0  0  0  0  0
   54.5920   31.0490   37.6270 C   0  0  0  0  0  0  0  0  0  0  0  0
   54.6330   29.6270   38.1970 C   0  0  0  0  0  0  0  0  0  0  0  0
   54.2050   29.9310   39.6230 C   0  0  0  0  0  0  0  0  0  0  0  0
   47.6740   35.0370   42.1230 C   0  0  0  0  0  0  0  0  0  0  0  0
   46.2200   35.0280   42.0700 C   0  0  0  0  0  0  0  0  0  0  0  0
   45.4620   35.6210   43.0660 C   0  0  0  0  0  0  0  0  0  0  0  0
   44.0720   35.5660   42.9410 C   0  0  0  0  0  0  0  0  0  0  0  0
   43.5400   34.9420   41.8600 N   0  0  0  0  0  0  0  0  0  0  0  0
   44.3200   34.3850   40.9240 C   0  0  0  0  0  0  0  0  0  0  0  0
   45.6260   34.4290   41.0310 N   0  0  0  0  0  0  0  0  0  0  0  0
   47.3249   33.0893   42.7780 H   0  0  0  0  0  0  0  0  0  0  0  0
   48.7717   34.0076   43.5101 H   0  0  0  0  0  0  0  0  0  0  0  0
   48.0884   32.0962   40.1163 H   0  0  0  0  0  0  0  0  0  0  0  0
   50.1318   31.0813   39.1911 H   0  0  0  0  0  0  0  0  0  0  0  0
   52.0708   30.0798   39.2545 H   0  0  0  0  0  0  0  0  0  0  0  0
   52.4955   31.4884   37.4301 H   0  0  0  0  0  0  0  0  0  0  0  0
   53.3848   32.6345   38.4616 H   0  0  0  0  0  0  0  0  0  0  0  0
   54.5797   31.0384   36.5271 H   0  0  0  0  0  0  0  0  0  0  0  0
   55.4674   31.6592   37.8943 H   0  0  0  0  0  0  0  0  0  0  0  0
   53.9244   28.9576   37.6873 H   0  0  0  0  0  0  0  0  0  0  0  0
   55.5944   29.1028   38.0929 H   0  0  0  0  0  0  0  0  0  0  0  0
   54.9663   30.5227   40.1525 H   0  0  0  0  0  0  0  0  0  0  0  0
   54.0625   29.0360   40.2465 H   0  0  0  0  0  0  0  0  0  0  0  0
   48.0046   35.8381   42.8005 H   0  0  0  0  0  0  0  0  0  0  0  0
   48.0613   35.2077   41.1077 H   0  0  0  0  0  0  0  0  0  0  0  0
   45.9376   36.1175   43.9247 H   0  0  0  0  0  0  0  0  0  0  0  0
   43.4217   36.0194   43.7036 H   0  0  0  0  0  0  0  0  0  0  0  0
   43.8606   33.8862   40.0579 H   0  0  0  0  0  0  0  0  0  0  0  0
  2  6  1  0
  2  1  1  0
  3  2  2  0
  4  3  1  0
  4  5  2  0
  5  6  1  0
  7  5  1  0
  8 12  1  0
  8  7  1  0
  9  8  1  0
 10  9  1  0
 10 11  1  0
 11 12  1  0
 13  1  1  0
 14 13  1  0
 14 15  2  0
 16 15  1  0
 17 16  2  0
 18 19  2  0
 18 17  1  0
 19 14  1  0
  1 20  1  0
  1 21  1  0
  3 22  1  0
  4 23  1  0
  8 24  1  0
  9 25  1  0
  9 26  1  0
 10 27  1  0
 10 28  1  0
 11 29  1  0
 11 30  1  0
 12 31  1  0
 12 32  1  0
 13 33  1  0
 13 34  1  0
 15 35  1  0
 16 36  1  0
 18 37  1  0
M  ISO  8  20   8  21   8  22  14  23  14  24  13  25  13  26  13  27  13
M  ISO  8  28  13  29  13  30  13  31  13  32  13  33   8  34   8  35  14
M  ISO  2  36  14  37  14
M  END
>  <minimizedAffinity>  (1) 
-4.16833019

>  <minimizedRMSD>  (1) 
0.308208704

$$$$
