
     RDKit          3D

 36 37  0  0  0  0  0  0  0  0999 V2000
   47.6777   35.1035   42.1342 C   0  0  0  0  0  0  0  0  0  0  0  0
   46.2263   35.0567   42.0846 C   0  0  0  0  0  0  0  0  0  0  0  0
   45.4462   35.6295   43.0663 C   0  0  0  0  0  0  0  0  0  0  0  0
   44.0645   35.5483   42.9607 C   0  0  0  0  0  0  0  0  0  0  0  0
   43.5467   34.9094   41.8968 N   0  0  0  0  0  0  0  0  0  0  0  0
   44.3379   34.3585   40.9517 C   0  0  0  0  0  0  0  0  0  0  0  0
   45.6418   34.4339   41.0493 N   0  0  0  0  0  0  0  0  0  0  0  0
   48.2360   33.8413   42.6484 C   0  0  0  0  0  0  0  0  0  0  0  0
   49.0975   33.0974   41.8120 C   0  0  0  0  0  0  0  0  0  0  0  0
   48.9843   32.3256   40.6312 C   0  0  0  0  0  0  0  0  0  0  0  0
   50.0593   31.7112   40.0915 C   0  0  0  0  0  0  0  0  0  0  0  0
   51.3159   31.8774   40.7688 C   0  0  0  0  0  0  0  0  0  0  0  0
   50.9376   32.9250   42.1864 S   0  0  0  0  0  0  0  0  0  0  0  0
   52.4543   31.3783   40.4240 O   0  0  0  0  0  0  0  0  0  0  0  0
   47.9622   35.9708   42.7968 H   0  0  0  0  0  0  0  0  0  0  0  0
   48.0598   35.3970   41.1192 H   0  0  0  0  0  0  0  0  0  0  0  0
   45.8542   36.1350   43.9082 H   0  0  0  0  0  0  0  0  0  0  0  0
   43.4374   35.9938   43.7248 H   0  0  0  0  0  0  0  0  0  0  0  0
   43.8536   33.8506   40.1074 H   0  0  0  0  0  0  0  0  0  0  0  0
   47.3869   33.1606   42.9710 H   0  0  0  0  0  0  0  0  0  0  0  0
   48.7564   34.0289   43.6339 H   0  0  0  0  0  0  0  0  0  0  0  0
   47.9717   32.3135   40.2655 H   0  0  0  0  0  0  0  0  0  0  0  0
   49.9760   31.1244   39.1949 H   0  0  0  0  0  0  0  0  0  0  0  0
   52.9145   30.5706   39.3892 C   0  0  0  0  0  0  0  0  0  0  0  0
   54.1352   30.9854   38.7693 N   0  0  0  0  0  4  0  0  0  0  0  0
   54.7208   29.8259   38.1083 C   0  0  0  0  0  0  0  0  0  0  0  0
   53.9485   29.2398   37.5632 H   0  0  0  0  0  0  0  0  0  0  0  0
   55.0822   31.4064   39.7826 C   0  0  0  0  0  0  0  0  0  0  0  0
   54.9084   32.4458   40.0999 H   0  0  0  0  0  0  0  0  0  0  0  0
   52.1273   30.3664   38.6434 H   0  0  0  0  0  0  0  0  0  0  0  0
   53.1320   29.5639   39.8526 H   0  0  0  0  0  0  0  0  0  0  0  0
   54.0381   31.7085   38.0483 H   0  0  0  0  0  0  0  0  0  0  0  0
   55.4643   30.1238   37.3285 H   0  0  0  0  0  0  0  0  0  0  0  0
   55.1881   29.1123   38.8368 H   0  0  0  0  0  0  0  0  0  0  0  0
   56.1196   31.2416   39.4205 H   0  0  0  0  0  0  0  0  0  0  0  0
   54.9941   30.7689   40.6929 H   0  0  0  0  0  0  0  0  0  0  0  0
  1  8  1  0
  2  1  1  0
  2  3  2  0
  4  3  1  0
  5  4  2  0
  6  7  2  0
  6  5  1  0
  7  2  1  0
  9 13  1  0
  9  8  1  0
 10  9  2  0
 11 10  1  0
 11 12  2  0
 12 13  1  0
 14 12  1  0
  1 15  1  0
  1 16  1  0
  3 17  1  0
  4 18  1  0
  6 19  1  0
  8 20  1  0
  8 21  1  0
 10 22  1  0
 11 23  1  0
 24 25  1  0
 25 26  1  0
 26 27  1  0
 25 28  1  0
 28 29  1  0
 24 30  1  0
 24 31  1  0
 25 32  1  0
 26 33  1  0
 26 34  1  0
 28 35  1  0
 28 36  1  0
 14 24  1  0
M  CHG  1  25   1
M  END
>  <DihAtoms>  (1) 
11,13,23,24

>  <DihDeg>  (1) 
60.00485764610117

$$$$
