
     RDKit          3D

 20 21  0  0  0  0  0  0  0  0999 V2000
   44.6570   36.4460   43.9010 C   0  0  0  0  0  0  0  0  0  0  0  0
   45.4650   35.9900   42.8380 C   0  0  0  0  0  0  0  0  0  0  0  0
   46.1760   34.8040   42.9790 C   0  0  0  0  0  0  0  0  0  0  0  0
   46.0530   34.1320   44.1520 N   0  0  0  0  0  0  0  0  0  0  0  0
   45.2760   34.5840   45.1550 C   0  0  0  0  0  0  0  0  0  0  0  0
   44.5750   35.7450   45.0290 N   0  0  0  0  0  0  0  0  0  0  0  0
   46.1760   32.8270   46.5490 C   0  0  0  0  0  0  0  0  0  0  0  0
   47.1000   32.5440   45.7520 O   0  0  0  0  0  0  0  0  0  0  0  0
   45.1800   33.8410   46.3690 N   0  0  0  0  0  0  0  0  0  0  0  0
   46.1250   32.0330   47.7820 C   0  0  0  0  0  0  0  0  0  0  0  0
   44.9810   31.6620   48.3960 N   0  0  0  0  0  0  0  0  0  0  0  0
   45.2780   30.9380   49.5110 C   0  0  0  0  0  0  0  0  0  0  0  0
   46.6350   30.8720   49.5680 N   0  0  0  0  0  0  0  0  0  0  0  0
   47.1310   31.5320   48.5260 N   0  0  0  0  0  0  0  0  0  0  0  0
   44.0928   37.3845   43.7968 H   0  0  0  0  0  0  0  0  0  0  0  0
   45.5317   36.5686   41.9049 H   0  0  0  0  0  0  0  0  0  0  0  0
   46.8155   34.4235   42.1689 H   0  0  0  0  0  0  0  0  0  0  0  0
   44.4452   34.0211   47.0680 H   0  0  0  0  0  0  0  0  0  0  0  0
   44.5642   30.4960   50.2217 H   0  0  0  0  0  0  0  0  0  0  0  0
   47.1850   30.3923   50.2948 H   0  0  0  0  0  0  0  0  0  0  0  0
  1  6  2  0
  2  3  2  0
  2  1  1  0
  3  4  1  0
  4  5  2  0
  5  9  1  0
  6  5  1  0
  7 10  1  0
  8  7  2  0
  9  7  1  0
 10 11  1  0
 10 14  2  0
 11 12  2  0
 12 13  1  0
 14 13  1  0
  1 15  1  0
  2 16  1  0
  3 17  1  0
  9 18  1  0
 12 19  1  0
 13 20  1  0
M  ISO  5  15  14  16  14  17  14  19  14  20   9
M  END
>  <minimizedAffinity>  (1) 
-5.44750452

>  <minimizedRMSD>  (1) 
0.759394646

$$$$
