
     RDKit          3D

 29 30  0  0  0  0  0  0  0  0999 V2000
   46.6370   32.8750   46.4130 C   0  0  0  0  0  0  0  0  0  0  0  0
   45.5920   32.2250   47.1820 N   0  0  0  0  0  0  0  0  0  0  0  0
   45.8690   32.4710   48.5840 C   0  0  0  0  0  0  0  0  0  0  0  0
   45.2080   31.3880   49.4310 C   0  0  0  0  0  0  0  0  0  0  0  0
   46.0570   30.2090   49.3010 N   0  0  0  0  0  0  0  0  0  0  0  0
   46.5040   30.0910   47.9270 C   0  0  0  0  0  0  0  0  0  0  0  0
   45.5630   30.7920   46.9600 C   0  0  0  0  0  0  0  0  0  0  0  0
   44.5490   35.4780   44.9240 C   0  0  0  0  0  0  0  0  0  0  0  0
   45.0530   35.5920   43.6140 C   0  0  0  0  0  0  0  0  0  0  0  0
   46.1090   34.7720   43.2550 C   0  0  0  0  0  0  0  0  0  0  0  0
   46.6010   33.9130   44.1560 N   0  0  0  0  0  0  0  0  0  0  0  0
   46.1070   33.8190   45.4000 C   0  0  0  0  0  0  0  0  0  0  0  0
   45.0720   34.6040   45.7970 N   0  0  0  0  0  0  0  0  0  0  0  0
   44.4050   36.5590   42.7960 N   0  0  0  0  0  0  0  0  0  0  0  0
   47.2871   33.4311   47.1045 H   0  0  0  0  0  0  0  0  0  0  0  0
   47.1877   32.0892   45.8751 H   0  0  0  0  0  0  0  0  0  0  0  0
   46.9561   32.4547   48.7513 H   0  0  0  0  0  0  0  0  0  0  0  0
   45.4686   33.4549   48.8695 H   0  0  0  0  0  0  0  0  0  0  0  0
   45.1515   31.7053   50.4827 H   0  0  0  0  0  0  0  0  0  0  0  0
   44.1793   31.1851   49.0983 H   0  0  0  0  0  0  0  0  0  0  0  0
   46.8735   30.3026   49.9218 H   0  0  0  0  0  0  0  0  0  0  0  0
   47.5038   30.5411   47.8389 H   0  0  0  0  0  0  0  0  0  0  0  0
   46.5245   29.0224   47.6668 H   0  0  0  0  0  0  0  0  0  0  0  0
   44.5393   30.4209   47.1160 H   0  0  0  0  0  0  0  0  0  0  0  0
   45.8860   30.5821   45.9296 H   0  0  0  0  0  0  0  0  0  0  0  0
   43.7107   36.1176   45.2373 H   0  0  0  0  0  0  0  0  0  0  0  0
   46.5378   34.8256   42.2434 H   0  0  0  0  0  0  0  0  0  0  0  0
   44.7152   36.7027   41.8244 H   0  0  0  0  0  0  0  0  0  0  0  0
   43.6256   37.1154   43.1754 H   0  0  0  0  0  0  0  0  0  0  0  0
  1  2  1  0
  2  3  1  0
  3  4  1  0
  5  4  1  0
  6  5  1  0
  7  2  1  0
  7  6  1  0
  8 13  2  0
  9  8  1  0
 10  9  2  0
 10 11  1  0
 11 12  2  0
 12 13  1  0
 12  1  1  0
 14  9  1  0
  1 15  1  0
  1 16  1  0
  3 17  1  0
  3 18  1  0
  4 19  1  0
  4 20  1  0
  5 21  1  0
  6 22  1  0
  6 23  1  0
  7 24  1  0
  7 25  1  0
  8 26  1  0
 10 27  1  0
 14 28  1  0
 14 29  1  0
M  ISO  8  15   8  16   8  17  13  18  13  19  13  20  13  21   5  22  13
M  ISO  5  23  13  24  13  25  13  26  14  27  14
M  END
>  <minimizedAffinity>  (1) 
-4.88671541

>  <minimizedRMSD>  (1) 
1.2701298

$$$$
