
     RDKit          3D

 24 25  0  0  0  0  0  0  0  0999 V2000
   44.8590   35.0060   45.1590 C   0  0  0  0  0  0  0  0  0  0  0  0
   45.2210   35.4760   43.8670 C   0  0  0  0  0  0  0  0  0  0  0  0
   46.2290   34.8000   43.2200 C   0  0  0  0  0  0  0  0  0  0  0  0
   46.8190   33.7520   43.8100 N   0  0  0  0  0  0  0  0  0  0  0  0
   46.4530   33.3280   45.0390 C   0  0  0  0  0  0  0  0  0  0  0  0
   45.4750   33.9500   45.7190 N   0  0  0  0  0  0  0  0  0  0  0  0
   44.4760   36.5940   43.4280 N   0  0  0  0  0  0  0  0  0  0  0  0
   47.0940   32.1690   45.7090 C   0  0  0  0  0  0  0  0  0  0  0  0
   46.4320   31.8010   46.9790 C   0  0  0  0  0  0  0  0  0  0  0  0
   45.6340   30.6720   46.9540 C   0  0  0  0  0  0  0  0  0  0  0  0
   44.9420   30.1790   48.0380 C   0  0  0  0  0  0  0  0  0  0  0  0
   45.0530   30.8660   49.2460 C   0  0  0  0  0  0  0  0  0  0  0  0
   45.8630   31.9970   49.2380 C   0  0  0  0  0  0  0  0  0  0  0  0
   46.5400   32.4660   48.1490 N   0  0  0  0  0  0  0  0  0  0  0  0
   44.0576   35.5173   45.7126 H   0  0  0  0  0  0  0  0  0  0  0  0
   46.5507   35.1199   42.2179 H   0  0  0  0  0  0  0  0  0  0  0  0
   44.6646   37.0079   42.5038 H   0  0  0  0  0  0  0  0  0  0  0  0
   43.7445   36.9949   44.0322 H   0  0  0  0  0  0  0  0  0  0  0  0
   47.0549   31.3049   45.0294 H   0  0  0  0  0  0  0  0  0  0  0  0
   48.1290   32.4558   45.9469 H   0  0  0  0  0  0  0  0  0  0  0  0
   45.5456   30.1294   46.0012 H   0  0  0  0  0  0  0  0  0  0  0  0
   44.3227   29.2738   47.9535 H   0  0  0  0  0  0  0  0  0  0  0  0
   44.5296   30.5326   50.1542 H   0  0  0  0  0  0  0  0  0  0  0  0
   45.9658   32.5556   50.1800 H   0  0  0  0  0  0  0  0  0  0  0  0
  1  6  2  0
  2  1  1  0
  3  4  1  0
  3  2  2  0
  4  5  2  0
  5  8  1  0
  5  6  1  0
  7  2  1  0
  8  9  1  0
  9 14  1  0
 10  9  2  0
 10 11  1  0
 11 12  2  0
 13 12  1  0
 14 13  2  0
  1 15  1  0
  3 16  1  0
  7 17  1  0
  7 18  1  0
  8 19  1  0
  8 20  1  0
 10 21  1  0
 11 22  1  0
 12 23  1  0
 13 24  1  0
M  ISO  8  15  14  16  14  19   8  20   8  21  14  22  14  23  14  24  14
M  END
>  <minimizedAffinity>  (1) 
-4.7662487

>  <minimizedRMSD>  (1) 
3.05128145

$$$$
