
     RDKit          3D

 28 29  0  0  0  0  0  0  0  0999 V2000
   44.5360   35.4780   44.9580 C   0  0  0  0  0  0  0  0  0  0  0  0
   45.0370   35.5690   43.6450 C   0  0  0  0  0  0  0  0  0  0  0  0
   46.0830   34.7250   43.3330 C   0  0  0  0  0  0  0  0  0  0  0  0
   46.5640   33.8820   44.2530 N   0  0  0  0  0  0  0  0  0  0  0  0
   46.0620   33.8160   45.5090 C   0  0  0  0  0  0  0  0  0  0  0  0
   45.0420   34.6230   45.8570 N   0  0  0  0  0  0  0  0  0  0  0  0
   44.3990   36.5210   42.8130 N   0  0  0  0  0  0  0  0  0  0  0  0
   46.5880   32.8860   46.5380 C   0  0  0  0  0  0  0  0  0  0  0  0
   45.7870   31.6850   46.6780 N   0  0  0  0  0  0  0  0  0  0  0  0
   45.5890   31.4130   48.1070 C   0  0  0  0  0  0  0  0  0  0  0  0
   45.1180   30.0000   48.3430 C   0  0  0  0  0  0  0  0  0  0  0  0
   44.5840   29.4160   47.2120 O   0  0  0  0  0  0  0  0  0  0  0  0
   45.4360   29.3960   46.1260 C   0  0  0  0  0  0  0  0  0  0  0  0
   46.4800   30.4990   46.1800 C   0  0  0  0  0  0  0  0  0  0  0  0
   43.7017   36.1304   45.2553 H   0  0  0  0  0  0  0  0  0  0  0  0
   46.5224   34.7456   42.3248 H   0  0  0  0  0  0  0  0  0  0  0  0
   44.7105   36.6447   41.8391 H   0  0  0  0  0  0  0  0  0  0  0  0
   43.6234   37.0897   43.1818 H   0  0  0  0  0  0  0  0  0  0  0  0
   47.6109   32.5946   46.2572 H   0  0  0  0  0  0  0  0  0  0  0  0
   46.5620   33.4136   47.5029 H   0  0  0  0  0  0  0  0  0  0  0  0
   46.5422   31.5644   48.6346 H   0  0  0  0  0  0  0  0  0  0  0  0
   44.8176   32.1004   48.4845 H   0  0  0  0  0  0  0  0  0  0  0  0
   45.9739   29.3962   48.6791 H   0  0  0  0  0  0  0  0  0  0  0  0
   44.3221   30.0396   49.1013 H   0  0  0  0  0  0  0  0  0  0  0  0
   44.8407   29.5193   45.2092 H   0  0  0  0  0  0  0  0  0  0  0  0
   45.9683   28.4334   46.1386 H   0  0  0  0  0  0  0  0  0  0  0  0
   47.2968   30.2192   46.8615 H   0  0  0  0  0  0  0  0  0  0  0  0
   46.9275   30.6791   45.1914 H   0  0  0  0  0  0  0  0  0  0  0  0
  1  6  2  0
  2  1  1  0
  3  2  2  0
  3  4  1  0
  4  5  2  0
  5  6  1  0
  5  8  1  0
  7  2  1  0
  8  9  1  0
  9 10  1  0
 10 11  1  0
 12 11  1  0
 13 14  1  0
 13 12  1  0
 14  9  1  0
  1 15  1  0
  3 16  1  0
  7 17  1  0
  7 18  1  0
  8 19  1  0
  8 20  1  0
 10 21  1  0
 10 22  1  0
 11 23  1  0
 11 24  1  0
 13 25  1  0
 13 26  1  0
 14 27  1  0
 14 28  1  0
M  ISO  8  15  14  16  14  19   8  20   8  21  13  22  13  23  13  24  13
M  ISO  4  25  13  26  13  27  13  28  13
M  END
>  <minimizedAffinity>  (1) 
-4.33589649

>  <minimizedRMSD>  (1) 
0.95913136

$$$$
