
     RDKit          3D

 23 24  0  0  0  0  0  0  0  0999 V2000
   44.8780   35.1480   44.9290 C   0  0  0  0  0  0  0  0  0  0  0  0
   45.2960   35.7500   43.7340 C   0  0  0  0  0  0  0  0  0  0  0  0
   46.1700   35.0300   42.9570 C   0  0  0  0  0  0  0  0  0  0  0  0
   46.5710   33.8210   43.3620 N   0  0  0  0  0  0  0  0  0  0  0  0
   46.1570   33.2650   44.5080 C   0  0  0  0  0  0  0  0  0  0  0  0
   45.3000   33.9370   45.3030 N   0  0  0  0  0  0  0  0  0  0  0  0
   44.7590   37.0360   43.4830 N   0  0  0  0  0  0  0  0  0  0  0  0
   46.5950   31.9230   44.9690 C   0  0  0  0  0  0  0  0  0  0  0  0
   46.4340   31.7630   46.4290 C   0  0  0  0  0  0  0  0  0  0  0  0
   47.1670   32.3650   47.4220 C   0  0  0  0  0  0  0  0  0  0  0  0
   46.9190   32.1330   48.7590 C   0  0  0  0  0  0  0  0  0  0  0  0
   45.9230   31.2850   49.0670 N   0  0  0  0  0  0  0  0  0  0  0  0
   45.1910   30.6820   48.1120 C   0  0  0  0  0  0  0  0  0  0  0  0
   45.4530   30.9260   46.8190 N   0  0  0  0  0  0  0  0  0  0  0  0
   44.1785   35.6915   45.5811 H   0  0  0  0  0  0  0  0  0  0  0  0
   46.5377   35.4457   42.0073 H   0  0  0  0  0  0  0  0  0  0  0  0
   45.0182   37.5439   42.6252 H   0  0  0  0  0  0  0  0  0  0  0  0
   44.1092   37.4635   44.1582 H   0  0  0  0  0  0  0  0  0  0  0  0
   45.9923   31.1573   44.4586 H   0  0  0  0  0  0  0  0  0  0  0  0
   47.6628   31.8116   44.7293 H   0  0  0  0  0  0  0  0  0  0  0  0
   47.9776   33.0540   47.1424 H   0  0  0  0  0  0  0  0  0  0  0  0
   47.5140   32.6236   49.5434 H   0  0  0  0  0  0  0  0  0  0  0  0
   44.3811   29.9918   48.3905 H   0  0  0  0  0  0  0  0  0  0  0  0
  1  6  2  0
  2  1  1  0
  3  4  1  0
  3  2  2  0
  4  5  2  0
  5  8  1  0
  5  6  1  0
  7  2  1  0
  8  9  1  0
  9 14  1  0
  9 10  2  0
 10 11  1  0
 11 12  2  0
 13 12  1  0
 14 13  2  0
  1 15  1  0
  3 16  1  0
  7 17  1  0
  7 18  1  0
  8 19  1  0
  8 20  1  0
 10 21  1  0
 11 22  1  0
 13 23  1  0
M  ISO  7  15  14  16  14  19   8  20   8  21  14  22  14  23  14
M  END
>  <minimizedAffinity>  (1) 
-4.2626605

>  <minimizedRMSD>  (1) 
2.71812248

$$$$
