
     RDKit          3D

 16 16  0  0  0  0  0  0  0  0999 V2000
   44.5040   35.6390   45.1030 C   0  0  0  0  0  0  0  0  0  0  0  0
   45.1400   35.5740   43.8390 C   0  0  0  0  0  0  0  0  0  0  0  0
   46.0210   34.5380   43.6330 C   0  0  0  0  0  0  0  0  0  0  0  0
   46.2380   33.6570   44.6100 N   0  0  0  0  0  0  0  0  0  0  0  0
   45.6190   33.7370   45.8140 C   0  0  0  0  0  0  0  0  0  0  0  0
   44.7360   34.7420   46.0730 N   0  0  0  0  0  0  0  0  0  0  0  0
   44.7780   36.6010   42.9350 N   0  0  0  0  0  0  0  0  0  0  0  0
   45.8620   32.7520   46.9030 C   0  0  0  0  0  0  0  0  0  0  0  0
   46.9440   31.4050   46.3070 S   0  0  0  0  0  0  0  0  0  0  0  0
   43.7931   36.4558   45.2964 H   0  0  0  0  0  0  0  0  0  0  0  0
   46.5425   34.4371   42.6697 H   0  0  0  0  0  0  0  0  0  0  0  0
   45.1942   36.6284   41.9932 H   0  0  0  0  0  0  0  0  0  0  0  0
   44.0984   37.3210   43.2189 H   0  0  0  0  0  0  0  0  0  0  0  0
   46.3467   33.2593   47.7502 H   0  0  0  0  0  0  0  0  0  0  0  0
   44.8997   32.3247   47.2214 H   0  0  0  0  0  0  0  0  0  0  0  0
   47.4781   30.7401   47.3791 H   0  0  0  0  0  0  0  0  0  0  0  0
  1  6  2  0
  2  1  1  0
  3  2  2  0
  3  4  1  0
  4  5  2  0
  5  6  1  0
  5  8  1  0
  7  2  1  0
  9  8  1  0
  1 10  1  0
  3 11  1  0
  7 12  1  0
  7 13  1  0
  8 14  1  0
  8 15  1  0
  9 16  1  0
M  ISO  5  10  14  11  14  14   8  15   8  16  11
M  END
>  <minimizedAffinity>  (1) 
-3.31548476

>  <minimizedRMSD>  (1) 
0.993784189

$$$$
