
     RDKit          3D

 29 30  0  0  0  0  0  0  0  0999 V2000
   44.6840   36.5370   43.8950 C   0  0  0  0  0  0  0  0  0  0  0  0
   45.5150   36.2830   42.7960 C   0  0  0  0  0  0  0  0  0  0  0  0
   46.2260   35.0840   42.8030 C   0  0  0  0  0  0  0  0  0  0  0  0
   46.0890   34.2290   43.8490 N   0  0  0  0  0  0  0  0  0  0  0  0
   45.2840   34.4990   44.8890 C   0  0  0  0  0  0  0  0  0  0  0  0
   44.5810   35.6700   44.8970 N   0  0  0  0  0  0  0  0  0  0  0  0
   46.1920   32.5720   46.0060 C   0  0  0  0  0  0  0  0  0  0  0  0
   47.1460   32.4480   45.2170 O   0  0  0  0  0  0  0  0  0  0  0  0
   45.1810   33.5680   45.9510 N   0  0  0  0  0  0  0  0  0  0  0  0
   46.0360   31.6490   47.1090 N   0  0  0  0  0  0  0  0  0  0  0  0
   46.4110   30.2710   47.2280 C   0  0  0  0  0  0  0  0  0  0  0  0
   45.1360   29.5320   47.6600 C   0  0  0  0  0  0  0  0  0  0  0  0
   45.0730   29.8040   49.1700 C   0  0  0  0  0  0  0  0  0  0  0  0
   45.5560   31.2040   49.4750 C   0  0  0  0  0  0  0  0  0  0  0  0
   45.3940   32.1480   48.3380 C   0  0  0  0  0  0  0  0  0  0  0  0
   44.1056   37.4721   43.9292 H   0  0  0  0  0  0  0  0  0  0  0  0
   45.6025   36.9979   41.9646 H   0  0  0  0  0  0  0  0  0  0  0  0
   46.8940   34.8320   41.9662 H   0  0  0  0  0  0  0  0  0  0  0  0
   44.4185   33.6106   46.6422 H   0  0  0  0  0  0  0  0  0  0  0  0
   46.7695   29.8858   46.2620 H   0  0  0  0  0  0  0  0  0  0  0  0
   47.2271   30.1323   47.9524 H   0  0  0  0  0  0  0  0  0  0  0  0
   44.2511   29.9381   47.1480 H   0  0  0  0  0  0  0  0  0  0  0  0
   45.1519   28.4602   47.4132 H   0  0  0  0  0  0  0  0  0  0  0  0
   44.0339   29.6962   49.5145 H   0  0  0  0  0  0  0  0  0  0  0  0
   45.7207   29.0825   49.6894 H   0  0  0  0  0  0  0  0  0  0  0  0
   44.9851   31.5902   50.3323 H   0  0  0  0  0  0  0  0  0  0  0  0
   46.6330   31.1355   49.6878 H   0  0  0  0  0  0  0  0  0  0  0  0
   45.8486   33.1121   48.6096 H   0  0  0  0  0  0  0  0  0  0  0  0
   44.3178   32.2571   48.1383 H   0  0  0  0  0  0  0  0  0  0  0  0
  1  6  2  0
  2  3  2  0
  2  1  1  0
  3  4  1  0
  4  5  2  0
  5  6  1  0
  5  9  1  0
  7 10  1  0
  8  7  2  0
  9  7  1  0
 10 11  1  0
 10 15  1  0
 11 12  1  0
 12 13  1  0
 13 14  1  0
 15 14  1  0
  1 16  1  0
  2 17  1  0
  3 18  1  0
  9 19  1  0
 11 20  1  0
 11 21  1  0
 12 22  1  0
 12 23  1  0
 13 24  1  0
 13 25  1  0
 14 26  1  0
 14 27  1  0
 15 28  1  0
 15 29  1  0
M  ISO  8  16  14  17  14  18  14  20  13  21  13  22  13  23  13  24  13
M  ISO  5  25  13  26  13  27  13  28  13  29  13
M  END
>  <minimizedAffinity>  (1) 
-5.23046875

>  <minimizedRMSD>  (1) 
1.20622659

$$$$
