
     RDKit          3D

 29 31  0  0  0  0  0  0  0  0999 V2000
   45.6460   34.5550   44.0650 C   0  0  0  0  0  0  0  0  0  0  0  0
   44.8440   34.9590   45.1010 C   0  0  0  0  0  0  0  0  0  0  0  0
   45.1860   34.1860   46.2130 C   0  0  0  0  0  0  0  0  0  0  0  0
   46.1930   33.3480   45.7690 C   0  0  0  0  0  0  0  0  0  0  0  0
   46.4110   33.6110   44.5230 O   0  0  0  0  0  0  0  0  0  0  0  0
   46.8390   32.3660   46.6320 C   0  0  0  0  0  0  0  0  0  0  0  0
   47.2170   32.4790   47.9550 C   0  0  0  0  0  0  0  0  0  0  0  0
   47.8010   31.2730   48.3570 C   0  0  0  0  0  0  0  0  0  0  0  0
   47.7370   30.4900   47.2240 C   0  0  0  0  0  0  0  0  0  0  0  0
   47.1750   31.1440   46.2330 O   0  0  0  0  0  0  0  0  0  0  0  0
   45.5970   35.1450   42.6710 C   0  0  0  0  0  0  0  0  0  0  0  0
   42.8530   33.1060   41.3700 C   0  0  0  0  0  0  0  0  0  0  0  0
   41.9920   34.0430   40.7590 C   0  0  0  0  0  0  0  0  0  0  0  0
   42.3730   35.3790   40.8060 C   0  0  0  0  0  0  0  0  0  0  0  0
   43.5250   35.7050   41.4200 N   0  0  0  0  0  0  0  0  0  0  0  0
   44.3300   34.7820   41.9970 C   0  0  0  0  0  0  0  0  0  0  0  0
   43.9860   33.4730   41.9680 N   0  0  0  0  0  0  0  0  0  0  0  0
   40.8320   33.5230   40.1650 N   0  0  0  0  0  0  0  0  0  0  0  0
   44.0751   35.7448   45.0635 H   0  0  0  0  0  0  0  0  0  0  0  0
   44.7497   34.2333   47.2217 H   0  0  0  0  0  0  0  0  0  0  0  0
   47.0816   33.3688   48.5874 H   0  0  0  0  0  0  0  0  0  0  0  0
   48.2133   31.0116   49.3427 H   0  0  0  0  0  0  0  0  0  0  0  0
   48.1070   29.4562   47.1586 H   0  0  0  0  0  0  0  0  0  0  0  0
   45.6695   36.2405   42.7391 H   0  0  0  0  0  0  0  0  0  0  0  0
   46.4379   34.7442   42.0860 H   0  0  0  0  0  0  0  0  0  0  0  0
   42.5804   32.0405   41.3520 H   0  0  0  0  0  0  0  0  0  0  0  0
   41.7433   36.1566   40.3489 H   0  0  0  0  0  0  0  0  0  0  0  0
   40.6504   32.5095   40.1905 H   0  0  0  0  0  0  0  0  0  0  0  0
   40.1621   34.1548   39.7035 H   0  0  0  0  0  0  0  0  0  0  0  0
  1  5  1  0
  1  2  2  0
  2  3  1  0
  4  3  2  0
  4  6  1  0
  5  4  1  0
  6  7  2  0
  7  8  1  0
  9  8  2  0
 10  6  1  0
 10  9  1  0
 11  1  1  0
 12 17  2  0
 13 14  2  0
 13 12  1  0
 14 15  1  0
 15 16  2  0
 16 11  1  0
 17 16  1  0
 18 13  1  0
  2 19  1  0
  3 20  1  0
  7 21  1  0
  8 22  1  0
  9 23  1  0
 11 24  1  0
 11 25  1  0
 12 26  1  0
 14 27  1  0
 18 28  1  0
 18 29  1  0
M  ISO  8  19  14  20  14  21  14  22  14  23  14  24   8  25   8  26  14
M  ISO  1  27  14
M  END
>  <minimizedAffinity>  (1) 
-4.7892499

>  <minimizedRMSD>  (1) 
4.43797445

$$$$
