
     RDKit          3D

 23 24  0  0  0  0  0  0  0  0999 V2000
   45.8940   32.0100   45.1960 C   0  0  0  0  0  0  0  0  0  0  0  0
   44.7720   35.4920   45.0660 C   0  0  0  0  0  0  0  0  0  0  0  0
   45.1830   35.9320   43.8050 C   0  0  0  0  0  0  0  0  0  0  0  0
   45.8450   35.0270   43.0040 C   0  0  0  0  0  0  0  0  0  0  0  0
   46.0670   33.7820   43.4570 N   0  0  0  0  0  0  0  0  0  0  0  0
   45.6520   33.3880   44.6910 C   0  0  0  0  0  0  0  0  0  0  0  0
   45.0010   34.2620   45.4880 N   0  0  0  0  0  0  0  0  0  0  0  0
   44.8790   37.2760   43.4550 N   0  0  0  0  0  0  0  0  0  0  0  0
   46.1610   32.0330   46.6780 C   0  0  0  0  0  0  0  0  0  0  0  0
   47.4210   32.2280   47.2050 C   0  0  0  0  0  0  0  0  0  0  0  0
   47.2860   32.1870   48.5890 C   0  0  0  0  0  0  0  0  0  0  0  0
   45.9220   31.9630   48.8150 C   0  0  0  0  0  0  0  0  0  0  0  0
   45.3270   31.8840   47.6710 O   0  0  0  0  0  0  0  0  0  0  0  0
   45.1940   31.8290   49.9960 O   0  0  0  0  0  0  0  0  0  0  0  0
   46.7645   31.5817   44.6775 H   0  0  0  0  0  0  0  0  0  0  0  0
   45.0006   31.3977   45.0040 H   0  0  0  0  0  0  0  0  0  0  0  0
   44.2411   36.1922   45.7277 H   0  0  0  0  0  0  0  0  0  0  0  0
   46.1889   35.3217   42.0016 H   0  0  0  0  0  0  0  0  0  0  0  0
   45.1618   37.6454   42.5361 H   0  0  0  0  0  0  0  0  0  0  0  0
   44.3759   37.8803   44.1204 H   0  0  0  0  0  0  0  0  0  0  0  0
   48.3518   32.3854   46.6404 H   0  0  0  0  0  0  0  0  0  0  0  0
   48.0787   32.3049   49.3425 H   0  0  0  0  0  0  0  0  0  0  0  0
   44.2173   31.6713   49.9602 H   0  0  0  0  0  0  0  0  0  0  0  0
  1  9  1  0
  2  7  2  0
  3  2  1  0
  4  5  1  0
  4  3  2  0
  5  6  2  0
  6  1  1  0
  6  7  1  0
  8  3  1  0
  9 10  2  0
  9 13  1  0
 10 11  1  0
 11 12  2  0
 12 14  1  0
 13 12  1  0
  1 15  1  0
  1 16  1  0
  2 17  1  0
  4 18  1  0
  8 19  1  0
  8 20  1  0
 10 21  1  0
 11 22  1  0
 14 23  1  0
M  ISO  7  15   8  16   8  17  14  18  14  21  14  22  14  23   3
M  END
>  <minimizedAffinity>  (1) 
-4.77601576

>  <minimizedRMSD>  (1) 
0.151886046

$$$$
