
     RDKit          3D

 32 34  0  0  0  0  0  0  0  0999 V2000
   46.5840   32.5760   45.3240 C   0  0  0  0  0  0  0  0  0  0  0  0
   46.1570   33.0270   46.5530 C   0  0  0  0  0  0  0  0  0  0  0  0
   45.7870   31.9200   47.3140 C   0  0  0  0  0  0  0  0  0  0  0  0
   46.0200   30.8460   46.4720 C   0  0  0  0  0  0  0  0  0  0  0  0
   46.4750   31.2700   45.3470 O   0  0  0  0  0  0  0  0  0  0  0  0
   48.5070   29.3860   47.3040 Cl  0  0  0  0  0  0  0  0  0  0  0  0
   46.8940   28.6750   47.1680 C   0  0  0  0  0  0  0  0  0  0  0  0
   45.7970   29.4180   46.7780 C   0  0  0  0  0  0  0  0  0  0  0  0
   44.5290   28.8830   46.6640 C   0  0  0  0  0  0  0  0  0  0  0  0
   44.4150   27.5280   46.9720 C   0  0  0  0  0  0  0  0  0  0  0  0
   45.4790   26.7420   47.3680 C   0  0  0  0  0  0  0  0  0  0  0  0
   46.7340   27.3220   47.4680 C   0  0  0  0  0  0  0  0  0  0  0  0
   47.0650   33.4770   44.2220 C   0  0  0  0  0  0  0  0  0  0  0  0
   44.0370   33.6440   42.1500 C   0  0  0  0  0  0  0  0  0  0  0  0
   43.7540   35.0240   42.0860 C   0  0  0  0  0  0  0  0  0  0  0  0
   44.6080   35.8800   42.7560 C   0  0  0  0  0  0  0  0  0  0  0  0
   45.6610   35.3630   43.4320 N   0  0  0  0  0  0  0  0  0  0  0  0
   45.9020   34.0260   43.4720 C   0  0  0  0  0  0  0  0  0  0  0  0
   45.0860   33.1660   42.8280 N   0  0  0  0  0  0  0  0  0  0  0  0
   42.6150   35.3550   41.3320 N   0  0  0  0  0  0  0  0  0  0  0  0
   46.1153   34.0773   46.8772 H   0  0  0  0  0  0  0  0  0  0  0  0
   45.4001   31.9033   48.3436 H   0  0  0  0  0  0  0  0  0  0  0  0
   43.6647   29.4869   46.3504 H   0  0  0  0  0  0  0  0  0  0  0  0
   43.4228   27.0593   46.8953 H   0  0  0  0  0  0  0  0  0  0  0  0
   45.3335   25.6765   47.5996 H   0  0  0  0  0  0  0  0  0  0  0  0
   47.5987   26.7190   47.7821 H   0  0  0  0  0  0  0  0  0  0  0  0
   47.6438   34.3060   44.6552 H   0  0  0  0  0  0  0  0  0  0  0  0
   47.6999   32.8999   43.5337 H   0  0  0  0  0  0  0  0  0  0  0  0
   43.3746   32.9391   41.6262 H   0  0  0  0  0  0  0  0  0  0  0  0
   44.4344   36.9661   42.7401 H   0  0  0  0  0  0  0  0  0  0  0  0
   42.3327   36.3404   41.2310 H   0  0  0  0  0  0  0  0  0  0  0  0
   42.0626   34.6122   40.8804 H   0  0  0  0  0  0  0  0  0  0  0  0
  1  5  1  0
  1  2  2  0
  2  3  1  0
  4  8  1  0
  4  3  2  0
  5  4  1  0
  7  6  1  0
  7 12  2  0
  8  7  1  0
  9  8  2  0
  9 10  1  0
 10 11  2  0
 11 12  1  0
 13  1  1  0
 14 19  2  0
 15 14  1  0
 15 16  2  0
 16 17  1  0
 17 18  2  0
 18 13  1  0
 19 18  1  0
 20 15  1  0
  2 21  1  0
  3 22  1  0
  9 23  1  0
 10 24  1  0
 11 25  1  0
 12 26  1  0
 13 27  1  0
 13 28  1  0
 14 29  1  0
 16 30  1  0
 20 31  1  0
 20 32  1  0
M  ISO  8  21  14  22  14  23  14  24  14  25  14  26  14  27   8  28   8
M  ISO  2  29  14  30  14
M  END
>  <minimizedAffinity>  (1) 
-4.44936085

>  <minimizedRMSD>  (1) 
4.04770756

$$$$
