
     RDKit          3D

 34 36  0  0  0  0  0  0  0  0999 V2000
   45.1590   33.8740   43.6080 C   0  0  0  0  0  0  0  0  0  0  0  0
   45.0470   35.1570   44.0970 C   0  0  0  0  0  0  0  0  0  0  0  0
   44.1080   35.8290   43.3360 C   0  0  0  0  0  0  0  0  0  0  0  0
   43.6850   34.8950   42.3990 C   0  0  0  0  0  0  0  0  0  0  0  0
   44.3220   33.8090   42.6110 O   0  0  0  0  0  0  0  0  0  0  0  0
   42.6820   35.1760   41.3760 C   0  0  0  0  0  0  0  0  0  0  0  0
   42.9930   35.0070   40.0370 C   0  0  0  0  0  0  0  0  0  0  0  0
   42.0950   35.2540   39.0040 C   0  0  0  0  0  0  0  0  0  0  0  0
   40.8490   35.6860   39.4460 C   0  0  0  0  0  0  0  0  0  0  0  0
   40.5110   35.8620   40.7600 C   0  0  0  0  0  0  0  0  0  0  0  0
   41.4520   35.5980   41.6900 N   0  0  0  0  0  0  0  0  0  0  0  0
   46.0750   32.8190   44.1570 C   0  0  0  0  0  0  0  0  0  0  0  0
   49.3260   31.8510   42.7690 C   0  0  0  0  0  0  0  0  0  0  0  0
   49.9160   33.0510   42.3810 C   0  0  0  0  0  0  0  0  0  0  0  0
   49.1700   34.1920   42.6080 C   0  0  0  0  0  0  0  0  0  0  0  0
   47.9490   34.1050   43.1740 N   0  0  0  0  0  0  0  0  0  0  0  0
   47.4200   32.9220   43.5330 C   0  0  0  0  0  0  0  0  0  0  0  0
   48.1250   31.7960   43.3230 N   0  0  0  0  0  0  0  0  0  0  0  0
   51.1890   33.0280   41.8020 N   0  0  0  0  0  0  0  0  0  0  0  0
   49.7580   35.4980   42.2100 C   0  0  0  0  0  0  0  0  0  0  0  0
   45.6077   35.5748   44.9462 H   0  0  0  0  0  0  0  0  0  0  0  0
   43.7714   36.8703   43.4477 H   0  0  0  0  0  0  0  0  0  0  0  0
   44.0036   34.6591   39.7768 H   0  0  0  0  0  0  0  0  0  0  0  0
   42.3457   35.1207   37.9413 H   0  0  0  0  0  0  0  0  0  0  0  0
   40.0825   35.9010   38.6868 H   0  0  0  0  0  0  0  0  0  0  0  0
   39.5070   36.2068   41.0482 H   0  0  0  0  0  0  0  0  0  0  0  0
   46.1694   32.9519   45.2449 H   0  0  0  0  0  0  0  0  0  0  0  0
   45.6528   31.8286   43.9314 H   0  0  0  0  0  0  0  0  0  0  0  0
   49.8786   30.9134   42.6092 H   0  0  0  0  0  0  0  0  0  0  0  0
   51.6778   32.1313   41.6681 H   0  0  0  0  0  0  0  0  0  0  0  0
   51.6377   33.9078   41.5095 H   0  0  0  0  0  0  0  0  0  0  0  0
   50.0170   36.0733   43.1111 H   0  0  0  0  0  0  0  0  0  0  0  0
   50.6650   35.3248   41.6122 H   0  0  0  0  0  0  0  0  0  0  0  0
   49.0271   36.0623   41.6122 H   0  0  0  0  0  0  0  0  0  0  0  0
  1  2  2  0
  1 12  1  0
  3  2  1  0
  4  5  1  0
  4  3  2  0
  5  1  1  0
  6 11  1  0
  6  4  1  0
  7  6  2  0
  8  9  2  0
  8  7  1  0
  9 10  1  0
 10 11  2  0
 13 18  2  0
 14 15  2  0
 14 13  1  0
 15 16  1  0
 16 17  2  0
 17 12  1  0
 18 17  1  0
 19 14  1  0
 20 15  1  0
  2 21  1  0
  3 22  1  0
  7 23  1  0
  8 24  1  0
  9 25  1  0
 10 26  1  0
 12 27  1  0
 12 28  1  0
 13 29  1  0
 19 30  1  0
 19 31  1  0
 20 32  1  0
 20 33  1  0
 20 34  1  0
M  ISO  8  21  14  22  14  23  14  24  14  25  14  26  14  27   8  28   8
M  ISO  4  29  14  32   8  33   8  34   8
M  END
>  <minimizedAffinity>  (1) 
-5.58229637

>  <minimizedRMSD>  (1) 
1.13079202

$$$$
