
     RDKit          3D

 40 42  0  0  0  0  0  0  0  0999 V2000
   44.3120   34.2000   42.0180 N   0  0  0  0  0  0  0  0  0  0  0  0
   44.2470   33.2510   40.9390 C   0  0  0  0  0  0  0  0  0  0  0  0
   43.6880   33.8270   39.6720 C   0  0  0  0  0  0  0  0  0  0  0  0
   42.5160   34.6030   39.8640 N   0  0  0  0  0  0  0  0  0  0  0  0
   42.4520   35.4120   41.0180 C   0  0  0  0  0  0  0  0  0  0  0  0
   43.8010   35.4980   41.7160 C   0  0  0  0  0  0  0  0  0  0  0  0
   44.9280   34.6840   44.2740 C   0  0  0  0  0  0  0  0  0  0  0  0
   44.8620   33.7630   43.2350 C   0  0  0  0  0  0  0  0  0  0  0  0
   45.3500   32.4920   43.5010 C   0  0  0  0  0  0  0  0  0  0  0  0
   45.8600   32.1950   44.7230 N   0  0  0  0  0  0  0  0  0  0  0  0
   45.9050   33.1170   45.7040 C   0  0  0  0  0  0  0  0  0  0  0  0
   45.4450   34.3460   45.4820 N   0  0  0  0  0  0  0  0  0  0  0  0
   46.4740   32.7350   47.0240 C   0  0  0  0  0  0  0  0  0  0  0  0
   47.0580   31.3480   46.9340 C   0  0  0  0  0  0  0  0  0  0  0  0
   47.3100   30.8430   48.3500 C   0  0  0  0  0  0  0  0  0  0  0  0
   46.0210   30.7630   49.1370 C   0  0  0  0  0  0  0  0  0  0  0  0
   44.9090   31.4060   48.3350 C   0  0  0  0  0  0  0  0  0  0  0  0
   45.3610   32.8230   48.0450 C   0  0  0  0  0  0  0  0  0  0  0  0
   45.2638   32.8835   40.7361 H   0  0  0  0  0  0  0  0  0  0  0  0
   43.5691   32.4448   41.2560 H   0  0  0  0  0  0  0  0  0  0  0  0
   43.4471   32.9976   38.9907 H   0  0  0  0  0  0  0  0  0  0  0  0
   44.4544   34.5005   39.2609 H   0  0  0  0  0  0  0  0  0  0  0  0
   42.4191   35.2228   39.0470 H   0  0  0  0  0  0  0  0  0  0  0  0
   42.1351   36.4245   40.7273 H   0  0  0  0  0  0  0  0  0  0  0  0
   41.7313   34.9605   41.7157 H   0  0  0  0  0  0  0  0  0  0  0  0
   44.5123   36.0190   41.0583 H   0  0  0  0  0  0  0  0  0  0  0  0
   43.6694   36.0477   42.6597 H   0  0  0  0  0  0  0  0  0  0  0  0
   44.5541   35.7060   44.1138 H   0  0  0  0  0  0  0  0  0  0  0  0
   45.3234   31.7207   42.7172 H   0  0  0  0  0  0  0  0  0  0  0  0
   47.2885   33.4092   47.3275 H   0  0  0  0  0  0  0  0  0  0  0  0
   46.3514   30.6793   46.4207 H   0  0  0  0  0  0  0  0  0  0  0  0
   47.9995   31.3689   46.3655 H   0  0  0  0  0  0  0  0  0  0  0  0
   47.7626   29.8417   48.2991 H   0  0  0  0  0  0  0  0  0  0  0  0
   47.9858   31.5474   48.8571 H   0  0  0  0  0  0  0  0  0  0  0  0
   45.7730   29.7091   49.3311 H   0  0  0  0  0  0  0  0  0  0  0  0
   46.1389   31.2902   50.0952 H   0  0  0  0  0  0  0  0  0  0  0  0
   44.7500   30.8567   47.3953 H   0  0  0  0  0  0  0  0  0  0  0  0
   43.9580   31.3941   48.8876 H   0  0  0  0  0  0  0  0  0  0  0  0
   45.7307   33.2971   48.9662 H   0  0  0  0  0  0  0  0  0  0  0  0
   44.5266   33.4296   47.6631 H   0  0  0  0  0  0  0  0  0  0  0  0
  1  8  1  0
  2  1  1  0
  3  4  1  0
  3  2  1  0
  4  5  1  0
  5  6  1  0
  6  1  1  0
  7 12  2  0
  8  9  2  0
  8  7  1  0
  9 10  1  0
 10 11  2  0
 11 13  1  0
 12 11  1  0
 13 18  1  0
 14 13  1  0
 14 15  1  0
 15 16  1  0
 17 16  1  0
 18 17  1  0
  2 19  1  0
  2 20  1  0
  3 21  1  0
  3 22  1  0
  4 23  1  0
  5 24  1  0
  5 25  1  0
  6 26  1  0
  6 27  1  0
  7 28  1  0
  9 29  1  0
 13 30  1  0
 14 31  1  0
 14 32  1  0
 15 33  1  0
 15 34  1  0
 16 35  1  0
 16 36  1  0
 17 37  1  0
 17 38  1  0
 18 39  1  0
 18 40  1  0
M  ISO  8  19  13  20  13  21  13  22  13  23   5  24  13  25  13  26  13
M  ISO  8  27  13  28  14  29  14  30  13  31  13  32  13  33  13  34  13
M  ISO  6  35  13  36  13  37  13  38  13  39  13  40  13
M  END
>  <minimizedAffinity>  (1) 
-4.99672556

>  <minimizedRMSD>  (1) 
0.699156582

$$$$
