
     RDKit          3D

 39 41  0  0  0  0  0  0  0  0999 V2000
   45.3290   33.8280   40.9300 C   0  0  0  0  0  0  0  0  0  0  0  0
   46.3550   34.4540   41.6540 C   0  0  0  0  0  0  0  0  0  0  0  0
   47.5930   34.5920   41.0550 C   0  0  0  0  0  0  0  0  0  0  0  0
   47.7790   34.1230   39.7990 N   0  0  0  0  0  0  0  0  0  0  0  0
   46.7720   33.5210   39.1180 C   0  0  0  0  0  0  0  0  0  0  0  0
   45.5550   33.3720   39.6760 N   0  0  0  0  0  0  0  0  0  0  0  0
   47.0140   33.0360   37.7810 N   0  0  0  0  0  0  0  0  0  0  0  0
   46.0090   32.9640   36.7650 C   0  0  0  0  0  0  0  0  0  0  0  0
   46.3540   31.9030   35.7450 C   0  0  0  0  0  0  0  0  0  0  0  0
   47.6440   32.3050   35.0190 C   0  0  0  0  0  0  0  0  0  0  0  0
   48.6360   32.9160   35.9670 C   0  0  0  0  0  0  0  0  0  0  0  0
   48.3260   32.5900   37.4110 C   0  0  0  0  0  0  0  0  0  0  0  0
   45.9940   34.8900   42.9570 N   0  0  0  0  0  0  0  0  0  0  0  0
   45.0870   35.9990   43.0500 C   0  0  0  0  0  0  0  0  0  0  0  0
   44.6860   36.3540   44.4320 C   0  0  0  0  0  0  0  0  0  0  0  0
   44.4620   35.2830   45.3180 N   0  0  0  0  0  0  0  0  0  0  0  0
   45.2330   34.1140   45.1420 C   0  0  0  0  0  0  0  0  0  0  0  0
   46.4160   34.3690   44.2210 C   0  0  0  0  0  0  0  0  0  0  0  0
   44.3346   33.7071   41.3846 H   0  0  0  0  0  0  0  0  0  0  0  0
   48.4194   35.0784   41.5940 H   0  0  0  0  0  0  0  0  0  0  0  0
   45.0430   32.7173   37.2297 H   0  0  0  0  0  0  0  0  0  0  0  0
   45.9508   33.9375   36.2562 H   0  0  0  0  0  0  0  0  0  0  0  0
   46.5023   30.9385   36.2526 H   0  0  0  0  0  0  0  0  0  0  0  0
   45.5341   31.8075   35.0180 H   0  0  0  0  0  0  0  0  0  0  0  0
   48.0907   31.4105   34.5603 H   0  0  0  0  0  0  0  0  0  0  0  0
   47.3922   33.0515   34.2513 H   0  0  0  0  0  0  0  0  0  0  0  0
   49.6385   32.5331   35.7253 H   0  0  0  0  0  0  0  0  0  0  0  0
   48.5843   34.0085   35.8501 H   0  0  0  0  0  0  0  0  0  0  0  0
   48.3863   31.5008   37.5523 H   0  0  0  0  0  0  0  0  0  0  0  0
   49.0587   33.1087   38.0467 H   0  0  0  0  0  0  0  0  0  0  0  0
   45.5709   36.8769   42.5970 H   0  0  0  0  0  0  0  0  0  0  0  0
   44.1682   35.6949   42.5272 H   0  0  0  0  0  0  0  0  0  0  0  0
   45.4825   36.9804   44.8601 H   0  0  0  0  0  0  0  0  0  0  0  0
   43.7124   36.8560   44.3317 H   0  0  0  0  0  0  0  0  0  0  0  0
   44.6417   35.6295   46.2712 H   0  0  0  0  0  0  0  0  0  0  0  0
   45.6062   33.7795   46.1212 H   0  0  0  0  0  0  0  0  0  0  0  0
   44.5961   33.3421   44.6854 H   0  0  0  0  0  0  0  0  0  0  0  0
   46.9515   33.4223   44.0566 H   0  0  0  0  0  0  0  0  0  0  0  0
   47.0715   35.1119   44.6989 H   0  0  0  0  0  0  0  0  0  0  0  0
  1  2  2  0
  2 13  1  0
  3  2  1  0
  4  3  2  0
  5  6  2  0
  5  4  1  0
  6  1  1  0
  7  5  1  0
  8  7  1  0
  9  8  1  0
 10  9  1  0
 10 11  1  0
 11 12  1  0
 12  7  1  0
 13 14  1  0
 13 18  1  0
 14 15  1  0
 15 16  1  0
 17 16  1  0
 18 17  1  0
  1 19  1  0
  3 20  1  0
  8 21  1  0
  8 22  1  0
  9 23  1  0
  9 24  1  0
 10 25  1  0
 10 26  1  0
 11 27  1  0
 11 28  1  0
 12 29  1  0
 12 30  1  0
 14 31  1  0
 14 32  1  0
 15 33  1  0
 15 34  1  0
 16 35  1  0
 17 36  1  0
 17 37  1  0
 18 38  1  0
 18 39  1  0
M  ISO  8  19  14  20  14  21  13  22  13  23  13  24  13  25  13  26  13
M  ISO  8  27  13  28  13  29  13  30  13  31  13  32  13  33  13  34  13
M  ISO  5  35   5  36  13  37  13  38  13  39  13
M  END
>  <minimizedAffinity>  (1) 
-4.95030499

>  <minimizedRMSD>  (1) 
8.14030457

$$$$
