
     RDKit          3D

 31 33  0  0  0  0  0  0  0  0999 V2000
   42.9430   33.1760   41.4940 C   0  0  0  0  0  0  0  0  0  0  0  0
   42.2290   34.3580   41.3220 C   0  0  0  0  0  0  0  0  0  0  0  0
   42.9080   35.5570   41.4770 C   0  0  0  0  0  0  0  0  0  0  0  0
   44.2380   35.5350   41.7900 N   0  0  0  0  0  0  0  0  0  0  0  0
   44.8980   34.3710   41.9490 C   0  0  0  0  0  0  0  0  0  0  0  0
   44.2610   33.1950   41.8030 N   0  0  0  0  0  0  0  0  0  0  0  0
   40.8590   34.2230   41.0010 N   0  0  0  0  0  0  0  0  0  0  0  0
   40.4110   34.7740   39.7530 C   0  0  0  0  0  0  0  0  0  0  0  0
   38.9740   34.5570   39.4630 C   0  0  0  0  0  0  0  0  0  0  0  0
   38.4700   33.2760   39.7850 N   0  0  0  0  0  0  0  0  0  0  0  0
   39.0180   32.6370   40.9160 C   0  0  0  0  0  0  0  0  0  0  0  0
   39.8310   33.5970   41.7730 C   0  0  0  0  0  0  0  0  0  0  0  0
   46.3260   34.4070   42.2850 C   0  0  0  0  0  0  0  0  0  0  0  0
   47.4470   34.8480   41.6060 C   0  0  0  0  0  0  0  0  0  0  0  0
   48.5520   34.6370   42.4140 C   0  0  0  0  0  0  0  0  0  0  0  0
   48.0850   34.0760   43.5570 N   0  0  0  0  0  0  0  0  0  0  0  0
   46.7780   33.9410   43.4820 N   0  0  0  0  0  0  0  0  0  0  0  0
   42.4284   32.2109   41.3770 H   0  0  0  0  0  0  0  0  0  0  0  0
   42.3822   36.5147   41.3495 H   0  0  0  0  0  0  0  0  0  0  0  0
   40.5977   35.8579   39.7698 H   0  0  0  0  0  0  0  0  0  0  0  0
   40.9707   34.2519   38.9630 H   0  0  0  0  0  0  0  0  0  0  0  0
   38.3981   35.3001   40.0341 H   0  0  0  0  0  0  0  0  0  0  0  0
   38.8703   34.6544   38.3722 H   0  0  0  0  0  0  0  0  0  0  0  0
   37.4567   33.3717   39.9430 H   0  0  0  0  0  0  0  0  0  0  0  0
   38.1986   32.2250   41.5234 H   0  0  0  0  0  0  0  0  0  0  0  0
   39.6908   31.8408   40.5647 H   0  0  0  0  0  0  0  0  0  0  0  0
   40.2917   33.0387   42.6013 H   0  0  0  0  0  0  0  0  0  0  0  0
   39.1593   34.3763   42.1623 H   0  0  0  0  0  0  0  0  0  0  0  0
   47.4591   35.2898   40.5987 H   0  0  0  0  0  0  0  0  0  0  0  0
   49.5989   34.8765   42.1762 H   0  0  0  0  0  0  0  0  0  0  0  0
   48.6650   33.7979   44.3615 H   0  0  0  0  0  0  0  0  0  0  0  0
  1  6  2  0
  2  3  2  0
  2  1  1  0
  3  4  1  0
  4  5  2  0
  5 13  1  0
  6  5  1  0
  7  2  1  0
  7 12  1  0
  8  7  1  0
  9  8  1  0
  9 10  1  0
 10 11  1  0
 11 12  1  0
 13 17  2  0
 14 13  1  0
 14 15  2  0
 15 16  1  0
 17 16  1  0
  1 18  1  0
  3 19  1  0
  8 20  1  0
  8 21  1  0
  9 22  1  0
  9 23  1  0
 10 24  1  0
 11 25  1  0
 11 26  1  0
 12 27  1  0
 12 28  1  0
 14 29  1  0
 15 30  1  0
 16 31  1  0
M  ISO  8  18  14  19  14  20  13  21  13  22  13  23  13  24   5  25  13
M  ISO  6  26  13  27  13  28  13  29  14  30  14  31   9
M  END
>  <minimizedAffinity>  (1) 
-4.84193373

>  <minimizedRMSD>  (1) 
4.76768732

$$$$
