
     RDKit          3D

 31 33  0  0  0  0  0  0  0  0999 V2000
   45.1950   34.3960   44.7830 C   0  0  0  0  0  0  0  0  0  0  0  0
   45.2570   33.5480   43.6790 C   0  0  0  0  0  0  0  0  0  0  0  0
   45.6760   32.2390   43.8680 C   0  0  0  0  0  0  0  0  0  0  0  0
   46.0100   31.8300   45.1210 N   0  0  0  0  0  0  0  0  0  0  0  0
   45.9410   32.6730   46.1720 C   0  0  0  0  0  0  0  0  0  0  0  0
   45.5370   33.9470   46.0090 N   0  0  0  0  0  0  0  0  0  0  0  0
   44.8710   34.1340   42.4410 N   0  0  0  0  0  0  0  0  0  0  0  0
   44.8280   33.2770   41.2880 C   0  0  0  0  0  0  0  0  0  0  0  0
   44.4520   33.9680   40.0320 C   0  0  0  0  0  0  0  0  0  0  0  0
   43.3660   34.8810   40.1570 N   0  0  0  0  0  0  0  0  0  0  0  0
   43.2140   35.5600   41.3860 C   0  0  0  0  0  0  0  0  0  0  0  0
   44.5090   35.4950   42.1800 C   0  0  0  0  0  0  0  0  0  0  0  0
   46.3290   32.1140   47.4790 C   0  0  0  0  0  0  0  0  0  0  0  0
   45.6180   32.2070   48.6670 C   0  0  0  0  0  0  0  0  0  0  0  0
   46.3340   31.5560   49.6150 N   0  0  0  0  0  0  0  0  0  0  0  0
   47.4380   31.0770   49.0540 C   0  0  0  0  0  0  0  0  0  0  0  0
   47.4450   31.4160   47.7330 N   0  0  0  0  0  0  0  0  0  0  0  0
   44.8654   35.4376   44.6545 H   0  0  0  0  0  0  0  0  0  0  0  0
   45.7370   31.5434   43.0181 H   0  0  0  0  0  0  0  0  0  0  0  0
   45.8245   32.8315   41.1518 H   0  0  0  0  0  0  0  0  0  0  0  0
   44.0484   32.5255   41.4813 H   0  0  0  0  0  0  0  0  0  0  0  0
   44.1739   33.2043   39.2908 H   0  0  0  0  0  0  0  0  0  0  0  0
   45.3262   34.5644   39.7319 H   0  0  0  0  0  0  0  0  0  0  0  0
   43.4792   35.5952   39.4235 H   0  0  0  0  0  0  0  0  0  0  0  0
   42.9583   36.6121   41.1917 H   0  0  0  0  0  0  0  0  0  0  0  0
   42.4108   35.0817   41.9657 H   0  0  0  0  0  0  0  0  0  0  0  0
   45.3114   35.9786   41.6036 H   0  0  0  0  0  0  0  0  0  0  0  0
   44.3642   36.0142   43.1389 H   0  0  0  0  0  0  0  0  0  0  0  0
   44.6530   32.7147   48.8119 H   0  0  0  0  0  0  0  0  0  0  0  0
   46.0670   31.4504   50.6042 H   0  0  0  0  0  0  0  0  0  0  0  0
   48.2196   30.5006   49.5706 H   0  0  0  0  0  0  0  0  0  0  0  0
  1  6  2  0
  2  3  2  0
  2  1  1  0
  3  4  1  0
  4  5  2  0
  5 13  1  0
  6  5  1  0
  7  2  1  0
  8  7  1  0
  9 10  1  0
  9  8  1  0
 10 11  1  0
 11 12  1  0
 12  7  1  0
 13 17  1  0
 13 14  2  0
 14 15  1  0
 16 15  1  0
 17 16  2  0
  1 18  1  0
  3 19  1  0
  8 20  1  0
  8 21  1  0
  9 22  1  0
  9 23  1  0
 10 24  1  0
 11 25  1  0
 11 26  1  0
 12 27  1  0
 12 28  1  0
 14 29  1  0
 15 30  1  0
 16 31  1  0
M  ISO  8  18  14  19  14  20  13  21  13  22  13  23  13  24   5  25  13
M  ISO  6  26  13  27  13  28  13  29  14  30   9  31  14
M  END
>  <minimizedAffinity>  (1) 
-4.7512641

>  <minimizedRMSD>  (1) 
1.24915123

$$$$
