
     RDKit          3D

 32 34  0  0  0  0  0  0  0  0999 V2000
   45.0840   34.4260   44.3290 C   0  0  0  0  0  0  0  0  0  0  0  0
   45.0090   33.5570   43.2460 C   0  0  0  0  0  0  0  0  0  0  0  0
   45.3440   32.2090   43.4600 C   0  0  0  0  0  0  0  0  0  0  0  0
   45.7220   31.8140   44.7060 N   0  0  0  0  0  0  0  0  0  0  0  0
   45.7810   32.6970   45.7270 C   0  0  0  0  0  0  0  0  0  0  0  0
   45.4690   33.9780   45.5520 N   0  0  0  0  0  0  0  0  0  0  0  0
   44.6180   34.0970   42.0140 N   0  0  0  0  0  0  0  0  0  0  0  0
   44.6610   33.2440   40.8550 C   0  0  0  0  0  0  0  0  0  0  0  0
   44.3240   33.9770   39.5860 C   0  0  0  0  0  0  0  0  0  0  0  0
   43.1750   34.7820   39.6770 N   0  0  0  0  0  0  0  0  0  0  0  0
   42.9460   35.4660   40.8890 C   0  0  0  0  0  0  0  0  0  0  0  0
   44.1750   35.4380   41.7810 C   0  0  0  0  0  0  0  0  0  0  0  0
   46.2010   32.1860   47.0420 C   0  0  0  0  0  0  0  0  0  0  0  0
   45.3050   32.1550   48.0940 C   0  0  0  0  0  0  0  0  0  0  0  0
   45.8540   31.6450   49.2750 C   0  0  0  0  0  0  0  0  0  0  0  0
   47.1220   31.2160   49.4130 N   0  0  0  0  0  0  0  0  0  0  0  0
   47.9390   31.2730   48.3540 C   0  0  0  0  0  0  0  0  0  0  0  0
   47.4670   31.7530   47.2000 N   0  0  0  0  0  0  0  0  0  0  0  0
   44.8288   35.4874   44.1938 H   0  0  0  0  0  0  0  0  0  0  0  0
   45.3013   31.4847   42.6332 H   0  0  0  0  0  0  0  0  0  0  0  0
   45.6743   32.8262   40.7622 H   0  0  0  0  0  0  0  0  0  0  0  0
   43.9082   32.4541   40.9940 H   0  0  0  0  0  0  0  0  0  0  0  0
   44.1638   33.2347   38.7902 H   0  0  0  0  0  0  0  0  0  0  0  0
   45.1677   34.6504   39.3745 H   0  0  0  0  0  0  0  0  0  0  0  0
   43.2360   35.4900   38.9314 H   0  0  0  0  0  0  0  0  0  0  0  0
   42.6887   36.5121   40.6667 H   0  0  0  0  0  0  0  0  0  0  0  0
   42.1218   34.9659   41.4188 H   0  0  0  0  0  0  0  0  0  0  0  0
   44.9837   36.0031   41.2946 H   0  0  0  0  0  0  0  0  0  0  0  0
   43.9120   35.8899   42.7488 H   0  0  0  0  0  0  0  0  0  0  0  0
   44.2630   32.4976   48.0106 H   0  0  0  0  0  0  0  0  0  0  0  0
   45.1999   31.5905   50.1577 H   0  0  0  0  0  0  0  0  0  0  0  0
   48.9813   30.9304   48.4327 H   0  0  0  0  0  0  0  0  0  0  0  0
  1  6  2  0
  2  3  2  0
  2  1  1  0
  3  4  1  0
  4  5  2  0
  5 13  1  0
  6  5  1  0
  7  2  1  0
  8  7  1  0
  9 10  1  0
  9  8  1  0
 10 11  1  0
 11 12  1  0
 12  7  1  0
 13 18  1  0
 13 14  2  0
 14 15  1  0
 15 16  2  0
 17 16  1  0
 18 17  2  0
  1 19  1  0
  3 20  1  0
  8 21  1  0
  8 22  1  0
  9 23  1  0
  9 24  1  0
 10 25  1  0
 11 26  1  0
 11 27  1  0
 12 28  1  0
 12 29  1  0
 14 30  1  0
 15 31  1  0
 17 32  1  0
M  ISO  8  19  14  20  14  21  13  22  13  23  13  24  13  25   5  26  13
M  ISO  6  27  13  28  13  29  13  30  14  31  14  32  14
M  END
>  <minimizedAffinity>  (1) 
-4.46450377

>  <minimizedRMSD>  (1) 
1.28266156

$$$$
