
     RDKit          3D

 50 55  0  0  1  0  0  0  0  0999 V2000
   46.5870   30.5650   44.4930 C   0  0  0  0  0  0  0  0  0  0  0  0
   46.1390   31.8110   44.7490 C   0  0  0  0  0  0  0  0  0  0  0  0
   46.4990   32.4080   45.9470 C   0  0  0  0  0  0  0  0  0  0  0  0
   47.2990   31.7300   46.8450 C   0  0  0  0  0  0  0  0  0  0  0  0
   47.7520   30.4520   46.5670 C   0  0  0  0  0  0  0  0  0  0  0  0
   47.3920   29.8530   45.3700 C   0  0  0  0  0  0  0  0  0  0  0  0
   48.5330   30.0240   47.6500 O   0  0  0  0  0  0  0  0  0  0  0  0
   48.2560   30.9040   48.7310 C   0  0  2  0  0  0  0  0  0  0  0  0
   47.8090   32.0830   48.1060 O   0  0  0  0  0  0  0  0  0  0  0  0
   50.0980   32.2430   49.6670 C   0  0  0  0  0  0  0  0  0  0  0  0
   49.3670   31.0880   49.6600 C   0  0  0  0  0  0  0  0  0  0  0  0
   49.6800   30.0750   50.5470 C   0  0  0  0  0  0  0  0  0  0  0  0
   50.7460   30.2790   51.4230 C   0  0  0  0  0  0  0  0  0  0  0  0
   51.4880   31.4420   51.4340 C   0  0  0  0  0  0  0  0  0  0  0  0
   51.1670   32.4510   50.5420 C   0  0  0  0  0  0  0  0  0  0  0  0
   52.4650   31.2940   52.4330 O   0  0  0  0  0  0  0  0  0  0  0  0
   51.9250   30.3330   53.3500 C   0  0  0  0  0  0  0  0  0  0  0  0
   51.2930   29.4540   52.4180 O   0  0  0  0  0  0  0  0  0  0  0  0
   44.4820   34.5160   42.8500 C   0  0  0  0  0  0  0  0  0  0  0  0
   43.6660   33.8070   41.9800 C   0  0  0  0  0  0  0  0  0  0  0  0
   43.6970   32.4230   42.0590 C   0  0  0  0  0  0  0  0  0  0  0  0
   44.5040   31.8140   42.9610 N   0  0  0  0  0  0  0  0  0  0  0  0
   45.2870   32.5340   43.7940 C   0  0  0  0  0  0  0  0  0  0  0  0
   45.2720   33.8700   43.7360 N   0  0  0  0  0  0  0  0  0  0  0  0
   42.8770   34.5670   41.0940 N   0  0  0  0  0  0  0  0  0  0  0  0
   43.0460   34.3470   39.6920 C   0  0  0  0  0  0  0  0  0  0  0  0
   42.2390   35.2480   38.8270 C   0  0  0  0  0  0  0  0  0  0  0  0
   40.8890   35.3780   39.2420 N   0  0  0  0  0  0  0  0  0  0  0  0
   40.6140   35.3430   40.6220 C   0  0  0  0  0  0  0  0  0  0  0  0
   41.8970   35.5640   41.4260 C   0  0  0  0  0  0  0  0  0  0  0  0
   46.3002   30.0905   43.5430 H   0  0  0  0  0  0  0  0  0  0  0  0
   46.1469   33.4232   46.1825 H   0  0  0  0  0  0  0  0  0  0  0  0
   47.7361   28.8382   45.1217 H   0  0  0  0  0  0  0  0  0  0  0  0
   47.4941   30.4927   49.4095 H   0  0  0  0  0  0  0  0  0  0  0  0
   49.8343   33.0398   48.9559 H   0  0  0  0  0  0  0  0  0  0  0  0
   49.1059   29.1368   50.5615 H   0  0  0  0  0  0  0  0  0  0  0  0
   51.7382   33.3909   50.5228 H   0  0  0  0  0  0  0  0  0  0  0  0
   52.7134   29.8249   53.9247 H   0  0  0  0  0  0  0  0  0  0  0  0
   51.2663   30.7449   54.1287 H   0  0  0  0  0  0  0  0  0  0  0  0
   44.4859   35.6155   42.8182 H   0  0  0  0  0  0  0  0  0  0  0  0
   43.0665   31.8196   41.3894 H   0  0  0  0  0  0  0  0  0  0  0  0
   44.1080   34.4945   39.4462 H   0  0  0  0  0  0  0  0  0  0  0  0
   42.6973   33.3234   39.4906 H   0  0  0  0  0  0  0  0  0  0  0  0
   42.2504   34.8478   37.8025 H   0  0  0  0  0  0  0  0  0  0  0  0
   42.6931   36.2478   38.8920 H   0  0  0  0  0  0  0  0  0  0  0  0
   40.5444   36.2803   38.8841 H   0  0  0  0  0  0  0  0  0  0  0  0
   39.8910   36.1347   40.8679 H   0  0  0  0  0  0  0  0  0  0  0  0
   40.1968   34.3580   40.8784 H   0  0  0  0  0  0  0  0  0  0  0  0
   41.6666   35.5016   42.4998 H   0  0  0  0  0  0  0  0  0  0  0  0
   42.3030   36.5569   41.1823 H   0  0  0  0  0  0  0  0  0  0  0  0
  1  2  2  0
  1  6  1  0
  2  3  1  0
  3  4  2  0
  4  9  1  0
  5  4  1  0
  5  7  1  0
  6  5  2  0
  7  8  1  0
  8 11  1  0
  9  8  1  0
 10 15  2  0
 11 10  1  0
 11 12  2  0
 12 13  1  0
 13 14  2  0
 13 18  1  0
 14 16  1  0
 15 14  1  0
 16 17  1  0
 18 17  1  0
 19 24  2  0
 20 21  2  0
 20 19  1  0
 21 22  1  0
 22 23  2  0
 23  2  1  0
 24 23  1  0
 25 30  1  0
 25 20  1  0
 26 25  1  0
 27 28  1  0
 27 26  1  0
 28 29  1  0
 29 30  1  0
  1 31  1  0
  3 32  1  0
  6 33  1  0
  8 34  1  1
 10 35  1  0
 12 36  1  0
 15 37  1  0
 17 38  1  0
 17 39  1  0
 19 40  1  0
 21 41  1  0
 26 42  1  0
 26 43  1  0
 27 44  1  0
 27 45  1  0
 28 46  1  0
 29 47  1  0
 29 48  1  0
 30 49  1  0
 30 50  1  0
M  ISO  8  31  14  32  14  33  14  34  13  35  14  36  14  37  14  38  13
M  ISO  8  39  13  40  14  41  14  42  13  43  13  44  13  45  13  46   5
M  ISO  4  47  13  48  13  49  13  50  13
M  END
>  <minimizedAffinity>  (1) 
-6.8380084

>  <minimizedRMSD>  (1) 
0.773725927

$$$$
