
     RDKit          3D

 39 42  0  0  1  0  0  0  0  0999 V2000
   44.1470   34.8650   42.6010 C   0  0  0  0  0  0  0  0  0  0  0  0
   43.3760   34.0890   41.7300 C   0  0  0  0  0  0  0  0  0  0  0  0
   43.4640   32.7140   41.8470 C   0  0  0  0  0  0  0  0  0  0  0  0
   44.2780   32.1580   42.7830 N   0  0  0  0  0  0  0  0  0  0  0  0
   45.0130   32.9440   43.6130 C   0  0  0  0  0  0  0  0  0  0  0  0
   44.9490   34.2830   43.5240 N   0  0  0  0  0  0  0  0  0  0  0  0
   42.5790   34.8100   40.8110 N   0  0  0  0  0  0  0  0  0  0  0  0
   42.8300   34.5970   39.4130 C   0  0  0  0  0  0  0  0  0  0  0  0
   41.9760   35.4030   38.5100 C   0  0  0  0  0  0  0  0  0  0  0  0
   40.6060   35.4070   38.8770 N   0  0  0  0  0  0  0  0  0  0  0  0
   40.2910   35.4440   40.2630 C   0  0  0  0  0  0  0  0  0  0  0  0
   41.5340   35.7440   41.0870 C   0  0  0  0  0  0  0  0  0  0  0  0
   46.4330   31.0850   44.3690 C   0  0  0  0  0  0  0  0  0  0  0  0
   45.8730   32.3010   44.6020 C   0  0  0  0  0  0  0  0  0  0  0  0
   46.1460   32.9170   45.8190 C   0  0  0  0  0  0  0  0  0  0  0  0
   46.9600   32.2880   46.7330 C   0  0  0  0  0  0  0  0  0  0  0  0
   47.5220   31.0500   46.4820 C   0  0  0  0  0  0  0  0  0  0  0  0
   47.2580   30.4290   45.2740 C   0  0  0  0  0  0  0  0  0  0  0  0
   48.2840   30.6980   47.5970 O   0  0  0  0  0  0  0  0  0  0  0  0
   47.9510   31.5630   48.6590 C   0  0  1  0  0  0  0  0  0  0  0  0
   47.3880   32.6870   48.0160 O   0  0  0  0  0  0  0  0  0  0  0  0
   46.9130   30.9730   49.5030 N   0  0  0  0  0  0  0  0  0  0  0  0
   44.1015   35.9621   42.5356 H   0  0  0  0  0  0  0  0  0  0  0  0
   42.8735   32.0681   41.1806 H   0  0  0  0  0  0  0  0  0  0  0  0
   43.8811   34.8496   39.2094 H   0  0  0  0  0  0  0  0  0  0  0  0
   42.5963   33.5418   39.2085 H   0  0  0  0  0  0  0  0  0  0  0  0
   42.0622   34.9936   37.4927 H   0  0  0  0  0  0  0  0  0  0  0  0
   42.3300   36.4425   38.5743 H   0  0  0  0  0  0  0  0  0  0  0  0
   40.1737   36.2343   38.4415 H   0  0  0  0  0  0  0  0  0  0  0  0
   39.5405   36.2280   40.4423 H   0  0  0  0  0  0  0  0  0  0  0  0
   39.8952   34.4625   40.5629 H   0  0  0  0  0  0  0  0  0  0  0  0
   41.2774   35.6889   42.1552 H   0  0  0  0  0  0  0  0  0  0  0  0
   41.8902   36.7507   40.8231 H   0  0  0  0  0  0  0  0  0  0  0  0
   46.2209   30.5919   43.4089 H   0  0  0  0  0  0  0  0  0  0  0  0
   45.7135   33.9018   46.0495 H   0  0  0  0  0  0  0  0  0  0  0  0
   47.6887   29.4449   45.0372 H   0  0  0  0  0  0  0  0  0  0  0  0
   48.8238   31.7842   49.2909 H   0  0  0  0  0  0  0  0  0  0  0  0
   47.1566   31.1115   50.4942 H   0  0  0  0  0  0  0  0  0  0  0  0
   46.0100   31.4271   49.3047 H   0  0  0  0  0  0  0  0  0  0  0  0
  1  6  2  0
  2  3  2  0
  2  1  1  0
  3  4  1  0
  4  5  2  0
  5 14  1  0
  6  5  1  0
  7 12  1  0
  7  2  1  0
  8  7  1  0
  9 10  1  0
  9  8  1  0
 10 11  1  0
 11 12  1  0
 13 14  2  0
 13 18  1  0
 14 15  1  0
 15 16  2  0
 16 21  1  0
 17 16  1  0
 17 19  1  0
 18 17  2  0
 19 20  1  0
 20 22  1  0
 21 20  1  0
  1 23  1  0
  3 24  1  0
  8 25  1  0
  8 26  1  0
  9 27  1  0
  9 28  1  0
 10 29  1  0
 11 30  1  0
 11 31  1  0
 12 32  1  0
 12 33  1  0
 13 34  1  0
 15 35  1  0
 18 36  1  0
 20 37  1  1
 22 38  1  0
 22 39  1  0
M  ISO  8  23  14  24  14  25  13  26  13  27  13  28  13  29   5  30  13
M  ISO  8  31  13  32  13  33  13  34  14  35  14  36  14  37  13  38   5
M  ISO  1  39   5
M  END
>  <minimizedAffinity>  (1) 
-5.80499315

>  <minimizedRMSD>  (1) 
0.0494183935

$$$$
