
     RDKit          3D

 50 55  0  0  1  0  0  0  0  0999 V2000
   46.5100   32.4260   43.0460 C   0  0  0  0  0  0  0  0  0  0  0  0
   45.4100   33.1140   43.4140 C   0  0  0  0  0  0  0  0  0  0  0  0
   45.1990   33.3490   44.7700 C   0  0  0  0  0  0  0  0  0  0  0  0
   46.0960   32.8860   45.7070 C   0  0  0  0  0  0  0  0  0  0  0  0
   47.2300   32.1740   45.2990 C   0  0  0  0  0  0  0  0  0  0  0  0
   47.4440   31.9380   43.9420 C   0  0  0  0  0  0  0  0  0  0  0  0
   47.9440   31.8370   46.4460 O   0  0  0  0  0  0  0  0  0  0  0  0
   47.0620   32.0010   47.5580 C   0  0  1  0  0  0  0  0  0  0  0  0
   46.1500   32.9650   47.1010 O   0  0  0  0  0  0  0  0  0  0  0  0
   46.3010   30.7470   47.6580 N   0  0  0  0  0  0  0  0  0  0  0  0
   44.9620   30.5710   47.8520 C   0  0  0  0  0  0  0  0  0  0  0  0
   44.6920   29.2520   47.8790 N   0  0  0  0  0  0  0  0  0  0  0  0
   45.8360   28.5640   47.7050 C   0  0  0  0  0  0  0  0  0  0  0  0
   46.0010   27.1940   47.6680 C   0  0  0  0  0  0  0  0  0  0  0  0
   47.2680   26.7690   47.4780 N   0  0  0  0  0  0  0  0  0  0  0  0
   48.2750   27.6650   47.3400 C   0  0  0  0  0  0  0  0  0  0  0  0
   48.0820   29.0120   47.3810 N   0  0  0  0  0  0  0  0  0  0  0  0
   46.8400   29.5000   47.5670 C   0  0  0  0  0  0  0  0  0  0  0  0
   44.8720   26.3180   47.8250 N   0  0  0  0  0  0  0  0  0  0  0  0
   42.6480   33.3150   40.9620 C   0  0  0  0  0  0  0  0  0  0  0  0
   42.6720   34.6470   40.5960 C   0  0  0  0  0  0  0  0  0  0  0  0
   43.6360   35.4590   41.1970 C   0  0  0  0  0  0  0  0  0  0  0  0
   44.4960   34.9280   42.0990 N   0  0  0  0  0  0  0  0  0  0  0  0
   44.4430   33.6110   42.4340 C   0  0  0  0  0  0  0  0  0  0  0  0
   43.5250   32.8250   41.8650 N   0  0  0  0  0  0  0  0  0  0  0  0
   41.7230   35.0710   39.6460 N   0  0  0  0  0  0  0  0  0  0  0  0
   42.1910   35.4630   38.3540 C   0  0  0  0  0  0  0  0  0  0  0  0
   41.1310   35.9670   37.4470 C   0  0  0  0  0  0  0  0  0  0  0  0
   39.9710   35.1350   37.4220 N   0  0  0  0  0  0  0  0  0  0  0  0
   39.5660   34.5470   38.6350 C   0  0  0  0  0  0  0  0  0  0  0  0
   40.3020   35.1640   39.8220 C   0  0  0  0  0  0  0  0  0  0  0  0
   46.6735   32.2427   41.9738 H   0  0  0  0  0  0  0  0  0  0  0  0
   44.3095   33.9085   45.0953 H   0  0  0  0  0  0  0  0  0  0  0  0
   48.3271   31.3816   43.5949 H   0  0  0  0  0  0  0  0  0  0  0  0
   47.5637   32.2572   48.5028 H   0  0  0  0  0  0  0  0  0  0  0  0
   44.2222   31.3768   47.9677 H   0  0  0  0  0  0  0  0  0  0  0  0
   49.2964   27.2862   47.1877 H   0  0  0  0  0  0  0  0  0  0  0  0
   45.0044   25.2970   47.7960 H   0  0  0  0  0  0  0  0  0  0  0  0
   43.9307   26.7114   47.9664 H   0  0  0  0  0  0  0  0  0  0  0  0
   41.9030   32.6430   40.5110 H   0  0  0  0  0  0  0  0  0  0  0  0
   43.6969   36.5265   40.9388 H   0  0  0  0  0  0  0  0  0  0  0  0
   42.9388   36.2589   38.4855 H   0  0  0  0  0  0  0  0  0  0  0  0
   42.6057   34.5600   37.8822 H   0  0  0  0  0  0  0  0  0  0  0  0
   40.8335   36.9720   37.7810 H   0  0  0  0  0  0  0  0  0  0  0  0
   41.5485   35.9771   36.4294 H   0  0  0  0  0  0  0  0  0  0  0  0
   39.1870   35.7092   37.0807 H   0  0  0  0  0  0  0  0  0  0  0  0
   38.4845   34.7007   38.7645 H   0  0  0  0  0  0  0  0  0  0  0  0
   39.8042   33.4737   38.5978 H   0  0  0  0  0  0  0  0  0  0  0  0
   40.0168   34.6296   40.7402 H   0  0  0  0  0  0  0  0  0  0  0  0
   40.0250   36.2261   39.8947 H   0  0  0  0  0  0  0  0  0  0  0  0
  1  2  2  0
  1  6  1  0
  2  3  1  0
  3  4  2  0
  4  9  1  0
  5  4  1  0
  5  7  1  0
  6  5  2  0
  7  8  1  0
  8 10  1  0
  9  8  1  0
 10 11  1  0
 11 12  2  0
 13 12  1  0
 14 13  2  0
 14 19  1  0
 15 14  1  0
 16 17  1  0
 16 15  2  0
 17 18  2  0
 18 10  1  0
 18 13  1  0
 20 25  2  0
 21 20  1  0
 21 22  2  0
 22 23  1  0
 23 24  2  0
 24  2  1  0
 25 24  1  0
 26 31  1  0
 26 21  1  0
 27 26  1  0
 28 27  1  0
 29 28  1  0
 29 30  1  0
 30 31  1  0
  1 32  1  0
  3 33  1  0
  6 34  1  0
  8 35  1  1
 11 36  1  0
 16 37  1  0
 19 38  1  0
 19 39  1  0
 20 40  1  0
 22 41  1  0
 27 42  1  0
 27 43  1  0
 28 44  1  0
 28 45  1  0
 29 46  1  0
 30 47  1  0
 30 48  1  0
 31 49  1  0
 31 50  1  0
M  ISO  8  32  14  33  14  34  14  35  13  36  14  37  14  40  14  41  14
M  ISO  8  42  13  43  13  44  13  45  13  46   5  47  13  48  13  49  13
M  ISO  1  50  13
M  END
>  <minimizedAffinity>  (1) 
-5.78622437

>  <minimizedRMSD>  (1) 
2.21219277

$$$$
