
     RDKit          3D

 40 43  0  0  1  0  0  0  0  0999 V2000
   44.1650   34.7740   42.5710 C   0  0  0  0  0  0  0  0  0  0  0  0
   43.3660   34.0310   41.7130 C   0  0  0  0  0  0  0  0  0  0  0  0
   43.4130   32.6510   41.8270 C   0  0  0  0  0  0  0  0  0  0  0  0
   44.2230   32.0800   42.7550 N   0  0  0  0  0  0  0  0  0  0  0  0
   44.9930   32.8450   43.5780 C   0  0  0  0  0  0  0  0  0  0  0  0
   44.9650   34.1770   43.4890 N   0  0  0  0  0  0  0  0  0  0  0  0
   42.5720   34.7620   40.7970 N   0  0  0  0  0  0  0  0  0  0  0  0
   42.8040   34.5340   39.3970 C   0  0  0  0  0  0  0  0  0  0  0  0
   41.9930   35.4110   38.5100 C   0  0  0  0  0  0  0  0  0  0  0  0
   40.6140   35.4630   38.8780 N   0  0  0  0  0  0  0  0  0  0  0  0
   40.3130   35.4700   40.2630 C   0  0  0  0  0  0  0  0  0  0  0  0
   41.5490   35.7190   41.0910 C   0  0  0  0  0  0  0  0  0  0  0  0
   46.2520   30.8750   44.3630 C   0  0  0  0  0  0  0  0  0  0  0  0
   45.8400   32.1610   44.5530 C   0  0  0  0  0  0  0  0  0  0  0  0
   46.2470   32.8130   45.7060 C   0  0  0  0  0  0  0  0  0  0  0  0
   47.0460   32.1690   46.6250 C   0  0  0  0  0  0  0  0  0  0  0  0
   47.4590   30.8530   46.4170 C   0  0  0  0  0  0  0  0  0  0  0  0
   47.0600   30.1900   45.2700 C   0  0  0  0  0  0  0  0  0  0  0  0
   48.2500   30.4800   47.5100 O   0  0  0  0  0  0  0  0  0  0  0  0
   48.0320   31.4330   48.5500 C   0  0  2  0  0  0  0  0  0  0  0  0
   47.5930   32.5850   47.8540 O   0  0  0  0  0  0  0  0  0  0  0  0
   49.2600   31.6700   49.3770 C   0  0  0  0  0  0  0  0  0  0  0  0
   44.1489   35.8719   42.5049 H   0  0  0  0  0  0  0  0  0  0  0  0
   42.7969   32.0209   41.1687 H   0  0  0  0  0  0  0  0  0  0  0  0
   43.8684   34.7150   39.1866 H   0  0  0  0  0  0  0  0  0  0  0  0
   42.5071   33.4963   39.1848 H   0  0  0  0  0  0  0  0  0  0  0  0
   42.0659   35.0303   37.4806 H   0  0  0  0  0  0  0  0  0  0  0  0
   42.3947   36.4308   38.6030 H   0  0  0  0  0  0  0  0  0  0  0  0
   40.2166   36.3213   38.4702 H   0  0  0  0  0  0  0  0  0  0  0  0
   39.5795   36.2641   40.4663 H   0  0  0  0  0  0  0  0  0  0  0  0
   39.9055   34.4851   40.5348 H   0  0  0  0  0  0  0  0  0  0  0  0
   41.2869   35.6476   42.1569 H   0  0  0  0  0  0  0  0  0  0  0  0
   41.9319   36.7220   40.8513 H   0  0  0  0  0  0  0  0  0  0  0  0
   45.9313   30.3525   43.4497 H   0  0  0  0  0  0  0  0  0  0  0  0
   45.9303   33.8505   45.8885 H   0  0  0  0  0  0  0  0  0  0  0  0
   47.3712   29.1524   45.0790 H   0  0  0  0  0  0  0  0  0  0  0  0
   47.2958   31.0946   49.2940 H   0  0  0  0  0  0  0  0  0  0  0  0
   48.9986   31.6196   50.4443 H   0  0  0  0  0  0  0  0  0  0  0  0
   50.0113   30.9003   49.1467 H   0  0  0  0  0  0  0  0  0  0  0  0
   49.6709   32.6640   49.1467 H   0  0  0  0  0  0  0  0  0  0  0  0
  1  6  2  0
  2  3  2  0
  2  1  1  0
  3  4  1  0
  4  5  2  0
  5 14  1  0
  6  5  1  0
  7 12  1  0
  7  2  1  0
  8  7  1  0
  9 10  1  0
  9  8  1  0
 10 11  1  0
 11 12  1  0
 13 14  2  0
 13 18  1  0
 14 15  1  0
 15 16  2  0
 16 21  1  0
 17 16  1  0
 17 19  1  0
 18 17  2  0
 19 20  1  0
 20 22  1  0
 21 20  1  0
  1 23  1  0
  3 24  1  0
  8 25  1  0
  8 26  1  0
  9 27  1  0
  9 28  1  0
 10 29  1  0
 11 30  1  0
 11 31  1  0
 12 32  1  0
 12 33  1  0
 13 34  1  0
 15 35  1  0
 18 36  1  0
 20 37  1  1
 22 38  1  0
 22 39  1  0
 22 40  1  0
M  ISO  8  23  14  24  14  25  13  26  13  27  13  28  13  29   5  30  13
M  ISO  8  31  13  32  13  33  13  34  14  35  14  36  14  37  13  38   8
M  ISO  2  39   8  40   8
M  END
>  <minimizedAffinity>  (1) 
-5.40940285

>  <minimizedRMSD>  (1) 
0.161708251

$$$$
