
     RDKit          3D

 39 42  0  0  1  0  0  0  0  0999 V2000
   43.9800   34.9330   42.2630 C   0  0  0  0  0  0  0  0  0  0  0  0
   43.1780   34.1380   41.4330 C   0  0  0  0  0  0  0  0  0  0  0  0
   43.2320   32.7660   41.6000 C   0  0  0  0  0  0  0  0  0  0  0  0
   44.0420   32.2350   42.5450 N   0  0  0  0  0  0  0  0  0  0  0  0
   44.8030   33.0210   43.3300 C   0  0  0  0  0  0  0  0  0  0  0  0
   44.7800   34.3690   43.1980 N   0  0  0  0  0  0  0  0  0  0  0  0
   42.3870   34.8470   40.4950 N   0  0  0  0  0  0  0  0  0  0  0  0
   42.7400   34.6950   39.1000 C   0  0  0  0  0  0  0  0  0  0  0  0
   41.9330   35.5350   38.1790 C   0  0  0  0  0  0  0  0  0  0  0  0
   40.5410   35.4690   38.4420 N   0  0  0  0  0  0  0  0  0  0  0  0
   40.1300   35.3670   39.7870 C   0  0  0  0  0  0  0  0  0  0  0  0
   41.2780   35.7010   40.7300 C   0  0  0  0  0  0  0  0  0  0  0  0
   46.2420   31.1950   44.1160 C   0  0  0  0  0  0  0  0  0  0  0  0
   45.6740   32.4170   44.3470 C   0  0  0  0  0  0  0  0  0  0  0  0
   45.9420   33.0450   45.5410 C   0  0  0  0  0  0  0  0  0  0  0  0
   46.7590   32.4620   46.4790 C   0  0  0  0  0  0  0  0  0  0  0  0
   47.3340   31.2110   46.2270 C   0  0  0  0  0  0  0  0  0  0  0  0
   47.0740   30.5560   45.0230 C   0  0  0  0  0  0  0  0  0  0  0  0
   48.1100   30.8610   47.3380 O   0  0  0  0  0  0  0  0  0  0  0  0
   47.7610   31.7280   48.3930 C   0  0  1  0  0  0  0  0  0  0  0  0
   47.2000   32.8470   47.7400 O   0  0  0  0  0  0  0  0  0  0  0  0
   46.7770   30.9870   49.2300 C   0  0  0  0  0  0  0  0  0  0  0  0
   45.8200   31.6910   49.5090 O   0  0  0  0  0  0  0  0  0  0  0  0
   43.9591   36.0273   42.1534 H   0  0  0  0  0  0  0  0  0  0  0  0
   42.6184   32.1086   40.9666 H   0  0  0  0  0  0  0  0  0  0  0  0
   43.7988   34.9678   38.9792 H   0  0  0  0  0  0  0  0  0  0  0  0
   42.5402   33.6468   38.8330 H   0  0  0  0  0  0  0  0  0  0  0  0
   42.1111   35.1949   37.1482 H   0  0  0  0  0  0  0  0  0  0  0  0
   42.2459   36.5790   38.3279 H   0  0  0  0  0  0  0  0  0  0  0  0
   40.1143   36.3225   38.0543 H   0  0  0  0  0  0  0  0  0  0  0  0
   39.3014   36.0682   39.9651 H   0  0  0  0  0  0  0  0  0  0  0  0
   39.8052   34.3337   39.9790 H   0  0  0  0  0  0  0  0  0  0  0  0
   40.9396   35.5752   41.7691 H   0  0  0  0  0  0  0  0  0  0  0  0
   41.5895   36.7409   40.5524 H   0  0  0  0  0  0  0  0  0  0  0  0
   46.0279   30.6926   43.1611 H   0  0  0  0  0  0  0  0  0  0  0  0
   45.4955   34.0288   45.7479 H   0  0  0  0  0  0  0  0  0  0  0  0
   47.5117   29.5714   44.8018 H   0  0  0  0  0  0  0  0  0  0  0  0
   48.5815   32.0521   49.0501 H   0  0  0  0  0  0  0  0  0  0  0  0
   46.8970   29.9427   49.5541 H   0  0  0  0  0  0  0  0  0  0  0  0
  1  6  2  0
  2  3  2  0
  2  1  1  0
  3  4  1  0
  4  5  2  0
  5 14  1  0
  6  5  1  0
  7 12  1  0
  7  2  1  0
  8  7  1  0
  9 10  1  0
  9  8  1  0
 10 11  1  0
 11 12  1  0
 13 14  2  0
 13 18  1  0
 14 15  1  0
 15 16  2  0
 16 21  1  0
 17 16  1  0
 17 19  1  0
 18 17  2  0
 19 20  1  0
 20 22  1  0
 21 20  1  0
 22 23  2  0
  1 24  1  0
  3 25  1  0
  8 26  1  0
  8 27  1  0
  9 28  1  0
  9 29  1  0
 10 30  1  0
 11 31  1  0
 11 32  1  0
 12 33  1  0
 12 34  1  0
 13 35  1  0
 15 36  1  0
 18 37  1  0
 20 38  1  1
 22 39  1  0
M  ISO  8  24  14  25  14  26  13  27  13  28  13  29  13  30   5  31  13
M  ISO  8  32  13  33  13  34  13  35  14  36  14  37  14  38  13  39   6
M  END
>  <minimizedAffinity>  (1) 
-5.30685663

>  <minimizedRMSD>  (1) 
0.373865664

$$$$
