
     RDKit          3D

 49 52  0  0  0  0  0  0  0  0999 V2000
   44.1680   34.8598   42.5898 C   0  0  0  0  0  0  0  0  0  0  0  0
   43.4011   34.1037   41.7249 C   0  0  0  0  0  0  0  0  0  0  0  0
   43.4837   32.7094   41.8527 C   0  0  0  0  0  0  0  0  0  0  0  0
   44.2911   32.1653   42.7947 N   0  0  0  0  0  0  0  0  0  0  0  0
   45.0269   32.9594   43.6228 C   0  0  0  0  0  0  0  0  0  0  0  0
   44.9657   34.2897   43.5212 N   0  0  0  0  0  0  0  0  0  0  0  0
   42.6026   34.7920   40.7902 N   0  0  0  0  0  0  0  0  0  0  0  0
   42.8441   34.5569   39.4024 C   0  0  0  0  0  0  0  0  0  0  0  0
   42.0152   35.3859   38.4925 C   0  0  0  0  0  0  0  0  0  0  0  0
   40.6298   35.4165   38.8579 N   0  0  0  0  0  0  0  0  0  0  0  0
   40.3153   35.4322   40.2347 C   0  0  0  0  0  0  0  0  0  0  0  0
   41.5473   35.7260   41.0710 C   0  0  0  0  0  0  0  0  0  0  0  0
   46.3609   31.0429   44.4269 C   0  0  0  0  0  0  0  0  0  0  0  0
   45.8802   32.2876   44.6217 C   0  0  0  0  0  0  0  0  0  0  0  0
   46.1995   32.9546   45.8008 C   0  0  0  0  0  0  0  0  0  0  0  0
   46.9970   32.3263   46.7366 C   0  0  0  0  0  0  0  0  0  0  0  0
   47.4859   31.0410   46.5217 C   0  0  0  0  0  0  0  0  0  0  0  0
   47.1637   30.3810   45.3431 C   0  0  0  0  0  0  0  0  0  0  0  0
   48.2482   30.6912   47.6359 O   0  0  0  0  0  0  0  0  0  0  0  0
   47.8978   31.5858   48.6917 C   0  0  2  0  0  0  0  0  0  0  0  0
   47.4711   32.7438   47.9861 O   0  0  0  0  0  0  0  0  0  0  0  0
   44.1832   35.9484   42.5818 H   0  0  0  0  0  0  0  0  0  0  0  0
   42.8795   32.1426   41.1706 H   0  0  0  0  0  0  0  0  0  0  0  0
   43.9280   34.7542   39.1553 H   0  0  0  0  0  0  0  0  0  0  0  0
   42.7006   33.4865   39.1531 H   0  0  0  0  0  0  0  0  0  0  0  0
   42.4244   36.4259   38.5112 H   0  0  0  0  0  0  0  0  0  0  0  0
   42.1162   34.9878   37.4601 H   0  0  0  0  0  0  0  0  0  0  0  0
   40.0455   34.7231   38.3644 H   0  0  0  0  0  0  0  0  0  0  0  0
   39.4944   36.0933   40.5136 H   0  0  0  0  0  0  0  0  0  0  0  0
   40.0021   34.3884   40.5265 H   0  0  0  0  0  0  0  0  0  0  0  0
   41.2608   35.5792   42.1469 H   0  0  0  0  0  0  0  0  0  0  0  0
   41.8750   36.7817   40.9861 H   0  0  0  0  0  0  0  0  0  0  0  0
   46.1325   30.4961   43.5224 H   0  0  0  0  0  0  0  0  0  0  0  0
   45.8508   33.9535   46.0262 H   0  0  0  0  0  0  0  0  0  0  0  0
   47.5310   29.3763   45.1474 H   0  0  0  0  0  0  0  0  0  0  0  0
   47.1004   31.1279   49.3066 H   0  0  0  0  0  0  0  0  0  0  0  0
   49.1557   31.8295   49.4668 C   0  0  0  0  0  0  0  0  0  0  0  0
   50.3067   31.1313   48.9589 N   0  0  0  0  0  4  0  0  0  0  0  0
   50.6652   31.5395   47.6291 C   0  0  0  0  0  0  0  0  0  0  0  0
   49.9641   32.2585   47.1814 H   0  0  0  0  0  0  0  0  0  0  0  0
   50.1365   29.6911   49.0572 C   0  0  0  0  0  0  0  0  0  0  0  0
   51.1314   29.2212   49.1837 H   0  0  0  0  0  0  0  0  0  0  0  0
   48.9916   31.5546   50.5134 H   0  0  0  0  0  0  0  0  0  0  0  0
   49.3843   32.9209   49.3558 H   0  0  0  0  0  0  0  0  0  0  0  0
   51.0951   31.3609   49.6017 H   0  0  0  0  0  0  0  0  0  0  0  0
   50.7644   30.6321   46.9687 H   0  0  0  0  0  0  0  0  0  0  0  0
   51.6880   32.0113   47.6081 H   0  0  0  0  0  0  0  0  0  0  0  0
   49.5087   29.4486   49.9477 H   0  0  0  0  0  0  0  0  0  0  0  0
   49.6760   29.2940   48.1275 H   0  0  0  0  0  0  0  0  0  0  0  0
  1  6  2  0
  2  3  2  0
  2  1  1  0
  3  4  1  0
  4  5  2  0
  5 14  1  0
  6  5  1  0
  7 12  1  0
  7  2  1  0
  8  7  1  0
  9 10  1  0
  9  8  1  0
 10 11  1  0
 11 12  1  0
 13 14  2  0
 13 18  1  0
 14 15  1  0
 15 16  2  0
 16 21  1  0
 17 16  1  0
 17 19  1  0
 18 17  2  0
 19 20  1  0
 21 20  1  0
  1 22  1  0
  3 23  1  0
  8 24  1  0
  8 25  1  0
  9 26  1  0
  9 27  1  0
 10 28  1  0
 11 29  1  0
 11 30  1  0
 12 31  1  0
 12 32  1  0
 13 33  1  0
 15 34  1  0
 18 35  1  0
 20 36  1  1
 37 38  1  0
 38 39  1  0
 39 40  1  0
 38 41  1  0
 41 42  1  0
 37 43  1  0
 37 44  1  0
 38 45  1  0
 39 46  1  0
 39 47  1  0
 41 48  1  0
 41 49  1  0
 20 37  1  0
M  CHG  1  38   1
M  END
>  <DihAtoms>  (1) 
18,19,36,37

>  <DihDeg>  (1) 
-179.9994299642403

$$$$
