
     RDKit          3D

 47 51  0  0  1  0  0  0  0  0999 V2000
   44.3310   34.6310   42.0770 C   0  0  0  0  0  0  0  0  0  0  0  0
   43.2700   33.9830   41.4450 C   0  0  0  0  0  0  0  0  0  0  0  0
   43.1260   32.6250   41.6670 C   0  0  0  0  0  0  0  0  0  0  0  0
   43.9990   31.9740   42.4740 N   0  0  0  0  0  0  0  0  0  0  0  0
   45.0170   32.6240   43.0710 C   0  0  0  0  0  0  0  0  0  0  0  0
   45.1910   33.9560   42.8790 N   0  0  0  0  0  0  0  0  0  0  0  0
   42.4400   34.7970   40.6320 N   0  0  0  0  0  0  0  0  0  0  0  0
   42.5950   34.6610   39.2100 C   0  0  0  0  0  0  0  0  0  0  0  0
   41.7510   35.5950   38.4230 C   0  0  0  0  0  0  0  0  0  0  0  0
   40.3930   35.6290   38.8690 N   0  0  0  0  0  0  0  0  0  0  0  0
   40.1740   35.5760   40.2620 C   0  0  0  0  0  0  0  0  0  0  0  0
   41.4540   35.7480   41.0520 C   0  0  0  0  0  0  0  0  0  0  0  0
   47.0910   31.3650   43.4080 C   0  0  0  0  0  0  0  0  0  0  0  0
   45.9510   31.8980   43.9420 C   0  0  0  0  0  0  0  0  0  0  0  0
   45.7180   31.7360   45.2840 C   0  0  0  0  0  0  0  0  0  0  0  0
   46.6150   31.0510   46.0700 C   0  0  0  0  0  0  0  0  0  0  0  0
   47.7660   30.5130   45.5200 C   0  0  0  0  0  0  0  0  0  0  0  0
   48.0210   30.6640   44.1710 C   0  0  0  0  0  0  0  0  0  0  0  0
   48.4740   29.8810   46.5510 O   0  0  0  0  0  0  0  0  0  0  0  0
   47.6150   29.7530   47.6600 C   0  0  1  0  0  0  0  0  0  0  0  0
   46.6250   30.7440   47.4370 O   0  0  0  0  0  0  0  0  0  0  0  0
   47.0370   28.3840   47.6270 C   0  0  0  0  0  0  0  0  0  0  0  0
   45.6770   28.1520   47.6720 C   0  0  0  0  0  0  0  0  0  0  0  0
   45.1840   26.8440   47.6380 C   0  0  0  0  0  0  0  0  0  0  0  0
   46.0780   25.7950   47.5600 C   0  0  0  0  0  0  0  0  0  0  0  0
   47.4460   25.9690   47.5110 C   0  0  0  0  0  0  0  0  0  0  0  0
   47.8820   27.2780   47.5480 C   0  0  0  0  0  0  0  0  0  0  0  0
   44.4729   35.7107   41.9218 H   0  0  0  0  0  0  0  0  0  0  0  0
   42.3031   32.0737   41.1886 H   0  0  0  0  0  0  0  0  0  0  0  0
   43.6488   34.8485   38.9565 H   0  0  0  0  0  0  0  0  0  0  0  0
   42.2740   33.6418   38.9489 H   0  0  0  0  0  0  0  0  0  0  0  0
   41.7665   35.2790   37.3695 H   0  0  0  0  0  0  0  0  0  0  0  0
   42.1665   36.6050   38.5539 H   0  0  0  0  0  0  0  0  0  0  0  0
   39.9738   36.5034   38.5218 H   0  0  0  0  0  0  0  0  0  0  0  0
   39.4756   36.3787   40.5410 H   0  0  0  0  0  0  0  0  0  0  0  0
   39.7622   34.5842   40.5003 H   0  0  0  0  0  0  0  0  0  0  0  0
   41.2413   35.5994   42.1210 H   0  0  0  0  0  0  0  0  0  0  0  0
   41.8436   36.7618   40.8777 H   0  0  0  0  0  0  0  0  0  0  0  0
   47.2812   31.4952   42.3324 H   0  0  0  0  0  0  0  0  0  0  0  0
   44.8072   32.1570   45.7348 H   0  0  0  0  0  0  0  0  0  0  0  0
   48.9293   30.2441   43.7143 H   0  0  0  0  0  0  0  0  0  0  0  0
   48.0982   29.8862   48.6392 H   0  0  0  0  0  0  0  0  0  0  0  0
   44.9784   28.9994   47.7348 H   0  0  0  0  0  0  0  0  0  0  0  0
   44.1011   26.6539   47.6728 H   0  0  0  0  0  0  0  0  0  0  0  0
   45.6802   24.7697   47.5357 H   0  0  0  0  0  0  0  0  0  0  0  0
   48.1430   25.1205   47.4467 H   0  0  0  0  0  0  0  0  0  0  0  0
   48.9662   27.4603   47.5129 H   0  0  0  0  0  0  0  0  0  0  0  0
  1  6  2  0
  2  3  2  0
  2  1  1  0
  3  4  1  0
  4  5  2  0
  5 14  1  0
  6  5  1  0
  7 12  1  0
  7  2  1  0
  8  7  1  0
  9 10  1  0
  9  8  1  0
 10 11  1  0
 11 12  1  0
 13 14  2  0
 13 18  1  0
 14 15  1  0
 15 16  2  0
 16 21  1  0
 17 16  1  0
 17 19  1  0
 18 17  2  0
 19 20  1  0
 21 20  1  0
 22 20  1  0
 22 23  2  0
 24 23  1  0
 25 24  2  0
 26 27  2  0
 26 25  1  0
 27 22  1  0
  1 28  1  0
  3 29  1  0
  8 30  1  0
  8 31  1  0
  9 32  1  0
  9 33  1  0
 10 34  1  0
 11 35  1  0
 11 36  1  0
 12 37  1  0
 12 38  1  0
 13 39  1  0
 15 40  1  0
 18 41  1  0
 20 42  1  1
 23 43  1  0
 24 44  1  0
 25 45  1  0
 26 46  1  0
 27 47  1  0
M  ISO  8  28  14  29  14  30  13  31  13  32  13  33  13  34   5  35  13
M  ISO  8  36  13  37  13  38  13  39  14  40  14  41  14  42  13  43  14
M  ISO  4  44  14  45  14  46  14  47  14
M  END
>  <minimizedAffinity>  (1) 
-4.83058977

>  <minimizedRMSD>  (1) 
2.34056878

$$$$
