
     RDKit          3D

 29 31  0  0  0  0  0  0  0  0999 V2000
   47.0090   33.6530   41.2990 O   0  0  0  0  0  0  0  0  0  0  0  0
   47.1560   33.7190   39.9190 C   0  0  0  0  0  0  0  0  0  0  0  0
   48.2310   34.2580   39.2340 C   0  0  0  0  0  0  0  0  0  0  0  0
   48.2210   34.2450   37.8730 C   0  0  0  0  0  0  0  0  0  0  0  0
   47.1770   33.7140   37.1310 C   0  0  0  0  0  0  0  0  0  0  0  0
   46.1190   33.1840   37.8010 C   0  0  0  0  0  0  0  0  0  0  0  0
   45.0820   32.6570   37.0570 C   0  0  0  0  0  0  0  0  0  0  0  0
   43.9910   32.1100   37.6870 C   0  0  0  0  0  0  0  0  0  0  0  0
   43.9390   32.0910   39.0750 C   0  0  0  0  0  0  0  0  0  0  0  0
   44.9830   32.6220   39.8020 C   0  0  0  0  0  0  0  0  0  0  0  0
   46.0930   33.1790   39.1930 C   0  0  0  0  0  0  0  0  0  0  0  0
   47.1900   34.7590   42.1230 C   0  0  0  0  0  0  0  0  0  0  0  0
   48.0590   35.6010   41.7780 O   0  0  0  0  0  0  0  0  0  0  0  0
   46.3490   34.7980   43.2800 C   0  0  0  0  0  0  0  0  0  0  0  0
   45.4280   35.8300   43.2510 C   0  0  0  0  0  0  0  0  0  0  0  0
   44.5670   35.9230   44.3670 C   0  0  0  0  0  0  0  0  0  0  0  0
   44.6820   35.0320   45.3710 N   0  0  0  0  0  0  0  0  0  0  0  0
   45.6030   34.0430   45.3400 C   0  0  0  0  0  0  0  0  0  0  0  0
   46.4390   33.9270   44.2910 N   0  0  0  0  0  0  0  0  0  0  0  0
   49.0813   34.6907   39.7816 H   0  0  0  0  0  0  0  0  0  0  0  0
   49.0801   34.6753   37.3375 H   0  0  0  0  0  0  0  0  0  0  0  0
   47.2038   33.7213   36.0314 H   0  0  0  0  0  0  0  0  0  0  0  0
   45.1297   32.6753   35.9582 H   0  0  0  0  0  0  0  0  0  0  0  0
   43.1637   31.6897   37.0963 H   0  0  0  0  0  0  0  0  0  0  0  0
   43.0706   31.6552   39.5906 H   0  0  0  0  0  0  0  0  0  0  0  0
   44.9317   32.6021   40.9006 H   0  0  0  0  0  0  0  0  0  0  0  0
   45.3697   36.5358   42.4093 H   0  0  0  0  0  0  0  0  0  0  0  0
   43.8078   36.7175   44.4160 H   0  0  0  0  0  0  0  0  0  0  0  0
   45.6697   33.3302   46.1751 H   0  0  0  0  0  0  0  0  0  0  0  0
  1 12  1  0
  2  1  1  0
  3  2  2  0
  4  3  1  0
  5  6  1  0
  5  4  2  0
  6 11  2  0
  7  8  2  0
  7  6  1  0
  8  9  1  0
  9 10  2  0
 11 10  1  0
 11  2  1  0
 12 14  1  0
 13 12  2  0
 14 19  1  0
 15 14  2  0
 15 16  1  0
 16 17  2  0
 18 17  1  0
 19 18  2  0
  3 20  1  0
  4 21  1  0
  5 22  1  0
  7 23  1  0
  8 24  1  0
  9 25  1  0
 10 26  1  0
 15 27  1  0
 16 28  1  0
 18 29  1  0
M  ISO  8  20  14  21  14  22  14  23  14  24  14  25  14  26  14  27  14
M  ISO  2  28  14  29  14
M  END
>  <minimizedAffinity>  (1) 
-4.93146563

>  <minimizedRMSD>  (1) 
0.881136715

$$$$
