
     RDKit          3D

 15 15  0  0  0  0  0  0  0  0999 V2000
   44.7220   35.9240   44.4710 C   0  0  0  0  0  0  0  0  0  0  0  0
   45.5180   35.1960   43.5730 C   0  0  0  0  0  0  0  0  0  0  0  0
   46.0350   33.9640   44.0230 C   0  0  0  0  0  0  0  0  0  0  0  0
   45.7290   33.5650   45.2940 N   0  0  0  0  0  0  0  0  0  0  0  0
   44.9600   34.3000   46.1180 C   0  0  0  0  0  0  0  0  0  0  0  0
   44.4440   35.4970   45.7100 N   0  0  0  0  0  0  0  0  0  0  0  0
   45.5010   32.7390   47.8800 C   0  0  0  0  0  0  0  0  0  0  0  0
   46.4190   32.1920   47.2400 O   0  0  0  0  0  0  0  0  0  0  0  0
   44.6840   33.8170   47.4300 N   0  0  0  0  0  0  0  0  0  0  0  0
   45.3170   32.1820   49.1590 O   0  0  0  0  0  0  0  0  0  0  0  0
   44.3077   36.8887   44.1426 H   0  0  0  0  0  0  0  0  0  0  0  0
   45.7295   35.5709   42.5607 H   0  0  0  0  0  0  0  0  0  0  0  0
   46.6659   33.3423   43.3707 H   0  0  0  0  0  0  0  0  0  0  0  0
   43.9404   34.2217   48.0167 H   0  0  0  0  0  0  0  0  0  0  0  0
   44.6136   32.5384   49.7576 H   0  0  0  0  0  0  0  0  0  0  0  0
  1  6  2  0
  2  3  2  0
  2  1  1  0
  3  4  1  0
  4  5  2  0
  5  9  1  0
  6  5  1  0
  7 10  1  0
  8  7  2  0
  9  7  1  0
  1 11  1  0
  2 12  1  0
  3 13  1  0
  9 14  1  0
 10 15  1  0
M  ISO  4  11  14  12  14  13  14  15   3
M  END
>  <minimizedAffinity>  (1) 
-4.50445557

>  <minimizedRMSD>  (1) 
0.786540747

$$$$
