
     RDKit          3D

 26 27  0  0  0  0  0  0  0  0999 V2000
   45.8870   33.8870   44.6070 C   0  0  0  0  0  0  0  0  0  0  0  0
   46.3140   34.3080   43.3470 C   0  0  0  0  0  0  0  0  0  0  0  0
   45.8050   35.5340   42.8790 C   0  0  0  0  0  0  0  0  0  0  0  0
   44.9430   36.2330   43.6550 N   0  0  0  0  0  0  0  0  0  0  0  0
   44.5570   35.7760   44.8830 C   0  0  0  0  0  0  0  0  0  0  0  0
   45.0380   34.6110   45.3320 N   0  0  0  0  0  0  0  0  0  0  0  0
   46.4420   32.6440   45.0110 C   0  0  0  0  0  0  0  0  0  0  0  0
   47.5970   32.2030   44.7450 O   0  0  0  0  0  0  0  0  0  0  0  0
   45.6050   31.8450   45.7820 O   0  0  0  0  0  0  0  0  0  0  0  0
   45.8820   31.4470   47.0960 C   0  0  0  0  0  0  0  0  0  0  0  0
   45.3030   32.3970   48.1210 C   0  0  0  0  0  0  0  0  0  0  0  0
   45.4870   31.5460   49.3830 C   0  0  0  0  0  0  0  0  0  0  0  0
   45.1510   30.1500   48.9130 C   0  0  0  0  0  0  0  0  0  0  0  0
   45.1410   30.1700   47.4040 C   0  0  0  0  0  0  0  0  0  0  0  0
   47.0157   33.7096   42.7474 H   0  0  0  0  0  0  0  0  0  0  0  0
   46.1042   35.9202   41.8934 H   0  0  0  0  0  0  0  0  0  0  0  0
   43.8567   36.3608   45.4975 H   0  0  0  0  0  0  0  0  0  0  0  0
   46.9784   31.3800   47.1537 H   0  0  0  0  0  0  0  0  0  0  0  0
   45.8691   33.3386   48.1743 H   0  0  0  0  0  0  0  0  0  0  0  0
   44.2726   32.7282   47.9245 H   0  0  0  0  0  0  0  0  0  0  0  0
   46.5235   31.6003   49.7472 H   0  0  0  0  0  0  0  0  0  0  0  0
   44.8598   31.8801   50.2226 H   0  0  0  0  0  0  0  0  0  0  0  0
   45.9090   29.4394   49.2742 H   0  0  0  0  0  0  0  0  0  0  0  0
   44.1719   29.8349   49.3030 H   0  0  0  0  0  0  0  0  0  0  0  0
   44.1135   30.2011   47.0126 H   0  0  0  0  0  0  0  0  0  0  0  0
   45.5931   29.2768   46.9481 H   0  0  0  0  0  0  0  0  0  0  0  0
  1  7  1  0
  1  6  1  0
  2  1  2  0
  3  2  1  0
  3  4  2  0
  4  5  1  0
  5  6  2  0
  7  9  1  0
  8  7  2  0
  9 10  1  0
 10 14  1  0
 10 11  1  0
 11 12  1  0
 13 12  1  0
 14 13  1  0
  2 15  1  0
  3 16  1  0
  5 17  1  0
 10 18  1  0
 11 19  1  0
 11 20  1  0
 12 21  1  0
 12 22  1  0
 13 23  1  0
 13 24  1  0
 14 25  1  0
 14 26  1  0
M  ISO  8  15  14  16  14  17  14  18  13  19  13  20  13  21  13  22  13
M  ISO  4  23  13  24  13  25  13  26  13
M  END
>  <minimizedAffinity>  (1) 
-4.46185398

>  <minimizedRMSD>  (1) 
6.91167831

$$$$
