
     RDKit          3D

 23 24  0  0  0  0  0  0  0  0999 V2000
   46.6850   32.6300   44.7130 C   0  0  0  0  0  0  0  0  0  0  0  0
   47.6990   32.2710   44.0840 O   0  0  0  0  0  0  0  0  0  0  0  0
   45.9600   33.8650   44.5880 C   0  0  0  0  0  0  0  0  0  0  0  0
   46.1480   34.4860   43.3500 C   0  0  0  0  0  0  0  0  0  0  0  0
   45.4800   35.6970   43.1330 C   0  0  0  0  0  0  0  0  0  0  0  0
   44.7000   36.1900   44.1270 N   0  0  0  0  0  0  0  0  0  0  0  0
   44.5520   35.5490   45.3100 C   0  0  0  0  0  0  0  0  0  0  0  0
   45.1900   34.3760   45.5350 N   0  0  0  0  0  0  0  0  0  0  0  0
   46.1640   31.7420   45.6680 O   0  0  0  0  0  0  0  0  0  0  0  0
   46.9650   31.3400   46.7290 C   0  0  0  0  0  0  0  0  0  0  0  0
   47.3300   32.2730   47.7020 C   0  0  0  0  0  0  0  0  0  0  0  0
   48.1290   31.8560   48.7550 C   0  0  0  0  0  0  0  0  0  0  0  0
   48.5580   30.5290   48.8360 C   0  0  0  0  0  0  0  0  0  0  0  0
   48.1880   29.6220   47.8680 C   0  0  0  0  0  0  0  0  0  0  0  0
   47.3820   30.0160   46.7960 C   0  0  0  0  0  0  0  0  0  0  0  0
   46.7939   34.0417   42.5784 H   0  0  0  0  0  0  0  0  0  0  0  0
   45.5852   36.2355   42.1796 H   0  0  0  0  0  0  0  0  0  0  0  0
   43.9109   35.9827   46.0916 H   0  0  0  0  0  0  0  0  0  0  0  0
   46.9904   33.3171   47.6341 H   0  0  0  0  0  0  0  0  0  0  0  0
   48.4274   32.5749   49.5323 H   0  0  0  0  0  0  0  0  0  0  0  0
   49.1928   30.2078   49.6749 H   0  0  0  0  0  0  0  0  0  0  0  0
   48.5296   28.5788   47.9390 H   0  0  0  0  0  0  0  0  0  0  0  0
   47.0841   29.2934   46.0219 H   0  0  0  0  0  0  0  0  0  0  0  0
  1  9  1  0
  2  1  2  0
  3  1  1  0
  3  8  1  0
  4  3  2  0
  5  4  1  0
  5  6  2  0
  6  7  1  0
  7  8  2  0
  9 10  1  0
 10 15  1  0
 10 11  2  0
 11 12  1  0
 12 13  2  0
 14 13  1  0
 15 14  2  0
  4 16  1  0
  5 17  1  0
  7 18  1  0
 11 19  1  0
 12 20  1  0
 13 21  1  0
 14 22  1  0
 15 23  1  0
M  ISO  8  16  14  17  14  18  14  19  14  20  14  21  14  22  14  23  14
M  END
>  <minimizedAffinity>  (1) 
-4.30120468

>  <minimizedRMSD>  (1) 
6.89177561

$$$$
