
     RDKit          3D

 20 21  0  0  0  0  0  0  0  0999 V2000
   47.3030   34.7570   41.9860 C   0  0  0  0  0  0  0  0  0  0  0  0
   48.1810   35.5810   41.6420 O   0  0  0  0  0  0  0  0  0  0  0  0
   46.4350   34.8130   43.1220 C   0  0  0  0  0  0  0  0  0  0  0  0
   45.5510   35.8800   43.0780 C   0  0  0  0  0  0  0  0  0  0  0  0
   44.6610   36.0050   44.1600 C   0  0  0  0  0  0  0  0  0  0  0  0
   44.7190   35.0950   45.1630 N   0  0  0  0  0  0  0  0  0  0  0  0
   45.6080   34.0750   45.1450 C   0  0  0  0  0  0  0  0  0  0  0  0
   46.4740   33.9290   44.1190 N   0  0  0  0  0  0  0  0  0  0  0  0
   47.1430   33.6370   41.1600 O   0  0  0  0  0  0  0  0  0  0  0  0
   47.3080   33.7460   39.7690 C   0  0  0  0  0  0  0  0  0  0  0  0
   48.2980   34.3270   39.0110 C   0  0  0  0  0  0  0  0  0  0  0  0
   47.9750   34.1530   37.6720 C   0  0  0  0  0  0  0  0  0  0  0  0
   46.7780   33.4600   37.6820 C   0  0  0  0  0  0  0  0  0  0  0  0
   46.4140   33.2350   38.9290 O   0  0  0  0  0  0  0  0  0  0  0  0
   45.5459   36.5924   42.2399 H   0  0  0  0  0  0  0  0  0  0  0  0
   43.9306   36.8269   44.1917 H   0  0  0  0  0  0  0  0  0  0  0  0
   45.6256   33.3554   45.9768 H   0  0  0  0  0  0  0  0  0  0  0  0
   49.1905   34.8403   39.3984 H   0  0  0  0  0  0  0  0  0  0  0  0
   48.5460   34.4921   36.7951 H   0  0  0  0  0  0  0  0  0  0  0  0
   46.2175   33.1458   36.7892 H   0  0  0  0  0  0  0  0  0  0  0  0
  1  3  1  0
  2  1  2  0
  3  8  1  0
  4  3  2  0
  4  5  1  0
  5  6  2  0
  7  6  1  0
  8  7  2  0
  9  1  1  0
 10  9  1  0
 11 10  2  0
 12 13  2  0
 12 11  1  0
 13 14  1  0
 14 10  1  0
  4 15  1  0
  5 16  1  0
  7 17  1  0
 11 18  1  0
 12 19  1  0
 13 20  1  0
M  ISO  6  15  14  16  14  17  14  18  14  19  14  20  14
M  END
>  <minimizedAffinity>  (1) 
-4.10054398

>  <minimizedRMSD>  (1) 
0.488855213

$$$$
