
     RDKit          3D

 30 32  0  0  0  0  0  0  0  0999 V2000
   45.8410   33.3170   40.1830 C   0  0  0  0  0  0  0  0  0  0  0  0
   46.0270   33.0770   38.8530 C   0  0  0  0  0  0  0  0  0  0  0  0
   44.8140   33.1600   38.2000 C   0  0  0  0  0  0  0  0  0  0  0  0
   43.9130   33.4560   39.1930 C   0  0  0  0  0  0  0  0  0  0  0  0
   44.5410   33.5430   40.3450 O   0  0  0  0  0  0  0  0  0  0  0  0
   42.7830   35.7380   40.8080 Cl  0  0  0  0  0  0  0  0  0  0  0  0
   41.8660   34.6760   39.7610 C   0  0  0  0  0  0  0  0  0  0  0  0
   42.4730   33.6560   39.0600 C   0  0  0  0  0  0  0  0  0  0  0  0
   41.7230   32.8210   38.2300 C   0  0  0  0  0  0  0  0  0  0  0  0
   40.3440   32.9920   38.0860 C   0  0  0  0  0  0  0  0  0  0  0  0
   39.7950   34.0410   38.8230 C   0  0  0  0  0  0  0  0  0  0  0  0
   40.5110   34.8810   39.6500 C   0  0  0  0  0  0  0  0  0  0  0  0
   46.7420   33.3520   41.2660 O   0  0  0  0  0  0  0  0  0  0  0  0
   46.9720   34.5330   41.9680 C   0  0  0  0  0  0  0  0  0  0  0  0
   47.8220   35.3040   41.4630 O   0  0  0  0  0  0  0  0  0  0  0  0
   46.2140   34.7100   43.1680 C   0  0  0  0  0  0  0  0  0  0  0  0
   45.4000   35.8180   43.1460 C   0  0  0  0  0  0  0  0  0  0  0  0
   44.6210   36.0640   44.2860 C   0  0  0  0  0  0  0  0  0  0  0  0
   44.7160   35.2110   45.3250 N   0  0  0  0  0  0  0  0  0  0  0  0
   45.5290   34.1410   45.2960 C   0  0  0  0  0  0  0  0  0  0  0  0
   46.2980   33.8700   44.2120 N   0  0  0  0  0  0  0  0  0  0  0  0
   46.9924   32.8525   38.3759 H   0  0  0  0  0  0  0  0  0  0  0  0
   44.6143   33.0206   37.1273 H   0  0  0  0  0  0  0  0  0  0  0  0
   42.2272   32.0134   37.6791 H   0  0  0  0  0  0  0  0  0  0  0  0
   39.7346   32.3453   37.4375 H   0  0  0  0  0  0  0  0  0  0  0  0
   38.7115   34.2109   38.7385 H   0  0  0  0  0  0  0  0  0  0  0  0
   40.0131   35.6904   40.2040 H   0  0  0  0  0  0  0  0  0  0  0  0
   45.3614   36.4835   42.2710 H   0  0  0  0  0  0  0  0  0  0  0  0
   43.9481   36.9330   44.3310 H   0  0  0  0  0  0  0  0  0  0  0  0
   45.5715   33.4722   46.1683 H   0  0  0  0  0  0  0  0  0  0  0  0
  1  5  1  0
  1 13  1  0
  2  1  2  0
  3  2  1  0
  3  4  2  0
  4  5  1  0
  7  6  1  0
  8  4  1  0
  8  7  2  0
  9  8  1  0
 10  9  2  0
 10 11  1  0
 11 12  2  0
 12  7  1  0
 13 14  1  0
 14 16  1  0
 15 14  2  0
 16 21  1  0
 17 16  2  0
 17 18  1  0
 18 19  2  0
 20 19  1  0
 21 20  2  0
  2 22  1  0
  3 23  1  0
  9 24  1  0
 10 25  1  0
 11 26  1  0
 12 27  1  0
 17 28  1  0
 18 29  1  0
 20 30  1  0
M  ISO  8  22  14  23  14  24  14  25  14  26  14  27  14  28  14  29  14
M  ISO  1  30  14
M  END
>  <minimizedAffinity>  (1) 
-5.240098

>  <minimizedRMSD>  (1) 
3.56509924

$$$$
