
     RDKit          3D

 30 32  0  0  0  0  0  0  0  0999 V2000
   47.4590   33.6400   39.8920 C   0  0  0  0  0  0  0  0  0  0  0  0
   48.1950   34.5220   39.1300 C   0  0  0  0  0  0  0  0  0  0  0  0
   48.0760   34.1420   37.8070 C   0  0  0  0  0  0  0  0  0  0  0  0
   47.2630   33.0300   37.8090 C   0  0  0  0  0  0  0  0  0  0  0  0
   46.9210   32.7670   39.0610 O   0  0  0  0  0  0  0  0  0  0  0  0
   49.0670   30.7160   37.0830 Cl  0  0  0  0  0  0  0  0  0  0  0  0
   47.5960   31.1740   36.2460 C   0  0  0  0  0  0  0  0  0  0  0  0
   46.8330   32.2500   36.6500 C   0  0  0  0  0  0  0  0  0  0  0  0
   45.6680   32.6210   35.9950 C   0  0  0  0  0  0  0  0  0  0  0  0
   45.2410   31.8910   34.8890 C   0  0  0  0  0  0  0  0  0  0  0  0
   46.0150   30.8230   34.5000 C   0  0  0  0  0  0  0  0  0  0  0  0
   45.4170   29.9470   33.0980 Cl  0  0  0  0  0  0  0  0  0  0  0  0
   47.1750   30.4420   35.1400 C   0  0  0  0  0  0  0  0  0  0  0  0
   47.2400   33.5680   41.2760 O   0  0  0  0  0  0  0  0  0  0  0  0
   47.3650   34.7250   42.0700 C   0  0  0  0  0  0  0  0  0  0  0  0
   48.2320   35.5570   41.7160 O   0  0  0  0  0  0  0  0  0  0  0  0
   46.4740   34.7850   43.1820 C   0  0  0  0  0  0  0  0  0  0  0  0
   45.5930   35.8500   43.1050 C   0  0  0  0  0  0  0  0  0  0  0  0
   44.6690   35.9930   44.1650 C   0  0  0  0  0  0  0  0  0  0  0  0
   44.7030   35.0960   45.1680 N   0  0  0  0  0  0  0  0  0  0  0  0
   45.5810   34.0800   45.1900 C   0  0  0  0  0  0  0  0  0  0  0  0
   46.4680   33.9280   44.1910 N   0  0  0  0  0  0  0  0  0  0  0  0
   48.7745   35.3770   39.5083 H   0  0  0  0  0  0  0  0  0  0  0  0
   48.5353   34.6270   36.9331 H   0  0  0  0  0  0  0  0  0  0  0  0
   45.0858   33.4855   36.3467 H   0  0  0  0  0  0  0  0  0  0  0  0
   44.3212   32.1579   34.3479 H   0  0  0  0  0  0  0  0  0  0  0  0
   47.7553   29.5780   34.7841 H   0  0  0  0  0  0  0  0  0  0  0  0
   45.6112   36.5522   42.2585 H   0  0  0  0  0  0  0  0  0  0  0  0
   43.9402   36.8169   44.1701 H   0  0  0  0  0  0  0  0  0  0  0  0
   45.5745   33.3689   46.0292 H   0  0  0  0  0  0  0  0  0  0  0  0
  1 14  1  0
  2  1  2  0
  3  4  2  0
  3  2  1  0
  4  5  1  0
  5  1  1  0
  7  8  2  0
  7  6  1  0
  8  4  1  0
  9  8  1  0
 10  9  2  0
 11 10  1  0
 11 13  2  0
 12 11  1  0
 13  7  1  0
 14 15  1  0
 15 17  1  0
 16 15  2  0
 17 22  1  0
 18 17  2  0
 18 19  1  0
 19 20  2  0
 20 21  1  0
 22 21  2  0
  2 23  1  0
  3 24  1  0
  9 25  1  0
 10 26  1  0
 13 27  1  0
 18 28  1  0
 19 29  1  0
 21 30  1  0
M  ISO  8  23  14  24  14  25  14  26  14  27  14  28  14  29  14  30  14
M  END
>  <minimizedAffinity>  (1) 
-5.01351786

>  <minimizedRMSD>  (1) 
1.11826849

$$$$
