
     RDKit          3D

 31 33  0  0  1  0  0  0  0  0999 V2000
   47.3780   33.8740   39.7850 C   0  0  0  0  0  0  0  0  0  0  0  0
   48.3460   34.6460   39.1790 C   0  0  0  0  0  0  0  0  0  0  0  0
   48.3290   34.3940   37.8200 C   0  0  0  0  0  0  0  0  0  0  0  0
   47.3210   33.4540   37.6630 C   0  0  0  0  0  0  0  0  0  0  0  0
   46.7800   33.1640   38.8180 O   0  0  0  0  0  0  0  0  0  0  0  0
   46.9050   32.8560   36.3900 C   0  0  1  0  0  0  0  0  0  0  0  0
   47.2620   31.3630   36.3550 C   0  0  0  0  0  0  0  0  0  0  0  0
   46.2900   30.9460   35.2430 C   0  0  0  0  0  0  0  0  0  0  0  0
   45.1270   31.6520   35.4750 O   0  0  0  0  0  0  0  0  0  0  0  0
   45.3990   32.7220   36.3100 C   0  0  0  0  0  0  0  0  0  0  0  0
   46.9980   33.7640   41.1260 O   0  0  0  0  0  0  0  0  0  0  0  0
   47.2600   34.7960   42.0310 C   0  0  0  0  0  0  0  0  0  0  0  0
   48.2040   35.5540   41.7490 O   0  0  0  0  0  0  0  0  0  0  0  0
   46.3990   34.8440   43.1730 C   0  0  0  0  0  0  0  0  0  0  0  0
   45.5140   35.8990   43.1500 C   0  0  0  0  0  0  0  0  0  0  0  0
   44.6310   36.0130   44.2470 C   0  0  0  0  0  0  0  0  0  0  0  0
   44.7020   35.1010   45.2330 N   0  0  0  0  0  0  0  0  0  0  0  0
   45.5950   34.0810   45.2010 C   0  0  0  0  0  0  0  0  0  0  0  0
   46.4400   33.9620   44.1660 N   0  0  0  0  0  0  0  0  0  0  0  0
   49.0207   35.3470   39.6923 H   0  0  0  0  0  0  0  0  0  0  0  0
   48.9679   34.8370   37.0419 H   0  0  0  0  0  0  0  0  0  0  0  0
   47.3697   33.4902   35.6207 H   0  0  0  0  0  0  0  0  0  0  0  0
   48.3126   31.1908   36.0782 H   0  0  0  0  0  0  0  0  0  0  0  0
   47.1729   30.8196   37.3073 H   0  0  0  0  0  0  0  0  0  0  0  0
   46.0968   29.8641   35.2891 H   0  0  0  0  0  0  0  0  0  0  0  0
   46.7009   31.1598   34.2453 H   0  0  0  0  0  0  0  0  0  0  0  0
   44.9601   33.6426   35.8980 H   0  0  0  0  0  0  0  0  0  0  0  0
   44.9681   32.5574   37.3086 H   0  0  0  0  0  0  0  0  0  0  0  0
   45.4955   36.6181   42.3178 H   0  0  0  0  0  0  0  0  0  0  0  0
   43.8989   36.8326   44.2938 H   0  0  0  0  0  0  0  0  0  0  0  0
   45.6265   33.3514   46.0236 H   0  0  0  0  0  0  0  0  0  0  0  0
  1 11  1  0
  2  1  2  0
  3  2  1  0
  4  3  2  0
  4  5  1  0
  5  1  1  0
  6  4  1  0
  7  6  1  0
  8  9  1  0
  8  7  1  0
  9 10  1  0
 10  6  1  0
 11 12  1  0
 12 14  1  0
 13 12  2  0
 14 19  1  0
 15 14  2  0
 15 16  1  0
 16 17  2  0
 18 17  1  0
 19 18  2  0
  2 20  1  0
  3 21  1  0
  6 22  1  6
  7 23  1  0
  7 24  1  0
  8 25  1  0
  8 26  1  0
 10 27  1  0
 10 28  1  0
 15 29  1  0
 16 30  1  0
 18 31  1  0
M  ISO  8  20  14  21  14  22  13  23  13  24  13  25  13  26  13  27  13
M  ISO  4  28  13  29  14  30  14  31  14
M  END
>  <minimizedAffinity>  (1) 
-4.71696043

>  <minimizedRMSD>  (1) 
1.06648839

$$$$
