
     RDKit          3D

 23 24  0  0  0  0  0  0  0  0999 V2000
   47.1780   33.6660   41.3650 O   0  0  0  0  0  0  0  0  0  0  0  0
   47.3500   33.7400   39.9810 C   0  0  0  0  0  0  0  0  0  0  0  0
   48.2970   34.3950   39.2350 C   0  0  0  0  0  0  0  0  0  0  0  0
   48.0330   34.1550   37.8880 C   0  0  0  0  0  0  0  0  0  0  0  0
   46.9190   33.3520   37.8870 C   0  0  0  0  0  0  0  0  0  0  0  0
   46.5460   33.1290   39.1240 O   0  0  0  0  0  0  0  0  0  0  0  0
   46.2490   32.8260   36.6620 C   0  0  0  0  0  0  0  0  0  0  0  0
   47.1080   32.6960   35.5930 F   0  0  0  0  0  0  0  0  0  0  0  0
   45.7110   31.5620   36.9060 F   0  0  0  0  0  0  0  0  0  0  0  0
   45.1630   33.6170   36.2820 F   0  0  0  0  0  0  0  0  0  0  0  0
   47.2530   34.7890   42.1820 C   0  0  0  0  0  0  0  0  0  0  0  0
   48.0840   35.6530   41.8190 O   0  0  0  0  0  0  0  0  0  0  0  0
   46.3820   34.8140   43.3170 C   0  0  0  0  0  0  0  0  0  0  0  0
   45.4580   35.8350   43.2750 C   0  0  0  0  0  0  0  0  0  0  0  0
   44.5730   35.9090   44.3690 C   0  0  0  0  0  0  0  0  0  0  0  0
   44.6700   35.0090   45.3670 N   0  0  0  0  0  0  0  0  0  0  0  0
   45.6050   34.0270   45.3440 C   0  0  0  0  0  0  0  0  0  0  0  0
   46.4620   33.9340   44.3130 N   0  0  0  0  0  0  0  0  0  0  0  0
   49.1223   35.0045   39.6318 H   0  0  0  0  0  0  0  0  0  0  0  0
   48.5933   34.5268   37.0175 H   0  0  0  0  0  0  0  0  0  0  0  0
   45.4138   36.5485   42.4389 H   0  0  0  0  0  0  0  0  0  0  0  0
   43.8069   36.6974   44.4081 H   0  0  0  0  0  0  0  0  0  0  0  0
   45.6621   33.3046   46.1715 H   0  0  0  0  0  0  0  0  0  0  0  0
  1 11  1  0
  2  1  1  0
  3  2  2  0
  4  3  1  0
  5  4  2  0
  5  6  1  0
  6  2  1  0
  7  9  1  0
  7  5  1  0
  8  7  1  0
 10  7  1  0
 11 13  1  0
 12 11  2  0
 13 18  1  0
 14 13  2  0
 14 15  1  0
 15 16  2  0
 17 16  1  0
 18 17  2  0
  3 19  1  0
  4 20  1  0
 14 21  1  0
 15 22  1  0
 17 23  1  0
M  ISO  5  19  14  20  14  21  14  22  14  23  14
M  END
>  <minimizedAffinity>  (1) 
-4.56962156

>  <minimizedRMSD>  (1) 
0.281879812

$$$$
