
     RDKit          3D

 37 40  0  0  1  0  0  0  0  0999 V2000
   47.4160   33.7820   39.6720 C   0  0  0  0  0  0  0  0  0  0  0  0
   48.3370   34.6050   39.0280 C   0  0  0  0  0  0  0  0  0  0  0  0
   48.2790   34.3560   37.6660 C   0  0  0  0  0  0  0  0  0  0  0  0
   47.3170   33.3870   37.5510 C   0  0  0  0  0  0  0  0  0  0  0  0
   46.8230   33.0620   38.7300 O   0  0  0  0  0  0  0  0  0  0  0  0
   46.8840   32.7860   36.2790 C   0  0  2  0  0  0  0  0  0  0  0  0
   46.4220   31.3830   36.2520 C   0  0  0  0  0  0  0  0  0  0  0  0
   47.8010   31.6450   35.7870 C   0  0  1  0  0  0  0  0  0  0  0  0
   46.9650   29.4120   33.7140 Cl  0  0  0  0  0  0  0  0  0  0  0  0
   47.8290   30.8660   33.2970 C   0  0  0  0  0  0  0  0  0  0  0  0
   48.1080   31.6930   34.3470 C   0  0  0  0  0  0  0  0  0  0  0  0
   48.8180   32.8660   34.0630 C   0  0  0  0  0  0  0  0  0  0  0  0
   49.2240   33.1760   32.7590 C   0  0  0  0  0  0  0  0  0  0  0  0
   48.9300   32.3270   31.7130 C   0  0  0  0  0  0  0  0  0  0  0  0
   49.4040   32.6490   30.0590 Cl  0  0  0  0  0  0  0  0  0  0  0  0
   48.2310   31.1790   32.0180 C   0  0  0  0  0  0  0  0  0  0  0  0
   47.0870   33.6490   41.0370 O   0  0  0  0  0  0  0  0  0  0  0  0
   47.3080   34.7380   41.9130 C   0  0  0  0  0  0  0  0  0  0  0  0
   48.2280   35.5280   41.6050 O   0  0  0  0  0  0  0  0  0  0  0  0
   46.4450   34.8000   43.0530 C   0  0  0  0  0  0  0  0  0  0  0  0
   45.5660   35.8470   43.0430 C   0  0  0  0  0  0  0  0  0  0  0  0
   44.6870   35.9790   44.1180 C   0  0  0  0  0  0  0  0  0  0  0  0
   44.7530   35.0650   45.1140 N   0  0  0  0  0  0  0  0  0  0  0  0
   45.6240   34.0580   45.0890 C   0  0  0  0  0  0  0  0  0  0  0  0
   46.4630   33.9390   44.0510 N   0  0  0  0  0  0  0  0  0  0  0  0
   49.0004   35.3321   39.5192 H   0  0  0  0  0  0  0  0  0  0  0  0
   48.8676   34.8263   36.8645 H   0  0  0  0  0  0  0  0  0  0  0  0
   46.4620   33.7253   35.8921 H   0  0  0  0  0  0  0  0  0  0  0  0
   46.2626   30.8470   37.1993 H   0  0  0  0  0  0  0  0  0  0  0  0
   45.5528   30.8777   35.8057 H   0  0  0  0  0  0  0  0  0  0  0  0
   48.7765   31.2052   36.0419 H   0  0  0  0  0  0  0  0  0  0  0  0
   49.0621   33.5589   34.8817 H   0  0  0  0  0  0  0  0  0  0  0  0
   49.7820   34.1044   32.5676 H   0  0  0  0  0  0  0  0  0  0  0  0
   47.9834   30.4822   31.2037 H   0  0  0  0  0  0  0  0  0  0  0  0
   45.5523   36.5655   42.2102 H   0  0  0  0  0  0  0  0  0  0  0  0
   43.9599   36.8036   44.1552 H   0  0  0  0  0  0  0  0  0  0  0  0
   45.6545   33.3302   45.9133 H   0  0  0  0  0  0  0  0  0  0  0  0
  1 17  1  0
  2  1  2  0
  3  2  1  0
  4  3  2  0
  4  5  1  0
  5  1  1  0
  6  4  1  0
  7  6  1  0
  8  7  1  0
  8  6  1  0
 10  9  1  0
 10 11  2  0
 11  8  1  0
 12 11  1  0
 13 12  2  0
 14 16  2  0
 14 13  1  0
 15 14  1  0
 16 10  1  0
 17 18  1  0
 18 20  1  0
 19 18  2  0
 20 25  1  0
 21 20  2  0
 21 22  1  0
 22 23  2  0
 24 23  1  0
 25 24  2  0
  2 26  1  0
  3 27  1  0
  6 28  1  6
  7 29  1  0
  7 30  1  0
  8 31  1  1
 12 32  1  0
 13 33  1  0
 16 34  1  0
 21 35  1  0
 22 36  1  0
 24 37  1  0
M  ISO  8  26  14  27  14  28  13  29  13  30  13  31  13  32  14  33  14
M  ISO  4  34  14  35  14  36  14  37  14
M  END
>  <minimizedAffinity>  (1) 
-6.13048697

>  <minimizedRMSD>  (1) 
1.55054009

$$$$
