
     RDKit          3D

 40 43  0  0  1  0  0  0  0  0999 V2000
   46.3820   33.3720   40.2910 C   0  0  0  0  0  0  0  0  0  0  0  0
   46.5240   32.0570   40.7060 C   0  0  0  0  0  0  0  0  0  0  0  0
   46.9340   31.2840   39.6320 C   0  0  0  0  0  0  0  0  0  0  0  0
   47.0220   32.1800   38.5960 C   0  0  0  0  0  0  0  0  0  0  0  0
   46.6970   33.3920   38.9970 O   0  0  0  0  0  0  0  0  0  0  0  0
   47.4290   31.8350   37.2270 C   0  0  2  0  0  0  0  0  0  0  0  0
   47.6280   32.9070   36.2320 C   0  0  0  0  0  0  0  0  0  0  0  0
   46.3490   32.1300   36.1630 C   0  0  1  0  0  0  0  0  0  0  0  0
   45.1200   31.5520   34.0970 C   0  0  1  0  0  0  0  0  0  0  0  0
   46.2750   31.1800   34.9860 C   0  0  2  0  0  0  0  0  0  0  0  0
   45.9100   29.8960   35.3850 O   0  0  0  0  0  0  0  0  0  0  0  0
   44.5720   29.9390   35.6950 C   0  0  0  0  0  0  0  0  0  0  0  0
   43.9340   31.0240   34.8620 C   0  0  2  0  0  0  0  0  0  0  0  0
   45.0600   32.9110   33.8310 O   0  0  0  0  0  0  0  0  0  0  0  0
   42.9660   30.5110   33.9960 O   0  0  0  0  0  0  0  0  0  0  0  0
   45.9960   34.5390   40.9800 O   0  0  0  0  0  0  0  0  0  0  0  0
   46.7530   34.9610   42.0990 C   0  0  0  0  0  0  0  0  0  0  0  0
   47.9180   35.3350   41.8690 O   0  0  0  0  0  0  0  0  0  0  0  0
   46.0780   34.9040   43.3590 C   0  0  0  0  0  0  0  0  0  0  0  0
   45.1810   35.9150   43.5730 C   0  0  0  0  0  0  0  0  0  0  0  0
   44.4840   35.9260   44.7830 C   0  0  0  0  0  0  0  0  0  0  0  0
   44.7310   34.9370   45.6790 N   0  0  0  0  0  0  0  0  0  0  0  0
   45.6160   33.9700   45.4260 C   0  0  0  0  0  0  0  0  0  0  0  0
   46.2770   33.9690   44.2680 N   0  0  0  0  0  0  0  0  0  0  0  0
   46.3404   31.6865   41.7253 H   0  0  0  0  0  0  0  0  0  0  0  0
   47.1408   30.2038   39.6137 H   0  0  0  0  0  0  0  0  0  0  0  0
   48.0500   30.9847   37.5453 H   0  0  0  0  0  0  0  0  0  0  0  0
   47.6077   33.9582   36.5553 H   0  0  0  0  0  0  0  0  0  0  0  0
   48.4217   33.1350   35.5053 H   0  0  0  0  0  0  0  0  0  0  0  0
   45.2706   32.3448   36.1933 H   0  0  0  0  0  0  0  0  0  0  0  0
   45.1897   31.1251   33.0856 H   0  0  0  0  0  0  0  0  0  0  0  0
   47.2651   31.2274   34.5090 H   0  0  0  0  0  0  0  0  0  0  0  0
   44.1047   28.9697   35.4666 H   0  0  0  0  0  0  0  0  0  0  0  0
   44.4348   30.1494   36.7659 H   0  0  0  0  0  0  0  0  0  0  0  0
   43.4018   31.7821   35.4554 H   0  0  0  0  0  0  0  0  0  0  0  0
   45.0378   33.4135   34.6837 H   0  0  0  0  0  0  0  0  0  0  0  0
   42.2258   30.1187   34.5236 H   0  0  0  0  0  0  0  0  0  0  0  0
   45.0142   36.6949   42.8154 H   0  0  0  0  0  0  0  0  0  0  0  0
   43.7525   36.7171   45.0046 H   0  0  0  0  0  0  0  0  0  0  0  0
   45.7987   33.1790   46.1682 H   0  0  0  0  0  0  0  0  0  0  0  0
  1  2  2  0
  1 16  1  0
  3  2  1  0
  4  5  1  0
  4  3  2  0
  5  1  1  0
  6  4  1  0
  7  6  1  0
  8  7  1  0
  8  6  1  0
  9 14  1  0
  9 13  1  0
  9 10  1  0
 10 11  1  0
 10  8  1  0
 11 12  1  0
 13 15  1  0
 13 12  1  0
 16 17  1  0
 17 19  1  0
 18 17  2  0
 19 20  2  0
 19 24  1  0
 20 21  1  0
 21 22  2  0
 23 22  1  0
 24 23  2  0
  2 25  1  0
  3 26  1  0
  6 27  1  1
  7 28  1  0
  7 29  1  0
  8 30  1  1
  9 31  1  6
 10 32  1  6
 12 33  1  0
 12 34  1  0
 13 35  1  1
 14 36  1  0
 15 37  1  0
 20 38  1  0
 21 39  1  0
 23 40  1  0
M  ISO  8  25  14  26  14  27  13  28  13  29  13  30  13  31  13  32  13
M  ISO  8  33  13  34  13  35  13  36   3  37   3  38  14  39  14  40  14
M  END
>  <minimizedAffinity>  (1) 
-5.92181444

>  <minimizedRMSD>  (1) 
1.46431065

$$$$
