
     RDKit          3D

 30 32  0  0  1  0  0  0  0  0999 V2000
   47.3120   33.6640   39.8080 C   0  0  0  0  0  0  0  0  0  0  0  0
   48.2480   34.2470   38.9590 C   0  0  0  0  0  0  0  0  0  0  0  0
   47.8240   34.0870   37.6530 C   0  0  0  0  0  0  0  0  0  0  0  0
   46.6390   33.4060   37.7640 C   0  0  0  0  0  0  0  0  0  0  0  0
   46.3530   33.1640   39.0280 O   0  0  0  0  0  0  0  0  0  0  0  0
   45.7920   32.9990   36.6360 C   0  0  2  0  0  0  0  0  0  0  0  0
   44.7620   31.9590   36.8280 C   0  0  0  0  0  0  0  0  0  0  0  0
   46.0400   31.5510   36.1660 C   0  0  2  0  0  0  0  0  0  0  0  0
   47.0870   30.7570   36.8760 C   0  0  0  0  0  0  0  0  0  0  0  0
   47.2640   33.5520   41.2130 O   0  0  0  0  0  0  0  0  0  0  0  0
   47.3600   34.7270   41.9980 C   0  0  0  0  0  0  0  0  0  0  0  0
   48.2020   35.5880   41.6330 O   0  0  0  0  0  0  0  0  0  0  0  0
   46.4810   34.7860   43.1120 C   0  0  0  0  0  0  0  0  0  0  0  0
   45.5920   35.8440   43.0760 C   0  0  0  0  0  0  0  0  0  0  0  0
   44.6820   35.9830   44.1350 C   0  0  0  0  0  0  0  0  0  0  0  0
   44.7290   35.0760   45.1280 N   0  0  0  0  0  0  0  0  0  0  0  0
   45.6100   34.0650   45.1210 C   0  0  0  0  0  0  0  0  0  0  0  0
   46.4760   33.9250   44.1190 N   0  0  0  0  0  0  0  0  0  0  0  0
   49.1728   34.7519   39.2751 H   0  0  0  0  0  0  0  0  0  0  0  0
   48.3234   34.4282   36.7342 H   0  0  0  0  0  0  0  0  0  0  0  0
   45.7625   34.0075   36.1977 H   0  0  0  0  0  0  0  0  0  0  0  0
   44.5370   31.5985   37.8426 H   0  0  0  0  0  0  0  0  0  0  0  0
   43.7003   31.8770   36.5524 H   0  0  0  0  0  0  0  0  0  0  0  0
   46.2810   31.0294   35.2280 H   0  0  0  0  0  0  0  0  0  0  0  0
   46.9512   30.8600   37.9627 H   0  0  0  0  0  0  0  0  0  0  0  0
   46.9977   29.6975   36.5941 H   0  0  0  0  0  0  0  0  0  0  0  0
   48.0832   31.1288   36.5941 H   0  0  0  0  0  0  0  0  0  0  0  0
   45.5978   36.5580   42.2393 H   0  0  0  0  0  0  0  0  0  0  0  0
   43.9535   36.8070   44.1529 H   0  0  0  0  0  0  0  0  0  0  0  0
   45.6174   33.3438   45.9516 H   0  0  0  0  0  0  0  0  0  0  0  0
  1 10  1  0
  2  1  2  0
  3  4  2  0
  3  2  1  0
  4  5  1  0
  5  1  1  0
  6  7  1  0
  6  4  1  0
  8  6  1  0
  8  7  1  0
  8  9  1  0
 10 11  1  0
 11 13  1  0
 12 11  2  0
 13 18  1  0
 14 13  2  0
 14 15  1  0
 15 16  2  0
 17 16  1  0
 18 17  2  0
  2 19  1  0
  3 20  1  0
  6 21  1  6
  7 22  1  0
  7 23  1  0
  8 24  1  6
  9 25  1  0
  9 26  1  0
  9 27  1  0
 14 28  1  0
 15 29  1  0
 17 30  1  0
M  ISO  8  19  14  20  14  21  13  22  13  23  13  24  13  25   8  26   8
M  ISO  4  27   8  28  14  29  14  30  14
M  END
>  <minimizedAffinity>  (1) 
-4.39612246

>  <minimizedRMSD>  (1) 
0.0669401661

$$$$
