
     RDKit          3D

 41 44  0  0  1  0  0  0  0  0999 V2000
   47.2970   34.7090   42.0840 C   0  0  0  0  0  0  0  0  0  0  0  0
   48.0930   35.5930   41.7160 O   0  0  0  0  0  0  0  0  0  0  0  0
   46.4540   34.7120   43.2360 C   0  0  0  0  0  0  0  0  0  0  0  0
   45.4930   35.6800   43.2720 C   0  0  0  0  0  0  0  0  0  0  0  0
   44.6370   35.7390   44.3680 C   0  0  0  0  0  0  0  0  0  0  0  0
   44.8000   34.8380   45.3390 N   0  0  0  0  0  0  0  0  0  0  0  0
   45.7420   33.8960   45.2970 C   0  0  0  0  0  0  0  0  0  0  0  0
   46.5520   33.8650   44.2270 N   0  0  0  0  0  0  0  0  0  0  0  0
   47.5000   31.6430   44.5430 Cl  0  0  0  0  0  0  0  0  0  0  0  0
   46.7200   31.8090   46.1180 C   0  0  0  0  0  0  0  0  0  0  0  0
   45.9080   32.9100   46.3770 C   0  0  0  0  0  0  0  0  0  0  0  0
   45.2640   33.1100   47.5800 C   0  0  0  0  0  0  0  0  0  0  0  0
   45.4420   32.1550   48.5870 C   0  0  0  0  0  0  0  0  0  0  0  0
   46.2390   31.0580   48.3590 C   0  0  0  0  0  0  0  0  0  0  0  0
   46.8730   30.8800   47.1420 C   0  0  0  0  0  0  0  0  0  0  0  0
   47.9140   29.5130   46.7450 Cl  0  0  0  0  0  0  0  0  0  0  0  0
   47.2130   33.5530   41.2590 O   0  0  0  0  0  0  0  0  0  0  0  0
   47.3640   33.7100   39.8580 C   0  0  0  0  0  0  0  0  0  0  0  0
   48.3420   34.3740   39.1030 C   0  0  0  0  0  0  0  0  0  0  0  0
   48.0350   34.2330   37.7580 C   0  0  0  0  0  0  0  0  0  0  0  0
   46.8950   33.4950   37.7650 C   0  0  0  0  0  0  0  0  0  0  0  0
   46.5030   33.1890   38.9910 O   0  0  0  0  0  0  0  0  0  0  0  0
   46.1670   33.0790   36.5440 C   0  0  2  0  0  0  0  0  0  0  0  0
   45.7910   31.6830   36.3340 C   0  0  0  0  0  0  0  0  0  0  0  0
   47.0040   32.1550   35.6170 C   0  0  1  0  0  0  0  0  0  0  0  0
   47.9540   32.5370   33.3500 C   0  0  0  0  0  0  0  0  0  0  0  0
   49.1380   32.3640   33.7600 O   0  0  0  0  0  0  0  0  0  0  0  0
   46.8210   32.4690   34.2020 N   0  0  0  0  0  0  0  0  0  0  0  0
   45.3963   36.4022   42.4480 H   0  0  0  0  0  0  0  0  0  0  0  0
   43.8501   36.5050   44.4319 H   0  0  0  0  0  0  0  0  0  0  0  0
   44.6295   33.9937   47.7430 H   0  0  0  0  0  0  0  0  0  0  0  0
   44.9449   32.2817   49.5600 H   0  0  0  0  0  0  0  0  0  0  0  0
   46.3745   30.3113   49.1553 H   0  0  0  0  0  0  0  0  0  0  0  0
   49.2082   34.9163   39.5100 H   0  0  0  0  0  0  0  0  0  0  0  0
   48.5850   34.6261   36.8903 H   0  0  0  0  0  0  0  0  0  0  0  0
   45.5959   34.0171   36.4820 H   0  0  0  0  0  0  0  0  0  0  0  0
   45.8978   30.9651   37.1606 H   0  0  0  0  0  0  0  0  0  0  0  0
   44.8631   31.1911   36.0069 H   0  0  0  0  0  0  0  0  0  0  0  0
   48.0452   31.8089   35.5392 H   0  0  0  0  0  0  0  0  0  0  0  0
   47.7950   32.7502   32.2826 H   0  0  0  0  0  0  0  0  0  0  0  0
   45.8775   32.6396   33.8258 H   0  0  0  0  0  0  0  0  0  0  0  0
  1  3  1  0
  2  1  2  0
  3  4  2  0
  3  8  1  0
  4  5  1  0
  5  6  2  0
  7  6  1  0
  7 11  1  0
  8  7  2  0
  9 10  1  0
 10 11  2  0
 10 15  1  0
 11 12  1  0
 12 13  2  0
 14 13  1  0
 15 14  2  0
 16 15  1  0
 17  1  1  0
 18 17  1  0
 19 18  2  0
 20 21  2  0
 20 19  1  0
 21 22  1  0
 22 18  1  0
 23 21  1  0
 24 23  1  0
 25 24  1  0
 25 23  1  0
 26 27  2  0
 26 28  1  0
 28 25  1  0
  4 29  1  0
  5 30  1  0
 12 31  1  0
 13 32  1  0
 14 33  1  0
 19 34  1  0
 20 35  1  0
 23 36  1  6
 24 37  1  0
 24 38  1  0
 25 39  1  1
 26 40  1  0
 28 41  1  0
M  ISO  8  29  14  30  14  31  14  32  14  33  14  34  14  35  14  36  13
M  ISO  4  37  13  38  13  39  13  40   6
M  END
>  <minimizedAffinity>  (1) 
-6.42966938

>  <minimizedRMSD>  (1) 
0.657984912

$$$$
