
     RDKit          3D

 40 43  0  0  1  0  0  0  0  0999 V2000
   47.2540   33.6790   39.8530 C   0  0  0  0  0  0  0  0  0  0  0  0
   48.2490   34.3250   39.1220 C   0  0  0  0  0  0  0  0  0  0  0  0
   47.9840   34.1840   37.7770 C   0  0  0  0  0  0  0  0  0  0  0  0
   46.8380   33.4580   37.7500 C   0  0  0  0  0  0  0  0  0  0  0  0
   46.4240   33.1710   38.9670 O   0  0  0  0  0  0  0  0  0  0  0  0
   46.1350   33.0370   36.5130 C   0  0  2  0  0  0  0  0  0  0  0  0
   45.7950   31.6300   36.3010 C   0  0  0  0  0  0  0  0  0  0  0  0
   47.0000   32.1370   35.5940 C   0  0  1  0  0  0  0  0  0  0  0  0
   47.9930   32.6260   33.3760 C   0  0  0  0  0  0  0  0  0  0  0  0
   49.1740   32.6040   33.8290 O   0  0  0  0  0  0  0  0  0  0  0  0
   46.8370   32.4550   34.1810 N   0  0  0  0  0  0  0  0  0  0  0  0
   47.0470   33.5210   41.2460 O   0  0  0  0  0  0  0  0  0  0  0  0
   47.2220   34.6540   42.0910 C   0  0  0  0  0  0  0  0  0  0  0  0
   48.0270   35.5180   41.7000 O   0  0  0  0  0  0  0  0  0  0  0  0
   46.4450   34.6490   43.2860 C   0  0  0  0  0  0  0  0  0  0  0  0
   45.4470   35.5760   43.3350 C   0  0  0  0  0  0  0  0  0  0  0  0
   44.6360   35.6330   44.4790 C   0  0  0  0  0  0  0  0  0  0  0  0
   44.8770   34.7700   45.4760 N   0  0  0  0  0  0  0  0  0  0  0  0
   45.8780   33.8620   45.3920 C   0  0  0  0  0  0  0  0  0  0  0  0
   46.6340   33.8210   44.3060 N   0  0  0  0  0  0  0  0  0  0  0  0
   46.1120   32.9310   46.5050 C   0  0  0  0  0  0  0  0  0  0  0  0
   45.2380   32.9140   47.5730 C   0  0  0  0  0  0  0  0  0  0  0  0
   45.3840   32.0740   48.6550 C   0  0  0  0  0  0  0  0  0  0  0  0
   46.4840   31.2520   48.5730 C   0  0  0  0  0  0  0  0  0  0  0  0
   47.3880   31.2310   47.5280 C   0  0  0  0  0  0  0  0  0  0  0  0
   47.1750   32.0940   46.4900 N   0  0  0  0  0  0  0  0  0  0  0  0
   49.1085   34.8617   39.5501 H   0  0  0  0  0  0  0  0  0  0  0  0
   48.5647   34.5692   36.9259 H   0  0  0  0  0  0  0  0  0  0  0  0
   45.5465   33.9636   36.4424 H   0  0  0  0  0  0  0  0  0  0  0  0
   45.9148   30.9147   37.1280 H   0  0  0  0  0  0  0  0  0  0  0  0
   44.8829   31.1133   35.9677 H   0  0  0  0  0  0  0  0  0  0  0  0
   48.0488   31.8128   35.5238 H   0  0  0  0  0  0  0  0  0  0  0  0
   47.8543   32.7868   32.2967 H   0  0  0  0  0  0  0  0  0  0  0  0
   45.8966   32.5541   33.7728 H   0  0  0  0  0  0  0  0  0  0  0  0
   45.2805   36.2658   42.4945 H   0  0  0  0  0  0  0  0  0  0  0  0
   43.8217   36.3686   44.5557 H   0  0  0  0  0  0  0  0  0  0  0  0
   44.3825   33.6054   47.5596 H   0  0  0  0  0  0  0  0  0  0  0  0
   44.6861   32.0617   49.5052 H   0  0  0  0  0  0  0  0  0  0  0  0
   46.6580   30.5554   49.4063 H   0  0  0  0  0  0  0  0  0  0  0  0
   48.2476   30.5447   47.5316 H   0  0  0  0  0  0  0  0  0  0  0  0
  1 12  1  0
  2  1  2  0
  3  2  1  0
  4  3  2  0
  4  5  1  0
  5  1  1  0
  6  4  1  0
  7  6  1  0
  8  7  1  0
  8  6  1  0
  9 10  2  0
  9 11  1  0
 11  8  1  0
 12 13  1  0
 13 15  1  0
 14 13  2  0
 15 16  2  0
 15 20  1  0
 16 17  1  0
 17 18  2  0
 19 18  1  0
 19 21  1  0
 20 19  2  0
 21 22  2  0
 22 23  1  0
 24 23  2  0
 25 24  1  0
 26 21  1  0
 26 25  2  0
  2 27  1  0
  3 28  1  0
  6 29  1  6
  7 30  1  0
  7 31  1  0
  8 32  1  1
  9 33  1  0
 11 34  1  0
 16 35  1  0
 17 36  1  0
 22 37  1  0
 23 38  1  0
 24 39  1  0
 25 40  1  0
M  ISO  8  27  14  28  14  29  13  30  13  31  13  32  13  33   6  35  14
M  ISO  5  36  14  37  14  38  14  39  14  40  14
M  END
>  <minimizedAffinity>  (1) 
-6.26415682

>  <minimizedRMSD>  (1) 
0.482717633

$$$$
