
     RDKit          3D

 37 40  0  0  1  0  0  0  0  0999 V2000
   47.2870   33.6370   39.5800 C   0  0  0  0  0  0  0  0  0  0  0  0
   48.2450   34.3320   38.8310 C   0  0  0  0  0  0  0  0  0  0  0  0
   47.9580   34.1740   37.4870 C   0  0  0  0  0  0  0  0  0  0  0  0
   46.8470   33.3950   37.4760 C   0  0  0  0  0  0  0  0  0  0  0  0
   46.4620   33.0860   38.7040 O   0  0  0  0  0  0  0  0  0  0  0  0
   46.1510   32.9500   36.2510 C   0  0  2  0  0  0  0  0  0  0  0  0
   45.8620   31.5350   36.0260 C   0  0  0  0  0  0  0  0  0  0  0  0
   47.0440   32.0890   35.3160 C   0  0  1  0  0  0  0  0  0  0  0  0
   47.9710   32.6020   33.0680 C   0  0  0  0  0  0  0  0  0  0  0  0
   49.1630   32.5950   33.4920 O   0  0  0  0  0  0  0  0  0  0  0  0
   46.8440   32.4100   33.9050 N   0  0  0  0  0  0  0  0  0  0  0  0
   47.1180   33.4750   40.9780 O   0  0  0  0  0  0  0  0  0  0  0  0
   47.3520   34.5940   41.8150 C   0  0  0  0  0  0  0  0  0  0  0  0
   48.3340   35.3360   41.5180 O   0  0  0  0  0  0  0  0  0  0  0  0
   46.4550   34.7650   42.9030 C   0  0  0  0  0  0  0  0  0  0  0  0
   45.4610   35.6720   42.7190 C   0  0  0  0  0  0  0  0  0  0  0  0
   44.5460   35.8900   43.7450 C   0  0  0  0  0  0  0  0  0  0  0  0
   44.6820   35.1920   44.8790 N   0  0  0  0  0  0  0  0  0  0  0  0
   45.6690   34.3010   45.0420 C   0  0  0  0  0  0  0  0  0  0  0  0
   46.5200   34.1230   44.0400 N   0  0  0  0  0  0  0  0  0  0  0  0
   45.7530   33.5810   46.3000 C   0  0  0  0  0  0  0  0  0  0  0  0
   46.7470   32.7260   46.5580 N   0  0  0  0  0  0  0  0  0  0  0  0
   46.5180   32.2450   47.7930 C   0  0  0  0  0  0  0  0  0  0  0  0
   45.3840   32.8180   48.2650 N   0  0  0  0  0  0  0  0  0  0  0  0
   44.8870   33.6580   47.3480 N   0  0  0  0  0  0  0  0  0  0  0  0
   49.0864   34.9082   39.2433 H   0  0  0  0  0  0  0  0  0  0  0  0
   48.5046   34.5852   36.6255 H   0  0  0  0  0  0  0  0  0  0  0  0
   45.5242   33.8524   36.1969 H   0  0  0  0  0  0  0  0  0  0  0  0
   46.0123   30.8165   36.8452 H   0  0  0  0  0  0  0  0  0  0  0  0
   44.9666   30.9900   35.6924 H   0  0  0  0  0  0  0  0  0  0  0  0
   48.1042   31.8068   35.2359 H   0  0  0  0  0  0  0  0  0  0  0  0
   47.8007   32.7657   31.9937 H   0  0  0  0  0  0  0  0  0  0  0  0
   45.8918   32.4960   33.5218 H   0  0  0  0  0  0  0  0  0  0  0  0
   45.3802   36.2265   41.7724 H   0  0  0  0  0  0  0  0  0  0  0  0
   43.7305   36.6186   43.6267 H   0  0  0  0  0  0  0  0  0  0  0  0
   47.1425   31.5137   48.3271 H   0  0  0  0  0  0  0  0  0  0  0  0
   44.9675   32.6351   49.1891 H   0  0  0  0  0  0  0  0  0  0  0  0
  1 12  1  0
  2  1  2  0
  3  2  1  0
  4  3  2  0
  4  5  1  0
  5  1  1  0
  6  4  1  0
  7  6  1  0
  8  7  1  0
  8  6  1  0
  9 10  2  0
  9 11  1  0
 11  8  1  0
 12 13  1  0
 13 15  1  0
 14 13  2  0
 15 20  1  0
 16 15  2  0
 16 17  1  0
 17 18  2  0
 18 19  1  0
 19 21  1  0
 20 19  2  0
 21 22  1  0
 21 25  2  0
 22 23  2  0
 23 24  1  0
 25 24  1  0
  2 26  1  0
  3 27  1  0
  6 28  1  6
  7 29  1  0
  7 30  1  0
  8 31  1  1
  9 32  1  0
 11 33  1  0
 16 34  1  0
 17 35  1  0
 23 36  1  0
 24 37  1  0
M  ISO  8  26  14  27  14  28  13  29  13  30  13  31  13  32   6  34  14
M  ISO  3  35  14  36  14  37   9
M  END
>  <minimizedAffinity>  (1) 
-6.04828405

>  <minimizedRMSD>  (1) 
0.503492355

$$$$
