
     RDKit          3D

 32 34  0  0  1  0  0  0  0  0999 V2000
   47.4690   33.7240   39.5630 C   0  0  0  0  0  0  0  0  0  0  0  0
   48.3800   34.4430   38.7730 C   0  0  0  0  0  0  0  0  0  0  0  0
   48.0360   34.2820   37.4500 C   0  0  0  0  0  0  0  0  0  0  0  0
   46.9410   33.4790   37.4860 C   0  0  0  0  0  0  0  0  0  0  0  0
   46.6150   33.1570   38.7210 O   0  0  0  0  0  0  0  0  0  0  0  0
   46.2100   33.0300   36.2790 C   0  0  2  0  0  0  0  0  0  0  0  0
   45.8890   31.6150   36.1010 C   0  0  0  0  0  0  0  0  0  0  0  0
   47.0600   32.1270   35.3440 C   0  0  1  0  0  0  0  0  0  0  0  0
   47.9550   32.6020   33.0790 C   0  0  0  0  0  0  0  0  0  0  0  0
   49.1530   32.5840   33.4850 O   0  0  0  0  0  0  0  0  0  0  0  0
   46.8370   32.4140   33.9300 N   0  0  0  0  0  0  0  0  0  0  0  0
   47.3550   33.5470   40.9660 O   0  0  0  0  0  0  0  0  0  0  0  0
   47.4540   34.6890   41.7950 C   0  0  0  0  0  0  0  0  0  0  0  0
   48.3070   35.5600   41.4560 O   0  0  0  0  0  0  0  0  0  0  0  0
   46.5860   34.7360   42.9170 C   0  0  0  0  0  0  0  0  0  0  0  0
   45.6080   35.6780   42.8820 C   0  0  0  0  0  0  0  0  0  0  0  0
   44.7230   35.7780   43.9510 C   0  0  0  0  0  0  0  0  0  0  0  0
   44.8760   34.9330   44.9750 N   0  0  0  0  0  0  0  0  0  0  0  0
   45.8450   34.0110   44.9930 C   0  0  0  0  0  0  0  0  0  0  0  0
   46.6740   33.9440   43.9530 N   0  0  0  0  0  0  0  0  0  0  0  0
   46.0900   32.8550   46.3450 S   0  0  0  0  0  0  0  0  0  0  0  0
   49.2270   35.0359   39.1485 H   0  0  0  0  0  0  0  0  0  0  0  0
   48.5339   34.7065   36.5658 H   0  0  0  0  0  0  0  0  0  0  0  0
   45.6058   33.9467   36.2118 H   0  0  0  0  0  0  0  0  0  0  0  0
   46.0492   30.9161   36.9352 H   0  0  0  0  0  0  0  0  0  0  0  0
   44.9748   31.0783   35.8074 H   0  0  0  0  0  0  0  0  0  0  0  0
   48.1117   31.8208   35.2429 H   0  0  0  0  0  0  0  0  0  0  0  0
   47.7710   32.7727   32.0080 H   0  0  0  0  0  0  0  0  0  0  0  0
   45.8797   32.4790   33.5556 H   0  0  0  0  0  0  0  0  0  0  0  0
   45.5167   36.3537   42.0188 H   0  0  0  0  0  0  0  0  0  0  0  0
   43.9208   36.5306   43.9532 H   0  0  0  0  0  0  0  0  0  0  0  0
   45.9507   33.5124   47.5389 H   0  0  0  0  0  0  0  0  0  0  0  0
  1 12  1  0
  2  1  2  0
  3  4  2  0
  3  2  1  0
  4  5  1  0
  5  1  1  0
  6  4  1  0
  7  6  1  0
  8  7  1  0
  8  6  1  0
  9 10  2  0
  9 11  1  0
 11  8  1  0
 12 13  1  0
 13 15  1  0
 14 13  2  0
 15 20  1  0
 16 15  2  0
 16 17  1  0
 17 18  2  0
 18 19  1  0
 19 21  1  0
 20 19  2  0
  2 22  1  0
  3 23  1  0
  6 24  1  6
  7 25  1  0
  7 26  1  0
  8 27  1  1
  9 28  1  0
 11 29  1  0
 16 30  1  0
 17 31  1  0
 21 32  1  0
M  ISO  8  22  14  23  14  24  13  25  13  26  13  27  13  28   6  30  14
M  ISO  2  31  14  32  11
M  END
>  <minimizedAffinity>  (1) 
-5.21370792

>  <minimizedRMSD>  (1) 
0.240416855

$$$$
