
     RDKit          3D

 24 25  0  0  1  0  0  0  0  0999 V2000
   44.8070   34.9690   44.7680 C   0  0  0  0  0  0  0  0  0  0  0  0
   45.6990   34.6250   43.7170 C   0  0  0  0  0  0  0  0  0  0  0  0
   46.7050   33.6870   44.0130 C   0  0  0  0  0  0  0  0  0  0  0  0
   46.7640   33.1760   45.2680 N   0  0  0  0  0  0  0  0  0  0  0  0
   45.8930   33.5360   46.2280 C   0  0  0  0  0  0  0  0  0  0  0  0
   44.9230   34.4270   45.9780 N   0  0  0  0  0  0  0  0  0  0  0  0
   45.0860   31.7550   47.7460 C   0  0  2  0  0  0  0  0  0  0  0  0
   46.0870   32.8950   47.5340 C   0  0  1  0  0  0  0  0  0  0  0  0
   47.3100   32.2580   47.6770 O   0  0  0  0  0  0  0  0  0  0  0  0
   47.1740   31.2790   48.6370 C   0  0  0  0  0  0  0  0  0  0  0  0
   45.7110   31.1380   48.9830 C   0  0  1  0  0  0  0  0  0  0  0  0
   45.2840   30.9030   46.6670 O   0  0  0  0  0  0  0  0  0  0  0  0
   45.3350   31.8650   50.1020 O   0  0  0  0  0  0  0  0  0  0  0  0
   43.8320   35.8830   44.4630 O   0  0  0  0  0  0  0  0  0  0  0  0
   45.6072   35.0722   42.7162 H   0  0  0  0  0  0  0  0  0  0  0  0
   47.4272   33.3752   43.2441 H   0  0  0  0  0  0  0  0  0  0  0  0
   44.0171   31.9991   47.8343 H   0  0  0  0  0  0  0  0  0  0  0  0
   45.9817   33.7312   48.2408 H   0  0  0  0  0  0  0  0  0  0  0  0
   47.5557   30.3236   48.2477 H   0  0  0  0  0  0  0  0  0  0  0  0
   47.7461   31.5539   49.5354 H   0  0  0  0  0  0  0  0  0  0  0  0
   45.4226   30.1039   49.2226 H   0  0  0  0  0  0  0  0  0  0  0  0
   45.4952   29.9943   46.9984 H   0  0  0  0  0  0  0  0  0  0  0  0
   45.5916   31.3689   50.9194 H   0  0  0  0  0  0  0  0  0  0  0  0
   43.7784   36.2638   43.5507 H   0  0  0  0  0  0  0  0  0  0  0  0
  1  6  2  0
  2  3  2  0
  2  1  1  0
  3  4  1  0
  4  5  2  0
  6  5  1  0
  7 12  1  0
  7 11  1  0
  8  5  1  0
  8  9  1  0
  8  7  1  0
  9 10  1  0
 10 11  1  0
 11 13  1  0
 14  1  1  0
  2 15  1  0
  3 16  1  0
  7 17  1  1
  8 18  1  1
 10 19  1  0
 10 20  1  0
 11 21  1  1
 12 22  1  0
 13 23  1  0
 14 24  1  0
M  ISO  8  15  14  16  14  17  13  18  13  19  13  20  13  21  13  22   3
M  ISO  2  23   3  24   3
M  END
>  <minimizedAffinity>  (1) 
-5.32158899

>  <minimizedRMSD>  (1) 
1.35921597

$$$$
