
     RDKit          3D

 21 22  0  0  0  0  0  0  0  0999 V2000
   44.8320   35.1120   44.5810 C   0  0  0  0  0  0  0  0  0  0  0  0
   45.7400   34.9860   43.5080 C   0  0  0  0  0  0  0  0  0  0  0  0
   46.7840   34.0620   43.6640 C   0  0  0  0  0  0  0  0  0  0  0  0
   46.8620   33.3570   44.8130 N   0  0  0  0  0  0  0  0  0  0  0  0
   45.9720   33.5110   45.8110 C   0  0  0  0  0  0  0  0  0  0  0  0
   44.9690   34.3820   45.6880 N   0  0  0  0  0  0  0  0  0  0  0  0
   46.1680   32.6890   47.0000 C   0  0  0  0  0  0  0  0  0  0  0  0
   45.2080   32.4980   47.9670 C   0  0  0  0  0  0  0  0  0  0  0  0
   45.4400   31.7050   49.0830 C   0  0  0  0  0  0  0  0  0  0  0  0
   46.6810   31.0800   49.2350 C   0  0  0  0  0  0  0  0  0  0  0  0
   47.6690   31.2540   48.2770 C   0  0  0  0  0  0  0  0  0  0  0  0
   47.3700   32.0560   47.1910 C   0  0  0  0  0  0  0  0  0  0  0  0
   43.8210   36.0180   44.4080 O   0  0  0  0  0  0  0  0  0  0  0  0
   45.6340   35.5848   42.5914 H   0  0  0  0  0  0  0  0  0  0  0  0
   47.5255   33.9145   42.8650 H   0  0  0  0  0  0  0  0  0  0  0  0
   44.2294   32.9872   47.8528 H   0  0  0  0  0  0  0  0  0  0  0  0
   44.6541   31.5698   49.8407 H   0  0  0  0  0  0  0  0  0  0  0  0
   46.8744   30.4494   50.1153 H   0  0  0  0  0  0  0  0  0  0  0  0
   48.6528   30.7723   48.3774 H   0  0  0  0  0  0  0  0  0  0  0  0
   48.1496   32.1961   46.4277 H   0  0  0  0  0  0  0  0  0  0  0  0
   43.7604   36.5376   43.5675 H   0  0  0  0  0  0  0  0  0  0  0  0
  1  6  2  0
  2  3  2  0
  2  1  1  0
  3  4  1  0
  4  5  2  0
  5  7  1  0
  6  5  1  0
  7 12  1  0
  7  8  2  0
  8  9  1  0
  9 10  2  0
 11 10  1  0
 12 11  2  0
 13  1  1  0
  2 14  1  0
  3 15  1  0
  8 16  1  0
  9 17  1  0
 10 18  1  0
 11 19  1  0
 12 20  1  0
 13 21  1  0
M  ISO  8  14  14  15  14  16  14  17  14  18  14  19  14  20  14  21   3
M  END
>  <minimizedAffinity>  (1) 
-5.2148118

>  <minimizedRMSD>  (1) 
1.33279943

$$$$
