
     RDKit          3D

 15 15  0  0  0  0  0  0  0  0999 V2000
   44.9320   35.5560   44.3080 C   0  0  0  0  0  0  0  0  0  0  0  0
   45.8930   34.8300   43.5730 C   0  0  0  0  0  0  0  0  0  0  0  0
   46.4880   33.7220   44.2180 C   0  0  0  0  0  0  0  0  0  0  0  0
   46.1080   33.4190   45.4930 N   0  0  0  0  0  0  0  0  0  0  0  0
   45.1870   34.1530   46.1320 C   0  0  0  0  0  0  0  0  0  0  0  0
   44.6040   35.2050   45.5570 N   0  0  0  0  0  0  0  0  0  0  0  0
   45.2330   32.4880   47.9540 C   0  0  0  0  0  0  0  0  0  0  0  0
   45.8710   31.6630   47.2160 O   0  0  0  0  0  0  0  0  0  0  0  0
   44.8690   33.7460   47.4520 N   0  0  0  0  0  0  0  0  0  0  0  0
   44.3610   36.6220   43.6820 O   0  0  0  0  0  0  0  0  0  0  0  0
   46.1664   35.1131   42.5458 H   0  0  0  0  0  0  0  0  0  0  0  0
   47.2448   33.1140   43.7007 H   0  0  0  0  0  0  0  0  0  0  0  0
   44.9686   32.2111   48.9852 H   0  0  0  0  0  0  0  0  0  0  0  0
   44.3535   34.3957   48.0628 H   0  0  0  0  0  0  0  0  0  0  0  0
   44.6272   36.8537   42.7570 H   0  0  0  0  0  0  0  0  0  0  0  0
  1  6  2  0
  2  3  2  0
  2  1  1  0
  3  4  1  0
  4  5  2  0
  5  9  1  0
  6  5  1  0
  8  7  2  0
  9  7  1  0
 10  1  1  0
  2 11  1  0
  3 12  1  0
  7 13  1  0
  9 14  1  0
 10 15  1  0
M  ISO  4  11  14  12  14  13   6  15   3
M  END
>  <minimizedAffinity>  (1) 
-4.52547026

>  <minimizedRMSD>  (1) 
0.523460686

$$$$
