
     RDKit          3D

 17 17  0  0  0  0  0  0  0  0999 V2000
   44.8300   35.0990   44.4590 C   0  0  0  0  0  0  0  0  0  0  0  0
   45.6830   35.0510   43.3420 C   0  0  0  0  0  0  0  0  0  0  0  0
   46.8040   34.2030   43.4200 C   0  0  0  0  0  0  0  0  0  0  0  0
   46.9980   33.4870   44.5520 N   0  0  0  0  0  0  0  0  0  0  0  0
   46.1540   33.5660   45.5960 C   0  0  0  0  0  0  0  0  0  0  0  0
   45.0760   34.3660   45.5500 N   0  0  0  0  0  0  0  0  0  0  0  0
   43.7360   35.9150   44.4040 O   0  0  0  0  0  0  0  0  0  0  0  0
   46.5240   32.7100   46.7560 C   0  0  0  0  0  0  0  0  0  0  0  0
   45.4000   32.6000   47.7560 C   0  0  0  0  0  0  0  0  0  0  0  0
   45.4823   35.6522   42.4430 H   0  0  0  0  0  0  0  0  0  0  0  0
   47.5077   34.1240   42.5783 H   0  0  0  0  0  0  0  0  0  0  0  0
   43.5611   36.4544   43.5925 H   0  0  0  0  0  0  0  0  0  0  0  0
   46.7736   31.7033   46.3896 H   0  0  0  0  0  0  0  0  0  0  0  0
   47.3846   33.1735   47.2605 H   0  0  0  0  0  0  0  0  0  0  0  0
   45.8110   32.6402   48.7755 H   0  0  0  0  0  0  0  0  0  0  0  0
   44.6972   33.4337   47.6108 H   0  0  0  0  0  0  0  0  0  0  0  0
   44.8721   31.6459   47.6108 H   0  0  0  0  0  0  0  0  0  0  0  0
  1  6  2  0
  2  3  2  0
  2  1  1  0
  3  4  1  0
  4  5  2  0
  5  8  1  0
  6  5  1  0
  7  1  1  0
  8  9  1  0
  2 10  1  0
  3 11  1  0
  7 12  1  0
  8 13  1  0
  8 14  1  0
  9 15  1  0
  9 16  1  0
  9 17  1  0
M  ISO  8  10  14  11  14  12   3  13   8  14   8  15   8  16   8  17   8
M  END
>  <minimizedAffinity>  (1) 
-3.78213644

>  <minimizedRMSD>  (1) 
0.937088072

$$$$
