
     RDKit          3D

 12 12  0  0  0  0  0  0  0  0999 V2000
   45.0070   35.3650   44.2030 C   0  0  0  0  0  0  0  0  0  0  0  0
   45.9690   35.1060   43.1910 C   0  0  0  0  0  0  0  0  0  0  0  0
   46.8860   34.0620   43.4550 C   0  0  0  0  0  0  0  0  0  0  0  0
   46.8050   33.3750   44.6290 N   0  0  0  0  0  0  0  0  0  0  0  0
   45.8690   33.6740   45.5420 C   0  0  0  0  0  0  0  0  0  0  0  0
   44.9710   34.6570   45.3460 N   0  0  0  0  0  0  0  0  0  0  0  0
   44.1160   36.3700   43.9630 O   0  0  0  0  0  0  0  0  0  0  0  0
   45.9160   32.6680   47.0180 S   0  0  0  0  0  0  0  0  0  0  0  0
   45.9993   35.6841   42.2556 H   0  0  0  0  0  0  0  0  0  0  0  0
   47.6602   33.8061   42.7167 H   0  0  0  0  0  0  0  0  0  0  0  0
   44.1602   36.8787   43.1148 H   0  0  0  0  0  0  0  0  0  0  0  0
   45.8782   33.4767   48.1232 H   0  0  0  0  0  0  0  0  0  0  0  0
  1  6  2  0
  2  3  2  0
  2  1  1  0
  3  4  1  0
  4  5  2  0
  5  8  1  0
  6  5  1  0
  7  1  1  0
  2  9  1  0
  3 10  1  0
  7 11  1  0
  8 12  1  0
M  ISO  4   9  14  10  14  11   3  12  11
M  END
>  <minimizedAffinity>  (1) 
-3.27018285

>  <minimizedRMSD>  (1) 
0.514112175

$$$$
