
     RDKit          3D

 36 39  0  0  0  0  0  0  0  0999 V2000
   45.6850   31.6940   47.1760 C   0  0  0  0  0  0  0  0  0  0  0  0
   45.6770   32.1700   48.4810 C   0  0  0  0  0  0  0  0  0  0  0  0
   45.4160   31.3740   49.5710 C   0  0  0  0  0  0  0  0  0  0  0  0
   45.1490   30.0340   49.3260 C   0  0  0  0  0  0  0  0  0  0  0  0
   45.1550   29.5510   48.0260 C   0  0  0  0  0  0  0  0  0  0  0  0
   45.4170   30.3770   47.0100 N   0  0  0  0  0  0  0  0  0  0  0  0
   44.8360   36.4740   43.5830 C   0  0  0  0  0  0  0  0  0  0  0  0
   45.7940   36.1730   42.6170 C   0  0  0  0  0  0  0  0  0  0  0  0
   46.5010   34.9630   42.7520 C   0  0  0  0  0  0  0  0  0  0  0  0
   46.2160   34.1500   43.8140 N   0  0  0  0  0  0  0  0  0  0  0  0
   45.2770   34.4950   44.7180 C   0  0  0  0  0  0  0  0  0  0  0  0
   44.5660   35.6620   44.6250 N   0  0  0  0  0  0  0  0  0  0  0  0
   45.9710   32.5870   46.0540 C   0  0  0  0  0  0  0  0  0  0  0  0
   47.0190   32.4140   45.3770 O   0  0  0  0  0  0  0  0  0  0  0  0
   45.0200   33.6140   45.8020 N   0  0  0  0  0  0  0  0  0  0  0  0
   44.6020   27.2900   48.7450 C   0  0  0  0  0  0  0  0  0  0  0  0
   44.8820   28.1550   47.7080 C   0  0  0  0  0  0  0  0  0  0  0  0
   44.8800   27.6200   46.4390 C   0  0  0  0  0  0  0  0  0  0  0  0
   44.6170   26.2930   46.1790 C   0  0  0  0  0  0  0  0  0  0  0  0
   44.5730   25.6060   45.0190 N   0  0  0  0  0  0  0  0  0  0  0  0
   44.2680   24.3350   45.3600 C   0  0  0  0  0  0  0  0  0  0  0  0
   44.1270   24.2390   46.6970 N   0  0  0  0  0  0  0  0  0  0  0  0
   44.3400   25.4540   47.2490 C   0  0  0  0  0  0  0  0  0  0  0  0
   44.3270   25.9340   48.5450 C   0  0  0  0  0  0  0  0  0  0  0  0
   45.8899   33.2358   48.6505 H   0  0  0  0  0  0  0  0  0  0  0  0
   45.4186   31.7812   50.5929 H   0  0  0  0  0  0  0  0  0  0  0  0
   44.9325   29.3547   50.1637 H   0  0  0  0  0  0  0  0  0  0  0  0
   44.2751   37.4158   43.4915 H   0  0  0  0  0  0  0  0  0  0  0  0
   45.9910   36.8569   41.7782 H   0  0  0  0  0  0  0  0  0  0  0  0
   47.2680   34.6770   42.0172 H   0  0  0  0  0  0  0  0  0  0  0  0
   44.1762   33.7151   46.3840 H   0  0  0  0  0  0  0  0  0  0  0  0
   44.5948   27.6834   49.7722 H   0  0  0  0  0  0  0  0  0  0  0  0
   45.0993   28.2853   45.5909 H   0  0  0  0  0  0  0  0  0  0  0  0
   44.7376   25.9738   44.0711 H   0  0  0  0  0  0  0  0  0  0  0  0
   44.1519   23.5017   44.6514 H   0  0  0  0  0  0  0  0  0  0  0  0
   44.1070   25.2693   49.3933 H   0  0  0  0  0  0  0  0  0  0  0  0
  1  2  2  0
  2  3  1  0
  4  3  2  0
  5  4  1  0
  6  1  1  0
  6  5  2  0
  7 12  2  0
  8  9  2  0
  8  7  1  0
  9 10  1  0
 10 11  2  0
 11 15  1  0
 12 11  1  0
 13  1  1  0
 14 13  2  0
 15 13  1  0
 17  5  1  0
 17 16  2  0
 18 17  1  0
 19 18  2  0
 19 23  1  0
 20 21  1  0
 20 19  1  0
 21 22  2  0
 22 23  1  0
 23 24  2  0
 24 16  1  0
  2 25  1  0
  3 26  1  0
  4 27  1  0
  7 28  1  0
  8 29  1  0
  9 30  1  0
 15 31  1  0
 16 32  1  0
 18 33  1  0
 20 34  1  0
 21 35  1  0
 24 36  1  0
M  ISO  8  25  14  26  14  27  14  28  14  29  14  30  14  32  14  33  14
M  ISO  3  34   9  35  14  36  14
M  END
>  <minimizedAffinity>  (1) 
-5.86507559

>  <minimizedRMSD>  (1) 
0.449150771

$$$$
