
     RDKit          3D

 30 31  0  0  1  0  0  0  0  0999 V2000
   45.9460   32.7560   47.1440 C   0  0  2  0  0  0  0  0  0  0  0  0
   46.8490   32.8820   45.9890 C   0  0  1  0  0  0  0  0  0  0  0  0
   47.0670   31.5180   45.2870 C   0  0  0  0  0  0  0  0  0  0  0  0
   47.5400   30.6980   46.3200 O   0  0  0  0  0  0  0  0  0  0  0  0
   46.5530   30.3550   47.2120 C   0  0  0  0  0  0  0  0  0  0  0  0
   45.3790   31.3290   47.2130 C   0  0  1  0  0  0  0  0  0  0  0  0
   44.7000   35.2020   44.1270 C   0  0  0  0  0  0  0  0  0  0  0  0
   45.4110   35.4480   42.9430 C   0  0  0  0  0  0  0  0  0  0  0  0
   46.6570   34.7820   42.8030 C   0  0  0  0  0  0  0  0  0  0  0  0
   47.0770   33.9650   43.7990 N   0  0  0  0  0  0  0  0  0  0  0  0
   46.3570   33.7680   44.9070 C   0  0  0  0  0  0  0  0  0  0  0  0
   45.1790   34.3920   45.0500 N   0  0  0  0  0  0  0  0  0  0  0  0
   43.5050   35.8460   44.2590 O   0  0  0  0  0  0  0  0  0  0  0  0
   44.8900   33.6610   47.1580 O   0  0  0  0  0  0  0  0  0  0  0  0
   44.6870   31.2360   48.4120 O   0  0  0  0  0  0  0  0  0  0  0  0
   45.4550   31.1830   49.5390 C   0  0  0  0  0  0  0  0  0  0  0  0
   46.5656   32.9873   48.0230 H   0  0  0  0  0  0  0  0  0  0  0  0
   47.7613   33.2994   46.4401 H   0  0  0  0  0  0  0  0  0  0  0  0
   46.1229   31.1303   44.8766 H   0  0  0  0  0  0  0  0  0  0  0  0
   47.7580   31.5779   44.4332 H   0  0  0  0  0  0  0  0  0  0  0  0
   46.1773   29.3549   46.9502 H   0  0  0  0  0  0  0  0  0  0  0  0
   46.9984   30.3789   48.2175 H   0  0  0  0  0  0  0  0  0  0  0  0
   44.7167   31.0983   46.3656 H   0  0  0  0  0  0  0  0  0  0  0  0
   45.0236   36.1213   42.1642 H   0  0  0  0  0  0  0  0  0  0  0  0
   47.2707   34.9267   41.9017 H   0  0  0  0  0  0  0  0  0  0  0  0
   43.1838   36.4458   43.5398 H   0  0  0  0  0  0  0  0  0  0  0  0
   44.6466   33.8696   48.0947 H   0  0  0  0  0  0  0  0  0  0  0  0
   44.8070   31.2277   50.4267 H   0  0  0  0  0  0  0  0  0  0  0  0
   46.0267   30.2433   49.5493 H   0  0  0  0  0  0  0  0  0  0  0  0
   46.1503   32.0353   49.5493 H   0  0  0  0  0  0  0  0  0  0  0  0
  1 14  1  0
  1  6  1  0
  2  1  1  0
  3  2  1  0
  3  4  1  0
  4  5  1  0
  5  6  1  0
  6 15  1  0
  7 13  1  0
  7 12  2  0
  8  7  1  0
  9  8  2  0
  9 10  1  0
 10 11  2  0
 11 12  1  0
 11  2  1  0
 15 16  1  0
  1 17  1  1
  2 18  1  1
  3 19  1  0
  3 20  1  0
  5 21  1  0
  5 22  1  0
  6 23  1  6
  8 24  1  0
  9 25  1  0
 13 26  1  0
 14 27  1  0
 16 28  1  0
 16 29  1  0
 16 30  1  0
M  ISO  8  17  13  18  13  19  13  20  13  21  13  22  13  23  13  24  14
M  ISO  6  25  14  26   3  27   3  28   8  29   8  30   8
M  END
>  <minimizedAffinity>  (1) 
-5.51234055

>  <minimizedRMSD>  (1) 
1.04011118

$$$$
