
     RDKit          3D

 33 35  0  0  0  0  0  0  0  0999 V2000
   45.6560   31.5860   47.1570 C   0  0  0  0  0  0  0  0  0  0  0  0
   45.6060   32.0400   48.4780 C   0  0  0  0  0  0  0  0  0  0  0  0
   45.3650   31.1810   49.5410 C   0  0  0  0  0  0  0  0  0  0  0  0
   45.1730   29.8540   49.2620 C   0  0  0  0  0  0  0  0  0  0  0  0
   45.2220   29.4050   47.9520 C   0  0  0  0  0  0  0  0  0  0  0  0
   45.4590   30.2650   46.9410 N   0  0  0  0  0  0  0  0  0  0  0  0
   44.7730   36.5640   43.8520 C   0  0  0  0  0  0  0  0  0  0  0  0
   45.6560   36.2680   42.8060 C   0  0  0  0  0  0  0  0  0  0  0  0
   46.3050   35.0370   42.8440 C   0  0  0  0  0  0  0  0  0  0  0  0
   46.0520   34.1870   43.8870 N   0  0  0  0  0  0  0  0  0  0  0  0
   45.1830   34.5240   44.8790 C   0  0  0  0  0  0  0  0  0  0  0  0
   44.5400   35.7140   44.8660 N   0  0  0  0  0  0  0  0  0  0  0  0
   45.9100   32.5270   46.0690 C   0  0  0  0  0  0  0  0  0  0  0  0
   46.9190   32.3590   45.3280 O   0  0  0  0  0  0  0  0  0  0  0  0
   44.9740   33.5960   45.9190 N   0  0  0  0  0  0  0  0  0  0  0  0
   44.1930   27.6260   49.8040 F   0  0  0  0  0  0  0  0  0  0  0  0
   44.5050   27.1280   48.5750 C   0  0  0  0  0  0  0  0  0  0  0  0
   45.0200   27.9970   47.6370 C   0  0  0  0  0  0  0  0  0  0  0  0
   45.3070   27.4110   46.4230 C   0  0  0  0  0  0  0  0  0  0  0  0
   45.0990   26.0700   46.1660 C   0  0  0  0  0  0  0  0  0  0  0  0
   44.5810   25.2520   47.1490 C   0  0  0  0  0  0  0  0  0  0  0  0
   44.2720   25.7800   48.3870 C   0  0  0  0  0  0  0  0  0  0  0  0
   45.7623   33.1097   48.6810 H   0  0  0  0  0  0  0  0  0  0  0  0
   45.3293   31.5542   50.5751 H   0  0  0  0  0  0  0  0  0  0  0  0
   44.9796   29.1435   50.0791 H   0  0  0  0  0  0  0  0  0  0  0  0
   44.2492   37.5312   43.8430 H   0  0  0  0  0  0  0  0  0  0  0  0
   45.8300   36.9805   41.9862 H   0  0  0  0  0  0  0  0  0  0  0  0
   47.0097   34.7519   42.0489 H   0  0  0  0  0  0  0  0  0  0  0  0
   44.1680   33.6861   46.5539 H   0  0  0  0  0  0  0  0  0  0  0  0
   45.7209   28.0406   45.6216 H   0  0  0  0  0  0  0  0  0  0  0  0
   45.3462   25.6543   45.1780 H   0  0  0  0  0  0  0  0  0  0  0  0
   44.4148   24.1835   46.9473 H   0  0  0  0  0  0  0  0  0  0  0  0
   43.8575   25.1528   49.1900 H   0  0  0  0  0  0  0  0  0  0  0  0
  1  2  2  0
  2  3  1  0
  4  3  2  0
  5  4  1  0
  6  1  1  0
  6  5  2  0
  7 12  2  0
  8  9  2  0
  8  7  1  0
  9 10  1  0
 10 11  2  0
 11 15  1  0
 12 11  1  0
 13  1  1  0
 14 13  2  0
 15 13  1  0
 17 16  1  0
 18  5  1  0
 18 17  2  0
 19 18  1  0
 20 19  2  0
 20 21  1  0
 21 22  2  0
 22 17  1  0
  2 23  1  0
  3 24  1  0
  4 25  1  0
  7 26  1  0
  8 27  1  0
  9 28  1  0
 15 29  1  0
 19 30  1  0
 20 31  1  0
 21 32  1  0
 22 33  1  0
M  ISO  8  23  14  24  14  25  14  26  14  27  14  28  14  30  14  31  14
M  ISO  2  32  14  33  14
M  END
>  <minimizedAffinity>  (1) 
-5.81408834

>  <minimizedRMSD>  (1) 
0.442056626

$$$$
