
     RDKit          3D

 47 50  0  0  1  0  0  0  0  0999 V2000
   46.9460   31.5150   45.1780 C   0  0  2  0  0  0  0  0  0  0  0  0
   47.3130   32.7310   44.4060 C   0  0  1  0  0  0  0  0  0  0  0  0
   47.5480   32.4260   42.9260 C   0  0  0  0  0  0  0  0  0  0  0  0
   48.4990   31.4050   42.9320 O   0  0  0  0  0  0  0  0  0  0  0  0
   47.9660   30.2060   43.3440 C   0  0  0  0  0  0  0  0  0  0  0  0
   46.7500   30.3370   44.2040 C   0  0  1  0  0  0  0  0  0  0  0  0
   44.7590   35.0630   45.6120 C   0  0  0  0  0  0  0  0  0  0  0  0
   44.4280   35.8450   44.4640 C   0  0  0  0  0  0  0  0  0  0  0  0
   45.1360   35.5110   43.2780 C   0  0  0  0  0  0  0  0  0  0  0  0
   46.0460   34.5130   43.3020 N   0  0  0  0  0  0  0  0  0  0  0  0
   46.3140   33.8140   44.4240 C   0  0  0  0  0  0  0  0  0  0  0  0
   45.6690   34.0880   45.5810 N   0  0  0  0  0  0  0  0  0  0  0  0
   44.0910   35.3680   46.7530 O   0  0  0  0  0  0  0  0  0  0  0  0
   45.7740   31.6530   45.9260 O   0  0  0  0  0  0  0  0  0  0  0  0
   46.4940   29.2260   44.9760 O   0  0  0  0  0  0  0  0  0  0  0  0
   46.6790   27.9180   47.3350 F   0  0  0  0  0  0  0  0  0  0  0  0
   45.6140   27.8810   46.5090 C   0  0  0  0  0  0  0  0  0  0  0  0
   45.4310   28.5130   45.3000 C   0  0  0  0  0  0  0  0  0  0  0  0
   44.2110   28.2830   44.6870 C   0  0  0  0  0  0  0  0  0  0  0  0
   43.1930   27.4930   45.1800 C   0  0  0  0  0  0  0  0  0  0  0  0
   43.4270   26.8920   46.3800 C   0  0  0  0  0  0  0  0  0  0  0  0
   44.6140   27.0590   47.0710 C   0  0  0  0  0  0  0  0  0  0  0  0
   46.2030   24.8340   47.1300 F   0  0  0  0  0  0  0  0  0  0  0  0
   45.5440   25.2400   48.2430 C   0  0  0  0  0  0  0  0  0  0  0  0
   44.7090   26.3450   48.3460 C   0  0  0  0  0  0  0  0  0  0  0  0
   44.1030   26.6330   49.5540 C   0  0  0  0  0  0  0  0  0  0  0  0
   44.3490   25.8040   50.6290 C   0  0  0  0  0  0  0  0  0  0  0  0
   45.1640   24.7130   50.5490 C   0  0  0  0  0  0  0  0  0  0  0  0
   45.7700   24.4260   49.3410 C   0  0  0  0  0  0  0  0  0  0  0  0
   47.7707   31.3402   45.8846 H   0  0  0  0  0  0  0  0  0  0  0  0
   48.2252   33.0652   44.9219 H   0  0  0  0  0  0  0  0  0  0  0  0
   47.9320   33.3133   42.4013 H   0  0  0  0  0  0  0  0  0  0  0  0
   46.6238   32.1369   42.4042 H   0  0  0  0  0  0  0  0  0  0  0  0
   47.6952   29.6241   42.4506 H   0  0  0  0  0  0  0  0  0  0  0  0
   48.7347   29.7136   43.9578 H   0  0  0  0  0  0  0  0  0  0  0  0
   45.9062   30.4825   43.5135 H   0  0  0  0  0  0  0  0  0  0  0  0
   43.6780   36.6491   44.4955 H   0  0  0  0  0  0  0  0  0  0  0  0
   44.9441   36.0621   42.3456 H   0  0  0  0  0  0  0  0  0  0  0  0
   44.2746   34.8626   47.5842 H   0  0  0  0  0  0  0  0  0  0  0  0
   45.9935   31.6272   46.8910 H   0  0  0  0  0  0  0  0  0  0  0  0
   44.0376   28.7750   43.7186 H   0  0  0  0  0  0  0  0  0  0  0  0
   42.2470   27.3563   44.6356 H   0  0  0  0  0  0  0  0  0  0  0  0
   42.6452   26.2518   46.8146 H   0  0  0  0  0  0  0  0  0  0  0  0
   43.4391   27.5041   49.6563 H   0  0  0  0  0  0  0  0  0  0  0  0
   43.8676   26.0324   51.5913 H   0  0  0  0  0  0  0  0  0  0  0  0
   45.3352   24.0747   51.4284 H   0  0  0  0  0  0  0  0  0  0  0  0
   46.4315   23.5517   49.2511 H   0  0  0  0  0  0  0  0  0  0  0  0
  1 14  1  0
  2 11  1  0
  2  1  1  0
  3  4  1  0
  3  2  1  0
  4  5  1  0
  5  6  1  0
  6 15  1  0
  6  1  1  0
  7 13  1  0
  8  7  2  0
  9 10  2  0
  9  8  1  0
 10 11  1  0
 11 12  2  0
 12  7  1  0
 15 18  1  0
 17 22  2  0
 17 16  1  0
 18 17  1  0
 19 20  1  0
 19 18  2  0
 20 21  2  0
 21 22  1  0
 22 25  1  0
 23 24  1  0
 24 25  2  0
 24 29  1  0
 25 26  1  0
 26 27  2  0
 28 27  1  0
 29 28  2  0
  1 30  1  1
  2 31  1  1
  3 32  1  0
  3 33  1  0
  5 34  1  0
  5 35  1  0
  6 36  1  6
  8 37  1  0
  9 38  1  0
 13 39  1  0
 14 40  1  0
 19 41  1  0
 20 42  1  0
 21 43  1  0
 26 44  1  0
 27 45  1  0
 28 46  1  0
 29 47  1  0
M  ISO  8  30  13  31  13  32  13  33  13  34  13  35  13  36  13  37  14
M  ISO  8  38  14  39   3  40   3  41  14  42  14  43  14  44  14  45  14
M  ISO  2  46  14  47  14
M  END
>  <minimizedAffinity>  (1) 
-6.19325161

>  <minimizedRMSD>  (1) 
3.31316304

$$$$
