
     RDKit          3D

 36 38  0  0  0  0  0  0  0  0999 V2000
   45.6390   31.6200   47.1520 C   0  0  0  0  0  0  0  0  0  0  0  0
   45.6180   32.0600   48.4700 C   0  0  0  0  0  0  0  0  0  0  0  0
   45.3770   31.2100   49.5270 C   0  0  0  0  0  0  0  0  0  0  0  0
   45.1510   29.8870   49.2600 C   0  0  0  0  0  0  0  0  0  0  0  0
   45.1710   29.4450   47.9450 C   0  0  0  0  0  0  0  0  0  0  0  0
   45.4100   30.3190   46.9640 N   0  0  0  0  0  0  0  0  0  0  0  0
   44.9560   28.1080   47.5080 N   0  0  0  0  0  0  0  0  0  0  0  0
   44.6740   27.7040   46.1430 C   0  0  0  0  0  0  0  0  0  0  0  0
   43.2850   27.0650   46.1640 C   0  0  0  0  0  0  0  0  0  0  0  0
   43.3680   25.8740   46.8810 O   0  0  0  0  0  0  0  0  0  0  0  0
   43.7520   26.0700   48.1910 C   0  0  0  0  0  0  0  0  0  0  0  0
   44.9820   26.9300   48.3540 C   0  0  0  0  0  0  0  0  0  0  0  0
   44.7590   36.5970   43.8330 C   0  0  0  0  0  0  0  0  0  0  0  0
   45.6730   36.2980   42.7960 C   0  0  0  0  0  0  0  0  0  0  0  0
   46.3460   35.0610   42.8420 C   0  0  0  0  0  0  0  0  0  0  0  0
   46.0710   34.2240   43.8910 N   0  0  0  0  0  0  0  0  0  0  0  0
   45.1920   34.5490   44.8620 C   0  0  0  0  0  0  0  0  0  0  0  0
   44.5300   35.7340   44.8390 N   0  0  0  0  0  0  0  0  0  0  0  0
   45.8990   32.5620   46.0550 C   0  0  0  0  0  0  0  0  0  0  0  0
   46.9050   32.3860   45.3190 O   0  0  0  0  0  0  0  0  0  0  0  0
   44.9710   33.6280   45.9030 N   0  0  0  0  0  0  0  0  0  0  0  0
   45.8003   33.1249   48.6766 H   0  0  0  0  0  0  0  0  0  0  0  0
   45.3665   31.5857   50.5608 H   0  0  0  0  0  0  0  0  0  0  0  0
   44.9553   29.1806   50.0802 H   0  0  0  0  0  0  0  0  0  0  0  0
   45.4232   26.9760   45.7986 H   0  0  0  0  0  0  0  0  0  0  0  0
   44.7093   28.5624   45.4561 H   0  0  0  0  0  0  0  0  0  0  0  0
   42.5694   27.7441   46.6505 H   0  0  0  0  0  0  0  0  0  0  0  0
   42.9398   26.8692   45.1381 H   0  0  0  0  0  0  0  0  0  0  0  0
   42.9205   26.5526   48.7256 H   0  0  0  0  0  0  0  0  0  0  0  0
   44.0031   25.0794   48.5980 H   0  0  0  0  0  0  0  0  0  0  0  0
   45.8675   26.3306   48.0960 H   0  0  0  0  0  0  0  0  0  0  0  0
   45.0132   27.2715   49.3992 H   0  0  0  0  0  0  0  0  0  0  0  0
   44.2230   37.5574   43.8165 H   0  0  0  0  0  0  0  0  0  0  0  0
   45.8532   37.0104   41.9774 H   0  0  0  0  0  0  0  0  0  0  0  0
   47.0678   34.7770   42.0620 H   0  0  0  0  0  0  0  0  0  0  0  0
   44.1628   33.7233   46.5344 H   0  0  0  0  0  0  0  0  0  0  0  0
  1  2  2  0
  2  3  1  0
  4  3  2  0
  5  4  1  0
  6  1  1  0
  6  5  2  0
  7  5  1  0
  7 12  1  0
  8  9  1  0
  8  7  1  0
  9 10  1  0
 10 11  1  0
 11 12  1  0
 13 18  2  0
 14 15  2  0
 14 13  1  0
 15 16  1  0
 16 17  2  0
 17 21  1  0
 18 17  1  0
 19  1  1  0
 20 19  2  0
 21 19  1  0
  2 22  1  0
  3 23  1  0
  4 24  1  0
  8 25  1  0
  8 26  1  0
  9 27  1  0
  9 28  1  0
 11 29  1  0
 11 30  1  0
 12 31  1  0
 12 32  1  0
 13 33  1  0
 14 34  1  0
 15 35  1  0
 21 36  1  0
M  ISO  8  22  14  23  14  24  14  25  13  26  13  27  13  28  13  29  13
M  ISO  6  30  13  31  13  32  13  33  14  34  14  35  14
M  END
>  <minimizedAffinity>  (1) 
-5.71658945

>  <minimizedRMSD>  (1) 
0.265830129

$$$$
