
     RDKit          3D

 28 29  0  0  0  0  0  0  0  0999 V2000
   45.7030   32.9410   46.3690 C   0  0  0  0  0  0  0  0  0  0  0  0
   45.0470   33.0310   47.4360 O   0  0  0  0  0  0  0  0  0  0  0  0
   44.6430   35.9200   44.5590 C   0  0  0  0  0  0  0  0  0  0  0  0
   45.3700   35.8870   43.3470 C   0  0  0  0  0  0  0  0  0  0  0  0
   46.2390   34.7890   43.1950 C   0  0  0  0  0  0  0  0  0  0  0  0
   46.3130   33.8740   44.1880 N   0  0  0  0  0  0  0  0  0  0  0  0
   45.6040   33.9420   45.3260 C   0  0  0  0  0  0  0  0  0  0  0  0
   44.7550   34.9900   45.5060 N   0  0  0  0  0  0  0  0  0  0  0  0
   46.9840   34.7580   41.9500 C   0  0  0  0  0  0  0  0  0  0  0  0
   47.8260   33.6450   41.9420 F   0  0  0  0  0  0  0  0  0  0  0  0
   47.8360   35.8630   41.9590 F   0  0  0  0  0  0  0  0  0  0  0  0
   46.2180   34.7160   40.8350 F   0  0  0  0  0  0  0  0  0  0  0  0
   46.8680   30.9940   47.2340 C   0  0  0  0  0  0  0  0  0  0  0  0
   46.5980   31.8030   46.1490 C   0  0  0  0  0  0  0  0  0  0  0  0
   47.1540   31.5460   44.9000 C   0  0  0  0  0  0  0  0  0  0  0  0
   47.9950   30.4690   44.7130 C   0  0  0  0  0  0  0  0  0  0  0  0
   48.3070   29.6200   45.7570 C   0  0  0  0  0  0  0  0  0  0  0  0
   47.7270   29.9200   46.9820 C   0  0  0  0  0  0  0  0  0  0  0  0
   46.2310   31.2190   48.8350 S   0  0  0  0  0  0  0  0  0  0  0  0
   44.8500   30.6250   48.8820 O   0  0  0  0  0  0  0  0  0  0  0  0
   46.1180   32.6610   49.2170 O   0  0  0  0  0  0  0  0  0  0  0  0
   43.9492   36.7566   44.7287 H   0  0  0  0  0  0  0  0  0  0  0  0
   45.2644   36.6647   42.5763 H   0  0  0  0  0  0  0  0  0  0  0  0
   46.9206   32.2082   44.0532 H   0  0  0  0  0  0  0  0  0  0  0  0
   48.4239   30.2833   43.7172 H   0  0  0  0  0  0  0  0  0  0  0  0
   48.9759   28.7567   45.6254 H   0  0  0  0  0  0  0  0  0  0  0  0
   47.9634   29.2561   47.8266 H   0  0  0  0  0  0  0  0  0  0  0  0
   47.0948   30.6137   49.7093 H   0  0  0  0  0  0  0  0  0  0  0  0
  1  2  2  0
  3  8  2  0
  4  3  1  0
  5  4  2  0
  5  6  1  0
  6  7  2  0
  7  8  1  0
  7  1  1  0
  9 11  1  0
  9  5  1  0
 10  9  1  0
 12  9  1  0
 13 19  1  0
 14  1  1  0
 14 13  2  0
 15 14  1  0
 16 15  2  0
 16 17  1  0
 17 18  2  0
 18 13  1  0
 19 20  2  0
 19 21  2  0
  3 22  1  0
  4 23  1  0
 15 24  1  0
 16 25  1  0
 17 26  1  0
 18 27  1  0
 19 28  1  0
M  ISO  7  22  14  23  14  24  14  25  14  26  14  27  14  28  11
M  END
>  <minimizedAffinity>  (1) 
-5.63545036

>  <minimizedRMSD>  (1) 
0.587817311

$$$$
