
     RDKit          3D

 24 25  0  0  0  0  0  0  0  0999 V2000
   44.5570   36.1290   44.2690 C   0  0  0  0  0  0  0  0  0  0  0  0
   45.3790   35.9600   43.1290 C   0  0  0  0  0  0  0  0  0  0  0  0
   46.2460   34.8670   43.1760 C   0  0  0  0  0  0  0  0  0  0  0  0
   46.2640   34.0530   44.2610 N   0  0  0  0  0  0  0  0  0  0  0  0
   45.4460   34.2700   45.3260 C   0  0  0  0  0  0  0  0  0  0  0  0
   44.5940   35.3070   45.3300 N   0  0  0  0  0  0  0  0  0  0  0  0
   47.0770   34.6930   41.9860 C   0  0  0  0  0  0  0  0  0  0  0  0
   47.8810   33.5540   42.1410 F   0  0  0  0  0  0  0  0  0  0  0  0
   47.9570   35.7550   41.9410 F   0  0  0  0  0  0  0  0  0  0  0  0
   46.3660   34.5330   40.8290 F   0  0  0  0  0  0  0  0  0  0  0  0
   45.4520   33.3860   46.4750 C   0  0  0  0  0  0  0  0  0  0  0  0
   44.8040   33.6280   47.5120 O   0  0  0  0  0  0  0  0  0  0  0  0
   46.2450   32.1430   46.4480 C   0  0  0  0  0  0  0  0  0  0  0  0
   47.2360   31.9890   47.4040 C   0  0  0  0  0  0  0  0  0  0  0  0
   47.9770   30.8190   47.3730 C   0  0  0  0  0  0  0  0  0  0  0  0
   47.7320   29.8520   46.4270 C   0  0  0  0  0  0  0  0  0  0  0  0
   46.7250   30.0830   45.5070 C   0  0  0  0  0  0  0  0  0  0  0  0
   46.0070   31.2000   45.5260 N   0  0  0  0  0  0  0  0  0  0  0  0
   43.8539   36.9747   44.2865 H   0  0  0  0  0  0  0  0  0  0  0  0
   45.3375   36.6419   42.2669 H   0  0  0  0  0  0  0  0  0  0  0  0
   47.4271   32.7661   48.1587 H   0  0  0  0  0  0  0  0  0  0  0  0
   48.7728   30.6614   48.1159 H   0  0  0  0  0  0  0  0  0  0  0  0
   48.3192   28.9222   46.4023 H   0  0  0  0  0  0  0  0  0  0  0  0
   46.5138   29.3226   44.7407 H   0  0  0  0  0  0  0  0  0  0  0  0
  1  6  2  0
  2  3  2  0
  2  1  1  0
  3  4  1  0
  4  5  2  0
  5  6  1  0
  5 11  1  0
  7  8  1  0
  7  3  1  0
  9  7  1  0
 10  7  1  0
 11 12  2  0
 13 11  1  0
 13 14  2  0
 15 14  1  0
 16 15  2  0
 17 18  2  0
 17 16  1  0
 18 13  1  0
  1 19  1  0
  2 20  1  0
 14 21  1  0
 15 22  1  0
 16 23  1  0
 17 24  1  0
M  ISO  6  19  14  20  14  21  14  22  14  23  14  24  14
M  END
>  <minimizedAffinity>  (1) 
-5.10805845

>  <minimizedRMSD>  (1) 
0.56773454

$$$$
