
     RDKit          3D

 16 16  0  0  0  0  0  0  0  0999 V2000
   44.5700   35.8970   44.3950 C   0  0  0  0  0  0  0  0  0  0  0  0
   45.3190   35.8220   43.1920 C   0  0  0  0  0  0  0  0  0  0  0  0
   46.2700   34.8120   43.1440 C   0  0  0  0  0  0  0  0  0  0  0  0
   46.4340   33.9770   44.2030 N   0  0  0  0  0  0  0  0  0  0  0  0
   45.6830   34.1000   45.3300 C   0  0  0  0  0  0  0  0  0  0  0  0
   44.7500   35.0600   45.4280 N   0  0  0  0  0  0  0  0  0  0  0  0
   47.0250   34.7350   41.9000 C   0  0  0  0  0  0  0  0  0  0  0  0
   47.8440   33.5940   41.9150 F   0  0  0  0  0  0  0  0  0  0  0  0
   47.9040   35.7990   41.8890 F   0  0  0  0  0  0  0  0  0  0  0  0
   46.2510   34.6620   40.7760 F   0  0  0  0  0  0  0  0  0  0  0  0
   45.8580   33.1790   46.4380 C   0  0  0  0  0  0  0  0  0  0  0  0
   45.0660   33.1470   47.4090 O   0  0  0  0  0  0  0  0  0  0  0  0
   46.8800   32.2730   46.5360 O   0  0  0  0  0  0  0  0  0  0  0  0
   43.8034   36.6807   44.4851 H   0  0  0  0  0  0  0  0  0  0  0  0
   45.1570   36.5168   42.3547 H   0  0  0  0  0  0  0  0  0  0  0  0
   46.9371   31.6743   47.3224 H   0  0  0  0  0  0  0  0  0  0  0  0
  1  6  2  0
  2  1  1  0
  3  2  2  0
  3  4  1  0
  4  5  2  0
  5  6  1  0
  5 11  1  0
  7  8  1  0
  7  3  1  0
  9  7  1  0
 10  7  1  0
 11 13  1  0
 11 12  2  0
  1 14  1  0
  2 15  1  0
 13 16  1  0
M  ISO  3  14  14  15  14  16   3
M  END
>  <minimizedAffinity>  (1) 
-4.51829576

>  <minimizedRMSD>  (1) 
0.11164467

$$$$
