
     RDKit          3D

 27 29  0  0  0  0  0  0  0  0999 V2000
   44.6300   33.0700   41.1870 Br  0  0  0  0  0  0  0  0  0  0  0  0
   46.3110   33.9570   40.9240 C   0  0  0  0  0  0  0  0  0  0  0  0
   46.8240   34.7300   41.9240 C   0  0  0  0  0  0  0  0  0  0  0  0
   48.0560   35.3860   41.7480 C   0  0  0  0  0  0  0  0  0  0  0  0
   48.7060   35.2260   40.5590 C   0  0  0  0  0  0  0  0  0  0  0  0
   48.1420   34.4390   39.5900 C   0  0  0  0  0  0  0  0  0  0  0  0
   46.9530   33.7870   39.7250 C   0  0  0  0  0  0  0  0  0  0  0  0
   45.6120   34.0540   45.3010 C   0  0  0  0  0  0  0  0  0  0  0  0
   44.7100   35.1040   45.5520 C   0  0  0  0  0  0  0  0  0  0  0  0
   44.5350   36.0430   44.5290 C   0  0  0  0  0  0  0  0  0  0  0  0
   45.2310   35.8940   43.3710 N   0  0  0  0  0  0  0  0  0  0  0  0
   46.0900   34.8660   43.1720 C   0  0  0  0  0  0  0  0  0  0  0  0
   46.2720   33.9530   44.1470 N   0  0  0  0  0  0  0  0  0  0  0  0
   46.4000   32.9610   38.6560 C   0  0  0  0  0  0  0  0  0  0  0  0
   46.7400   31.6490   38.4300 C   0  0  0  0  0  0  0  0  0  0  0  0
   46.0410   31.1930   37.3640 N   0  0  0  0  0  0  0  0  0  0  0  0
   45.2630   32.2090   36.9160 C   0  0  0  0  0  0  0  0  0  0  0  0
   45.4900   33.2880   37.7130 N   0  0  0  0  0  0  0  0  0  0  0  0
   48.4833   36.0104   42.5465 H   0  0  0  0  0  0  0  0  0  0  0  0
   49.6711   35.7229   40.3808 H   0  0  0  0  0  0  0  0  0  0  0  0
   48.6848   34.3258   38.6400 H   0  0  0  0  0  0  0  0  0  0  0  0
   45.7775   33.2945   46.0793 H   0  0  0  0  0  0  0  0  0  0  0  0
   44.1684   35.1832   46.5062 H   0  0  0  0  0  0  0  0  0  0  0  0
   43.8444   36.8891   44.6602 H   0  0  0  0  0  0  0  0  0  0  0  0
   47.4622   31.0646   39.0190 H   0  0  0  0  0  0  0  0  0  0  0  0
   46.0912   30.2447   36.9651 H   0  0  0  0  0  0  0  0  0  0  0  0
   44.5719   32.1682   36.0611 H   0  0  0  0  0  0  0  0  0  0  0  0
  2  1  1  0
  2  3  2  0
  3 12  1  0
  4  3  1  0
  5  4  2  0
  6  7  2  0
  6  5  1  0
  7  2  1  0
  8  9  2  0
 10  9  1  0
 11 10  2  0
 12 11  1  0
 12 13  2  0
 13  8  1  0
 14  7  1  0
 15 14  2  0
 16 15  1  0
 17 16  1  0
 17 18  2  0
 18 14  1  0
  4 19  1  0
  5 20  1  0
  6 21  1  0
  8 22  1  0
  9 23  1  0
 10 24  1  0
 15 25  1  0
 16 26  1  0
 17 27  1  0
M  ISO  8  19  14  20  14  21  14  22  14  23  14  24  14  25  14  26   9
M  ISO  1  27  14
M  END
>  <minimizedAffinity>  (1) 
-5.34621429

>  <minimizedRMSD>  (1) 
0.481156826

$$$$
