
     RDKit          3D

 46 48  0  0  1  0  0  0  0  0999 V2000
   45.8170   31.2640   46.6230 C   0  0  2  0  0  0  0  0  0  0  0  0
   45.9680   30.4620   47.8810 C   0  0  0  0  0  0  0  0  0  0  0  0
   45.2080   29.2030   47.7100 C   0  0  0  0  0  0  0  0  0  0  0  0
   44.4130   29.1050   46.4370 C   0  0  0  0  0  0  0  0  0  0  0  0
   45.3250   29.3090   45.2350 C   0  0  0  0  0  0  0  0  0  0  0  0
   46.2350   30.4270   45.4410 C   0  0  2  0  0  0  0  0  0  0  0  0
   47.5580   29.8050   45.7090 C   0  0  0  0  0  0  0  0  0  0  0  0
   48.1450   29.4830   44.3760 N   0  0  0  0  0  0  0  0  0  0  0  0
   49.4990   28.9910   44.5830 C   0  0  0  0  0  0  0  0  0  0  0  0
   50.4490   29.7310   43.7230 C   0  0  0  0  0  0  0  0  0  0  0  0
   49.6200   30.7300   42.9580 C   0  0  0  0  0  0  0  0  0  0  0  0
   48.2900   30.7200   43.6240 C   0  0  0  0  0  0  0  0  0  0  0  0
   46.4750   32.5920   46.6590 C   0  0  0  0  0  0  0  0  0  0  0  0
   47.3890   32.8710   47.4670 O   0  0  0  0  0  0  0  0  0  0  0  0
   44.6020   35.3370   45.1350 C   0  0  0  0  0  0  0  0  0  0  0  0
   45.1390   35.4450   43.8350 C   0  0  0  0  0  0  0  0  0  0  0  0
   46.1560   34.5600   43.5150 C   0  0  0  0  0  0  0  0  0  0  0  0
   46.5080   33.7060   44.4790 N   0  0  0  0  0  0  0  0  0  0  0  0
   46.0090   33.6010   45.6940 C   0  0  0  0  0  0  0  0  0  0  0  0
   45.0220   34.4450   46.0360 N   0  0  0  0  0  0  0  0  0  0  0  0
   46.7090   34.6600   42.1650 C   0  0  0  0  0  0  0  0  0  0  0  0
   47.4430   33.5100   41.8810 F   0  0  0  0  0  0  0  0  0  0  0  0
   47.5570   35.7260   42.1720 F   0  0  0  0  0  0  0  0  0  0  0  0
   45.7190   34.7600   41.1980 F   0  0  0  0  0  0  0  0  0  0  0  0
   44.7512   31.5160   46.5204 H   0  0  0  0  0  0  0  0  0  0  0  0
   47.0304   30.2368   48.0558 H   0  0  0  0  0  0  0  0  0  0  0  0
   45.5862   31.0266   48.7444 H   0  0  0  0  0  0  0  0  0  0  0  0
   45.9235   28.3678   47.7300 H   0  0  0  0  0  0  0  0  0  0  0  0
   44.4764   29.1732   48.5309 H   0  0  0  0  0  0  0  0  0  0  0  0
   43.9460   28.1110   46.3751 H   0  0  0  0  0  0  0  0  0  0  0  0
   43.6360   29.8836   46.4363 H   0  0  0  0  0  0  0  0  0  0  0  0
   44.7072   29.5095   44.3472 H   0  0  0  0  0  0  0  0  0  0  0  0
   45.9238   28.3967   45.0966 H   0  0  0  0  0  0  0  0  0  0  0  0
   46.2478   31.0963   44.5681 H   0  0  0  0  0  0  0  0  0  0  0  0
   48.2070   30.5082   46.2515 H   0  0  0  0  0  0  0  0  0  0  0  0
   47.4580   28.9033   46.3310 H   0  0  0  0  0  0  0  0  0  0  0  0
   49.7790   29.1306   45.6376 H   0  0  0  0  0  0  0  0  0  0  0  0
   49.5364   27.9229   44.3226 H   0  0  0  0  0  0  0  0  0  0  0  0
   51.1998   30.2481   44.3386 H   0  0  0  0  0  0  0  0  0  0  0  0
   50.9932   29.0551   43.0470 H   0  0  0  0  0  0  0  0  0  0  0  0
   49.5266   30.4283   41.9043 H   0  0  0  0  0  0  0  0  0  0  0  0
   50.0750   31.7315   42.9606 H   0  0  0  0  0  0  0  0  0  0  0  0
   48.2137   31.5782   44.3079 H   0  0  0  0  0  0  0  0  0  0  0  0
   47.4952   30.7894   42.8668 H   0  0  0  0  0  0  0  0  0  0  0  0
   43.7932   36.0250   45.4223 H   0  0  0  0  0  0  0  0  0  0  0  0
   44.7707   36.1907   43.1151 H   0  0  0  0  0  0  0  0  0  0  0  0
  1 13  1  0
  1  2  1  0
  3  2  1  0
  4  3  1  0
  5  6  1  0
  5  4  1  0
  6  7  1  0
  6  1  1  0
  8  9  1  0
  8  7  1  0
 10  9  1  0
 11 12  1  0
 11 10  1  0
 12  8  1  0
 13 14  2  0
 15 20  2  0
 16 15  1  0
 17 16  2  0
 17 18  1  0
 18 19  2  0
 19 20  1  0
 19 13  1  0
 21 23  1  0
 21 17  1  0
 22 21  1  0
 24 21  1  0
  1 25  1  6
  2 26  1  0
  2 27  1  0
  3 28  1  0
  3 29  1  0
  4 30  1  0
  4 31  1  0
  5 32  1  0
  5 33  1  0
  6 34  1  6
  7 35  1  0
  7 36  1  0
  9 37  1  0
  9 38  1  0
 10 39  1  0
 10 40  1  0
 11 41  1  0
 11 42  1  0
 12 43  1  0
 12 44  1  0
 15 45  1  0
 16 46  1  0
M  ISO  8  25  13  26  13  27  13  28  13  29  13  30  13  31  13  32  13
M  ISO  8  33  13  34  13  35   8  36   8  37  13  38  13  39  13  40  13
M  ISO  6  41  13  42  13  43  13  44  13  45  14  46  14
M  END
>  <minimizedAffinity>  (1) 
-5.1975441

>  <minimizedRMSD>  (1) 
0.667105019

$$$$
