
     RDKit          3D

 38 39  0  0  1  0  0  0  0  0999 V2000
   45.8370   31.3000   46.4220 C   0  0  2  0  0  0  0  0  0  0  0  0
   45.4160   30.6680   47.7090 C   0  0  0  0  0  0  0  0  0  0  0  0
   44.8090   29.3530   47.3890 C   0  0  0  0  0  0  0  0  0  0  0  0
   44.6810   29.0350   45.9330 C   0  0  0  0  0  0  0  0  0  0  0  0
   46.0230   29.1490   45.2590 C   0  0  0  0  0  0  0  0  0  0  0  0
   46.7490   30.3360   45.6880 C   0  0  2  0  0  0  0  0  0  0  0  0
   47.8200   29.8370   46.5930 C   0  0  0  0  0  0  0  0  0  0  0  0
   50.1840   28.9650   46.2350 C   0  0  0  0  0  0  0  0  0  0  0  0
   50.5920   29.3400   47.3420 O   0  0  0  0  0  0  0  0  0  0  0  0
   48.8430   29.1740   45.8030 N   0  0  0  0  0  0  0  0  0  0  0  0
   46.4160   32.6530   46.5520 C   0  0  0  0  0  0  0  0  0  0  0  0
   47.2210   32.9600   47.4610 O   0  0  0  0  0  0  0  0  0  0  0  0
   44.6450   35.4120   44.9490 C   0  0  0  0  0  0  0  0  0  0  0  0
   45.2310   35.5030   43.6600 C   0  0  0  0  0  0  0  0  0  0  0  0
   46.2400   34.5990   43.3800 C   0  0  0  0  0  0  0  0  0  0  0  0
   46.5410   33.7460   44.3620 N   0  0  0  0  0  0  0  0  0  0  0  0
   46.0020   33.6540   45.5600 C   0  0  0  0  0  0  0  0  0  0  0  0
   45.0190   34.5230   45.8580 N   0  0  0  0  0  0  0  0  0  0  0  0
   46.8480   34.6770   42.0560 C   0  0  0  0  0  0  0  0  0  0  0  0
   47.5970   33.5390   41.8170 F   0  0  0  0  0  0  0  0  0  0  0  0
   47.6640   35.7610   42.0650 F   0  0  0  0  0  0  0  0  0  0  0  0
   45.8930   34.7240   41.0460 F   0  0  0  0  0  0  0  0  0  0  0  0
   44.9291   31.4822   45.8284 H   0  0  0  0  0  0  0  0  0  0  0  0
   46.2906   30.5280   48.3612 H   0  0  0  0  0  0  0  0  0  0  0  0
   44.6921   31.3087   48.2339 H   0  0  0  0  0  0  0  0  0  0  0  0
   45.4303   28.5723   47.8521 H   0  0  0  0  0  0  0  0  0  0  0  0
   43.7811   29.3944   47.7785 H   0  0  0  0  0  0  0  0  0  0  0  0
   44.3012   28.0092   45.8165 H   0  0  0  0  0  0  0  0  0  0  0  0
   43.9830   29.7472   45.4687 H   0  0  0  0  0  0  0  0  0  0  0  0
   45.8708   29.1996   44.1707 H   0  0  0  0  0  0  0  0  0  0  0  0
   46.6189   28.2670   45.5365 H   0  0  0  0  0  0  0  0  0  0  0  0
   47.1582   30.8898   44.8302 H   0  0  0  0  0  0  0  0  0  0  0  0
   48.2658   30.6829   47.1367 H   0  0  0  0  0  0  0  0  0  0  0  0
   47.3920   29.1258   47.3148 H   0  0  0  0  0  0  0  0  0  0  0  0
   50.8836   28.4509   45.5595 H   0  0  0  0  0  0  0  0  0  0  0  0
   48.5809   28.8320   44.8674 H   0  0  0  0  0  0  0  0  0  0  0  0
   43.8393   36.1151   45.2070 H   0  0  0  0  0  0  0  0  0  0  0  0
   44.9012   36.2510   42.9240 H   0  0  0  0  0  0  0  0  0  0  0  0
  1 11  1  0
  1  2  1  0
  3  2  1  0
  4  3  1  0
  5  6  1  0
  5  4  1  0
  6  1  1  0
  6  7  1  0
  8  9  2  0
 10  8  1  0
 10  7  1  0
 11 12  2  0
 13 18  2  0
 14 13  1  0
 15 14  2  0
 15 16  1  0
 16 17  2  0
 17 18  1  0
 17 11  1  0
 19 21  1  0
 19 15  1  0
 20 19  1  0
 22 19  1  0
  1 23  1  6
  2 24  1  0
  2 25  1  0
  3 26  1  0
  3 27  1  0
  4 28  1  0
  4 29  1  0
  5 30  1  0
  5 31  1  0
  6 32  1  6
  7 33  1  0
  7 34  1  0
  8 35  1  0
 10 36  1  0
 13 37  1  0
 14 38  1  0
M  ISO  8  23  13  24  13  25  13  26  13  27  13  28  13  29  13  30  13
M  ISO  7  31  13  32  13  33   8  34   8  35   6  37  14  38  14
M  END
>  <minimizedAffinity>  (1) 
-5.03143787

>  <minimizedRMSD>  (1) 
0.96132046

$$$$
