
     RDKit          3D

 35 36  0  0  1  0  0  0  0  0999 V2000
   45.8380   31.2960   46.6400 C   0  0  2  0  0  0  0  0  0  0  0  0
   45.7230   30.6210   47.9680 C   0  0  0  0  0  0  0  0  0  0  0  0
   45.0090   29.3310   47.7480 C   0  0  0  0  0  0  0  0  0  0  0  0
   44.5340   29.0830   46.3590 C   0  0  0  0  0  0  0  0  0  0  0  0
   45.6810   29.1960   45.3850 C   0  0  0  0  0  0  0  0  0  0  0  0
   46.5230   30.3500   45.6710 C   0  0  2  0  0  0  0  0  0  0  0  0
   47.7600   29.7890   46.2860 C   0  0  0  0  0  0  0  0  0  0  0  0
   47.9900   28.4860   45.7880 O   0  0  0  0  0  0  0  0  0  0  0  0
   46.4770   32.6320   46.6810 C   0  0  0  0  0  0  0  0  0  0  0  0
   47.3680   32.9340   47.5050 O   0  0  0  0  0  0  0  0  0  0  0  0
   44.6000   35.3470   45.1190 C   0  0  0  0  0  0  0  0  0  0  0  0
   45.1460   35.4440   43.8090 C   0  0  0  0  0  0  0  0  0  0  0  0
   46.1700   34.5550   43.5040 C   0  0  0  0  0  0  0  0  0  0  0  0
   46.5140   33.7160   44.4820 N   0  0  0  0  0  0  0  0  0  0  0  0
   46.0120   33.6210   45.6960 C   0  0  0  0  0  0  0  0  0  0  0  0
   45.0200   34.4690   46.0180 N   0  0  0  0  0  0  0  0  0  0  0  0
   46.7310   34.6420   42.1650 C   0  0  0  0  0  0  0  0  0  0  0  0
   47.4430   33.4900   41.8830 F   0  0  0  0  0  0  0  0  0  0  0  0
   47.5770   35.7050   42.1620 F   0  0  0  0  0  0  0  0  0  0  0  0
   45.7450   34.7300   41.1890 F   0  0  0  0  0  0  0  0  0  0  0  0
   44.8190   31.5152   46.2884 H   0  0  0  0  0  0  0  0  0  0  0  0
   46.7243   30.4314   48.3821 H   0  0  0  0  0  0  0  0  0  0  0  0
   45.1740   31.2539   48.6808 H   0  0  0  0  0  0  0  0  0  0  0  0
   45.6941   28.5150   48.0213 H   0  0  0  0  0  0  0  0  0  0  0  0
   44.1028   29.3809   48.3696 H   0  0  0  0  0  0  0  0  0  0  0  0
   44.1041   28.0724   46.2976 H   0  0  0  0  0  0  0  0  0  0  0  0
   43.7716   29.8332   46.1024 H   0  0  0  0  0  0  0  0  0  0  0  0
   45.2753   29.2949   44.3673 H   0  0  0  0  0  0  0  0  0  0  0  0
   46.2989   28.2908   45.4785 H   0  0  0  0  0  0  0  0  0  0  0  0
   46.7356   30.9303   44.7610 H   0  0  0  0  0  0  0  0  0  0  0  0
   48.6167   30.4324   46.0367 H   0  0  0  0  0  0  0  0  0  0  0  0
   47.6368   29.7455   47.3782 H   0  0  0  0  0  0  0  0  0  0  0  0
   48.1008   27.8581   46.5453 H   0  0  0  0  0  0  0  0  0  0  0  0
   43.7889   36.0350   45.3995 H   0  0  0  0  0  0  0  0  0  0  0  0
   44.7788   36.1805   43.0791 H   0  0  0  0  0  0  0  0  0  0  0  0
  1  9  1  0
  1  2  1  0
  3  2  1  0
  4  3  1  0
  5  6  1  0
  5  4  1  0
  6  7  1  0
  6  1  1  0
  8  7  1  0
  9 10  2  0
 11 16  2  0
 12 11  1  0
 13 12  2  0
 13 14  1  0
 14 15  2  0
 15 16  1  0
 15  9  1  0
 17 13  1  0
 18 17  1  0
 19 17  1  0
 20 17  1  0
  1 21  1  6
  2 22  1  0
  2 23  1  0
  3 24  1  0
  3 25  1  0
  4 26  1  0
  4 27  1  0
  5 28  1  0
  5 29  1  0
  6 30  1  6
  7 31  1  0
  7 32  1  0
  8 33  1  0
 11 34  1  0
 12 35  1  0
M  ISO  8  21  13  22  13  23  13  24  13  25  13  26  13  27  13  28  13
M  ISO  7  29  13  30  13  31   8  32   8  33   3  34  14  35  14
M  END
>  <minimizedAffinity>  (1) 
-5.00800323

>  <minimizedRMSD>  (1) 
0.298760772

$$$$
