
     RDKit          3D

 30 32  0  0  1  0  0  0  0  0999 V2000
   44.4500   35.0820   43.5910 C   0  0  1  0  0  0  0  0  0  0  0  0
   45.1620   36.3610   43.0860 C   0  0  0  0  0  0  0  0  0  0  0  0
   44.6520   35.2930   42.1750 C   0  0  2  0  0  0  0  0  0  0  0  0
   45.3430   34.1940   44.3850 C   0  0  0  0  0  0  0  0  0  0  0  0
   46.3170   33.4080   43.6990 C   0  0  0  0  0  0  0  0  0  0  0  0
   47.1540   32.5860   44.4440 C   0  0  0  0  0  0  0  0  0  0  0  0
   46.9920   32.5810   45.8170 N   0  0  0  0  0  0  0  0  0  0  0  0
   46.0500   33.3480   46.4210 C   0  0  0  0  0  0  0  0  0  0  0  0
   45.2290   34.1510   45.7090 N   0  0  0  0  0  0  0  0  0  0  0  0
   43.5690   35.5600   41.1850 C   0  0  0  0  0  0  0  0  0  0  0  0
   43.4510   34.5910   40.0620 C   0  0  0  0  0  0  0  0  0  0  0  0
   42.0400   34.9100   39.5500 C   0  0  0  0  0  0  0  0  0  0  0  0
   41.2320   35.0050   40.8340 C   0  0  0  0  0  0  0  0  0  0  0  0
   42.2340   35.4110   41.8920 C   0  0  0  0  0  0  0  0  0  0  0  0
   43.5556   34.8020   44.1669 H   0  0  0  0  0  0  0  0  0  0  0  0
   44.6593   37.3380   43.1382 H   0  0  0  0  0  0  0  0  0  0  0  0
   46.1251   36.8607   43.2669 H   0  0  0  0  0  0  0  0  0  0  0  0
   45.0955   34.6602   41.3922 H   0  0  0  0  0  0  0  0  0  0  0  0
   46.4034   33.4520   42.6033 H   0  0  0  0  0  0  0  0  0  0  0  0
   47.9183   31.9615   43.9585 H   0  0  0  0  0  0  0  0  0  0  0  0
   45.9523   33.3154   47.5162 H   0  0  0  0  0  0  0  0  0  0  0  0
   43.8179   36.5535   40.7839 H   0  0  0  0  0  0  0  0  0  0  0  0
   44.2123   34.7731   39.2892 H   0  0  0  0  0  0  0  0  0  0  0  0
   43.6028   33.5405   40.3506 H   0  0  0  0  0  0  0  0  0  0  0  0
   42.0236   35.8623   38.9997 H   0  0  0  0  0  0  0  0  0  0  0  0
   41.6519   34.1605   38.8445 H   0  0  0  0  0  0  0  0  0  0  0  0
   40.4406   35.7630   40.7386 H   0  0  0  0  0  0  0  0  0  0  0  0
   40.7298   34.0577   41.0796 H   0  0  0  0  0  0  0  0  0  0  0  0
   42.3002   34.6364   42.6702 H   0  0  0  0  0  0  0  0  0  0  0  0
   41.9365   36.3492   42.3831 H   0  0  0  0  0  0  0  0  0  0  0  0
  1  4  1  0
  2  1  1  0
  3  2  1  0
  3  1  1  0
  4  9  1  0
  5  4  2  0
  5  6  1  0
  6  7  2  0
  7  8  1  0
  9  8  2  0
 10 14  1  0
 10  3  1  0
 11 10  1  0
 12 11  1  0
 12 13  1  0
 13 14  1  0
  1 15  1  6
  2 16  1  0
  2 17  1  0
  3 18  1  6
  5 19  1  0
  6 20  1  0
  8 21  1  0
 10 22  1  0
 11 23  1  0
 11 24  1  0
 12 25  1  0
 12 26  1  0
 13 27  1  0
 13 28  1  0
 14 29  1  0
 14 30  1  0
M  ISO  8  15  13  16  13  17  13  18  13  19  14  20  14  21  14  22  13
M  ISO  8  23  13  24  13  25  13  26  13  27  13  28  13  29  13  30  13
M  END
>  <minimizedAffinity>  (1) 
-4.26473141

>  <minimizedRMSD>  (1) 
1.16282058

$$$$
