
     RDKit          3D

 24 26  0  0  1  0  0  0  0  0999 V2000
   45.0750   33.7500   42.4520 C   0  0  1  0  0  0  0  0  0  0  0  0
   45.1820   35.2560   42.1560 C   0  0  0  0  0  0  0  0  0  0  0  0
   46.0910   34.2510   41.5600 C   0  0  1  0  0  0  0  0  0  0  0  0
   45.3380   33.3910   43.8680 C   0  0  0  0  0  0  0  0  0  0  0  0
   45.7810   32.0630   44.1530 C   0  0  0  0  0  0  0  0  0  0  0  0
   46.0280   31.7690   45.4880 C   0  0  0  0  0  0  0  0  0  0  0  0
   45.8410   32.7310   46.4370 N   0  0  0  0  0  0  0  0  0  0  0  0
   45.4170   33.9770   46.1090 C   0  0  0  0  0  0  0  0  0  0  0  0
   45.1660   34.3100   44.8400 N   0  0  0  0  0  0  0  0  0  0  0  0
   47.4840   34.4310   41.8160 C   0  0  0  0  0  0  0  0  0  0  0  0
   48.3090   35.5040   41.9470 C   0  0  0  0  0  0  0  0  0  0  0  0
   49.6470   35.3430   42.2080 C   0  0  0  0  0  0  0  0  0  0  0  0
   50.2000   34.1000   42.3460 C   0  0  0  0  0  0  0  0  0  0  0  0
   48.6860   32.9810   42.0840 S   0  0  0  0  0  0  0  0  0  0  0  0
   44.3531   32.9271   42.3435 H   0  0  0  0  0  0  0  0  0  0  0  0
   44.4235   35.7585   41.5379 H   0  0  0  0  0  0  0  0  0  0  0  0
   45.2932   36.1765   42.7479 H   0  0  0  0  0  0  0  0  0  0  0  0
   46.3747   33.8726   40.5669 H   0  0  0  0  0  0  0  0  0  0  0  0
   45.9189   31.3144   43.3589 H   0  0  0  0  0  0  0  0  0  0  0  0
   46.3726   30.7656   45.7785 H   0  0  0  0  0  0  0  0  0  0  0  0
   45.2774   34.7264   46.9020 H   0  0  0  0  0  0  0  0  0  0  0  0
   47.8970   36.5185   41.8420 H   0  0  0  0  0  0  0  0  0  0  0  0
   50.2873   36.2318   42.3082 H   0  0  0  0  0  0  0  0  0  0  0  0
   51.2438   33.8216   42.5535 H   0  0  0  0  0  0  0  0  0  0  0  0
  1  4  1  0
  2  1  1  0
  3 10  1  0
  3  2  1  0
  3  1  1  0
  4  5  2  0
  4  9  1  0
  5  6  1  0
  6  7  2  0
  8  7  1  0
  9  8  2  0
 10 11  2  0
 10 14  1  0
 11 12  1  0
 12 13  2  0
 14 13  1  0
  1 15  1  6
  2 16  1  0
  2 17  1  0
  3 18  1  6
  5 19  1  0
  6 20  1  0
  8 21  1  0
 11 22  1  0
 12 23  1  0
 13 24  1  0
M  ISO  8  15  13  16  13  17  13  18  13  19  14  20  14  21  14  22  14
M  ISO  2  23  14  24  14
M  END
>  <minimizedAffinity>  (1) 
-4.11479521

>  <minimizedRMSD>  (1) 
1.91281104

$$$$
