
     RDKit          3D

 20 21  0  0  1  0  0  0  0  0999 V2000
   45.3720   34.2220   44.4570 C   0  0  0  0  0  0  0  0  0  0  0  0
   46.3610   33.4810   43.7460 C   0  0  0  0  0  0  0  0  0  0  0  0
   47.2140   32.6330   44.4470 C   0  0  0  0  0  0  0  0  0  0  0  0
   47.0480   32.5630   45.8150 N   0  0  0  0  0  0  0  0  0  0  0  0
   46.0900   33.2890   46.4480 C   0  0  0  0  0  0  0  0  0  0  0  0
   45.2690   34.1010   45.7950 N   0  0  0  0  0  0  0  0  0  0  0  0
   44.4860   35.1340   43.6940 C   0  0  1  0  0  0  0  0  0  0  0  0
   45.2250   36.4080   43.2140 C   0  0  0  0  0  0  0  0  0  0  0  0
   44.6700   35.3870   42.2810 C   0  0  2  0  0  0  0  0  0  0  0  0
   43.5450   35.7020   41.3380 C   0  0  0  0  0  0  0  0  0  0  0  0
   46.4492   33.5784   42.6539 H   0  0  0  0  0  0  0  0  0  0  0  0
   47.9873   32.0439   43.9323 H   0  0  0  0  0  0  0  0  0  0  0  0
   45.9916   33.2005   47.5400 H   0  0  0  0  0  0  0  0  0  0  0  0
   43.5919   34.8496   44.2682 H   0  0  0  0  0  0  0  0  0  0  0  0
   44.7514   37.3966   43.3061 H   0  0  0  0  0  0  0  0  0  0  0  0
   46.2053   36.8743   43.3920 H   0  0  0  0  0  0  0  0  0  0  0  0
   45.0925   34.7834   41.4642 H   0  0  0  0  0  0  0  0  0  0  0  0
   42.6430   35.9546   41.9147 H   0  0  0  0  0  0  0  0  0  0  0  0
   43.8260   36.5560   40.7042 H   0  0  0  0  0  0  0  0  0  0  0  0
   43.3417   34.8262   40.7042 H   0  0  0  0  0  0  0  0  0  0  0  0
  1  6  2  0
  2  3  2  0
  2  1  1  0
  3  4  1  0
  4  5  2  0
  6  5  1  0
  7  1  1  0
  8  7  1  0
  9  8  1  0
  9  7  1  0
 10  9  1  0
  2 11  1  0
  3 12  1  0
  5 13  1  0
  7 14  1  6
  8 15  1  0
  8 16  1  0
  9 17  1  6
 10 18  1  0
 10 19  1  0
 10 20  1  0
M  ISO  8  11  14  12  14  13  14  14  13  15  13  16  13  17  13  18   8
M  ISO  2  19   8  20   8
M  END
>  <minimizedAffinity>  (1) 
-3.37709165

>  <minimizedRMSD>  (1) 
0.72118336

$$$$
