
     RDKit          3D

 39 42  0  0  1  0  0  0  0  0999 V2000
   45.6720   35.4090   43.1640 C   0  0  1  0  0  0  0  0  0  0  0  0
   44.6670   36.0930   42.2340 C   0  0  0  0  0  0  0  0  0  0  0  0
   44.2710   34.9630   42.9520 C   0  0  1  0  0  0  0  0  0  0  0  0
   43.8640   33.7460   42.2390 C   0  0  0  0  0  0  0  0  0  0  0  0
   44.3780   32.4850   42.5030 C   0  0  0  0  0  0  0  0  0  0  0  0
   44.0230   31.3350   41.8270 C   0  0  0  0  0  0  0  0  0  0  0  0
   43.0920   31.4350   40.8180 C   0  0  0  0  0  0  0  0  0  0  0  0
   42.5450   32.6770   40.5120 C   0  0  0  0  0  0  0  0  0  0  0  0
   42.9520   33.7950   41.2390 C   0  0  0  0  0  0  0  0  0  0  0  0
   42.1270   34.8360   40.7120 N   0  0  0  0  0  0  0  0  0  0  0  0
   41.1050   35.7960   41.1850 C   0  0  0  0  0  0  0  0  0  0  0  0
   39.9310   35.3060   40.3340 C   0  0  0  0  0  0  0  0  0  0  0  0
   40.6280   35.2690   38.9660 C   0  0  0  0  0  0  0  0  0  0  0  0
   42.1160   35.2030   39.2850 C   0  0  0  0  0  0  0  0  0  0  0  0
   46.8090   34.7250   42.5120 C   0  0  0  0  0  0  0  0  0  0  0  0
   47.6540   33.9850   43.3670 C   0  0  0  0  0  0  0  0  0  0  0  0
   48.7330   33.3290   42.7360 C   0  0  0  0  0  0  0  0  0  0  0  0
   48.8770   33.4570   41.3840 N   0  0  0  0  0  0  0  0  0  0  0  0
   48.0200   34.1900   40.6200 C   0  0  0  0  0  0  0  0  0  0  0  0
   46.9680   34.8390   41.1760 N   0  0  0  0  0  0  0  0  0  0  0  0
   46.2868   35.6429   44.0457 H   0  0  0  0  0  0  0  0  0  0  0  0
   44.7992   36.0307   41.1438 H   0  0  0  0  0  0  0  0  0  0  0  0
   44.2819   37.1183   42.1319 H   0  0  0  0  0  0  0  0  0  0  0  0
   43.4735   34.7273   43.6720 H   0  0  0  0  0  0  0  0  0  0  0  0
   45.1216   32.3950   43.3086 H   0  0  0  0  0  0  0  0  0  0  0  0
   44.4718   30.3651   42.0875 H   0  0  0  0  0  0  0  0  0  0  0  0
   42.7830   30.5400   40.2581 H   0  0  0  0  0  0  0  0  0  0  0  0
   41.8015   32.7757   39.7074 H   0  0  0  0  0  0  0  0  0  0  0  0
   40.9076   35.6953   42.2624 H   0  0  0  0  0  0  0  0  0  0  0  0
   41.3619   36.8605   41.0808 H   0  0  0  0  0  0  0  0  0  0  0  0
   39.5817   34.3108   40.6464 H   0  0  0  0  0  0  0  0  0  0  0  0
   39.0197   35.9200   40.3852 H   0  0  0  0  0  0  0  0  0  0  0  0
   40.3959   36.1762   38.3889 H   0  0  0  0  0  0  0  0  0  0  0  0
   40.2973   34.4154   38.3561 H   0  0  0  0  0  0  0  0  0  0  0  0
   42.6186   34.4379   38.6751 H   0  0  0  0  0  0  0  0  0  0  0  0
   42.6495   36.1411   39.0721 H   0  0  0  0  0  0  0  0  0  0  0  0
   47.4832   33.9237   44.4519 H   0  0  0  0  0  0  0  0  0  0  0  0
   49.4434   32.7269   43.3215 H   0  0  0  0  0  0  0  0  0  0  0  0
   48.1844   34.2563   39.5344 H   0  0  0  0  0  0  0  0  0  0  0  0
  2  3  1  0
  2  1  1  0
  3  1  1  0
  4  5  2  0
  4  3  1  0
  6  5  1  0
  7  6  2  0
  8  7  1  0
  8  9  2  0
  9  4  1  0
 10 11  1  0
 10  9  1  0
 12 11  1  0
 13 14  1  0
 13 12  1  0
 14 10  1  0
 15  1  1  0
 15 16  2  0
 17 16  1  0
 18 17  2  0
 19 20  2  0
 19 18  1  0
 20 15  1  0
  1 21  1  1
  2 22  1  0
  2 23  1  0
  3 24  1  1
  5 25  1  0
  6 26  1  0
  7 27  1  0
  8 28  1  0
 11 29  1  0
 11 30  1  0
 12 31  1  0
 12 32  1  0
 13 33  1  0
 13 34  1  0
 14 35  1  0
 14 36  1  0
 16 37  1  0
 17 38  1  0
 19 39  1  0
M  ISO  8  21  13  22  13  23  13  24  13  25  14  26  14  27  14  28  14
M  ISO  8  29  13  30  13  31  13  32  13  33  13  34  13  35  13  36  13
M  ISO  3  37  14  38  14  39  14
M  END
>  <minimizedAffinity>  (1) 
-4.86708736

>  <minimizedRMSD>  (1) 
5.61459255

$$$$
