
     RDKit          3D

 28 30  0  0  1  0  0  0  0  0999 V2000
   44.5390   34.8090   43.4640 C   0  0  1  0  0  0  0  0  0  0  0  0
   45.3530   36.0410   43.1050 C   0  0  0  0  0  0  0  0  0  0  0  0
   44.8570   35.2200   42.0760 C   0  0  1  0  0  0  0  0  0  0  0  0
   45.8370   34.5500   41.2030 C   0  0  0  0  0  0  0  0  0  0  0  0
   45.4730   33.6530   40.2050 C   0  0  0  0  0  0  0  0  0  0  0  0
   46.3390   32.9890   39.3830 C   0  0  0  0  0  0  0  0  0  0  0  0
   47.6830   33.2130   39.5420 C   0  0  0  0  0  0  0  0  0  0  0  0
   48.1150   34.0960   40.5210 C   0  0  0  0  0  0  0  0  0  0  0  0
   47.1840   34.7290   41.3110 C   0  0  0  0  0  0  0  0  0  0  0  0
   47.8270   35.5640   42.2190 O   0  0  0  0  0  0  0  0  0  0  0  0
   45.2500   33.7090   44.1410 C   0  0  0  0  0  0  0  0  0  0  0  0
   45.1070   32.4240   43.5540 C   0  0  0  0  0  0  0  0  0  0  0  0
   45.7940   31.3810   44.2040 C   0  0  0  0  0  0  0  0  0  0  0  0
   46.5280   31.6770   45.3240 N   0  0  0  0  0  0  0  0  0  0  0  0
   46.6180   32.9360   45.8300 C   0  0  0  0  0  0  0  0  0  0  0  0
   45.9750   33.9750   45.2390 N   0  0  0  0  0  0  0  0  0  0  0  0
   43.6134   34.5522   43.9999 H   0  0  0  0  0  0  0  0  0  0  0  0
   44.9272   37.0434   43.2597 H   0  0  0  0  0  0  0  0  0  0  0  0
   46.3486   36.4181   43.3818 H   0  0  0  0  0  0  0  0  0  0  0  0
   44.2029   35.3408   41.1999 H   0  0  0  0  0  0  0  0  0  0  0  0
   44.3987   33.4621   40.0657 H   0  0  0  0  0  0  0  0  0  0  0  0
   45.9688   32.2940   38.6149 H   0  0  0  0  0  0  0  0  0  0  0  0
   48.4115   32.6972   38.8992 H   0  0  0  0  0  0  0  0  0  0  0  0
   49.1888   34.2875   40.6636 H   0  0  0  0  0  0  0  0  0  0  0  0
   48.8150   35.6268   42.2200 H   0  0  0  0  0  0  0  0  0  0  0  0
   44.5003   32.2548   42.6522 H   0  0  0  0  0  0  0  0  0  0  0  0
   45.7431   30.3508   43.8217 H   0  0  0  0  0  0  0  0  0  0  0  0
   47.2212   33.1151   46.7322 H   0  0  0  0  0  0  0  0  0  0  0  0
  1 11  1  0
  2  1  1  0
  3  2  1  0
  3  1  1  0
  4  9  1  0
  4  3  1  0
  5  4  2  0
  6  7  2  0
  6  5  1  0
  7  8  1  0
  8  9  2  0
  9 10  1  0
 11 16  1  0
 12 11  2  0
 12 13  1  0
 13 14  2  0
 14 15  1  0
 16 15  2  0
  1 17  1  6
  2 18  1  0
  2 19  1  0
  3 20  1  6
  5 21  1  0
  6 22  1  0
  7 23  1  0
  8 24  1  0
 10 25  1  0
 12 26  1  0
 13 27  1  0
 15 28  1  0
M  ISO  8  17  13  18  13  19  13  20  13  21  14  22  14  23  14  24  14
M  ISO  4  25   3  26  14  27  14  28  14
M  END
>  <minimizedAffinity>  (1) 
-4.16149378

>  <minimizedRMSD>  (1) 
0.74314326

$$$$
