
     RDKit          3D

 33 35  0  0  1  0  0  0  0  0999 V2000
   44.5980   34.4790   43.5940 C   0  0  1  0  0  0  0  0  0  0  0  0
   45.0840   35.8990   43.6290 C   0  0  0  0  0  0  0  0  0  0  0  0
   45.2210   35.2130   42.4320 C   0  0  1  0  0  0  0  0  0  0  0  0
   45.3140   33.4540   44.3510 C   0  0  0  0  0  0  0  0  0  0  0  0
   45.3210   32.1610   43.8060 C   0  0  0  0  0  0  0  0  0  0  0  0
   46.0170   31.1810   44.5370 C   0  0  0  0  0  0  0  0  0  0  0  0
   46.6230   31.5610   45.7090 N   0  0  0  0  0  0  0  0  0  0  0  0
   46.5740   32.8410   46.1820 C   0  0  0  0  0  0  0  0  0  0  0  0
   45.9130   33.8140   45.5020 N   0  0  0  0  0  0  0  0  0  0  0  0
   47.2040   33.2010   47.3860 N   0  0  0  0  0  0  0  0  0  0  0  0
   46.5750   34.9030   41.9010 C   0  0  0  0  0  0  0  0  0  0  0  0
   47.7320   35.2040   42.5790 C   0  0  0  0  0  0  0  0  0  0  0  0
   48.9970   34.9780   42.1150 C   0  0  0  0  0  0  0  0  0  0  0  0
   49.1240   34.4030   40.8720 C   0  0  0  0  0  0  0  0  0  0  0  0
   47.9790   34.0830   40.1510 C   0  0  0  0  0  0  0  0  0  0  0  0
   46.7430   34.3390   40.6780 C   0  0  0  0  0  0  0  0  0  0  0  0
   45.5300   32.4950   39.7380 C   0  0  0  0  0  0  0  0  0  0  0  0
   46.2090   32.0200   40.6510 O   0  0  0  0  0  0  0  0  0  0  0  0
   45.7760   33.9130   39.6980 N   0  0  0  0  0  0  0  0  0  0  0  0
   43.6650   33.9229   43.7681 H   0  0  0  0  0  0  0  0  0  0  0  0
   44.3551   36.7195   43.7030 H   0  0  0  0  0  0  0  0  0  0  0  0
   45.7846   36.4474   44.2759 H   0  0  0  0  0  0  0  0  0  0  0  0
   44.8965   35.3758   41.3936 H   0  0  0  0  0  0  0  0  0  0  0  0
   44.8108   31.9267   42.8601 H   0  0  0  0  0  0  0  0  0  0  0  0
   46.0740   30.1419   44.1805 H   0  0  0  0  0  0  0  0  0  0  0  0
   47.1535   34.1730   47.7231 H   0  0  0  0  0  0  0  0  0  0  0  0
   47.7161   32.4928   47.9311 H   0  0  0  0  0  0  0  0  0  0  0  0
   47.6316   35.6630   43.5736 H   0  0  0  0  0  0  0  0  0  0  0  0
   49.8806   35.2458   42.7130 H   0  0  0  0  0  0  0  0  0  0  0  0
   50.1203   34.1986   40.4530 H   0  0  0  0  0  0  0  0  0  0  0  0
   48.0673   33.6234   39.1555 H   0  0  0  0  0  0  0  0  0  0  0  0
   44.8563   31.9351   39.0726 H   0  0  0  0  0  0  0  0  0  0  0  0
   45.3108   34.5542   39.0397 H   0  0  0  0  0  0  0  0  0  0  0  0
  1  2  1  0
  1  4  1  0
  3  1  1  0
  3  2  1  0
  4  9  1  0
  5  4  2  0
  5  6  1  0
  6  7  2  0
  7  8  1  0
  8 10  1  0
  9  8  2  0
 11  3  1  0
 11 12  2  0
 13 12  1  0
 14 13  2  0
 15 16  2  0
 15 14  1  0
 16 11  1  0
 17 18  2  0
 19 17  1  0
 19 16  1  0
  1 20  1  6
  2 21  1  0
  2 22  1  0
  3 23  1  6
  5 24  1  0
  6 25  1  0
 10 26  1  0
 10 27  1  0
 12 28  1  0
 13 29  1  0
 14 30  1  0
 15 31  1  0
 17 32  1  0
 19 33  1  0
M  ISO  8  20  13  21  13  22  13  23  13  24  14  25  14  28  14  29  14
M  ISO  3  30  14  31  14  32   6
M  END
>  <minimizedAffinity>  (1) 
-5.12236261

>  <minimizedRMSD>  (1) 
0.299889416

$$$$
