
     RDKit          3D

 24 25  0  0  0  0  0  0  0  0999 V2000
   44.7720   36.6570   43.7610 C   0  0  0  0  0  0  0  0  0  0  0  0
   45.6460   36.3100   42.7120 C   0  0  0  0  0  0  0  0  0  0  0  0
   46.2950   35.0730   42.7840 C   0  0  0  0  0  0  0  0  0  0  0  0
   46.0480   34.2700   43.8620 N   0  0  0  0  0  0  0  0  0  0  0  0
   45.1960   34.6490   44.8490 C   0  0  0  0  0  0  0  0  0  0  0  0
   44.5530   35.8350   44.8130 N   0  0  0  0  0  0  0  0  0  0  0  0
   45.9120   32.6740   46.0840 C   0  0  0  0  0  0  0  0  0  0  0  0
   46.8860   32.4590   45.3240 O   0  0  0  0  0  0  0  0  0  0  0  0
   44.9980   33.7590   45.9250 N   0  0  0  0  0  0  0  0  0  0  0  0
   45.6700   31.7780   47.2130 C   0  0  0  0  0  0  0  0  0  0  0  0
   45.6040   32.2680   48.5120 C   0  0  0  0  0  0  0  0  0  0  0  0
   45.3780   31.4510   49.5990 C   0  0  0  0  0  0  0  0  0  0  0  0
   45.2120   30.1080   49.3880 C   0  0  0  0  0  0  0  0  0  0  0  0
   45.2760   29.6130   48.0920 C   0  0  0  0  0  0  0  0  0  0  0  0
   45.5000   30.4430   47.0580 N   0  0  0  0  0  0  0  0  0  0  0  0
   45.1320   28.2880   47.6990 O   0  0  0  0  0  0  0  0  0  0  0  0
   44.2519   37.6256   43.7236 H   0  0  0  0  0  0  0  0  0  0  0  0
   45.8127   36.9900   41.8636 H   0  0  0  0  0  0  0  0  0  0  0  0
   46.9880   34.7540   41.9915 H   0  0  0  0  0  0  0  0  0  0  0  0
   44.2135   33.8886   46.5797 H   0  0  0  0  0  0  0  0  0  0  0  0
   45.7370   33.3471   48.6787 H   0  0  0  0  0  0  0  0  0  0  0  0
   45.3319   31.8692   50.6153 H   0  0  0  0  0  0  0  0  0  0  0  0
   45.0302   29.4297   50.2347 H   0  0  0  0  0  0  0  0  0  0  0  0
   45.1965   28.0460   46.7412 H   0  0  0  0  0  0  0  0  0  0  0  0
  1  6  2  0
  2  3  2  0
  2  1  1  0
  3  4  1  0
  4  5  2  0
  5  9  1  0
  6  5  1  0
  7 10  1  0
  8  7  2  0
  9  7  1  0
 10 11  2  0
 11 12  1  0
 13 12  2  0
 14 13  1  0
 15 10  1  0
 15 14  2  0
 16 14  1  0
  1 17  1  0
  2 18  1  0
  3 19  1  0
  9 20  1  0
 11 21  1  0
 12 22  1  0
 13 23  1  0
 16 24  1  0
M  ISO  7  17  14  18  14  19  14  21  14  22  14  23  14  24   3
M  END
>  <minimizedAffinity>  (1) 
-4.9773469

>  <minimizedRMSD>  (1) 
0.0601064488

$$$$
