
     RDKit          3D

 29 30  0  0  0  0  0  0  0  0999 V2000
   44.7930   36.5860   43.6280 C   0  0  0  0  0  0  0  0  0  0  0  0
   45.7260   36.2840   42.6380 C   0  0  0  0  0  0  0  0  0  0  0  0
   46.4120   35.0770   42.7410 C   0  0  0  0  0  0  0  0  0  0  0  0
   46.1480   34.2440   43.7940 N   0  0  0  0  0  0  0  0  0  0  0  0
   45.2280   34.5840   44.7330 C   0  0  0  0  0  0  0  0  0  0  0  0
   44.5440   35.7580   44.6550 N   0  0  0  0  0  0  0  0  0  0  0  0
   45.9350   32.6550   46.0220 C   0  0  0  0  0  0  0  0  0  0  0  0
   46.9730   32.4790   45.3120 O   0  0  0  0  0  0  0  0  0  0  0  0
   44.9720   33.7010   45.8160 N   0  0  0  0  0  0  0  0  0  0  0  0
   45.6810   31.7450   47.1300 C   0  0  0  0  0  0  0  0  0  0  0  0
   45.6170   32.2510   48.4390 C   0  0  0  0  0  0  0  0  0  0  0  0
   45.3780   31.4440   49.5420 C   0  0  0  0  0  0  0  0  0  0  0  0
   45.2030   30.0990   49.3200 C   0  0  0  0  0  0  0  0  0  0  0  0
   45.2670   29.6020   48.0260 C   0  0  0  0  0  0  0  0  0  0  0  0
   45.5020   30.4230   46.9770 N   0  0  0  0  0  0  0  0  0  0  0  0
   45.0660   28.1390   47.8790 C   0  0  0  0  0  0  0  0  0  0  0  0
   44.3790   27.8190   46.5710 C   0  0  0  0  0  0  0  0  0  0  0  0
   44.2414   37.5357   43.5659 H   0  0  0  0  0  0  0  0  0  0  0  0
   45.9140   36.9757   41.8036 H   0  0  0  0  0  0  0  0  0  0  0  0
   47.1586   34.7958   41.9837 H   0  0  0  0  0  0  0  0  0  0  0  0
   44.1434   33.8048   46.4190 H   0  0  0  0  0  0  0  0  0  0  0  0
   45.7622   33.3301   48.5957 H   0  0  0  0  0  0  0  0  0  0  0  0
   45.3303   31.8653   50.5570 H   0  0  0  0  0  0  0  0  0  0  0  0
   45.0131   29.4197   50.1641 H   0  0  0  0  0  0  0  0  0  0  0  0
   46.0442   27.6364   47.9047 H   0  0  0  0  0  0  0  0  0  0  0  0
   44.4316   27.7860   48.7054 H   0  0  0  0  0  0  0  0  0  0  0  0
   43.3989   27.3625   46.7737 H   0  0  0  0  0  0  0  0  0  0  0  0
   44.2399   28.7450   45.9938 H   0  0  0  0  0  0  0  0  0  0  0  0
   44.9983   27.1167   45.9938 H   0  0  0  0  0  0  0  0  0  0  0  0
  1  6  2  0
  2  3  2  0
  2  1  1  0
  3  4  1  0
  4  5  2  0
  5  9  1  0
  6  5  1  0
  7 10  1  0
  8  7  2  0
  9  7  1  0
 10 11  2  0
 11 12  1  0
 13 12  2  0
 14 13  1  0
 15 10  1  0
 15 14  2  0
 16 14  1  0
 17 16  1  0
  1 18  1  0
  2 19  1  0
  3 20  1  0
  9 21  1  0
 11 22  1  0
 12 23  1  0
 13 24  1  0
 16 25  1  0
 16 26  1  0
 17 27  1  0
 17 28  1  0
 17 29  1  0
M  ISO  8  18  14  19  14  20  14  22  14  23  14  24  14  25   8  26   8
M  ISO  3  27   8  28   8  29   8
M  END
>  <minimizedAffinity>  (1) 
-4.97045851

>  <minimizedRMSD>  (1) 
0.106038272

$$$$
