
     RDKit          3D

 27 28  0  0  1  0  0  0  0  0999 V2000
   47.1840   34.2440   42.5140 N   0  0  0  0  0  0  0  0  0  0  0  0
   47.8810   35.0720   41.5480 C   0  0  0  0  0  0  0  0  0  0  0  0
   47.6360   34.2120   40.3290 C   0  0  2  0  0  0  0  0  0  0  0  0
   48.0810   32.8700   40.8210 C   0  0  0  0  0  0  0  0  0  0  0  0
   47.5920   32.8600   42.2610 C   0  0  0  0  0  0  0  0  0  0  0  0
   44.5420   35.9020   44.5440 C   0  0  0  0  0  0  0  0  0  0  0  0
   45.3840   35.6510   43.4780 C   0  0  0  0  0  0  0  0  0  0  0  0
   46.2820   34.5960   43.5260 C   0  0  0  0  0  0  0  0  0  0  0  0
   46.2760   33.8380   44.6810 N   0  0  0  0  0  0  0  0  0  0  0  0
   45.4600   34.0800   45.7190 C   0  0  0  0  0  0  0  0  0  0  0  0
   44.5810   35.1250   45.6480 N   0  0  0  0  0  0  0  0  0  0  0  0
   48.5300   34.5880   39.2560 N   0  0  0  0  0  0  0  0  0  0  0  0
   48.1280   34.1110   37.9620 C   0  0  0  0  0  0  0  0  0  0  0  0
   49.0450   33.1210   37.6050 F   0  0  0  0  0  0  0  0  0  0  0  0
   48.2830   35.1370   37.0470 F   0  0  0  0  0  0  0  0  0  0  0  0
   46.8510   33.6190   37.9050 F   0  0  0  0  0  0  0  0  0  0  0  0
   47.4307   36.0710   41.4519 H   0  0  0  0  0  0  0  0  0  0  0  0
   48.9321   35.3033   41.7756 H   0  0  0  0  0  0  0  0  0  0  0  0
   46.6044   34.2768   39.9526 H   0  0  0  0  0  0  0  0  0  0  0  0
   47.6162   32.0605   40.2391 H   0  0  0  0  0  0  0  0  0  0  0  0
   49.1653   32.7097   40.7281 H   0  0  0  0  0  0  0  0  0  0  0  0
   46.7396   32.1747   42.3784 H   0  0  0  0  0  0  0  0  0  0  0  0
   48.3635   32.5139   42.9646 H   0  0  0  0  0  0  0  0  0  0  0  0
   43.8336   36.7420   44.4932 H   0  0  0  0  0  0  0  0  0  0  0  0
   45.3416   36.2924   42.5853 H   0  0  0  0  0  0  0  0  0  0  0  0
   45.4980   33.4450   46.6164 H   0  0  0  0  0  0  0  0  0  0  0  0
   48.5783   35.6163   39.2208 H   0  0  0  0  0  0  0  0  0  0  0  0
  1  8  1  0
  2  1  1  0
  3  4  1  0
  3  2  1  0
  4  5  1  0
  5  1  1  0
  6 11  2  0
  7  8  2  0
  7  6  1  0
  8  9  1  0
  9 10  2  0
 11 10  1  0
 12  3  1  0
 13 12  1  0
 14 13  1  0
 15 13  1  0
 16 13  1  0
  2 17  1  0
  2 18  1  0
  3 19  1  6
  4 20  1  0
  4 21  1  0
  5 22  1  0
  5 23  1  0
  6 24  1  0
  7 25  1  0
 10 26  1  0
 12 27  1  0
M  ISO  8  17  13  18  13  19  13  20  13  21  13  22  13  23  13  24  14
M  ISO  3  25  14  26  14  27   5
M  END
>  <minimizedAffinity>  (1) 
-4.83580828

>  <minimizedRMSD>  (1) 
0.639026463

$$$$
