
     RDKit          3D

 26 27  0  0  1  0  0  0  0  0999 V2000
   47.1940   34.2660   42.2610 N   0  0  0  0  0  0  0  0  0  0  0  0
   48.0130   35.0230   41.3720 C   0  0  0  0  0  0  0  0  0  0  0  0
   47.6770   34.3130   40.0690 C   0  0  2  0  0  0  0  0  0  0  0  0
   47.9540   32.8940   40.4810 C   0  0  0  0  0  0  0  0  0  0  0  0
   47.4300   32.8810   41.9070 C   0  0  0  0  0  0  0  0  0  0  0  0
   44.6510   36.0390   44.3230 C   0  0  0  0  0  0  0  0  0  0  0  0
   45.4770   35.7690   43.2330 C   0  0  0  0  0  0  0  0  0  0  0  0
   46.3110   34.6510   43.2910 C   0  0  0  0  0  0  0  0  0  0  0  0
   46.2790   33.8650   44.4230 N   0  0  0  0  0  0  0  0  0  0  0  0
   45.4570   34.1650   45.4630 C   0  0  0  0  0  0  0  0  0  0  0  0
   44.6430   35.2560   45.4070 N   0  0  0  0  0  0  0  0  0  0  0  0
   48.6530   34.6690   39.0590 N   0  0  0  0  0  0  0  0  0  0  0  0
   48.3630   34.4960   37.6610 C   0  0  0  0  0  0  0  0  0  0  0  0
   49.1710   33.7110   37.0820 O   0  0  0  0  0  0  0  0  0  0  0  0
   47.7242   36.0842   41.3490 H   0  0  0  0  0  0  0  0  0  0  0  0
   49.0821   35.0561   41.6288 H   0  0  0  0  0  0  0  0  0  0  0  0
   46.6760   34.5279   39.6668 H   0  0  0  0  0  0  0  0  0  0  0  0
   47.4097   32.1786   39.8470 H   0  0  0  0  0  0  0  0  0  0  0  0
   49.0101   32.6001   40.3900 H   0  0  0  0  0  0  0  0  0  0  0  0
   46.4932   32.3074   41.9643 H   0  0  0  0  0  0  0  0  0  0  0  0
   48.1464   32.4071   42.5941 H   0  0  0  0  0  0  0  0  0  0  0  0
   43.9897   36.9175   44.2906 H   0  0  0  0  0  0  0  0  0  0  0  0
   45.4717   36.4218   42.3477 H   0  0  0  0  0  0  0  0  0  0  0  0
   45.4489   33.5226   46.3559 H   0  0  0  0  0  0  0  0  0  0  0  0
   49.5657   35.0507   39.3458 H   0  0  0  0  0  0  0  0  0  0  0  0
   47.5267   34.9935   37.1481 H   0  0  0  0  0  0  0  0  0  0  0  0
  1  8  1  0
  2  1  1  0
  3  4  1  0
  3  2  1  0
  4  5  1  0
  5  1  1  0
  6 11  2  0
  7  8  2  0
  7  6  1  0
  8  9  1  0
  9 10  2  0
 11 10  1  0
 12  3  1  0
 13 12  1  0
 14 13  2  0
  2 15  1  0
  2 16  1  0
  3 17  1  6
  4 18  1  0
  4 19  1  0
  5 20  1  0
  5 21  1  0
  6 22  1  0
  7 23  1  0
 10 24  1  0
 12 25  1  0
 13 26  1  0
M  ISO  8  15  13  16  13  17  13  18  13  19  13  20  13  21  13  22  14
M  ISO  3  23  14  24  14  26   6
M  END
>  <minimizedAffinity>  (1) 
-4.67686081

>  <minimizedRMSD>  (1) 
0.41315338

$$$$
