
     RDKit          3D

 34 36  0  0  1  0  0  0  0  0999 V2000
   46.5330   32.6500   43.5070 N   0  0  0  0  0  0  0  0  0  0  0  0
   46.7010   31.4160   44.2530 C   0  0  0  0  0  0  0  0  0  0  0  0
   45.9010   31.7660   45.4670 C   0  0  2  0  0  0  0  0  0  0  0  0
   46.4500   33.1360   45.8120 C   0  0  0  0  0  0  0  0  0  0  0  0
   46.7200   33.7310   44.4540 C   0  0  0  0  0  0  0  0  0  0  0  0
   44.9010   32.7410   40.1600 C   0  0  0  0  0  0  0  0  0  0  0  0
   45.0530   32.4740   41.5150 C   0  0  0  0  0  0  0  0  0  0  0  0
   46.2460   32.8570   42.1460 C   0  0  0  0  0  0  0  0  0  0  0  0
   47.2110   33.4830   41.3880 N   0  0  0  0  0  0  0  0  0  0  0  0
   47.0210   33.7260   40.0620 C   0  0  0  0  0  0  0  0  0  0  0  0
   45.8530   33.3490   39.4480 N   0  0  0  0  0  0  0  0  0  0  0  0
   46.1260   30.9010   46.5790 N   0  0  0  0  0  0  0  0  0  0  0  0
   46.4760   32.1330   49.1040 F   0  0  0  0  0  0  0  0  0  0  0  0
   47.4480   31.2820   48.6600 C   0  0  0  0  0  0  0  0  0  0  0  0
   47.2540   30.6910   47.4050 C   0  0  0  0  0  0  0  0  0  0  0  0
   48.2810   29.8480   47.0320 C   0  0  0  0  0  0  0  0  0  0  0  0
   49.4030   29.5810   47.7790 C   0  0  0  0  0  0  0  0  0  0  0  0
   49.5510   30.1890   49.0090 C   0  0  0  0  0  0  0  0  0  0  0  0
   48.5550   31.0370   49.4260 C   0  0  0  0  0  0  0  0  0  0  0  0
   46.2823   30.5506   43.7185 H   0  0  0  0  0  0  0  0  0  0  0  0
   47.7421   31.1159   44.4428 H   0  0  0  0  0  0  0  0  0  0  0  0
   44.8213   31.7010   45.2672 H   0  0  0  0  0  0  0  0  0  0  0  0
   45.7109   33.7321   46.3673 H   0  0  0  0  0  0  0  0  0  0  0  0
   47.3381   33.1019   46.4601 H   0  0  0  0  0  0  0  0  0  0  0  0
   47.7501   34.1133   44.4009 H   0  0  0  0  0  0  0  0  0  0  0  0
   46.0499   34.5770   44.2413 H   0  0  0  0  0  0  0  0  0  0  0  0
   43.9684   32.4426   39.6588 H   0  0  0  0  0  0  0  0  0  0  0  0
   44.2543   31.9726   42.0814 H   0  0  0  0  0  0  0  0  0  0  0  0
   47.8080   34.2273   39.4795 H   0  0  0  0  0  0  0  0  0  0  0  0
   45.3128   30.3195   46.8269 H   0  0  0  0  0  0  0  0  0  0  0  0
   48.1942   29.3484   46.0558 H   0  0  0  0  0  0  0  0  0  0  0  0
   50.1729   28.8919   47.4016 H   0  0  0  0  0  0  0  0  0  0  0  0
   50.4365   30.0007   49.6338 H   0  0  0  0  0  0  0  0  0  0  0  0
   48.6496   31.5333   50.4031 H   0  0  0  0  0  0  0  0  0  0  0  0
  1  2  1  0
  1  5  1  0
  2  3  1  0
  3  4  1  0
  3 12  1  0
  5  4  1  0
  6  7  2  0
  7  8  1  0
  8  1  1  0
  9  8  2  0
 10  9  1  0
 11 10  2  0
 11  6  1  0
 12 15  1  0
 14 13  1  0
 14 19  2  0
 15 14  1  0
 16 15  2  0
 16 17  1  0
 17 18  2  0
 18 19  1  0
  2 20  1  0
  2 21  1  0
  3 22  1  6
  4 23  1  0
  4 24  1  0
  5 25  1  0
  5 26  1  0
  6 27  1  0
  7 28  1  0
 10 29  1  0
 12 30  1  0
 16 31  1  0
 17 32  1  0
 18 33  1  0
 19 34  1  0
M  ISO  8  20  13  21  13  22  13  23  13  24  13  25  13  26  13  27  14
M  ISO  6  28  14  29  14  31  14  32  14  33  14  34  14
M  END
>  <minimizedAffinity>  (1) 
-3.81604815

>  <minimizedRMSD>  (1) 
8.49829483

$$$$
