
     RDKit          3D

 42 45  0  0  1  0  0  0  0  0999 V2000
   47.7520   34.2580   42.2530 N   0  0  0  0  0  0  0  0  0  0  0  0
   47.9730   34.6840   40.8850 C   0  0  0  0  0  0  0  0  0  0  0  0
   48.3680   33.3710   40.2870 C   0  0  2  0  0  0  0  0  0  0  0  0
   49.4110   32.9030   41.2770 C   0  0  0  0  0  0  0  0  0  0  0  0
   48.8520   33.3890   42.5950 C   0  0  0  0  0  0  0  0  0  0  0  0
   44.7950   35.7970   43.9260 C   0  0  0  0  0  0  0  0  0  0  0  0
   45.7810   35.5750   42.9720 C   0  0  0  0  0  0  0  0  0  0  0  0
   46.7170   34.5670   43.1540 C   0  0  0  0  0  0  0  0  0  0  0  0
   46.6110   33.8280   44.3020 N   0  0  0  0  0  0  0  0  0  0  0  0
   45.6620   34.0420   45.2230 C   0  0  0  0  0  0  0  0  0  0  0  0
   44.7540   35.0240   45.0370 N   0  0  0  0  0  0  0  0  0  0  0  0
   49.0070   33.4970   39.0060 N   0  0  0  0  0  0  0  0  0  0  0  0
   49.6140   32.0560   37.0600 C   0  0  0  0  0  0  0  0  0  0  0  0
   48.7230   32.8850   37.7650 C   0  0  0  0  0  0  0  0  0  0  0  0
   47.5120   33.0520   37.1180 C   0  0  0  0  0  0  0  0  0  0  0  0
   47.1620   32.4910   35.9110 C   0  0  0  0  0  0  0  0  0  0  0  0
   48.0610   31.6960   35.2700 C   0  0  0  0  0  0  0  0  0  0  0  0
   49.2810   31.4840   35.8480 C   0  0  0  0  0  0  0  0  0  0  0  0
   50.3230   30.6310   35.2190 C   0  0  0  0  0  0  0  0  0  0  0  0
   50.0870   29.7790   34.0610 C   0  0  0  0  0  0  0  0  0  0  0  0
   50.8470   31.0830   33.8620 C   0  0  0  0  0  0  0  0  0  0  0  0
   51.9480   31.6370   38.1560 N   0  0  0  0  0  0  0  0  0  0  0  0
   50.9180   31.8200   37.6620 C   0  0  0  0  0  0  0  0  0  0  0  0
   47.0579   35.0867   40.4263 H   0  0  0  0  0  0  0  0  0  0  0  0
   48.7012   35.4984   40.7568 H   0  0  0  0  0  0  0  0  0  0  0  0
   47.4992   32.7162   40.1243 H   0  0  0  0  0  0  0  0  0  0  0  0
   49.5066   31.8072   41.2656 H   0  0  0  0  0  0  0  0  0  0  0  0
   50.4210   33.2823   41.0623 H   0  0  0  0  0  0  0  0  0  0  0  0
   49.6188   33.9429   43.1564 H   0  0  0  0  0  0  0  0  0  0  0  0
   48.5276   32.5533   43.2325 H   0  0  0  0  0  0  0  0  0  0  0  0
   44.0527   36.5955   43.7795 H   0  0  0  0  0  0  0  0  0  0  0  0
   45.8195   36.2013   42.0685 H   0  0  0  0  0  0  0  0  0  0  0  0
   45.6225   33.4191   46.1288 H   0  0  0  0  0  0  0  0  0  0  0  0
   49.8085   34.1437   38.9901 H   0  0  0  0  0  0  0  0  0  0  0  0
   46.7631   33.6890   37.6113 H   0  0  0  0  0  0  0  0  0  0  0  0
   46.1718   32.6822   35.4718 H   0  0  0  0  0  0  0  0  0  0  0  0
   47.8104   31.2325   34.3044 H   0  0  0  0  0  0  0  0  0  0  0  0
   50.7324   30.4055   36.2148 H   0  0  0  0  0  0  0  0  0  0  0  0
   50.6170   28.8192   33.9723 H   0  0  0  0  0  0  0  0  0  0  0  0
   49.1913   29.3333   33.6038 H   0  0  0  0  0  0  0  0  0  0  0  0
   51.9262   31.0727   33.6492 H   0  0  0  0  0  0  0  0  0  0  0  0
   50.7413   31.9748   33.2268 H   0  0  0  0  0  0  0  0  0  0  0  0
  1  5  1  0
  1  8  1  0
  2  1  1  0
  3  2  1  0
  3  4  1  0
  4  5  1  0
  6 11  2  0
  7  8  2  0
  7  6  1  0
  8  9  1  0
  9 10  2  0
 11 10  1  0
 12  3  1  0
 13 23  1  0
 13 14  2  0
 14 12  1  0
 15 14  1  0
 16 15  2  0
 17 18  2  0
 17 16  1  0
 18 13  1  0
 19 18  1  0
 20 19  1  0
 21 20  1  0
 21 19  1  0
 23 22  3  0
  2 24  1  0
  2 25  1  0
  3 26  1  6
  4 27  1  0
  4 28  1  0
  5 29  1  0
  5 30  1  0
  6 31  1  0
  7 32  1  0
 10 33  1  0
 12 34  1  0
 15 35  1  0
 16 36  1  0
 17 37  1  0
 19 38  1  0
 20 39  1  0
 20 40  1  0
 21 41  1  0
 21 42  1  0
M  ISO  8  24  13  25  13  26  13  27  13  28  13  29  13  30  13  31  14
M  ISO  8  32  14  33  14  35  14  36  14  37  14  38  13  39  13  40  13
M  ISO  2  41  13  42  13
M  END
>  <minimizedAffinity>  (1) 
-4.8542223

>  <minimizedRMSD>  (1) 
1.78151858

$$$$
