
     RDKit          3D

 42 45  0  0  1  0  0  0  0  0999 V2000
   47.5090   33.7230   42.9620 N   0  0  0  0  0  0  0  0  0  0  0  0
   48.1970   34.1400   41.7470 C   0  0  0  0  0  0  0  0  0  0  0  0
   48.2040   32.8190   41.0310 C   0  0  2  0  0  0  0  0  0  0  0  0
   48.7360   31.8990   42.1200 C   0  0  0  0  0  0  0  0  0  0  0  0
   48.0890   32.4580   43.3580 C   0  0  0  0  0  0  0  0  0  0  0  0
   44.7480   35.9830   44.0240 C   0  0  0  0  0  0  0  0  0  0  0  0
   45.7520   35.4400   43.2200 C   0  0  0  0  0  0  0  0  0  0  0  0
   46.4790   34.3510   43.6780 C   0  0  0  0  0  0  0  0  0  0  0  0
   46.1640   33.8630   44.9130 N   0  0  0  0  0  0  0  0  0  0  0  0
   45.1970   34.3820   45.6910 C   0  0  0  0  0  0  0  0  0  0  0  0
   44.4880   35.4490   45.2380 N   0  0  0  0  0  0  0  0  0  0  0  0
   49.1290   32.7700   39.9410 N   0  0  0  0  0  0  0  0  0  0  0  0
   49.4780   31.8520   37.6400 C   0  0  0  0  0  0  0  0  0  0  0  0
   48.9560   32.8030   38.5360 C   0  0  0  0  0  0  0  0  0  0  0  0
   48.2420   33.8020   37.9260 C   0  0  0  0  0  0  0  0  0  0  0  0
   48.0140   33.9340   36.5880 C   0  0  0  0  0  0  0  0  0  0  0  0
   48.5400   32.9840   35.7450 C   0  0  0  0  0  0  0  0  0  0  0  0
   49.2740   31.9450   36.3070 C   0  0  0  0  0  0  0  0  0  0  0  0
   49.7370   30.9830   35.3110 C   0  0  0  0  0  0  0  0  0  0  0  0
   50.8110   30.9440   34.5690 C   0  0  0  0  0  0  0  0  0  0  0  0
   51.1680   30.0060   33.6980 C   0  0  0  0  0  0  0  0  0  0  0  0
   50.2060   28.9370   33.6170 C   0  0  0  0  0  0  0  0  0  0  0  0
   48.8990   29.4870   34.8590 S   0  0  0  0  0  0  0  0  0  0  0  0
   50.9160   29.9460   38.6910 N   0  0  0  0  0  0  0  0  0  0  0  0
   50.2690   30.7940   38.2100 C   0  0  0  0  0  0  0  0  0  0  0  0
   47.6349   34.9077   41.1950 H   0  0  0  0  0  0  0  0  0  0  0  0
   49.1809   34.6100   41.8923 H   0  0  0  0  0  0  0  0  0  0  0  0
   47.2189   32.5803   40.6037 H   0  0  0  0  0  0  0  0  0  0  0  0
   48.4290   30.8571   41.9461 H   0  0  0  0  0  0  0  0  0  0  0  0
   49.8343   31.8689   42.1728 H   0  0  0  0  0  0  0  0  0  0  0  0
   48.8400   32.6111   44.1470 H   0  0  0  0  0  0  0  0  0  0  0  0
   47.3294   31.7730   43.7627 H   0  0  0  0  0  0  0  0  0  0  0  0
   44.1675   36.8471   43.6687 H   0  0  0  0  0  0  0  0  0  0  0  0
   45.9648   35.8723   42.2312 H   0  0  0  0  0  0  0  0  0  0  0  0
   44.9834   33.9490   46.6794 H   0  0  0  0  0  0  0  0  0  0  0  0
   50.1132   32.6963   40.2357 H   0  0  0  0  0  0  0  0  0  0  0  0
   47.8103   34.5734   38.5807 H   0  0  0  0  0  0  0  0  0  0  0  0
   47.4261   34.7764   36.1946 H   0  0  0  0  0  0  0  0  0  0  0  0
   48.3849   33.0439   34.6576 H   0  0  0  0  0  0  0  0  0  0  0  0
   51.5046   31.7907   34.6783 H   0  0  0  0  0  0  0  0  0  0  0  0
   52.0941   30.0419   33.1055 H   0  0  0  0  0  0  0  0  0  0  0  0
   50.2283   28.0325   32.9914 H   0  0  0  0  0  0  0  0  0  0  0  0
  1  5  1  0
  1  8  1  0
  2  1  1  0
  3  2  1  0
  3  4  1  0
  4  5  1  0
  6 11  2  0
  7  8  2  0
  7  6  1  0
  8  9  1  0
  9 10  2  0
 11 10  1  0
 12  3  1  0
 13 25  1  0
 13 14  2  0
 14 12  1  0
 15 14  1  0
 16 15  2  0
 17 18  2  0
 17 16  1  0
 18 13  1  0
 19 18  1  0
 20 19  2  0
 21 20  1  0
 22 21  2  0
 22 23  1  0
 23 19  1  0
 25 24  3  0
  2 26  1  0
  2 27  1  0
  3 28  1  6
  4 29  1  0
  4 30  1  0
  5 31  1  0
  5 32  1  0
  6 33  1  0
  7 34  1  0
 10 35  1  0
 12 36  1  0
 15 37  1  0
 16 38  1  0
 17 39  1  0
 20 40  1  0
 21 41  1  0
 22 42  1  0
M  ISO  8  26  13  27  13  28  13  29  13  30  13  31  13  32  13  33  14
M  ISO  8  34  14  35  14  37  14  38  14  39  14  40  14  41  14  42  14
M  END
>  <minimizedAffinity>  (1) 
-4.68629551

>  <minimizedRMSD>  (1) 
0.842254579

$$$$
