
     RDKit          3D

 30 31  0  0  0  0  0  0  0  0999 V2000
   44.7640   36.6110   43.8230 C   0  0  0  0  0  0  0  0  0  0  0  0
   45.6620   36.3250   42.7910 C   0  0  0  0  0  0  0  0  0  0  0  0
   46.3290   35.0880   42.8260 C   0  0  0  0  0  0  0  0  0  0  0  0
   46.0730   34.2290   43.8570 N   0  0  0  0  0  0  0  0  0  0  0  0
   45.1890   34.5610   44.8340 C   0  0  0  0  0  0  0  0  0  0  0  0
   44.5240   35.7580   44.8260 N   0  0  0  0  0  0  0  0  0  0  0  0
   45.9040   32.5820   46.0390 C   0  0  0  0  0  0  0  0  0  0  0  0
   46.9180   32.4210   45.3120 O   0  0  0  0  0  0  0  0  0  0  0  0
   44.9510   33.6390   45.8880 N   0  0  0  0  0  0  0  0  0  0  0  0
   45.6650   31.6350   47.1170 C   0  0  0  0  0  0  0  0  0  0  0  0
   45.5300   32.0970   48.4330 C   0  0  0  0  0  0  0  0  0  0  0  0
   45.3020   31.2650   49.5120 C   0  0  0  0  0  0  0  0  0  0  0  0
   45.2050   29.9190   49.2700 C   0  0  0  0  0  0  0  0  0  0  0  0
   45.3380   29.4570   47.9670 C   0  0  0  0  0  0  0  0  0  0  0  0
   45.5580   30.3150   46.9640 N   0  0  0  0  0  0  0  0  0  0  0  0
   45.2360   28.0270   47.7030 C   0  0  0  0  0  0  0  0  0  0  0  0
   44.5390   27.2530   48.5200 C   0  0  0  0  0  0  0  0  0  0  0  0
   44.3310   25.7870   48.4020 C   0  0  0  0  0  0  0  0  0  0  0  0
   44.2338   37.5747   43.8104 H   0  0  0  0  0  0  0  0  0  0  0  0
   45.8410   37.0441   41.9781 H   0  0  0  0  0  0  0  0  0  0  0  0
   47.0451   34.8163   42.0364 H   0  0  0  0  0  0  0  0  0  0  0  0
   44.1354   33.7265   46.5109 H   0  0  0  0  0  0  0  0  0  0  0  0
   45.6097   33.1787   48.6165 H   0  0  0  0  0  0  0  0  0  0  0  0
   45.2017   31.6686   50.5304 H   0  0  0  0  0  0  0  0  0  0  0  0
   45.0245   29.2152   50.0959 H   0  0  0  0  0  0  0  0  0  0  0  0
   45.7375   27.5917   46.8261 H   0  0  0  0  0  0  0  0  0  0  0  0
   44.0626   27.7488   49.3786 H   0  0  0  0  0  0  0  0  0  0  0  0
   44.2681   25.3435   49.4067 H   0  0  0  0  0  0  0  0  0  0  0  0
   43.3962   25.5921   47.8560 H   0  0  0  0  0  0  0  0  0  0  0  0
   45.1747   25.3397   47.8560 H   0  0  0  0  0  0  0  0  0  0  0  0
  1  6  2  0
  2  3  2  0
  2  1  1  0
  3  4  1  0
  4  5  2  0
  5  9  1  0
  6  5  1  0
  7 10  1  0
  8  7  2  0
  9  7  1  0
 10 11  2  0
 11 12  1  0
 13 12  2  0
 14 13  1  0
 15 10  1  0
 15 14  2  0
 16 14  1  0
 16 17  2  0
 18 17  1  0
  1 19  1  0
  2 20  1  0
  3 21  1  0
  9 22  1  0
 11 23  1  0
 12 24  1  0
 13 25  1  0
 16 26  1  0
 17 27  1  0
 18 28  1  0
 18 29  1  0
 18 30  1  0
M  ISO  8  19  14  20  14  21  14  23  14  24  14  25  14  28   8  29   8
M  ISO  1  30   8
M  END
>  <minimizedAffinity>  (1) 
-5.1906147

>  <minimizedRMSD>  (1) 
0.162047252

$$$$
