
     RDKit          3D

 53 57  0  0  1  0  0  0  0  0999 V2000
   48.8340   32.3200   37.0780 C   0  0  0  0  0  0  0  0  0  0  0  0
   48.1180   33.0040   38.0870 C   0  0  0  0  0  0  0  0  0  0  0  0
   46.8030   33.2530   37.7460 C   0  0  0  0  0  0  0  0  0  0  0  0
   46.1820   32.9090   36.5800 C   0  0  0  0  0  0  0  0  0  0  0  0
   46.9210   32.2400   35.6230 C   0  0  0  0  0  0  0  0  0  0  0  0
   48.2270   31.9660   35.9030 C   0  0  0  0  0  0  0  0  0  0  0  0
   49.3940   31.9610   33.7210 C   0  0  0  0  0  0  0  0  0  0  0  0
   49.0810   33.1730   33.5960 O   0  0  0  0  0  0  0  0  0  0  0  0
   48.9600   31.2880   34.8800 N   0  0  0  0  0  0  0  0  0  0  0  0
   50.1640   31.0310   32.8650 C   0  0  0  0  0  0  0  0  0  0  0  0
   51.5060   30.8580   32.8860 N   0  0  0  0  0  0  0  0  0  0  0  0
   52.1870   30.0320   32.1240 C   0  0  0  0  0  0  0  0  0  0  0  0
   51.5840   29.2650   31.2290 N   0  0  0  0  0  0  0  0  0  0  0  0
   50.2320   29.3390   31.1010 C   0  0  0  0  0  0  0  0  0  0  0  0
   49.6100   28.5410   30.1690 C   0  0  0  0  0  0  0  0  0  0  0  0
   48.2450   28.5880   30.0120 C   0  0  0  0  0  0  0  0  0  0  0  0
   47.5250   29.4600   30.8160 C   0  0  0  0  0  0  0  0  0  0  0  0
   48.2120   30.2260   31.7240 C   0  0  0  0  0  0  0  0  0  0  0  0
   49.5730   30.2220   31.9250 C   0  0  0  0  0  0  0  0  0  0  0  0
   48.6750   33.4010   39.3160 N   0  0  0  0  0  0  0  0  0  0  0  0
   47.5110   34.4860   42.4960 N   0  0  0  0  0  0  0  0  0  0  0  0
   47.5170   34.7010   41.0470 C   0  0  0  0  0  0  0  0  0  0  0  0
   48.1600   33.4000   40.6430 C   0  0  2  0  0  0  0  0  0  0  0  0
   49.3550   33.3420   41.5860 C   0  0  0  0  0  0  0  0  0  0  0  0
   48.8020   33.9510   42.8430 C   0  0  0  0  0  0  0  0  0  0  0  0
   44.5820   35.8640   44.3310 C   0  0  0  0  0  0  0  0  0  0  0  0
   45.5320   35.7320   43.3270 C   0  0  0  0  0  0  0  0  0  0  0  0
   46.5010   34.7220   43.4400 C   0  0  0  0  0  0  0  0  0  0  0  0
   46.4510   33.9210   44.5490 N   0  0  0  0  0  0  0  0  0  0  0  0
   45.5260   34.0570   45.5160 C   0  0  0  0  0  0  0  0  0  0  0  0
   44.5980   35.0290   45.4010 N   0  0  0  0  0  0  0  0  0  0  0  0
   51.3250   31.7670   37.5650 N   0  0  0  0  0  0  0  0  0  0  0  0
   50.2230   32.0180   37.3580 C   0  0  0  0  0  0  0  0  0  0  0  0
   46.1926   33.7837   38.4915 H   0  0  0  0  0  0  0  0  0  0  0  0
   45.1243   33.1571   36.4073 H   0  0  0  0  0  0  0  0  0  0  0  0
   46.4702   31.9382   34.6661 H   0  0  0  0  0  0  0  0  0  0  0  0
   49.1752   30.2870   34.9926 H   0  0  0  0  0  0  0  0  0  0  0  0
   53.2803   29.9767   32.2319 H   0  0  0  0  0  0  0  0  0  0  0  0
   50.2087   27.8609   29.5453 H   0  0  0  0  0  0  0  0  0  0  0  0
   47.7384   27.9528   29.2705 H   0  0  0  0  0  0  0  0  0  0  0  0
   46.4311   29.5354   30.7278 H   0  0  0  0  0  0  0  0  0  0  0  0
   47.6182   30.9078   32.3505 H   0  0  0  0  0  0  0  0  0  0  0  0
   49.6374   33.7604   39.2417 H   0  0  0  0  0  0  0  0  0  0  0  0
   46.5016   34.8084   40.6378 H   0  0  0  0  0  0  0  0  0  0  0  0
   48.0183   35.6156   40.6974 H   0  0  0  0  0  0  0  0  0  0  0  0
   47.4383   32.5711   40.6882 H   0  0  0  0  0  0  0  0  0  0  0  0
   49.6787   32.3044   41.7552 H   0  0  0  0  0  0  0  0  0  0  0  0
   50.2453   33.8604   41.2006 H   0  0  0  0  0  0  0  0  0  0  0  0
   49.4637   34.7535   43.2010 H   0  0  0  0  0  0  0  0  0  0  0  0
   48.7238   33.2060   43.6485 H   0  0  0  0  0  0  0  0  0  0  0  0
   43.8138   36.6480   44.2590 H   0  0  0  0  0  0  0  0  0  0  0  0
   45.5257   36.4068   42.4583 H   0  0  0  0  0  0  0  0  0  0  0  0
   45.5264   33.3857   46.3874 H   0  0  0  0  0  0  0  0  0  0  0  0
  1 33  1  0
  1  2  2  0
  2 20  1  0
  3  2  1  0
  4  3  2  0
  5  6  2  0
  5  4  1  0
  6  1  1  0
  7  9  1  0
  8  7  2  0
  9  6  1  0
 10 11  2  0
 10  7  1  0
 12 11  1  0
 13 12  2  0
 14 13  1  0
 14 19  2  0
 15 14  1  0
 16 15  2  0
 16 17  1  0
 17 18  2  0
 18 19  1  0
 19 10  1  0
 20 23  1  0
 21 25  1  0
 21 28  1  0
 22 21  1  0
 23 22  1  0
 23 24  1  0
 24 25  1  0
 26 31  2  0
 27 28  2  0
 27 26  1  0
 28 29  1  0
 29 30  2  0
 31 30  1  0
 33 32  3  0
  3 34  1  0
  4 35  1  0
  5 36  1  0
  9 37  1  0
 12 38  1  0
 15 39  1  0
 16 40  1  0
 17 41  1  0
 18 42  1  0
 20 43  1  0
 22 44  1  0
 22 45  1  0
 23 46  1  6
 24 47  1  0
 24 48  1  0
 25 49  1  0
 25 50  1  0
 26 51  1  0
 27 52  1  0
 30 53  1  0
M  ISO  8  34  14  35  14  36  14  38  14  39  14  40  14  41  14  42  14
M  ISO  8  44  13  45  13  46  13  47  13  48  13  49  13  50  13  51  14
M  ISO  2  52  14  53  14
M  END
>  <minimizedAffinity>  (1) 
-6.42204142

>  <minimizedRMSD>  (1) 
0.365919143

$$$$
