
     RDKit          3D

 49 52  0  0  1  0  0  0  0  0999 V2000
   47.7730   31.9720   36.8270 C   0  0  0  0  0  0  0  0  0  0  0  0
   47.2930   32.7140   37.9280 C   0  0  0  0  0  0  0  0  0  0  0  0
   45.9610   33.0580   37.8030 C   0  0  0  0  0  0  0  0  0  0  0  0
   45.1310   32.7520   36.7580 C   0  0  0  0  0  0  0  0  0  0  0  0
   45.6460   32.0260   35.7080 C   0  0  0  0  0  0  0  0  0  0  0  0
   46.9590   31.6570   35.7760 C   0  0  0  0  0  0  0  0  0  0  0  0
   47.8090   31.5450   33.4610 C   0  0  0  0  0  0  0  0  0  0  0  0
   47.6640   32.8150   33.3870 O   0  0  0  0  0  0  0  0  0  0  0  0
   47.4730   30.9070   34.6630 N   0  0  0  0  0  0  0  0  0  0  0  0
   50.3720   31.9340   32.1430 F   0  0  0  0  0  0  0  0  0  0  0  0
   49.5100   31.0390   31.6340 C   0  0  0  0  0  0  0  0  0  0  0  0
   48.3170   30.8760   32.2730 C   0  0  0  0  0  0  0  0  0  0  0  0
   47.5170   29.9170   31.6430 C   0  0  0  0  0  0  0  0  0  0  0  0
   47.8860   29.2200   30.5160 C   0  0  0  0  0  0  0  0  0  0  0  0
   49.1020   29.4480   29.9420 C   0  0  0  0  0  0  0  0  0  0  0  0
   49.9290   30.3790   30.5180 C   0  0  0  0  0  0  0  0  0  0  0  0
   48.0670   33.0780   39.0420 N   0  0  0  0  0  0  0  0  0  0  0  0
   47.2770   34.3800   42.2560 N   0  0  0  0  0  0  0  0  0  0  0  0
   47.0510   34.4420   40.8100 C   0  0  0  0  0  0  0  0  0  0  0  0
   47.7610   33.1700   40.4300 C   0  0  2  0  0  0  0  0  0  0  0  0
   49.0850   33.3400   41.1660 C   0  0  0  0  0  0  0  0  0  0  0  0
   48.6560   34.0000   42.4430 C   0  0  0  0  0  0  0  0  0  0  0  0
   44.6290   35.7950   44.4660 C   0  0  0  0  0  0  0  0  0  0  0  0
   45.4470   35.6500   43.3450 C   0  0  0  0  0  0  0  0  0  0  0  0
   46.4050   34.6200   43.3210 C   0  0  0  0  0  0  0  0  0  0  0  0
   46.4670   33.8220   44.4130 N   0  0  0  0  0  0  0  0  0  0  0  0
   45.6840   33.9520   45.5030 C   0  0  0  0  0  0  0  0  0  0  0  0
   44.7700   34.9430   45.5110 N   0  0  0  0  0  0  0  0  0  0  0  0
   50.2670   31.2400   36.9070 N   0  0  0  0  0  0  0  0  0  0  0  0
   49.1600   31.5700   36.8770 C   0  0  0  0  0  0  0  0  0  0  0  0
   45.5218   33.6377   38.6283 H   0  0  0  0  0  0  0  0  0  0  0  0
   44.0803   33.0777   36.7575 H   0  0  0  0  0  0  0  0  0  0  0  0
   45.0218   31.7527   34.8445 H   0  0  0  0  0  0  0  0  0  0  0  0
   47.5960   29.8880   34.7497 H   0  0  0  0  0  0  0  0  0  0  0  0
   46.5284   29.7065   32.0771 H   0  0  0  0  0  0  0  0  0  0  0  0
   47.2008   28.4793   30.0780 H   0  0  0  0  0  0  0  0  0  0  0  0
   49.4118   28.8995   29.0403 H   0  0  0  0  0  0  0  0  0  0  0  0
   50.9177   30.5899   30.0844 H   0  0  0  0  0  0  0  0  0  0  0  0
   49.0400   33.3252   38.8116 H   0  0  0  0  0  0  0  0  0  0  0  0
   45.9815   34.4142   40.5542 H   0  0  0  0  0  0  0  0  0  0  0  0
   47.3981   35.3565   40.3067 H   0  0  0  0  0  0  0  0  0  0  0  0
   47.1534   32.2843   40.6676 H   0  0  0  0  0  0  0  0  0  0  0  0
   49.5610   32.3675   41.3601 H   0  0  0  0  0  0  0  0  0  0  0  0
   49.8330   33.9158   40.6013 H   0  0  0  0  0  0  0  0  0  0  0  0
   49.2734   34.8891   42.6388 H   0  0  0  0  0  0  0  0  0  0  0  0
   48.7724   33.3236   43.3026 H   0  0  0  0  0  0  0  0  0  0  0  0
   43.8749   36.5951   44.5016 H   0  0  0  0  0  0  0  0  0  0  0  0
   45.3440   36.3336   42.4894 H   0  0  0  0  0  0  0  0  0  0  0  0
   45.7878   33.2701   46.3598 H   0  0  0  0  0  0  0  0  0  0  0  0
  1 30  1  0
  1  2  2  0
  2 17  1  0
  3  2  1  0
  4  3  2  0
  5  6  2  0
  5  4  1  0
  6  1  1  0
  7  9  1  0
  8  7  2  0
  9  6  1  0
 11 10  1  0
 11 12  2  0
 12  7  1  0
 13 12  1  0
 14 13  2  0
 15 14  1  0
 15 16  2  0
 16 11  1  0
 17 20  1  0
 18 22  1  0
 18 25  1  0
 19 18  1  0
 20 19  1  0
 20 21  1  0
 21 22  1  0
 23 28  2  0
 24 23  1  0
 25 24  2  0
 25 26  1  0
 26 27  2  0
 27 28  1  0
 30 29  3  0
  3 31  1  0
  4 32  1  0
  5 33  1  0
  9 34  1  0
 13 35  1  0
 14 36  1  0
 15 37  1  0
 16 38  1  0
 17 39  1  0
 19 40  1  0
 19 41  1  0
 20 42  1  1
 21 43  1  0
 21 44  1  0
 22 45  1  0
 22 46  1  0
 23 47  1  0
 24 48  1  0
 27 49  1  0
M  ISO  8  31  14  32  14  33  14  35  14  36  14  37  14  38  14  40  13
M  ISO  8  41  13  42  13  43  13  44  13  45  13  46  13  47  14  48  14
M  ISO  1  49  14
M  END
>  <minimizedAffinity>  (1) 
-5.80874825

>  <minimizedRMSD>  (1) 
1.65637636

$$$$
