
     RDKit          3D

 46 49  0  0  1  0  0  0  0  0999 V2000
   48.6300   33.5050   39.2260 N   0  0  0  0  0  0  0  0  0  0  0  0
   47.5150   34.4720   42.4640 N   0  0  0  0  0  0  0  0  0  0  0  0
   47.5240   34.7460   41.0300 C   0  0  0  0  0  0  0  0  0  0  0  0
   48.1120   33.4450   40.5620 C   0  0  2  0  0  0  0  0  0  0  0  0
   49.2940   33.2750   41.4970 C   0  0  0  0  0  0  0  0  0  0  0  0
   48.7820   33.8790   42.7780 C   0  0  0  0  0  0  0  0  0  0  0  0
   44.5870   35.8510   44.3310 C   0  0  0  0  0  0  0  0  0  0  0  0
   45.5310   35.7110   43.3240 C   0  0  0  0  0  0  0  0  0  0  0  0
   46.5110   34.7090   43.4160 C   0  0  0  0  0  0  0  0  0  0  0  0
   46.4630   33.9220   44.5160 N   0  0  0  0  0  0  0  0  0  0  0  0
   45.5570   34.0440   45.4960 C   0  0  0  0  0  0  0  0  0  0  0  0
   44.6130   35.0230   45.3920 N   0  0  0  0  0  0  0  0  0  0  0  0
   48.8500   32.3180   37.0400 C   0  0  0  0  0  0  0  0  0  0  0  0
   48.1140   33.0400   37.9990 C   0  0  0  0  0  0  0  0  0  0  0  0
   46.8250   33.2510   37.6200 C   0  0  0  0  0  0  0  0  0  0  0  0
   46.2280   32.8390   36.4470 C   0  0  0  0  0  0  0  0  0  0  0  0
   47.0060   32.1340   35.5480 C   0  0  0  0  0  0  0  0  0  0  0  0
   48.3100   31.8880   35.8690 C   0  0  0  0  0  0  0  0  0  0  0  0
   49.5540   31.8420   33.7560 C   0  0  0  0  0  0  0  0  0  0  0  0
   49.2160   33.0410   33.5320 O   0  0  0  0  0  0  0  0  0  0  0  0
   49.0670   31.1570   34.9040 N   0  0  0  0  0  0  0  0  0  0  0  0
   50.4540   30.9360   32.9620 C   0  0  0  0  0  0  0  0  0  0  0  0
   51.7210   30.6080   33.4750 C   0  0  0  0  0  0  0  0  0  0  0  0
   52.5280   29.7960   32.7630 C   0  0  0  0  0  0  0  0  0  0  0  0
   52.0770   29.2710   31.4710 C   0  0  0  0  0  0  0  0  0  0  0  0
   50.3560   30.0630   31.3700 S   0  0  0  0  0  0  0  0  0  0  0  0
   51.3560   31.8280   37.6220 N   0  0  0  0  0  0  0  0  0  0  0  0
   50.2500   32.0480   37.3720 C   0  0  0  0  0  0  0  0  0  0  0  0
   49.5446   33.9724   39.1489 H   0  0  0  0  0  0  0  0  0  0  0  0
   46.5116   34.9107   40.6326 H   0  0  0  0  0  0  0  0  0  0  0  0
   48.0616   35.6540   40.7192 H   0  0  0  0  0  0  0  0  0  0  0  0
   47.3579   32.6441   40.5656 H   0  0  0  0  0  0  0  0  0  0  0  0
   49.5461   32.2127   41.6308 H   0  0  0  0  0  0  0  0  0  0  0  0
   50.2177   33.7446   41.1279 H   0  0  0  0  0  0  0  0  0  0  0  0
   49.4811   34.6453   43.1441 H   0  0  0  0  0  0  0  0  0  0  0  0
   48.6836   33.1193   43.5674 H   0  0  0  0  0  0  0  0  0  0  0  0
   43.8197   36.6362   44.2626 H   0  0  0  0  0  0  0  0  0  0  0  0
   45.5120   36.3842   42.4542 H   0  0  0  0  0  0  0  0  0  0  0  0
   45.5743   33.3696   46.3649 H   0  0  0  0  0  0  0  0  0  0  0  0
   46.1910   33.8098   38.3241 H   0  0  0  0  0  0  0  0  0  0  0  0
   45.1722   33.0631   36.2348 H   0  0  0  0  0  0  0  0  0  0  0  0
   46.5843   31.7794   34.5960 H   0  0  0  0  0  0  0  0  0  0  0  0
   49.2568   30.1533   35.0364 H   0  0  0  0  0  0  0  0  0  0  0  0
   52.0499   31.0088   34.4452 H   0  0  0  0  0  0  0  0  0  0  0  0
   53.5220   29.5283   33.1506 H   0  0  0  0  0  0  0  0  0  0  0  0
   52.5908   28.6062   30.7611 H   0  0  0  0  0  0  0  0  0  0  0  0
  1  4  1  0
  2  6  1  0
  2  9  1  0
  3  2  1  0
  4  3  1  0
  4  5  1  0
  5  6  1  0
  7 12  2  0
  8  9  2  0
  8  7  1  0
  9 10  1  0
 10 11  2  0
 12 11  1  0
 13 28  1  0
 13 14  2  0
 14  1  1  0
 15 14  1  0
 16 15  2  0
 17 18  2  0
 17 16  1  0
 18 13  1  0
 19 21  1  0
 20 19  2  0
 21 18  1  0
 22 23  2  0
 22 19  1  0
 24 23  1  0
 25 24  2  0
 26 25  1  0
 26 22  1  0
 28 27  3  0
  1 29  1  0
  3 30  1  0
  3 31  1  0
  4 32  1  6
  5 33  1  0
  5 34  1  0
  6 35  1  0
  6 36  1  0
  7 37  1  0
  8 38  1  0
 11 39  1  0
 15 40  1  0
 16 41  1  0
 17 42  1  0
 21 43  1  0
 23 44  1  0
 24 45  1  0
 25 46  1  0
M  ISO  8  30  13  31  13  32  13  33  13  34  13  35  13  36  13  37  14
M  ISO  8  38  14  39  14  40  14  41  14  42  14  44  14  45  14  46  14
M  END
>  <minimizedAffinity>  (1) 
-5.56695747

>  <minimizedRMSD>  (1) 
0.1044994

$$$$
