
     RDKit          3D

 41 43  0  0  1  0  0  0  0  0999 V2000
   47.5210   34.4970   42.4340 N   0  0  0  0  0  0  0  0  0  0  0  0
   47.5210   34.7310   40.9930 C   0  0  0  0  0  0  0  0  0  0  0  0
   48.1380   33.4300   40.5570 C   0  0  2  0  0  0  0  0  0  0  0  0
   49.3250   33.3100   41.4870 C   0  0  0  0  0  0  0  0  0  0  0  0
   48.8170   33.9610   42.7560 C   0  0  0  0  0  0  0  0  0  0  0  0
   44.6050   35.8490   44.3220 C   0  0  0  0  0  0  0  0  0  0  0  0
   45.5470   35.7180   43.3150 C   0  0  0  0  0  0  0  0  0  0  0  0
   46.5250   34.7100   43.4020 C   0  0  0  0  0  0  0  0  0  0  0  0
   46.4780   33.9110   44.4960 N   0  0  0  0  0  0  0  0  0  0  0  0
   45.5720   34.0310   45.4720 C   0  0  0  0  0  0  0  0  0  0  0  0
   44.6310   35.0050   45.3850 N   0  0  0  0  0  0  0  0  0  0  0  0
   48.6370   33.4760   39.2080 N   0  0  0  0  0  0  0  0  0  0  0  0
   48.8140   32.2830   37.0360 C   0  0  0  0  0  0  0  0  0  0  0  0
   48.0920   33.0230   37.9940 C   0  0  0  0  0  0  0  0  0  0  0  0
   46.8000   33.2630   37.6360 C   0  0  0  0  0  0  0  0  0  0  0  0
   46.1900   32.8580   36.4750 C   0  0  0  0  0  0  0  0  0  0  0  0
   46.9400   32.1330   35.5620 C   0  0  0  0  0  0  0  0  0  0  0  0
   48.2430   31.8610   35.8660 C   0  0  0  0  0  0  0  0  0  0  0  0
   49.4810   31.7920   33.7420 C   0  0  0  0  0  0  0  0  0  0  0  0
   49.2240   33.0210   33.5690 O   0  0  0  0  0  0  0  0  0  0  0  0
   48.9750   31.1110   34.8960 N   0  0  0  0  0  0  0  0  0  0  0  0
   50.2520   30.9370   32.8950 N   0  0  0  0  0  0  0  0  0  0  0  0
   51.3060   31.7440   37.5830 N   0  0  0  0  0  0  0  0  0  0  0  0
   50.2120   31.9780   37.3360 C   0  0  0  0  0  0  0  0  0  0  0  0
   46.5042   34.8619   40.5942 H   0  0  0  0  0  0  0  0  0  0  0  0
   48.0379   35.6418   40.6565 H   0  0  0  0  0  0  0  0  0  0  0  0
   47.4105   32.6056   40.5901 H   0  0  0  0  0  0  0  0  0  0  0  0
   49.5894   32.2563   41.6596 H   0  0  0  0  0  0  0  0  0  0  0  0
   50.2395   33.7763   41.0918 H   0  0  0  0  0  0  0  0  0  0  0  0
   49.4965   34.7666   43.0710 H   0  0  0  0  0  0  0  0  0  0  0  0
   48.7608   33.2399   43.5847 H   0  0  0  0  0  0  0  0  0  0  0  0
   43.8378   36.6349   44.2605 H   0  0  0  0  0  0  0  0  0  0  0  0
   45.5306   36.3989   42.4512 H   0  0  0  0  0  0  0  0  0  0  0  0
   45.5892   33.3488   46.3347 H   0  0  0  0  0  0  0  0  0  0  0  0
   49.5610   33.9216   39.1152 H   0  0  0  0  0  0  0  0  0  0  0  0
   46.1861   33.8368   38.3458 H   0  0  0  0  0  0  0  0  0  0  0  0
   45.1362   33.1017   36.2748 H   0  0  0  0  0  0  0  0  0  0  0  0
   46.4968   31.7858   34.6170 H   0  0  0  0  0  0  0  0  0  0  0  0
   49.1357   30.1016   35.0235 H   0  0  0  0  0  0  0  0  0  0  0  0
   50.6712   31.3098   32.0312 H   0  0  0  0  0  0  0  0  0  0  0  0
   50.3884   29.9480   33.1485 H   0  0  0  0  0  0  0  0  0  0  0  0
  1  5  1  0
  1  8  1  0
  2  1  1  0
  3  2  1  0
  3  4  1  0
  4  5  1  0
  6 11  2  0
  7  8  2  0
  7  6  1  0
  8  9  1  0
  9 10  2  0
 11 10  1  0
 12  3  1  0
 13 24  1  0
 13 14  2  0
 14 12  1  0
 15 14  1  0
 16 15  2  0
 17 18  2  0
 17 16  1  0
 18 13  1  0
 19 21  1  0
 20 19  2  0
 21 18  1  0
 22 19  1  0
 24 23  3  0
  2 25  1  0
  2 26  1  0
  3 27  1  6
  4 28  1  0
  4 29  1  0
  5 30  1  0
  5 31  1  0
  6 32  1  0
  7 33  1  0
 10 34  1  0
 12 35  1  0
 15 36  1  0
 16 37  1  0
 17 38  1  0
 21 39  1  0
 22 40  1  0
 22 41  1  0
M  ISO  8  25  13  26  13  27  13  28  13  29  13  30  13  31  13  32  14
M  ISO  5  33  14  34  14  36  14  37  14  38  14
M  END
>  <minimizedAffinity>  (1) 
-5.11657906

>  <minimizedRMSD>  (1) 
0.0461986773

$$$$
