
     RDKit          3D

 42 44  0  0  0  0  0  0  0  0999 V2000
   45.6510   31.5710   47.1430 C   0  0  0  0  0  0  0  0  0  0  0  0
   45.6240   32.0370   48.4740 C   0  0  0  0  0  0  0  0  0  0  0  0
   45.4020   31.2120   49.5520 C   0  0  0  0  0  0  0  0  0  0  0  0
   45.1990   29.8770   49.3070 C   0  0  0  0  0  0  0  0  0  0  0  0
   45.2270   29.4160   47.9840 C   0  0  0  0  0  0  0  0  0  0  0  0
   45.4470   30.2670   46.9880 N   0  0  0  0  0  0  0  0  0  0  0  0
   44.7980   36.5440   43.8300 C   0  0  0  0  0  0  0  0  0  0  0  0
   45.6880   36.2410   42.8050 C   0  0  0  0  0  0  0  0  0  0  0  0
   46.3440   34.9910   42.8320 C   0  0  0  0  0  0  0  0  0  0  0  0
   46.0790   34.1310   43.8600 N   0  0  0  0  0  0  0  0  0  0  0  0
   45.1950   34.4840   44.8390 C   0  0  0  0  0  0  0  0  0  0  0  0
   44.5510   35.6850   44.8330 N   0  0  0  0  0  0  0  0  0  0  0  0
   45.8940   32.5090   46.0560 C   0  0  0  0  0  0  0  0  0  0  0  0
   46.9100   32.3370   45.3290 O   0  0  0  0  0  0  0  0  0  0  0  0
   44.9360   33.5740   45.9050 N   0  0  0  0  0  0  0  0  0  0  0  0
   45.0210   28.0040   47.7390 C   0  0  0  0  0  0  0  0  0  0  0  0
   44.6330   27.2110   48.7110 C   0  0  0  0  0  0  0  0  0  0  0  0
   44.3830   25.7480   48.6690 C   0  0  0  0  0  0  0  0  0  0  0  0
   45.4320   24.5670   50.4580 C   0  0  0  0  0  0  0  0  0  0  0  0
   45.5750   24.9780   49.1270 C   0  0  0  0  0  0  0  0  0  0  0  0
   46.7240   24.6440   48.4400 C   0  0  0  0  0  0  0  0  0  0  0  0
   47.7120   23.9130   49.0630 C   0  0  0  0  0  0  0  0  0  0  0  0
   47.5780   23.4990   50.3860 C   0  0  0  0  0  0  0  0  0  0  0  0
   46.4410   23.8360   51.0530 C   0  0  0  0  0  0  0  0  0  0  0  0
   44.3200   24.8380   51.2710 O   0  0  0  0  0  0  0  0  0  0  0  0
   46.3390   23.4060   52.3760 O   0  0  0  0  0  0  0  0  0  0  0  0
   45.7879   33.1090   48.6583 H   0  0  0  0  0  0  0  0  0  0  0  0
   45.3876   31.6095   50.5776 H   0  0  0  0  0  0  0  0  0  0  0  0
   45.0169   29.1788   50.1373 H   0  0  0  0  0  0  0  0  0  0  0  0
   44.2814   37.5151   43.8191 H   0  0  0  0  0  0  0  0  0  0  0  0
   45.8763   36.9582   41.9925 H   0  0  0  0  0  0  0  0  0  0  0  0
   47.0554   34.7146   42.0398 H   0  0  0  0  0  0  0  0  0  0  0  0
   44.1194   33.6713   46.5251 H   0  0  0  0  0  0  0  0  0  0  0  0
   45.1905   27.5932   46.7328 H   0  0  0  0  0  0  0  0  0  0  0  0
   44.4718   27.6947   49.6857 H   0  0  0  0  0  0  0  0  0  0  0  0
   43.5313   25.5117   49.3238 H   0  0  0  0  0  0  0  0  0  0  0  0
   44.1667   25.4639   47.6286 H   0  0  0  0  0  0  0  0  0  0  0  0
   46.8514   24.9614   47.3945 H   0  0  0  0  0  0  0  0  0  0  0  0
   48.6233   23.6516   48.5052 H   0  0  0  0  0  0  0  0  0  0  0  0
   48.3699   22.9154   50.8783 H   0  0  0  0  0  0  0  0  0  0  0  0
   43.5582   25.3575   50.9106 H   0  0  0  0  0  0  0  0  0  0  0  0
   47.0735   22.8828   52.7845 H   0  0  0  0  0  0  0  0  0  0  0  0
  1  2  2  0
  2  3  1  0
  4  3  2  0
  5  4  1  0
  6  1  1  0
  6  5  2  0
  7 12  2  0
  8  9  2  0
  8  7  1  0
  9 10  1  0
 10 11  2  0
 11 15  1  0
 12 11  1  0
 13  1  1  0
 14 13  2  0
 15 13  1  0
 16  5  1  0
 16 17  2  0
 18 17  1  0
 18 20  1  0
 19 24  2  0
 19 25  1  0
 20 19  1  0
 21 22  1  0
 21 20  2  0
 22 23  2  0
 23 24  1  0
 24 26  1  0
  2 27  1  0
  3 28  1  0
  4 29  1  0
  7 30  1  0
  8 31  1  0
  9 32  1  0
 15 33  1  0
 16 34  1  0
 17 35  1  0
 18 36  1  0
 18 37  1  0
 21 38  1  0
 22 39  1  0
 23 40  1  0
 25 41  1  0
 26 42  1  0
M  ISO  8  27  14  28  14  29  14  30  14  31  14  32  14  36   8  37   8
M  ISO  5  38  14  39  14  40  14  41   3  42   3
M  END
>  <minimizedAffinity>  (1) 
-6.82966375

>  <minimizedRMSD>  (1) 
2.38297939

$$$$
