
     RDKit          3D

 31 32  0  0  0  0  0  0  0  0999 V2000
   47.7650   34.7390   41.6970 C   0  0  0  0  0  0  0  0  0  0  0  0
   47.5530   34.2770   40.3320 C   0  0  0  0  0  0  0  0  0  0  0  0
   48.3560   34.6940   39.3020 C   0  0  0  0  0  0  0  0  0  0  0  0
   48.1730   34.2680   37.9940 C   0  0  0  0  0  0  0  0  0  0  0  0
   47.1290   33.3980   37.8050 N   0  0  0  0  0  0  0  0  0  0  0  0
   46.3510   32.9970   38.8190 C   0  0  0  0  0  0  0  0  0  0  0  0
   46.5520   33.4240   40.0690 N   0  0  0  0  0  0  0  0  0  0  0  0
   43.9540   32.5420   38.2550 C   0  0  0  0  0  0  0  0  0  0  0  0
   43.7140   33.7750   38.1680 O   0  0  0  0  0  0  0  0  0  0  0  0
   45.2650   32.0820   38.5800 N   0  0  0  0  0  0  0  0  0  0  0  0
   46.4530   35.0580   42.3460 C   0  0  0  0  0  0  0  0  0  0  0  0
   44.5150   36.3670   44.1890 Cl  0  0  0  0  0  0  0  0  0  0  0  0
   45.3990   34.9260   44.6190 C   0  0  0  0  0  0  0  0  0  0  0  0
   46.2700   34.4170   43.6720 C   0  0  0  0  0  0  0  0  0  0  0  0
   46.9740   33.2830   43.9940 C   0  0  0  0  0  0  0  0  0  0  0  0
   46.8220   32.6600   45.2290 C   0  0  0  0  0  0  0  0  0  0  0  0
   45.9340   33.1890   46.1820 C   0  0  0  0  0  0  0  0  0  0  0  0
   45.2320   34.3270   45.8490 C   0  0  0  0  0  0  0  0  0  0  0  0
   44.3220   34.9380   46.7220 O   0  0  0  0  0  0  0  0  0  0  0  0
   48.3917   35.6429   41.6813 H   0  0  0  0  0  0  0  0  0  0  0  0
   48.2650   33.9447   42.2707 H   0  0  0  0  0  0  0  0  0  0  0  0
   49.1767   35.3930   39.5207 H   0  0  0  0  0  0  0  0  0  0  0  0
   48.8181   34.6035   37.1686 H   0  0  0  0  0  0  0  0  0  0  0  0
   43.1477   31.8147   38.0793 H   0  0  0  0  0  0  0  0  0  0  0  0
   45.4392   31.0689   38.6454 H   0  0  0  0  0  0  0  0  0  0  0  0
   46.3860   36.1483   42.4755 H   0  0  0  0  0  0  0  0  0  0  0  0
   45.6651   34.6634   41.6875 H   0  0  0  0  0  0  0  0  0  0  0  0
   47.6736   32.8576   43.2595 H   0  0  0  0  0  0  0  0  0  0  0  0
   47.3979   31.7517   45.4601 H   0  0  0  0  0  0  0  0  0  0  0  0
   45.8036   32.7092   47.1632 H   0  0  0  0  0  0  0  0  0  0  0  0
   44.1613   34.5519   47.6193 H   0  0  0  0  0  0  0  0  0  0  0  0
  1 11  1  0
  2  1  1  0
  3  2  2  0
  4  3  1  0
  5  4  2  0
  5  6  1  0
  6  7  2  0
  7  2  1  0
  8 10  1  0
  9  8  2  0
 10  6  1  0
 11 14  1  0
 12 13  1  0
 13 18  2  0
 14 15  2  0
 14 13  1  0
 15 16  1  0
 16 17  2  0
 18 17  1  0
 18 19  1  0
  1 20  1  0
  1 21  1  0
  3 22  1  0
  4 23  1  0
  8 24  1  0
 10 25  1  0
 11 26  1  0
 11 27  1  0
 15 28  1  0
 16 29  1  0
 17 30  1  0
 19 31  1  0
M  ISO  8  20   8  21   8  22  14  23  14  24   6  26   8  27   8  28  14
M  ISO  3  29  14  30  14  31   3
M  END
>  <minimizedAffinity>  (1) 
-5.63479996

>  <minimizedRMSD>  (1) 
4.49222994

$$$$
