
     RDKit          3D

 33 34  0  0  0  0  0  0  0  0999 V2000
   46.6390   34.9210   42.3390 C   0  0  0  0  0  0  0  0  0  0  0  0
   44.6690   36.4170   43.9870 Cl  0  0  0  0  0  0  0  0  0  0  0  0
   45.4570   34.9530   44.5550 C   0  0  0  0  0  0  0  0  0  0  0  0
   46.3460   34.3630   43.6910 C   0  0  0  0  0  0  0  0  0  0  0  0
   46.9740   33.2140   44.1210 C   0  0  0  0  0  0  0  0  0  0  0  0
   46.7220   32.6770   45.3650 C   0  0  0  0  0  0  0  0  0  0  0  0
   45.8000   33.3050   46.2370 C   0  0  0  0  0  0  0  0  0  0  0  0
   45.1780   34.4520   45.8000 C   0  0  0  0  0  0  0  0  0  0  0  0
   44.2540   35.1490   46.5770 O   0  0  0  0  0  0  0  0  0  0  0  0
   48.0910   35.0220   42.0300 C   0  0  0  0  0  0  0  0  0  0  0  0
   48.4480   34.1280   40.9440 C   0  0  0  0  0  0  0  0  0  0  0  0
   47.9600   34.3200   39.6730 C   0  0  0  0  0  0  0  0  0  0  0  0
   48.2810   33.4790   38.5980 C   0  0  0  0  0  0  0  0  0  0  0  0
   49.1150   32.4540   38.9060 N   0  0  0  0  0  0  0  0  0  0  0  0
   49.5910   32.2730   40.1650 C   0  0  0  0  0  0  0  0  0  0  0  0
   49.2730   33.0820   41.1640 N   0  0  0  0  0  0  0  0  0  0  0  0
   50.5140   31.1020   40.4060 C   0  0  0  0  0  0  0  0  0  0  0  0
   51.9320   31.5720   40.5960 C   0  0  0  0  0  0  0  0  0  0  0  0
   46.1692   34.2704   41.5866 H   0  0  0  0  0  0  0  0  0  0  0  0
   46.2371   35.9448   42.3222 H   0  0  0  0  0  0  0  0  0  0  0  0
   47.6932   32.7138   43.4557 H   0  0  0  0  0  0  0  0  0  0  0  0
   47.2382   31.7586   45.6811 H   0  0  0  0  0  0  0  0  0  0  0  0
   45.5875   32.8889   47.2328 H   0  0  0  0  0  0  0  0  0  0  0  0
   44.0227   34.8228   47.4826 H   0  0  0  0  0  0  0  0  0  0  0  0
   48.3271   36.0561   41.7388 H   0  0  0  0  0  0  0  0  0  0  0  0
   48.6636   34.7373   42.9250 H   0  0  0  0  0  0  0  0  0  0  0  0
   47.2877   35.1715   39.4914 H   0  0  0  0  0  0  0  0  0  0  0  0
   47.8871   33.6379   37.5833 H   0  0  0  0  0  0  0  0  0  0  0  0
   50.1876   30.5649   41.3088 H   0  0  0  0  0  0  0  0  0  0  0  0
   50.4764   30.4363   39.5311 H   0  0  0  0  0  0  0  0  0  0  0  0
   52.1531   31.6453   41.6711 H   0  0  0  0  0  0  0  0  0  0  0  0
   52.6219   30.8545   40.1279 H   0  0  0  0  0  0  0  0  0  0  0  0
   52.0568   32.5596   40.1279 H   0  0  0  0  0  0  0  0  0  0  0  0
  1  4  1  0
  2  3  1  0
  3  8  2  0
  4  5  2  0
  4  3  1  0
  5  6  1  0
  6  7  2  0
  8  7  1  0
  8  9  1  0
 10  1  1  0
 11 16  1  0
 11 10  1  0
 12 11  2  0
 13 14  2  0
 13 12  1  0
 14 15  1  0
 15 17  1  0
 15 16  2  0
 17 18  1  0
  1 19  1  0
  1 20  1  0
  5 21  1  0
  6 22  1  0
  7 23  1  0
  9 24  1  0
 10 25  1  0
 10 26  1  0
 12 27  1  0
 13 28  1  0
 17 29  1  0
 17 30  1  0
 18 31  1  0
 18 32  1  0
 18 33  1  0
M  ISO  8  19   8  20   8  21  14  22  14  23  14  24   3  25   8  26   8
M  ISO  7  27  14  28  14  29   8  30   8  31   8  32   8  33   8
M  END
>  <minimizedAffinity>  (1) 
-5.35925817

>  <minimizedRMSD>  (1) 
1.79695928

$$$$
