
     RDKit          3D

 40 42  0  0  1  0  0  0  0  0999 V2000
   48.2840   34.1080   41.0430 C   0  0  0  0  0  0  0  0  0  0  0  0
   47.6720   34.2770   39.8200 C   0  0  0  0  0  0  0  0  0  0  0  0
   47.9680   33.4920   38.7040 C   0  0  0  0  0  0  0  0  0  0  0  0
   48.9120   32.5320   38.8990 N   0  0  0  0  0  0  0  0  0  0  0  0
   49.5080   32.3660   40.0860 C   0  0  0  0  0  0  0  0  0  0  0  0
   49.1930   33.1440   41.1300 N   0  0  0  0  0  0  0  0  0  0  0  0
   50.5240   31.2950   40.3200 C   0  0  2  0  0  0  0  0  0  0  0  0
   51.1360   31.1770   41.6830 C   0  0  0  0  0  0  0  0  0  0  0  0
   51.9310   31.7410   40.5010 C   0  0  1  0  0  0  0  0  0  0  0  0
   52.9070   30.8500   40.0520 O   0  0  0  0  0  0  0  0  0  0  0  0
   52.4510   29.8100   37.7170 O   0  0  0  0  0  0  0  0  0  0  0  0
   53.1300   30.9760   38.3910 P   0  0  0  0  0  0  0  0  0  0  0  0
   52.5270   32.4360   37.7850 O   0  0  0  0  0  0  0  0  0  0  0  0
   54.7940   30.9440   37.9960 O   0  0  0  0  0  0  0  0  0  0  0  0
   47.9510   34.9290   42.1850 C   0  0  0  0  0  0  0  0  0  0  0  0
   46.5230   34.7710   42.5440 C   0  0  0  0  0  0  0  0  0  0  0  0
   44.5460   36.1620   44.2790 Cl  0  0  0  0  0  0  0  0  0  0  0  0
   45.4120   34.7490   44.7930 C   0  0  0  0  0  0  0  0  0  0  0  0
   46.3030   34.1950   43.9020 C   0  0  0  0  0  0  0  0  0  0  0  0
   46.9980   33.0640   44.3090 C   0  0  0  0  0  0  0  0  0  0  0  0
   46.8060   32.5160   45.5620 C   0  0  0  0  0  0  0  0  0  0  0  0
   45.8990   33.0920   46.4560 C   0  0  0  0  0  0  0  0  0  0  0  0
   45.2090   34.2180   46.0430 C   0  0  0  0  0  0  0  0  0  0  0  0
   44.2760   34.8750   46.8600 O   0  0  0  0  0  0  0  0  0  0  0  0
   46.9143   35.0679   39.7181 H   0  0  0  0  0  0  0  0  0  0  0  0
   47.4718   33.6397   37.7334 H   0  0  0  0  0  0  0  0  0  0  0  0
   50.0118   30.5831   39.6561 H   0  0  0  0  0  0  0  0  0  0  0  0
   50.8078   31.8409   42.4964 H   0  0  0  0  0  0  0  0  0  0  0  0
   51.2812   30.3651   42.4108 H   0  0  0  0  0  0  0  0  0  0  0  0
   52.4747   32.6685   40.2681 H   0  0  0  0  0  0  0  0  0  0  0  0
   52.2818   33.0298   38.5383 H   0  0  0  0  0  0  0  0  0  0  0  0
   55.3305   30.9337   38.8280 H   0  0  0  0  0  0  0  0  0  0  0  0
   48.5739   34.6279   43.0402 H   0  0  0  0  0  0  0  0  0  0  0  0
   48.1372   35.9826   41.9297 H   0  0  0  0  0  0  0  0  0  0  0  0
   46.0444   35.7607   42.5055 H   0  0  0  0  0  0  0  0  0  0  0  0
   46.0879   34.0640   41.8222 H   0  0  0  0  0  0  0  0  0  0  0  0
   47.7157   32.5952   43.6198 H   0  0  0  0  0  0  0  0  0  0  0  0
   47.3708   31.6199   45.8586 H   0  0  0  0  0  0  0  0  0  0  0  0
   45.7388   32.6636   47.4564 H   0  0  0  0  0  0  0  0  0  0  0  0
   44.0902   34.5354   47.7712 H   0  0  0  0  0  0  0  0  0  0  0  0
  1  6  1  0
  1 15  1  0
  2  1  2  0
  3  4  2  0
  3  2  1  0
  4  5  1  0
  5  7  1  0
  5  6  2  0
  7  9  1  0
  7  8  1  0
  9  8  1  0
 10  9  1  0
 11 12  2  0
 12 10  1  0
 13 12  1  0
 14 12  1  0
 15 16  1  0
 16 19  1  0
 17 18  1  0
 18 23  2  0
 19 20  2  0
 19 18  1  0
 20 21  1  0
 21 22  2  0
 23 22  1  0
 23 24  1  0
  2 25  1  0
  3 26  1  0
  7 27  1  6
  8 28  1  0
  8 29  1  0
  9 30  1  1
 13 31  1  0
 14 32  1  0
 15 33  1  0
 15 34  1  0
 16 35  1  0
 16 36  1  0
 20 37  1  0
 21 38  1  0
 22 39  1  0
 24 40  1  0
M  ISO  8  25  14  26  14  27  13  28  13  29  13  30  13  31   3  32   3
M  ISO  8  33   8  34   8  35   8  36   8  37  14  38  14  39  14  40   3
M  END
>  <minimizedAffinity>  (1) 
-6.02702475

>  <minimizedRMSD>  (1) 
1.81197345

$$$$
