
     RDKit          3D

 37 39  0  0  1  0  0  0  0  0999 V2000
   48.2550   34.0350   40.8860 C   0  0  0  0  0  0  0  0  0  0  0  0
   48.1000   34.3270   39.5540 C   0  0  0  0  0  0  0  0  0  0  0  0
   48.3970   33.4150   38.5350 C   0  0  0  0  0  0  0  0  0  0  0  0
   48.8540   32.2130   38.9570 N   0  0  0  0  0  0  0  0  0  0  0  0
   49.0060   31.9310   40.2590 C   0  0  0  0  0  0  0  0  0  0  0  0
   48.7120   32.8280   41.2070 N   0  0  0  0  0  0  0  0  0  0  0  0
   49.4870   30.5910   40.7320 C   0  0  2  0  0  0  0  0  0  0  0  0
   50.1160   30.4990   42.0860 C   0  0  0  0  0  0  0  0  0  0  0  0
   50.9640   30.4120   40.8120 C   0  0  2  0  0  0  0  0  0  0  0  0
   51.8760   31.5370   40.4540 C   0  0  0  0  0  0  0  0  0  0  0  0
   51.5510   32.5990   41.3010 F   0  0  0  0  0  0  0  0  0  0  0  0
   53.2130   31.2750   40.5940 F   0  0  0  0  0  0  0  0  0  0  0  0
   51.6220   31.9580   39.1610 F   0  0  0  0  0  0  0  0  0  0  0  0
   47.9300   34.9890   41.9300 C   0  0  0  0  0  0  0  0  0  0  0  0
   46.5060   34.9160   42.2940 C   0  0  0  0  0  0  0  0  0  0  0  0
   44.5990   36.4190   43.9980 Cl  0  0  0  0  0  0  0  0  0  0  0  0
   45.3920   34.9750   44.5430 C   0  0  0  0  0  0  0  0  0  0  0  0
   46.2630   34.3740   43.6630 C   0  0  0  0  0  0  0  0  0  0  0  0
   46.9150   33.2250   44.0940 C   0  0  0  0  0  0  0  0  0  0  0  0
   46.6910   32.7130   45.3550 C   0  0  0  0  0  0  0  0  0  0  0  0
   45.7950   33.3500   46.2270 C   0  0  0  0  0  0  0  0  0  0  0  0
   45.1600   34.4810   45.7900 C   0  0  0  0  0  0  0  0  0  0  0  0
   44.2500   35.1780   46.5940 O   0  0  0  0  0  0  0  0  0  0  0  0
   47.7254   35.3228   39.2748 H   0  0  0  0  0  0  0  0  0  0  0  0
   48.2685   33.6572   37.4697 H   0  0  0  0  0  0  0  0  0  0  0  0
   48.6609   30.0523   40.2448 H   0  0  0  0  0  0  0  0  0  0  0  0
   50.1751   31.3889   42.7299 H   0  0  0  0  0  0  0  0  0  0  0  0
   49.9718   29.8694   42.9764 H   0  0  0  0  0  0  0  0  0  0  0  0
   51.6851   29.6926   40.3967 H   0  0  0  0  0  0  0  0  0  0  0  0
   48.5392   34.7691   42.8191 H   0  0  0  0  0  0  0  0  0  0  0  0
   48.1419   36.0011   41.5548 H   0  0  0  0  0  0  0  0  0  0  0  0
   46.0819   35.9296   42.2416 H   0  0  0  0  0  0  0  0  0  0  0  0
   46.0284   34.2236   41.5851 H   0  0  0  0  0  0  0  0  0  0  0  0
   47.6199   32.7165   43.4198 H   0  0  0  0  0  0  0  0  0  0  0  0
   47.2165   31.8023   45.6782 H   0  0  0  0  0  0  0  0  0  0  0  0
   45.6079   32.9510   47.2349 H   0  0  0  0  0  0  0  0  0  0  0  0
   44.0497   34.8560   47.5085 H   0  0  0  0  0  0  0  0  0  0  0  0
  1  6  1  0
  1 14  1  0
  2  1  2  0
  3  4  2  0
  3  2  1  0
  4  5  1  0
  5  7  1  0
  5  6  2  0
  7  9  1  0
  7  8  1  0
  9  8  1  0
 10 12  1  0
 10  9  1  0
 10 11  1  0
 13 10  1  0
 14 15  1  0
 15 18  1  0
 16 17  1  0
 17 22  2  0
 18 19  2  0
 18 17  1  0
 19 20  1  0
 20 21  2  0
 22 21  1  0
 22 23  1  0
  2 24  1  0
  3 25  1  0
  7 26  1  6
  8 27  1  0
  8 28  1  0
  9 29  1  6
 14 30  1  0
 14 31  1  0
 15 32  1  0
 15 33  1  0
 19 34  1  0
 20 35  1  0
 21 36  1  0
 23 37  1  0
M  ISO  8  24  14  25  14  26  13  27  13  28  13  29  13  30   8  31   8
M  ISO  6  32   8  33   8  34  14  35  14  36  14  37   3
M  END
>  <minimizedAffinity>  (1) 
-5.76557589

>  <minimizedRMSD>  (1) 
0.894785166

$$$$
