
     RDKit          3D

 40 42  0  0  0  0  0  0  0  0999 V2000
   45.6510   31.6350   47.1480 C   0  0  0  0  0  0  0  0  0  0  0  0
   45.6080   32.0920   48.4610 C   0  0  0  0  0  0  0  0  0  0  0  0
   45.3760   31.2670   49.5470 C   0  0  0  0  0  0  0  0  0  0  0  0
   45.1800   29.9280   49.3010 C   0  0  0  0  0  0  0  0  0  0  0  0
   45.2220   29.4730   48.0000 C   0  0  0  0  0  0  0  0  0  0  0  0
   45.4500   30.3280   47.0000 N   0  0  0  0  0  0  0  0  0  0  0  0
   44.7700   36.5860   43.8150 C   0  0  0  0  0  0  0  0  0  0  0  0
   45.6670   36.2860   42.7830 C   0  0  0  0  0  0  0  0  0  0  0  0
   46.3300   35.0590   42.8320 C   0  0  0  0  0  0  0  0  0  0  0  0
   46.0780   34.2060   43.8760 N   0  0  0  0  0  0  0  0  0  0  0  0
   45.1880   34.5560   44.8560 C   0  0  0  0  0  0  0  0  0  0  0  0
   44.5310   35.7520   44.8280 N   0  0  0  0  0  0  0  0  0  0  0  0
   45.9010   32.5690   46.0570 C   0  0  0  0  0  0  0  0  0  0  0  0
   46.9020   32.3910   45.3190 O   0  0  0  0  0  0  0  0  0  0  0  0
   44.9720   33.6350   45.9060 N   0  0  0  0  0  0  0  0  0  0  0  0
   45.0150   28.0590   47.7350 C   0  0  0  0  0  0  0  0  0  0  0  0
   44.7440   27.2270   48.7200 C   0  0  0  0  0  0  0  0  0  0  0  0
   44.5030   25.7680   48.6590 C   0  0  0  0  0  0  0  0  0  0  0  0
   45.6270   25.0170   49.2750 C   0  0  0  0  0  0  0  0  0  0  0  0
   46.9030   25.0770   48.7210 C   0  0  0  0  0  0  0  0  0  0  0  0
   47.9490   24.3820   49.2890 C   0  0  0  0  0  0  0  0  0  0  0  0
   47.7370   23.6300   50.4020 C   0  0  0  0  0  0  0  0  0  0  0  0
   46.4950   23.5290   51.0020 C   0  0  0  0  0  0  0  0  0  0  0  0
   45.4640   24.2340   50.4140 C   0  0  0  0  0  0  0  0  0  0  0  0
   45.7667   33.1648   48.6454 H   0  0  0  0  0  0  0  0  0  0  0  0
   45.3492   31.6677   50.5711 H   0  0  0  0  0  0  0  0  0  0  0  0
   44.9924   29.2301   50.1303 H   0  0  0  0  0  0  0  0  0  0  0  0
   44.2402   37.5497   43.7894 H   0  0  0  0  0  0  0  0  0  0  0  0
   45.8435   36.9944   41.9602 H   0  0  0  0  0  0  0  0  0  0  0  0
   47.0450   34.7798   42.0440 H   0  0  0  0  0  0  0  0  0  0  0  0
   44.1674   33.7328   46.5416 H   0  0  0  0  0  0  0  0  0  0  0  0
   45.0851   27.6807   46.7045 H   0  0  0  0  0  0  0  0  0  0  0  0
   44.6896   27.6771   49.7222 H   0  0  0  0  0  0  0  0  0  0  0  0
   43.5744   25.5338   49.2001 H   0  0  0  0  0  0  0  0  0  0  0  0
   44.4192   25.4703   47.6034 H   0  0  0  0  0  0  0  0  0  0  0  0
   47.0780   25.6850   47.8212 H   0  0  0  0  0  0  0  0  0  0  0  0
   48.9531   24.4355   48.8430 H   0  0  0  0  0  0  0  0  0  0  0  0
   48.5839   23.0823   50.8410 H   0  0  0  0  0  0  0  0  0  0  0  0
   46.3366   22.9176   51.9026 H   0  0  0  0  0  0  0  0  0  0  0  0
   44.4640   24.1739   50.8683 H   0  0  0  0  0  0  0  0  0  0  0  0
  1  2  2  0
  2  3  1  0
  4  3  2  0
  5  4  1  0
  6  1  1  0
  6  5  2  0
  7 12  2  0
  8  9  2  0
  8  7  1  0
  9 10  1  0
 10 11  2  0
 11 15  1  0
 12 11  1  0
 13  1  1  0
 14 13  2  0
 15 13  1  0
 16  5  1  0
 16 17  2  0
 18 17  1  0
 18 19  1  0
 19 24  1  0
 20 19  2  0
 20 21  1  0
 21 22  2  0
 22 23  1  0
 24 23  2  0
  2 25  1  0
  3 26  1  0
  4 27  1  0
  7 28  1  0
  8 29  1  0
  9 30  1  0
 15 31  1  0
 16 32  1  0
 17 33  1  0
 18 34  1  0
 18 35  1  0
 20 36  1  0
 21 37  1  0
 22 38  1  0
 23 39  1  0
 24 40  1  0
M  ISO  8  25  14  26  14  27  14  28  14  29  14  30  14  34   8  35   8
M  ISO  5  36  14  37  14  38  14  39  14  40  14
M  END
>  <minimizedAffinity>  (1) 
-5.88925886

>  <minimizedRMSD>  (1) 
0.925639749

$$$$
