
     RDKit          3D

 35 37  0  0  1  0  0  0  0  0999 V2000
   47.8980   35.0080   41.9530 C   0  0  0  0  0  0  0  0  0  0  0  0
   48.1930   34.1220   40.8410 C   0  0  0  0  0  0  0  0  0  0  0  0
   48.1190   34.5450   39.5340 C   0  0  0  0  0  0  0  0  0  0  0  0
   48.3870   33.7090   38.4530 C   0  0  0  0  0  0  0  0  0  0  0  0
   48.7320   32.4330   38.7730 N   0  0  0  0  0  0  0  0  0  0  0  0
   48.8020   32.0310   40.0490 C   0  0  0  0  0  0  0  0  0  0  0  0
   48.5380   32.8600   41.0650 N   0  0  0  0  0  0  0  0  0  0  0  0
   49.1520   30.6180   40.4040 C   0  0  2  0  0  0  0  0  0  0  0  0
   49.6860   30.3280   41.7670 C   0  0  0  0  0  0  0  0  0  0  0  0
   50.5950   30.2950   40.5260 C   0  0  2  0  0  0  0  0  0  0  0  0
   51.8530   31.5660   40.5320 S   0  0  0  0  0  0  0  0  0  0  0  0
   46.4690   34.9350   42.3190 C   0  0  0  0  0  0  0  0  0  0  0  0
   44.5510   36.4070   44.0440 Cl  0  0  0  0  0  0  0  0  0  0  0  0
   45.3650   34.9730   44.5780 C   0  0  0  0  0  0  0  0  0  0  0  0
   46.2410   34.3710   43.6860 C   0  0  0  0  0  0  0  0  0  0  0  0
   46.8940   33.2350   44.1010 C   0  0  0  0  0  0  0  0  0  0  0  0
   46.6910   32.7070   45.3570 C   0  0  0  0  0  0  0  0  0  0  0  0
   45.8010   33.3300   46.2460 C   0  0  0  0  0  0  0  0  0  0  0  0
   45.1450   34.4720   45.8240 C   0  0  0  0  0  0  0  0  0  0  0  0
   44.2420   35.1570   46.6430 O   0  0  0  0  0  0  0  0  0  0  0  0
   48.1441   36.0409   41.6658 H   0  0  0  0  0  0  0  0  0  0  0  0
   48.4996   34.6971   42.8198 H   0  0  0  0  0  0  0  0  0  0  0  0
   47.8358   35.5890   39.3342 H   0  0  0  0  0  0  0  0  0  0  0  0
   48.3240   34.0570   37.4114 H   0  0  0  0  0  0  0  0  0  0  0  0
   48.3115   30.2111   39.8226 H   0  0  0  0  0  0  0  0  0  0  0  0
   49.7867   31.1366   42.5060 H   0  0  0  0  0  0  0  0  0  0  0  0
   49.4353   29.6267   42.5765 H   0  0  0  0  0  0  0  0  0  0  0  0
   51.2369   29.5859   39.9828 H   0  0  0  0  0  0  0  0  0  0  0  0
   52.1712   31.8875   41.8252 H   0  0  0  0  0  0  0  0  0  0  0  0
   46.0465   35.9500   42.2842 H   0  0  0  0  0  0  0  0  0  0  0  0
   45.9805   34.2605   41.6004 H   0  0  0  0  0  0  0  0  0  0  0  0
   47.5944   32.7363   43.4148 H   0  0  0  0  0  0  0  0  0  0  0  0
   47.2267   31.7965   45.6636 H   0  0  0  0  0  0  0  0  0  0  0  0
   45.6298   32.9204   47.2524 H   0  0  0  0  0  0  0  0  0  0  0  0
   44.0533   34.8262   47.5568 H   0  0  0  0  0  0  0  0  0  0  0  0
  1 12  1  0
  2  7  1  0
  2  1  1  0
  3  2  2  0
  4  5  2  0
  4  3  1  0
  5  6  1  0
  6  8  1  0
  6  7  2  0
  8 10  1  0
  8  9  1  0
 10 11  1  0
 10  9  1  0
 12 15  1  0
 13 14  1  0
 14 19  2  0
 15 16  2  0
 15 14  1  0
 16 17  1  0
 17 18  2  0
 19 18  1  0
 19 20  1  0
  1 21  1  0
  1 22  1  0
  3 23  1  0
  4 24  1  0
  8 25  1  6
  9 26  1  0
  9 27  1  0
 10 28  1  6
 11 29  1  0
 12 30  1  0
 12 31  1  0
 16 32  1  0
 17 33  1  0
 18 34  1  0
 20 35  1  0
M  ISO  8  21   8  22   8  23  14  24  14  25  13  26  13  27  13  28  13
M  ISO  7  29  11  30   8  31   8  32  14  33  14  34  14  35   3
M  END
>  <minimizedAffinity>  (1) 
-5.37684488

>  <minimizedRMSD>  (1) 
0.858725488

$$$$
