
     RDKit          3D

 38 40  0  0  0  0  0  0  0  0999 V2000
   47.9300   33.7900   42.8710 C   0  0  0  0  0  0  0  0  0  0  0  0
   48.6110   35.0110   42.6810 C   0  0  0  0  0  0  0  0  0  0  0  0
   49.9760   34.9950   42.3840 C   0  0  0  0  0  0  0  0  0  0  0  0
   50.5730   33.7550   42.2940 N   0  0  0  0  0  0  0  0  0  0  0  0
   49.8920   32.6030   42.4800 C   0  0  0  0  0  0  0  0  0  0  0  0
   48.5870   32.6300   42.7640 N   0  0  0  0  0  0  0  0  0  0  0  0
   46.4940   33.8910   43.1920 C   0  0  0  0  0  0  0  0  0  0  0  0
   45.7910   34.9070   42.3880 C   0  0  0  0  0  0  0  0  0  0  0  0
   45.3570   36.1070   43.1830 C   0  0  0  0  0  0  0  0  0  0  0  0
   44.4890   35.7190   44.3690 C   0  0  0  0  0  0  0  0  0  0  0  0
   44.9870   34.5070   45.1010 C   0  0  0  0  0  0  0  0  0  0  0  0
   46.3920   34.1290   44.6950 C   0  0  0  0  0  0  0  0  0  0  0  0
   51.6690   31.1510   41.5460 C   0  0  0  0  0  0  0  0  0  0  0  0
   50.5780   31.3180   42.3720 C   0  0  0  0  0  0  0  0  0  0  0  0
   50.1500   30.2260   43.1000 C   0  0  0  0  0  0  0  0  0  0  0  0
   50.8060   29.0070   42.9930 C   0  0  0  0  0  0  0  0  0  0  0  0
   51.8990   28.8950   42.1470 C   0  0  0  0  0  0  0  0  0  0  0  0
   52.3660   29.9740   41.3930 C   0  0  0  0  0  0  0  0  0  0  0  0
   52.1530   32.2230   40.7810 O   0  0  0  0  0  0  0  0  0  0  0  0
   53.4620   29.8380   40.5520 O   0  0  0  0  0  0  0  0  0  0  0  0
   48.0723   35.9663   42.7659 H   0  0  0  0  0  0  0  0  0  0  0  0
   50.5453   35.9235   42.2299 H   0  0  0  0  0  0  0  0  0  0  0  0
   45.9774   32.9574   42.9247 H   0  0  0  0  0  0  0  0  0  0  0  0
   44.8984   34.4426   41.9435 H   0  0  0  0  0  0  0  0  0  0  0  0
   46.4997   35.2633   41.6259 H   0  0  0  0  0  0  0  0  0  0  0  0
   46.2509   36.6305   43.5530 H   0  0  0  0  0  0  0  0  0  0  0  0
   44.7617   36.7553   42.5232 H   0  0  0  0  0  0  0  0  0  0  0  0
   44.4616   36.5643   45.0723 H   0  0  0  0  0  0  0  0  0  0  0  0
   43.4918   35.4734   43.9750 H   0  0  0  0  0  0  0  0  0  0  0  0
   44.9750   34.7162   46.1808 H   0  0  0  0  0  0  0  0  0  0  0  0
   44.3256   33.6654   44.8474 H   0  0  0  0  0  0  0  0  0  0  0  0
   46.6814   33.2085   45.2232 H   0  0  0  0  0  0  0  0  0  0  0  0
   47.0632   34.9594   44.9595 H   0  0  0  0  0  0  0  0  0  0  0  0
   49.2828   30.3223   43.7698 H   0  0  0  0  0  0  0  0  0  0  0  0
   50.4620   28.1384   43.5737 H   0  0  0  0  0  0  0  0  0  0  0  0
   52.4142   27.9264   42.0673 H   0  0  0  0  0  0  0  0  0  0  0  0
   52.9370   32.0953   40.1901 H   0  0  0  0  0  0  0  0  0  0  0  0
   53.9262   28.9665   40.4808 H   0  0  0  0  0  0  0  0  0  0  0  0
  1  7  1  0
  2  1  2  0
  3  2  1  0
  4  3  2  0
  4  5  1  0
  5  6  2  0
  6  1  1  0
  7 12  1  0
  8  9  1  0
  8  7  1  0
  9 10  1  0
 10 11  1  0
 12 11  1  0
 13 14  2  0
 14  5  1  0
 14 15  1  0
 16 15  2  0
 17 16  1  0
 18 13  1  0
 18 17  2  0
 19 13  1  0
 20 18  1  0
  2 21  1  0
  3 22  1  0
  7 23  1  0
  8 24  1  0
  8 25  1  0
  9 26  1  0
  9 27  1  0
 10 28  1  0
 10 29  1  0
 11 30  1  0
 11 31  1  0
 12 32  1  0
 12 33  1  0
 15 34  1  0
 16 35  1  0
 17 36  1  0
 19 37  1  0
 20 38  1  0
M  ISO  8  21  14  22  14  23  13  24  13  25  13  26  13  27  13  28  13
M  ISO  8  29  13  30  13  31  13  32  13  33  13  34  14  35  14  36  14
M  ISO  2  37   3  38   3
M  END
>  <minimizedAffinity>  (1) 
-5.07190275

>  <minimizedRMSD>  (1) 
2.49978662

$$$$
