
     RDKit          3D

 42 44  0  0  0  0  0  0  0  0999 V2000
   46.4250   33.8130   43.1780 C   0  0  0  0  0  0  0  0  0  0  0  0
   45.7280   34.8430   42.3910 C   0  0  0  0  0  0  0  0  0  0  0  0
   45.3720   36.0680   43.1820 C   0  0  0  0  0  0  0  0  0  0  0  0
   44.5440   35.7340   44.4120 C   0  0  0  0  0  0  0  0  0  0  0  0
   45.0340   34.5230   45.1530 C   0  0  0  0  0  0  0  0  0  0  0  0
   46.3940   34.0720   44.6800 C   0  0  0  0  0  0  0  0  0  0  0  0
   47.8440   33.6510   42.8070 C   0  0  0  0  0  0  0  0  0  0  0  0
   48.6100   34.8410   42.7610 C   0  0  0  0  0  0  0  0  0  0  0  0
   49.9650   34.7710   42.4310 C   0  0  0  0  0  0  0  0  0  0  0  0
   50.4730   33.5150   42.1670 N   0  0  0  0  0  0  0  0  0  0  0  0
   49.7130   32.3970   42.2200 C   0  0  0  0  0  0  0  0  0  0  0  0
   48.4190   32.4690   42.5360 N   0  0  0  0  0  0  0  0  0  0  0  0
   50.3090   31.0670   41.9270 C   0  0  0  0  0  0  0  0  0  0  0  0
   51.0080   31.0300   40.5900 C   0  0  0  0  0  0  0  0  0  0  0  0
   51.3340   29.5870   40.2850 C   0  0  0  0  0  0  0  0  0  0  0  0
   52.0440   28.8680   41.3790 C   0  0  0  0  0  0  0  0  0  0  0  0
   51.5460   29.1520   42.7580 C   0  0  0  0  0  0  0  0  0  0  0  0
   51.3560   30.6580   42.9570 C   0  0  0  0  0  0  0  0  0  0  0  0
   45.8623   32.8987   42.9385 H   0  0  0  0  0  0  0  0  0  0  0  0
   46.3804   35.1446   41.5583 H   0  0  0  0  0  0  0  0  0  0  0  0
   44.7836   34.3984   42.0440 H   0  0  0  0  0  0  0  0  0  0  0  0
   46.2994   36.5648   43.5030 H   0  0  0  0  0  0  0  0  0  0  0  0
   44.7701   36.7247   42.5367 H   0  0  0  0  0  0  0  0  0  0  0  0
   44.5724   36.5955   45.0954 H   0  0  0  0  0  0  0  0  0  0  0  0
   43.5244   35.5105   44.0649 H   0  0  0  0  0  0  0  0  0  0  0  0
   45.0946   34.7647   46.2244 H   0  0  0  0  0  0  0  0  0  0  0  0
   44.3242   33.7040   44.9647 H   0  0  0  0  0  0  0  0  0  0  0  0
   46.6616   33.1432   45.2052 H   0  0  0  0  0  0  0  0  0  0  0  0
   47.1114   34.8767   44.8986 H   0  0  0  0  0  0  0  0  0  0  0  0
   48.1421   35.8114   42.9831 H   0  0  0  0  0  0  0  0  0  0  0  0
   50.5956   35.6711   42.3838 H   0  0  0  0  0  0  0  0  0  0  0  0
   49.4516   30.3780   41.9422 H   0  0  0  0  0  0  0  0  0  0  0  0
   50.3482   31.4384   39.8103 H   0  0  0  0  0  0  0  0  0  0  0  0
   51.9256   31.6361   40.6168 H   0  0  0  0  0  0  0  0  0  0  0  0
   50.3914   29.0577   40.0816 H   0  0  0  0  0  0  0  0  0  0  0  0
   52.0174   29.5969   39.4231 H   0  0  0  0  0  0  0  0  0  0  0  0
   51.9432   27.7878   41.1971 H   0  0  0  0  0  0  0  0  0  0  0  0
   53.0843   29.2244   41.3520 H   0  0  0  0  0  0  0  0  0  0  0  0
   50.5828   28.6422   42.9077 H   0  0  0  0  0  0  0  0  0  0  0  0
   52.2845   28.7861   43.4865 H   0  0  0  0  0  0  0  0  0  0  0  0
   52.3008   31.1929   42.7803 H   0  0  0  0  0  0  0  0  0  0  0  0
   51.0415   30.9013   43.9826 H   0  0  0  0  0  0  0  0  0  0  0  0
  1  6  1  0
  2  1  1  0
  2  3  1  0
  3  4  1  0
  4  5  1  0
  6  5  1  0
  7  1  1  0
  8  7  2  0
  9  8  1  0
 10 11  1  0
 10  9  2  0
 11 12  2  0
 12  7  1  0
 13 11  1  0
 13 18  1  0
 14 13  1  0
 15 14  1  0
 15 16  1  0
 16 17  1  0
 17 18  1  0
  1 19  1  0
  2 20  1  0
  2 21  1  0
  3 22  1  0
  3 23  1  0
  4 24  1  0
  4 25  1  0
  5 26  1  0
  5 27  1  0
  6 28  1  0
  6 29  1  0
  8 30  1  0
  9 31  1  0
 13 32  1  0
 14 33  1  0
 14 34  1  0
 15 35  1  0
 15 36  1  0
 16 37  1  0
 16 38  1  0
 17 39  1  0
 17 40  1  0
 18 41  1  0
 18 42  1  0
M  ISO  8  19  13  20  13  21  13  22  13  23  13  24  13  25  13  26  13
M  ISO  8  27  13  28  13  29  13  30  14  31  14  32  13  33  13  34  13
M  ISO  8  35  13  36  13  37  13  38  13  39  13  40  13  41  13  42  13
M  END
>  <minimizedAffinity>  (1) 
-4.39996243

>  <minimizedRMSD>  (1) 
2.49181819

$$$$
