
     RDKit          3D

 32 34  0  0  0  0  0  0  0  0999 V2000
   46.4410   33.8510   43.2470 C   0  0  0  0  0  0  0  0  0  0  0  0
   45.7480   34.8630   42.4280 C   0  0  0  0  0  0  0  0  0  0  0  0
   45.3480   36.0850   43.1970 C   0  0  0  0  0  0  0  0  0  0  0  0
   44.5380   35.7730   44.4390 C   0  0  0  0  0  0  0  0  0  0  0  0
   44.9840   34.5240   45.1550 C   0  0  0  0  0  0  0  0  0  0  0  0
   46.3900   34.1380   44.7440 C   0  0  0  0  0  0  0  0  0  0  0  0
   47.8710   33.7070   42.8960 C   0  0  0  0  0  0  0  0  0  0  0  0
   48.5820   34.9070   42.7100 C   0  0  0  0  0  0  0  0  0  0  0  0
   49.9430   34.8670   42.3780 C   0  0  0  0  0  0  0  0  0  0  0  0
   50.5050   33.6220   42.2560 N   0  0  0  0  0  0  0  0  0  0  0  0
   49.7930   32.4780   42.4430 C   0  0  0  0  0  0  0  0  0  0  0  0
   48.4980   32.5280   42.7580 N   0  0  0  0  0  0  0  0  0  0  0  0
   50.5250   31.2260   42.2790 C   0  0  0  0  0  0  0  0  0  0  0  0
   51.5700   31.2480   41.4050 N   0  0  0  0  0  0  0  0  0  0  0  0
   52.1400   30.0290   41.3660 C   0  0  0  0  0  0  0  0  0  0  0  0
   51.4330   29.2440   42.2290 N   0  0  0  0  0  0  0  0  0  0  0  0
   50.4610   29.9800   42.7750 N   0  0  0  0  0  0  0  0  0  0  0  0
   45.8896   32.9261   43.0220 H   0  0  0  0  0  0  0  0  0  0  0  0
   44.8413   34.4063   42.0045 H   0  0  0  0  0  0  0  0  0  0  0  0
   46.4548   35.1880   41.6504 H   0  0  0  0  0  0  0  0  0  0  0  0
   46.2596   36.6207   43.5002 H   0  0  0  0  0  0  0  0  0  0  0  0
   44.7111   36.6917   42.5365 H   0  0  0  0  0  0  0  0  0  0  0  0
   44.6261   36.6216   45.1333 H   0  0  0  0  0  0  0  0  0  0  0  0
   43.5013   35.6037   44.1126 H   0  0  0  0  0  0  0  0  0  0  0  0
   44.9625   34.7038   46.2400 H   0  0  0  0  0  0  0  0  0  0  0  0
   44.3020   33.7033   44.8879 H   0  0  0  0  0  0  0  0  0  0  0  0
   46.6961   33.2378   45.2972 H   0  0  0  0  0  0  0  0  0  0  0  0
   47.0722   34.9698   44.9735 H   0  0  0  0  0  0  0  0  0  0  0  0
   48.0708   35.8742   42.8249 H   0  0  0  0  0  0  0  0  0  0  0  0
   50.5290   35.7850   42.2236 H   0  0  0  0  0  0  0  0  0  0  0  0
   53.0052   29.7258   40.7581 H   0  0  0  0  0  0  0  0  0  0  0  0
   51.6177   28.2501   42.4266 H   0  0  0  0  0  0  0  0  0  0  0  0
  1  6  1  0
  2  3  1  0
  2  1  1  0
  3  4  1  0
  4  5  1  0
  6  5  1  0
  7  1  1  0
  8  7  2  0
  9  8  1  0
 10  9  2  0
 10 11  1  0
 11 12  2  0
 12  7  1  0
 13 11  1  0
 13 17  2  0
 14 13  1  0
 15 14  2  0
 15 16  1  0
 16 17  1  0
  1 18  1  0
  2 19  1  0
  2 20  1  0
  3 21  1  0
  3 22  1  0
  4 23  1  0
  4 24  1  0
  5 25  1  0
  5 26  1  0
  6 27  1  0
  6 28  1  0
  8 29  1  0
  9 30  1  0
 15 31  1  0
 16 32  1  0
M  ISO  8  18  13  19  13  20  13  21  13  22  13  23  13  24  13  25  13
M  ISO  7  26  13  27  13  28  13  29  14  30  14  31  14  32   9
M  END
>  <minimizedAffinity>  (1) 
-4.26146984

>  <minimizedRMSD>  (1) 
2.35176182

$$$$
