
     RDKit          3D

 40 42  0  0  0  0  0  0  0  0999 V2000
   45.6320   31.5940   47.1360 C   0  0  0  0  0  0  0  0  0  0  0  0
   45.5410   32.0700   48.4600 C   0  0  0  0  0  0  0  0  0  0  0  0
   45.3100   31.2480   49.5460 C   0  0  0  0  0  0  0  0  0  0  0  0
   45.1650   29.9020   49.3000 C   0  0  0  0  0  0  0  0  0  0  0  0
   45.2560   29.4260   47.9880 C   0  0  0  0  0  0  0  0  0  0  0  0
   45.4800   30.2790   46.9960 N   0  0  0  0  0  0  0  0  0  0  0  0
   44.7900   36.5550   43.8120 C   0  0  0  0  0  0  0  0  0  0  0  0
   45.6860   36.2440   42.7780 C   0  0  0  0  0  0  0  0  0  0  0  0
   46.3310   35.0080   42.8210 C   0  0  0  0  0  0  0  0  0  0  0  0
   46.0690   34.1640   43.8530 N   0  0  0  0  0  0  0  0  0  0  0  0
   45.1980   34.5050   44.8270 C   0  0  0  0  0  0  0  0  0  0  0  0
   44.5440   35.7150   44.8160 N   0  0  0  0  0  0  0  0  0  0  0  0
   45.8780   32.5320   46.0540 C   0  0  0  0  0  0  0  0  0  0  0  0
   46.8970   32.3490   45.3250 O   0  0  0  0  0  0  0  0  0  0  0  0
   44.9440   33.5950   45.8940 N   0  0  0  0  0  0  0  0  0  0  0  0
   45.1130   28.0060   47.7550 C   0  0  0  0  0  0  0  0  0  0  0  0
   44.4820   27.2540   48.6310 C   0  0  0  0  0  0  0  0  0  0  0  0
   44.2460   25.7950   48.5980 C   0  0  0  0  0  0  0  0  0  0  0  0
   41.5960   25.7640   47.0570 Cl  0  0  0  0  0  0  0  0  0  0  0  0
   43.1230   25.2190   46.4050 C   0  0  0  0  0  0  0  0  0  0  0  0
   44.2330   25.2930   47.2210 C   0  0  0  0  0  0  0  0  0  0  0  0
   45.4270   24.8450   46.6510 C   0  0  0  0  0  0  0  0  0  0  0  0
   45.5440   24.3520   45.3670 C   0  0  0  0  0  0  0  0  0  0  0  0
   44.4110   24.2920   44.5820 C   0  0  0  0  0  0  0  0  0  0  0  0
   44.5670   23.6660   42.9530 Cl  0  0  0  0  0  0  0  0  0  0  0  0
   43.1890   24.7300   45.1070 C   0  0  0  0  0  0  0  0  0  0  0  0
   45.6598   33.1492   48.6370 H   0  0  0  0  0  0  0  0  0  0  0  0
   45.2446   31.6533   50.5665 H   0  0  0  0  0  0  0  0  0  0  0  0
   44.9787   29.2046   50.1300 H   0  0  0  0  0  0  0  0  0  0  0  0
   44.2730   37.5258   43.7928 H   0  0  0  0  0  0  0  0  0  0  0  0
   45.8740   36.9533   41.9585 H   0  0  0  0  0  0  0  0  0  0  0  0
   47.0410   34.7209   42.0314 H   0  0  0  0  0  0  0  0  0  0  0  0
   44.1294   33.7004   46.5155 H   0  0  0  0  0  0  0  0  0  0  0  0
   45.5324   27.5539   46.8441 H   0  0  0  0  0  0  0  0  0  0  0  0
   44.0752   27.7821   49.5060 H   0  0  0  0  0  0  0  0  0  0  0  0
   45.0467   25.2889   49.1572 H   0  0  0  0  0  0  0  0  0  0  0  0
   43.2662   25.5894   49.0538 H   0  0  0  0  0  0  0  0  0  0  0  0
   46.3367   24.8880   47.2679 H   0  0  0  0  0  0  0  0  0  0  0  0
   46.5167   24.0152   44.9792 H   0  0  0  0  0  0  0  0  0  0  0  0
   42.2794   24.6866   44.4899 H   0  0  0  0  0  0  0  0  0  0  0  0
  1  2  2  0
  2  3  1  0
  4  3  2  0
  5  4  1  0
  6  1  1  0
  6  5  2  0
  7 12  2  0
  8  9  2  0
  8  7  1  0
  9 10  1  0
 10 11  2  0
 11 15  1  0
 12 11  1  0
 13  1  1  0
 14 13  2  0
 15 13  1  0
 16  5  1  0
 16 17  2  0
 18 17  1  0
 20 19  1  0
 20 21  2  0
 21 18  1  0
 22 21  1  0
 23 22  2  0
 24 26  2  0
 24 23  1  0
 25 24  1  0
 26 20  1  0
  2 27  1  0
  3 28  1  0
  4 29  1  0
  7 30  1  0
  8 31  1  0
  9 32  1  0
 15 33  1  0
 16 34  1  0
 17 35  1  0
 18 36  1  0
 18 37  1  0
 22 38  1  0
 23 39  1  0
 26 40  1  0
M  ISO  8  27  14  28  14  29  14  30  14  31  14  32  14  36   8  37   8
M  ISO  3  38  14  39  14  40  14
M  END
>  <minimizedAffinity>  (1) 
-5.64753199

>  <minimizedRMSD>  (1) 
2.46633172

$$$$
