
     RDKit          3D

 37 39  0  0  0  0  0  0  0  0999 V2000
   45.7180   31.7570   47.0800 C   0  0  0  0  0  0  0  0  0  0  0  0
   45.5850   32.2270   48.4040 C   0  0  0  0  0  0  0  0  0  0  0  0
   45.3840   31.3990   49.4920 C   0  0  0  0  0  0  0  0  0  0  0  0
   45.3140   30.0470   49.2460 C   0  0  0  0  0  0  0  0  0  0  0  0
   45.4440   29.5820   47.9440 C   0  0  0  0  0  0  0  0  0  0  0  0
   45.6360   30.4350   46.9410 N   0  0  0  0  0  0  0  0  0  0  0  0
   44.7470   36.7290   43.8010 C   0  0  0  0  0  0  0  0  0  0  0  0
   45.6140   36.4430   42.7560 C   0  0  0  0  0  0  0  0  0  0  0  0
   46.2860   35.1990   42.7650 C   0  0  0  0  0  0  0  0  0  0  0  0
   46.0420   34.3450   43.8040 N   0  0  0  0  0  0  0  0  0  0  0  0
   45.1890   34.6670   44.7990 C   0  0  0  0  0  0  0  0  0  0  0  0
   44.5300   35.8700   44.8040 N   0  0  0  0  0  0  0  0  0  0  0  0
   45.9260   32.7040   46.0040 C   0  0  0  0  0  0  0  0  0  0  0  0
   46.9410   32.5520   45.2610 O   0  0  0  0  0  0  0  0  0  0  0  0
   44.9650   33.7540   45.8560 N   0  0  0  0  0  0  0  0  0  0  0  0
   45.3660   28.1570   47.7060 C   0  0  0  0  0  0  0  0  0  0  0  0
   44.5030   27.4080   48.3720 C   0  0  0  0  0  0  0  0  0  0  0  0
   44.2820   25.9420   48.2630 C   0  0  0  0  0  0  0  0  0  0  0  0
   42.9220   25.6270   47.6790 C   0  0  0  0  0  0  0  0  0  0  0  0
   42.9520   24.7210   46.4840 C   0  0  0  0  0  0  0  0  0  0  0  0
   42.5840   26.1630   46.3150 C   0  0  0  0  0  0  0  0  0  0  0  0
   45.6446   33.3113   48.5795 H   0  0  0  0  0  0  0  0  0  0  0  0
   45.2843   31.8031   50.5102 H   0  0  0  0  0  0  0  0  0  0  0  0
   45.1563   29.3402   50.0740 H   0  0  0  0  0  0  0  0  0  0  0  0
   44.2202   37.6946   43.8051 H   0  0  0  0  0  0  0  0  0  0  0  0
   45.7743   37.1652   41.9419 H   0  0  0  0  0  0  0  0  0  0  0  0
   46.9843   34.9266   41.9599 H   0  0  0  0  0  0  0  0  0  0  0  0
   44.1540   33.8403   46.4851 H   0  0  0  0  0  0  0  0  0  0  0  0
   46.0312   27.6918   46.9636 H   0  0  0  0  0  0  0  0  0  0  0  0
   43.8685   27.9368   49.0985 H   0  0  0  0  0  0  0  0  0  0  0  0
   45.0582   25.5110   47.6135 H   0  0  0  0  0  0  0  0  0  0  0  0
   44.3317   25.5099   49.2733 H   0  0  0  0  0  0  0  0  0  0  0  0
   42.4096   25.6562   48.6519 H   0  0  0  0  0  0  0  0  0  0  0  0
   43.9137   24.3507   46.0993 H   0  0  0  0  0  0  0  0  0  0  0  0
   42.4781   23.7630   46.2238 H   0  0  0  0  0  0  0  0  0  0  0  0
   43.2757   26.8515   45.8075 H   0  0  0  0  0  0  0  0  0  0  0  0
   41.7291   26.7021   45.8807 H   0  0  0  0  0  0  0  0  0  0  0  0
  1  2  2  0
  2  3  1  0
  4  3  2  0
  5  4  1  0
  6  1  1  0
  6  5  2  0
  7 12  2  0
  8  9  2  0
  8  7  1  0
  9 10  1  0
 10 11  2  0
 11 12  1  0
 11 15  1  0
 13  1  1  0
 14 13  2  0
 15 13  1  0
 16  5  1  0
 16 17  2  0
 18 17  1  0
 19 18  1  0
 20 19  1  0
 21 20  1  0
 21 19  1  0
  2 22  1  0
  3 23  1  0
  4 24  1  0
  7 25  1  0
  8 26  1  0
  9 27  1  0
 15 28  1  0
 16 29  1  0
 17 30  1  0
 18 31  1  0
 18 32  1  0
 19 33  1  0
 20 34  1  0
 20 35  1  0
 21 36  1  0
 21 37  1  0
M  ISO  8  22  14  23  14  24  14  25  14  26  14  27  14  31   8  32   8
M  ISO  5  33  13  34  13  35  13  36  13  37  13
M  END
>  <minimizedAffinity>  (1) 
-5.47871637

>  <minimizedRMSD>  (1) 
0.313998014

$$$$
