
     RDKit          3D

 35 37  0  0  0  0  0  0  0  0999 V2000
   46.4520   33.8780   43.2270 C   0  0  0  0  0  0  0  0  0  0  0  0
   45.7620   34.8920   42.4300 C   0  0  0  0  0  0  0  0  0  0  0  0
   45.3540   36.1000   43.1940 C   0  0  0  0  0  0  0  0  0  0  0  0
   44.5240   35.7540   44.4250 C   0  0  0  0  0  0  0  0  0  0  0  0
   44.9800   34.5210   45.1370 C   0  0  0  0  0  0  0  0  0  0  0  0
   46.4030   34.1570   44.7390 C   0  0  0  0  0  0  0  0  0  0  0  0
   47.8750   33.7090   42.8840 C   0  0  0  0  0  0  0  0  0  0  0  0
   48.5930   34.9160   42.6960 C   0  0  0  0  0  0  0  0  0  0  0  0
   49.9550   34.8710   42.3730 C   0  0  0  0  0  0  0  0  0  0  0  0
   50.5120   33.6210   42.2580 N   0  0  0  0  0  0  0  0  0  0  0  0
   49.7840   32.4740   42.4470 C   0  0  0  0  0  0  0  0  0  0  0  0
   48.4980   32.5380   42.7520 N   0  0  0  0  0  0  0  0  0  0  0  0
   50.5340   31.2340   42.2890 C   0  0  0  0  0  0  0  0  0  0  0  0
   51.5640   31.2390   41.4010 N   0  0  0  0  0  0  0  0  0  0  0  0
   52.1350   30.0100   41.3950 C   0  0  0  0  0  0  0  0  0  0  0  0
   51.4480   29.2550   42.2850 N   0  0  0  0  0  0  0  0  0  0  0  0
   50.4700   29.9970   42.8330 N   0  0  0  0  0  0  0  0  0  0  0  0
   51.6900   27.8510   42.6310 C   0  0  0  0  0  0  0  0  0  0  0  0
   45.8950   32.9622   42.9797 H   0  0  0  0  0  0  0  0  0  0  0  0
   44.8584   34.4354   41.9999 H   0  0  0  0  0  0  0  0  0  0  0  0
   46.4767   35.2305   41.6654 H   0  0  0  0  0  0  0  0  0  0  0  0
   46.2585   36.6365   43.5167 H   0  0  0  0  0  0  0  0  0  0  0  0
   44.7321   36.7216   42.5331 H   0  0  0  0  0  0  0  0  0  0  0  0
   44.5774   36.5990   45.1272 H   0  0  0  0  0  0  0  0  0  0  0  0
   43.4996   35.5596   44.0746 H   0  0  0  0  0  0  0  0  0  0  0  0
   44.9439   34.6979   46.2221 H   0  0  0  0  0  0  0  0  0  0  0  0
   44.3148   33.6898   44.8601 H   0  0  0  0  0  0  0  0  0  0  0  0
   46.7201   33.2587   45.2890 H   0  0  0  0  0  0  0  0  0  0  0  0
   47.0785   34.9904   44.9822 H   0  0  0  0  0  0  0  0  0  0  0  0
   48.0827   35.8845   42.8033 H   0  0  0  0  0  0  0  0  0  0  0  0
   50.5458   35.7861   42.2199 H   0  0  0  0  0  0  0  0  0  0  0  0
   52.9916   29.6877   40.7847 H   0  0  0  0  0  0  0  0  0  0  0  0
   51.7089   27.7411   43.7253 H   0  0  0  0  0  0  0  0  0  0  0  0
   50.8862   27.2267   42.2136 H   0  0  0  0  0  0  0  0  0  0  0  0
   52.6564   27.5318   42.2136 H   0  0  0  0  0  0  0  0  0  0  0  0
  1  6  1  0
  2  3  1  0
  2  1  1  0
  3  4  1  0
  4  5  1  0
  6  5  1  0
  7  1  1  0
  8  7  2  0
  9  8  1  0
 10  9  2  0
 10 11  1  0
 11 12  2  0
 12  7  1  0
 13 11  1  0
 13 17  2  0
 14 13  1  0
 15 14  2  0
 15 16  1  0
 16 18  1  0
 16 17  1  0
  1 19  1  0
  2 20  1  0
  2 21  1  0
  3 22  1  0
  3 23  1  0
  4 24  1  0
  4 25  1  0
  5 26  1  0
  5 27  1  0
  6 28  1  0
  6 29  1  0
  8 30  1  0
  9 31  1  0
 15 32  1  0
 18 33  1  0
 18 34  1  0
 18 35  1  0
M  ISO  8  19  13  20  13  21  13  22  13  23  13  24  13  25  13  26  13
M  ISO  8  27  13  28  13  29  13  30  14  31  14  32  14  33   8  34   8
M  ISO  1  35   8
M  END
>  <minimizedAffinity>  (1) 
-4.28067875

>  <minimizedRMSD>  (1) 
0.031760592

$$$$
