
     RDKit          3D

 42 45  0  0  0  0  0  0  0  0999 V2000
   47.9250   33.7290   42.8690 C   0  0  0  0  0  0  0  0  0  0  0  0
   48.6260   34.9420   42.6750 C   0  0  0  0  0  0  0  0  0  0  0  0
   49.9920   34.9030   42.3690 C   0  0  0  0  0  0  0  0  0  0  0  0
   50.5680   33.6590   42.2770 N   0  0  0  0  0  0  0  0  0  0  0  0
   49.8420   32.5110   42.4760 C   0  0  0  0  0  0  0  0  0  0  0  0
   48.5510   32.5490   42.7650 N   0  0  0  0  0  0  0  0  0  0  0  0
   46.4970   33.8890   43.1920 C   0  0  0  0  0  0  0  0  0  0  0  0
   45.7990   34.8960   42.4150 C   0  0  0  0  0  0  0  0  0  0  0  0
   45.3730   36.0890   43.1760 C   0  0  0  0  0  0  0  0  0  0  0  0
   44.5130   35.6990   44.3810 C   0  0  0  0  0  0  0  0  0  0  0  0
   44.9910   34.4900   45.0990 C   0  0  0  0  0  0  0  0  0  0  0  0
   46.4320   34.1490   44.7200 C   0  0  0  0  0  0  0  0  0  0  0  0
   50.6130   31.2810   42.3460 C   0  0  0  0  0  0  0  0  0  0  0  0
   50.5220   30.5930   41.1880 N   0  0  0  0  0  0  0  0  0  0  0  0
   51.2990   29.4910   41.2480 C   0  0  0  0  0  0  0  0  0  0  0  0
   51.8800   29.4990   42.4690 N   0  0  0  0  0  0  0  0  0  0  0  0
   51.4690   30.5880   43.1470 N   0  0  0  0  0  0  0  0  0  0  0  0
   52.8120   28.5230   43.0340 C   0  0  0  0  0  0  0  0  0  0  0  0
   54.1700   29.1110   43.1860 C   0  0  0  0  0  0  0  0  0  0  0  0
   54.7030   29.3600   44.4290 C   0  0  0  0  0  0  0  0  0  0  0  0
   55.9770   29.9070   44.2510 C   0  0  0  0  0  0  0  0  0  0  0  0
   56.1250   29.9490   42.8710 C   0  0  0  0  0  0  0  0  0  0  0  0
   55.0420   29.4730   42.2930 O   0  0  0  0  0  0  0  0  0  0  0  0
   48.1036   35.9060   42.7636 H   0  0  0  0  0  0  0  0  0  0  0  0
   50.5747   35.8224   42.2102 H   0  0  0  0  0  0  0  0  0  0  0  0
   45.9543   32.9739   42.9124 H   0  0  0  0  0  0  0  0  0  0  0  0
   44.9021   34.4304   41.9805 H   0  0  0  0  0  0  0  0  0  0  0  0
   46.5155   35.2528   41.6605 H   0  0  0  0  0  0  0  0  0  0  0  0
   46.2652   36.6258   43.5307 H   0  0  0  0  0  0  0  0  0  0  0  0
   44.7732   36.7294   42.5126 H   0  0  0  0  0  0  0  0  0  0  0  0
   44.5066   36.5414   45.0884 H   0  0  0  0  0  0  0  0  0  0  0  0
   43.5109   35.4633   43.9935 H   0  0  0  0  0  0  0  0  0  0  0  0
   44.9398   34.6736   46.1824 H   0  0  0  0  0  0  0  0  0  0  0  0
   44.3490   33.6429   44.8157 H   0  0  0  0  0  0  0  0  0  0  0  0
   46.7540   33.2480   45.2627 H   0  0  0  0  0  0  0  0  0  0  0  0
   47.0969   34.9839   44.9864 H   0  0  0  0  0  0  0  0  0  0  0  0
   51.4331   28.7358   40.4596 H   0  0  0  0  0  0  0  0  0  0  0  0
   52.4452   28.2043   44.0208 H   0  0  0  0  0  0  0  0  0  0  0  0
   52.8762   27.6628   42.3514 H   0  0  0  0  0  0  0  0  0  0  0  0
   54.2129   29.1633   45.3939 H   0  0  0  0  0  0  0  0  0  0  0  0
   56.6930   30.2282   45.0218 H   0  0  0  0  0  0  0  0  0  0  0  0
   57.0130   30.3234   42.3407 H   0  0  0  0  0  0  0  0  0  0  0  0
  1  7  1  0
  2  1  2  0
  3  2  1  0
  4  3  2  0
  4  5  1  0
  5  6  2  0
  6  1  1  0
  7 12  1  0
  8  9  1  0
  8  7  1  0
  9 10  1  0
 10 11  1  0
 12 11  1  0
 13  5  1  0
 13 17  2  0
 14 15  2  0
 14 13  1  0
 15 16  1  0
 16 18  1  0
 16 17  1  0
 18 19  1  0
 19 20  2  0
 21 20  1  0
 22 21  2  0
 23 22  1  0
 23 19  1  0
  2 24  1  0
  3 25  1  0
  7 26  1  0
  8 27  1  0
  8 28  1  0
  9 29  1  0
  9 30  1  0
 10 31  1  0
 10 32  1  0
 11 33  1  0
 11 34  1  0
 12 35  1  0
 12 36  1  0
 15 37  1  0
 18 38  1  0
 18 39  1  0
 20 40  1  0
 21 41  1  0
 22 42  1  0
M  ISO  8  24  14  25  14  26  13  27  13  28  13  29  13  30  13  31  13
M  ISO  8  32  13  33  13  34  13  35  13  36  13  37  14  38   8  39   8
M  ISO  3  40  14  41  14  42  14
M  END
>  <minimizedAffinity>  (1) 
-4.38443756

>  <minimizedRMSD>  (1) 
1.57475305

$$$$
