
     RDKit          3D

 31 32  0  0  0  0  0  0  0  0999 V2000
   45.6580   31.6140   47.1310 C   0  0  0  0  0  0  0  0  0  0  0  0
   45.5310   32.0630   48.4440 C   0  0  0  0  0  0  0  0  0  0  0  0
   45.2980   31.2290   49.5150 C   0  0  0  0  0  0  0  0  0  0  0  0
   45.1910   29.8850   49.2570 C   0  0  0  0  0  0  0  0  0  0  0  0
   45.3160   29.4220   47.9440 C   0  0  0  0  0  0  0  0  0  0  0  0
   45.5400   30.2870   46.9570 N   0  0  0  0  0  0  0  0  0  0  0  0
   44.7640   36.5850   43.8370 C   0  0  0  0  0  0  0  0  0  0  0  0
   45.6490   36.3120   42.8050 C   0  0  0  0  0  0  0  0  0  0  0  0
   46.3180   35.0780   42.8470 C   0  0  0  0  0  0  0  0  0  0  0  0
   46.0700   34.2240   43.8820 N   0  0  0  0  0  0  0  0  0  0  0  0
   45.1820   34.5560   44.8710 C   0  0  0  0  0  0  0  0  0  0  0  0
   44.5260   35.7510   44.8430 N   0  0  0  0  0  0  0  0  0  0  0  0
   45.9040   32.5630   46.0470 C   0  0  0  0  0  0  0  0  0  0  0  0
   46.9020   32.3940   45.3130 O   0  0  0  0  0  0  0  0  0  0  0  0
   44.9690   33.6260   45.9100 N   0  0  0  0  0  0  0  0  0  0  0  0
   45.2080   28.0030   47.7010 C   0  0  0  0  0  0  0  0  0  0  0  0
   44.5800   27.2240   48.5550 C   0  0  0  0  0  0  0  0  0  0  0  0
   44.3790   25.7570   48.4920 C   0  0  0  0  0  0  0  0  0  0  0  0
   44.7710   25.2780   47.2330 O   0  0  0  0  0  0  0  0  0  0  0  0
   45.6218   33.1424   48.6356 H   0  0  0  0  0  0  0  0  0  0  0  0
   45.2014   31.6243   50.5369 H   0  0  0  0  0  0  0  0  0  0  0  0
   45.0080   29.1767   50.0785 H   0  0  0  0  0  0  0  0  0  0  0  0
   44.2291   37.5461   43.8217 H   0  0  0  0  0  0  0  0  0  0  0  0
   45.8195   37.0303   41.9895 H   0  0  0  0  0  0  0  0  0  0  0  0
   47.0321   34.8036   42.0565 H   0  0  0  0  0  0  0  0  0  0  0  0
   44.1645   33.7137   46.5472 H   0  0  0  0  0  0  0  0  0  0  0  0
   45.6546   27.5695   46.7940 H   0  0  0  0  0  0  0  0  0  0  0  0
   44.1469   27.7280   49.4316 H   0  0  0  0  0  0  0  0  0  0  0  0
   44.9838   25.2716   49.2721 H   0  0  0  0  0  0  0  0  0  0  0  0
   43.3150   25.5286   48.6527 H   0  0  0  0  0  0  0  0  0  0  0  0
   45.3937   24.5171   47.3487 H   0  0  0  0  0  0  0  0  0  0  0  0
  1  2  2  0
  2  3  1  0
  4  3  2  0
  5  4  1  0
  6  1  1  0
  6  5  2  0
  7 12  2  0
  8  9  2  0
  8  7  1  0
  9 10  1  0
 10 11  2  0
 11 15  1  0
 12 11  1  0
 13  1  1  0
 14 13  2  0
 15 13  1  0
 16  5  1  0
 16 17  2  0
 18 17  1  0
 19 18  1  0
  2 20  1  0
  3 21  1  0
  4 22  1  0
  7 23  1  0
  8 24  1  0
  9 25  1  0
 15 26  1  0
 16 27  1  0
 17 28  1  0
 18 29  1  0
 18 30  1  0
 19 31  1  0
M  ISO  8  20  14  21  14  22  14  23  14  24  14  25  14  29   8  30   8
M  ISO  1  31   3
M  END
>  <minimizedAffinity>  (1) 
-4.99716139

>  <minimizedRMSD>  (1) 
0.0815652832

$$$$
