
     RDKit          3D

 52 55  0  0  0  0  0  0  0  0999 V2000
   47.6940   33.8160   42.8530 C   0  0  0  0  0  0  0  0  0  0  0  0
   48.3660   34.9730   42.3680 C   0  0  0  0  0  0  0  0  0  0  0  0
   49.7040   34.8910   41.9830 C   0  0  0  0  0  0  0  0  0  0  0  0
   50.3000   33.6650   42.1040 N   0  0  0  0  0  0  0  0  0  0  0  0
   49.6150   32.5770   42.5760 C   0  0  0  0  0  0  0  0  0  0  0  0
   48.3460   32.6630   42.9380 N   0  0  0  0  0  0  0  0  0  0  0  0
   46.2890   34.0420   43.2260 C   0  0  0  0  0  0  0  0  0  0  0  0
   45.6240   35.0910   42.4960 C   0  0  0  0  0  0  0  0  0  0  0  0
   45.2650   36.2740   43.3210 C   0  0  0  0  0  0  0  0  0  0  0  0
   44.3910   35.8410   44.5060 C   0  0  0  0  0  0  0  0  0  0  0  0
   44.8950   34.6330   45.2120 C   0  0  0  0  0  0  0  0  0  0  0  0
   46.3060   34.2700   44.7750 C   0  0  0  0  0  0  0  0  0  0  0  0
   50.4160   31.3600   42.6390 C   0  0  0  0  0  0  0  0  0  0  0  0
   51.3960   31.1690   41.7430 N   0  0  0  0  0  0  0  0  0  0  0  0
   52.0000   29.9820   41.9860 C   0  0  0  0  0  0  0  0  0  0  0  0
   51.3750   29.4400   43.0520 N   0  0  0  0  0  0  0  0  0  0  0  0
   50.4110   30.2690   43.4570 N   0  0  0  0  0  0  0  0  0  0  0  0
   51.6540   28.1890   43.7160 C   0  0  0  0  0  0  0  0  0  0  0  0
   52.0910   28.4420   45.0920 C   0  0  0  0  0  0  0  0  0  0  0  0
   51.4620   28.5180   46.2550 C   0  0  0  0  0  0  0  0  0  0  0  0
   52.1060   28.7390   47.6380 C   0  0  0  0  0  0  0  0  0  0  0  0
   51.4120   29.7960   48.3810 C   0  0  0  0  0  0  0  0  0  0  0  0
   52.0250   30.9000   48.9380 C   0  0  0  0  0  0  0  0  0  0  0  0
   51.2220   31.8220   49.6180 C   0  0  0  0  0  0  0  0  0  0  0  0
   49.8420   31.6210   49.7210 C   0  0  0  0  0  0  0  0  0  0  0  0
   49.2380   30.5120   49.1590 C   0  0  0  0  0  0  0  0  0  0  0  0
   50.0360   29.5870   48.4790 C   0  0  0  0  0  0  0  0  0  0  0  0
   47.8305   35.9312   42.2968 H   0  0  0  0  0  0  0  0  0  0  0  0
   50.2515   35.7658   41.6021 H   0  0  0  0  0  0  0  0  0  0  0  0
   45.6784   33.1701   42.9487 H   0  0  0  0  0  0  0  0  0  0  0  0
   46.2904   35.4241   41.6868 H   0  0  0  0  0  0  0  0  0  0  0  0
   44.6798   34.6672   42.1232 H   0  0  0  0  0  0  0  0  0  0  0  0
   46.1834   36.7468   43.6992 H   0  0  0  0  0  0  0  0  0  0  0  0
   44.7050   36.9900   42.7016 H   0  0  0  0  0  0  0  0  0  0  0  0
   44.3471   36.6711   45.2265 H   0  0  0  0  0  0  0  0  0  0  0  0
   43.4017   35.5853   44.0986 H   0  0  0  0  0  0  0  0  0  0  0  0
   44.8968   34.8282   46.2945 H   0  0  0  0  0  0  0  0  0  0  0  0
   44.2329   33.7906   44.9629 H   0  0  0  0  0  0  0  0  0  0  0  0
   46.6295   33.3502   45.2842 H   0  0  0  0  0  0  0  0  0  0  0  0
   47.0062   35.0776   45.0348 H   0  0  0  0  0  0  0  0  0  0  0  0
   52.8378   29.5443   41.4235 H   0  0  0  0  0  0  0  0  0  0  0  0
   50.7432   27.5723   43.7300 H   0  0  0  0  0  0  0  0  0  0  0  0
   52.4520   27.6608   43.1736 H   0  0  0  0  0  0  0  0  0  0  0  0
   53.1757   28.6037   45.1771 H   0  0  0  0  0  0  0  0  0  0  0  0
   50.3673   28.4126   46.2317 H   0  0  0  0  0  0  0  0  0  0  0  0
   52.0536   27.8024   48.2125 H   0  0  0  0  0  0  0  0  0  0  0  0
   53.1524   29.0446   47.4912 H   0  0  0  0  0  0  0  0  0  0  0  0
   53.1111   31.0503   48.8500 H   0  0  0  0  0  0  0  0  0  0  0  0
   51.6796   32.7117   50.0751 H   0  0  0  0  0  0  0  0  0  0  0  0
   49.2268   32.3578   50.2583 H   0  0  0  0  0  0  0  0  0  0  0  0
   48.1519   30.3603   49.2450 H   0  0  0  0  0  0  0  0  0  0  0  0
   49.5799   28.6963   48.0222 H   0  0  0  0  0  0  0  0  0  0  0  0
  1  6  1  0
  1  7  1  0
  2  1  2  0
  3  4  2  0
  3  2  1  0
  4  5  1  0
  5 13  1  0
  5  6  2  0
  7 12  1  0
  8  7  1  0
  8  9  1  0
  9 10  1  0
 10 11  1  0
 12 11  1  0
 13 17  2  0
 14 15  2  0
 14 13  1  0
 15 16  1  0
 16 17  1  0
 16 18  1  0
 18 19  1  0
 19 20  2  0
 20 21  1  0
 21 22  1  0
 22 27  1  0
 22 23  2  0
 23 24  1  0
 24 25  2  0
 26 25  1  0
 27 26  2  0
  2 28  1  0
  3 29  1  0
  7 30  1  0
  8 31  1  0
  8 32  1  0
  9 33  1  0
  9 34  1  0
 10 35  1  0
 10 36  1  0
 11 37  1  0
 11 38  1  0
 12 39  1  0
 12 40  1  0
 15 41  1  0
 18 42  1  0
 18 43  1  0
 19 44  1  0
 20 45  1  0
 21 46  1  0
 21 47  1  0
 23 48  1  0
 24 49  1  0
 25 50  1  0
 26 51  1  0
 27 52  1  0
M  ISO  8  28  14  29  14  30  13  31  13  32  13  33  13  34  13  35  13
M  ISO  8  36  13  37  13  38  13  39  13  40  13  41  14  42   8  43   8
M  ISO  7  46   8  47   8  48  14  49  14  50  14  51  14  52  14
M  END
>  <minimizedAffinity>  (1) 
-4.85842609

>  <minimizedRMSD>  (1) 
3.60278225

$$$$
