
     RDKit          3D

 48 50  0  0  0  0  0  0  0  0999 V2000
   52.5250   30.2910   40.5680 C   0  0  0  0  0  0  0  0  0  0  0  0
   52.9340   29.4580   41.6510 C   0  0  0  0  0  0  0  0  0  0  0  0
   52.4140   29.6740   42.9340 C   0  0  0  0  0  0  0  0  0  0  0  0
   51.5190   30.7020   43.0650 N   0  0  0  0  0  0  0  0  0  0  0  0
   51.1520   31.4780   41.9970 C   0  0  0  0  0  0  0  0  0  0  0  0
   51.6520   31.2610   40.7950 N   0  0  0  0  0  0  0  0  0  0  0  0
   53.1430   29.9670   39.2840 C   0  0  0  0  0  0  0  0  0  0  0  0
   54.1530   28.9410   39.3390 C   0  0  0  0  0  0  0  0  0  0  0  0
   55.5280   29.3990   39.0450 C   0  0  0  0  0  0  0  0  0  0  0  0
   55.5540   30.0630   37.6680 C   0  0  0  0  0  0  0  0  0  0  0  0
   54.4720   31.0710   37.4660 C   0  0  0  0  0  0  0  0  0  0  0  0
   53.6820   31.3280   38.7330 C   0  0  0  0  0  0  0  0  0  0  0  0
   50.1940   32.5240   42.3360 C   0  0  0  0  0  0  0  0  0  0  0  0
   50.5850   33.8050   42.3070 N   0  0  0  0  0  0  0  0  0  0  0  0
   49.5400   34.6020   42.6560 C   0  0  0  0  0  0  0  0  0  0  0  0
   48.4970   33.7820   42.8980 N   0  0  0  0  0  0  0  0  0  0  0  0
   48.8870   32.5210   42.7070 N   0  0  0  0  0  0  0  0  0  0  0  0
   47.1600   34.1590   43.2780 C   0  0  0  0  0  0  0  0  0  0  0  0
   46.8180   33.5320   44.5570 C   0  0  0  0  0  0  0  0  0  0  0  0
   45.9160   33.7840   45.4980 C   0  0  0  0  0  0  0  0  0  0  0  0
   45.6500   32.9490   46.7660 C   0  0  0  0  0  0  0  0  0  0  0  0
   46.1150   31.6710   46.4630 O   0  0  0  0  0  0  0  0  0  0  0  0
   46.6170   29.5400   47.8470 O   0  0  0  0  0  0  0  0  0  0  0  0
   45.5170   30.5070   47.5010 P   0  0  0  0  0  0  0  0  0  0  0  0
   44.8560   31.2180   48.8910 O   0  0  0  0  0  0  0  0  0  0  0  0
   44.2870   29.6540   46.6780 O   0  0  0  0  0  0  0  0  0  0  0  0
   53.6569   28.6469   41.4792 H   0  0  0  0  0  0  0  0  0  0  0  0
   52.7092   29.0506   43.7909 H   0  0  0  0  0  0  0  0  0  0  0  0
   52.4003   29.5141   38.6107 H   0  0  0  0  0  0  0  0  0  0  0  0
   54.1463   28.5099   40.3510 H   0  0  0  0  0  0  0  0  0  0  0  0
   53.8966   28.2158   38.5527 H   0  0  0  0  0  0  0  0  0  0  0  0
   55.8454   30.1240   39.8089 H   0  0  0  0  0  0  0  0  0  0  0  0
   56.2134   28.5386   39.0530 H   0  0  0  0  0  0  0  0  0  0  0  0
   56.5244   30.5658   37.5435 H   0  0  0  0  0  0  0  0  0  0  0  0
   55.3943   29.2676   36.9252 H   0  0  0  0  0  0  0  0  0  0  0  0
   54.9265   32.0163   37.1346 H   0  0  0  0  0  0  0  0  0  0  0  0
   53.7777   30.6729   36.7114 H   0  0  0  0  0  0  0  0  0  0  0  0
   54.3335   31.7977   39.4846 H   0  0  0  0  0  0  0  0  0  0  0  0
   52.8388   31.9998   38.5145 H   0  0  0  0  0  0  0  0  0  0  0  0
   49.5445   35.6997   42.7270 H   0  0  0  0  0  0  0  0  0  0  0  0
   47.1028   35.2528   43.3795 H   0  0  0  0  0  0  0  0  0  0  0  0
   46.4522   33.8237   42.5057 H   0  0  0  0  0  0  0  0  0  0  0  0
   47.4473   32.6601   44.7889 H   0  0  0  0  0  0  0  0  0  0  0  0
   45.2946   34.6809   45.3584 H   0  0  0  0  0  0  0  0  0  0  0  0
   46.1971   33.3656   47.6246 H   0  0  0  0  0  0  0  0  0  0  0  0
   44.5851   32.9456   47.0414 H   0  0  0  0  0  0  0  0  0  0  0  0
   45.2484   30.7959   49.6960 H   0  0  0  0  0  0  0  0  0  0  0  0
   43.6798   29.2329   47.3369 H   0  0  0  0  0  0  0  0  0  0  0  0
  1  6  1  0
  1  2  2  0
  2  3  1  0
  3  4  2  0
  5 13  1  0
  5  4  1  0
  6  5  2  0
  7  8  1  0
  7  1  1  0
  9  8  1  0
 10  9  1  0
 11 10  1  0
 11 12  1  0
 12  7  1  0
 13 17  2  0
 14 13  1  0
 14 15  2  0
 15 16  1  0
 16 18  1  0
 17 16  1  0
 18 19  1  0
 19 20  2  0
 20 21  1  0
 22 21  1  0
 22 24  1  0
 24 23  2  0
 24 25  1  0
 26 24  1  0
  2 27  1  0
  3 28  1  0
  7 29  1  0
  8 30  1  0
  8 31  1  0
  9 32  1  0
  9 33  1  0
 10 34  1  0
 10 35  1  0
 11 36  1  0
 11 37  1  0
 12 38  1  0
 12 39  1  0
 15 40  1  0
 18 41  1  0
 18 42  1  0
 19 43  1  0
 20 44  1  0
 21 45  1  0
 21 46  1  0
 25 47  1  0
 26 48  1  0
M  ISO  8  27  14  28  14  29  13  30  13  31  13  32  13  33  13  34  13
M  ISO  8  35  13  36  13  37  13  38  13  39  13  40  14  41   8  42   8
M  ISO  4  45   8  46   8  47   3  48   3
M  END
>  <minimizedAffinity>  (1) 
-4.78952551

>  <minimizedRMSD>  (1) 
8.95031261

$$$$
