
     RDKit          3D

 43 45  0  0  0  0  0  0  0  0999 V2000
   47.9160   33.8280   42.8480 C   0  0  0  0  0  0  0  0  0  0  0  0
   48.5930   35.0730   42.6740 C   0  0  0  0  0  0  0  0  0  0  0  0
   49.9570   35.0900   42.3640 C   0  0  0  0  0  0  0  0  0  0  0  0
   50.5720   33.8710   42.2460 N   0  0  0  0  0  0  0  0  0  0  0  0
   49.8840   32.6990   42.4220 C   0  0  0  0  0  0  0  0  0  0  0  0
   48.5860   32.6890   42.7160 N   0  0  0  0  0  0  0  0  0  0  0  0
   46.4950   33.9540   43.1720 C   0  0  0  0  0  0  0  0  0  0  0  0
   45.7890   34.9620   42.4200 C   0  0  0  0  0  0  0  0  0  0  0  0
   45.3070   36.1090   43.2030 C   0  0  0  0  0  0  0  0  0  0  0  0
   44.4460   35.6410   44.3880 C   0  0  0  0  0  0  0  0  0  0  0  0
   44.9980   34.4550   45.1100 C   0  0  0  0  0  0  0  0  0  0  0  0
   46.4440   34.1910   44.7190 C   0  0  0  0  0  0  0  0  0  0  0  0
   50.7080   31.5070   42.2630 C   0  0  0  0  0  0  0  0  0  0  0  0
   51.1110   31.1480   41.0360 N   0  0  0  0  0  0  0  0  0  0  0  0
   51.8590   30.0180   41.1220 C   0  0  0  0  0  0  0  0  0  0  0  0
   51.9090   29.6870   42.4290 N   0  0  0  0  0  0  0  0  0  0  0  0
   51.2120   30.5860   43.1290 N   0  0  0  0  0  0  0  0  0  0  0  0
   52.6100   28.5760   43.0170 C   0  0  0  0  0  0  0  0  0  0  0  0
   53.9780   28.9800   43.3460 C   0  0  0  0  0  0  0  0  0  0  0  0
   54.5400   29.5660   44.3970 C   0  0  0  0  0  0  0  0  0  0  0  0
   56.0440   29.8430   44.5960 C   0  0  0  0  0  0  0  0  0  0  0  0
   56.3380   30.7560   43.5770 O   0  0  0  0  0  0  0  0  0  0  0  0
   48.0420   36.0187   42.7837 H   0  0  0  0  0  0  0  0  0  0  0  0
   50.5069   36.0321   42.2224 H   0  0  0  0  0  0  0  0  0  0  0  0
   45.9576   33.0400   42.8789 H   0  0  0  0  0  0  0  0  0  0  0  0
   46.4673   35.3427   41.6422 H   0  0  0  0  0  0  0  0  0  0  0  0
   44.8910   34.4688   42.0196 H   0  0  0  0  0  0  0  0  0  0  0  0
   46.1708   36.6724   43.5857 H   0  0  0  0  0  0  0  0  0  0  0  0
   44.6913   36.7460   42.5510 H   0  0  0  0  0  0  0  0  0  0  0  0
   44.3609   36.4724   45.1032 H   0  0  0  0  0  0  0  0  0  0  0  0
   43.4734   35.3368   43.9739 H   0  0  0  0  0  0  0  0  0  0  0  0
   44.9482   34.6403   46.1931 H   0  0  0  0  0  0  0  0  0  0  0  0
   44.3990   33.5737   44.8369 H   0  0  0  0  0  0  0  0  0  0  0  0
   46.8155   33.2993   45.2451 H   0  0  0  0  0  0  0  0  0  0  0  0
   47.0754   35.0488   44.9938 H   0  0  0  0  0  0  0  0  0  0  0  0
   52.3319   29.4778   40.2886 H   0  0  0  0  0  0  0  0  0  0  0  0
   52.0910   28.2589   43.9336 H   0  0  0  0  0  0  0  0  0  0  0  0
   52.6368   27.7402   42.3024 H   0  0  0  0  0  0  0  0  0  0  0  0
   54.6983   28.7472   42.5479 H   0  0  0  0  0  0  0  0  0  0  0  0
   53.8660   29.8854   45.2056 H   0  0  0  0  0  0  0  0  0  0  0  0
   56.2368   30.2814   45.5863 H   0  0  0  0  0  0  0  0  0  0  0  0
   56.6601   28.9329   44.5510 H   0  0  0  0  0  0  0  0  0  0  0  0
   56.6157   31.6182   43.9765 H   0  0  0  0  0  0  0  0  0  0  0  0
  1  7  1  0
  2  1  2  0
  3  2  1  0
  4  3  2  0
  4  5  1  0
  5  6  2  0
  6  1  1  0
  7 12  1  0
  8  7  1  0
  8  9  1  0
  9 10  1  0
 10 11  1  0
 12 11  1  0
 13  5  1  0
 13 17  2  0
 14 15  2  0
 14 13  1  0
 15 16  1  0
 16 18  1  0
 16 17  1  0
 18 19  1  0
 19 20  2  0
 20 21  1  0
 22 21  1  0
  2 23  1  0
  3 24  1  0
  7 25  1  0
  8 26  1  0
  8 27  1  0
  9 28  1  0
  9 29  1  0
 10 30  1  0
 10 31  1  0
 11 32  1  0
 11 33  1  0
 12 34  1  0
 12 35  1  0
 15 36  1  0
 18 37  1  0
 18 38  1  0
 19 39  1  0
 20 40  1  0
 21 41  1  0
 21 42  1  0
 22 43  1  0
M  ISO  8  23  14  24  14  25  13  26  13  27  13  28  13  29  13  30  13
M  ISO  8  31  13  32  13  33  13  34  13  35  13  36  14  37   8  38   8
M  ISO  3  41   8  42   8  43   3
M  END
>  <minimizedAffinity>  (1) 
-4.3560133

>  <minimizedRMSD>  (1) 
0.469158441

$$$$
