
     RDKit          3D

 31 32  0  0  0  0  0  0  0  0999 V2000
   42.4790   34.4730   40.7800 C   0  0  0  0  0  0  0  0  0  0  0  0
   42.7760   34.2910   39.3340 C   0  0  0  0  0  0  0  0  0  0  0  0
   42.1350   35.3270   38.4760 C   0  0  0  0  0  0  0  0  0  0  0  0
   40.6290   35.3680   38.6910 C   0  0  0  0  0  0  0  0  0  0  0  0
   40.2290   35.3800   40.1320 C   0  0  0  0  0  0  0  0  0  0  0  0
   41.4140   35.5000   41.0630 C   0  0  0  0  0  0  0  0  0  0  0  0
   43.6800   34.8740   41.5620 C   0  0  0  0  0  0  0  0  0  0  0  0
   44.9240   34.5380   40.9830 C   0  0  0  0  0  0  0  0  0  0  0  0
   46.0880   34.8850   41.6670 C   0  0  0  0  0  0  0  0  0  0  0  0
   45.9530   35.5350   42.8700 N   0  0  0  0  0  0  0  0  0  0  0  0
   44.7350   35.8370   43.3880 C   0  0  0  0  0  0  0  0  0  0  0  0
   43.5980   35.5150   42.7500 N   0  0  0  0  0  0  0  0  0  0  0  0
   44.7530   36.5140   44.6460 N   0  0  0  0  0  0  0  0  0  0  0  0
   47.4290   34.5670   41.1250 C   0  0  0  0  0  0  0  0  0  0  0  0
   47.8950   33.4030   41.7050 F   0  0  0  0  0  0  0  0  0  0  0  0
   48.2870   35.5870   41.4270 F   0  0  0  0  0  0  0  0  0  0  0  0
   47.3270   34.3450   39.7640 F   0  0  0  0  0  0  0  0  0  0  0  0
   42.1201   33.4805   41.0900 H   0  0  0  0  0  0  0  0  0  0  0  0
   43.8654   34.3411   39.1903 H   0  0  0  0  0  0  0  0  0  0  0  0
   42.3682   33.3146   39.0334 H   0  0  0  0  0  0  0  0  0  0  0  0
   42.3402   35.0952   37.4204 H   0  0  0  0  0  0  0  0  0  0  0  0
   42.5514   36.3085   38.7468 H   0  0  0  0  0  0  0  0  0  0  0  0
   40.2343   36.2768   38.2132 H   0  0  0  0  0  0  0  0  0  0  0  0
   40.2155   34.4492   38.2496 H   0  0  0  0  0  0  0  0  0  0  0  0
   39.5577   36.2342   40.3042 H   0  0  0  0  0  0  0  0  0  0  0  0
   39.7313   34.4231   40.3477 H   0  0  0  0  0  0  0  0  0  0  0  0
   41.0640   35.3688   42.0975 H   0  0  0  0  0  0  0  0  0  0  0  0
   41.8598   36.4937   40.9086 H   0  0  0  0  0  0  0  0  0  0  0  0
   44.9729   34.0155   40.0163 H   0  0  0  0  0  0  0  0  0  0  0  0
   43.8677   36.7765   45.1023 H   0  0  0  0  0  0  0  0  0  0  0  0
   45.6513   36.7396   45.0966 H   0  0  0  0  0  0  0  0  0  0  0  0
  1  6  1  0
  1  7  1  0
  2  1  1  0
  3  4  1  0
  3  2  1  0
  4  5  1  0
  5  6  1  0
  7 12  1  0
  8  7  2  0
  8  9  1  0
  9 10  2  0
 10 11  1  0
 11 13  1  0
 12 11  2  0
 14 16  1  0
 14  9  1  0
 14 15  1  0
 17 14  1  0
  1 18  1  0
  2 19  1  0
  2 20  1  0
  3 21  1  0
  3 22  1  0
  4 23  1  0
  4 24  1  0
  5 25  1  0
  5 26  1  0
  6 27  1  0
  6 28  1  0
  8 29  1  0
 13 30  1  0
 13 31  1  0
M  ISO  8  18  13  19  13  20  13  21  13  22  13  23  13  24  13  25  13
M  ISO  4  26  13  27  13  28  13  29  14
M  END
>  <minimizedAffinity>  (1) 
-5.65950108

>  <minimizedRMSD>  (1) 
5.54129124

$$$$
