
     RDKit          3D

 30 30  0  0  1  0  0  0  0  0999 V2000
   48.7630   35.4490   40.6380 O   0  0  0  0  0  0  0  0  0  0  0  0
   48.0700   34.5830   41.6930 P   0  0  0  0  0  0  0  0  0  0  0  0
   48.9030   34.5920   43.1450 O   0  0  0  0  0  0  0  0  0  0  0  0
   46.4920   35.1940   41.9450 O   0  0  0  0  0  0  0  0  0  0  0  0
   44.4580   35.9990   44.8660 C   0  0  0  0  0  0  0  0  0  0  0  0
   45.0430   36.0950   43.5920 C   0  0  0  0  0  0  0  0  0  0  0  0
   45.9160   35.0890   43.2080 C   0  0  0  0  0  0  0  0  0  0  0  0
   46.1640   34.0680   44.0700 N   0  0  0  0  0  0  0  0  0  0  0  0
   45.5890   34.0070   45.2780 C   0  0  0  0  0  0  0  0  0  0  0  0
   44.7310   34.9710   45.6860 N   0  0  0  0  0  0  0  0  0  0  0  0
   47.9200   33.0300   41.0470 O   0  0  0  0  0  0  0  0  0  0  0  0
   49.9320   31.8630   40.3890 C   0  0  2  0  0  0  0  0  0  0  0  0
   49.0140   32.2740   41.4860 C   0  0  1  0  0  0  0  0  0  0  0  0
   49.8910   33.0500   42.4290 C   0  0  0  0  0  0  0  0  0  0  0  0
   51.1910   32.9740   42.0310 O   0  0  0  0  0  0  0  0  0  0  0  0
   51.2990   32.0840   40.9820 C   0  0  0  0  0  0  0  0  0  0  0  0
   49.7310   32.6340   39.2450 O   0  0  0  0  0  0  0  0  0  0  0  0
   49.3143   36.1380   41.0869 H   0  0  0  0  0  0  0  0  0  0  0  0
   48.9030   34.5920   44.1350 H   0  0  0  0  0  0  0  0  0  0  0  0
   48.9030   35.5254   42.8150 H   0  0  0  0  0  0  0  0  0  0  0  0
   43.7615   36.7826   45.1988 H   0  0  0  0  0  0  0  0  0  0  0  0
   44.8163   36.9384   42.9232 H   0  0  0  0  0  0  0  0  0  0  0  0
   45.8167   33.1636   45.9464 H   0  0  0  0  0  0  0  0  0  0  0  0
   49.7762   30.8252   40.0592 H   0  0  0  0  0  0  0  0  0  0  0  0
   48.5444   31.3998   41.9606 H   0  0  0  0  0  0  0  0  0  0  0  0
   49.5741   34.1033   42.4365 H   0  0  0  0  0  0  0  0  0  0  0  0
   49.7988   32.6234   43.4387 H   0  0  0  0  0  0  0  0  0  0  0  0
   51.7018   31.1282   41.3483 H   0  0  0  0  0  0  0  0  0  0  0  0
   51.9769   32.4896   40.2165 H   0  0  0  0  0  0  0  0  0  0  0  0
   49.4902   33.5576   39.5077 H   0  0  0  0  0  0  0  0  0  0  0  0
  2  1  1  0
  2  4  1  0
  4  7  1  0
  5 10  2  0
  6  5  1  0
  7  6  2  0
  7  8  1  0
  8  9  2  0
  9 10  1  0
 11  2  1  0
 12 17  1  0
 12 16  1  0
 12 13  1  0
 13 11  1  0
 13 14  1  0
 15 14  1  0
 16 15  1  0
  1 18  1  0
  3 19  1  0
  3 20  1  0
  5 21  1  0
  6 22  1  0
  9 23  1  0
 12 24  1  6
 13 25  1  1
 14 26  1  0
 14 27  1  0
 16 28  1  0
 16 29  1  0
 17 30  1  0
M  ISO  8  18   3  19   3  20   3  21  14  22  14  23  14  24  13  25  13
M  ISO  5  26  13  27  13  28  13  29  13  30   3
M  END
>  <minimizedAffinity>  (1) 
-4.87735128

>  <minimizedRMSD>  (1) 
2.79326797

$$$$
