
     RDKit          3D

 27 29  0  0  0  0  0  0  0  0999 V2000
   46.3110   33.4630   38.1030 O   0  0  0  0  0  0  0  0  0  0  0  0
   46.2260   32.8140   39.4740 P   0  0  1  0  0  0  0  0  0  0  0  0
   45.3840   31.3580   39.4240 O   0  0  0  0  0  0  0  0  0  0  0  0
   47.7870   32.5310   40.1010 O   0  0  0  0  0  0  0  0  0  0  0  0
   49.8620   34.1310   42.6500 C   0  0  0  0  0  0  0  0  0  0  0  0
   49.1980   33.1330   41.8920 C   0  0  0  0  0  0  0  0  0  0  0  0
   48.4210   33.5350   40.8180 C   0  0  0  0  0  0  0  0  0  0  0  0
   48.3210   34.8550   40.5290 N   0  0  0  0  0  0  0  0  0  0  0  0
   48.9640   35.7850   41.2650 C   0  0  0  0  0  0  0  0  0  0  0  0
   49.7270   35.4290   42.3140 N   0  0  0  0  0  0  0  0  0  0  0  0
   45.4390   33.9150   40.5170 O   0  0  0  0  0  0  0  0  0  0  0  0
   43.4960   35.1660   41.0980 N   0  0  0  0  0  0  0  0  0  0  0  0
   44.0950   34.2300   40.3530 C   0  0  0  0  0  0  0  0  0  0  0  0
   43.2130   33.6960   39.4810 N   0  0  0  0  0  0  0  0  0  0  0  0
   42.0070   34.2980   39.6610 C   0  0  0  0  0  0  0  0  0  0  0  0
   40.7320   34.2170   39.1120 C   0  0  0  0  0  0  0  0  0  0  0  0
   39.7580   35.0130   39.5760 N   0  0  0  0  0  0  0  0  0  0  0  0
   39.9850   35.8950   40.5670 C   0  0  0  0  0  0  0  0  0  0  0  0
   41.2160   36.0060   41.1310 N   0  0  0  0  0  0  0  0  0  0  0  0
   42.2130   35.2070   40.6730 C   0  0  0  0  0  0  0  0  0  0  0  0
   45.2050   31.0484   40.3472 H   0  0  0  0  0  0  0  0  0  0  0  0
   50.4857   33.8462   43.5101 H   0  0  0  0  0  0  0  0  0  0  0  0
   49.2974   32.0683   42.1500 H   0  0  0  0  0  0  0  0  0  0  0  0
   48.8630   36.8487   41.0037 H   0  0  0  0  0  0  0  0  0  0  0  0
   43.9235   35.7369   41.8411 H   0  0  0  0  0  0  0  0  0  0  0  0
   40.5236   33.5035   38.3012 H   0  0  0  0  0  0  0  0  0  0  0  0
   39.1639   36.5337   40.9246 H   0  0  0  0  0  0  0  0  0  0  0  0
  2  1  2  0
  2  4  1  0
  2 11  1  0
  3  2  1  0
  4  7  1  0
  6  5  2  0
  7  6  1  0
  8  7  2  0
  8  9  1  0
  9 10  2  0
 10  5  1  0
 13 11  1  0
 13 12  1  0
 14 15  1  0
 14 13  2  0
 15 20  2  0
 16 17  2  0
 16 15  1  0
 17 18  1  0
 18 19  2  0
 20 12  1  0
 20 19  1  0
  3 21  1  0
  5 22  1  0
  6 23  1  0
  9 24  1  0
 12 25  1  0
 16 26  1  0
 18 27  1  0
M  ISO  7  21   3  22  14  23  14  24  14  25   9  26  14  27  14
M  END
>  <minimizedAffinity>  (1) 
-4.57895517

>  <minimizedRMSD>  (1) 
7.66467428

$$$$
