
     RDKit          3D

 29 30  0  0  0  0  0  0  0  0999 V2000
   48.3360   32.8090   41.3680 O   0  0  0  0  0  0  0  0  0  0  0  0
   47.2350   33.8700   41.2880 P   0  0  2  0  0  0  0  0  0  0  0  0
   45.8730   33.2990   42.1770 O   0  0  0  0  0  0  0  0  0  0  0  0
   44.4080   35.8540   44.3520 C   0  0  0  0  0  0  0  0  0  0  0  0
   44.8010   35.1870   43.1710 C   0  0  0  0  0  0  0  0  0  0  0  0
   45.4770   33.9710   43.3210 C   0  0  0  0  0  0  0  0  0  0  0  0
   45.7090   33.5160   44.5700 N   0  0  0  0  0  0  0  0  0  0  0  0
   45.3210   34.1760   45.6770 C   0  0  0  0  0  0  0  0  0  0  0  0
   44.6680   35.3490   45.5730 N   0  0  0  0  0  0  0  0  0  0  0  0
   46.7620   34.1900   39.7250 O   0  0  0  0  0  0  0  0  0  0  0  0
   48.4160   34.6120   37.3220 Cl  0  0  0  0  0  0  0  0  0  0  0  0
   47.4280   33.2240   37.6220 C   0  0  0  0  0  0  0  0  0  0  0  0
   46.6990   33.1510   38.7940 C   0  0  0  0  0  0  0  0  0  0  0  0
   45.9020   32.0260   39.0290 C   0  0  0  0  0  0  0  0  0  0  0  0
   45.8250   30.9780   38.1140 C   0  0  0  0  0  0  0  0  0  0  0  0
   46.5500   31.0470   36.9460 C   0  0  0  0  0  0  0  0  0  0  0  0
   47.3160   32.1680   36.7580 C   0  0  0  0  0  0  0  0  0  0  0  0
   47.8020   35.2580   42.0700 O   0  0  0  0  0  0  0  0  0  0  0  0
   49.0000   35.7080   41.5490 C   0  0  0  0  0  0  0  0  0  0  0  0
   49.2900   37.0190   41.8840 F   0  0  0  0  0  0  0  0  0  0  0  0
   50.0180   34.8300   41.8920 F   0  0  0  0  0  0  0  0  0  0  0  0
   48.8680   35.6700   40.1630 F   0  0  0  0  0  0  0  0  0  0  0  0
   43.8746   36.8127   44.2724 H   0  0  0  0  0  0  0  0  0  0  0  0
   44.5852   35.6050   42.1767 H   0  0  0  0  0  0  0  0  0  0  0  0
   45.5381   33.7557   46.6701 H   0  0  0  0  0  0  0  0  0  0  0  0
   45.3205   31.9670   39.9609 H   0  0  0  0  0  0  0  0  0  0  0  0
   45.1909   30.1038   38.3231 H   0  0  0  0  0  0  0  0  0  0  0  0
   46.5162   30.2405   36.1987 H   0  0  0  0  0  0  0  0  0  0  0  0
   47.8955   32.2245   35.8247 H   0  0  0  0  0  0  0  0  0  0  0  0
  2  1  2  0
  2 18  1  0
  2  3  1  0
  3  6  1  0
  4  9  2  0
  5  6  2  0
  5  4  1  0
  6  7  1  0
  7  8  2  0
  9  8  1  0
 10  2  1  0
 11 12  1  0
 12 13  2  0
 13 14  1  0
 13 10  1  0
 15 14  2  0
 16 15  1  0
 17 16  2  0
 17 12  1  0
 19 20  1  0
 19 21  1  0
 19 18  1  0
 22 19  1  0
  4 23  1  0
  5 24  1  0
  8 25  1  0
 14 26  1  0
 15 27  1  0
 16 28  1  0
 17 29  1  0
M  ISO  7  23  14  24  14  25  14  26  14  27  14  28  14  29  14
M  END
>  <minimizedAffinity>  (1) 
-5.36662197

>  <minimizedRMSD>  (1) 
0.650044858

$$$$
