
     RDKit          3D

 26 27  0  0  0  0  0  0  0  0999 V2000
   48.0450   32.8640   41.7530 O   0  0  0  0  0  0  0  0  0  0  0  0
   47.1870   34.0210   41.2750 P   0  0  2  0  0  0  0  0  0  0  0  0
   45.6030   33.8060   41.9140 O   0  0  0  0  0  0  0  0  0  0  0  0
   44.3900   35.9140   44.6550 C   0  0  0  0  0  0  0  0  0  0  0  0
   44.6720   35.4820   43.3430 C   0  0  0  0  0  0  0  0  0  0  0  0
   45.3180   34.2470   43.2010 C   0  0  0  0  0  0  0  0  0  0  0  0
   45.6340   33.5430   44.3110 N   0  0  0  0  0  0  0  0  0  0  0  0
   45.3430   33.9980   45.5480 C   0  0  0  0  0  0  0  0  0  0  0  0
   44.7280   35.1730   45.7230 N   0  0  0  0  0  0  0  0  0  0  0  0
   47.0870   34.1320   39.6190 O   0  0  0  0  0  0  0  0  0  0  0  0
   46.5440   33.1120   38.8570 C   0  0  0  0  0  0  0  0  0  0  0  0
   46.0300   31.8700   39.1450 C   0  0  0  0  0  0  0  0  0  0  0  0
   45.6270   31.2680   38.0040 N   0  0  0  0  0  0  0  0  0  0  0  0
   45.8790   32.1170   36.9800 C   0  0  0  0  0  0  0  0  0  0  0  0
   46.4410   33.2440   37.5020 N   0  0  0  0  0  0  0  0  0  0  0  0
   47.8050   35.4410   41.9450 O   0  0  0  0  0  0  0  0  0  0  0  0
   49.0430   35.7600   41.4330 C   0  0  0  0  0  0  0  0  0  0  0  0
   49.4620   37.0420   41.7830 F   0  0  0  0  0  0  0  0  0  0  0  0
   49.9610   34.7920   41.7440 F   0  0  0  0  0  0  0  0  0  0  0  0
   48.9050   35.7750   40.0390 F   0  0  0  0  0  0  0  0  0  0  0  0
   43.8826   36.8780   44.8072 H   0  0  0  0  0  0  0  0  0  0  0  0
   44.3965   36.0889   42.4679 H   0  0  0  0  0  0  0  0  0  0  0  0
   45.6157   33.3934   46.4255 H   0  0  0  0  0  0  0  0  0  0  0  0
   45.9577   31.4324   40.1516 H   0  0  0  0  0  0  0  0  0  0  0  0
   45.2043   30.3319   37.9273 H   0  0  0  0  0  0  0  0  0  0  0  0
   45.6680   31.9307   35.9166 H   0  0  0  0  0  0  0  0  0  0  0  0
  2  1  2  0
  2  3  1  0
  2 16  1  0
  3  6  1  0
  4  9  2  0
  5  4  1  0
  6  5  2  0
  6  7  1  0
  7  8  2  0
  8  9  1  0
 10  2  1  0
 11 12  2  0
 11 10  1  0
 13 12  1  0
 14 15  2  0
 14 13  1  0
 15 11  1  0
 17 19  1  0
 17 18  1  0
 17 16  1  0
 20 17  1  0
  4 21  1  0
  5 22  1  0
  8 23  1  0
 12 24  1  0
 13 25  1  0
 14 26  1  0
M  ISO  6  21  14  22  14  23  14  24  14  25   9  26  14
M  END
>  <minimizedAffinity>  (1) 
-4.96196747

>  <minimizedRMSD>  (1) 
0.558292508

$$$$
