
     RDKit          3D

 25 26  0  0  1  0  0  0  0  0999 V2000
   46.3710   31.9540   48.5400 C   0  0  2  0  0  0  0  0  0  0  0  0
   46.3290   31.3200   47.1750 C   0  0  1  0  0  0  0  0  0  0  0  0
   45.0800   30.6150   47.1850 O   0  0  0  0  0  0  0  0  0  0  0  0
   45.3160   29.8620   48.3630 C   0  0  0  0  0  0  0  0  0  0  0  0
   45.5200   30.9950   49.3610 C   0  0  2  0  0  0  0  0  0  0  0  0
   45.5010   34.2710   45.1810 C   0  0  0  0  0  0  0  0  0  0  0  0
   46.3920   34.1890   44.0960 C   0  0  0  0  0  0  0  0  0  0  0  0
   47.2940   33.0920   44.0340 C   0  0  0  0  0  0  0  0  0  0  0  0
   47.2520   32.1730   45.0330 N   0  0  0  0  0  0  0  0  0  0  0  0
   46.3770   32.2840   46.0700 C   0  0  0  0  0  0  0  0  0  0  0  0
   45.5240   33.3090   46.1390 N   0  0  0  0  0  0  0  0  0  0  0  0
   44.5710   35.3930   45.2530 C   0  0  0  0  0  0  0  0  0  0  0  0
   44.7180   36.3830   44.4950 O   0  0  0  0  0  0  0  0  0  0  0  0
   45.7540   33.2280   48.5150 O   0  0  0  0  0  0  0  0  0  0  0  0
   44.2760   31.5480   49.6040 O   0  0  0  0  0  0  0  0  0  0  0  0
   47.3908   32.1047   48.9239 H   0  0  0  0  0  0  0  0  0  0  0  0
   47.2088   30.6831   47.0008 H   0  0  0  0  0  0  0  0  0  0  0  0
   44.4517   29.2351   48.6274 H   0  0  0  0  0  0  0  0  0  0  0  0
   46.1480   29.1454   48.2973 H   0  0  0  0  0  0  0  0  0  0  0  0
   45.9701   30.7235   50.3273 H   0  0  0  0  0  0  0  0  0  0  0  0
   46.3910   34.9589   43.3104 H   0  0  0  0  0  0  0  0  0  0  0  0
   48.0053   32.9905   43.2011 H   0  0  0  0  0  0  0  0  0  0  0  0
   43.7395   35.3714   45.9728 H   0  0  0  0  0  0  0  0  0  0  0  0
   45.6030   33.5398   49.4424 H   0  0  0  0  0  0  0  0  0  0  0  0
   44.1290   31.6133   50.5808 H   0  0  0  0  0  0  0  0  0  0  0  0
  1  5  1  0
  2  3  1  0
  2  1  1  0
  3  4  1  0
  4  5  1  0
  5 15  1  0
  6 12  1  0
  6 11  2  0
  7  6  1  0
  8  7  2  0
  8  9  1  0
  9 10  2  0
 10 11  1  0
 10  2  1  0
 13 12  2  0
 14  1  1  0
  1 16  1  1
  2 17  1  6
  4 18  1  0
  4 19  1  0
  5 20  1  1
  7 21  1  0
  8 22  1  0
 12 23  1  0
 14 24  1  0
 15 25  1  0
M  ISO  8  16  13  17  13  18  13  19  13  20  13  21  14  22  14  23   6
M  ISO  2  24   3  25   3
M  END
>  <minimizedAffinity>  (1) 
-4.97715378

>  <minimizedRMSD>  (1) 
1.97303271

$$$$
