
     RDKit          3D

 24 25  0  0  1  0  0  0  0  0999 V2000
   46.0110   32.5230   48.1030 C   0  0  2  0  0  0  0  0  0  0  0  0
   46.4330   31.7740   46.8650 C   0  0  1  0  0  0  0  0  0  0  0  0
   45.3920   30.7990   46.7090 O   0  0  0  0  0  0  0  0  0  0  0  0
   45.5060   30.2320   48.0100 C   0  0  0  0  0  0  0  0  0  0  0  0
   45.1930   31.4600   48.8460 C   0  0  2  0  0  0  0  0  0  0  0  0
   45.6820   34.4690   44.5000 C   0  0  0  0  0  0  0  0  0  0  0  0
   46.6460   34.2820   43.4720 C   0  0  0  0  0  0  0  0  0  0  0  0
   47.5550   33.2010   43.6050 C   0  0  0  0  0  0  0  0  0  0  0  0
   47.4670   32.4000   44.6990 N   0  0  0  0  0  0  0  0  0  0  0  0
   46.5300   32.6120   45.6630 C   0  0  0  0  0  0  0  0  0  0  0  0
   45.6460   33.6300   45.5700 N   0  0  0  0  0  0  0  0  0  0  0  0
   44.4990   35.8070   44.4100 S   0  0  0  0  0  0  0  0  0  0  0  0
   45.1710   33.6100   47.7540 O   0  0  0  0  0  0  0  0  0  0  0  0
   43.8430   31.7330   48.7260 O   0  0  0  0  0  0  0  0  0  0  0  0
   46.8485   32.9420   48.6801 H   0  0  0  0  0  0  0  0  0  0  0  0
   47.4442   31.3563   46.9790 H   0  0  0  0  0  0  0  0  0  0  0  0
   44.7739   29.4272   48.1726 H   0  0  0  0  0  0  0  0  0  0  0  0
   46.4705   29.7501   48.2282 H   0  0  0  0  0  0  0  0  0  0  0  0
   45.4196   31.3817   49.9196 H   0  0  0  0  0  0  0  0  0  0  0  0
   46.6858   34.9537   42.6018 H   0  0  0  0  0  0  0  0  0  0  0  0
   48.3184   33.0144   42.8353 H   0  0  0  0  0  0  0  0  0  0  0  0
   44.1538   36.1974   45.6770 H   0  0  0  0  0  0  0  0  0  0  0  0
   44.8349   34.0449   48.5774 H   0  0  0  0  0  0  0  0  0  0  0  0
   43.4414   31.8142   49.6272 H   0  0  0  0  0  0  0  0  0  0  0  0
  1  5  1  0
  2  1  1  0
  3  2  1  0
  3  4  1  0
  4  5  1  0
  6 11  2  0
  7  8  2  0
  7  6  1  0
  8  9  1  0
  9 10  2  0
 10  2  1  0
 11 10  1  0
 12  6  1  0
 13  1  1  0
 14  5  1  0
  1 15  1  1
  2 16  1  1
  4 17  1  0
  4 18  1  0
  5 19  1  1
  7 20  1  0
  8 21  1  0
 12 22  1  0
 13 23  1  0
 14 24  1  0
M  ISO  8  15  13  16  13  17  13  18  13  19  13  20  14  21  14  22  11
M  ISO  2  23   3  24   3
M  END
>  <minimizedAffinity>  (1) 
-4.65403366

>  <minimizedRMSD>  (1) 
1.612427

$$$$
