
     RDKit          3D

 47 50  0  0  0  0  0  0  0  0999 V2000
   45.4220   27.9040   47.6920 C   0  0  0  0  0  0  0  0  0  0  0  0
   44.4230   27.3240   47.0720 C   0  0  0  0  0  0  0  0  0  0  0  0
   45.6300   31.5240   47.0740 C   0  0  0  0  0  0  0  0  0  0  0  0
   45.3870   31.9870   48.3640 C   0  0  0  0  0  0  0  0  0  0  0  0
   45.1540   31.1570   49.4530 C   0  0  0  0  0  0  0  0  0  0  0  0
   45.1670   29.8010   49.2240 C   0  0  0  0  0  0  0  0  0  0  0  0
   45.4100   29.3380   47.9310 C   0  0  0  0  0  0  0  0  0  0  0  0
   45.6270   30.1940   46.9300 N   0  0  0  0  0  0  0  0  0  0  0  0
   44.7830   36.5620   43.8600 C   0  0  0  0  0  0  0  0  0  0  0  0
   45.6680   36.2660   42.8110 C   0  0  0  0  0  0  0  0  0  0  0  0
   46.3010   35.0300   42.8330 C   0  0  0  0  0  0  0  0  0  0  0  0
   46.0610   34.1440   43.8450 N   0  0  0  0  0  0  0  0  0  0  0  0
   45.1930   34.4850   44.8360 C   0  0  0  0  0  0  0  0  0  0  0  0
   44.5570   35.6880   44.8440 N   0  0  0  0  0  0  0  0  0  0  0  0
   45.8620   32.4800   46.0040 C   0  0  0  0  0  0  0  0  0  0  0  0
   46.8550   32.2940   45.2470 O   0  0  0  0  0  0  0  0  0  0  0  0
   44.9390   33.5650   45.8930 N   0  0  0  0  0  0  0  0  0  0  0  0
   44.3000   25.8650   46.7600 C   0  0  0  0  0  0  0  0  0  0  0  0
   44.1120   23.2300   45.4740 Cl  0  0  0  0  0  0  0  0  0  0  0  0
   42.7350   24.2840   45.7790 C   0  0  0  0  0  0  0  0  0  0  0  0
   42.9030   25.5130   46.3940 C   0  0  0  0  0  0  0  0  0  0  0  0
   41.8240   26.3480   46.6450 C   0  0  0  0  0  0  0  0  0  0  0  0
   40.5530   25.9200   46.2600 C   0  0  0  0  0  0  0  0  0  0  0  0
   40.4000   24.7050   45.6540 C   0  0  0  0  0  0  0  0  0  0  0  0
   41.4900   23.8530   45.3970 C   0  0  0  0  0  0  0  0  0  0  0  0
   41.1720   22.5920   44.7450 C   0  0  0  0  0  0  0  0  0  0  0  0
   40.9280   22.2050   43.4640 C   0  0  0  0  0  0  0  0  0  0  0  0
   40.6680   20.8660   43.3460 C   0  0  0  0  0  0  0  0  0  0  0  0
   40.7650   20.4510   44.6190 N   0  0  0  0  0  0  0  0  0  0  0  0
   41.0520   21.4330   45.4160 N   0  0  0  0  0  0  0  0  0  0  0  0
   46.2760   27.3009   48.0341 H   0  0  0  0  0  0  0  0  0  0  0  0
   43.5948   27.9723   46.7498 H   0  0  0  0  0  0  0  0  0  0  0  0
   45.3790   33.0743   48.5308 H   0  0  0  0  0  0  0  0  0  0  0  0
   44.9669   31.5670   50.4564 H   0  0  0  0  0  0  0  0  0  0  0  0
   44.9887   29.0933   50.0470 H   0  0  0  0  0  0  0  0  0  0  0  0
   44.2657   37.5327   43.8715 H   0  0  0  0  0  0  0  0  0  0  0  0
   45.8533   36.9869   42.0011 H   0  0  0  0  0  0  0  0  0  0  0  0
   47.0018   34.7620   42.0286 H   0  0  0  0  0  0  0  0  0  0  0  0
   44.1417   33.6747   46.5357 H   0  0  0  0  0  0  0  0  0  0  0  0
   44.9646   25.6201   45.9184 H   0  0  0  0  0  0  0  0  0  0  0  0
   44.5825   25.2909   47.6548 H   0  0  0  0  0  0  0  0  0  0  0  0
   41.9668   27.3225   47.1349 H   0  0  0  0  0  0  0  0  0  0  0  0
   39.6767   26.5589   46.4438 H   0  0  0  0  0  0  0  0  0  0  0  0
   39.3912   24.3821   45.3572 H   0  0  0  0  0  0  0  0  0  0  0  0
   40.9385   22.8976   42.6095 H   0  0  0  0  0  0  0  0  0  0  0  0
   40.4390   20.2818   42.4425 H   0  0  0  0  0  0  0  0  0  0  0  0
   40.6288   19.4766   44.9239 H   0  0  0  0  0  0  0  0  0  0  0  0
  1  7  1  0
  2  1  2  0
  3  4  2  0
  4  5  1  0
  6  5  2  0
  7  6  1  0
  8  3  1  0
  8  7  2  0
  9 14  2  0
 10 11  2  0
 10  9  1  0
 11 12  1  0
 12 13  2  0
 13 14  1  0
 13 17  1  0
 15  3  1  0
 16 15  2  0
 17 15  1  0
 18  2  1  0
 19 20  1  0
 20 21  2  0
 21 22  1  0
 21 18  1  0
 23 22  2  0
 24 23  1  0
 25 24  2  0
 25 20  1  0
 26 25  1  0
 26 30  2  0
 27 26  1  0
 28 27  2  0
 28 29  1  0
 29 30  1  0
  1 31  1  0
  2 32  1  0
  4 33  1  0
  5 34  1  0
  6 35  1  0
  9 36  1  0
 10 37  1  0
 11 38  1  0
 17 39  1  0
 18 40  1  0
 18 41  1  0
 22 42  1  0
 23 43  1  0
 24 44  1  0
 27 45  1  0
 28 46  1  0
 29 47  1  0
M  ISO  8  33  14  34  14  35  14  36  14  37  14  38  14  40   8  41   8
M  ISO  6  42  14  43  14  44  14  45  14  46  14  47   9
M  END
>  <minimizedAffinity>  (1) 
-6.14267731

>  <minimizedRMSD>  (1) 
1.2573483

$$$$
