
     RDKit          3D

 40 42  0  0  1  0  0  0  0  0999 V2000
   46.6820   32.8200   46.6090 C   0  0  2  0  0  0  0  0  0  0  0  0
   47.0750   32.7520   45.1850 C   0  0  1  0  0  0  0  0  0  0  0  0
   46.5980   31.4310   44.7550 O   0  0  0  0  0  0  0  0  0  0  0  0
   47.2660   30.7110   45.7720 C   0  0  0  0  0  0  0  0  0  0  0  0
   46.6070   31.3590   47.0190 C   0  0  2  0  0  0  0  0  0  0  0  0
   44.7140   35.2580   43.9810 C   0  0  0  0  0  0  0  0  0  0  0  0
   45.3350   35.7770   42.8340 C   0  0  0  0  0  0  0  0  0  0  0  0
   46.5910   35.2510   42.4600 C   0  0  0  0  0  0  0  0  0  0  0  0
   47.1430   34.2750   43.2140 N   0  0  0  0  0  0  0  0  0  0  0  0
   46.5130   33.7930   44.3240 C   0  0  0  0  0  0  0  0  0  0  0  0
   45.3130   34.2750   44.7080 N   0  0  0  0  0  0  0  0  0  0  0  0
   43.4770   35.7370   44.4000 O   0  0  0  0  0  0  0  0  0  0  0  0
   45.3560   33.3700   46.7070 O   0  0  0  0  0  0  0  0  0  0  0  0
   45.3180   30.9160   47.0810 O   0  0  0  0  0  0  0  0  0  0  0  0
   45.0720   29.9200   47.9960 C   0  0  0  0  0  0  0  0  0  0  0  0
   45.5910   28.5830   47.7040 C   0  0  0  0  0  0  0  0  0  0  0  0
   44.6970   26.2160   49.3000 F   0  0  0  0  0  0  0  0  0  0  0  0
   44.0640   26.4710   48.1420 C   0  0  0  0  0  0  0  0  0  0  0  0
   44.5140   27.5790   47.4800 C   0  0  0  0  0  0  0  0  0  0  0  0
   43.7750   27.7440   46.2900 C   0  0  0  0  0  0  0  0  0  0  0  0
   42.7550   26.9580   45.8070 C   0  0  0  0  0  0  0  0  0  0  0  0
   42.4080   25.8730   46.5800 C   0  0  0  0  0  0  0  0  0  0  0  0
   43.0640   25.6180   47.7630 C   0  0  0  0  0  0  0  0  0  0  0  0
   47.3679   33.4283   47.2169 H   0  0  0  0  0  0  0  0  0  0  0  0
   48.1598   32.9099   45.0940 H   0  0  0  0  0  0  0  0  0  0  0  0
   47.0608   29.6319   45.7134 H   0  0  0  0  0  0  0  0  0  0  0  0
   48.3642   30.7660   45.7408 H   0  0  0  0  0  0  0  0  0  0  0  0
   47.0567   31.1494   48.0007 H   0  0  0  0  0  0  0  0  0  0  0  0
   44.8564   36.5716   42.2428 H   0  0  0  0  0  0  0  0  0  0  0  0
   47.1121   35.6300   41.5685 H   0  0  0  0  0  0  0  0  0  0  0  0
   43.0231   36.4515   43.8866 H   0  0  0  0  0  0  0  0  0  0  0  0
   45.1106   33.4718   47.6607 H   0  0  0  0  0  0  0  0  0  0  0  0
   45.5080   30.2394   48.9541 H   0  0  0  0  0  0  0  0  0  0  0  0
   43.9785   29.8008   47.9891 H   0  0  0  0  0  0  0  0  0  0  0  0
   46.2132   28.6381   46.7986 H   0  0  0  0  0  0  0  0  0  0  0  0
   46.1704   28.2555   48.5798 H   0  0  0  0  0  0  0  0  0  0  0  0
   44.0490   28.6105   45.6702 H   0  0  0  0  0  0  0  0  0  0  0  0
   42.2460   27.1832   44.8582 H   0  0  0  0  0  0  0  0  0  0  0  0
   41.5997   25.2041   46.2495 H   0  0  0  0  0  0  0  0  0  0  0  0
   42.7919   24.7531   48.3858 H   0  0  0  0  0  0  0  0  0  0  0  0
  1 13  1  0
  1  5  1  0
  2  1  1  0
  3  2  1  0
  3  4  1  0
  4  5  1  0
  5 14  1  0
  6 12  1  0
  6 11  2  0
  7  6  1  0
  8  7  2  0
  8  9  1  0
  9 10  2  0
 10 11  1  0
 10  2  1  0
 14 15  1  0
 16 15  1  0
 18 17  1  0
 19 16  1  0
 19 18  2  0
 20 19  1  0
 21 20  2  0
 21 22  1  0
 22 23  2  0
 23 18  1  0
  1 24  1  1
  2 25  1  1
  4 26  1  0
  4 27  1  0
  5 28  1  1
  7 29  1  0
  8 30  1  0
 12 31  1  0
 13 32  1  0
 15 33  1  0
 15 34  1  0
 16 35  1  0
 16 36  1  0
 20 37  1  0
 21 38  1  0
 22 39  1  0
 23 40  1  0
M  ISO  8  24  13  25  13  26  13  27  13  28  13  29  14  30  14  31   3
M  ISO  8  32   3  33   8  34   8  35   8  36   8  37  14  38  14  39  14
M  ISO  1  40  14
M  END
>  <minimizedAffinity>  (1) 
-5.94183731

>  <minimizedRMSD>  (1) 
1.14981914

$$$$
