
     RDKit          3D

 30 31  0  0  1  0  0  0  0  0999 V2000
   47.7940   33.9620   42.4620 C   0  0  2  0  0  0  0  0  0  0  0  0
   49.0120   34.7830   42.6280 C   0  0  0  0  0  0  0  0  0  0  0  0
   49.0940   35.9460   41.6940 C   0  0  0  0  0  0  0  0  0  0  0  0
   48.9250   35.5620   40.2380 C   0  0  0  0  0  0  0  0  0  0  0  0
   47.9180   34.4510   40.0150 C   0  0  2  0  0  0  0  0  0  0  0  0
   47.0030   34.3050   41.2060 C   0  0  0  0  0  0  0  0  0  0  0  0
   46.8700   34.0680   43.6050 C   0  0  0  0  0  0  0  0  0  0  0  0
   45.8360   35.0160   43.4740 C   0  0  0  0  0  0  0  0  0  0  0  0
   44.9100   35.1860   44.5030 C   0  0  0  0  0  0  0  0  0  0  0  0
   45.0740   34.3910   45.6110 N   0  0  0  0  0  0  0  0  0  0  0  0
   46.0800   33.4850   45.7110 C   0  0  0  0  0  0  0  0  0  0  0  0
   46.9750   33.3270   44.7080 N   0  0  0  0  0  0  0  0  0  0  0  0
   48.8190   32.7390   38.4670 C   0  0  0  0  0  0  0  0  0  0  0  0
   48.4340   33.2510   37.3640 O   0  0  0  0  0  0  0  0  0  0  0  0
   48.6370   33.2100   39.7920 N   0  0  0  0  0  0  0  0  0  0  0  0
   48.1821   32.9356   42.3855 H   0  0  0  0  0  0  0  0  0  0  0  0
   49.0332   35.1655   43.6591 H   0  0  0  0  0  0  0  0  0  0  0  0
   49.8682   34.1312   42.3998 H   0  0  0  0  0  0  0  0  0  0  0  0
   48.3030   36.6628   41.9596 H   0  0  0  0  0  0  0  0  0  0  0  0
   50.0999   36.3780   41.8011 H   0  0  0  0  0  0  0  0  0  0  0  0
   48.5918   36.4500   39.6808 H   0  0  0  0  0  0  0  0  0  0  0  0
   49.8989   35.1889   39.8883 H   0  0  0  0  0  0  0  0  0  0  0  0
   47.2990   34.6959   39.1393 H   0  0  0  0  0  0  0  0  0  0  0  0
   46.4665   35.2519   41.3659 H   0  0  0  0  0  0  0  0  0  0  0  0
   46.2927   33.4895   41.0050 H   0  0  0  0  0  0  0  0  0  0  0  0
   45.7590   35.6225   42.5595 H   0  0  0  0  0  0  0  0  0  0  0  0
   44.0919   35.9178   44.4310 H   0  0  0  0  0  0  0  0  0  0  0  0
   46.1690   32.8710   46.6194 H   0  0  0  0  0  0  0  0  0  0  0  0
   49.3736   31.7933   38.3771 H   0  0  0  0  0  0  0  0  0  0  0  0
   49.0117   32.6762   40.5892 H   0  0  0  0  0  0  0  0  0  0  0  0
  1  2  1  0
  1  7  1  0
  3  2  1  0
  4  3  1  0
  5  4  1  0
  5  6  1  0
  6  1  1  0
  7 12  1  0
  8  7  2  0
  8  9  1  0
  9 10  2  0
 10 11  1  0
 12 11  2  0
 13 15  1  0
 14 13  2  0
 15  5  1  0
  1 16  1  6
  2 17  1  0
  2 18  1  0
  3 19  1  0
  3 20  1  0
  4 21  1  0
  4 22  1  0
  5 23  1  6
  6 24  1  0
  6 25  1  0
  8 26  1  0
  9 27  1  0
 11 28  1  0
 13 29  1  0
 15 30  1  0
M  ISO  8  16  13  17  13  18  13  19  13  20  13  21  13  22  13  23  13
M  ISO  6  24  13  25  13  26  14  27  14  28  14  29   6
M  END
>  <minimizedAffinity>  (1) 
-4.98483849

>  <minimizedRMSD>  (1) 
5.4826107

$$$$
