
     RDKit          3D

 28 29  0  0  1  0  0  0  0  0999 V2000
   46.6890   33.6000   43.0340 C   0  0  2  0  0  0  0  0  0  0  0  0
   46.0720   34.6720   42.2250 C   0  0  0  0  0  0  0  0  0  0  0  0
   45.6400   35.8620   43.0190 C   0  0  0  0  0  0  0  0  0  0  0  0
   44.7460   35.5080   44.1940 C   0  0  0  0  0  0  0  0  0  0  0  0
   45.1160   34.2100   44.8650 C   0  0  1  0  0  0  0  0  0  0  0  0
   46.5330   33.8090   44.5330 C   0  0  0  0  0  0  0  0  0  0  0  0
   48.1270   33.4400   42.7520 C   0  0  0  0  0  0  0  0  0  0  0  0
   48.8850   34.6260   42.7380 C   0  0  0  0  0  0  0  0  0  0  0  0
   50.2590   34.5760   42.4820 C   0  0  0  0  0  0  0  0  0  0  0  0
   50.7900   33.3270   42.2550 N   0  0  0  0  0  0  0  0  0  0  0  0
   50.0380   32.2010   42.2740 C   0  0  0  0  0  0  0  0  0  0  0  0
   48.7140   32.2660   42.5210 N   0  0  0  0  0  0  0  0  0  0  0  0
   44.9790   34.2740   46.3040 N   0  0  0  0  0  0  0  0  0  0  0  0
   46.1413   32.6933   42.7376 H   0  0  0  0  0  0  0  0  0  0  0  0
   45.1894   34.2568   41.7164 H   0  0  0  0  0  0  0  0  0  0  0  0
   46.8416   35.0219   41.5212 H   0  0  0  0  0  0  0  0  0  0  0  0
   46.5370   36.3696   43.4034 H   0  0  0  0  0  0  0  0  0  0  0  0
   45.0546   36.5068   42.3470 H   0  0  0  0  0  0  0  0  0  0  0  0
   44.8136   36.3155   44.9379 H   0  0  0  0  0  0  0  0  0  0  0  0
   43.7267   35.3873   43.7985 H   0  0  0  0  0  0  0  0  0  0  0  0
   44.4126   33.4581   44.4778 H   0  0  0  0  0  0  0  0  0  0  0  0
   46.7766   32.8728   45.0566 H   0  0  0  0  0  0  0  0  0  0  0  0
   47.2146   34.6106   44.8538 H   0  0  0  0  0  0  0  0  0  0  0  0
   48.3963   35.5929   42.9286 H   0  0  0  0  0  0  0  0  0  0  0  0
   50.8801   35.4837   42.4632 H   0  0  0  0  0  0  0  0  0  0  0  0
   50.5109   31.2257   42.0865 H   0  0  0  0  0  0  0  0  0  0  0  0
   45.8215   33.8804   46.7469 H   0  0  0  0  0  0  0  0  0  0  0  0
   44.8649   35.2555   46.5947 H   0  0  0  0  0  0  0  0  0  0  0  0
  1  6  1  0
  2  3  1  0
  2  1  1  0
  3  4  1  0
  4  5  1  0
  5 13  1  0
  6  5  1  0
  7  1  1  0
  8  7  2  0
  9  8  1  0
 10 11  1  0
 10  9  2  0
 11 12  2  0
 12  7  1  0
  1 14  1  6
  2 15  1  0
  2 16  1  0
  3 17  1  0
  3 18  1  0
  4 19  1  0
  4 20  1  0
  5 21  1  6
  6 22  1  0
  6 23  1  0
  8 24  1  0
  9 25  1  0
 11 26  1  0
 13 27  1  0
 13 28  1  0
M  ISO  8  14  13  15  13  16  13  17  13  18  13  19  13  20  13  21  13
M  ISO  7  22  13  23  13  24  14  25  14  26  14  27   5  28   5
M  END
>  <minimizedAffinity>  (1) 
-4.48063421

>  <minimizedRMSD>  (1) 
1.81699657

$$$$
