
     RDKit          3D

 27 28  0  0  1  0  0  0  0  0999 V2000
   46.6360   33.6350   43.0590 C   0  0  2  0  0  0  0  0  0  0  0  0
   45.9940   34.6920   42.2590 C   0  0  0  0  0  0  0  0  0  0  0  0
   45.6060   35.8960   43.0700 C   0  0  0  0  0  0  0  0  0  0  0  0
   44.6680   35.5110   44.2040 C   0  0  0  0  0  0  0  0  0  0  0  0
   45.1120   34.2830   44.9470 C   0  0  1  0  0  0  0  0  0  0  0  0
   46.5110   33.8630   44.5610 C   0  0  0  0  0  0  0  0  0  0  0  0
   48.0710   33.4700   42.7600 C   0  0  0  0  0  0  0  0  0  0  0  0
   48.8260   34.6580   42.7230 C   0  0  0  0  0  0  0  0  0  0  0  0
   50.1970   34.5960   42.4540 C   0  0  0  0  0  0  0  0  0  0  0  0
   50.7280   33.3500   42.2370 N   0  0  0  0  0  0  0  0  0  0  0  0
   49.9730   32.2200   42.2800 C   0  0  0  0  0  0  0  0  0  0  0  0
   48.6590   32.2880   42.5380 N   0  0  0  0  0  0  0  0  0  0  0  0
   45.0980   34.4440   46.3240 O   0  0  0  0  0  0  0  0  0  0  0  0
   46.0883   32.7257   42.7707 H   0  0  0  0  0  0  0  0  0  0  0  0
   46.6954   35.0107   41.4739 H   0  0  0  0  0  0  0  0  0  0  0  0
   45.0692   34.2684   41.8403 H   0  0  0  0  0  0  0  0  0  0  0  0
   46.5132   36.3523   43.4929 H   0  0  0  0  0  0  0  0  0  0  0  0
   45.0865   36.6085   42.4124 H   0  0  0  0  0  0  0  0  0  0  0  0
   44.6151   36.3494   44.9141 H   0  0  0  0  0  0  0  0  0  0  0  0
   43.6885   35.2866   43.7566 H   0  0  0  0  0  0  0  0  0  0  0  0
   44.3819   33.5116   44.6608 H   0  0  0  0  0  0  0  0  0  0  0  0
   46.7604   32.9288   45.0855 H   0  0  0  0  0  0  0  0  0  0  0  0
   47.2023   34.6703   44.8444 H   0  0  0  0  0  0  0  0  0  0  0  0
   48.3407   35.6283   42.9045 H   0  0  0  0  0  0  0  0  0  0  0  0
   50.8193   35.5024   42.4182 H   0  0  0  0  0  0  0  0  0  0  0  0
   50.4440   31.2421   42.1017 H   0  0  0  0  0  0  0  0  0  0  0  0
   45.1750   33.5588   46.7605 H   0  0  0  0  0  0  0  0  0  0  0  0
  1  6  1  0
  2  1  1  0
  2  3  1  0
  3  4  1  0
  4  5  1  0
  5 13  1  0
  6  5  1  0
  7  1  1  0
  8  7  2  0
  9  8  1  0
 10 11  1  0
 10  9  2  0
 11 12  2  0
 12  7  1  0
  1 14  1  1
  2 15  1  0
  2 16  1  0
  3 17  1  0
  3 18  1  0
  4 19  1  0
  4 20  1  0
  5 21  1  1
  6 22  1  0
  6 23  1  0
  8 24  1  0
  9 25  1  0
 11 26  1  0
 13 27  1  0
M  ISO  8  14  13  15  13  16  13  17  13  18  13  19  13  20  13  21  13
M  ISO  6  22  13  23  13  24  14  25  14  26  14  27   3
M  END
>  <minimizedAffinity>  (1) 
-4.46194506

>  <minimizedRMSD>  (1) 
1.84751379

$$$$
