
     RDKit          3D

 42 44  0  0  1  0  0  0  0  0999 V2000
   47.3620   34.0780   42.5010 C   0  0  2  0  0  0  0  0  0  0  0  0
   48.7010   34.6860   42.6540 C   0  0  0  0  0  0  0  0  0  0  0  0
   48.9660   35.7530   41.6450 C   0  0  0  0  0  0  0  0  0  0  0  0
   48.7800   35.2900   40.2220 C   0  0  0  0  0  0  0  0  0  0  0  0
   47.6390   34.3390   40.0320 C   0  0  2  0  0  0  0  0  0  0  0  0
   46.6850   34.3660   41.2080 C   0  0  0  0  0  0  0  0  0  0  0  0
   46.4430   34.3830   43.6100 C   0  0  0  0  0  0  0  0  0  0  0  0
   45.6010   35.4640   43.3650 C   0  0  0  0  0  0  0  0  0  0  0  0
   44.6620   35.8480   44.3250 C   0  0  0  0  0  0  0  0  0  0  0  0
   44.6420   35.1010   45.4900 N   0  0  0  0  0  0  0  0  0  0  0  0
   45.4770   34.0630   45.6890 C   0  0  0  0  0  0  0  0  0  0  0  0
   46.3640   33.7180   44.7520 N   0  0  0  0  0  0  0  0  0  0  0  0
   48.1880   32.9990   39.7480 C   0  0  0  0  0  0  0  0  0  0  0  0
   47.2290   31.9600   39.2940 C   0  0  0  0  0  0  0  0  0  0  0  0
   44.9700   33.1830   38.2810 F   0  0  0  0  0  0  0  0  0  0  0  0
   45.7960   32.5930   37.3530 C   0  0  0  0  0  0  0  0  0  0  0  0
   46.9180   31.9860   37.8640 C   0  0  0  0  0  0  0  0  0  0  0  0
   47.7660   31.3850   36.9530 C   0  0  0  0  0  0  0  0  0  0  0  0
   47.4780   31.4090   35.6240 C   0  0  0  0  0  0  0  0  0  0  0  0
   46.3340   32.0360   35.1800 C   0  0  0  0  0  0  0  0  0  0  0  0
   45.4190   32.6700   36.0280 C   0  0  0  0  0  0  0  0  0  0  0  0
   47.5920   33.0024   42.5174 H   0  0  0  0  0  0  0  0  0  0  0  0
   48.7753   35.1258   43.6595 H   0  0  0  0  0  0  0  0  0  0  0  0
   49.4466   33.8917   42.5022 H   0  0  0  0  0  0  0  0  0  0  0  0
   48.2767   36.5894   41.8326 H   0  0  0  0  0  0  0  0  0  0  0  0
   50.0194   36.0501   41.7551 H   0  0  0  0  0  0  0  0  0  0  0  0
   48.6015   36.1738   39.5918 H   0  0  0  0  0  0  0  0  0  0  0  0
   49.6950   34.7468   39.9433 H   0  0  0  0  0  0  0  0  0  0  0  0
   47.0284   34.6481   39.1708 H   0  0  0  0  0  0  0  0  0  0  0  0
   46.2252   35.3636   41.2657 H   0  0  0  0  0  0  0  0  0  0  0  0
   45.9321   33.5809   41.0442 H   0  0  0  0  0  0  0  0  0  0  0  0
   45.6751   36.0154   42.4161 H   0  0  0  0  0  0  0  0  0  0  0  0
   43.9783   36.6947   44.1645 H   0  0  0  0  0  0  0  0  0  0  0  0
   45.4280   33.4954   46.6300 H   0  0  0  0  0  0  0  0  0  0  0  0
   48.9506   33.1123   38.9634 H   0  0  0  0  0  0  0  0  0  0  0  0
   48.5674   32.6350   40.7142 H   0  0  0  0  0  0  0  0  0  0  0  0
   47.6558   30.9746   39.5323 H   0  0  0  0  0  0  0  0  0  0  0  0
   46.2836   32.1654   39.8174 H   0  0  0  0  0  0  0  0  0  0  0  0
   48.6798   30.8840   37.3051 H   0  0  0  0  0  0  0  0  0  0  0  0
   48.1573   30.9286   34.9045 H   0  0  0  0  0  0  0  0  0  0  0  0
   46.1287   32.0383   34.0993 H   0  0  0  0  0  0  0  0  0  0  0  0
   44.5047   33.1719   35.6785 H   0  0  0  0  0  0  0  0  0  0  0  0
  1  2  1  0
  1  7  1  0
  3  2  1  0
  4  3  1  0
  5  4  1  0
  5  6  1  0
  6  1  1  0
  7 12  1  0
  8  7  2  0
  8  9  1  0
  9 10  2  0
 10 11  1  0
 12 11  2  0
 13  5  1  0
 14 13  1  0
 16 17  2  0
 16 15  1  0
 17 14  1  0
 18 17  1  0
 19 18  2  0
 20 19  1  0
 20 21  2  0
 21 16  1  0
  1 22  1  6
  2 23  1  0
  2 24  1  0
  3 25  1  0
  3 26  1  0
  4 27  1  0
  4 28  1  0
  5 29  1  6
  6 30  1  0
  6 31  1  0
  8 32  1  0
  9 33  1  0
 11 34  1  0
 13 35  1  0
 13 36  1  0
 14 37  1  0
 14 38  1  0
 18 39  1  0
 19 40  1  0
 20 41  1  0
 21 42  1  0
M  ISO  8  22  13  23  13  24  13  25  13  26  13  27  13  28  13  29  13
M  ISO  8  30  13  31  13  32  14  33  14  34  14  35   8  36   8  37   8
M  ISO  5  38   8  39  14  40  14  41  14  42  14
M  END
>  <minimizedAffinity>  (1) 
-5.49603701

>  <minimizedRMSD>  (1) 
0.782656074

$$$$
