
     RDKit          3D

 45 47  0  0  1  0  0  0  0  0999 V2000
   47.3140   34.0670   42.5040 C   0  0  2  0  0  0  0  0  0  0  0  0
   48.6690   34.6410   42.6560 C   0  0  0  0  0  0  0  0  0  0  0  0
   48.9570   35.7070   41.6540 C   0  0  0  0  0  0  0  0  0  0  0  0
   48.7450   35.2660   40.2260 C   0  0  0  0  0  0  0  0  0  0  0  0
   47.5910   34.3320   40.0410 C   0  0  2  0  0  0  0  0  0  0  0  0
   46.6370   34.3870   41.2160 C   0  0  0  0  0  0  0  0  0  0  0  0
   46.4090   34.3810   43.6210 C   0  0  0  0  0  0  0  0  0  0  0  0
   45.5790   35.4740   43.3850 C   0  0  0  0  0  0  0  0  0  0  0  0
   44.6550   35.8730   44.3550 C   0  0  0  0  0  0  0  0  0  0  0  0
   44.6390   35.1240   45.5200 N   0  0  0  0  0  0  0  0  0  0  0  0
   45.4590   34.0740   45.7090 C   0  0  0  0  0  0  0  0  0  0  0  0
   46.3300   33.7160   44.7630 N   0  0  0  0  0  0  0  0  0  0  0  0
   48.1060   32.9710   39.7440 C   0  0  0  0  0  0  0  0  0  0  0  0
   47.2470   32.1400   38.8710 C   0  0  0  0  0  0  0  0  0  0  0  0
   48.4810   30.7030   37.1410 C   0  0  0  0  0  0  0  0  0  0  0  0
   47.8990   31.8660   37.5680 C   0  0  0  0  0  0  0  0  0  0  0  0
   47.9590   32.9240   36.6470 C   0  0  0  0  0  0  0  0  0  0  0  0
   48.5310   32.9010   35.3980 C   0  0  0  0  0  0  0  0  0  0  0  0
   49.1090   31.7150   35.0030 C   0  0  0  0  0  0  0  0  0  0  0  0
   49.0750   30.6450   35.8730 C   0  0  0  0  0  0  0  0  0  0  0  0
   48.4380   29.3380   38.1800 S   0  0  0  0  0  0  0  0  0  0  0  0
   47.0700   28.7830   38.4140 O   0  0  0  0  0  0  0  0  0  0  0  0
   49.2560   29.4690   39.4310 O   0  0  0  0  0  0  0  0  0  0  0  0
   47.5173   32.9860   42.5075 H   0  0  0  0  0  0  0  0  0  0  0  0
   48.7577   35.0721   43.6641 H   0  0  0  0  0  0  0  0  0  0  0  0
   49.3940   33.8294   42.4960 H   0  0  0  0  0  0  0  0  0  0  0  0
   48.2953   36.5622   41.8559 H   0  0  0  0  0  0  0  0  0  0  0  0
   50.0206   35.9681   41.7569 H   0  0  0  0  0  0  0  0  0  0  0  0
   48.5678   36.1605   39.6107 H   0  0  0  0  0  0  0  0  0  0  0  0
   49.6495   34.7167   39.9256 H   0  0  0  0  0  0  0  0  0  0  0  0
   46.9880   34.6479   39.1770 H   0  0  0  0  0  0  0  0  0  0  0  0
   46.2122   35.3996   41.2807 H   0  0  0  0  0  0  0  0  0  0  0  0
   45.8521   33.6344   41.0501 H   0  0  0  0  0  0  0  0  0  0  0  0
   45.6505   36.0236   42.4348 H   0  0  0  0  0  0  0  0  0  0  0  0
   43.9818   36.7294   44.2025 H   0  0  0  0  0  0  0  0  0  0  0  0
   45.4112   33.5065   46.6501 H   0  0  0  0  0  0  0  0  0  0  0  0
   49.0844   33.0788   39.2529 H   0  0  0  0  0  0  0  0  0  0  0  0
   48.1496   32.4476   40.7105 H   0  0  0  0  0  0  0  0  0  0  0  0
   47.0424   31.1845   39.3761 H   0  0  0  0  0  0  0  0  0  0  0  0
   46.3138   32.6904   38.6807 H   0  0  0  0  0  0  0  0  0  0  0  0
   47.4987   33.8731   36.9588 H   0  0  0  0  0  0  0  0  0  0  0  0
   48.5275   33.7865   34.7455 H   0  0  0  0  0  0  0  0  0  0  0  0
   49.5868   31.6231   34.0165 H   0  0  0  0  0  0  0  0  0  0  0  0
   49.5373   29.6987   35.5555 H   0  0  0  0  0  0  0  0  0  0  0  0
   49.0880   28.3743   37.4549 H   0  0  0  0  0  0  0  0  0  0  0  0
  1  2  1  0
  1  7  1  0
  3  2  1  0
  4  3  1  0
  5  4  1  0
  5  6  1  0
  6  1  1  0
  7 12  1  0
  8  7  2  0
  8  9  1  0
  9 10  2  0
 10 11  1  0
 12 11  2  0
 13  5  1  0
 14 13  1  0
 15 16  2  0
 15 21  1  0
 16 14  1  0
 17 16  1  0
 18 17  2  0
 19 18  1  0
 19 20  2  0
 20 15  1  0
 21 22  2  0
 21 23  2  0
  1 24  1  6
  2 25  1  0
  2 26  1  0
  3 27  1  0
  3 28  1  0
  4 29  1  0
  4 30  1  0
  5 31  1  6
  6 32  1  0
  6 33  1  0
  8 34  1  0
  9 35  1  0
 11 36  1  0
 13 37  1  0
 13 38  1  0
 14 39  1  0
 14 40  1  0
 17 41  1  0
 18 42  1  0
 19 43  1  0
 20 44  1  0
 21 45  1  0
M  ISO  8  24  13  25  13  26  13  27  13  28  13  29  13  30  13  31  13
M  ISO  8  32  13  33  13  34  14  35  14  36  14  37   8  38   8  39   8
M  ISO  6  40   8  41  14  42  14  43  14  44  14  45  11
M  END
>  <minimizedAffinity>  (1) 
-5.21719933

>  <minimizedRMSD>  (1) 
2.40538335

$$$$
