
     RDKit          3D

 33 34  0  0  1  0  0  0  0  0999 V2000
   47.3200   34.0710   42.5160 C   0  0  2  0  0  0  0  0  0  0  0  0
   48.6720   34.6580   42.6610 C   0  0  0  0  0  0  0  0  0  0  0  0
   48.9530   35.7200   41.6520 C   0  0  0  0  0  0  0  0  0  0  0  0
   48.7440   35.2690   40.2280 C   0  0  0  0  0  0  0  0  0  0  0  0
   47.5970   34.3260   40.0460 C   0  0  2  0  0  0  0  0  0  0  0  0
   46.6460   34.3690   41.2270 C   0  0  0  0  0  0  0  0  0  0  0  0
   46.4110   34.3860   43.6270 C   0  0  0  0  0  0  0  0  0  0  0  0
   45.5820   35.4780   43.3890 C   0  0  0  0  0  0  0  0  0  0  0  0
   44.6560   35.8790   44.3540 C   0  0  0  0  0  0  0  0  0  0  0  0
   44.6290   35.1350   45.5210 N   0  0  0  0  0  0  0  0  0  0  0  0
   45.4520   34.0850   45.7110 C   0  0  0  0  0  0  0  0  0  0  0  0
   46.3300   33.7210   44.7680 N   0  0  0  0  0  0  0  0  0  0  0  0
   48.1110   32.9680   39.7620 C   0  0  0  0  0  0  0  0  0  0  0  0
   47.1160   31.9770   39.2860 C   0  0  0  0  0  0  0  0  0  0  0  0
   46.4280   32.4900   38.1650 O   0  0  0  0  0  0  0  0  0  0  0  0
   47.5323   32.9918   42.5350 H   0  0  0  0  0  0  0  0  0  0  0  0
   48.7587   35.0965   43.6661 H   0  0  0  0  0  0  0  0  0  0  0  0
   49.4020   33.8504   42.5034 H   0  0  0  0  0  0  0  0  0  0  0  0
   48.2857   36.5721   41.8486 H   0  0  0  0  0  0  0  0  0  0  0  0
   50.0148   35.9889   41.7532 H   0  0  0  0  0  0  0  0  0  0  0  0
   48.5610   36.1587   39.6076 H   0  0  0  0  0  0  0  0  0  0  0  0
   49.6522   34.7232   39.9326 H   0  0  0  0  0  0  0  0  0  0  0  0
   47.0001   34.6435   39.1783 H   0  0  0  0  0  0  0  0  0  0  0  0
   46.2028   35.3741   41.2856 H   0  0  0  0  0  0  0  0  0  0  0  0
   45.8804   33.5958   41.0656 H   0  0  0  0  0  0  0  0  0  0  0  0
   45.6564   36.0266   42.4384 H   0  0  0  0  0  0  0  0  0  0  0  0
   43.9862   36.7371   44.1959 H   0  0  0  0  0  0  0  0  0  0  0  0
   45.4018   33.5195   46.6532 H   0  0  0  0  0  0  0  0  0  0  0  0
   48.8898   33.0586   38.9905 H   0  0  0  0  0  0  0  0  0  0  0  0
   48.4717   32.5823   40.7270 H   0  0  0  0  0  0  0  0  0  0  0  0
   47.6325   31.0478   39.0036 H   0  0  0  0  0  0  0  0  0  0  0  0
   46.3953   31.7708   40.0911 H   0  0  0  0  0  0  0  0  0  0  0  0
   45.6730   33.0529   38.4704 H   0  0  0  0  0  0  0  0  0  0  0  0
  1  2  1  0
  1  7  1  0
  3  2  1  0
  4  3  1  0
  5  4  1  0
  5  6  1  0
  6  1  1  0
  7 12  1  0
  8  7  2  0
  8  9  1  0
  9 10  2  0
 10 11  1  0
 12 11  2  0
 13  5  1  0
 14 13  1  0
 15 14  1  0
  1 16  1  6
  2 17  1  0
  2 18  1  0
  3 19  1  0
  3 20  1  0
  4 21  1  0
  4 22  1  0
  5 23  1  6
  6 24  1  0
  6 25  1  0
  8 26  1  0
  9 27  1  0
 11 28  1  0
 13 29  1  0
 13 30  1  0
 14 31  1  0
 14 32  1  0
 15 33  1  0
M  ISO  8  16  13  17  13  18  13  19  13  20  13  21  13  22  13  23  13
M  ISO  8  24  13  25  13  26  14  27  14  28  14  29   8  30   8  31   8
M  ISO  2  32   8  33   3
M  END
>  <minimizedAffinity>  (1) 
-4.864573

>  <minimizedRMSD>  (1) 
0.048234988

$$$$
