
     RDKit          3D

 20 21  0  0  0  0  0  0  0  0999 V2000
   44.4600   35.9540   44.8370 C   0  0  0  0  0  0  0  0  0  0  0  0
   45.1560   35.8740   43.6250 C   0  0  0  0  0  0  0  0  0  0  0  0
   46.0590   34.8420   43.3680 C   0  0  0  0  0  0  0  0  0  0  0  0
   46.2090   33.9360   44.3660 N   0  0  0  0  0  0  0  0  0  0  0  0
   45.5400   34.0170   45.5310 C   0  0  0  0  0  0  0  0  0  0  0  0
   44.6750   35.0140   45.7620 N   0  0  0  0  0  0  0  0  0  0  0  0
   44.5450   33.0930   41.2970 Br  0  0  0  0  0  0  0  0  0  0  0  0
   46.2220   33.9880   41.1030 C   0  0  0  0  0  0  0  0  0  0  0  0
   46.7940   34.7420   42.1090 C   0  0  0  0  0  0  0  0  0  0  0  0
   48.0090   35.3440   41.8600 C   0  0  0  0  0  0  0  0  0  0  0  0
   48.6670   35.2210   40.6530 C   0  0  0  0  0  0  0  0  0  0  0  0
   48.1040   34.4660   39.6330 C   0  0  0  0  0  0  0  0  0  0  0  0
   46.8850   33.8670   39.8960 C   0  0  0  0  0  0  0  0  0  0  0  0
   43.7508   36.7738   45.0240 H   0  0  0  0  0  0  0  0  0  0  0  0
   44.9869   36.6431   42.8570 H   0  0  0  0  0  0  0  0  0  0  0  0
   45.7058   33.2533   46.3052 H   0  0  0  0  0  0  0  0  0  0  0  0
   48.4726   35.9465   42.6551 H   0  0  0  0  0  0  0  0  0  0  0  0
   49.6352   35.7200   40.4996 H   0  0  0  0  0  0  0  0  0  0  0  0
   48.6042   34.3494   38.6603 H   0  0  0  0  0  0  0  0  0  0  0  0
   46.4191   33.2630   39.1035 H   0  0  0  0  0  0  0  0  0  0  0  0
  1  6  2  0
  2  1  1  0
  3  2  2  0
  3  4  1  0
  4  5  2  0
  5  6  1  0
  8  7  1  0
  8  9  2  0
  9  3  1  0
 10  9  1  0
 11 10  2  0
 12 13  2  0
 12 11  1  0
 13  8  1  0
  1 14  1  0
  2 15  1  0
  5 16  1  0
 10 17  1  0
 11 18  1  0
 12 19  1  0
 13 20  1  0
M  ISO  7  14  14  15  14  16  14  17  14  18  14  19  14  20  14
M  END
>  <minimizedAffinity>  (1) 
-5.03126621

>  <minimizedRMSD>  (1) 
1.03932154

$$$$
