
     RDKit          3D

 36 39  0  0  0  0  0  0  0  0999 V2000
   44.7460   33.1010   42.6770 Br  0  0  0  0  0  0  0  0  0  0  0  0
   44.8930   33.0770   40.7760 C   0  0  0  0  0  0  0  0  0  0  0  0
   43.8530   33.4330   39.9380 C   0  0  0  0  0  0  0  0  0  0  0  0
   44.0600   33.3820   38.5790 C   0  0  0  0  0  0  0  0  0  0  0  0
   45.2600   32.9940   38.0160 C   0  0  0  0  0  0  0  0  0  0  0  0
   46.3210   32.6330   38.8430 C   0  0  0  0  0  0  0  0  0  0  0  0
   46.0890   32.6900   40.1990 C   0  0  0  0  0  0  0  0  0  0  0  0
   47.2400   32.2980   41.0420 C   0  0  0  0  0  0  0  0  0  0  0  0
   47.4610   30.9890   41.4190 C   0  0  0  0  0  0  0  0  0  0  0  0
   48.5590   30.7180   42.2050 C   0  0  0  0  0  0  0  0  0  0  0  0
   49.4050   31.7570   42.5920 C   0  0  0  0  0  0  0  0  0  0  0  0
   49.1480   33.0640   42.1890 C   0  0  0  0  0  0  0  0  0  0  0  0
   50.0230   34.0680   42.6010 C   0  0  0  0  0  0  0  0  0  0  0  0
   49.7580   35.3710   42.1940 C   0  0  0  0  0  0  0  0  0  0  0  0
   48.6690   35.6930   41.4050 C   0  0  0  0  0  0  0  0  0  0  0  0
   47.8530   34.6580   41.0380 C   0  0  0  0  0  0  0  0  0  0  0  0
   48.0460   33.3600   41.3960 C   0  0  0  0  0  0  0  0  0  0  0  0
   40.3650   33.3460   41.4340 C   0  0  0  0  0  0  0  0  0  0  0  0
   41.5630   32.9370   40.8280 C   0  0  0  0  0  0  0  0  0  0  0  0
   42.5920   33.8410   40.5700 C   0  0  0  0  0  0  0  0  0  0  0  0
   42.3600   35.1200   40.9380 N   0  0  0  0  0  0  0  0  0  0  0  0
   41.2020   35.5030   41.5200 C   0  0  0  0  0  0  0  0  0  0  0  0
   40.2240   34.6350   41.7630 N   0  0  0  0  0  0  0  0  0  0  0  0
   43.2327   33.6628   37.9107 H   0  0  0  0  0  0  0  0  0  0  0  0
   45.3769   32.9703   36.9225 H   0  0  0  0  0  0  0  0  0  0  0  0
   47.2928   32.3190   38.4344 H   0  0  0  0  0  0  0  0  0  0  0  0
   46.7802   30.1856   41.1011 H   0  0  0  0  0  0  0  0  0  0  0  0
   48.7677   29.6868   42.5260 H   0  0  0  0  0  0  0  0  0  0  0  0
   50.2818   31.5418   43.2204 H   0  0  0  0  0  0  0  0  0  0  0  0
   50.8962   33.8366   43.2287 H   0  0  0  0  0  0  0  0  0  0  0  0
   50.4391   36.1744   42.5111 H   0  0  0  0  0  0  0  0  0  0  0  0
   48.4692   36.7275   41.0889 H   0  0  0  0  0  0  0  0  0  0  0  0
   46.9806   34.8917   40.4101 H   0  0  0  0  0  0  0  0  0  0  0  0
   39.5603   32.6231   41.6339 H   0  0  0  0  0  0  0  0  0  0  0  0
   41.6926   31.8804   40.5507 H   0  0  0  0  0  0  0  0  0  0  0  0
   41.0650   36.5580   41.7995 H   0  0  0  0  0  0  0  0  0  0  0  0
  2  1  1  0
  3 20  1  0
  3  2  2  0
  4  3  1  0
  5  4  2  0
  5  6  1  0
  6  7  2  0
  7  2  1  0
  7  8  1  0
  8 17  1  0
  8  9  2  0
  9 10  1  0
 10 11  2  0
 12 11  1  0
 12 13  2  0
 14 13  1  0
 15 14  2  0
 16 17  2  0
 16 15  1  0
 17 12  1  0
 18 23  2  0
 19 18  1  0
 20 19  2  0
 20 21  1  0
 21 22  2  0
 22 23  1  0
  4 24  1  0
  5 25  1  0
  6 26  1  0
  9 27  1  0
 10 28  1  0
 11 29  1  0
 13 30  1  0
 14 31  1  0
 15 32  1  0
 16 33  1  0
 18 34  1  0
 19 35  1  0
 22 36  1  0
M  ISO  8  24  14  25  14  26  14  27  14  28  14  29  14  30  14  31  14
M  ISO  5  32  14  33  14  34  14  35  14  36  14
M  END
>  <minimizedAffinity>  (1) 
-5.72282267

>  <minimizedRMSD>  (1) 
5.28666401

$$$$
