
     RDKit          3D

 42 44  0  0  0  0  0  0  0  0999 V2000
   45.6550   31.5710   47.0640 C   0  0  0  0  0  0  0  0  0  0  0  0
   45.4230   32.0410   48.3670 C   0  0  0  0  0  0  0  0  0  0  0  0
   45.2010   31.2060   49.4400 C   0  0  0  0  0  0  0  0  0  0  0  0
   45.2100   29.8480   49.2050 C   0  0  0  0  0  0  0  0  0  0  0  0
   45.4400   29.3860   47.9150 C   0  0  0  0  0  0  0  0  0  0  0  0
   45.6500   30.2430   46.9110 N   0  0  0  0  0  0  0  0  0  0  0  0
   44.7650   36.6100   43.8590 C   0  0  0  0  0  0  0  0  0  0  0  0
   45.6650   36.3310   42.8070 C   0  0  0  0  0  0  0  0  0  0  0  0
   46.3150   35.0870   42.8300 C   0  0  0  0  0  0  0  0  0  0  0  0
   46.0690   34.2090   43.8360 N   0  0  0  0  0  0  0  0  0  0  0  0
   45.1930   34.5340   44.8230 C   0  0  0  0  0  0  0  0  0  0  0  0
   44.5420   35.7310   44.8360 N   0  0  0  0  0  0  0  0  0  0  0  0
   45.8810   32.5360   45.9940 C   0  0  0  0  0  0  0  0  0  0  0  0
   46.8810   32.3610   45.2480 O   0  0  0  0  0  0  0  0  0  0  0  0
   44.9320   33.6130   45.8850 N   0  0  0  0  0  0  0  0  0  0  0  0
   45.4470   27.9630   47.6790 C   0  0  0  0  0  0  0  0  0  0  0  0
   44.5940   27.1820   48.2820 C   0  0  0  0  0  0  0  0  0  0  0  0
   44.4780   25.6970   48.1420 C   0  0  0  0  0  0  0  0  0  0  0  0
   44.9870   23.1280   46.7420 Cl  0  0  0  0  0  0  0  0  0  0  0  0
   43.5590   24.1360   46.5230 C   0  0  0  0  0  0  0  0  0  0  0  0
   43.3860   25.3200   47.2070 C   0  0  0  0  0  0  0  0  0  0  0  0
   42.2640   26.1060   47.0310 C   0  0  0  0  0  0  0  0  0  0  0  0
   41.2790   25.6760   46.1270 C   0  0  0  0  0  0  0  0  0  0  0  0
   41.4670   24.4880   45.4490 C   0  0  0  0  0  0  0  0  0  0  0  0
   42.6010   23.7040   45.6340 C   0  0  0  0  0  0  0  0  0  0  0  0
   42.7450   22.4660   44.8950 C   0  0  0  0  0  0  0  0  0  0  0  0
   42.2330   21.4120   45.2950 O   0  0  0  0  0  0  0  0  0  0  0  0
   45.4183   33.1275   48.5389 H   0  0  0  0  0  0  0  0  0  0  0  0
   45.0230   31.6086   50.4481 H   0  0  0  0  0  0  0  0  0  0  0  0
   45.0373   29.1390   50.0281 H   0  0  0  0  0  0  0  0  0  0  0  0
   44.2361   37.5744   43.8725 H   0  0  0  0  0  0  0  0  0  0  0  0
   45.8491   37.0585   42.0027 H   0  0  0  0  0  0  0  0  0  0  0  0
   47.0246   34.8232   42.0319 H   0  0  0  0  0  0  0  0  0  0  0  0
   44.1285   33.7122   46.5217 H   0  0  0  0  0  0  0  0  0  0  0  0
   46.1805   27.5313   46.9821 H   0  0  0  0  0  0  0  0  0  0  0  0
   43.8834   27.6674   48.9672 H   0  0  0  0  0  0  0  0  0  0  0  0
   45.4293   25.2990   47.7591 H   0  0  0  0  0  0  0  0  0  0  0  0
   44.2457   25.2750   49.1309 H   0  0  0  0  0  0  0  0  0  0  0  0
   42.1446   27.0479   47.5865 H   0  0  0  0  0  0  0  0  0  0  0  0
   40.3721   26.2762   45.9617 H   0  0  0  0  0  0  0  0  0  0  0  0
   40.6960   24.1510   44.7405 H   0  0  0  0  0  0  0  0  0  0  0  0
   43.3217   22.4625   43.9583 H   0  0  0  0  0  0  0  0  0  0  0  0
  1  2  2  0
  2  3  1  0
  4  3  2  0
  5  4  1  0
  6  1  1  0
  6  5  2  0
  7 12  2  0
  8  9  2  0
  8  7  1  0
  9 10  1  0
 10 11  2  0
 11 12  1  0
 11 15  1  0
 13  1  1  0
 14 13  2  0
 15 13  1  0
 16  5  1  0
 16 17  2  0
 18 17  1  0
 20 19  1  0
 20 21  2  0
 21 18  1  0
 22 21  1  0
 23 22  2  0
 24 25  2  0
 24 23  1  0
 25 20  1  0
 26 27  2  0
 26 25  1  0
  2 28  1  0
  3 29  1  0
  4 30  1  0
  7 31  1  0
  8 32  1  0
  9 33  1  0
 15 34  1  0
 16 35  1  0
 17 36  1  0
 18 37  1  0
 18 38  1  0
 22 39  1  0
 23 40  1  0
 24 41  1  0
 26 42  1  0
M  ISO  8  28  14  29  14  30  14  31  14  32  14  33  14  37   8  38   8
M  ISO  4  39  14  40  14  41  14  42   6
M  END
>  <minimizedAffinity>  (1) 
-5.89575911

>  <minimizedRMSD>  (1) 
0.458241671

$$$$
