
     RDKit          3D

 32 34  0  0  0  0  0  0  0  0999 V2000
   44.6550   32.9050   41.2780 Br  0  0  0  0  0  0  0  0  0  0  0  0
   46.2760   33.8710   41.0370 C   0  0  0  0  0  0  0  0  0  0  0  0
   46.8080   34.6960   42.0000 C   0  0  0  0  0  0  0  0  0  0  0  0
   47.9970   35.3550   41.7210 C   0  0  0  0  0  0  0  0  0  0  0  0
   48.6610   35.2160   40.5220 C   0  0  0  0  0  0  0  0  0  0  0  0
   48.1280   34.3810   39.5400 C   0  0  0  0  0  0  0  0  0  0  0  0
   46.9350   33.7260   39.8310 C   0  0  0  0  0  0  0  0  0  0  0  0
   44.4820   35.9550   44.7060 C   0  0  0  0  0  0  0  0  0  0  0  0
   45.1750   35.8470   43.4950 C   0  0  0  0  0  0  0  0  0  0  0  0
   46.0790   34.8200   43.2570 C   0  0  0  0  0  0  0  0  0  0  0  0
   46.2290   33.9460   44.2790 N   0  0  0  0  0  0  0  0  0  0  0  0
   45.5730   34.0330   45.4460 C   0  0  0  0  0  0  0  0  0  0  0  0
   44.7090   35.0320   45.6490 N   0  0  0  0  0  0  0  0  0  0  0  0
   46.4650   32.8970   38.7750 N   0  0  0  0  0  0  0  0  0  0  0  0
   45.5030   33.1370   37.6900 C   0  0  0  0  0  0  0  0  0  0  0  0
   46.3680   32.7500   36.4900 C   0  0  0  0  0  0  0  0  0  0  0  0
   47.2630   31.6330   36.9940 C   0  0  0  0  0  0  0  0  0  0  0  0
   46.8240   31.5060   38.4580 C   0  0  0  0  0  0  0  0  0  0  0  0
   48.4268   36.0153   42.4886 H   0  0  0  0  0  0  0  0  0  0  0  0
   49.6012   35.7576   40.3410 H   0  0  0  0  0  0  0  0  0  0  0  0
   48.6318   34.2453   38.5716 H   0  0  0  0  0  0  0  0  0  0  0  0
   43.7702   36.7758   44.8784 H   0  0  0  0  0  0  0  0  0  0  0  0
   44.9987   36.5967   42.7096 H   0  0  0  0  0  0  0  0  0  0  0  0
   45.7458   33.2844   46.2332 H   0  0  0  0  0  0  0  0  0  0  0  0
   44.6154   32.4935   37.7797 H   0  0  0  0  0  0  0  0  0  0  0  0
   45.0836   34.1533   37.6545 H   0  0  0  0  0  0  0  0  0  0  0  0
   46.9708   33.6072   36.1556 H   0  0  0  0  0  0  0  0  0  0  0  0
   45.7613   32.4358   35.6279 H   0  0  0  0  0  0  0  0  0  0  0  0
   47.0853   30.6987   36.4413 H   0  0  0  0  0  0  0  0  0  0  0  0
   48.3370   31.8360   36.8698 H   0  0  0  0  0  0  0  0  0  0  0  0
   45.9596   30.8337   38.5620 H   0  0  0  0  0  0  0  0  0  0  0  0
   47.5893   31.0767   39.1214 H   0  0  0  0  0  0  0  0  0  0  0  0
  2  1  1  0
  2  3  2  0
  3 10  1  0
  4  3  1  0
  5  4  2  0
  6  7  2  0
  6  5  1  0
  7  2  1  0
  8 13  2  0
  9  8  1  0
 10  9  2  0
 10 11  1  0
 11 12  2  0
 12 13  1  0
 14  7  1  0
 15 14  1  0
 16 17  1  0
 16 15  1  0
 17 18  1  0
 18 14  1  0
  4 19  1  0
  5 20  1  0
  6 21  1  0
  8 22  1  0
  9 23  1  0
 12 24  1  0
 15 25  1  0
 15 26  1  0
 16 27  1  0
 16 28  1  0
 17 29  1  0
 17 30  1  0
 18 31  1  0
 18 32  1  0
M  ISO  8  19  14  20  14  21  14  22  14  23  14  24  14  25  13  26  13
M  ISO  6  27  13  28  13  29  13  30  13  31  13  32  13
M  END
>  <minimizedAffinity>  (1) 
-5.39943457

>  <minimizedRMSD>  (1) 
0.36373201

$$$$
