
     RDKit          3D

 27 29  0  0  0  0  0  0  0  0999 V2000
   44.6590   32.9760   41.2350 Br  0  0  0  0  0  0  0  0  0  0  0  0
   46.3000   33.9220   41.0070 C   0  0  0  0  0  0  0  0  0  0  0  0
   46.8330   34.7270   41.9950 C   0  0  0  0  0  0  0  0  0  0  0  0
   48.0330   35.3770   41.7390 C   0  0  0  0  0  0  0  0  0  0  0  0
   48.6980   35.2420   40.5350 C   0  0  0  0  0  0  0  0  0  0  0  0
   48.1760   34.4430   39.5410 C   0  0  0  0  0  0  0  0  0  0  0  0
   46.9840   33.8040   39.8110 C   0  0  0  0  0  0  0  0  0  0  0  0
   44.4820   35.9480   44.7020 C   0  0  0  0  0  0  0  0  0  0  0  0
   45.1850   35.8540   43.4930 C   0  0  0  0  0  0  0  0  0  0  0  0
   46.0940   34.8370   43.2490 C   0  0  0  0  0  0  0  0  0  0  0  0
   46.2590   33.9370   44.2590 N   0  0  0  0  0  0  0  0  0  0  0  0
   45.5750   34.0400   45.4200 C   0  0  0  0  0  0  0  0  0  0  0  0
   44.7020   35.0240   45.6410 N   0  0  0  0  0  0  0  0  0  0  0  0
   46.4080   32.9460   38.7650 C   0  0  0  0  0  0  0  0  0  0  0  0
   46.6740   31.6190   38.5300 C   0  0  0  0  0  0  0  0  0  0  0  0
   45.9200   31.1860   37.4480 C   0  0  0  0  0  0  0  0  0  0  0  0
   45.2040   32.2720   37.0450 N   0  0  0  0  0  0  0  0  0  0  0  0
   45.5070   33.2920   37.8320 N   0  0  0  0  0  0  0  0  0  0  0  0
   48.4679   36.0194   42.5188 H   0  0  0  0  0  0  0  0  0  0  0  0
   49.6466   35.7738   40.3697 H   0  0  0  0  0  0  0  0  0  0  0  0
   48.6874   34.3203   38.5749 H   0  0  0  0  0  0  0  0  0  0  0  0
   43.7651   36.7645   44.8736 H   0  0  0  0  0  0  0  0  0  0  0  0
   45.0097   36.6107   42.7141 H   0  0  0  0  0  0  0  0  0  0  0  0
   45.7433   33.2897   46.2066 H   0  0  0  0  0  0  0  0  0  0  0  0
   47.3739   30.9977   39.1080 H   0  0  0  0  0  0  0  0  0  0  0  0
   45.9042   30.1777   37.0085 H   0  0  0  0  0  0  0  0  0  0  0  0
   44.5383   32.2956   36.2594 H   0  0  0  0  0  0  0  0  0  0  0  0
  2  1  1  0
  2  3  2  0
  3 10  1  0
  4  3  1  0
  5  4  2  0
  6  7  2  0
  6  5  1  0
  7  2  1  0
  8 13  2  0
  9  8  1  0
 10  9  2  0
 10 11  1  0
 11 12  2  0
 12 13  1  0
 14  7  1  0
 15 14  1  0
 16 15  2  0
 17 16  1  0
 17 18  1  0
 18 14  2  0
  4 19  1  0
  5 20  1  0
  6 21  1  0
  8 22  1  0
  9 23  1  0
 12 24  1  0
 15 25  1  0
 16 26  1  0
 17 27  1  0
M  ISO  8  19  14  20  14  21  14  22  14  23  14  24  14  25  14  26  14
M  ISO  1  27   9
M  END
>  <minimizedAffinity>  (1) 
-5.37950563

>  <minimizedRMSD>  (1) 
0.389185071

$$$$
