
     RDKit          3D

 21 22  0  0  0  0  0  0  0  0999 V2000
   44.5510   33.0850   41.2990 Br  0  0  0  0  0  0  0  0  0  0  0  0
   46.2330   33.9870   41.1010 C   0  0  0  0  0  0  0  0  0  0  0  0
   46.8030   34.7410   42.1030 C   0  0  0  0  0  0  0  0  0  0  0  0
   48.0090   35.3430   41.8550 C   0  0  0  0  0  0  0  0  0  0  0  0
   48.6730   35.2280   40.6570 C   0  0  0  0  0  0  0  0  0  0  0  0
   48.1180   34.4750   39.6370 C   0  0  0  0  0  0  0  0  0  0  0  0
   46.9080   33.8720   39.8890 C   0  0  0  0  0  0  0  0  0  0  0  0
   44.4620   35.9540   44.8300 C   0  0  0  0  0  0  0  0  0  0  0  0
   45.1610   35.8710   43.6210 C   0  0  0  0  0  0  0  0  0  0  0  0
   46.0670   34.8390   43.3610 C   0  0  0  0  0  0  0  0  0  0  0  0
   46.2050   33.9480   44.3580 N   0  0  0  0  0  0  0  0  0  0  0  0
   45.5370   34.0230   45.5190 C   0  0  0  0  0  0  0  0  0  0  0  0
   44.6770   35.0130   45.7530 N   0  0  0  0  0  0  0  0  0  0  0  0
   46.1600   32.8820   38.5760 S   0  0  0  0  0  0  0  0  0  0  0  0
   48.4672   35.9467   42.6523 H   0  0  0  0  0  0  0  0  0  0  0  0
   49.6399   35.7315   40.5098 H   0  0  0  0  0  0  0  0  0  0  0  0
   48.6231   34.3636   38.6662 H   0  0  0  0  0  0  0  0  0  0  0  0
   43.7528   36.7741   45.0158 H   0  0  0  0  0  0  0  0  0  0  0  0
   44.9927   36.6402   42.8528 H   0  0  0  0  0  0  0  0  0  0  0  0
   45.7019   33.2554   46.2894 H   0  0  0  0  0  0  0  0  0  0  0  0
   45.4050   31.8827   39.1313 H   0  0  0  0  0  0  0  0  0  0  0  0
  2  1  1  0
  2  3  2  0
  3 10  1  0
  4  3  1  0
  5  4  2  0
  6  7  2  0
  6  5  1  0
  7  2  1  0
  8 13  2  0
  9  8  1  0
 10  9  2  0
 10 11  1  0
 11 12  2  0
 12 13  1  0
 14  7  1  0
  4 15  1  0
  5 16  1  0
  6 17  1  0
  8 18  1  0
  9 19  1  0
 12 20  1  0
 14 21  1  0
M  ISO  7  15  14  16  14  17  14  18  14  19  14  20  14  21  11
M  END
>  <minimizedAffinity>  (1) 
-5.15271091

>  <minimizedRMSD>  (1) 
0.0125066452

$$$$
