
     RDKit          3D

 32 34  0  0  1  0  0  0  0  0999 V2000
   46.1780   32.9770   45.0210 C   0  0  0  0  0  0  0  0  0  0  0  0
   47.0430   31.9520   44.6930 C   0  0  0  0  0  0  0  0  0  0  0  0
   47.5870   31.4670   45.8350 C   0  0  0  0  0  0  0  0  0  0  0  0
   47.0580   32.1880   46.8540 N   0  0  0  0  0  0  0  0  0  0  0  0
   46.2190   33.0840   46.3430 N   0  0  0  0  0  0  0  0  0  0  0  0
   46.2110   32.4440   49.0750 N   0  0  0  0  0  0  0  0  0  0  0  0
   47.3060   32.0710   48.2710 C   0  0  1  0  0  0  0  0  0  0  0  0
   47.6380   30.6230   48.5230 C   0  0  0  0  0  0  0  0  0  0  0  0
   46.4780   29.8620   48.0510 N   0  0  0  0  0  0  0  0  0  0  0  0
   45.3140   30.1300   48.8700 C   0  0  0  0  0  0  0  0  0  0  0  0
   45.1290   31.5650   49.2180 C   0  0  2  0  0  0  0  0  0  0  0  0
   44.0460   32.0670   48.4880 O   0  0  0  0  0  0  0  0  0  0  0  0
   44.4450   35.7940   43.4240 C   0  0  0  0  0  0  0  0  0  0  0  0
   43.8900   35.2080   42.2640 C   0  0  0  0  0  0  0  0  0  0  0  0
   44.1320   33.8350   42.0600 C   0  0  0  0  0  0  0  0  0  0  0  0
   44.8760   33.1720   42.9860 N   0  0  0  0  0  0  0  0  0  0  0  0
   45.3920   33.7620   44.0820 C   0  0  0  0  0  0  0  0  0  0  0  0
   45.1790   35.0820   44.3100 N   0  0  0  0  0  0  0  0  0  0  0  0
   47.2547   31.5902   43.6760 H   0  0  0  0  0  0  0  0  0  0  0  0
   48.3161   30.6476   45.9191 H   0  0  0  0  0  0  0  0  0  0  0  0
   45.8360   33.3195   48.6830 H   0  0  0  0  0  0  0  0  0  0  0  0
   48.1204   32.7584   48.5435 H   0  0  0  0  0  0  0  0  0  0  0  0
   48.5399   30.3334   47.9639 H   0  0  0  0  0  0  0  0  0  0  0  0
   47.8427   30.4327   49.5869 H   0  0  0  0  0  0  0  0  0  0  0  0
   46.2736   30.1287   47.0774 H   0  0  0  0  0  0  0  0  0  0  0  0
   44.4221   29.7901   48.3233 H   0  0  0  0  0  0  0  0  0  0  0  0
   45.4643   29.5922   49.8177 H   0  0  0  0  0  0  0  0  0  0  0  0
   44.9736   31.5374   50.3066 H   0  0  0  0  0  0  0  0  0  0  0  0
   43.3488   32.3902   49.1121 H   0  0  0  0  0  0  0  0  0  0  0  0
   44.2747   36.8642   43.6128 H   0  0  0  0  0  0  0  0  0  0  0  0
   43.2950   35.7980   41.5514 H   0  0  0  0  0  0  0  0  0  0  0  0
   43.7311   33.3145   41.1778 H   0  0  0  0  0  0  0  0  0  0  0  0
  1  5  2  0
  2  1  1  0
  2  3  2  0
  3  4  1  0
  4  7  1  0
  5  4  1  0
  6 11  1  0
  7  8  1  0
  7  6  1  0
  9  8  1  0
  9 10  1  0
 10 11  1  0
 12 11  1  0
 13 18  2  0
 14 13  1  0
 15 14  2  0
 15 16  1  0
 16 17  2  0
 17 18  1  0
 17  1  1  0
  2 19  1  0
  3 20  1  0
  6 21  1  0
  7 22  1  1
  8 23  1  0
  8 24  1  0
  9 25  1  0
 10 26  1  0
 10 27  1  0
 11 28  1  1
 12 29  1  0
 13 30  1  0
 14 31  1  0
 15 32  1  0
M  ISO  8  19  14  20  14  21   5  22  13  23  13  24  13  25   5  26  13
M  ISO  6  27  13  28  13  29   3  30  14  31  14  32  14
M  END
>  <minimizedAffinity>  (1) 
-5.37337065

>  <minimizedRMSD>  (1) 
0.220014229

$$$$
