
     RDKit          3D

 35 37  0  0  1  0  0  0  0  0999 V2000
   46.6430   29.6870   47.5440 N   0  0  0  0  0  0  0  0  0  0  0  0
   47.4050   29.5000   46.3710 C   0  0  1  0  0  0  0  0  0  0  0  0
   46.8930   28.2840   45.6340 C   0  0  0  0  0  0  0  0  0  0  0  0
   45.5300   28.6280   45.2200 N   0  0  0  0  0  0  0  0  0  0  0  0
   44.6580   28.7700   46.3700 C   0  0  0  0  0  0  0  0  0  0  0  0
   45.2400   29.5110   47.5130 C   0  0  2  0  0  0  0  0  0  0  0  0
   46.6730   32.5150   44.6360 C   0  0  0  0  0  0  0  0  0  0  0  0
   47.5780   31.9650   43.7560 C   0  0  0  0  0  0  0  0  0  0  0  0
   47.9800   30.7710   44.2670 C   0  0  0  0  0  0  0  0  0  0  0  0
   47.3290   30.6020   45.4390 N   0  0  0  0  0  0  0  0  0  0  0  0
   46.5510   31.6570   45.6420 N   0  0  0  0  0  0  0  0  0  0  0  0
   44.5990   35.4900   45.3100 C   0  0  0  0  0  0  0  0  0  0  0  0
   44.7240   36.2160   44.1180 C   0  0  0  0  0  0  0  0  0  0  0  0
   45.5200   35.6780   43.0880 C   0  0  0  0  0  0  0  0  0  0  0  0
   46.1150   34.4840   43.3290 N   0  0  0  0  0  0  0  0  0  0  0  0
   45.9840   33.7990   44.4840 C   0  0  0  0  0  0  0  0  0  0  0  0
   45.2260   34.3000   45.4780 N   0  0  0  0  0  0  0  0  0  0  0  0
   44.8800   31.6520   48.8090 C   0  0  0  0  0  0  0  0  0  0  0  0
   45.6820   31.2620   49.6920 O   0  0  0  0  0  0  0  0  0  0  0  0
   44.5960   30.8240   47.6620 N   0  0  0  0  0  0  0  0  0  0  0  0
   47.0097   29.0273   48.2448 H   0  0  0  0  0  0  0  0  0  0  0  0
   48.4471   29.3989   46.7082 H   0  0  0  0  0  0  0  0  0  0  0  0
   47.5208   28.0732   44.7557 H   0  0  0  0  0  0  0  0  0  0  0  0
   46.9149   27.3830   46.2646 H   0  0  0  0  0  0  0  0  0  0  0  0
   45.5500   29.5172   44.7006 H   0  0  0  0  0  0  0  0  0  0  0  0
   43.7508   29.3012   46.0461 H   0  0  0  0  0  0  0  0  0  0  0  0
   44.4628   27.7504   46.7338 H   0  0  0  0  0  0  0  0  0  0  0  0
   45.0304   28.8374   48.3570 H   0  0  0  0  0  0  0  0  0  0  0  0
   47.9153   32.4117   42.8091 H   0  0  0  0  0  0  0  0  0  0  0  0
   48.6994   30.0741   43.8122 H   0  0  0  0  0  0  0  0  0  0  0  0
   43.9802   35.8935   46.1250 H   0  0  0  0  0  0  0  0  0  0  0  0
   44.2133   37.1818   43.9899 H   0  0  0  0  0  0  0  0  0  0  0  0
   45.6529   36.2033   42.1307 H   0  0  0  0  0  0  0  0  0  0  0  0
   44.3902   32.6317   48.9102 H   0  0  0  0  0  0  0  0  0  0  0  0
   43.9375   31.1552   46.9426 H   0  0  0  0  0  0  0  0  0  0  0  0
  2  1  1  0
  3  2  1  0
  4  3  1  0
  4  5  1  0
  5  6  1  0
  6  1  1  0
  6 20  1  0
  7 11  2  0
  8  9  2  0
  8  7  1  0
  9 10  1  0
 10 11  1  0
 10  2  1  0
 12 17  2  0
 13 12  1  0
 14 15  1  0
 14 13  2  0
 15 16  2  0
 16  7  1  0
 16 17  1  0
 18 19  2  0
 20 18  1  0
  1 21  1  0
  2 22  1  1
  3 23  1  0
  3 24  1  0
  4 25  1  0
  5 26  1  0
  5 27  1  0
  6 28  1  1
  8 29  1  0
  9 30  1  0
 12 31  1  0
 13 32  1  0
 14 33  1  0
 18 34  1  0
 20 35  1  0
M  ISO  8  21   5  22  13  23  13  24  13  25   5  26  13  27  13  28  13
M  ISO  6  29  14  30  14  31  14  32  14  33  14  34   6
M  END
>  <minimizedAffinity>  (1) 
-4.91583252

>  <minimizedRMSD>  (1) 
2.50723338

$$$$
