
     RDKit          3D

 48 52  0  0  1  0  0  0  0  0999 V2000
   48.7630   29.9060   46.2810 N   0  0  0  0  0  0  0  0  0  0  0  0
   48.5500   29.6490   44.9000 C   0  0  1  0  0  0  0  0  0  0  0  0
   47.5840   28.5170   44.7470 C   0  0  0  0  0  0  0  0  0  0  0  0
   46.3280   29.0150   45.2700 N   0  0  0  0  0  0  0  0  0  0  0  0
   46.4030   29.2320   46.6940 C   0  0  0  0  0  0  0  0  0  0  0  0
   47.6720   29.8620   47.1790 C   0  0  2  0  0  0  0  0  0  0  0  0
   46.9310   32.6440   43.8910 C   0  0  0  0  0  0  0  0  0  0  0  0
   47.4890   32.2530   42.6840 C   0  0  0  0  0  0  0  0  0  0  0  0
   48.1630   31.0900   42.8910 C   0  0  0  0  0  0  0  0  0  0  0  0
   48.0160   30.7850   44.1930 N   0  0  0  0  0  0  0  0  0  0  0  0
   47.2840   31.7150   44.7660 N   0  0  0  0  0  0  0  0  0  0  0  0
   44.7470   35.1400   45.4710 C   0  0  0  0  0  0  0  0  0  0  0  0
   44.6400   36.1230   44.4810 C   0  0  0  0  0  0  0  0  0  0  0  0
   45.3160   35.9170   43.2890 C   0  0  0  0  0  0  0  0  0  0  0  0
   46.0350   34.7800   43.1550 N   0  0  0  0  0  0  0  0  0  0  0  0
   46.1200   33.8510   44.1250 C   0  0  0  0  0  0  0  0  0  0  0  0
   45.4820   34.0130   45.2920 N   0  0  0  0  0  0  0  0  0  0  0  0
   47.3210   31.2330   47.7370 C   0  0  1  0  0  0  0  0  0  0  0  0
   46.7420   31.1990   49.1490 C   0  0  0  0  0  0  0  0  0  0  0  0
   48.0350   31.8640   48.8390 C   0  0  1  0  0  0  0  0  0  0  0  0
   50.4540   33.3170   49.4750 F   0  0  0  0  0  0  0  0  0  0  0  0
   50.3650   32.0100   49.7980 C   0  0  0  0  0  0  0  0  0  0  0  0
   49.2210   31.2910   49.5220 C   0  0  0  0  0  0  0  0  0  0  0  0
   49.3210   29.9810   49.9450 C   0  0  0  0  0  0  0  0  0  0  0  0
   50.4010   29.4170   50.5660 C   0  0  0  0  0  0  0  0  0  0  0  0
   51.5090   30.1970   50.8090 C   0  0  0  0  0  0  0  0  0  0  0  0
   51.4900   31.5120   50.4190 C   0  0  0  0  0  0  0  0  0  0  0  0
   49.1684   30.8504   46.3498 H   0  0  0  0  0  0  0  0  0  0  0  0
   49.5332   29.4076   44.4699 H   0  0  0  0  0  0  0  0  0  0  0  0
   47.4781   28.2410   43.6875 H   0  0  0  0  0  0  0  0  0  0  0  0
   47.9212   27.6146   45.2781 H   0  0  0  0  0  0  0  0  0  0  0  0
   46.1011   29.9062   44.8062 H   0  0  0  0  0  0  0  0  0  0  0  0
   45.5669   29.8859   46.9827 H   0  0  0  0  0  0  0  0  0  0  0  0
   46.3622   28.2347   47.1564 H   0  0  0  0  0  0  0  0  0  0  0  0
   48.0730   29.1924   47.9541 H   0  0  0  0  0  0  0  0  0  0  0  0
   47.4020   32.7889   41.7273 H   0  0  0  0  0  0  0  0  0  0  0  0
   48.7202   30.5111   42.1397 H   0  0  0  0  0  0  0  0  0  0  0  0
   44.2186   35.2852   46.4248 H   0  0  0  0  0  0  0  0  0  0  0  0
   44.0389   37.0297   44.6436 H   0  0  0  0  0  0  0  0  0  0  0  0
   45.2690   36.6565   42.4761 H   0  0  0  0  0  0  0  0  0  0  0  0
   47.0608   31.6065   46.7356 H   0  0  0  0  0  0  0  0  0  0  0  0
   45.8547   31.7985   49.4007 H   0  0  0  0  0  0  0  0  0  0  0  0
   46.4016   30.4183   49.8452 H   0  0  0  0  0  0  0  0  0  0  0  0
   48.4792   32.8679   48.9084 H   0  0  0  0  0  0  0  0  0  0  0  0
   48.4520   29.3308   49.7661 H   0  0  0  0  0  0  0  0  0  0  0  0
   50.3847   28.3588   50.8660 H   0  0  0  0  0  0  0  0  0  0  0  0
   52.3937   29.7734   51.3069 H   0  0  0  0  0  0  0  0  0  0  0  0
   52.3605   32.1599   50.5994 H   0  0  0  0  0  0  0  0  0  0  0  0
  1  6  1  0
  2  1  1  0
  3  2  1  0
  3  4  1  0
  4  5  1  0
  5  6  1  0
  6 18  1  0
  7 16  1  0
  7 11  2  0
  8  9  2  0
  8  7  1  0
  9 10  1  0
 10 11  1  0
 10  2  1  0
 13 12  2  0
 14 13  1  0
 15 14  2  0
 15 16  1  0
 16 17  2  0
 17 12  1  0
 18 20  1  0
 18 19  1  0
 20 19  1  0
 20 23  1  0
 21 22  1  0
 22 27  2  0
 23 22  1  0
 23 24  2  0
 24 25  1  0
 25 26  2  0
 27 26  1  0
  1 28  1  0
  2 29  1  6
  3 30  1  0
  3 31  1  0
  4 32  1  0
  5 33  1  0
  5 34  1  0
  6 35  1  1
  8 36  1  0
  9 37  1  0
 12 38  1  0
 13 39  1  0
 14 40  1  0
 18 41  1  6
 19 42  1  0
 19 43  1  0
 20 44  1  6
 24 45  1  0
 25 46  1  0
 26 47  1  0
 27 48  1  0
M  ISO  8  28   5  29  13  30  13  31  13  32   5  33  13  34  13  35  13
M  ISO  8  36  14  37  14  38  14  39  14  40  14  41  13  42  13  43  13
M  ISO  5  44  13  45  14  46  14  47  14  48  14
M  END
>  <minimizedAffinity>  (1) 
-5.70427895

>  <minimizedRMSD>  (1) 
1.75541425

$$$$
