
     RDKit          3D

 55 59  0  0  1  0  0  0  0  0999 V2000
   45.3640   32.3720   44.2550 N   0  0  0  0  0  0  0  0  0  0  0  0
   45.8310   33.6930   44.3080 C   0  0  1  0  0  0  0  0  0  0  0  0
   47.2780   33.7080   43.8860 C   0  0  0  0  0  0  0  0  0  0  0  0
   47.2540   33.3170   42.4940 N   0  0  0  0  0  0  0  0  0  0  0  0
   46.8400   31.9450   42.3110 C   0  0  0  0  0  0  0  0  0  0  0  0
   45.7040   31.5150   43.1980 C   0  0  2  0  0  0  0  0  0  0  0  0
   43.6150   35.2640   42.0410 C   0  0  0  0  0  0  0  0  0  0  0  0
   44.4340   36.3310   42.3380 C   0  0  0  0  0  0  0  0  0  0  0  0
   45.3740   35.9050   43.2210 C   0  0  0  0  0  0  0  0  0  0  0  0
   45.1210   34.5980   43.4480 N   0  0  0  0  0  0  0  0  0  0  0  0
   44.0650   34.2260   42.7340 N   0  0  0  0  0  0  0  0  0  0  0  0
   40.2010   35.5510   40.7040 C   0  0  0  0  0  0  0  0  0  0  0  0
   40.3630   35.2660   39.3440 C   0  0  0  0  0  0  0  0  0  0  0  0
   41.6530   34.9770   38.9080 C   0  0  0  0  0  0  0  0  0  0  0  0
   42.6670   34.9900   39.8170 N   0  0  0  0  0  0  0  0  0  0  0  0
   42.4540   35.2720   41.1200 C   0  0  0  0  0  0  0  0  0  0  0  0
   41.2320   35.5550   41.5840 N   0  0  0  0  0  0  0  0  0  0  0  0
   44.5370   31.1900   42.2870 C   0  0  1  0  0  0  0  0  0  0  0  0
   44.6920   29.8890   41.4900 C   0  0  0  0  0  0  0  0  0  0  0  0
   43.6300   30.0480   42.5340 C   0  0  1  0  0  0  0  0  0  0  0  0
   43.7140   29.2800   43.8410 C   0  0  0  0  0  0  0  0  0  0  0  0
   42.6290   28.3300   43.9590 N   0  0  0  0  0  0  0  0  0  0  0  0
   41.5960   28.4110   42.9990 C   0  0  0  0  0  0  0  0  0  0  0  0
   40.8790   27.0510   43.0130 C   0  0  0  0  0  0  0  0  0  0  0  0
   40.3800   26.7540   44.3160 N   0  0  0  0  0  0  0  0  0  0  0  0
   41.2680   26.9760   45.4040 C   0  0  0  0  0  0  0  0  0  0  0  0
   42.1620   28.1620   45.3030 C   0  0  0  0  0  0  0  0  0  0  0  0
   45.6914   31.9135   45.1173 H   0  0  0  0  0  0  0  0  0  0  0  0
   45.6813   34.0341   45.3430 H   0  0  0  0  0  0  0  0  0  0  0  0
   47.7056   34.7151   43.9995 H   0  0  0  0  0  0  0  0  0  0  0  0
   47.8988   33.0371   44.4980 H   0  0  0  0  0  0  0  0  0  0  0  0
   46.5973   33.9300   41.9901 H   0  0  0  0  0  0  0  0  0  0  0  0
   46.5267   31.8169   41.2644 H   0  0  0  0  0  0  0  0  0  0  0  0
   47.7030   31.3182   42.5802 H   0  0  0  0  0  0  0  0  0  0  0  0
   46.0365   30.6321   43.7636 H   0  0  0  0  0  0  0  0  0  0  0  0
   44.3428   37.3491   41.9315 H   0  0  0  0  0  0  0  0  0  0  0  0
   46.1819   36.5060   43.6638 H   0  0  0  0  0  0  0  0  0  0  0  0
   39.1919   35.7822   41.0758 H   0  0  0  0  0  0  0  0  0  0  0  0
   39.5093   35.2701   38.6503 H   0  0  0  0  0  0  0  0  0  0  0  0
   41.8493   34.7430   37.8512 H   0  0  0  0  0  0  0  0  0  0  0  0
   44.3415   32.2560   42.0987 H   0  0  0  0  0  0  0  0  0  0  0  0
   44.4213   29.8561   40.4243 H   0  0  0  0  0  0  0  0  0  0  0  0
   45.5071   29.1755   41.2986 H   0  0  0  0  0  0  0  0  0  0  0  0
   42.5374   29.9210   42.5365 H   0  0  0  0  0  0  0  0  0  0  0  0
   44.6708   28.7387   43.8785 H   0  0  0  0  0  0  0  0  0  0  0  0
   43.6419   29.9969   44.6721 H   0  0  0  0  0  0  0  0  0  0  0  0
   42.0180   28.6078   42.0024 H   0  0  0  0  0  0  0  0  0  0  0  0
   40.8997   29.2300   43.2322 H   0  0  0  0  0  0  0  0  0  0  0  0
   40.0392   27.0789   42.3031 H   0  0  0  0  0  0  0  0  0  0  0  0
   41.5986   26.2704   42.7250 H   0  0  0  0  0  0  0  0  0  0  0  0
   39.5445   27.3362   44.4708 H   0  0  0  0  0  0  0  0  0  0  0  0
   40.6596   27.0931   46.3129 H   0  0  0  0  0  0  0  0  0  0  0  0
   41.9405   26.1056   45.4119 H   0  0  0  0  0  0  0  0  0  0  0  0
   43.0250   28.0217   45.9705 H   0  0  0  0  0  0  0  0  0  0  0  0
   41.5955   29.0584   45.5956 H   0  0  0  0  0  0  0  0  0  0  0  0
  1  2  1  0
  3  2  1  0
  4  3  1  0
  5  4  1  0
  5  6  1  0
  6  1  1  0
  7  8  1  0
  7 11  2  0
  8  9  2  0
  9 10  1  0
 10  2  1  0
 11 10  1  0
 12 17  2  0
 13 12  1  0
 14 13  2  0
 14 15  1  0
 15 16  2  0
 16 17  1  0
 16  7  1  0
 18 20  1  0
 18  6  1  0
 19 18  1  0
 19 20  1  0
 20 21  1  0
 21 22  1  0
 22 27  1  0
 23 24  1  0
 23 22  1  0
 24 25  1  0
 25 26  1  0
 27 26  1  0
  1 28  1  0
  2 29  1  1
  3 30  1  0
  3 31  1  0
  4 32  1  0
  5 33  1  0
  5 34  1  0
  6 35  1  1
  8 36  1  0
  9 37  1  0
 12 38  1  0
 13 39  1  0
 14 40  1  0
 18 41  1  6
 19 42  1  0
 19 43  1  0
 20 44  1  6
 21 45  1  0
 21 46  1  0
 23 47  1  0
 23 48  1  0
 24 49  1  0
 24 50  1  0
 25 51  1  0
 26 52  1  0
 26 53  1  0
 27 54  1  0
 27 55  1  0
M  ISO  8  28   5  29  13  30  13  31  13  32   5  33  13  34  13  35  13
M  ISO  8  36  14  37  14  38  14  39  14  40  14  41  13  42  13  43  13
M  ISO  8  44  13  45   8  46   8  47  13  48  13  49  13  50  13  51   5
M  ISO  4  52  13  53  13  54  13  55  13
M  END
>  <minimizedAffinity>  (1) 
-4.95181704

>  <minimizedRMSD>  (1) 
7.46753216

$$$$
