
     RDKit          3D

 33 35  0  0  0  0  0  0  0  0999 V2000
   46.1080   32.5670   47.1150 C   0  0  0  0  0  0  0  0  0  0  0  0
   44.9590   32.2350   47.7820 C   0  0  0  0  0  0  0  0  0  0  0  0
   45.0850   31.5230   48.9460 C   0  0  0  0  0  0  0  0  0  0  0  0
   46.3220   31.1410   49.4460 C   0  0  0  0  0  0  0  0  0  0  0  0
   47.4460   31.5000   48.7360 C   0  0  0  0  0  0  0  0  0  0  0  0
   47.3180   32.1840   47.6210 N   0  0  0  0  0  0  0  0  0  0  0  0
   48.7450   31.1410   49.1920 N   0  0  0  0  0  0  0  0  0  0  0  0
   49.3690   29.8580   49.4490 C   0  0  0  0  0  0  0  0  0  0  0  0
   50.1400   29.9970   50.7320 C   0  0  0  0  0  0  0  0  0  0  0  0
   50.5320   31.4460   50.7430 C   0  0  0  0  0  0  0  0  0  0  0  0
   49.8480   32.0160   49.5380 C   0  0  0  0  0  0  0  0  0  0  0  0
   45.1060   34.9320   44.4950 C   0  0  0  0  0  0  0  0  0  0  0  0
   46.0920   34.7040   43.5350 C   0  0  0  0  0  0  0  0  0  0  0  0
   47.1010   33.7530   43.7620 C   0  0  0  0  0  0  0  0  0  0  0  0
   47.0340   33.1020   44.9500 N   0  0  0  0  0  0  0  0  0  0  0  0
   46.0890   33.3290   45.8590 C   0  0  0  0  0  0  0  0  0  0  0  0
   45.1440   34.2340   45.6200 N   0  0  0  0  0  0  0  0  0  0  0  0
   44.1080   35.9020   44.2210 N   0  0  0  0  0  0  0  0  0  0  0  0
   43.9712   32.5291   47.3975 H   0  0  0  0  0  0  0  0  0  0  0  0
   44.1771   31.2455   49.5016 H   0  0  0  0  0  0  0  0  0  0  0  0
   46.4022   30.5684   50.3818 H   0  0  0  0  0  0  0  0  0  0  0  0
   48.6007   29.0775   49.5519 H   0  0  0  0  0  0  0  0  0  0  0  0
   50.0322   29.5695   48.6202 H   0  0  0  0  0  0  0  0  0  0  0  0
   49.5092   29.7527   51.5994 H   0  0  0  0  0  0  0  0  0  0  0  0
   51.0025   29.3169   50.7922 H   0  0  0  0  0  0  0  0  0  0  0  0
   50.1810   31.9390   51.6615 H   0  0  0  0  0  0  0  0  0  0  0  0
   51.6223   31.5897   50.7183 H   0  0  0  0  0  0  0  0  0  0  0  0
   50.5567   32.0728   48.6986 H   0  0  0  0  0  0  0  0  0  0  0  0
   49.4784   33.0296   49.7526 H   0  0  0  0  0  0  0  0  0  0  0  0
   46.0795   35.2728   42.5936 H   0  0  0  0  0  0  0  0  0  0  0  0
   47.8924   33.5500   43.0255 H   0  0  0  0  0  0  0  0  0  0  0  0
   44.1227   36.4186   43.3300 H   0  0  0  0  0  0  0  0  0  0  0  0
   43.3686   36.0898   44.9130 H   0  0  0  0  0  0  0  0  0  0  0  0
  1  6  1  0
  1  2  2  0
  2  3  1  0
  3  4  2  0
  5  7  1  0
  5  4  1  0
  6  5  2  0
  7  8  1  0
  7 11  1  0
  8  9  1  0
  9 10  1  0
 11 10  1  0
 12 17  2  0
 13 14  2  0
 13 12  1  0
 14 15  1  0
 15 16  2  0
 16  1  1  0
 17 16  1  0
 18 12  1  0
  2 19  1  0
  3 20  1  0
  4 21  1  0
  8 22  1  0
  8 23  1  0
  9 24  1  0
  9 25  1  0
 10 26  1  0
 10 27  1  0
 11 28  1  0
 11 29  1  0
 13 30  1  0
 14 31  1  0
 18 32  1  0
 18 33  1  0
M  ISO  8  19  14  20  14  21  14  22  13  23  13  24  13  25  13  26  13
M  ISO  5  27  13  28  13  29  13  30  14  31  14
M  END
>  <minimizedAffinity>  (1) 
-6.41614962

>  <minimizedRMSD>  (1) 
0.781222641

$$$$
