
     RDKit          3D

 31 33  0  0  0  0  0  0  0  0999 V2000
   46.1060   32.6110   47.1150 C   0  0  0  0  0  0  0  0  0  0  0  0
   45.0470   32.3450   47.9080 C   0  0  0  0  0  0  0  0  0  0  0  0
   45.2090   31.6210   49.0600 C   0  0  0  0  0  0  0  0  0  0  0  0
   46.4720   31.1650   49.4000 C   0  0  0  0  0  0  0  0  0  0  0  0
   47.5460   31.4390   48.5900 C   0  0  0  0  0  0  0  0  0  0  0  0
   47.3040   32.1380   47.5060 N   0  0  0  0  0  0  0  0  0  0  0  0
   44.9760   34.9720   44.5570 C   0  0  0  0  0  0  0  0  0  0  0  0
   45.9560   34.8080   43.5560 C   0  0  0  0  0  0  0  0  0  0  0  0
   46.9900   33.8950   43.7550 C   0  0  0  0  0  0  0  0  0  0  0  0
   46.9780   33.2160   44.9280 N   0  0  0  0  0  0  0  0  0  0  0  0
   46.0350   33.3840   45.8770 C   0  0  0  0  0  0  0  0  0  0  0  0
   45.0340   34.2620   45.6890 N   0  0  0  0  0  0  0  0  0  0  0  0
   43.9190   35.8990   44.3670 N   0  0  0  0  0  0  0  0  0  0  0  0
   48.6660   28.7390   47.4140 Cl  0  0  0  0  0  0  0  0  0  0  0  0
   49.5730   29.9080   48.3300 C   0  0  0  0  0  0  0  0  0  0  0  0
   48.9260   31.0290   48.7720 C   0  0  0  0  0  0  0  0  0  0  0  0
   49.7630   31.8380   49.5120 C   0  0  0  0  0  0  0  0  0  0  0  0
   51.0850   31.5660   49.7800 C   0  0  0  0  0  0  0  0  0  0  0  0
   51.6710   30.4170   49.3030 C   0  0  0  0  0  0  0  0  0  0  0  0
   50.8830   29.5720   48.5570 C   0  0  0  0  0  0  0  0  0  0  0  0
   44.0483   32.7114   47.6281 H   0  0  0  0  0  0  0  0  0  0  0  0
   44.3463   31.4045   49.7072 H   0  0  0  0  0  0  0  0  0  0  0  0
   46.6148   30.5817   50.3216 H   0  0  0  0  0  0  0  0  0  0  0  0
   45.9047   35.3951   42.6272 H   0  0  0  0  0  0  0  0  0  0  0  0
   47.7740   33.7340   43.0004 H   0  0  0  0  0  0  0  0  0  0  0  0
   43.8670   36.4497   43.4982 H   0  0  0  0  0  0  0  0  0  0  0  0
   43.2036   36.0213   45.0979 H   0  0  0  0  0  0  0  0  0  0  0  0
   49.3424   32.7698   49.9181 H   0  0  0  0  0  0  0  0  0  0  0  0
   51.6772   32.2726   50.3800 H   0  0  0  0  0  0  0  0  0  0  0  0
   52.7259   30.1835   49.5095 H   0  0  0  0  0  0  0  0  0  0  0  0
   51.2980   28.6391   48.1479 H   0  0  0  0  0  0  0  0  0  0  0  0
  1  6  1  0
  1  2  2  0
  2  3  1  0
  3  4  2  0
  5 16  1  0
  5  4  1  0
  6  5  2  0
  7 12  2  0
  8  9  2  0
  8  7  1  0
  9 10  1  0
 10 11  2  0
 11  1  1  0
 12 11  1  0
 13  7  1  0
 14 15  1  0
 15 20  2  0
 15 16  1  0
 16 17  2  0
 17 18  1  0
 19 18  2  0
 20 19  1  0
  2 21  1  0
  3 22  1  0
  4 23  1  0
  8 24  1  0
  9 25  1  0
 13 26  1  0
 13 27  1  0
 17 28  1  0
 18 29  1  0
 19 30  1  0
 20 31  1  0
M  ISO  8  21  14  22  14  23  14  24  14  25  14  28  14  29  14  30  14
M  ISO  1  31  14
M  END
>  <minimizedAffinity>  (1) 
-6.38546324

>  <minimizedRMSD>  (1) 
0.99180305

$$$$
