
     RDKit          3D

 25 26  0  0  0  0  0  0  0  0999 V2000
   46.2350   32.6200   46.9340 C   0  0  0  0  0  0  0  0  0  0  0  0
   45.2860   32.6080   47.9280 C   0  0  0  0  0  0  0  0  0  0  0  0
   45.4920   31.8190   49.0350 C   0  0  0  0  0  0  0  0  0  0  0  0
   46.6460   31.0480   49.1420 C   0  0  0  0  0  0  0  0  0  0  0  0
   47.5790   31.0880   48.1170 C   0  0  0  0  0  0  0  0  0  0  0  0
   47.3460   31.8560   47.0700 N   0  0  0  0  0  0  0  0  0  0  0  0
   49.8260   30.6880   49.1100 C   0  0  0  0  0  0  0  0  0  0  0  0
   49.5930   31.7680   49.7430 O   0  0  0  0  0  0  0  0  0  0  0  0
   48.7620   30.2960   48.2280 N   0  0  0  0  0  0  0  0  0  0  0  0
   44.9410   35.0280   44.4960 C   0  0  0  0  0  0  0  0  0  0  0  0
   45.8660   34.9120   43.4570 C   0  0  0  0  0  0  0  0  0  0  0  0
   46.9340   34.0080   43.5930 C   0  0  0  0  0  0  0  0  0  0  0  0
   46.9770   33.3060   44.7490 N   0  0  0  0  0  0  0  0  0  0  0  0
   46.0850   33.4290   45.7320 C   0  0  0  0  0  0  0  0  0  0  0  0
   45.0680   34.2950   45.5940 N   0  0  0  0  0  0  0  0  0  0  0  0
   43.8560   35.9440   44.3630 N   0  0  0  0  0  0  0  0  0  0  0  0
   44.3762   33.2198   47.8394 H   0  0  0  0  0  0  0  0  0  0  0  0
   44.7419   31.7970   49.8393 H   0  0  0  0  0  0  0  0  0  0  0  0
   46.8153   30.4164   50.0265 H   0  0  0  0  0  0  0  0  0  0  0  0
   50.7544   30.1098   49.2274 H   0  0  0  0  0  0  0  0  0  0  0  0
   48.8533   29.4350   47.6701 H   0  0  0  0  0  0  0  0  0  0  0  0
   45.7608   35.5188   42.5456 H   0  0  0  0  0  0  0  0  0  0  0  0
   47.6909   33.8788   42.8053 H   0  0  0  0  0  0  0  0  0  0  0  0
   43.7623   36.5107   43.5080 H   0  0  0  0  0  0  0  0  0  0  0  0
   43.1661   36.0388   45.1219 H   0  0  0  0  0  0  0  0  0  0  0  0
  1  6  1  0
  1  2  2  0
  2  3  1  0
  3  4  2  0
  5  9  1  0
  5  4  1  0
  6  5  2  0
  7  8  2  0
  9  7  1  0
 10 15  2  0
 11 12  2  0
 11 10  1  0
 12 13  1  0
 13 14  2  0
 14  1  1  0
 15 14  1  0
 16 10  1  0
  2 17  1  0
  3 18  1  0
  4 19  1  0
  7 20  1  0
  9 21  1  0
 11 22  1  0
 12 23  1  0
 16 24  1  0
 16 25  1  0
M  ISO  6  17  14  18  14  19  14  20   6  22  14  23  14
M  END
>  <minimizedAffinity>  (1) 
-5.86934376

>  <minimizedRMSD>  (1) 
0.170600861

$$$$
