
     RDKit          3D

 27 28  0  0  0  0  0  0  0  0999 V2000
   46.1880   32.6440   47.0360 C   0  0  0  0  0  0  0  0  0  0  0  0
   45.1750   32.4550   47.9130 C   0  0  0  0  0  0  0  0  0  0  0  0
   45.3510   31.7060   49.0460 C   0  0  0  0  0  0  0  0  0  0  0  0
   46.5960   31.1410   49.2800 C   0  0  0  0  0  0  0  0  0  0  0  0
   47.6190   31.3450   48.3750 C   0  0  0  0  0  0  0  0  0  0  0  0
   47.3950   32.0750   47.2990 N   0  0  0  0  0  0  0  0  0  0  0  0
   44.9460   35.0150   44.5360 C   0  0  0  0  0  0  0  0  0  0  0  0
   45.8740   34.8770   43.5010 C   0  0  0  0  0  0  0  0  0  0  0  0
   46.9230   33.9710   43.6620 C   0  0  0  0  0  0  0  0  0  0  0  0
   46.9530   33.2910   44.8310 N   0  0  0  0  0  0  0  0  0  0  0  0
   46.0600   33.4320   45.8140 C   0  0  0  0  0  0  0  0  0  0  0  0
   45.0620   34.2950   45.6560 N   0  0  0  0  0  0  0  0  0  0  0  0
   43.8770   35.9360   44.3730 N   0  0  0  0  0  0  0  0  0  0  0  0
   48.9330   30.7490   48.6210 C   0  0  0  0  0  0  0  0  0  0  0  0
   49.7560   31.6040   49.5690 C   0  0  0  0  0  0  0  0  0  0  0  0
   44.1940   32.9105   47.7126 H   0  0  0  0  0  0  0  0  0  0  0  0
   44.5233   31.5558   49.7548 H   0  0  0  0  0  0  0  0  0  0  0  0
   46.7675   30.5340   50.1812 H   0  0  0  0  0  0  0  0  0  0  0  0
   45.7799   35.4697   42.5791 H   0  0  0  0  0  0  0  0  0  0  0  0
   47.6832   33.8183   42.8818 H   0  0  0  0  0  0  0  0  0  0  0  0
   43.7982   36.4852   43.5052 H   0  0  0  0  0  0  0  0  0  0  0  0
   43.1806   36.0546   45.1226 H   0  0  0  0  0  0  0  0  0  0  0  0
   48.7971   29.7514   49.0641 H   0  0  0  0  0  0  0  0  0  0  0  0
   49.4681   30.6785   47.6625 H   0  0  0  0  0  0  0  0  0  0  0  0
   49.5058   31.3441   50.6081 H   0  0  0  0  0  0  0  0  0  0  0  0
   50.8262   31.4207   49.3927 H   0  0  0  0  0  0  0  0  0  0  0  0
   49.5320   32.6664   49.3927 H   0  0  0  0  0  0  0  0  0  0  0  0
  1  6  1  0
  1  2  2  0
  2  3  1  0
  3  4  2  0
  5 14  1  0
  5  4  1  0
  6  5  2  0
  7 12  2  0
  8  9  2  0
  8  7  1  0
  9 10  1  0
 10 11  2  0
 11  1  1  0
 12 11  1  0
 13  7  1  0
 14 15  1  0
  2 16  1  0
  3 17  1  0
  4 18  1  0
  8 19  1  0
  9 20  1  0
 13 21  1  0
 13 22  1  0
 14 23  1  0
 14 24  1  0
 15 25  1  0
 15 26  1  0
 15 27  1  0
M  ISO  8  16  14  17  14  18  14  19  14  20  14  23   8  24   8  25   8
M  ISO  2  26   8  27   8
M  END
>  <minimizedAffinity>  (1) 
-5.55059719

>  <minimizedRMSD>  (1) 
0.4454

$$$$
