
     RDKit          3D

 24 25  0  0  0  0  0  0  0  0999 V2000
   44.9350   35.0170   44.5240 C   0  0  0  0  0  0  0  0  0  0  0  0
   45.8750   34.8850   43.4950 C   0  0  0  0  0  0  0  0  0  0  0  0
   46.9340   33.9770   43.6480 C   0  0  0  0  0  0  0  0  0  0  0  0
   46.9550   33.2870   44.8080 N   0  0  0  0  0  0  0  0  0  0  0  0
   46.0640   33.4140   45.7810 C   0  0  0  0  0  0  0  0  0  0  0  0
   45.0630   34.2800   45.6250 N   0  0  0  0  0  0  0  0  0  0  0  0
   43.8700   35.9440   44.3460 N   0  0  0  0  0  0  0  0  0  0  0  0
   46.1870   32.6170   46.9920 C   0  0  0  0  0  0  0  0  0  0  0  0
   45.2040   32.5480   47.9450 C   0  0  0  0  0  0  0  0  0  0  0  0
   45.4000   31.7720   49.0590 C   0  0  0  0  0  0  0  0  0  0  0  0
   46.5980   31.0550   49.2210 C   0  0  0  0  0  0  0  0  0  0  0  0
   47.5570   31.1540   48.2380 C   0  0  0  0  0  0  0  0  0  0  0  0
   47.3320   31.9120   47.1790 N   0  0  0  0  0  0  0  0  0  0  0  0
   48.8570   30.4390   48.3080 C   0  0  0  0  0  0  0  0  0  0  0  0
   45.7846   35.4856   42.5779 H   0  0  0  0  0  0  0  0  0  0  0  0
   47.6996   33.8363   42.8708 H   0  0  0  0  0  0  0  0  0  0  0  0
   43.8069   36.4955   43.4784 H   0  0  0  0  0  0  0  0  0  0  0  0
   43.1623   36.0634   45.0848 H   0  0  0  0  0  0  0  0  0  0  0  0
   44.2668   33.1097   47.8176 H   0  0  0  0  0  0  0  0  0  0  0  0
   44.6165   31.7106   49.8286 H   0  0  0  0  0  0  0  0  0  0  0  0
   46.7652   30.4304   50.1109 H   0  0  0  0  0  0  0  0  0  0  0  0
   49.1351   30.2860   49.3612 H   0  0  0  0  0  0  0  0  0  0  0  0
   48.7665   29.4637   47.8073 H   0  0  0  0  0  0  0  0  0  0  0  0
   49.6322   31.0377   47.8073 H   0  0  0  0  0  0  0  0  0  0  0  0
  1  6  2  0
  2  3  2  0
  2  1  1  0
  3  4  1  0
  4  5  2  0
  5  8  1  0
  6  5  1  0
  7  1  1  0
  8 13  1  0
  8  9  2  0
  9 10  1  0
 10 11  2  0
 12 14  1  0
 12 11  1  0
 13 12  2  0
  2 15  1  0
  3 16  1  0
  7 17  1  0
  7 18  1  0
  9 19  1  0
 10 20  1  0
 11 21  1  0
 14 22  1  0
 14 23  1  0
 14 24  1  0
M  ISO  8  15  14  16  14  19  14  20  14  21  14  22   8  23   8  24   8
M  END
>  <minimizedAffinity>  (1) 
-5.36704588

>  <minimizedRMSD>  (1) 
0.0738824606

$$$$
