
     RDKit          3D

 28 29  0  0  0  0  0  0  0  0999 V2000
   46.1710   32.5520   47.0020 C   0  0  0  0  0  0  0  0  0  0  0  0
   45.2400   32.5680   47.9920 C   0  0  0  0  0  0  0  0  0  0  0  0
   45.4320   31.7600   49.0970 C   0  0  0  0  0  0  0  0  0  0  0  0
   46.5560   30.9520   49.1890 C   0  0  0  0  0  0  0  0  0  0  0  0
   47.4890   30.9680   48.1460 C   0  0  0  0  0  0  0  0  0  0  0  0
   47.2670   31.7480   47.1170 N   0  0  0  0  0  0  0  0  0  0  0  0
   44.9640   34.9920   44.5640 C   0  0  0  0  0  0  0  0  0  0  0  0
   45.9220   34.8560   43.5310 C   0  0  0  0  0  0  0  0  0  0  0  0
   46.9780   33.9260   43.6740 C   0  0  0  0  0  0  0  0  0  0  0  0
   46.9730   33.2320   44.8240 N   0  0  0  0  0  0  0  0  0  0  0  0
   46.0700   33.3660   45.7900 C   0  0  0  0  0  0  0  0  0  0  0  0
   45.0730   34.2440   45.6530 N   0  0  0  0  0  0  0  0  0  0  0  0
   43.9180   35.9350   44.3840 N   0  0  0  0  0  0  0  0  0  0  0  0
   48.6840   30.1350   48.1990 C   0  0  0  0  0  0  0  0  0  0  0  0
   49.7810   30.4780   48.8530 C   0  0  0  0  0  0  0  0  0  0  0  0
   49.8850   31.7580   49.5960 C   0  0  0  0  0  0  0  0  0  0  0  0
   44.3511   33.2114   47.9154 H   0  0  0  0  0  0  0  0  0  0  0  0
   44.6891   31.7577   49.9083 H   0  0  0  0  0  0  0  0  0  0  0  0
   46.7114   30.3090   50.0678 H   0  0  0  0  0  0  0  0  0  0  0  0
   45.8457   35.4704   42.6218 H   0  0  0  0  0  0  0  0  0  0  0  0
   47.7467   33.7817   42.9005 H   0  0  0  0  0  0  0  0  0  0  0  0
   43.8726   36.4952   43.5209 H   0  0  0  0  0  0  0  0  0  0  0  0
   43.2046   36.0589   45.1165 H   0  0  0  0  0  0  0  0  0  0  0  0
   48.6727   29.1718   47.6678 H   0  0  0  0  0  0  0  0  0  0  0  0
   50.6423   29.7938   48.8459 H   0  0  0  0  0  0  0  0  0  0  0  0
   49.8686   31.5567   50.6773 H   0  0  0  0  0  0  0  0  0  0  0  0
   50.8269   32.2604   49.3308 H   0  0  0  0  0  0  0  0  0  0  0  0
   49.0365   32.4059   49.3308 H   0  0  0  0  0  0  0  0  0  0  0  0
  1  6  1  0
  1  2  2  0
  2  3  1  0
  3  4  2  0
  5 14  1  0
  5  4  1  0
  6  5  2  0
  7 12  2  0
  8  9  2  0
  8  7  1  0
  9 10  1  0
 10 11  2  0
 11  1  1  0
 12 11  1  0
 13  7  1  0
 14 15  2  0
 15 16  1  0
  2 17  1  0
  3 18  1  0
  4 19  1  0
  8 20  1  0
  9 21  1  0
 13 22  1  0
 13 23  1  0
 14 24  1  0
 15 25  1  0
 16 26  1  0
 16 27  1  0
 16 28  1  0
M  ISO  8  17  14  18  14  19  14  20  14  21  14  26   8  27   8  28   8
M  END
>  <minimizedAffinity>  (1) 
-5.66532183

>  <minimizedRMSD>  (1) 
0.297879964

$$$$
