
     RDKit          3D

 38 40  0  0  0  0  0  0  0  0999 V2000
   46.2360   32.5800   46.8730 C   0  0  0  0  0  0  0  0  0  0  0  0
   45.3870   32.6130   47.9270 C   0  0  0  0  0  0  0  0  0  0  0  0
   45.6180   31.7740   49.0060 C   0  0  0  0  0  0  0  0  0  0  0  0
   46.7020   30.9180   48.9970 C   0  0  0  0  0  0  0  0  0  0  0  0
   47.5640   30.9080   47.8850 C   0  0  0  0  0  0  0  0  0  0  0  0
   47.2870   31.7230   46.9080 N   0  0  0  0  0  0  0  0  0  0  0  0
   44.9220   35.0480   44.5300 C   0  0  0  0  0  0  0  0  0  0  0  0
   45.8550   34.9590   43.4620 C   0  0  0  0  0  0  0  0  0  0  0  0
   46.9290   34.0470   43.5610 C   0  0  0  0  0  0  0  0  0  0  0  0
   46.9800   33.3170   44.6940 N   0  0  0  0  0  0  0  0  0  0  0  0
   46.0950   33.4190   45.6790 C   0  0  0  0  0  0  0  0  0  0  0  0
   45.0670   34.2800   45.6000 N   0  0  0  0  0  0  0  0  0  0  0  0
   43.8610   35.9680   44.3980 N   0  0  0  0  0  0  0  0  0  0  0  0
   48.7090   30.0190   47.8500 C   0  0  0  0  0  0  0  0  0  0  0  0
   49.4790   29.7860   48.8860 C   0  0  0  0  0  0  0  0  0  0  0  0
   49.2400   30.4230   50.2060 C   0  0  0  0  0  0  0  0  0  0  0  0
   50.8670   29.2320   52.3680 Cl  0  0  0  0  0  0  0  0  0  0  0  0
   51.1990   30.7410   51.5320 C   0  0  0  0  0  0  0  0  0  0  0  0
   50.4130   31.2810   50.5130 C   0  0  0  0  0  0  0  0  0  0  0  0
   50.7910   32.4790   49.9410 C   0  0  0  0  0  0  0  0  0  0  0  0
   51.9320   33.1140   50.3860 C   0  0  0  0  0  0  0  0  0  0  0  0
   52.7390   32.6180   51.3890 C   0  0  0  0  0  0  0  0  0  0  0  0
   52.3390   31.4050   51.9540 C   0  0  0  0  0  0  0  0  0  0  0  0
   44.5252   33.2966   47.9272 H   0  0  0  0  0  0  0  0  0  0  0  0
   44.9375   31.7899   49.8701 H   0  0  0  0  0  0  0  0  0  0  0  0
   46.8896   30.2505   49.8510 H   0  0  0  0  0  0  0  0  0  0  0  0
   45.7423   35.5922   42.5696 H   0  0  0  0  0  0  0  0  0  0  0  0
   47.6781   33.9387   42.7628 H   0  0  0  0  0  0  0  0  0  0  0  0
   43.7839   36.5470   43.5496 H   0  0  0  0  0  0  0  0  0  0  0  0
   43.1633   36.0609   45.1500 H   0  0  0  0  0  0  0  0  0  0  0  0
   48.9448   29.5122   46.9026 H   0  0  0  0  0  0  0  0  0  0  0  0
   50.3289   29.0968   48.7735 H   0  0  0  0  0  0  0  0  0  0  0  0
   48.3276   31.0362   50.1663 H   0  0  0  0  0  0  0  0  0  0  0  0
   49.1086   29.6574   50.9848 H   0  0  0  0  0  0  0  0  0  0  0  0
   50.1871   32.9240   49.1365 H   0  0  0  0  0  0  0  0  0  0  0  0
   52.2136   34.0676   49.9155 H   0  0  0  0  0  0  0  0  0  0  0  0
   53.6438   33.1465   51.7238 H   0  0  0  0  0  0  0  0  0  0  0  0
   52.9471   30.9641   52.7576 H   0  0  0  0  0  0  0  0  0  0  0  0
  1  6  1  0
  1  2  2  0
  2  3  1  0
  4  3  2  0
  5  4  1  0
  6  5  2  0
  7 12  2  0
  8  9  2  0
  8  7  1  0
  9 10  1  0
 10 11  2  0
 11  1  1  0
 12 11  1  0
 13  7  1  0
 14  5  1  0
 14 15  2  0
 15 16  1  0
 16 19  1  0
 18 23  2  0
 18 17  1  0
 19 18  1  0
 20 21  1  0
 20 19  2  0
 21 22  2  0
 22 23  1  0
  2 24  1  0
  3 25  1  0
  4 26  1  0
  8 27  1  0
  9 28  1  0
 13 29  1  0
 13 30  1  0
 14 31  1  0
 15 32  1  0
 16 33  1  0
 16 34  1  0
 20 35  1  0
 21 36  1  0
 22 37  1  0
 23 38  1  0
M  ISO  8  24  14  25  14  26  14  27  14  28  14  33   8  34   8  35  14
M  ISO  3  36  14  37  14  38  14
M  END
>  <minimizedAffinity>  (1) 
-6.80173206

>  <minimizedRMSD>  (1) 
2.01223278

$$$$
