
     RDKit          3D

 42 44  0  0  0  0  0  0  0  0999 V2000
   46.1610   32.5710   46.9980 C   0  0  0  0  0  0  0  0  0  0  0  0
   45.2150   32.5570   47.9640 C   0  0  0  0  0  0  0  0  0  0  0  0
   45.4320   31.7410   49.0720 C   0  0  0  0  0  0  0  0  0  0  0  0
   46.5680   30.9700   49.1880 C   0  0  0  0  0  0  0  0  0  0  0  0
   47.5150   31.0260   48.1540 C   0  0  0  0  0  0  0  0  0  0  0  0
   47.2800   31.7990   47.1330 N   0  0  0  0  0  0  0  0  0  0  0  0
   44.9550   35.0040   44.5580 C   0  0  0  0  0  0  0  0  0  0  0  0
   45.9020   34.8740   43.5260 C   0  0  0  0  0  0  0  0  0  0  0  0
   46.9650   33.9460   43.6630 C   0  0  0  0  0  0  0  0  0  0  0  0
   46.9670   33.2500   44.8110 N   0  0  0  0  0  0  0  0  0  0  0  0
   46.0700   33.3790   45.7780 C   0  0  0  0  0  0  0  0  0  0  0  0
   45.0700   34.2530   45.6480 N   0  0  0  0  0  0  0  0  0  0  0  0
   43.9090   35.9440   44.3800 N   0  0  0  0  0  0  0  0  0  0  0  0
   48.7410   30.2340   48.2160 C   0  0  0  0  0  0  0  0  0  0  0  0
   49.8110   30.6120   48.8830 C   0  0  0  0  0  0  0  0  0  0  0  0
   49.8560   31.8800   49.6280 C   0  0  0  0  0  0  0  0  0  0  0  0
   51.1720   32.1740   50.2910 C   0  0  0  0  0  0  0  0  0  0  0  0
   51.1830   31.6830   51.7440 C   0  0  0  0  0  0  0  0  0  0  0  0
   52.6320   31.7120   52.1880 C   0  0  0  0  0  0  0  0  0  0  0  0
   53.3740   32.5420   51.3870 O   0  0  0  0  0  0  0  0  0  0  0  0
   52.8000   33.7640   51.1040 C   0  0  0  0  0  0  0  0  0  0  0  0
   51.4640   33.6470   50.3780 C   0  0  0  0  0  0  0  0  0  0  0  0
   44.3051   33.1691   47.8779 H   0  0  0  0  0  0  0  0  0  0  0  0
   44.6787   31.7115   49.8731 H   0  0  0  0  0  0  0  0  0  0  0  0
   46.7282   30.3283   50.0669 H   0  0  0  0  0  0  0  0  0  0  0  0
   45.8182   35.4889   42.6178 H   0  0  0  0  0  0  0  0  0  0  0  0
   47.7313   33.8066   42.8863 H   0  0  0  0  0  0  0  0  0  0  0  0
   43.8613   36.5041   43.5169 H   0  0  0  0  0  0  0  0  0  0  0  0
   43.1966   36.0669   45.1137 H   0  0  0  0  0  0  0  0  0  0  0  0
   48.7715   29.2745   47.6789 H   0  0  0  0  0  0  0  0  0  0  0  0
   50.6975   29.9608   48.8834 H   0  0  0  0  0  0  0  0  0  0  0  0
   49.6362   32.6977   48.9258 H   0  0  0  0  0  0  0  0  0  0  0  0
   49.1148   31.7914   50.4359 H   0  0  0  0  0  0  0  0  0  0  0  0
   51.9185   31.6610   49.6668 H   0  0  0  0  0  0  0  0  0  0  0  0
   50.5769   32.3485   52.3762 H   0  0  0  0  0  0  0  0  0  0  0  0
   50.7573   30.6723   51.8293 H   0  0  0  0  0  0  0  0  0  0  0  0
   52.6833   32.0730   53.2258 H   0  0  0  0  0  0  0  0  0  0  0  0
   53.0421   30.6940   52.1139 H   0  0  0  0  0  0  0  0  0  0  0  0
   52.6378   34.3015   52.0500 H   0  0  0  0  0  0  0  0  0  0  0  0
   53.4889   34.3016   50.4359 H   0  0  0  0  0  0  0  0  0  0  0  0
   51.5360   34.0833   49.3708 H   0  0  0  0  0  0  0  0  0  0  0  0
   50.6662   34.1870   50.9090 H   0  0  0  0  0  0  0  0  0  0  0  0
  1  6  1  0
  1  2  2  0
  2  3  1  0
  3  4  2  0
  5 14  1  0
  5  4  1  0
  6  5  2  0
  7 12  2  0
  8  9  2  0
  8  7  1  0
  9 10  1  0
 10 11  2  0
 11  1  1  0
 12 11  1  0
 13  7  1  0
 14 15  2  0
 15 16  1  0
 16 17  1  0
 17 22  1  0
 17 18  1  0
 18 19  1  0
 20 19  1  0
 21 20  1  0
 22 21  1  0
  2 23  1  0
  3 24  1  0
  4 25  1  0
  8 26  1  0
  9 27  1  0
 13 28  1  0
 13 29  1  0
 14 30  1  0
 15 31  1  0
 16 32  1  0
 16 33  1  0
 17 34  1  0
 18 35  1  0
 18 36  1  0
 19 37  1  0
 19 38  1  0
 21 39  1  0
 21 40  1  0
 22 41  1  0
 22 42  1  0
M  ISO  8  23  14  24  14  25  14  26  14  27  14  32   8  33   8  34  13
M  ISO  8  35  13  36  13  37  13  38  13  39  13  40  13  41  13  42  13
M  END
>  <minimizedAffinity>  (1) 
-6.45994902

>  <minimizedRMSD>  (1) 
1.34825349

$$$$
