
     RDKit          3D

 27 29  0  0  0  0  0  0  0  0999 V2000
   45.3910   34.6170   44.2250 C   0  0  0  0  0  0  0  0  0  0  0  0
   46.4850   34.2690   43.4160 C   0  0  0  0  0  0  0  0  0  0  0  0
   47.4450   33.3770   43.8340 C   0  0  0  0  0  0  0  0  0  0  0  0
   47.2630   32.8560   45.0770 N   0  0  0  0  0  0  0  0  0  0  0  0
   46.2020   33.1960   45.8550 C   0  0  0  0  0  0  0  0  0  0  0  0
   45.2830   34.0630   45.4340 N   0  0  0  0  0  0  0  0  0  0  0  0
   49.7510   34.9720   43.0450 F   0  0  0  0  0  0  0  0  0  0  0  0
   49.7000   33.6760   42.7270 C   0  0  0  0  0  0  0  0  0  0  0  0
   48.6110   32.9380   43.1040 C   0  0  0  0  0  0  0  0  0  0  0  0
   48.6690   31.6150   42.7200 C   0  0  0  0  0  0  0  0  0  0  0  0
   49.7380   31.0850   42.0160 C   0  0  0  0  0  0  0  0  0  0  0  0
   50.8110   31.8720   41.6620 C   0  0  0  0  0  0  0  0  0  0  0  0
   50.7780   33.1970   42.0330 C   0  0  0  0  0  0  0  0  0  0  0  0
   44.4070   35.6030   43.7180 C   0  0  0  0  0  0  0  0  0  0  0  0
   45.0770   36.9350   43.2920 C   0  0  0  0  0  0  0  0  0  0  0  0
   44.3650   36.0280   42.3370 C   0  0  0  0  0  0  0  0  0  0  0  0
   46.5769   34.7233   42.4184 H   0  0  0  0  0  0  0  0  0  0  0  0
   46.1001   32.7457   46.8534 H   0  0  0  0  0  0  0  0  0  0  0  0
   47.8313   30.9526   42.9837 H   0  0  0  0  0  0  0  0  0  0  0  0
   49.7295   30.0212   41.7361 H   0  0  0  0  0  0  0  0  0  0  0  0
   51.6630   31.4571   41.1034 H   0  0  0  0  0  0  0  0  0  0  0  0
   51.6118   33.8660   41.7737 H   0  0  0  0  0  0  0  0  0  0  0  0
   43.6094   35.2383   44.3820 H   0  0  0  0  0  0  0  0  0  0  0  0
   44.6358   37.9003   43.5808 H   0  0  0  0  0  0  0  0  0  0  0  0
   46.0782   37.3842   43.3689 H   0  0  0  0  0  0  0  0  0  0  0  0
   43.4079   36.3486   41.8997 H   0  0  0  0  0  0  0  0  0  0  0  0
   44.6546   35.5500   41.3896 H   0  0  0  0  0  0  0  0  0  0  0  0
  1  6  2  0
  2  3  2  0
  2  1  1  0
  3  4  1  0
  4  5  2  0
  6  5  1  0
  8  7  1  0
  8  9  2  0
  9  3  1  0
 10  9  1  0
 11 10  2  0
 12 11  1  0
 12 13  2  0
 13  8  1  0
 14  1  1  0
 15 14  1  0
 16 15  1  0
 16 14  1  0
  2 17  1  0
  5 18  1  0
 10 19  1  0
 11 20  1  0
 12 21  1  0
 13 22  1  0
 14 23  1  0
 15 24  1  0
 15 25  1  0
 16 26  1  0
 16 27  1  0
M  ISO  8  17  14  18  14  19  14  20  14  21  14  22  14  23  13  24  13
M  ISO  3  25  13  26  13  27  13
M  END
>  <minimizedAffinity>  (1) 
-4.58203697

>  <minimizedRMSD>  (1) 
1.845976

$$$$
