
     RDKit          3D

 31 33  0  0  0  0  0  0  0  0999 V2000
   44.2190   34.4440   41.6560 C   0  0  0  0  0  0  0  0  0  0  0  0
   42.9950   35.0790   41.2930 C   0  0  0  0  0  0  0  0  0  0  0  0
   42.4830   34.8900   40.0040 C   0  0  0  0  0  0  0  0  0  0  0  0
   43.2100   34.0970   39.1710 N   0  0  0  0  0  0  0  0  0  0  0  0
   44.3740   33.5060   39.5430 C   0  0  0  0  0  0  0  0  0  0  0  0
   44.8590   33.6840   40.7690 N   0  0  0  0  0  0  0  0  0  0  0  0
   41.2170   35.5140   39.5440 C   0  0  0  0  0  0  0  0  0  0  0  0
   40.0120   34.9430   40.2940 C   0  0  0  0  0  0  0  0  0  0  0  0
   39.4920   33.6750   39.7110 C   0  0  0  0  0  0  0  0  0  0  0  0
   39.8390   33.4520   38.3860 O   0  0  0  0  0  0  0  0  0  0  0  0
   39.7550   34.6830   37.7330 C   0  0  0  0  0  0  0  0  0  0  0  0
   41.0400   35.4230   38.0510 C   0  0  0  0  0  0  0  0  0  0  0  0
   44.7430   34.6680   43.0200 C   0  0  0  0  0  0  0  0  0  0  0  0
   45.6630   35.9160   43.0990 C   0  0  0  0  0  0  0  0  0  0  0  0
   44.3630   35.8040   43.8280 C   0  0  0  0  0  0  0  0  0  0  0  0
   42.4593   35.7100   42.0175 H   0  0  0  0  0  0  0  0  0  0  0  0
   44.9200   32.8755   38.8258 H   0  0  0  0  0  0  0  0  0  0  0  0
   41.2827   36.5855   39.7838 H   0  0  0  0  0  0  0  0  0  0  0  0
   40.3100   34.7503   41.3352 H   0  0  0  0  0  0  0  0  0  0  0  0
   39.2047   35.6865   40.2202 H   0  0  0  0  0  0  0  0  0  0  0  0
   39.8812   32.8391   40.3108 H   0  0  0  0  0  0  0  0  0  0  0  0
   38.3951   33.7547   39.7318 H   0  0  0  0  0  0  0  0  0  0  0  0
   38.8877   35.2508   38.1009 H   0  0  0  0  0  0  0  0  0  0  0  0
   39.6275   34.5519   36.6483 H   0  0  0  0  0  0  0  0  0  0  0  0
   41.8918   34.8811   37.6141 H   0  0  0  0  0  0  0  0  0  0  0  0
   40.9909   36.4370   37.6274 H   0  0  0  0  0  0  0  0  0  0  0  0
   44.7616   33.5932   43.2536 H   0  0  0  0  0  0  0  0  0  0  0  0
   46.6164   35.8742   43.6461 H   0  0  0  0  0  0  0  0  0  0  0  0
   46.1186   36.6173   42.3844 H   0  0  0  0  0  0  0  0  0  0  0  0
   43.5134   36.4286   43.5148 H   0  0  0  0  0  0  0  0  0  0  0  0
   44.0772   35.9178   44.8841 H   0  0  0  0  0  0  0  0  0  0  0  0
  1 13  1  0
  2  1  2  0
  3  2  1  0
  4  5  1  0
  4  3  2  0
  5  6  2  0
  6  1  1  0
  7  3  1  0
  7  8  1  0
  9  8  1  0
 10  9  1  0
 11 12  1  0
 11 10  1  0
 12  7  1  0
 13 14  1  0
 13 15  1  0
 14 15  1  0
  2 16  1  0
  5 17  1  0
  7 18  1  0
  8 19  1  0
  8 20  1  0
  9 21  1  0
  9 22  1  0
 11 23  1  0
 11 24  1  0
 12 25  1  0
 12 26  1  0
 13 27  1  0
 14 28  1  0
 14 29  1  0
 15 30  1  0
 15 31  1  0
M  ISO  8  16  14  17  14  18  13  19  13  20  13  21  13  22  13  23  13
M  ISO  8  24  13  25  13  26  13  27  13  28  13  29  13  30  13  31  13
M  END
>  <minimizedAffinity>  (1) 
-4.48676777

>  <minimizedRMSD>  (1) 
7.81417227

$$$$
