
     RDKit          3D

 24 26  0  0  0  0  0  0  0  0999 V2000
   45.5590   34.0580   43.3980 C   0  0  0  0  0  0  0  0  0  0  0  0
   46.9040   34.1750   42.9910 C   0  0  0  0  0  0  0  0  0  0  0  0
   47.7640   33.0660   43.1190 C   0  0  0  0  0  0  0  0  0  0  0  0
   47.2240   31.9300   43.6400 N   0  0  0  0  0  0  0  0  0  0  0  0
   45.9230   31.8610   44.0210 C   0  0  0  0  0  0  0  0  0  0  0  0
   45.1100   32.9080   43.8990 N   0  0  0  0  0  0  0  0  0  0  0  0
   44.6890   35.2450   43.2580 C   0  0  0  0  0  0  0  0  0  0  0  0
   44.5780   36.0570   44.5780 C   0  0  0  0  0  0  0  0  0  0  0  0
   45.1820   36.6030   43.3230 C   0  0  0  0  0  0  0  0  0  0  0  0
   49.1650   33.1200   42.7150 C   0  0  0  0  0  0  0  0  0  0  0  0
   49.9230   34.2740   42.7090 C   0  0  0  0  0  0  0  0  0  0  0  0
   51.1320   33.8590   42.2730 N   0  0  0  0  0  0  0  0  0  0  0  0
   51.1620   32.5200   42.0110 C   0  0  0  0  0  0  0  0  0  0  0  0
   49.9040   32.0770   42.2990 N   0  0  0  0  0  0  0  0  0  0  0  0
   47.2784   35.1231   42.5775 H   0  0  0  0  0  0  0  0  0  0  0  0
   45.5328   30.9213   44.4389 H   0  0  0  0  0  0  0  0  0  0  0  0
   44.0451   34.7507   42.5156 H   0  0  0  0  0  0  0  0  0  0  0  0
   43.6012   36.4185   44.9318 H   0  0  0  0  0  0  0  0  0  0  0  0
   44.8938   35.9262   45.6236 H   0  0  0  0  0  0  0  0  0  0  0  0
   46.2659   36.7859   43.2813 H   0  0  0  0  0  0  0  0  0  0  0  0
   44.9911   37.5053   42.7234 H   0  0  0  0  0  0  0  0  0  0  0  0
   49.6149   35.2912   42.9924 H   0  0  0  0  0  0  0  0  0  0  0  0
   51.9417   34.4839   42.1517 H   0  0  0  0  0  0  0  0  0  0  0  0
   52.0142   31.9273   41.6471 H   0  0  0  0  0  0  0  0  0  0  0  0
  1  6  2  0
  2  3  2  0
  2  1  1  0
  3  4  1  0
  4  5  2  0
  6  5  1  0
  7  9  1  0
  7  1  1  0
  7  8  1  0
  9  8  1  0
 10  3  1  0
 11 10  2  0
 12 11  1  0
 13 12  1  0
 13 14  2  0
 14 10  1  0
  2 15  1  0
  5 16  1  0
  7 17  1  0
  8 18  1  0
  8 19  1  0
  9 20  1  0
  9 21  1  0
 11 22  1  0
 12 23  1  0
 13 24  1  0
M  ISO  8  15  14  16  14  17  13  18  13  19  13  20  13  21  13  22  14
M  ISO  2  23   9  24  14
M  END
>  <minimizedAffinity>  (1) 
-4.10817146

>  <minimizedRMSD>  (1) 
2.1398797

$$$$
