
     RDKit          3D

 24 26  0  0  0  0  0  0  0  0999 V2000
   45.5530   34.4480   44.0870 C   0  0  0  0  0  0  0  0  0  0  0  0
   46.6100   34.2540   43.1720 C   0  0  0  0  0  0  0  0  0  0  0  0
   47.6200   33.3270   43.5100 C   0  0  0  0  0  0  0  0  0  0  0  0
   47.5110   32.6770   44.7010 N   0  0  0  0  0  0  0  0  0  0  0  0
   46.4690   32.9030   45.5460 C   0  0  0  0  0  0  0  0  0  0  0  0
   45.5060   33.7730   45.2470 N   0  0  0  0  0  0  0  0  0  0  0  0
   44.4990   35.4340   43.7410 C   0  0  0  0  0  0  0  0  0  0  0  0
   45.0830   36.8340   43.3990 C   0  0  0  0  0  0  0  0  0  0  0  0
   44.3570   35.9830   42.4100 C   0  0  0  0  0  0  0  0  0  0  0  0
   48.7730   33.0490   42.6170 C   0  0  0  0  0  0  0  0  0  0  0  0
   49.9130   34.0820   42.5970 C   0  0  0  0  0  0  0  0  0  0  0  0
   48.9190   34.0250   41.4520 C   0  0  0  0  0  0  0  0  0  0  0  0
   46.6459   34.8090   42.2229 H   0  0  0  0  0  0  0  0  0  0  0  0
   46.4208   32.3544   46.4982 H   0  0  0  0  0  0  0  0  0  0  0  0
   43.7626   34.9751   44.4171 H   0  0  0  0  0  0  0  0  0  0  0  0
   44.6177   37.7469   43.7992 H   0  0  0  0  0  0  0  0  0  0  0  0
   46.0660   37.3240   43.4592 H   0  0  0  0  0  0  0  0  0  0  0  0
   43.3622   36.2943   42.0586 H   0  0  0  0  0  0  0  0  0  0  0  0
   44.6109   35.6073   41.4078 H   0  0  0  0  0  0  0  0  0  0  0  0
   48.7293   31.9573   42.7442 H   0  0  0  0  0  0  0  0  0  0  0  0
   49.8985   34.9309   43.2964 H   0  0  0  0  0  0  0  0  0  0  0  0
   51.0088   34.0332   42.6793 H   0  0  0  0  0  0  0  0  0  0  0  0
   48.1869   34.8355   41.3210 H   0  0  0  0  0  0  0  0  0  0  0  0
   49.0018   33.9195   40.3602 H   0  0  0  0  0  0  0  0  0  0  0  0
  1  6  2  0
  2  3  2  0
  2  1  1  0
  3  4  1  0
  4  5  2  0
  6  5  1  0
  7  1  1  0
  8  7  1  0
  9  8  1  0
  9  7  1  0
 10  3  1  0
 11 10  1  0
 12 11  1  0
 12 10  1  0
  2 13  1  0
  5 14  1  0
  7 15  1  0
  8 16  1  0
  8 17  1  0
  9 18  1  0
  9 19  1  0
 10 20  1  0
 11 21  1  0
 11 22  1  0
 12 23  1  0
 12 24  1  0
M  ISO  8  13  14  14  14  15  13  16  13  17  13  18  13  19  13  20  13
M  ISO  4  21  13  22  13  23  13  24  13
M  END
>  <minimizedAffinity>  (1) 
-3.63969922

>  <minimizedRMSD>  (1) 
1.73847914

$$$$
