
     RDKit          3D

 19 20  0  0  0  0  0  0  0  0999 V2000
   45.3030   34.4820   44.4810 C   0  0  0  0  0  0  0  0  0  0  0  0
   46.2490   33.8330   43.6270 C   0  0  0  0  0  0  0  0  0  0  0  0
   47.1110   32.8800   44.1730 C   0  0  0  0  0  0  0  0  0  0  0  0
   46.9810   32.6410   45.5090 N   0  0  0  0  0  0  0  0  0  0  0  0
   46.0840   33.2670   46.2880 C   0  0  0  0  0  0  0  0  0  0  0  0
   45.2560   34.1750   45.7780 N   0  0  0  0  0  0  0  0  0  0  0  0
   44.4130   35.4960   43.8720 C   0  0  0  0  0  0  0  0  0  0  0  0
   45.1920   36.7420   43.3750 C   0  0  0  0  0  0  0  0  0  0  0  0
   44.4360   35.8260   42.4640 C   0  0  0  0  0  0  0  0  0  0  0  0
   48.0890   32.1930   43.3370 C   0  0  0  0  0  0  0  0  0  0  0  0
   49.0250   32.8130   42.7590 O   0  0  0  0  0  0  0  0  0  0  0  0
   46.2967   34.0809   42.5564 H   0  0  0  0  0  0  0  0  0  0  0  0
   46.0332   33.0263   47.3601 H   0  0  0  0  0  0  0  0  0  0  0  0
   43.5736   35.2362   44.5338 H   0  0  0  0  0  0  0  0  0  0  0  0
   44.8186   37.7552   43.5848 H   0  0  0  0  0  0  0  0  0  0  0  0
   46.2223   37.1200   43.4496 H   0  0  0  0  0  0  0  0  0  0  0  0
   43.5166   36.1854   41.9787 H   0  0  0  0  0  0  0  0  0  0  0  0
   44.7107   35.2630   41.5598 H   0  0  0  0  0  0  0  0  0  0  0  0
   48.0089   31.1037   43.2063 H   0  0  0  0  0  0  0  0  0  0  0  0
  1  6  2  0
  2  3  2  0
  2  1  1  0
  3  4  1  0
  4  5  2  0
  6  5  1  0
  7  1  1  0
  8  7  1  0
  9  8  1  0
  9  7  1  0
 10  3  1  0
 11 10  2  0
  2 12  1  0
  5 13  1  0
  7 14  1  0
  8 15  1  0
  8 16  1  0
  9 17  1  0
  9 18  1  0
 10 19  1  0
M  ISO  8  12  14  13  14  14  13  15  13  16  13  17  13  18  13  19   6
M  END
>  <minimizedAffinity>  (1) 
-3.27093315

>  <minimizedRMSD>  (1) 
0.831762254

$$$$
