
     RDKit          3D

 20 21  0  0  1  0  0  0  0  0999 V2000
   47.1390   31.8360   46.7510 C   0  0  1  0  0  0  0  0  0  0  0  0
   47.8180   32.1040   48.0420 C   0  0  0  0  0  0  0  0  0  0  0  0
   46.5810   31.1990   47.9510 C   0  0  1  0  0  0  0  0  0  0  0  0
   44.8250   34.5930   46.0130 C   0  0  0  0  0  0  0  0  0  0  0  0
   45.0590   34.8630   44.6500 C   0  0  0  0  0  0  0  0  0  0  0  0
   46.0460   34.0730   44.0010 C   0  0  0  0  0  0  0  0  0  0  0  0
   46.7070   33.1140   44.7040 N   0  0  0  0  0  0  0  0  0  0  0  0
   46.4440   32.8980   46.0070 C   0  0  0  0  0  0  0  0  0  0  0  0
   45.5300   33.6290   46.6140 N   0  0  0  0  0  0  0  0  0  0  0  0
   45.4500   31.6570   48.7820 C   0  0  0  0  0  0  0  0  0  0  0  0
   44.2180   31.6690   48.1700 F   0  0  0  0  0  0  0  0  0  0  0  0
   45.3150   30.7620   49.8550 F   0  0  0  0  0  0  0  0  0  0  0  0
   45.7030   32.8820   49.4110 F   0  0  0  0  0  0  0  0  0  0  0  0
   47.4650   31.4486   45.7745 H   0  0  0  0  0  0  0  0  0  0  0  0
   48.8081   31.6714   48.2486 H   0  0  0  0  0  0  0  0  0  0  0  0
   48.0982   33.0008   48.6140 H   0  0  0  0  0  0  0  0  0  0  0  0
   46.2541   30.1598   48.1029 H   0  0  0  0  0  0  0  0  0  0  0  0
   44.0732   35.1670   46.5745 H   0  0  0  0  0  0  0  0  0  0  0  0
   44.5044   35.6474   44.1142 H   0  0  0  0  0  0  0  0  0  0  0  0
   46.2740   34.2358   42.9373 H   0  0  0  0  0  0  0  0  0  0  0  0
  1  3  1  0
  1  2  1  0
  3  2  1  0
  3 10  1  0
  4  9  2  0
  5  4  1  0
  6  5  2  0
  6  7  1  0
  7  8  2  0
  8  9  1  0
  8  1  1  0
 10 13  1  0
 10 12  1  0
 11 10  1  0
  1 14  1  6
  2 15  1  0
  2 16  1  0
  3 17  1  6
  4 18  1  0
  5 19  1  0
  6 20  1  0
M  ISO  7  14  13  15  13  16  13  17  13  18  14  19  14  20  14
M  END
>  <minimizedAffinity>  (1) 
-4.14256811

>  <minimizedRMSD>  (1) 
1.84168816

$$$$
