
     RDKit          3D

 18 19  0  0  0  0  0  0  0  0999 V2000
   45.4740   34.0330   44.5770 C   0  0  0  0  0  0  0  0  0  0  0  0
   46.3990   33.2750   43.8160 C   0  0  0  0  0  0  0  0  0  0  0  0
   47.2230   32.3440   44.4670 C   0  0  0  0  0  0  0  0  0  0  0  0
   47.0750   32.2250   45.8330 N   0  0  0  0  0  0  0  0  0  0  0  0
   46.1720   32.9760   46.5140 C   0  0  0  0  0  0  0  0  0  0  0  0
   45.3890   33.8590   45.8990 N   0  0  0  0  0  0  0  0  0  0  0  0
   44.6260   35.0180   43.8730 C   0  0  0  0  0  0  0  0  0  0  0  0
   44.7780   36.4510   44.4550 C   0  0  0  0  0  0  0  0  0  0  0  0
   45.1660   36.0870   43.0660 C   0  0  0  0  0  0  0  0  0  0  0  0
   48.1440   31.5780   43.7670 O   0  0  0  0  0  0  0  0  0  0  0  0
   46.4702   33.4150   42.7273 H   0  0  0  0  0  0  0  0  0  0  0  0
   46.0852   32.8513   47.6035 H   0  0  0  0  0  0  0  0  0  0  0  0
   43.8454   34.2743   43.6550 H   0  0  0  0  0  0  0  0  0  0  0  0
   43.8918   37.0751   44.6426 H   0  0  0  0  0  0  0  0  0  0  0  0
   45.2696   36.9096   45.3256 H   0  0  0  0  0  0  0  0  0  0  0  0
   46.2310   36.0693   42.7914 H   0  0  0  0  0  0  0  0  0  0  0  0
   44.9012   36.4933   42.0787 H   0  0  0  0  0  0  0  0  0  0  0  0
   48.7145   30.9276   44.2482 H   0  0  0  0  0  0  0  0  0  0  0  0
  1  6  2  0
  2  3  2  0
  2  1  1  0
  3  4  1  0
  4  5  2  0
  6  5  1  0
  7  8  1  0
  7  1  1  0
  9  7  1  0
  9  8  1  0
 10  3  1  0
  2 11  1  0
  5 12  1  0
  7 13  1  0
  8 14  1  0
  8 15  1  0
  9 16  1  0
  9 17  1  0
 10 18  1  0
M  ISO  8  11  14  12  14  13  13  14  13  15  13  16  13  17  13  18   3
M  END
>  <minimizedAffinity>  (1) 
-3.12751961

>  <minimizedRMSD>  (1) 
0.140327215

$$$$
