
     RDKit          3D

 38 41  0  0  0  0  0  0  0  0999 V2000
   41.5500   35.7820   38.9120 C   0  0  0  0  0  0  0  0  0  0  0  0
   44.1740   34.5830   41.3540 C   0  0  0  0  0  0  0  0  0  0  0  0
   43.1270   35.3400   40.7920 C   0  0  0  0  0  0  0  0  0  0  0  0
   42.6550   35.0120   39.5330 C   0  0  0  0  0  0  0  0  0  0  0  0
   43.2540   33.9470   38.9030 N   0  0  0  0  0  0  0  0  0  0  0  0
   44.2610   33.2470   39.4870 C   0  0  0  0  0  0  0  0  0  0  0  0
   44.7150   33.5610   40.6980 N   0  0  0  0  0  0  0  0  0  0  0  0
   44.6710   34.9550   42.7050 C   0  0  0  0  0  0  0  0  0  0  0  0
   46.1820   35.3550   42.6880 C   0  0  0  0  0  0  0  0  0  0  0  0
   45.0920   36.2560   43.0790 C   0  0  0  0  0  0  0  0  0  0  0  0
   40.3140   35.7360   39.7820 C   0  0  0  0  0  0  0  0  0  0  0  0
   39.7180   33.8270   41.2020 C   0  0  0  0  0  0  0  0  0  0  0  0
   40.0640   34.3860   42.2810 O   0  0  0  0  0  0  0  0  0  0  0  0
   39.7620   34.4040   39.8900 N   0  0  0  0  0  0  0  0  0  0  0  0
   37.9560   31.9760   41.0040 N   0  0  0  0  0  0  0  0  0  0  0  0
   39.2110   32.4370   41.2730 C   0  0  0  0  0  0  0  0  0  0  0  0
   39.9260   31.3410   41.6320 N   0  0  0  0  0  0  0  0  0  0  0  0
   39.1600   30.2360   41.5910 C   0  0  0  0  0  0  0  0  0  0  0  0
   39.3510   28.8930   41.8450 C   0  0  0  0  0  0  0  0  0  0  0  0
   38.3780   27.9780   41.7200 N   0  0  0  0  0  0  0  0  0  0  0  0
   37.1580   28.4170   41.3240 C   0  0  0  0  0  0  0  0  0  0  0  0
   36.9310   29.7310   41.0650 N   0  0  0  0  0  0  0  0  0  0  0  0
   37.9130   30.6500   41.1920 C   0  0  0  0  0  0  0  0  0  0  0  0
   41.8648   36.8285   38.7863 H   0  0  0  0  0  0  0  0  0  0  0  0
   41.3125   35.3359   37.9350 H   0  0  0  0  0  0  0  0  0  0  0  0
   42.6895   36.1825   41.3478 H   0  0  0  0  0  0  0  0  0  0  0  0
   44.7115   32.4013   38.9467 H   0  0  0  0  0  0  0  0  0  0  0  0
   43.9732   34.2617   43.1973 H   0  0  0  0  0  0  0  0  0  0  0  0
   46.8773   34.9550   43.4407 H   0  0  0  0  0  0  0  0  0  0  0  0
   47.0027   35.3591   41.9555 H   0  0  0  0  0  0  0  0  0  0  0  0
   44.8421   37.1060   42.4270 H   0  0  0  0  0  0  0  0  0  0  0  0
   44.9167   36.8641   43.9787 H   0  0  0  0  0  0  0  0  0  0  0  0
   40.5781   36.0911   40.7891 H   0  0  0  0  0  0  0  0  0  0  0  0
   39.5520   36.3766   39.3141 H   0  0  0  0  0  0  0  0  0  0  0  0
   39.4170   33.8941   39.0642 H   0  0  0  0  0  0  0  0  0  0  0  0
   37.1620   32.5585   40.7022 H   0  0  0  0  0  0  0  0  0  0  0  0
   40.3483   28.5569   42.1651 H   0  0  0  0  0  0  0  0  0  0  0  0
   36.3359   27.6951   41.2102 H   0  0  0  0  0  0  0  0  0  0  0  0
  1  4  1  0
  1 11  1  0
  2  8  1  0
  3  2  2  0
  4  3  1  0
  5  6  1  0
  5  4  2  0
  6  7  2  0
  7  2  1  0
  8 10  1  0
  9  8  1  0
  9 10  1  0
 11 14  1  0
 12 16  1  0
 12 13  2  0
 14 12  1  0
 15 23  1  0
 15 16  1  0
 16 17  2  0
 18 17  1  0
 18 19  2  0
 20 19  1  0
 21 20  2  0
 22 23  2  0
 22 21  1  0
 23 18  1  0
  1 24  1  0
  1 25  1  0
  3 26  1  0
  6 27  1  0
  8 28  1  0
  9 29  1  0
  9 30  1  0
 10 31  1  0
 10 32  1  0
 11 33  1  0
 11 34  1  0
 14 35  1  0
 15 36  1  0
 19 37  1  0
 21 38  1  0
M  ISO  8  24   8  25   8  26  14  27  14  28  13  29  13  30  13  31  13
M  ISO  6  32  13  33   8  34   8  36   9  37  14  38  14
M  END
>  <minimizedAffinity>  (1) 
-5.48625803

>  <minimizedRMSD>  (1) 
1.69327569

$$$$
