
     RDKit          3D

 37 39  0  0  0  0  0  0  0  0999 V2000
   40.7330   35.7050   39.6130 C   0  0  0  0  0  0  0  0  0  0  0  0
   43.8550   34.7680   41.5320 C   0  0  0  0  0  0  0  0  0  0  0  0
   42.6250   35.3750   41.2020 C   0  0  0  0  0  0  0  0  0  0  0  0
   42.0290   35.0890   39.9870 C   0  0  0  0  0  0  0  0  0  0  0  0
   42.6870   34.2140   39.1620 N   0  0  0  0  0  0  0  0  0  0  0  0
   43.8730   33.6510   39.5220 C   0  0  0  0  0  0  0  0  0  0  0  0
   44.4490   33.9240   40.6910 N   0  0  0  0  0  0  0  0  0  0  0  0
   44.4790   35.0910   42.8370 C   0  0  0  0  0  0  0  0  0  0  0  0
   46.0200   35.3380   42.7080 C   0  0  0  0  0  0  0  0  0  0  0  0
   45.0540   36.3420   43.1700 C   0  0  0  0  0  0  0  0  0  0  0  0
   39.6590   35.3140   40.5970 C   0  0  0  0  0  0  0  0  0  0  0  0
   39.2740   32.9190   40.8940 C   0  0  0  0  0  0  0  0  0  0  0  0
   40.1160   32.7830   41.8260 O   0  0  0  0  0  0  0  0  0  0  0  0
   38.9540   34.1030   40.1870 N   0  0  0  0  0  0  0  0  0  0  0  0
   40.0830   32.0110   38.1800 Cl  0  0  0  0  0  0  0  0  0  0  0  0
   38.9220   31.2400   39.2440 C   0  0  0  0  0  0  0  0  0  0  0  0
   38.5540   31.6830   40.5180 C   0  0  0  0  0  0  0  0  0  0  0  0
   37.6360   30.9900   41.2480 C   0  0  0  0  0  0  0  0  0  0  0  0
   37.0750   29.8470   40.7070 C   0  0  0  0  0  0  0  0  0  0  0  0
   37.4200   29.3860   39.4530 C   0  0  0  0  0  0  0  0  0  0  0  0
   38.3580   30.0990   38.7150 C   0  0  0  0  0  0  0  0  0  0  0  0
   40.8400   36.7998   39.6099 H   0  0  0  0  0  0  0  0  0  0  0  0
   40.4455   35.3494   38.6126 H   0  0  0  0  0  0  0  0  0  0  0  0
   42.1437   36.0703   41.9055 H   0  0  0  0  0  0  0  0  0  0  0  0
   44.3676   32.9534   38.8301 H   0  0  0  0  0  0  0  0  0  0  0  0
   43.7514   34.4730   43.3835 H   0  0  0  0  0  0  0  0  0  0  0  0
   46.7248   34.8708   43.4116 H   0  0  0  0  0  0  0  0  0  0  0  0
   46.7823   35.2607   41.9188 H   0  0  0  0  0  0  0  0  0  0  0  0
   44.8432   37.2128   42.5318 H   0  0  0  0  0  0  0  0  0  0  0  0
   45.0054   36.9638   44.0761 H   0  0  0  0  0  0  0  0  0  0  0  0
   40.1237   35.1389   41.5785 H   0  0  0  0  0  0  0  0  0  0  0  0
   38.9267   36.1335   40.6430 H   0  0  0  0  0  0  0  0  0  0  0  0
   38.2614   34.1098   39.4247 H   0  0  0  0  0  0  0  0  0  0  0  0
   37.3454   31.3338   42.2517 H   0  0  0  0  0  0  0  0  0  0  0  0
   36.3312   29.2886   41.2944 H   0  0  0  0  0  0  0  0  0  0  0  0
   36.9620   28.4727   39.0454 H   0  0  0  0  0  0  0  0  0  0  0  0
   38.6491   29.7536   37.7120 H   0  0  0  0  0  0  0  0  0  0  0  0
  1  4  1  0
  1 11  1  0
  2  8  1  0
  3  2  2  0
  4  3  1  0
  5  6  1  0
  5  4  2  0
  6  7  2  0
  7  2  1  0
  8 10  1  0
  9  8  1  0
  9 10  1  0
 12 13  2  0
 14 11  1  0
 14 12  1  0
 15 16  1  0
 16 17  2  0
 17 12  1  0
 17 18  1  0
 19 18  2  0
 20 19  1  0
 21 16  1  0
 21 20  2  0
  1 22  1  0
  1 23  1  0
  3 24  1  0
  6 25  1  0
  8 26  1  0
  9 27  1  0
  9 28  1  0
 10 29  1  0
 10 30  1  0
 11 31  1  0
 11 32  1  0
 14 33  1  0
 18 34  1  0
 19 35  1  0
 20 36  1  0
 21 37  1  0
M  ISO  8  22   8  23   8  24  14  25  14  26  13  27  13  28  13  29  13
M  ISO  7  30  13  31   8  32   8  34  14  35  14  36  14  37  14
M  END
>  <minimizedAffinity>  (1) 
-5.29242611

>  <minimizedRMSD>  (1) 
0.782854319

$$$$
