
     RDKit          3D

 39 41  0  0  0  0  0  0  0  0999 V2000
   43.9320   34.6640   41.4770 C   0  0  0  0  0  0  0  0  0  0  0  0
   42.7920   35.4040   41.0870 C   0  0  0  0  0  0  0  0  0  0  0  0
   42.2240   35.1670   39.8470 C   0  0  0  0  0  0  0  0  0  0  0  0
   42.8170   34.2090   39.0640 N   0  0  0  0  0  0  0  0  0  0  0  0
   43.9140   33.5220   39.4840 C   0  0  0  0  0  0  0  0  0  0  0  0
   44.4640   33.7460   40.6750 N   0  0  0  0  0  0  0  0  0  0  0  0
   44.5430   34.9300   42.8060 C   0  0  0  0  0  0  0  0  0  0  0  0
   46.0570   35.3390   42.6800 C   0  0  0  0  0  0  0  0  0  0  0  0
   45.0060   36.1930   43.2460 C   0  0  0  0  0  0  0  0  0  0  0  0
   41.0240   35.9230   39.4170 C   0  0  0  0  0  0  0  0  0  0  0  0
   39.8450   35.5980   40.3060 C   0  0  0  0  0  0  0  0  0  0  0  0
   39.1780   33.3000   40.7560 C   0  0  0  0  0  0  0  0  0  0  0  0
   39.7450   33.2460   41.8830 O   0  0  0  0  0  0  0  0  0  0  0  0
   39.1340   34.4110   39.8830 N   0  0  0  0  0  0  0  0  0  0  0  0
   38.4970   32.1160   40.2870 N   0  0  0  0  0  0  0  0  0  0  0  0
   38.2800   31.6460   38.9120 C   0  0  0  0  0  0  0  0  0  0  0  0
   38.3870   30.1390   38.9900 C   0  0  0  0  0  0  0  0  0  0  0  0
   37.9950   29.7890   40.3950 C   0  0  0  0  0  0  0  0  0  0  0  0
   37.8520   31.0930   41.1140 C   0  0  0  0  0  0  0  0  0  0  0  0
   42.3615   36.1592   41.7610 H   0  0  0  0  0  0  0  0  0  0  0  0
   44.3571   32.7628   38.8228 H   0  0  0  0  0  0  0  0  0  0  0  0
   43.8854   34.2013   43.3024 H   0  0  0  0  0  0  0  0  0  0  0  0
   46.8191   34.8810   43.3276 H   0  0  0  0  0  0  0  0  0  0  0  0
   46.8065   35.4108   41.8781 H   0  0  0  0  0  0  0  0  0  0  0  0
   44.6983   37.0941   42.6953 H   0  0  0  0  0  0  0  0  0  0  0  0
   44.9183   36.7193   44.2079 H   0  0  0  0  0  0  0  0  0  0  0  0
   41.2352   37.0009   39.4760 H   0  0  0  0  0  0  0  0  0  0  0  0
   40.7777   35.6401   38.3829 H   0  0  0  0  0  0  0  0  0  0  0  0
   40.2107   35.4418   41.3316 H   0  0  0  0  0  0  0  0  0  0  0  0
   39.1431   36.4429   40.2472 H   0  0  0  0  0  0  0  0  0  0  0  0
   38.6213   34.3772   38.9903 H   0  0  0  0  0  0  0  0  0  0  0  0
   39.0485   32.0535   38.2386 H   0  0  0  0  0  0  0  0  0  0  0  0
   37.3072   31.9704   38.5139 H   0  0  0  0  0  0  0  0  0  0  0  0
   37.7034   29.6660   38.2696 H   0  0  0  0  0  0  0  0  0  0  0  0
   39.3996   29.7856   38.7456 H   0  0  0  0  0  0  0  0  0  0  0  0
   37.0412   29.2412   40.4016 H   0  0  0  0  0  0  0  0  0  0  0  0
   38.7434   29.1414   40.8752 H   0  0  0  0  0  0  0  0  0  0  0  0
   38.3434   31.0376   42.0966 H   0  0  0  0  0  0  0  0  0  0  0  0
   36.7914   31.3346   41.2779 H   0  0  0  0  0  0  0  0  0  0  0  0
  1  7  1  0
  2  1  2  0
  3  2  1  0
  4  5  1  0
  4  3  2  0
  5  6  2  0
  6  1  1  0
  7  9  1  0
  8  7  1  0
  8  9  1  0
 10  3  1  0
 10 11  1  0
 12 13  2  0
 14 11  1  0
 14 12  1  0
 15 12  1  0
 15 19  1  0
 16 17  1  0
 16 15  1  0
 17 18  1  0
 18 19  1  0
  2 20  1  0
  5 21  1  0
  7 22  1  0
  8 23  1  0
  8 24  1  0
  9 25  1  0
  9 26  1  0
 10 27  1  0
 10 28  1  0
 11 29  1  0
 11 30  1  0
 14 31  1  0
 16 32  1  0
 16 33  1  0
 17 34  1  0
 17 35  1  0
 18 36  1  0
 18 37  1  0
 19 38  1  0
 19 39  1  0
M  ISO  8  20  14  21  14  22  13  23  13  24  13  25  13  26  13  27   8
M  ISO  8  28   8  29   8  30   8  32  13  33  13  34  13  35  13  36  13
M  ISO  3  37  13  38  13  39  13
M  END
>  <minimizedAffinity>  (1) 
-4.9980526

>  <minimizedRMSD>  (1) 
0.424379647

$$$$
