
     RDKit          3D

 33 35  0  0  0  0  0  0  0  0999 V2000
   40.9320   35.7810   39.3740 C   0  0  0  0  0  0  0  0  0  0  0  0
   43.9050   34.7240   41.4590 C   0  0  0  0  0  0  0  0  0  0  0  0
   42.7260   35.3960   41.0630 C   0  0  0  0  0  0  0  0  0  0  0  0
   42.1740   35.1080   39.8260 C   0  0  0  0  0  0  0  0  0  0  0  0
   42.8210   34.1760   39.0550 N   0  0  0  0  0  0  0  0  0  0  0  0
   43.9530   33.5580   39.4800 C   0  0  0  0  0  0  0  0  0  0  0  0
   44.4880   33.8280   40.6670 N   0  0  0  0  0  0  0  0  0  0  0  0
   44.4900   35.0490   42.7870 C   0  0  0  0  0  0  0  0  0  0  0  0
   46.0280   35.3220   42.7010 C   0  0  0  0  0  0  0  0  0  0  0  0
   45.0370   36.3080   43.1390 C   0  0  0  0  0  0  0  0  0  0  0  0
   39.7950   35.4980   40.3350 C   0  0  0  0  0  0  0  0  0  0  0  0
   39.2180   33.2090   40.9400 C   0  0  0  0  0  0  0  0  0  0  0  0
   39.8450   33.2300   42.0360 O   0  0  0  0  0  0  0  0  0  0  0  0
   39.0930   34.2790   40.0130 N   0  0  0  0  0  0  0  0  0  0  0  0
   38.5440   31.9430   40.5760 C   0  0  0  0  0  0  0  0  0  0  0  0
   37.8420   31.1030   41.3600 N   0  0  0  0  0  0  0  0  0  0  0  0
   37.3870   30.0620   40.6600 C   0  0  0  0  0  0  0  0  0  0  0  0
   37.8070   30.2440   39.4050 N   0  0  0  0  0  0  0  0  0  0  0  0
   38.4940   31.3590   39.3520 N   0  0  0  0  0  0  0  0  0  0  0  0
   41.1048   36.8663   39.3273 H   0  0  0  0  0  0  0  0  0  0  0  0
   40.6611   35.3970   38.3795 H   0  0  0  0  0  0  0  0  0  0  0  0
   42.2546   36.1358   41.7268 H   0  0  0  0  0  0  0  0  0  0  0  0
   44.4384   32.8173   38.8275 H   0  0  0  0  0  0  0  0  0  0  0  0
   43.7588   34.4162   43.3113 H   0  0  0  0  0  0  0  0  0  0  0  0
   46.7209   34.8637   43.4220 H   0  0  0  0  0  0  0  0  0  0  0  0
   46.8122   35.2596   41.9322 H   0  0  0  0  0  0  0  0  0  0  0  0
   44.8302   37.1776   42.4978 H   0  0  0  0  0  0  0  0  0  0  0  0
   44.9548   36.9261   44.0452 H   0  0  0  0  0  0  0  0  0  0  0  0
   40.2053   35.4113   41.3519 H   0  0  0  0  0  0  0  0  0  0  0  0
   39.0774   36.3283   40.2593 H   0  0  0  0  0  0  0  0  0  0  0  0
   38.5301   34.1890   39.1551 H   0  0  0  0  0  0  0  0  0  0  0  0
   36.7865   29.2224   41.0401 H   0  0  0  0  0  0  0  0  0  0  0  0
   37.6219   29.6136   38.6117 H   0  0  0  0  0  0  0  0  0  0  0  0
  1  4  1  0
  1 11  1  0
  2  8  1  0
  3  2  2  0
  4  3  1  0
  5  6  1  0
  5  4  2  0
  6  7  2  0
  7  2  1  0
  8 10  1  0
  9  8  1  0
  9 10  1  0
 12 13  2  0
 14 11  1  0
 14 12  1  0
 15 12  1  0
 15 16  1  0
 17 16  2  0
 18 17  1  0
 19 18  1  0
 19 15  2  0
  1 20  1  0
  1 21  1  0
  3 22  1  0
  6 23  1  0
  8 24  1  0
  9 25  1  0
  9 26  1  0
 10 27  1  0
 10 28  1  0
 11 29  1  0
 11 30  1  0
 14 31  1  0
 17 32  1  0
 18 33  1  0
M  ISO  8  20   8  21   8  22  14  23  14  24  13  25  13  26  13  27  13
M  ISO  5  28  13  29   8  30   8  32  14  33   9
M  END
>  <minimizedAffinity>  (1) 
-4.8167963

>  <minimizedRMSD>  (1) 
0.49995935

$$$$
