
     RDKit          3D

 28 29  0  0  0  0  0  0  0  0999 V2000
   44.1090   34.5180   41.2740 C   0  0  0  0  0  0  0  0  0  0  0  0
   42.9670   35.1610   40.7830 C   0  0  0  0  0  0  0  0  0  0  0  0
   42.5080   34.8650   39.5170 C   0  0  0  0  0  0  0  0  0  0  0  0
   43.2110   33.9400   38.8000 N   0  0  0  0  0  0  0  0  0  0  0  0
   44.3250   33.3330   39.3160 C   0  0  0  0  0  0  0  0  0  0  0  0
   44.7650   33.6230   40.5440 N   0  0  0  0  0  0  0  0  0  0  0  0
   44.5990   34.8580   42.6410 C   0  0  0  0  0  0  0  0  0  0  0  0
   46.0960   35.3050   42.6360 C   0  0  0  0  0  0  0  0  0  0  0  0
   44.9810   36.1670   43.0370 C   0  0  0  0  0  0  0  0  0  0  0  0
   41.2950   35.5320   38.9820 C   0  0  0  0  0  0  0  0  0  0  0  0
   40.2690   35.7390   40.0760 C   0  0  0  0  0  0  0  0  0  0  0  0
   39.1050   33.7520   40.8870 C   0  0  0  0  0  0  0  0  0  0  0  0
   39.9310   33.5090   41.8100 O   0  0  0  0  0  0  0  0  0  0  0  0
   39.1460   34.8110   39.9500 N   0  0  0  0  0  0  0  0  0  0  0  0
   38.0610   32.8070   40.8710 O   0  0  0  0  0  0  0  0  0  0  0  0
   42.4382   35.8990   41.4041 H   0  0  0  0  0  0  0  0  0  0  0  0
   44.8673   32.5934   38.7086 H   0  0  0  0  0  0  0  0  0  0  0  0
   43.9293   34.1277   43.1186 H   0  0  0  0  0  0  0  0  0  0  0  0
   46.8008   34.9144   43.3848 H   0  0  0  0  0  0  0  0  0  0  0  0
   46.9180   35.3453   41.9061 H   0  0  0  0  0  0  0  0  0  0  0  0
   44.7082   37.0193   42.3974 H   0  0  0  0  0  0  0  0  0  0  0  0
   44.7856   36.7559   43.9453 H   0  0  0  0  0  0  0  0  0  0  0  0
   41.5762   36.5089   38.5617 H   0  0  0  0  0  0  0  0  0  0  0  0
   40.8554   34.8923   38.2026 H   0  0  0  0  0  0  0  0  0  0  0  0
   40.7524   35.5826   41.0517 H   0  0  0  0  0  0  0  0  0  0  0  0
   39.8776   36.7633   39.9883 H   0  0  0  0  0  0  0  0  0  0  0  0
   38.4266   34.9220   39.2213 H   0  0  0  0  0  0  0  0  0  0  0  0
   37.3402   32.8771   40.1960 H   0  0  0  0  0  0  0  0  0  0  0  0
  1  7  1  0
  2  1  2  0
  3  2  1  0
  4  5  1  0
  4  3  2  0
  5  6  2  0
  6  1  1  0
  7  9  1  0
  8  7  1  0
  8  9  1  0
 10  3  1  0
 10 11  1  0
 12 13  2  0
 14 11  1  0
 14 12  1  0
 15 12  1  0
  2 16  1  0
  5 17  1  0
  7 18  1  0
  8 19  1  0
  8 20  1  0
  9 21  1  0
  9 22  1  0
 10 23  1  0
 10 24  1  0
 11 25  1  0
 11 26  1  0
 14 27  1  0
 15 28  1  0
M  ISO  8  16  14  17  14  18  13  19  13  20  13  21  13  22  13  23   8
M  ISO  4  24   8  25   8  26   8  28   3
M  END
>  <minimizedAffinity>  (1) 
-4.571486

>  <minimizedRMSD>  (1) 
0.291337788

$$$$
