
     RDKit          3D

 40 42  0  0  0  0  0  0  0  0999 V2000
   39.8970   35.7450   40.2950 C   0  0  0  0  0  0  0  0  0  0  0  0
   39.2870   33.4470   40.8560 C   0  0  0  0  0  0  0  0  0  0  0  0
   39.8120   33.5110   42.0010 O   0  0  0  0  0  0  0  0  0  0  0  0
   39.1960   34.5240   39.9460 N   0  0  0  0  0  0  0  0  0  0  0  0
   38.7090   32.1600   40.3980 C   0  0  0  0  0  0  0  0  0  0  0  0
   38.7750   31.8300   39.0620 C   0  0  0  0  0  0  0  0  0  0  0  0
   38.2820   30.6720   38.5030 C   0  0  0  0  0  0  0  0  0  0  0  0
   37.6760   29.7840   39.3730 C   0  0  0  0  0  0  0  0  0  0  0  0
   37.6250   30.1420   40.7020 C   0  0  0  0  0  0  0  0  0  0  0  0
   38.1170   31.2810   41.2200 N   0  0  0  0  0  0  0  0  0  0  0  0
   37.4370   27.9580   41.5160 C   0  0  0  0  0  0  0  0  0  0  0  0
   38.2270   27.5480   40.6110 O   0  0  0  0  0  0  0  0  0  0  0  0
   37.0180   29.2970   41.7020 N   0  0  0  0  0  0  0  0  0  0  0  0
   41.0900   36.0030   39.3690 C   0  0  0  0  0  0  0  0  0  0  0  0
   43.9400   34.6620   41.4780 C   0  0  0  0  0  0  0  0  0  0  0  0
   42.8270   35.4470   41.0740 C   0  0  0  0  0  0  0  0  0  0  0  0
   42.2570   35.2200   39.8390 C   0  0  0  0  0  0  0  0  0  0  0  0
   42.8240   34.2240   39.0740 N   0  0  0  0  0  0  0  0  0  0  0  0
   43.8950   33.5000   39.5140 C   0  0  0  0  0  0  0  0  0  0  0  0
   44.4420   33.7210   40.7040 N   0  0  0  0  0  0  0  0  0  0  0  0
   44.5520   34.9320   42.8170 C   0  0  0  0  0  0  0  0  0  0  0  0
   46.0690   35.3430   42.6720 C   0  0  0  0  0  0  0  0  0  0  0  0
   45.0210   36.1750   43.2760 C   0  0  0  0  0  0  0  0  0  0  0  0
   39.1979   36.5908   40.2185 H   0  0  0  0  0  0  0  0  0  0  0  0
   40.2786   35.6378   41.3211 H   0  0  0  0  0  0  0  0  0  0  0  0
   38.6554   34.4455   39.0728 H   0  0  0  0  0  0  0  0  0  0  0  0
   39.2609   32.5499   38.3870 H   0  0  0  0  0  0  0  0  0  0  0  0
   38.3655   30.4651   37.4259 H   0  0  0  0  0  0  0  0  0  0  0  0
   37.2528   28.8325   39.0187 H   0  0  0  0  0  0  0  0  0  0  0  0
   37.0437   27.2070   42.2169 H   0  0  0  0  0  0  0  0  0  0  0  0
   36.3763   29.6198   42.4402 H   0  0  0  0  0  0  0  0  0  0  0  0
   41.3384   37.0745   39.3806 H   0  0  0  0  0  0  0  0  0  0  0  0
   40.8319   35.6981   38.3441 H   0  0  0  0  0  0  0  0  0  0  0  0
   42.4249   36.2263   41.7381 H   0  0  0  0  0  0  0  0  0  0  0  0
   44.3147   32.7151   38.8675 H   0  0  0  0  0  0  0  0  0  0  0  0
   43.8874   34.2086   43.3120 H   0  0  0  0  0  0  0  0  0  0  0  0
   46.8431   34.8709   43.2949 H   0  0  0  0  0  0  0  0  0  0  0  0
   46.8058   35.4362   41.8606 H   0  0  0  0  0  0  0  0  0  0  0  0
   44.7016   37.0887   42.7535 H   0  0  0  0  0  0  0  0  0  0  0  0
   44.9486   36.6748   44.2532 H   0  0  0  0  0  0  0  0  0  0  0  0
  2  3  2  0
  4  1  1  0
  4  2  1  0
  5  2  1  0
  5 10  1  0
  6  5  2  0
  7  6  1  0
  7  8  2  0
  8  9  1  0
  9 10  2  0
  9 13  1  0
 11 13  1  0
 12 11  2  0
 14 17  1  0
 14  1  1  0
 15 21  1  0
 16 15  2  0
 17 16  1  0
 18 19  1  0
 18 17  2  0
 19 20  2  0
 20 15  1  0
 21 23  1  0
 22 21  1  0
 22 23  1  0
  1 24  1  0
  1 25  1  0
  4 26  1  0
  6 27  1  0
  7 28  1  0
  8 29  1  0
 11 30  1  0
 13 31  1  0
 14 32  1  0
 14 33  1  0
 16 34  1  0
 19 35  1  0
 21 36  1  0
 22 37  1  0
 22 38  1  0
 23 39  1  0
 23 40  1  0
M  ISO  8  24   8  25   8  27  14  28  14  29  14  30   6  32   8  33   8
M  ISO  7  34  14  35  14  36  13  37  13  38  13  39  13  40  13
M  END
>  <minimizedAffinity>  (1) 
-5.70657396

>  <minimizedRMSD>  (1) 
0.196837738

$$$$
