
     RDKit          3D

 38 40  0  0  0  0  0  0  0  0999 V2000
   41.0670   35.9660   39.3460 C   0  0  0  0  0  0  0  0  0  0  0  0
   43.9270   34.6670   41.4650 C   0  0  0  0  0  0  0  0  0  0  0  0
   42.8060   35.4340   41.0520 C   0  0  0  0  0  0  0  0  0  0  0  0
   42.2440   35.1950   39.8160 C   0  0  0  0  0  0  0  0  0  0  0  0
   42.8280   34.2080   39.0560 N   0  0  0  0  0  0  0  0  0  0  0  0
   43.9070   33.4990   39.5040 C   0  0  0  0  0  0  0  0  0  0  0  0
   44.4470   33.7310   40.6970 N   0  0  0  0  0  0  0  0  0  0  0  0
   44.5300   34.9500   42.8050 C   0  0  0  0  0  0  0  0  0  0  0  0
   46.0530   35.3510   42.6640 C   0  0  0  0  0  0  0  0  0  0  0  0
   45.0070   36.1940   43.2490 C   0  0  0  0  0  0  0  0  0  0  0  0
   39.8810   35.6980   40.2660 C   0  0  0  0  0  0  0  0  0  0  0  0
   39.3360   33.4080   40.9220 C   0  0  0  0  0  0  0  0  0  0  0  0
   39.8570   33.5300   42.0650 O   0  0  0  0  0  0  0  0  0  0  0  0
   39.2130   34.4480   39.9710 N   0  0  0  0  0  0  0  0  0  0  0  0
   38.8010   32.0860   40.5050 C   0  0  0  0  0  0  0  0  0  0  0  0
   38.6610   31.8110   39.1570 C   0  0  0  0  0  0  0  0  0  0  0  0
   38.1760   30.6250   38.6410 C   0  0  0  0  0  0  0  0  0  0  0  0
   37.8140   29.6620   39.5720 C   0  0  0  0  0  0  0  0  0  0  0  0
   37.9650   29.9690   40.9040 C   0  0  0  0  0  0  0  0  0  0  0  0
   38.4410   31.1350   41.3830 N   0  0  0  0  0  0  0  0  0  0  0  0
   37.5820   28.9540   41.8800 C   0  0  0  0  0  0  0  0  0  0  0  0
   37.3480   27.7620   41.5620 O   0  0  0  0  0  0  0  0  0  0  0  0
   41.3042   37.0401   39.3576 H   0  0  0  0  0  0  0  0  0  0  0  0
   40.8125   35.6568   38.3215 H   0  0  0  0  0  0  0  0  0  0  0  0
   42.3904   36.2105   41.7110 H   0  0  0  0  0  0  0  0  0  0  0  0
   44.3394   32.7173   38.8622 H   0  0  0  0  0  0  0  0  0  0  0  0
   43.8564   34.2387   43.3054 H   0  0  0  0  0  0  0  0  0  0  0  0
   46.8205   34.8830   43.2980 H   0  0  0  0  0  0  0  0  0  0  0  0
   46.7958   35.4297   41.8565 H   0  0  0  0  0  0  0  0  0  0  0  0
   44.6968   37.1028   42.7125 H   0  0  0  0  0  0  0  0  0  0  0  0
   44.9326   36.7062   44.2196 H   0  0  0  0  0  0  0  0  0  0  0  0
   40.2419   35.6669   41.3046 H   0  0  0  0  0  0  0  0  0  0  0  0
   39.1523   36.5073   40.1111 H   0  0  0  0  0  0  0  0  0  0  0  0
   38.6707   34.3211   39.1046 H   0  0  0  0  0  0  0  0  0  0  0  0
   38.9575   32.5939   38.4435 H   0  0  0  0  0  0  0  0  0  0  0  0
   38.0825   30.4545   37.5583 H   0  0  0  0  0  0  0  0  0  0  0  0
   37.4193   28.6854   39.2552 H   0  0  0  0  0  0  0  0  0  0  0  0
   37.4947   29.2449   42.9372 H   0  0  0  0  0  0  0  0  0  0  0  0
  1  4  1  0
  1 11  1  0
  2  8  1  0
  3  2  2  0
  4  3  1  0
  5  6  1  0
  5  4  2  0
  6  7  2  0
  7  2  1  0
  8 10  1  0
  9  8  1  0
  9 10  1  0
 12 13  2  0
 14 11  1  0
 14 12  1  0
 15 12  1  0
 15 20  1  0
 16 15  2  0
 17 16  1  0
 17 18  2  0
 18 19  1  0
 19 20  2  0
 19 21  1  0
 22 21  2  0
  1 23  1  0
  1 24  1  0
  3 25  1  0
  6 26  1  0
  8 27  1  0
  9 28  1  0
  9 29  1  0
 10 30  1  0
 10 31  1  0
 11 32  1  0
 11 33  1  0
 14 34  1  0
 16 35  1  0
 17 36  1  0
 18 37  1  0
 21 38  1  0
M  ISO  8  23   8  24   8  25  14  26  14  27  13  28  13  29  13  30  13
M  ISO  7  31  13  32   8  33   8  35  14  36  14  37  14  38   6
M  END
>  <minimizedAffinity>  (1) 
-5.13790083

>  <minimizedRMSD>  (1) 
0.341063142

$$$$
