
     RDKit          3D

 33 34  0  0  0  0  0  0  0  0999 V2000
   45.1000   35.6170   43.5210 C   0  0  0  0  0  0  0  0  0  0  0  0
   46.0010   34.5240   43.5250 C   0  0  0  0  0  0  0  0  0  0  0  0
   46.1490   33.7910   44.7020 C   0  0  0  0  0  0  0  0  0  0  0  0
   45.4190   34.1610   45.7950 N   0  0  0  0  0  0  0  0  0  0  0  0
   44.5700   35.2000   45.7690 C   0  0  0  0  0  0  0  0  0  0  0  0
   44.4110   35.9210   44.6470 N   0  0  0  0  0  0  0  0  0  0  0  0
   46.6780   34.2790   42.3060 N   0  0  0  0  0  0  0  0  0  0  0  0
   47.8340   35.0460   41.8750 C   0  0  0  0  0  0  0  0  0  0  0  0
   48.4020   34.4720   40.6180 C   0  0  0  0  0  0  0  0  0  0  0  0
   47.4170   34.2730   39.5920 N   0  0  0  0  0  0  0  0  0  0  0  0
   46.2120   33.6160   40.0150 C   0  0  0  0  0  0  0  0  0  0  0  0
   46.1900   33.2170   41.4550 C   0  0  0  0  0  0  0  0  0  0  0  0
   47.0360   32.7310   44.6700 O   0  0  0  0  0  0  0  0  0  0  0  0
   45.5750   31.0520   46.0970 O   0  0  0  0  0  0  0  0  0  0  0  0
   47.0030   31.5750   45.9440 P   0  0  1  0  0  0  0  0  0  0  0  0
   48.0840   30.3630   45.5800 O   0  0  0  0  0  0  0  0  0  0  0  0
   47.3990   32.3950   47.3610 O   0  0  0  0  0  0  0  0  0  0  0  0
   47.5350   31.4990   48.4270 C   0  0  0  0  0  0  0  0  0  0  0  0
   44.9606   36.2155   42.6087 H   0  0  0  0  0  0  0  0  0  0  0  0
   44.0005   35.4629   46.6726 H   0  0  0  0  0  0  0  0  0  0  0  0
   47.5303   36.0874   41.6928 H   0  0  0  0  0  0  0  0  0  0  0  0
   48.6009   35.0077   42.6626 H   0  0  0  0  0  0  0  0  0  0  0  0
   49.1710   35.1595   40.2359 H   0  0  0  0  0  0  0  0  0  0  0  0
   48.8181   33.4849   40.8679 H   0  0  0  0  0  0  0  0  0  0  0  0
   47.8444   33.7045   38.8470 H   0  0  0  0  0  0  0  0  0  0  0  0
   45.3685   34.2990   39.8359 H   0  0  0  0  0  0  0  0  0  0  0  0
   46.1460   32.6844   39.4338 H   0  0  0  0  0  0  0  0  0  0  0  0
   45.1565   32.9744   41.7430 H   0  0  0  0  0  0  0  0  0  0  0  0
   46.8467   32.3437   41.5815 H   0  0  0  0  0  0  0  0  0  0  0  0
   48.4342   29.9703   46.4186 H   0  0  0  0  0  0  0  0  0  0  0  0
   47.4521   32.0454   49.3781 H   0  0  0  0  0  0  0  0  0  0  0  0
   46.7420   30.7388   48.3705 H   0  0  0  0  0  0  0  0  0  0  0  0
   48.5179   31.0084   48.3705 H   0  0  0  0  0  0  0  0  0  0  0  0
  1  2  2  0
  1  6  1  0
  2  3  1  0
  3  4  2  0
  5  4  1  0
  6  5  2  0
  7  2  1  0
  8  7  1  0
  9  8  1  0
 10 11  1  0
 10  9  1  0
 11 12  1  0
 12  7  1  0
 13  3  1  0
 13 15  1  0
 15 14  2  0
 15 17  1  0
 16 15  1  0
 17 18  1  0
  1 19  1  0
  5 20  1  0
  8 21  1  0
  8 22  1  0
  9 23  1  0
  9 24  1  0
 10 25  1  0
 11 26  1  0
 11 27  1  0
 12 28  1  0
 12 29  1  0
 16 30  1  0
 18 31  1  0
 18 32  1  0
 18 33  1  0
M  ISO  8  19  14  20  14  21  13  22  13  23  13  24  13  25   5  26  13
M  ISO  7  27  13  28  13  29  13  30   3  31   8  32   8  33   8
M  END
>  <minimizedAffinity>  (1) 
-4.49811506

>  <minimizedRMSD>  (1) 
0.54047817

$$$$
