
     RDKit          3D

 33 34  0  0  0  0  0  0  0  0999 V2000
   45.0820   35.7030   43.4940 C   0  0  0  0  0  0  0  0  0  0  0  0
   46.0090   34.6230   43.5720 C   0  0  0  0  0  0  0  0  0  0  0  0
   46.1150   33.9460   44.7790 C   0  0  0  0  0  0  0  0  0  0  0  0
   45.3410   34.3340   45.8240 N   0  0  0  0  0  0  0  0  0  0  0  0
   44.4710   35.3590   45.7270 C   0  0  0  0  0  0  0  0  0  0  0  0
   44.3460   36.0330   44.5750 N   0  0  0  0  0  0  0  0  0  0  0  0
   46.7330   34.3530   42.3890 N   0  0  0  0  0  0  0  0  0  0  0  0
   47.9290   35.0830   42.0070 C   0  0  0  0  0  0  0  0  0  0  0  0
   48.5280   34.4710   40.7740 C   0  0  0  0  0  0  0  0  0  0  0  0
   47.5830   34.2970   39.7080 N   0  0  0  0  0  0  0  0  0  0  0  0
   46.3560   33.6620   40.0750 C   0  0  0  0  0  0  0  0  0  0  0  0
   46.2450   33.2870   41.5190 C   0  0  0  0  0  0  0  0  0  0  0  0
   47.0230   32.9070   44.8140 O   0  0  0  0  0  0  0  0  0  0  0  0
   45.5090   30.7390   44.5530 O   0  0  0  0  0  0  0  0  0  0  0  0
   46.5300   31.3880   45.4880 P   0  0  1  0  0  0  0  0  0  0  0  0
   47.8880   30.4480   45.6840 O   0  0  0  0  0  0  0  0  0  0  0  0
   45.7630   31.7420   46.9470 O   0  0  0  0  0  0  0  0  0  0  0  0
   46.6470   31.9000   47.9920 C   0  0  0  0  0  0  0  0  0  0  0  0
   47.7120   32.7250   47.6910 F   0  0  0  0  0  0  0  0  0  0  0  0
   47.1210   30.7340   48.5250 F   0  0  0  0  0  0  0  0  0  0  0  0
   45.9120   32.5270   49.0080 F   0  0  0  0  0  0  0  0  0  0  0  0
   44.9673   36.2653   42.5556 H   0  0  0  0  0  0  0  0  0  0  0  0
   43.8609   35.6436   46.5969 H   0  0  0  0  0  0  0  0  0  0  0  0
   47.6670   36.1318   41.8034 H   0  0  0  0  0  0  0  0  0  0  0  0
   48.6603   35.0354   42.8273 H   0  0  0  0  0  0  0  0  0  0  0  0
   49.3383   35.1246   40.4186 H   0  0  0  0  0  0  0  0  0  0  0  0
   48.8924   33.4710   41.0517 H   0  0  0  0  0  0  0  0  0  0  0  0
   48.0302   33.7259   38.9767 H   0  0  0  0  0  0  0  0  0  0  0  0
   45.5313   34.3498   39.8368 H   0  0  0  0  0  0  0  0  0  0  0  0
   46.3164   32.7197   39.5089 H   0  0  0  0  0  0  0  0  0  0  0  0
   45.1896   33.0875   41.7561 H   0  0  0  0  0  0  0  0  0  0  0  0
   46.8616   32.3925   41.6910 H   0  0  0  0  0  0  0  0  0  0  0  0
   48.0670   30.3241   46.6498 H   0  0  0  0  0  0  0  0  0  0  0  0
  1  2  2  0
  1  6  1  0
  2  3  1  0
  3 13  1  0
  3  4  2  0
  5  4  1  0
  6  5  2  0
  7  2  1  0
  8  7  1  0
  9  8  1  0
 10 11  1  0
 10  9  1  0
 11 12  1  0
 12  7  1  0
 13 15  1  0
 15 14  2  0
 15 16  1  0
 15 17  1  0
 17 18  1  0
 18 20  1  0
 18 21  1  0
 19 18  1  0
  1 22  1  0
  5 23  1  0
  8 24  1  0
  8 25  1  0
  9 26  1  0
  9 27  1  0
 10 28  1  0
 11 29  1  0
 11 30  1  0
 12 31  1  0
 12 32  1  0
 16 33  1  0
M  ISO  8  22  14  23  14  24  13  25  13  26  13  27  13  28   5  29  13
M  ISO  4  30  13  31  13  32  13  33   3
M  END
>  <minimizedAffinity>  (1) 
-5.03641939

>  <minimizedRMSD>  (1) 
1.37995696

$$$$
