
     RDKit          3D

 46 49  0  0  0  0  0  0  0  0999 V2000
   45.8980   35.2450   42.9300 C   0  0  0  0  0  0  0  0  0  0  0  0
   46.6830   34.2610   43.5910 C   0  0  0  0  0  0  0  0  0  0  0  0
   46.3340   33.9000   44.8900 C   0  0  0  0  0  0  0  0  0  0  0  0
   45.2630   34.5040   45.4610 N   0  0  0  0  0  0  0  0  0  0  0  0
   44.5270   35.4370   44.8200 C   0  0  0  0  0  0  0  0  0  0  0  0
   44.8450   35.8010   43.5670 N   0  0  0  0  0  0  0  0  0  0  0  0
   47.7640   33.7350   42.8470 N   0  0  0  0  0  0  0  0  0  0  0  0
   49.0990   34.3320   42.8550 C   0  0  0  0  0  0  0  0  0  0  0  0
   50.0350   33.4670   42.0600 C   0  0  0  0  0  0  0  0  0  0  0  0
   49.5590   33.1410   40.7540 N   0  0  0  0  0  0  0  0  0  0  0  0
   48.2150   32.6330   40.7130 C   0  0  0  0  0  0  0  0  0  0  0  0
   47.5320   32.5490   42.0390 C   0  0  0  0  0  0  0  0  0  0  0  0
   47.1140   32.9500   45.4950 O   0  0  0  0  0  0  0  0  0  0  0  0
   45.4110   31.0350   44.7680 O   0  0  0  0  0  0  0  0  0  0  0  0
   46.4220   31.4070   45.8600 P   0  0  1  0  0  0  0  0  0  0  0  0
   47.6570   30.2910   45.9830 O   0  0  0  0  0  0  0  0  0  0  0  0
   46.2350   28.2670   46.1230 C   0  0  0  0  0  0  0  0  0  0  0  0
   47.3490   29.0060   46.4680 C   0  0  0  0  0  0  0  0  0  0  0  0
   48.3050   28.5250   47.3630 C   0  0  0  0  0  0  0  0  0  0  0  0
   48.0920   27.2700   47.8950 C   0  0  0  0  0  0  0  0  0  0  0  0
   48.7970   26.5200   48.7680 N   0  0  0  0  0  0  0  0  0  0  0  0
   48.1970   25.3320   49.0060 C   0  0  0  0  0  0  0  0  0  0  0  0
   47.0930   25.3430   48.2640 N   0  0  0  0  0  0  0  0  0  0  0  0
   46.9770   26.4900   47.5710 C   0  0  0  0  0  0  0  0  0  0  0  0
   46.0620   27.0170   46.6780 C   0  0  0  0  0  0  0  0  0  0  0  0
   45.5760   31.5900   47.3020 O   0  0  0  0  0  0  0  0  0  0  0  0
   46.4000   31.8370   48.3750 C   0  0  0  0  0  0  0  0  0  0  0  0
   47.6130   32.4110   48.0230 F   0  0  0  0  0  0  0  0  0  0  0  0
   46.6250   30.7690   49.1980 F   0  0  0  0  0  0  0  0  0  0  0  0
   45.7170   32.7850   49.1550 F   0  0  0  0  0  0  0  0  0  0  0  0
   46.1474   35.5522   41.9037 H   0  0  0  0  0  0  0  0  0  0  0  0
   43.6659   35.8995   45.3247 H   0  0  0  0  0  0  0  0  0  0  0  0
   49.0554   35.3353   42.4061 H   0  0  0  0  0  0  0  0  0  0  0  0
   49.4608   34.4111   43.8908 H   0  0  0  0  0  0  0  0  0  0  0  0
   50.9925   33.9984   41.9561 H   0  0  0  0  0  0  0  0  0  0  0  0
   50.1333   32.5183   42.6081 H   0  0  0  0  0  0  0  0  0  0  0  0
   49.5974   33.9932   40.1767 H   0  0  0  0  0  0  0  0  0  0  0  0
   47.6204   33.2926   40.0639 H   0  0  0  0  0  0  0  0  0  0  0  0
   48.2872   31.6014   40.3380 H   0  0  0  0  0  0  0  0  0  0  0  0
   46.4501   32.4372   41.8748 H   0  0  0  0  0  0  0  0  0  0  0  0
   47.9439   31.6838   42.5792 H   0  0  0  0  0  0  0  0  0  0  0  0
   45.4958   28.6700   45.4151 H   0  0  0  0  0  0  0  0  0  0  0  0
   49.1898   29.1203   47.6327 H   0  0  0  0  0  0  0  0  0  0  0  0
   49.6837   26.8165   49.2001 H   0  0  0  0  0  0  0  0  0  0  0  0
   48.5468   24.5285   49.6708 H   0  0  0  0  0  0  0  0  0  0  0  0
   45.1760   26.4253   46.4043 H   0  0  0  0  0  0  0  0  0  0  0  0
  1  6  2  0
  1  2  1  0
  2  3  2  0
  3  4  1  0
  3 13  1  0
  5  4  2  0
  6  5  1  0
  7  8  1  0
  7  2  1  0
  9  8  1  0
 10  9  1  0
 11 10  1  0
 11 12  1  0
 12  7  1  0
 13 15  1  0
 15 14  2  0
 15 16  1  0
 15 26  1  0
 16 18  1  0
 17 18  2  0
 17 25  1  0
 18 19  1  0
 19 20  2  0
 20 21  1  0
 21 22  1  0
 23 22  2  0
 24 20  1  0
 24 23  1  0
 25 24  2  0
 26 27  1  0
 27 30  1  0
 27 29  1  0
 28 27  1  0
  1 31  1  0
  5 32  1  0
  8 33  1  0
  8 34  1  0
  9 35  1  0
  9 36  1  0
 10 37  1  0
 11 38  1  0
 11 39  1  0
 12 40  1  0
 12 41  1  0
 17 42  1  0
 19 43  1  0
 21 44  1  0
 22 45  1  0
 25 46  1  0
M  ISO  8  31  14  32  14  33  13  34  13  35  13  36  13  37   5  38  13
M  ISO  8  39  13  40  13  41  13  42  14  43  14  44   9  45  14  46  14
M  END
>  <minimizedAffinity>  (1) 
-5.71886873

>  <minimizedRMSD>  (1) 
2.19616175

$$$$
