
     RDKit          3D

 43 45  0  0  0  0  0  0  0  0999 V2000
   45.7650   35.2500   43.1290 C   0  0  0  0  0  0  0  0  0  0  0  0
   46.5960   34.2350   43.6820 C   0  0  0  0  0  0  0  0  0  0  0  0
   46.3400   33.8120   44.9800 C   0  0  0  0  0  0  0  0  0  0  0  0
   45.3150   34.3790   45.6610 N   0  0  0  0  0  0  0  0  0  0  0  0
   44.5410   35.3360   45.1240 C   0  0  0  0  0  0  0  0  0  0  0  0
   44.7650   35.7680   43.8670 N   0  0  0  0  0  0  0  0  0  0  0  0
   47.6240   33.7500   42.8310 N   0  0  0  0  0  0  0  0  0  0  0  0
   48.9720   34.2840   42.8390 C   0  0  0  0  0  0  0  0  0  0  0  0
   49.8550   33.4740   41.9320 C   0  0  0  0  0  0  0  0  0  0  0  0
   49.3000   33.3220   40.6180 N   0  0  0  0  0  0  0  0  0  0  0  0
   47.9380   32.8750   40.5710 C   0  0  0  0  0  0  0  0  0  0  0  0
   47.3080   32.6730   41.9130 C   0  0  0  0  0  0  0  0  0  0  0  0
   47.1710   32.8250   45.4740 O   0  0  0  0  0  0  0  0  0  0  0  0
   45.4640   30.8760   44.9230 O   0  0  0  0  0  0  0  0  0  0  0  0
   46.4910   31.3170   45.9730 P   0  0  1  0  0  0  0  0  0  0  0  0
   47.7150   30.2310   46.1890 O   0  0  0  0  0  0  0  0  0  0  0  0
   50.1880   29.5110   47.7710 Cl  0  0  0  0  0  0  0  0  0  0  0  0
   48.7740   28.5180   47.4780 C   0  0  0  0  0  0  0  0  0  0  0  0
   47.7090   28.9780   46.7310 C   0  0  0  0  0  0  0  0  0  0  0  0
   46.6760   28.0750   46.5950 C   0  0  0  0  0  0  0  0  0  0  0  0
   46.6470   26.8040   47.1320 C   0  0  0  0  0  0  0  0  0  0  0  0
   47.7250   26.3740   47.8730 C   0  0  0  0  0  0  0  0  0  0  0  0
   48.7820   27.2550   48.0320 C   0  0  0  0  0  0  0  0  0  0  0  0
   45.6410   31.6360   47.4040 O   0  0  0  0  0  0  0  0  0  0  0  0
   46.4840   31.9010   48.4700 C   0  0  0  0  0  0  0  0  0  0  0  0
   47.6060   32.6260   48.1230 F   0  0  0  0  0  0  0  0  0  0  0  0
   46.8730   30.8020   49.1810 F   0  0  0  0  0  0  0  0  0  0  0  0
   45.7260   32.6850   49.3500 F   0  0  0  0  0  0  0  0  0  0  0  0
   45.9390   35.6093   42.1040 H   0  0  0  0  0  0  0  0  0  0  0  0
   43.7196   35.7698   45.7132 H   0  0  0  0  0  0  0  0  0  0  0  0
   48.9520   35.3271   42.4904 H   0  0  0  0  0  0  0  0  0  0  0  0
   49.3706   34.2387   43.8632 H   0  0  0  0  0  0  0  0  0  0  0  0
   50.8297   33.9767   41.8473 H   0  0  0  0  0  0  0  0  0  0  0  0
   49.9546   32.4704   42.3711 H   0  0  0  0  0  0  0  0  0  0  0  0
   49.3508   34.2353   40.1445 H   0  0  0  0  0  0  0  0  0  0  0  0
   47.3483   33.6249   40.0233 H   0  0  0  0  0  0  0  0  0  0  0  0
   47.9466   31.8924   40.0767 H   0  0  0  0  0  0  0  0  0  0  0  0
   46.2163   32.6219   41.7884 H   0  0  0  0  0  0  0  0  0  0  0  0
   47.7052   31.7389   42.3368 H   0  0  0  0  0  0  0  0  0  0  0  0
   45.8015   28.3945   46.0092 H   0  0  0  0  0  0  0  0  0  0  0  0
   45.7794   26.1471   46.9712 H   0  0  0  0  0  0  0  0  0  0  0  0
   47.7460   25.3697   48.3213 H   0  0  0  0  0  0  0  0  0  0  0  0
   49.6561   26.9370   48.6192 H   0  0  0  0  0  0  0  0  0  0  0  0
  1  2  2  0
  1  6  1  0
  2  3  1  0
  3 13  1  0
  3  4  2  0
  5  4  1  0
  6  5  2  0
  7  8  1  0
  7  2  1  0
  9  8  1  0
 10  9  1  0
 11 10  1  0
 11 12  1  0
 12  7  1  0
 13 15  1  0
 15 14  2  0
 15 16  1  0
 15 24  1  0
 16 19  1  0
 18 17  1  0
 18 23  2  0
 19 18  1  0
 20 19  2  0
 20 21  1  0
 21 22  2  0
 22 23  1  0
 24 25  1  0
 25 27  1  0
 25 28  1  0
 26 25  1  0
  1 29  1  0
  5 30  1  0
  8 31  1  0
  8 32  1  0
  9 33  1  0
  9 34  1  0
 10 35  1  0
 11 36  1  0
 11 37  1  0
 12 38  1  0
 12 39  1  0
 20 40  1  0
 21 41  1  0
 22 42  1  0
 23 43  1  0
M  ISO  8  29  14  30  14  31  13  32  13  33  13  34  13  35   5  36  13
M  ISO  7  37  13  38  13  39  13  40  14  41  14  42  14  43  14
M  END
>  <minimizedAffinity>  (1) 
-5.39889622

>  <minimizedRMSD>  (1) 
1.32006359

$$$$
