
     RDKit          3D

 46 48  0  0  1  0  0  0  0  0999 V2000
   45.0700   35.6990   43.5120 C   0  0  0  0  0  0  0  0  0  0  0  0
   45.9990   34.6250   43.5920 C   0  0  0  0  0  0  0  0  0  0  0  0
   46.1070   33.9520   44.7980 C   0  0  0  0  0  0  0  0  0  0  0  0
   45.3300   34.3380   45.8470 N   0  0  0  0  0  0  0  0  0  0  0  0
   44.4590   35.3600   45.7370 C   0  0  0  0  0  0  0  0  0  0  0  0
   44.3280   36.0320   44.5890 N   0  0  0  0  0  0  0  0  0  0  0  0
   46.7310   34.3520   42.4050 N   0  0  0  0  0  0  0  0  0  0  0  0
   47.9280   35.0700   42.0260 C   0  0  0  0  0  0  0  0  0  0  0  0
   48.5310   34.4460   40.8010 C   0  0  0  0  0  0  0  0  0  0  0  0
   47.5840   34.2850   39.7270 N   0  0  0  0  0  0  0  0  0  0  0  0
   46.3540   33.6600   40.0900 C   0  0  0  0  0  0  0  0  0  0  0  0
   46.2380   33.2850   41.5320 C   0  0  0  0  0  0  0  0  0  0  0  0
   47.0190   32.9160   44.8360 O   0  0  0  0  0  0  0  0  0  0  0  0
   45.5970   30.6710   44.7010 O   0  0  0  0  0  0  0  0  0  0  0  0
   46.5660   31.4280   45.6060 P   0  0  1  0  0  0  0  0  0  0  0  0
   47.9320   30.5560   45.9210 O   0  0  0  0  0  0  0  0  0  0  0  0
   49.2410   28.7900   45.1630 C   0  0  2  0  0  0  0  0  0  0  0  0
   47.8240   29.2550   45.4890 C   0  0  1  0  0  0  0  0  0  0  0  0
   47.5570   28.4660   46.6050 O   0  0  0  0  0  0  0  0  0  0  0  0
   48.6810   28.5280   47.4150 C   0  0  0  0  0  0  0  0  0  0  0  0
   49.8460   28.9350   46.5460 C   0  0  1  0  0  0  0  0  0  0  0  0
   49.8440   29.6180   44.2220 O   0  0  0  0  0  0  0  0  0  0  0  0
   50.9680   28.1360   46.7090 O   0  0  0  0  0  0  0  0  0  0  0  0
   45.7380   31.8590   47.0200 O   0  0  0  0  0  0  0  0  0  0  0  0
   46.5840   32.0420   48.1000 C   0  0  0  0  0  0  0  0  0  0  0  0
   47.6840   32.8010   47.7920 F   0  0  0  0  0  0  0  0  0  0  0  0
   46.9730   30.8940   48.7220 F   0  0  0  0  0  0  0  0  0  0  0  0
   45.8360   32.7650   49.0390 F   0  0  0  0  0  0  0  0  0  0  0  0
   44.9562   36.2585   42.5718 H   0  0  0  0  0  0  0  0  0  0  0  0
   43.8465   35.6457   46.6049 H   0  0  0  0  0  0  0  0  0  0  0  0
   47.6725   36.1186   41.8132 H   0  0  0  0  0  0  0  0  0  0  0  0
   48.6543   35.0246   42.8508 H   0  0  0  0  0  0  0  0  0  0  0  0
   49.3535   35.0865   40.4500 H   0  0  0  0  0  0  0  0  0  0  0  0
   48.8833   33.4426   41.0823 H   0  0  0  0  0  0  0  0  0  0  0  0
   48.0277   33.7133   38.9940 H   0  0  0  0  0  0  0  0  0  0  0  0
   45.5349   34.3541   39.8509 H   0  0  0  0  0  0  0  0  0  0  0  0
   46.3081   32.7187   39.5227 H   0  0  0  0  0  0  0  0  0  0  0  0
   45.1811   33.0906   41.7669 H   0  0  0  0  0  0  0  0  0  0  0  0
   46.8492   32.3870   41.7054 H   0  0  0  0  0  0  0  0  0  0  0  0
   49.3371   27.7911   44.7125 H   0  0  0  0  0  0  0  0  0  0  0  0
   47.0879   29.1873   44.6744 H   0  0  0  0  0  0  0  0  0  0  0  0
   48.5291   29.2713   48.2115 H   0  0  0  0  0  0  0  0  0  0  0  0
   48.8723   27.5529   47.8867 H   0  0  0  0  0  0  0  0  0  0  0  0
   50.2318   29.9384   46.7791 H   0  0  0  0  0  0  0  0  0  0  0  0
   50.3588   30.3249   44.6861 H   0  0  0  0  0  0  0  0  0  0  0  0
   51.1456   28.0095   47.6747 H   0  0  0  0  0  0  0  0  0  0  0  0
  1  2  2  0
  1  6  1  0
  2  3  1  0
  3 13  1  0
  3  4  2  0
  5  4  1  0
  6  5  2  0
  7  2  1  0
  8  7  1  0
  9  8  1  0
 10 11  1  0
 10  9  1  0
 11 12  1  0
 12  7  1  0
 13 15  1  0
 15 14  2  0
 15 16  1  0
 15 24  1  0
 17 22  1  0
 17 18  1  0
 17 21  1  0
 18 16  1  0
 18 19  1  0
 19 20  1  0
 21 23  1  0
 21 20  1  0
 24 25  1  0
 25 27  1  0
 25 28  1  0
 26 25  1  0
  1 29  1  0
  5 30  1  0
  8 31  1  0
  8 32  1  0
  9 33  1  0
  9 34  1  0
 10 35  1  0
 11 36  1  0
 11 37  1  0
 12 38  1  0
 12 39  1  0
 17 40  1  6
 18 41  1  6
 20 42  1  0
 20 43  1  0
 21 44  1  1
 22 45  1  0
 23 46  1  0
M  ISO  8  29  14  30  14  31  13  32  13  33  13  34  13  35   5  36  13
M  ISO  8  37  13  38  13  39  13  40  13  41  13  42  13  43  13  44  13
M  ISO  2  45   3  46   3
M  END
>  <minimizedAffinity>  (1) 
-5.19903851

>  <minimizedRMSD>  (1) 
0.607762992

$$$$
