
     RDKit          3D

 42 44  0  0  0  0  0  0  0  0999 V2000
   45.0440   35.6710   43.5270 C   0  0  0  0  0  0  0  0  0  0  0  0
   45.9880   34.6100   43.6130 C   0  0  0  0  0  0  0  0  0  0  0  0
   46.1090   33.9460   44.8270 C   0  0  0  0  0  0  0  0  0  0  0  0
   45.3310   34.3290   45.8730 N   0  0  0  0  0  0  0  0  0  0  0  0
   44.4430   35.3370   45.7680 C   0  0  0  0  0  0  0  0  0  0  0  0
   44.3040   35.9970   44.6090 N   0  0  0  0  0  0  0  0  0  0  0  0
   46.7150   34.3430   42.4310 N   0  0  0  0  0  0  0  0  0  0  0  0
   47.9160   35.0630   42.0550 C   0  0  0  0  0  0  0  0  0  0  0  0
   48.5180   34.4580   40.8190 C   0  0  0  0  0  0  0  0  0  0  0  0
   47.5790   34.2920   39.7480 N   0  0  0  0  0  0  0  0  0  0  0  0
   46.3410   33.6720   40.1060 C   0  0  0  0  0  0  0  0  0  0  0  0
   46.2160   33.2800   41.5480 C   0  0  0  0  0  0  0  0  0  0  0  0
   47.0370   32.9230   44.8680 O   0  0  0  0  0  0  0  0  0  0  0  0
   45.5450   30.7580   44.4840 O   0  0  0  0  0  0  0  0  0  0  0  0
   46.5430   31.3660   45.4700 P   0  0  1  0  0  0  0  0  0  0  0  0
   47.9040   30.4480   45.6600 O   0  0  0  0  0  0  0  0  0  0  0  0
   47.8570   29.2240   46.3130 C   0  0  0  0  0  0  0  0  0  0  0  0
   46.8340   28.3020   46.4030 C   0  0  0  0  0  0  0  0  0  0  0  0
   47.0280   27.1470   47.1160 C   0  0  0  0  0  0  0  0  0  0  0  0
   48.2020   26.8420   47.7640 C   0  0  0  0  0  0  0  0  0  0  0  0
   49.1910   27.7970   47.6420 C   0  0  0  0  0  0  0  0  0  0  0  0
   49.0320   28.9480   46.9450 N   0  0  0  0  0  0  0  0  0  0  0  0
   45.7300   31.6690   46.9240 O   0  0  0  0  0  0  0  0  0  0  0  0
   46.6000   31.9490   47.9660 C   0  0  0  0  0  0  0  0  0  0  0  0
   47.7150   32.6660   47.5760 F   0  0  0  0  0  0  0  0  0  0  0  0
   47.0000   30.8490   48.6840 F   0  0  0  0  0  0  0  0  0  0  0  0
   45.8650   32.7540   48.8450 F   0  0  0  0  0  0  0  0  0  0  0  0
   44.9174   36.2231   42.5840 H   0  0  0  0  0  0  0  0  0  0  0  0
   43.8297   35.6196   46.6364 H   0  0  0  0  0  0  0  0  0  0  0  0
   47.6623   36.1151   41.8580 H   0  0  0  0  0  0  0  0  0  0  0  0
   48.6444   34.9999   42.8768 H   0  0  0  0  0  0  0  0  0  0  0  0
   49.3307   35.1127   40.4712 H   0  0  0  0  0  0  0  0  0  0  0  0
   48.8781   33.4551   41.0920 H   0  0  0  0  0  0  0  0  0  0  0  0
   48.0251   33.7140   39.0215 H   0  0  0  0  0  0  0  0  0  0  0  0
   45.5283   34.3757   39.8731 H   0  0  0  0  0  0  0  0  0  0  0  0
   46.2909   32.7361   39.5301 H   0  0  0  0  0  0  0  0  0  0  0  0
   45.1573   33.0896   41.7779 H   0  0  0  0  0  0  0  0  0  0  0  0
   46.8176   32.3747   41.7170 H   0  0  0  0  0  0  0  0  0  0  0  0
   45.8709   28.4922   45.9068 H   0  0  0  0  0  0  0  0  0  0  0  0
   46.1998   26.4253   47.1728 H   0  0  0  0  0  0  0  0  0  0  0  0
   48.3417   25.9115   48.3339 H   0  0  0  0  0  0  0  0  0  0  0  0
   50.1570   27.6145   48.1355 H   0  0  0  0  0  0  0  0  0  0  0  0
  1  2  2  0
  1  6  1  0
  2  3  1  0
  3 13  1  0
  3  4  2  0
  5  4  1  0
  6  5  2  0
  7  2  1  0
  8  7  1  0
  9  8  1  0
 10 11  1  0
 10  9  1  0
 11 12  1  0
 12  7  1  0
 13 15  1  0
 15 14  2  0
 15 16  1  0
 15 23  1  0
 16 17  1  0
 17 18  2  0
 17 22  1  0
 18 19  1  0
 19 20  2  0
 21 20  1  0
 22 21  2  0
 23 24  1  0
 24 26  1  0
 24 27  1  0
 25 24  1  0
  1 28  1  0
  5 29  1  0
  8 30  1  0
  8 31  1  0
  9 32  1  0
  9 33  1  0
 10 34  1  0
 11 35  1  0
 11 36  1  0
 12 37  1  0
 12 38  1  0
 18 39  1  0
 19 40  1  0
 20 41  1  0
 21 42  1  0
M  ISO  8  28  14  29  14  30  13  31  13  32  13  33  13  34   5  35  13
M  ISO  7  36  13  37  13  38  13  39  14  40  14  41  14  42  14
M  END
>  <minimizedAffinity>  (1) 
-5.12027884

>  <minimizedRMSD>  (1) 
0.478707522

$$$$
