
     RDKit          3D

 40 42  0  0  0  0  0  0  0  0999 V2000
   45.1000   35.7270   43.4830 C   0  0  0  0  0  0  0  0  0  0  0  0
   46.0050   34.6350   43.5630 C   0  0  0  0  0  0  0  0  0  0  0  0
   46.0980   33.9500   44.7630 C   0  0  0  0  0  0  0  0  0  0  0  0
   45.3290   34.3460   45.8040 N   0  0  0  0  0  0  0  0  0  0  0  0
   44.4710   35.3890   45.7120 C   0  0  0  0  0  0  0  0  0  0  0  0
   44.3640   36.0660   44.5620 N   0  0  0  0  0  0  0  0  0  0  0  0
   46.7310   34.3580   42.3810 N   0  0  0  0  0  0  0  0  0  0  0  0
   47.9260   35.0860   41.9940 C   0  0  0  0  0  0  0  0  0  0  0  0
   48.5310   34.4700   40.7680 C   0  0  0  0  0  0  0  0  0  0  0  0
   47.5860   34.2850   39.6970 N   0  0  0  0  0  0  0  0  0  0  0  0
   46.3640   33.6580   40.0660 C   0  0  0  0  0  0  0  0  0  0  0  0
   46.2460   33.2880   41.5170 C   0  0  0  0  0  0  0  0  0  0  0  0
   46.9900   32.8960   44.7970 O   0  0  0  0  0  0  0  0  0  0  0  0
   45.4150   30.7810   44.5010 O   0  0  0  0  0  0  0  0  0  0  0  0
   46.4610   31.3670   45.4440 P   0  0  1  0  0  0  0  0  0  0  0  0
   47.7870   30.3980   45.5970 O   0  0  0  0  0  0  0  0  0  0  0  0
   48.6950   30.0720   44.5800 C   0  0  0  0  0  0  0  0  0  0  0  0
   48.8910   30.2590   43.2170 C   0  0  0  0  0  0  0  0  0  0  0  0
   50.0690   29.6110   42.8940 C   0  0  0  0  0  0  0  0  0  0  0  0
   50.5270   29.0620   44.0780 C   0  0  0  0  0  0  0  0  0  0  0  0
   49.7120   29.3450   45.0380 O   0  0  0  0  0  0  0  0  0  0  0  0
   45.7370   31.7260   46.9190 O   0  0  0  0  0  0  0  0  0  0  0  0
   46.6350   31.8530   47.9460 C   0  0  0  0  0  0  0  0  0  0  0  0
   47.7040   32.6780   47.6340 F   0  0  0  0  0  0  0  0  0  0  0  0
   47.1030   30.6830   48.4700 F   0  0  0  0  0  0  0  0  0  0  0  0
   45.9180   32.4790   48.9820 F   0  0  0  0  0  0  0  0  0  0  0  0
   44.9996   36.2938   42.5456 H   0  0  0  0  0  0  0  0  0  0  0  0
   43.8625   35.6799   46.5810 H   0  0  0  0  0  0  0  0  0  0  0  0
   47.6618   36.1327   41.7826 H   0  0  0  0  0  0  0  0  0  0  0  0
   48.6557   35.0426   42.8160 H   0  0  0  0  0  0  0  0  0  0  0  0
   49.3394   35.1250   40.4109 H   0  0  0  0  0  0  0  0  0  0  0  0
   48.8997   33.4734   41.0525 H   0  0  0  0  0  0  0  0  0  0  0  0
   48.0349   33.7058   38.9731 H   0  0  0  0  0  0  0  0  0  0  0  0
   45.5415   34.3467   39.8227 H   0  0  0  0  0  0  0  0  0  0  0  0
   46.3260   32.7118   39.5063 H   0  0  0  0  0  0  0  0  0  0  0  0
   45.1895   33.0904   41.7510 H   0  0  0  0  0  0  0  0  0  0  0  0
   46.8601   32.3932   41.6967 H   0  0  0  0  0  0  0  0  0  0  0  0
   48.2365   30.8143   42.5291 H   0  0  0  0  0  0  0  0  0  0  0  0
   50.5425   29.5458   41.9033 H   0  0  0  0  0  0  0  0  0  0  0  0
   51.4490   28.4718   44.1855 H   0  0  0  0  0  0  0  0  0  0  0  0
  1  2  2  0
  1  6  1  0
  2  3  1  0
  3 13  1  0
  3  4  2  0
  5  4  1  0
  6  5  2  0
  7  2  1  0
  8  7  1  0
  9  8  1  0
 10 11  1  0
 10  9  1  0
 11 12  1  0
 12  7  1  0
 13 15  1  0
 15 14  2  0
 15 16  1  0
 15 22  1  0
 17 21  1  0
 17 16  1  0
 18 17  2  0
 19 18  1  0
 19 20  2  0
 20 21  1  0
 22 23  1  0
 23 25  1  0
 23 26  1  0
 24 23  1  0
  1 27  1  0
  5 28  1  0
  8 29  1  0
  8 30  1  0
  9 31  1  0
  9 32  1  0
 10 33  1  0
 11 34  1  0
 11 35  1  0
 12 36  1  0
 12 37  1  0
 18 38  1  0
 19 39  1  0
 20 40  1  0
M  ISO  8  27  14  28  14  29  13  30  13  31  13  32  13  33   5  34  13
M  ISO  6  35  13  36  13  37  13  38  14  39  14  40  14
M  END
>  <minimizedAffinity>  (1) 
-4.98163939

>  <minimizedRMSD>  (1) 
0.540326536

$$$$
