
     RDKit          3D

 31 33  0  0  1  0  0  0  0  0999 V2000
   46.0700   33.4960   40.3050 C   0  0  0  0  0  0  0  0  0  0  0  0
   46.5550   33.2940   41.6380 C   0  0  0  0  0  0  0  0  0  0  0  0
   45.6750   33.4630   42.6920 C   0  0  0  0  0  0  0  0  0  0  0  0
   44.3870   33.8140   42.4060 N   0  0  0  0  0  0  0  0  0  0  0  0
   43.9610   33.9960   41.1600 C   0  0  0  0  0  0  0  0  0  0  0  0
   44.7920   33.8380   40.1120 N   0  0  0  0  0  0  0  0  0  0  0  0
   41.6970   33.4460   40.3560 C   0  0  0  0  0  0  0  0  0  0  0  0
   42.5620   34.3750   40.9010 C   0  0  0  0  0  0  0  0  0  0  0  0
   42.1060   35.6450   41.1970 C   0  0  0  0  0  0  0  0  0  0  0  0
   40.7890   36.0160   40.9580 C   0  0  0  0  0  0  0  0  0  0  0  0
   39.9400   35.0740   40.4140 C   0  0  0  0  0  0  0  0  0  0  0  0
   40.3770   33.7860   40.1060 C   0  0  0  0  0  0  0  0  0  0  0  0
   42.4780   31.0220   39.7880 N   0  0  0  0  0  0  0  0  0  0  0  0
   42.1360   32.1010   40.0310 C   0  0  0  0  0  0  0  0  0  0  0  0
   47.9880   32.9300   41.8810 C   0  0  1  0  0  0  0  0  0  0  0  0
   48.9530   32.9600   40.8040 C   0  0  0  0  0  0  0  0  0  0  0  0
   49.0230   34.0490   41.8080 C   0  0  1  0  0  0  0  0  0  0  0  0
   48.6100   35.4390   41.4870 C   0  0  0  0  0  0  0  0  0  0  0  0
   49.5890   36.3640   41.8110 F   0  0  0  0  0  0  0  0  0  0  0  0
   47.4360   35.8040   42.1230 F   0  0  0  0  0  0  0  0  0  0  0  0
   48.4180   35.5220   40.1250 F   0  0  0  0  0  0  0  0  0  0  0  0
   46.7450   33.3705   39.4456 H   0  0  0  0  0  0  0  0  0  0  0  0
   46.0039   33.3186   43.7317 H   0  0  0  0  0  0  0  0  0  0  0  0
   42.8011   36.3785   41.6315 H   0  0  0  0  0  0  0  0  0  0  0  0
   40.4337   37.0297   41.1951 H   0  0  0  0  0  0  0  0  0  0  0  0
   38.8922   35.3458   40.2184 H   0  0  0  0  0  0  0  0  0  0  0  0
   39.6841   33.0507   39.6710 H   0  0  0  0  0  0  0  0  0  0  0  0
   47.6896   32.1653   42.6132 H   0  0  0  0  0  0  0  0  0  0  0  0
   48.6171   33.1863   39.7813 H   0  0  0  0  0  0  0  0  0  0  0  0
   49.6831   32.2346   40.4158 H   0  0  0  0  0  0  0  0  0  0  0  0
   49.8027   34.4621   42.4648 H   0  0  0  0  0  0  0  0  0  0  0  0
  1  2  2  0
  2 15  1  0
  2  3  1  0
  4  3  2  0
  5  4  1  0
  6  1  1  0
  6  5  2  0
  7  8  2  0
  8  5  1  0
  8  9  1  0
 10  9  2  0
 11 10  1  0
 12  7  1  0
 12 11  2  0
 13 14  3  0
 14  7  1  0
 16 17  1  0
 16 15  1  0
 17 15  1  0
 18 17  1  0
 18 19  1  0
 18 20  1  0
 21 18  1  0
  1 22  1  0
  3 23  1  0
  9 24  1  0
 10 25  1  0
 11 26  1  0
 12 27  1  0
 15 28  1  1
 16 29  1  0
 16 30  1  0
 17 31  1  1
M  ISO  8  22  14  23  14  24  14  25  14  26  14  27  14  28  13  29  13
M  ISO  2  30  13  31  13
M  END
>  <minimizedAffinity>  (1) 
-5.43657684

>  <minimizedRMSD>  (1) 
5.109828

$$$$
