
     RDKit          3D

 27 29  0  0  1  0  0  0  0  0999 V2000
   45.8150   33.5200   43.2650 C   0  0  0  0  0  0  0  0  0  0  0  0
   46.9140   32.8930   42.5940 C   0  0  0  0  0  0  0  0  0  0  0  0
   47.7870   32.1200   43.3370 C   0  0  0  0  0  0  0  0  0  0  0  0
   47.5570   31.9940   44.6760 N   0  0  0  0  0  0  0  0  0  0  0  0
   46.5280   32.5870   45.2780 C   0  0  0  0  0  0  0  0  0  0  0  0
   45.6720   33.3380   44.5800 N   0  0  0  0  0  0  0  0  0  0  0  0
   46.3340   32.4150   46.7160 C   0  0  0  0  0  0  0  0  0  0  0  0
   47.3340   31.8160   47.4690 C   0  0  0  0  0  0  0  0  0  0  0  0
   46.8890   31.7820   48.7840 C   0  0  0  0  0  0  0  0  0  0  0  0
   45.6360   32.3680   48.7570 C   0  0  0  0  0  0  0  0  0  0  0  0
   45.3410   32.7290   47.5210 O   0  0  0  0  0  0  0  0  0  0  0  0
   47.1340   33.0780   41.1240 C   0  0  1  0  0  0  0  0  0  0  0  0
   46.4690   34.1500   40.4140 C   0  0  0  0  0  0  0  0  0  0  0  0
   47.9230   34.3010   40.6710 C   0  0  1  0  0  0  0  0  0  0  0  0
   48.4350   35.2820   41.6640 C   0  0  0  0  0  0  0  0  0  0  0  0
   49.1640   36.2960   41.0740 F   0  0  0  0  0  0  0  0  0  0  0  0
   49.2370   34.6650   42.6350 F   0  0  0  0  0  0  0  0  0  0  0  0
   47.3610   35.8620   42.2880 F   0  0  0  0  0  0  0  0  0  0  0  0
   45.1001   34.1416   42.7059 H   0  0  0  0  0  0  0  0  0  0  0  0
   48.6438   31.6201   42.8615 H   0  0  0  0  0  0  0  0  0  0  0  0
   48.2974   31.4392   47.0948 H   0  0  0  0  0  0  0  0  0  0  0  0
   47.4186   31.3765   49.6587 H   0  0  0  0  0  0  0  0  0  0  0  0
   44.9846   32.5115   49.6317 H   0  0  0  0  0  0  0  0  0  0  0  0
   47.2019   31.9902   40.9755 H   0  0  0  0  0  0  0  0  0  0  0  0
   45.7540   34.7929   40.9482 H   0  0  0  0  0  0  0  0  0  0  0  0
   45.8469   34.1928   39.5078 H   0  0  0  0  0  0  0  0  0  0  0  0
   48.8162   34.4902   40.0575 H   0  0  0  0  0  0  0  0  0  0  0  0
  1  6  2  0
  2  1  1  0
  2  3  2  0
  3  4  1  0
  4  5  2  0
  5  7  1  0
  6  5  1  0
  7  8  2  0
  7 11  1  0
  8  9  1  0
 10  9  2  0
 11 10  1  0
 12  2  1  0
 13 14  1  0
 13 12  1  0
 14 12  1  0
 14 15  1  0
 15 18  1  0
 15 17  1  0
 16 15  1  0
  1 19  1  0
  3 20  1  0
  8 21  1  0
  9 22  1  0
 10 23  1  0
 12 24  1  6
 13 25  1  0
 13 26  1  0
 14 27  1  6
M  ISO  8  19  14  20  14  21  14  22  14  23  14  24  13  25  13  26  13
M  ISO  1  27  13
M  END
>  <minimizedAffinity>  (1) 
-5.1228323

>  <minimizedRMSD>  (1) 
1.64860427

$$$$
