
     RDKit          3D

 26 28  0  0  1  0  0  0  0  0999 V2000
   46.2380   33.3420   40.8110 C   0  0  0  0  0  0  0  0  0  0  0  0
   46.7700   33.4660   42.1360 C   0  0  0  0  0  0  0  0  0  0  0  0
   45.9160   33.8290   43.1590 C   0  0  0  0  0  0  0  0  0  0  0  0
   44.6050   34.0530   42.8570 N   0  0  0  0  0  0  0  0  0  0  0  0
   44.1330   33.9330   41.6200 C   0  0  0  0  0  0  0  0  0  0  0  0
   44.9430   33.5800   40.6050 N   0  0  0  0  0  0  0  0  0  0  0  0
   48.2250   33.2230   42.4180 C   0  0  1  0  0  0  0  0  0  0  0  0
   49.1690   33.0990   41.3310 C   0  0  0  0  0  0  0  0  0  0  0  0
   49.2000   34.3550   42.1210 C   0  0  1  0  0  0  0  0  0  0  0  0
   48.7180   35.6410   41.5530 C   0  0  0  0  0  0  0  0  0  0  0  0
   49.6490   36.6580   41.7010 F   0  0  0  0  0  0  0  0  0  0  0  0
   47.5190   36.0420   42.1350 F   0  0  0  0  0  0  0  0  0  0  0  0
   48.5280   35.4680   40.2040 F   0  0  0  0  0  0  0  0  0  0  0  0
   42.7530   34.1560   41.2140 C   0  0  0  0  0  0  0  0  0  0  0  0
   41.8760   33.3290   40.3330 C   0  0  0  0  0  0  0  0  0  0  0  0
   40.2940   34.3370   40.3510 S   0  0  0  0  0  0  0  0  0  0  0  0
   41.1090   35.6070   41.4930 C   0  0  0  0  0  0  0  0  0  0  0  0
   42.1660   35.2430   41.6800 N   0  0  0  0  0  0  0  0  0  0  0  0
   46.8909   33.0538   39.9739 H   0  0  0  0  0  0  0  0  0  0  0  0
   46.2836   33.9347   44.1904 H   0  0  0  0  0  0  0  0  0  0  0  0
   47.9765   32.5959   43.2869 H   0  0  0  0  0  0  0  0  0  0  0  0
   48.8065   33.1200   40.2926 H   0  0  0  0  0  0  0  0  0  0  0  0
   49.9275   32.3489   41.0624 H   0  0  0  0  0  0  0  0  0  0  0  0
   49.9639   34.9164   42.6789 H   0  0  0  0  0  0  0  0  0  0  0  0
   42.0975   32.3847   39.8141 H   0  0  0  0  0  0  0  0  0  0  0  0
   40.6471   36.5201   41.8965 H   0  0  0  0  0  0  0  0  0  0  0  0
  1  2  2  0
  2  7  1  0
  2  3  1  0
  4  3  2  0
  5  4  1  0
  6  1  1  0
  6  5  2  0
  8  9  1  0
  8  7  1  0
  9  7  1  0
 10 11  1  0
 10  9  1  0
 10 12  1  0
 13 10  1  0
 14  5  1  0
 14 18  1  0
 15 16  1  0
 15 14  2  0
 16 17  1  0
 17 18  2  0
  1 19  1  0
  3 20  1  0
  7 21  1  1
  8 22  1  0
  8 23  1  0
  9 24  1  1
 15 25  1  0
 17 26  1  0
M  ISO  8  19  14  20  14  21  13  22  13  23  13  24  13  25  14  26  14
M  END
>  <minimizedAffinity>  (1) 
-4.99180555

>  <minimizedRMSD>  (1) 
4.23014879

$$$$
