
     RDKit          3D

 40 43  0  0  1  0  0  0  0  0999 V2000
   46.7570   32.7890   42.2370 C   0  0  0  0  0  0  0  0  0  0  0  0
   48.0230   32.6320   41.5740 C   0  0  0  0  0  0  0  0  0  0  0  0
   48.9750   31.8880   42.2200 C   0  0  0  0  0  0  0  0  0  0  0  0
   48.6970   31.3400   43.4290 N   0  0  0  0  0  0  0  0  0  0  0  0
   47.4910   31.5080   44.0260 C   0  0  0  0  0  0  0  0  0  0  0  0
   46.5340   32.2340   43.4160 N   0  0  0  0  0  0  0  0  0  0  0  0
   48.2910   33.2620   40.2600 C   0  0  1  0  0  0  0  0  0  0  0  0
   47.4280   34.2660   39.7100 C   0  0  0  0  0  0  0  0  0  0  0  0
   48.7150   34.7440   40.2520 C   0  0  1  0  0  0  0  0  0  0  0  0
   48.8390   35.4980   41.5230 C   0  0  0  0  0  0  0  0  0  0  0  0
   49.3800   36.7560   41.3260 F   0  0  0  0  0  0  0  0  0  0  0  0
   49.6210   34.8080   42.4480 F   0  0  0  0  0  0  0  0  0  0  0  0
   47.5730   35.6770   42.0200 F   0  0  0  0  0  0  0  0  0  0  0  0
   47.2730   30.8670   45.3470 C   0  0  2  0  0  0  0  0  0  0  0  0
   46.7020   29.4660   45.2610 C   0  0  0  0  0  0  0  0  0  0  0  0
   45.9000   30.5980   45.8410 C   0  0  1  0  0  0  0  0  0  0  0  0
   45.0580   31.9080   47.8280 C   0  0  1  0  0  0  0  0  0  0  0  0
   45.7170   30.6700   47.3420 C   0  0  2  0  0  0  0  0  0  0  0  0
   46.9210   30.4880   47.9670 O   0  0  0  0  0  0  0  0  0  0  0  0
   47.1870   31.5980   48.7480 C   0  0  0  0  0  0  0  0  0  0  0  0
   45.8660   32.2530   49.0670 C   0  0  2  0  0  0  0  0  0  0  0  0
   45.1650   32.9820   46.9510 O   0  0  0  0  0  0  0  0  0  0  0  0
   45.2900   31.7780   50.2340 O   0  0  0  0  0  0  0  0  0  0  0  0
   45.9628   33.3792   41.7565 H   0  0  0  0  0  0  0  0  0  0  0  0
   49.9622   31.7356   41.7593 H   0  0  0  0  0  0  0  0  0  0  0  0
   48.6826   32.3085   39.8760 H   0  0  0  0  0  0  0  0  0  0  0  0
   46.4950   34.5204   40.2342 H   0  0  0  0  0  0  0  0  0  0  0  0
   46.9312   34.3813   38.7354 H   0  0  0  0  0  0  0  0  0  0  0  0
   49.5464   35.3514   39.8650 H   0  0  0  0  0  0  0  0  0  0  0  0
   48.1366   31.3708   45.8057 H   0  0  0  0  0  0  0  0  0  0  0  0
   46.4297   29.0387   44.2847 H   0  0  0  0  0  0  0  0  0  0  0  0
   47.0145   28.4691   45.6053 H   0  0  0  0  0  0  0  0  0  0  0  0
   44.8937   30.9921   45.6358 H   0  0  0  0  0  0  0  0  0  0  0  0
   43.9809   31.7389   47.9736 H   0  0  0  0  0  0  0  0  0  0  0  0
   45.0238   29.8560   47.6004 H   0  0  0  0  0  0  0  0  0  0  0  0
   47.6890   31.2919   49.6777 H   0  0  0  0  0  0  0  0  0  0  0  0
   47.8486   32.2974   48.2159 H   0  0  0  0  0  0  0  0  0  0  0  0
   45.9435   33.3321   49.2656 H   0  0  0  0  0  0  0  0  0  0  0  0
   45.2487   33.8226   47.4673 H   0  0  0  0  0  0  0  0  0  0  0  0
   45.7594   32.1651   51.0150 H   0  0  0  0  0  0  0  0  0  0  0  0
  1  6  2  0
  2  3  2  0
  2  1  1  0
  3  4  1  0
  4  5  2  0
  5 14  1  0
  6  5  1  0
  7  2  1  0
  8  9  1  0
  8  7  1  0
  9  7  1  0
  9 10  1  0
 10 13  1  0
 10 12  1  0
 11 10  1  0
 14 16  1  0
 15 14  1  0
 15 16  1  0
 16 18  1  0
 17 22  1  0
 17 21  1  0
 18 17  1  0
 18 19  1  0
 19 20  1  0
 20 21  1  0
 21 23  1  0
  1 24  1  0
  3 25  1  0
  7 26  1  6
  8 27  1  0
  8 28  1  0
  9 29  1  6
 14 30  1  1
 15 31  1  0
 15 32  1  0
 16 33  1  6
 17 34  1  1
 18 35  1  1
 20 36  1  0
 20 37  1  0
 21 38  1  1
 22 39  1  0
 23 40  1  0
M  ISO  8  24  14  25  14  26  13  27  13  28  13  29  13  30  13  31  13
M  ISO  8  32  13  33  13  34  13  35  13  36  13  37  13  38  13  39   3
M  ISO  1  40   3
M  END
>  <minimizedAffinity>  (1) 
-5.91410875

>  <minimizedRMSD>  (1) 
1.91253912

$$$$
