
     RDKit          3D

 37 40  0  0  1  0  0  0  0  0999 V2000
   46.6450   32.5190   41.8180 C   0  0  0  0  0  0  0  0  0  0  0  0
   47.9240   32.3950   41.1560 C   0  0  0  0  0  0  0  0  0  0  0  0
   48.9310   31.7800   41.8550 C   0  0  0  0  0  0  0  0  0  0  0  0
   48.6900   31.3270   43.1070 N   0  0  0  0  0  0  0  0  0  0  0  0
   47.4800   31.4560   43.7060 C   0  0  0  0  0  0  0  0  0  0  0  0
   46.4710   32.0540   43.0460 N   0  0  0  0  0  0  0  0  0  0  0  0
   48.1490   32.9210   39.7860 C   0  0  1  0  0  0  0  0  0  0  0  0
   47.2600   33.8760   39.1960 C   0  0  0  0  0  0  0  0  0  0  0  0
   48.5570   34.4020   39.6560 C   0  0  1  0  0  0  0  0  0  0  0  0
   48.7230   35.2470   40.8580 C   0  0  0  0  0  0  0  0  0  0  0  0
   49.2020   36.5070   40.5430 F   0  0  0  0  0  0  0  0  0  0  0  0
   49.5770   34.6550   41.7880 F   0  0  0  0  0  0  0  0  0  0  0  0
   47.4770   35.4200   41.4140 F   0  0  0  0  0  0  0  0  0  0  0  0
   47.3170   30.9250   45.0810 C   0  0  2  0  0  0  0  0  0  0  0  0
   46.8360   29.4840   45.1190 C   0  0  0  0  0  0  0  0  0  0  0  0
   45.9670   30.5790   45.6000 C   0  0  1  0  0  0  0  0  0  0  0  0
   44.7570   28.6750   47.4110 F   0  0  0  0  0  0  0  0  0  0  0  0
   45.1130   29.8500   47.9300 C   0  0  0  0  0  0  0  0  0  0  0  0
   45.6820   30.7320   47.0400 C   0  0  0  0  0  0  0  0  0  0  0  0
   46.0700   31.9800   47.5410 C   0  0  0  0  0  0  0  0  0  0  0  0
   45.9010   32.3360   48.8640 C   0  0  0  0  0  0  0  0  0  0  0  0
   45.3330   31.4470   49.7340 C   0  0  0  0  0  0  0  0  0  0  0  0
   44.9430   30.1990   49.2500 C   0  0  0  0  0  0  0  0  0  0  0  0
   45.8072   33.0048   41.2964 H   0  0  0  0  0  0  0  0  0  0  0  0
   49.9257   31.6561   41.4019 H   0  0  0  0  0  0  0  0  0  0  0  0
   48.5380   31.9454   39.4593 H   0  0  0  0  0  0  0  0  0  0  0  0
   46.3428   34.1607   39.7323 H   0  0  0  0  0  0  0  0  0  0  0  0
   46.7297   33.9166   38.2331 H   0  0  0  0  0  0  0  0  0  0  0  0
   49.3673   34.9875   39.1970 H   0  0  0  0  0  0  0  0  0  0  0  0
   48.1388   31.5318   45.4890 H   0  0  0  0  0  0  0  0  0  0  0  0
   46.5942   28.9585   44.1834 H   0  0  0  0  0  0  0  0  0  0  0  0
   47.2170   28.5445   45.5458 H   0  0  0  0  0  0  0  0  0  0  0  0
   44.9412   30.8975   45.3627 H   0  0  0  0  0  0  0  0  0  0  0  0
   46.5278   32.7061   46.8531 H   0  0  0  0  0  0  0  0  0  0  0  0
   46.2210   33.3278   49.2159 H   0  0  0  0  0  0  0  0  0  0  0  0
   45.1871   31.7106   50.7919 H   0  0  0  0  0  0  0  0  0  0  0  0
   44.4876   29.4746   49.9413 H   0  0  0  0  0  0  0  0  0  0  0  0
  1  6  2  0
  2  1  1  0
  2  3  2  0
  3  4  1  0
  4  5  2  0
  5 14  1  0
  6  5  1  0
  7  2  1  0
  8  9  1  0
  8  7  1  0
  9  7  1  0
  9 10  1  0
 10 13  1  0
 10 12  1  0
 11 10  1  0
 14 15  1  0
 14 16  1  0
 15 16  1  0
 16 19  1  0
 17 18  1  0
 18 23  2  0
 19 20  2  0
 19 18  1  0
 20 21  1  0
 21 22  2  0
 23 22  1  0
  1 24  1  0
  3 25  1  0
  7 26  1  6
  8 27  1  0
  8 28  1  0
  9 29  1  6
 14 30  1  1
 15 31  1  0
 15 32  1  0
 16 33  1  6
 20 34  1  0
 21 35  1  0
 22 36  1  0
 23 37  1  0
M  ISO  8  24  14  25  14  26  13  27  13  28  13  29  13  30  13  31  13
M  ISO  6  32  13  33  13  34  14  35  14  36  14  37  14
M  END
>  <minimizedAffinity>  (1) 
-5.37859154

>  <minimizedRMSD>  (1) 
2.14224505

$$$$
