
     RDKit          3D

 34 37  0  0  1  0  0  0  0  0999 V2000
   45.5800   33.6400   43.2360 C   0  0  0  0  0  0  0  0  0  0  0  0
   46.8070   33.0760   42.7210 C   0  0  0  0  0  0  0  0  0  0  0  0
   47.6890   32.5730   43.6440 C   0  0  0  0  0  0  0  0  0  0  0  0
   47.3790   32.6250   44.9580 N   0  0  0  0  0  0  0  0  0  0  0  0
   46.2400   33.1500   45.4130 C   0  0  0  0  0  0  0  0  0  0  0  0
   45.3320   33.6630   44.5340 N   0  0  0  0  0  0  0  0  0  0  0  0
   47.1060   33.0510   41.2700 C   0  0  1  0  0  0  0  0  0  0  0  0
   46.5370   34.0070   40.3710 C   0  0  0  0  0  0  0  0  0  0  0  0
   47.9590   34.2020   40.7070 C   0  0  1  0  0  0  0  0  0  0  0  0
   48.4520   35.2800   41.5890 C   0  0  0  0  0  0  0  0  0  0  0  0
   49.1250   36.2620   40.8830 F   0  0  0  0  0  0  0  0  0  0  0  0
   49.2930   34.7800   42.5880 F   0  0  0  0  0  0  0  0  0  0  0  0
   47.3580   35.8780   42.1640 F   0  0  0  0  0  0  0  0  0  0  0  0
   45.9890   33.1390   46.8760 C   0  0  2  0  0  0  0  0  0  0  0  0
   47.0320   32.3580   47.6520 C   0  0  0  0  0  0  0  0  0  0  0  0
   45.5840   31.9350   47.5950 C   0  0  2  0  0  0  0  0  0  0  0  0
   45.3810   30.6040   47.0410 C   0  0  0  0  0  0  0  0  0  0  0  0
   45.4490   29.9910   45.8310 C   0  0  0  0  0  0  0  0  0  0  0  0
   45.1680   28.6410   45.8860 C   0  0  0  0  0  0  0  0  0  0  0  0
   44.9260   28.4660   47.1960 N   0  0  0  0  0  0  0  0  0  0  0  0
   45.0420   29.5710   47.8720 N   0  0  0  0  0  0  0  0  0  0  0  0
   44.8406   34.0569   42.5364 H   0  0  0  0  0  0  0  0  0  0  0  0
   48.6414   32.1307   43.3165 H   0  0  0  0  0  0  0  0  0  0  0  0
   47.1409   31.9516   41.2815 H   0  0  0  0  0  0  0  0  0  0  0  0
   45.7915   34.7230   40.7473 H   0  0  0  0  0  0  0  0  0  0  0  0
   45.9932   33.9158   39.4192 H   0  0  0  0  0  0  0  0  0  0  0  0
   48.8885   34.3200   40.1307 H   0  0  0  0  0  0  0  0  0  0  0  0
   45.5504   34.1477   46.8619 H   0  0  0  0  0  0  0  0  0  0  0  0
   47.8021   31.7789   47.1214 H   0  0  0  0  0  0  0  0  0  0  0  0
   47.7601   32.5823   48.4454 H   0  0  0  0  0  0  0  0  0  0  0  0
   44.7170   31.7842   48.2550 H   0  0  0  0  0  0  0  0  0  0  0  0
   45.7029   30.5182   44.8996 H   0  0  0  0  0  0  0  0  0  0  0  0
   45.1475   27.9022   45.0713 H   0  0  0  0  0  0  0  0  0  0  0  0
   44.6769   27.5596   47.6171 H   0  0  0  0  0  0  0  0  0  0  0  0
  1  6  2  0
  2  1  1  0
  2  3  2  0
  3  4  1  0
  4  5  2  0
  5 14  1  0
  6  5  1  0
  7  2  1  0
  8  9  1  0
  8  7  1  0
  9  7  1  0
  9 10  1  0
 10 13  1  0
 10 12  1  0
 11 10  1  0
 14 16  1  0
 14 15  1  0
 16 15  1  0
 17 16  1  0
 17 21  2  0
 18 19  2  0
 18 17  1  0
 19 20  1  0
 20 21  1  0
  1 22  1  0
  3 23  1  0
  7 24  1  6
  8 25  1  0
  8 26  1  0
  9 27  1  6
 14 28  1  1
 15 29  1  0
 15 30  1  0
 16 31  1  1
 18 32  1  0
 19 33  1  0
 20 34  1  0
M  ISO  8  22  14  23  14  24  13  25  13  26  13  27  13  28  13  29  13
M  ISO  5  30  13  31  13  32  14  33  14  34   9
M  END
>  <minimizedAffinity>  (1) 
-5.3357749

>  <minimizedRMSD>  (1) 
0.644760966

$$$$
