
     RDKit          3D

 34 37  0  0  1  0  0  0  0  0999 V2000
   45.7220   33.4910   42.9910 C   0  0  0  0  0  0  0  0  0  0  0  0
   47.0180   33.0370   42.5530 C   0  0  0  0  0  0  0  0  0  0  0  0
   47.8670   32.5650   43.5210 C   0  0  0  0  0  0  0  0  0  0  0  0
   47.4390   32.5560   44.8090 N   0  0  0  0  0  0  0  0  0  0  0  0
   46.2360   32.9800   45.1960 C   0  0  0  0  0  0  0  0  0  0  0  0
   45.3860   33.4460   44.2710 N   0  0  0  0  0  0  0  0  0  0  0  0
   47.4110   33.1010   41.1270 C   0  0  1  0  0  0  0  0  0  0  0  0
   46.8480   34.0590   40.2230 C   0  0  0  0  0  0  0  0  0  0  0  0
   48.2250   34.3260   40.6700 C   0  0  1  0  0  0  0  0  0  0  0  0
   48.5900   35.3920   41.6290 C   0  0  0  0  0  0  0  0  0  0  0  0
   49.2350   36.4490   41.0100 F   0  0  0  0  0  0  0  0  0  0  0  0
   49.4000   34.9110   42.6600 F   0  0  0  0  0  0  0  0  0  0  0  0
   47.4190   35.8860   42.1550 F   0  0  0  0  0  0  0  0  0  0  0  0
   45.8960   32.9100   46.6330 C   0  0  2  0  0  0  0  0  0  0  0  0
   47.0710   32.5680   47.5310 C   0  0  0  0  0  0  0  0  0  0  0  0
   45.9640   31.6140   47.3730 C   0  0  2  0  0  0  0  0  0  0  0  0
   46.0070   30.4070   46.5490 C   0  0  0  0  0  0  0  0  0  0  0  0
   45.1080   29.7260   45.7870 C   0  0  0  0  0  0  0  0  0  0  0  0
   45.6120   28.6220   45.2100 N   0  0  0  0  0  0  0  0  0  0  0  0
   46.8890   28.6160   45.6340 C   0  0  0  0  0  0  0  0  0  0  0  0
   47.1470   29.6620   46.4280 N   0  0  0  0  0  0  0  0  0  0  0  0
   45.0040   33.8792   42.2536 H   0  0  0  0  0  0  0  0  0  0  0  0
   48.8719   32.2020   43.2596 H   0  0  0  0  0  0  0  0  0  0  0  0
   47.5112   32.0059   41.0998 H   0  0  0  0  0  0  0  0  0  0  0  0
   46.0333   34.7120   40.5691 H   0  0  0  0  0  0  0  0  0  0  0  0
   46.3811   33.9746   39.2306 H   0  0  0  0  0  0  0  0  0  0  0  0
   49.1818   34.5274   40.1660 H   0  0  0  0  0  0  0  0  0  0  0  0
   45.1190   33.6840   46.5479 H   0  0  0  0  0  0  0  0  0  0  0  0
   48.0544   32.3475   47.0901 H   0  0  0  0  0  0  0  0  0  0  0  0
   47.5635   33.0535   48.3864 H   0  0  0  0  0  0  0  0  0  0  0  0
   45.3798   31.0663   48.1271 H   0  0  0  0  0  0  0  0  0  0  0  0
   44.0649   30.0496   45.6556 H   0  0  0  0  0  0  0  0  0  0  0  0
   45.1373   27.9463   44.5943 H   0  0  0  0  0  0  0  0  0  0  0  0
   47.6280   27.8479   45.3622 H   0  0  0  0  0  0  0  0  0  0  0  0
  1  6  2  0
  2  1  1  0
  2  3  2  0
  3  4  1  0
  4  5  2  0
  5 14  1  0
  6  5  1  0
  7  2  1  0
  8  9  1  0
  8  7  1  0
  9  7  1  0
  9 10  1  0
 10 13  1  0
 10 12  1  0
 11 10  1  0
 14 16  1  0
 14 15  1  0
 16 15  1  0
 17 16  1  0
 18 17  2  0
 19 20  1  0
 19 18  1  0
 20 21  2  0
 21 17  1  0
  1 22  1  0
  3 23  1  0
  7 24  1  6
  8 25  1  0
  8 26  1  0
  9 27  1  6
 14 28  1  1
 15 29  1  0
 15 30  1  0
 16 31  1  1
 18 32  1  0
 19 33  1  0
 20 34  1  0
M  ISO  8  22  14  23  14  24  13  25  13  26  13  27  13  28  13  29  13
M  ISO  5  30  13  31  13  32  14  33   9  34  14
M  END
>  <minimizedAffinity>  (1) 
-5.04417324

>  <minimizedRMSD>  (1) 
0.238900706

$$$$
