
     RDKit          3D

 29 31  0  0  1  0  0  0  0  0999 V2000
   45.8380   33.7500   42.9990 C   0  0  0  0  0  0  0  0  0  0  0  0
   47.0510   33.1180   42.5470 C   0  0  0  0  0  0  0  0  0  0  0  0
   47.8040   32.4640   43.4880 C   0  0  0  0  0  0  0  0  0  0  0  0
   47.3900   32.4370   44.7800 N   0  0  0  0  0  0  0  0  0  0  0  0
   46.2430   33.0430   45.1740 C   0  0  0  0  0  0  0  0  0  0  0  0
   45.4790   33.6940   44.2720 N   0  0  0  0  0  0  0  0  0  0  0  0
   47.4760   33.1850   41.1280 C   0  0  1  0  0  0  0  0  0  0  0  0
   46.9410   34.1560   40.2230 C   0  0  0  0  0  0  0  0  0  0  0  0
   48.3160   34.4000   40.6930 C   0  0  1  0  0  0  0  0  0  0  0  0
   48.6740   35.4570   41.6700 C   0  0  0  0  0  0  0  0  0  0  0  0
   49.3440   36.5070   41.0680 F   0  0  0  0  0  0  0  0  0  0  0  0
   49.4620   34.9490   42.7030 F   0  0  0  0  0  0  0  0  0  0  0  0
   47.5040   35.9590   42.1780 F   0  0  0  0  0  0  0  0  0  0  0  0
   45.8630   32.9610   46.6090 C   0  0  2  0  0  0  0  0  0  0  0  0
   46.9990   32.5030   47.5060 C   0  0  0  0  0  0  0  0  0  0  0  0
   45.7920   31.6390   47.2920 C   0  0  2  0  0  0  0  0  0  0  0  0
   45.8270   30.4740   46.4610 N   0  0  0  0  0  0  0  0  0  0  0  0
   45.2027   34.2853   42.2780 H   0  0  0  0  0  0  0  0  0  0  0  0
   48.7393   31.9636   43.1969 H   0  0  0  0  0  0  0  0  0  0  0  0
   47.5646   32.0891   41.0956 H   0  0  0  0  0  0  0  0  0  0  0  0
   46.1307   34.8186   40.5613 H   0  0  0  0  0  0  0  0  0  0  0  0
   46.4880   34.0850   39.2231 H   0  0  0  0  0  0  0  0  0  0  0  0
   49.2841   34.5893   40.2062 H   0  0  0  0  0  0  0  0  0  0  0  0
   45.1550   33.8006   46.5467 H   0  0  0  0  0  0  0  0  0  0  0  0
   47.9672   32.2174   47.0689 H   0  0  0  0  0  0  0  0  0  0  0  0
   47.5202   32.9166   48.3819 H   0  0  0  0  0  0  0  0  0  0  0  0
   45.1090   31.1330   47.9901 H   0  0  0  0  0  0  0  0  0  0  0  0
   45.8523   29.6311   47.0524 H   0  0  0  0  0  0  0  0  0  0  0  0
   44.9863   30.4511   45.8663 H   0  0  0  0  0  0  0  0  0  0  0  0
  1  6  2  0
  2  1  1  0
  2  3  2  0
  3  4  1  0
  4  5  2  0
  5 14  1  0
  6  5  1  0
  7  2  1  0
  8  9  1  0
  8  7  1  0
  9  7  1  0
  9 10  1  0
 10 13  1  0
 10 12  1  0
 11 10  1  0
 14 16  1  0
 14 15  1  0
 16 15  1  0
 17 16  1  0
  1 18  1  0
  3 19  1  0
  7 20  1  6
  8 21  1  0
  8 22  1  0
  9 23  1  6
 14 24  1  1
 15 25  1  0
 15 26  1  0
 16 27  1  1
 17 28  1  0
 17 29  1  0
M  ISO  8  18  14  19  14  20  13  21  13  22  13  23  13  24  13  25  13
M  ISO  4  26  13  27  13  28   5  29   5
M  END
>  <minimizedAffinity>  (1) 
-4.9633069

>  <minimizedRMSD>  (1) 
0.0446607061

$$$$
