
     RDKit          3D

 31 33  0  0  1  0  0  0  0  0999 V2000
   45.9510   33.5090   45.8380 C   0  0  0  0  0  0  0  0  0  0  0  0
   46.7000   33.6180   44.6490 C   0  0  0  0  0  0  0  0  0  0  0  0
   47.2960   32.4400   44.1340 C   0  0  0  0  0  0  0  0  0  0  0  0
   47.1160   31.2650   44.8100 N   0  0  0  0  0  0  0  0  0  0  0  0
   46.3850   31.2180   45.9490 C   0  0  0  0  0  0  0  0  0  0  0  0
   45.8150   32.3310   46.4460 N   0  0  0  0  0  0  0  0  0  0  0  0
   46.2580   29.9670   46.5700 N   0  0  0  0  0  0  0  0  0  0  0  0
   47.4210   29.2480   47.0190 C   0  0  2  0  0  0  0  0  0  0  0  0
   47.1780   27.8410   47.3840 C   0  0  0  0  0  0  0  0  0  0  0  0
   45.8900   27.5350   47.9160 N   0  0  0  0  0  0  0  0  0  0  0  0
   45.0330   28.6560   48.0860 C   0  0  0  0  0  0  0  0  0  0  0  0
   44.9440   29.3870   46.7670 C   0  0  0  0  0  0  0  0  0  0  0  0
   48.1830   30.0150   48.0420 C   0  0  0  0  0  0  0  0  0  0  0  0
   47.7960   30.8390   49.0680 C   0  0  0  0  0  0  0  0  0  0  0  0
   48.8650   31.3120   49.7340 N   0  0  0  0  0  0  0  0  0  0  0  0
   49.9300   30.7850   49.1250 C   0  0  0  0  0  0  0  0  0  0  0  0
   49.5300   30.0050   48.1070 N   0  0  0  0  0  0  0  0  0  0  0  0
   45.4751   34.4030   46.2673 H   0  0  0  0  0  0  0  0  0  0  0  0
   46.8179   34.5849   44.1380 H   0  0  0  0  0  0  0  0  0  0  0  0
   47.8912   32.4701   43.2094 H   0  0  0  0  0  0  0  0  0  0  0  0
   48.0734   29.1628   46.1375 H   0  0  0  0  0  0  0  0  0  0  0  0
   47.3193   27.2317   46.4791 H   0  0  0  0  0  0  0  0  0  0  0  0
   47.8876   27.6240   48.1960 H   0  0  0  0  0  0  0  0  0  0  0  0
   45.4282   26.8729   47.2762 H   0  0  0  0  0  0  0  0  0  0  0  0
   44.0323   28.3166   48.3918 H   0  0  0  0  0  0  0  0  0  0  0  0
   45.4311   29.3238   48.8642 H   0  0  0  0  0  0  0  0  0  0  0  0
   44.1768   30.1740   46.8122 H   0  0  0  0  0  0  0  0  0  0  0  0
   44.6600   28.7173   45.9418 H   0  0  0  0  0  0  0  0  0  0  0  0
   46.7513   31.0807   49.3134 H   0  0  0  0  0  0  0  0  0  0  0  0
   48.8624   31.9478   50.5443 H   0  0  0  0  0  0  0  0  0  0  0  0
   50.9766   30.9626   49.4132 H   0  0  0  0  0  0  0  0  0  0  0  0
  1  6  2  0
  2  1  1  0
  3  2  2  0
  3  4  1  0
  4  5  2  0
  5  6  1  0
  5  7  1  0
  7 12  1  0
  7  8  1  0
  8  9  1  0
  8 13  1  0
  9 10  1  0
 10 11  1  0
 12 11  1  0
 13 17  1  0
 13 14  2  0
 14 15  1  0
 16 15  1  0
 17 16  2  0
  1 18  1  0
  2 19  1  0
  3 20  1  0
  8 21  1  6
  9 22  1  0
  9 23  1  0
 10 24  1  0
 11 25  1  0
 11 26  1  0
 12 27  1  0
 12 28  1  0
 14 29  1  0
 15 30  1  0
 16 31  1  0
M  ISO  8  18  14  19  14  20  14  21  13  22  13  23  13  24   5  25  13
M  ISO  6  26  13  27  13  28  13  29  14  30   9  31  14
M  END
>  <minimizedAffinity>  (1) 
-4.23888302

>  <minimizedRMSD>  (1) 
3.18886828

$$$$
