
     RDKit          3D

 41 44  0  0  1  0  0  0  0  0999 V2000
   45.9000   33.2770   45.7030 C   0  0  0  0  0  0  0  0  0  0  0  0
   46.7890   33.4420   44.6180 C   0  0  0  0  0  0  0  0  0  0  0  0
   47.5240   32.2990   44.1820 C   0  0  0  0  0  0  0  0  0  0  0  0
   47.3340   31.1090   44.8330 N   0  0  0  0  0  0  0  0  0  0  0  0
   46.4710   31.0150   45.8630 C   0  0  0  0  0  0  0  0  0  0  0  0
   45.7680   32.0940   46.2840 N   0  0  0  0  0  0  0  0  0  0  0  0
   46.3410   29.7610   46.4670 N   0  0  0  0  0  0  0  0  0  0  0  0
   47.4700   29.1170   47.0550 C   0  0  2  0  0  0  0  0  0  0  0  0
   47.2620   27.6870   47.4150 C   0  0  0  0  0  0  0  0  0  0  0  0
   45.9480   27.3060   47.7790 N   0  0  0  0  0  0  0  0  0  0  0  0
   45.0040   28.3610   47.8040 C   0  0  0  0  0  0  0  0  0  0  0  0
   45.0550   29.1040   46.5020 C   0  0  0  0  0  0  0  0  0  0  0  0
   48.0510   29.9170   48.1650 C   0  0  0  0  0  0  0  0  0  0  0  0
   47.7030   31.1240   48.7260 C   0  0  0  0  0  0  0  0  0  0  0  0
   48.5130   31.4670   49.7260 N   0  0  0  0  0  0  0  0  0  0  0  0
   49.4000   30.4650   49.8130 C   0  0  0  0  0  0  0  0  0  0  0  0
   49.1250   29.5430   48.8840 N   0  0  0  0  0  0  0  0  0  0  0  0
   51.4200   32.6500   49.7730 Cl  0  0  0  0  0  0  0  0  0  0  0  0
   51.5370   31.2640   50.8620 C   0  0  0  0  0  0  0  0  0  0  0  0
   50.5160   30.3390   50.7540 C   0  0  0  0  0  0  0  0  0  0  0  0
   50.5550   29.2230   51.5910 C   0  0  0  0  0  0  0  0  0  0  0  0
   51.5710   29.0250   52.5060 C   0  0  0  0  0  0  0  0  0  0  0  0
   52.5630   29.9890   52.5640 C   0  0  0  0  0  0  0  0  0  0  0  0
   52.5730   31.1110   51.7610 C   0  0  0  0  0  0  0  0  0  0  0  0
   45.3149   34.1344   46.0670 H   0  0  0  0  0  0  0  0  0  0  0  0
   46.9107   34.4182   44.1258 H   0  0  0  0  0  0  0  0  0  0  0  0
   48.2286   32.3722   43.3405 H   0  0  0  0  0  0  0  0  0  0  0  0
   48.2218   29.0761   46.2530 H   0  0  0  0  0  0  0  0  0  0  0  0
   47.5566   27.0789   46.5470 H   0  0  0  0  0  0  0  0  0  0  0  0
   47.8695   27.5257   48.3177 H   0  0  0  0  0  0  0  0  0  0  0  0
   45.6211   26.6008   47.1032 H   0  0  0  0  0  0  0  0  0  0  0  0
   43.9953   27.9479   47.9519 H   0  0  0  0  0  0  0  0  0  0  0  0
   45.2416   29.0481   48.6295 H   0  0  0  0  0  0  0  0  0  0  0  0
   44.2451   29.8469   46.4542 H   0  0  0  0  0  0  0  0  0  0  0  0
   44.9266   28.4251   45.6461 H   0  0  0  0  0  0  0  0  0  0  0  0
   46.8535   31.7354   48.3876 H   0  0  0  0  0  0  0  0  0  0  0  0
   48.4680   32.3168   50.3062 H   0  0  0  0  0  0  0  0  0  0  0  0
   49.7503   28.4764   51.5199 H   0  0  0  0  0  0  0  0  0  0  0  0
   51.5909   28.1405   53.1596 H   0  0  0  0  0  0  0  0  0  0  0  0
   53.3827   29.8539   53.2850 H   0  0  0  0  0  0  0  0  0  0  0  0
   53.3780   31.8570   51.8347 H   0  0  0  0  0  0  0  0  0  0  0  0
  1  6  2  0
  2  1  1  0
  3  2  2  0
  3  4  1  0
  4  5  2  0
  5  6  1  0
  5  7  1  0
  7 12  1  0
  7  8  1  0
  8  9  1  0
  8 13  1  0
  9 10  1  0
 10 11  1  0
 12 11  1  0
 13 14  2  0
 13 17  1  0
 14 15  1  0
 15 16  1  0
 16 20  1  0
 17 16  2  0
 18 19  1  0
 19 24  2  0
 20 19  1  0
 20 21  2  0
 21 22  1  0
 22 23  2  0
 24 23  1  0
  1 25  1  0
  2 26  1  0
  3 27  1  0
  8 28  1  6
  9 29  1  0
  9 30  1  0
 10 31  1  0
 11 32  1  0
 11 33  1  0
 12 34  1  0
 12 35  1  0
 14 36  1  0
 15 37  1  0
 21 38  1  0
 22 39  1  0
 23 40  1  0
 24 41  1  0
M  ISO  8  25  14  26  14  27  14  28  13  29  13  30  13  31   5  32  13
M  ISO  8  33  13  34  13  35  13  36  14  37   9  38  14  39  14  40  14
M  ISO  1  41  14
M  END
>  <minimizedAffinity>  (1) 
-5.60681486

>  <minimizedRMSD>  (1) 
1.3233403

$$$$
