
     RDKit          3D

 44 47  0  0  1  0  0  0  0  0999 V2000
   45.8690   33.4920   45.7680 C   0  0  0  0  0  0  0  0  0  0  0  0
   46.6660   33.6470   44.6250 C   0  0  0  0  0  0  0  0  0  0  0  0
   47.3420   32.4950   44.1290 C   0  0  0  0  0  0  0  0  0  0  0  0
   47.1850   31.3030   44.7810 N   0  0  0  0  0  0  0  0  0  0  0  0
   46.4050   31.2140   45.8750 C   0  0  0  0  0  0  0  0  0  0  0  0
   45.7570   32.3020   46.3560 N   0  0  0  0  0  0  0  0  0  0  0  0
   46.3020   29.9570   46.4800 N   0  0  0  0  0  0  0  0  0  0  0  0
   47.4600   29.2920   46.9770 C   0  0  2  0  0  0  0  0  0  0  0  0
   47.2470   27.8690   47.3550 C   0  0  0  0  0  0  0  0  0  0  0  0
   45.9580   27.5000   47.8030 N   0  0  0  0  0  0  0  0  0  0  0  0
   45.0410   28.5850   47.9160 C   0  0  0  0  0  0  0  0  0  0  0  0
   45.0000   29.3240   46.6070 C   0  0  0  0  0  0  0  0  0  0  0  0
   48.1430   30.0720   48.0380 C   0  0  0  0  0  0  0  0  0  0  0  0
   47.6670   30.9060   49.0340 C   0  0  0  0  0  0  0  0  0  0  0  0
   48.6650   31.3970   49.7810 N   0  0  0  0  0  0  0  0  0  0  0  0
   49.7850   30.8810   49.2680 C   0  0  0  0  0  0  0  0  0  0  0  0
   49.4760   30.0860   48.2260 N   0  0  0  0  0  0  0  0  0  0  0  0
   51.1370   31.1810   49.8200 C   0  0  0  0  0  0  0  0  0  0  0  0
   51.4240   32.6450   49.9250 C   0  0  0  0  0  0  0  0  0  0  0  0
   51.5680   32.9420   51.4060 C   0  0  0  0  0  0  0  0  0  0  0  0
   52.0430   31.6260   51.9850 C   0  0  0  0  0  0  0  0  0  0  0  0
   51.1590   30.6390   51.2380 C   0  0  0  0  0  0  0  0  0  0  0  0
   45.3327   34.3587   46.1819 H   0  0  0  0  0  0  0  0  0  0  0  0
   46.7659   34.6236   44.1287 H   0  0  0  0  0  0  0  0  0  0  0  0
   47.9802   32.5632   43.2357 H   0  0  0  0  0  0  0  0  0  0  0  0
   48.1457   29.2422   46.1183 H   0  0  0  0  0  0  0  0  0  0  0  0
   47.4774   27.2551   46.4718 H   0  0  0  0  0  0  0  0  0  0  0  0
   47.9029   27.7078   48.2232 H   0  0  0  0  0  0  0  0  0  0  0  0
   45.5688   26.8173   47.1372 H   0  0  0  0  0  0  0  0  0  0  0  0
   44.0389   28.1987   48.1539 H   0  0  0  0  0  0  0  0  0  0  0  0
   45.3636   29.2646   48.7186 H   0  0  0  0  0  0  0  0  0  0  0  0
   44.2030   30.0821   46.6179 H   0  0  0  0  0  0  0  0  0  0  0  0
   44.7887   28.6503   45.7635 H   0  0  0  0  0  0  0  0  0  0  0  0
   46.6033   31.1369   49.1926 H   0  0  0  0  0  0  0  0  0  0  0  0
   48.5852   32.0382   50.5831 H   0  0  0  0  0  0  0  0  0  0  0  0
   51.8821   30.7336   49.1457 H   0  0  0  0  0  0  0  0  0  0  0  0
   52.3559   32.8901   49.3944 H   0  0  0  0  0  0  0  0  0  0  0  0
   50.6210   33.2448   49.4717 H   0  0  0  0  0  0  0  0  0  0  0  0
   52.3084   33.7372   51.5775 H   0  0  0  0  0  0  0  0  0  0  0  0
   50.6343   33.3000   51.8643 H   0  0  0  0  0  0  0  0  0  0  0  0
   53.1085   31.4534   51.7731 H   0  0  0  0  0  0  0  0  0  0  0  0
   51.9672   31.5609   53.0805 H   0  0  0  0  0  0  0  0  0  0  0  0
   50.1459   30.6174   51.6659 H   0  0  0  0  0  0  0  0  0  0  0  0
   51.5304   29.6052   51.2945 H   0  0  0  0  0  0  0  0  0  0  0  0
  1  6  2  0
  2  1  1  0
  3  2  2  0
  3  4  1  0
  4  5  2  0
  5  6  1  0
  5  7  1  0
  7 12  1  0
  7  8  1  0
  8  9  1  0
  8 13  1  0
  9 10  1  0
 10 11  1  0
 12 11  1  0
 13 17  1  0
 13 14  2  0
 14 15  1  0
 16 15  1  0
 16 18  1  0
 17 16  2  0
 18 19  1  0
 18 22  1  0
 19 20  1  0
 20 21  1  0
 22 21  1  0
  1 23  1  0
  2 24  1  0
  3 25  1  0
  8 26  1  6
  9 27  1  0
  9 28  1  0
 10 29  1  0
 11 30  1  0
 11 31  1  0
 12 32  1  0
 12 33  1  0
 14 34  1  0
 15 35  1  0
 18 36  1  0
 19 37  1  0
 19 38  1  0
 20 39  1  0
 20 40  1  0
 21 41  1  0
 21 42  1  0
 22 43  1  0
 22 44  1  0
M  ISO  8  23  14  24  14  25  14  26  13  27  13  28  13  29   5  30  13
M  ISO  8  31  13  32  13  33  13  34  14  35   9  36  13  37  13  38  13
M  ISO  6  39  13  40  13  41  13  42  13  43  13  44  13
M  END
>  <minimizedAffinity>  (1) 
-5.26713991

>  <minimizedRMSD>  (1) 
0.227420136

$$$$
