
     RDKit          3D

 41 44  0  0  1  0  0  0  0  0999 V2000
   45.8770   33.5210   45.7690 C   0  0  0  0  0  0  0  0  0  0  0  0
   46.6640   33.6650   44.6060 C   0  0  0  0  0  0  0  0  0  0  0  0
   47.3240   32.5040   44.1060 C   0  0  0  0  0  0  0  0  0  0  0  0
   47.1700   31.3150   44.7640 N   0  0  0  0  0  0  0  0  0  0  0  0
   46.3980   31.2450   45.8770 C   0  0  0  0  0  0  0  0  0  0  0  0
   45.7630   32.3360   46.3680 N   0  0  0  0  0  0  0  0  0  0  0  0
   46.2960   29.9920   46.4920 N   0  0  0  0  0  0  0  0  0  0  0  0
   47.4560   29.3180   46.9720 C   0  0  2  0  0  0  0  0  0  0  0  0
   47.2410   27.8990   47.3650 C   0  0  0  0  0  0  0  0  0  0  0  0
   45.9540   27.5420   47.8260 N   0  0  0  0  0  0  0  0  0  0  0  0
   45.0510   28.6360   47.9570 C   0  0  0  0  0  0  0  0  0  0  0  0
   44.9950   29.3680   46.6460 C   0  0  0  0  0  0  0  0  0  0  0  0
   48.1650   30.0960   48.0150 C   0  0  0  0  0  0  0  0  0  0  0  0
   47.7190   30.8830   49.0600 C   0  0  0  0  0  0  0  0  0  0  0  0
   48.7290   31.3970   49.7670 N   0  0  0  0  0  0  0  0  0  0  0  0
   49.8330   30.9360   49.1720 C   0  0  0  0  0  0  0  0  0  0  0  0
   49.4980   30.1640   48.1330 N   0  0  0  0  0  0  0  0  0  0  0  0
   51.2270   31.2200   49.5800 C   0  0  0  0  0  0  0  0  0  0  0  0
   52.1610   30.2100   49.6750 C   0  0  0  0  0  0  0  0  0  0  0  0
   53.4690   30.4500   50.0530 C   0  0  0  0  0  0  0  0  0  0  0  0
   53.7820   31.7560   50.3270 C   0  0  0  0  0  0  0  0  0  0  0  0
   52.8970   32.8210   50.2530 C   0  0  0  0  0  0  0  0  0  0  0  0
   51.5840   32.5380   49.8680 C   0  0  0  0  0  0  0  0  0  0  0  0
   45.3532   34.3945   46.1845 H   0  0  0  0  0  0  0  0  0  0  0  0
   46.7646   34.6382   44.1033 H   0  0  0  0  0  0  0  0  0  0  0  0
   47.9489   32.5640   43.2027 H   0  0  0  0  0  0  0  0  0  0  0  0
   48.1210   29.2564   46.0979 H   0  0  0  0  0  0  0  0  0  0  0  0
   47.4618   27.2756   46.4860 H   0  0  0  0  0  0  0  0  0  0  0  0
   47.9039   27.7417   48.2286 H   0  0  0  0  0  0  0  0  0  0  0  0
   45.5490   26.8680   47.1607 H   0  0  0  0  0  0  0  0  0  0  0  0
   44.0496   28.2615   48.2159 H   0  0  0  0  0  0  0  0  0  0  0  0
   45.3934   29.3139   48.7527 H   0  0  0  0  0  0  0  0  0  0  0  0
   44.2030   30.1311   46.6658 H   0  0  0  0  0  0  0  0  0  0  0  0
   44.7672   28.6898   45.8104 H   0  0  0  0  0  0  0  0  0  0  0  0
   46.6573   31.0647   49.2832 H   0  0  0  0  0  0  0  0  0  0  0  0
   48.6698   32.0134   50.5901 H   0  0  0  0  0  0  0  0  0  0  0  0
   51.8552   29.1793   49.4423 H   0  0  0  0  0  0  0  0  0  0  0  0
   54.2125   29.6429   50.1291 H   0  0  0  0  0  0  0  0  0  0  0  0
   54.8164   31.9766   50.6293 H   0  0  0  0  0  0  0  0  0  0  0  0
   53.2158   33.8472   50.4879 H   0  0  0  0  0  0  0  0  0  0  0  0
   50.8402   33.3449   49.7928 H   0  0  0  0  0  0  0  0  0  0  0  0
  1  6  2  0
  2  1  1  0
  3  2  2  0
  3  4  1  0
  4  5  2  0
  5  6  1  0
  5  7  1  0
  7 12  1  0
  7  8  1  0
  8  9  1  0
  8 13  1  0
  9 10  1  0
 10 11  1  0
 12 11  1  0
 13 17  1  0
 13 14  2  0
 14 15  1  0
 16 18  1  0
 16 15  1  0
 17 16  2  0
 18 19  2  0
 18 23  1  0
 19 20  1  0
 20 21  2  0
 22 21  1  0
 23 22  2  0
  1 24  1  0
  2 25  1  0
  3 26  1  0
  8 27  1  6
  9 28  1  0
  9 29  1  0
 10 30  1  0
 11 31  1  0
 11 32  1  0
 12 33  1  0
 12 34  1  0
 14 35  1  0
 15 36  1  0
 19 37  1  0
 20 38  1  0
 21 39  1  0
 22 40  1  0
 23 41  1  0
M  ISO  8  24  14  25  14  26  14  27  13  28  13  29  13  30   5  31  13
M  ISO  8  32  13  33  13  34  13  35  14  36   9  37  14  38  14  39  14
M  ISO  2  40  14  41  14
M  END
>  <minimizedAffinity>  (1) 
-5.11993551

>  <minimizedRMSD>  (1) 
0.195847079

$$$$
