
     RDKit          3D

 32 34  0  0  1  0  0  0  0  0999 V2000
   45.9330   33.5140   45.8350 C   0  0  0  0  0  0  0  0  0  0  0  0
   46.6800   33.6250   44.6450 C   0  0  0  0  0  0  0  0  0  0  0  0
   47.2830   32.4410   44.1230 C   0  0  0  0  0  0  0  0  0  0  0  0
   47.1100   31.2620   44.7970 N   0  0  0  0  0  0  0  0  0  0  0  0
   46.3810   31.2170   45.9350 C   0  0  0  0  0  0  0  0  0  0  0  0
   45.8050   32.3360   46.4400 N   0  0  0  0  0  0  0  0  0  0  0  0
   46.2580   29.9740   46.5560 N   0  0  0  0  0  0  0  0  0  0  0  0
   47.4140   29.2640   46.9960 C   0  0  2  0  0  0  0  0  0  0  0  0
   47.1750   27.8510   47.4020 C   0  0  0  0  0  0  0  0  0  0  0  0
   45.8910   27.5380   47.9080 N   0  0  0  0  0  0  0  0  0  0  0  0
   45.0290   28.6560   48.0700 C   0  0  0  0  0  0  0  0  0  0  0  0
   44.9520   29.3930   46.7620 C   0  0  0  0  0  0  0  0  0  0  0  0
   48.1860   30.0230   48.0140 C   0  0  0  0  0  0  0  0  0  0  0  0
   47.8020   30.8040   49.0810 C   0  0  0  0  0  0  0  0  0  0  0  0
   48.8490   31.2980   49.7470 N   0  0  0  0  0  0  0  0  0  0  0  0
   49.9230   30.8290   49.1010 C   0  0  0  0  0  0  0  0  0  0  0  0
   49.5280   30.0710   48.0690 N   0  0  0  0  0  0  0  0  0  0  0  0
   51.2480   31.0880   49.4460 O   0  0  0  0  0  0  0  0  0  0  0  0
   45.4536   34.4055   46.2656 H   0  0  0  0  0  0  0  0  0  0  0  0
   46.7947   34.5928   44.1349 H   0  0  0  0  0  0  0  0  0  0  0  0
   47.8754   32.4753   43.1968 H   0  0  0  0  0  0  0  0  0  0  0  0
   48.0403   29.1809   46.0956 H   0  0  0  0  0  0  0  0  0  0  0  0
   47.3475   27.2180   46.5191 H   0  0  0  0  0  0  0  0  0  0  0  0
   47.8644   27.6734   48.2405 H   0  0  0  0  0  0  0  0  0  0  0  0
   45.4417   26.8778   47.2574 H   0  0  0  0  0  0  0  0  0  0  0  0
   44.0257   28.3117   48.3615 H   0  0  0  0  0  0  0  0  0  0  0  0
   45.4183   29.3212   48.8549 H   0  0  0  0  0  0  0  0  0  0  0  0
   44.1864   30.1812   46.8117 H   0  0  0  0  0  0  0  0  0  0  0  0
   44.6747   28.7212   45.9363 H   0  0  0  0  0  0  0  0  0  0  0  0
   46.7542   30.9986   49.3534 H   0  0  0  0  0  0  0  0  0  0  0  0
   48.8332   31.9074   50.5772 H   0  0  0  0  0  0  0  0  0  0  0  0
   51.9841   30.6986   48.9106 H   0  0  0  0  0  0  0  0  0  0  0  0
  1  6  2  0
  2  1  1  0
  3  2  2  0
  3  4  1  0
  4  5  2  0
  5  6  1  0
  5  7  1  0
  7 12  1  0
  7  8  1  0
  8  9  1  0
  8 13  1  0
  9 10  1  0
 10 11  1  0
 12 11  1  0
 13 17  1  0
 13 14  2  0
 14 15  1  0
 16 18  1  0
 16 15  1  0
 17 16  2  0
  1 19  1  0
  2 20  1  0
  3 21  1  0
  8 22  1  6
  9 23  1  0
  9 24  1  0
 10 25  1  0
 11 26  1  0
 11 27  1  0
 12 28  1  0
 12 29  1  0
 14 30  1  0
 15 31  1  0
 18 32  1  0
M  ISO  8  19  14  20  14  21  14  22  13  23  13  24  13  25   5  26  13
M  ISO  6  27  13  28  13  29  13  30  14  31   9  32   3
M  END
>  <minimizedAffinity>  (1) 
-4.38506031

>  <minimizedRMSD>  (1) 
0.030533554

$$$$
