
     RDKit          3D

 30 32  0  0  1  0  0  0  0  0999 V2000
   47.7860   34.6620   41.9140 C   0  0  0  0  0  0  0  0  0  0  0  0
   48.4120   35.7680   41.7040 O   0  0  0  0  0  0  0  0  0  0  0  0
   48.1620   33.8750   40.7320 C   0  0  0  0  0  0  0  0  0  0  0  0
   47.4430   33.9980   39.6060 N   0  0  0  0  0  0  0  0  0  0  0  0
   47.7260   33.2970   38.4600 C   0  0  0  0  0  0  0  0  0  0  0  0
   48.7550   32.4410   38.4140 N   0  0  0  0  0  0  0  0  0  0  0  0
   49.5410   32.2500   39.5050 C   0  0  0  0  0  0  0  0  0  0  0  0
   50.6000   31.3790   39.4650 C   0  0  0  0  0  0  0  0  0  0  0  0
   51.3990   31.1910   40.5650 C   0  0  0  0  0  0  0  0  0  0  0  0
   51.0810   31.9210   41.7110 C   0  0  0  0  0  0  0  0  0  0  0  0
   50.0130   32.7700   41.6810 C   0  0  0  0  0  0  0  0  0  0  0  0
   49.1870   32.9920   40.6090 C   0  0  0  0  0  0  0  0  0  0  0  0
   44.9220   35.0910   44.2230 C   0  0  0  0  0  0  0  0  0  0  0  0
   45.7880   35.2320   43.1380 C   0  0  0  0  0  0  0  0  0  0  0  0
   46.9810   34.4700   43.0790 C   0  0  0  0  0  0  0  0  0  0  0  0
   47.1960   33.6270   44.1310 N   0  0  0  0  0  0  0  0  0  0  0  0
   46.3440   33.5130   45.1620 C   0  0  0  0  0  0  0  0  0  0  0  0
   45.2240   34.2440   45.1920 N   0  0  0  0  0  0  0  0  0  0  0  0
   43.7360   35.8480   44.2730 N   0  0  0  0  0  0  0  0  0  0  0  0
   48.6605   34.2695   42.4536 H   0  0  0  0  0  0  0  0  0  0  0  0
   48.6473   36.1838   42.5711 H   0  0  0  0  0  0  0  0  0  0  0  0
   47.0991   33.4403   37.5675 H   0  0  0  0  0  0  0  0  0  0  0  0
   50.8116   30.8240   38.5392 H   0  0  0  0  0  0  0  0  0  0  0  0
   52.2516   30.4962   40.5442 H   0  0  0  0  0  0  0  0  0  0  0  0
   51.6827   31.8136   42.6256 H   0  0  0  0  0  0  0  0  0  0  0  0
   49.7942   33.3286   42.6030 H   0  0  0  0  0  0  0  0  0  0  0  0
   45.5443   35.9352   42.3280 H   0  0  0  0  0  0  0  0  0  0  0  0
   46.5672   32.8170   45.9840 H   0  0  0  0  0  0  0  0  0  0  0  0
   43.5117   36.5047   43.5119 H   0  0  0  0  0  0  0  0  0  0  0  0
   43.0926   35.7451   45.0707 H   0  0  0  0  0  0  0  0  0  0  0  0
  1  2  1  0
  1 15  1  0
  3  1  1  0
  4  3  2  0
  5  4  1  0
  6  5  2  0
  6  7  1  0
  7 12  2  0
  8  7  1  0
  8  9  2  0
  9 10  1  0
 11 10  2  0
 12  3  1  0
 12 11  1  0
 13 19  1  0
 13 18  2  0
 14 13  1  0
 15 14  2  0
 15 16  1  0
 16 17  2  0
 17 18  1  0
  1 20  1  0
  2 21  1  0
  5 22  1  0
  8 23  1  0
  9 24  1  0
 10 25  1  0
 11 26  1  0
 14 27  1  0
 17 28  1  0
 19 29  1  0
 19 30  1  0
M  ISO  8  20   8  21   3  22  14  23  14  24  14  25  14  26  14  27  14
M  ISO  1  28  14
M  END
>  <minimizedAffinity>  (1) 
-5.38253212

>  <minimizedRMSD>  (1) 
1.54024863

$$$$
