
     RDKit          3D

 27 28  0  0  0  0  0  0  0  0999 V2000
   48.2870   34.8420   42.1360 C   0  0  0  0  0  0  0  0  0  0  0  0
   48.6020   35.9720   41.7080 O   0  0  0  0  0  0  0  0  0  0  0  0
   45.0070   35.0520   43.7770 C   0  0  0  0  0  0  0  0  0  0  0  0
   46.0920   35.2900   42.8920 C   0  0  0  0  0  0  0  0  0  0  0  0
   47.2490   34.5400   43.0740 C   0  0  0  0  0  0  0  0  0  0  0  0
   47.3160   33.6300   44.0560 N   0  0  0  0  0  0  0  0  0  0  0  0
   46.2570   33.4230   44.8910 C   0  0  0  0  0  0  0  0  0  0  0  0
   45.1200   34.1300   44.7470 N   0  0  0  0  0  0  0  0  0  0  0  0
   43.8030   35.7720   43.6540 N   0  0  0  0  0  0  0  0  0  0  0  0
   48.6960   33.0960   40.4390 C   0  0  0  0  0  0  0  0  0  0  0  0
   49.1060   33.7520   41.5790 C   0  0  0  0  0  0  0  0  0  0  0  0
   50.2800   33.3650   42.1650 C   0  0  0  0  0  0  0  0  0  0  0  0
   51.0780   32.3520   41.6790 C   0  0  0  0  0  0  0  0  0  0  0  0
   50.6900   31.6770   40.5380 C   0  0  0  0  0  0  0  0  0  0  0  0
   49.5070   32.0690   39.9470 C   0  0  0  0  0  0  0  0  0  0  0  0
   47.2310   33.5140   39.6300 S   0  0  0  0  0  0  0  0  0  0  0  0
   47.2290   33.2450   38.1640 O   0  0  0  0  0  0  0  0  0  0  0  0
   46.1280   32.6560   40.2090 O   0  0  0  0  0  0  0  0  0  0  0  0
   46.0198   36.0407   42.0912 H   0  0  0  0  0  0  0  0  0  0  0  0
   46.3328   32.6708   45.6901 H   0  0  0  0  0  0  0  0  0  0  0  0
   43.7009   36.4824   42.9152 H   0  0  0  0  0  0  0  0  0  0  0  0
   43.0245   35.5882   44.3029 H   0  0  0  0  0  0  0  0  0  0  0  0
   50.6050   33.8915   43.0745 H   0  0  0  0  0  0  0  0  0  0  0  0
   52.0127   32.0842   42.1935 H   0  0  0  0  0  0  0  0  0  0  0  0
   51.2983   30.8620   40.1188 H   0  0  0  0  0  0  0  0  0  0  0  0
   49.1831   31.5435   39.0365 H   0  0  0  0  0  0  0  0  0  0  0  0
   47.0692   34.8625   39.8095 H   0  0  0  0  0  0  0  0  0  0  0  0
  1  5  1  0
  2  1  2  0
  3  8  2  0
  4  5  2  0
  4  3  1  0
  5  6  1  0
  6  7  2  0
  8  7  1  0
  9  3  1  0
 10 11  2  0
 11  1  1  0
 11 12  1  0
 13 12  2  0
 14 13  1  0
 15 10  1  0
 15 14  2  0
 16 18  2  0
 16 10  1  0
 17 16  2  0
  4 19  1  0
  7 20  1  0
  9 21  1  0
  9 22  1  0
 12 23  1  0
 13 24  1  0
 14 25  1  0
 15 26  1  0
 16 27  1  0
M  ISO  7  19  14  20  14  23  14  24  14  25  14  26  14  27  11
M  END
>  <minimizedAffinity>  (1) 
-5.05587578

>  <minimizedRMSD>  (1) 
2.90408134

$$$$
