
     RDKit          3D

 22 23  0  0  0  0  0  0  0  0999 V2000
   44.9280   35.1370   44.0860 C   0  0  0  0  0  0  0  0  0  0  0  0
   45.7740   35.4260   42.9870 C   0  0  0  0  0  0  0  0  0  0  0  0
   46.9540   34.6990   42.8650 C   0  0  0  0  0  0  0  0  0  0  0  0
   47.2350   33.7660   43.7860 N   0  0  0  0  0  0  0  0  0  0  0  0
   46.4110   33.5100   44.8260 C   0  0  0  0  0  0  0  0  0  0  0  0
   45.2810   34.1880   44.9650 N   0  0  0  0  0  0  0  0  0  0  0  0
   43.7130   35.8660   44.2350 N   0  0  0  0  0  0  0  0  0  0  0  0
   47.7650   35.0360   41.7330 C   0  0  0  0  0  0  0  0  0  0  0  0
   48.7310   35.8300   41.7050 O   0  0  0  0  0  0  0  0  0  0  0  0
   47.4750   34.4110   40.4400 C   0  0  0  0  0  0  0  0  0  0  0  0
   48.2750   34.5870   39.3440 C   0  0  0  0  0  0  0  0  0  0  0  0
   48.0330   34.0120   38.1030 C   0  0  0  0  0  0  0  0  0  0  0  0
   46.9340   33.2380   38.0150 N   0  0  0  0  0  0  0  0  0  0  0  0
   46.1280   33.0440   39.0680 C   0  0  0  0  0  0  0  0  0  0  0  0
   46.3880   33.6150   40.2610 N   0  0  0  0  0  0  0  0  0  0  0  0
   45.5064   36.2007   42.2533 H   0  0  0  0  0  0  0  0  0  0  0  0
   46.6793   32.7359   45.5600 H   0  0  0  0  0  0  0  0  0  0  0  0
   43.4600   36.5912   43.5487 H   0  0  0  0  0  0  0  0  0  0  0  0
   43.0876   35.6679   45.0290 H   0  0  0  0  0  0  0  0  0  0  0  0
   49.1655   35.2237   39.4525 H   0  0  0  0  0  0  0  0  0  0  0  0
   48.6989   34.1787   37.2435 H   0  0  0  0  0  0  0  0  0  0  0  0
   45.2380   32.4072   38.9567 H   0  0  0  0  0  0  0  0  0  0  0  0
  1  7  1  0
  1  6  2  0
  2  1  1  0
  3  2  2  0
  3  4  1  0
  4  5  2  0
  5  6  1  0
  8  3  1  0
  9  8  2  0
 10  8  1  0
 11 10  2  0
 12 11  1  0
 13 12  2  0
 13 14  1  0
 14 15  2  0
 15 10  1  0
  2 16  1  0
  5 17  1  0
  7 18  1  0
  7 19  1  0
 11 20  1  0
 12 21  1  0
 14 22  1  0
M  ISO  5  16  14  17  14  20  14  21  14  22  14
M  END
>  <minimizedAffinity>  (1) 
-5.02209949

>  <minimizedRMSD>  (1) 
0.563642323

$$$$
