
     RDKit          3D

 26 27  0  0  0  0  0  0  0  0999 V2000
   44.9260   35.1130   44.2290 C   0  0  0  0  0  0  0  0  0  0  0  0
   45.7020   35.2870   43.0610 C   0  0  0  0  0  0  0  0  0  0  0  0
   46.8660   34.5140   42.9370 C   0  0  0  0  0  0  0  0  0  0  0  0
   47.1730   33.6530   43.9430 N   0  0  0  0  0  0  0  0  0  0  0  0
   46.4050   33.5190   45.0400 C   0  0  0  0  0  0  0  0  0  0  0  0
   45.2930   34.2470   45.1730 N   0  0  0  0  0  0  0  0  0  0  0  0
   43.7410   35.8780   44.3860 N   0  0  0  0  0  0  0  0  0  0  0  0
   47.6270   34.7160   41.7440 C   0  0  0  0  0  0  0  0  0  0  0  0
   48.4380   35.6580   41.5560 O   0  0  0  0  0  0  0  0  0  0  0  0
   47.6350   33.9310   40.5540 N   0  0  0  0  0  0  0  0  0  0  0  0
   46.3380   33.5220   40.0400 C   0  0  0  0  0  0  0  0  0  0  0  0
   46.5160   33.2680   38.5600 C   0  0  0  0  0  0  0  0  0  0  0  0
   47.8990   33.8620   38.3110 C   0  0  0  0  0  0  0  0  0  0  0  0
   48.5750   33.3420   39.5870 C   0  0  0  0  0  0  0  0  0  0  0  0
   45.4047   36.0012   42.2790 H   0  0  0  0  0  0  0  0  0  0  0  0
   46.6936   32.8086   45.8287 H   0  0  0  0  0  0  0  0  0  0  0  0
   43.4591   36.5468   43.6551 H   0  0  0  0  0  0  0  0  0  0  0  0
   43.1628   35.7644   45.2308 H   0  0  0  0  0  0  0  0  0  0  0  0
   46.0030   32.6037   40.5444 H   0  0  0  0  0  0  0  0  0  0  0  0
   45.5793   34.2981   40.2192 H   0  0  0  0  0  0  0  0  0  0  0  0
   46.4942   32.1921   38.3319 H   0  0  0  0  0  0  0  0  0  0  0  0
   45.7231   33.7018   37.9330 H   0  0  0  0  0  0  0  0  0  0  0  0
   48.3668   33.4649   37.3980 H   0  0  0  0  0  0  0  0  0  0  0  0
   47.9397   34.9489   38.1467 H   0  0  0  0  0  0  0  0  0  0  0  0
   48.5914   32.2431   39.6345 H   0  0  0  0  0  0  0  0  0  0  0  0
   49.6360   33.6011   39.7177 H   0  0  0  0  0  0  0  0  0  0  0  0
  1  7  1  0
  1  6  2  0
  2  1  1  0
  3  2  2  0
  3  4  1  0
  4  5  2  0
  5  6  1  0
  8  3  1  0
  9  8  2  0
 10  8  1  0
 11 10  1  0
 12 11  1  0
 13 12  1  0
 13 14  1  0
 14 10  1  0
  2 15  1  0
  5 16  1  0
  7 17  1  0
  7 18  1  0
 11 19  1  0
 11 20  1  0
 12 21  1  0
 12 22  1  0
 13 23  1  0
 13 24  1  0
 14 25  1  0
 14 26  1  0
M  ISO  8  15  14  16  14  19  13  20  13  21  13  22  13  23  13  24  13
M  ISO  2  25  13  26  13
M  END
>  <minimizedAffinity>  (1) 
-4.74238968

>  <minimizedRMSD>  (1) 
0.489657283

$$$$
