
     RDKit          3D

 27 28  0  0  0  0  0  0  0  0999 V2000
   44.9110   35.1160   44.0600 C   0  0  0  0  0  0  0  0  0  0  0  0
   45.7650   35.3840   42.9630 C   0  0  0  0  0  0  0  0  0  0  0  0
   46.9660   34.6720   42.9070 C   0  0  0  0  0  0  0  0  0  0  0  0
   47.2570   33.7770   43.8790 N   0  0  0  0  0  0  0  0  0  0  0  0
   46.3890   33.5620   44.9130 C   0  0  0  0  0  0  0  0  0  0  0  0
   45.2540   34.2320   44.9710 N   0  0  0  0  0  0  0  0  0  0  0  0
   43.6800   35.8390   44.1170 N   0  0  0  0  0  0  0  0  0  0  0  0
   47.8200   34.9650   41.7750 C   0  0  0  0  0  0  0  0  0  0  0  0
   48.6260   35.9040   41.6920 O   0  0  0  0  0  0  0  0  0  0  0  0
   47.6260   34.0300   40.7460 O   0  0  0  0  0  0  0  0  0  0  0  0
   49.9150   32.7240   41.2860 O   0  0  0  0  0  0  0  0  0  0  0  0
   48.6610   32.6970   40.4710 P   0  0  1  0  0  0  0  0  0  0  0  0
   47.7730   31.3120   40.9540 O   0  0  0  0  0  0  0  0  0  0  0  0
   48.9800   32.5940   38.8310 O   0  0  0  0  0  0  0  0  0  0  0  0
   48.1080   33.3090   38.0310 C   0  0  0  0  0  0  0  0  0  0  0  0
   48.5350   33.3800   36.5740 C   0  0  0  0  0  0  0  0  0  0  0  0
   48.4820   34.5970   37.4180 C   0  0  0  0  0  0  0  0  0  0  0  0
   45.4954   36.1190   42.1903 H   0  0  0  0  0  0  0  0  0  0  0  0
   46.6368   32.8306   45.6964 H   0  0  0  0  0  0  0  0  0  0  0  0
   43.4500   36.5231   43.3821 H   0  0  0  0  0  0  0  0  0  0  0  0
   43.0225   35.6761   44.8930 H   0  0  0  0  0  0  0  0  0  0  0  0
   47.7440   31.2668   41.9425 H   0  0  0  0  0  0  0  0  0  0  0  0
   47.2345   33.0069   38.6274 H   0  0  0  0  0  0  0  0  0  0  0  0
   47.7962   33.2296   35.7730 H   0  0  0  0  0  0  0  0  0  0  0  0
   49.2993   32.8868   35.9554 H   0  0  0  0  0  0  0  0  0  0  0  0
   49.4169   35.0924   37.7189 H   0  0  0  0  0  0  0  0  0  0  0  0
   47.9856   35.5741   37.3240 H   0  0  0  0  0  0  0  0  0  0  0  0
  1  7  1  0
  1  6  2  0
  2  1  1  0
  3  2  2  0
  3  4  1  0
  4  5  2  0
  5  6  1  0
  8  3  1  0
  9  8  2  0
 10  8  1  0
 12 10  1  0
 12 13  1  0
 12 11  2  0
 14 12  1  0
 15 14  1  0
 16 17  1  0
 16 15  1  0
 17 15  1  0
  2 18  1  0
  5 19  1  0
  7 20  1  0
  7 21  1  0
 13 22  1  0
 15 23  1  0
 16 24  1  0
 16 25  1  0
 17 26  1  0
 17 27  1  0
M  ISO  8  18  14  19  14  22   3  23  13  24  13  25  13  26  13  27  13
M  END
>  <minimizedAffinity>  (1) 
-4.63907385

>  <minimizedRMSD>  (1) 
1.72974169

$$$$
