
     RDKit          3D

 22 22  0  0  0  0  0  0  0  0999 V2000
   44.8860   35.1290   44.0840 C   0  0  0  0  0  0  0  0  0  0  0  0
   45.7030   35.4330   42.9840 C   0  0  0  0  0  0  0  0  0  0  0  0
   46.9180   34.7440   42.8690 C   0  0  0  0  0  0  0  0  0  0  0  0
   47.2600   33.8320   43.7920 N   0  0  0  0  0  0  0  0  0  0  0  0
   46.4280   33.5710   44.8480 C   0  0  0  0  0  0  0  0  0  0  0  0
   45.2740   34.2160   44.9710 N   0  0  0  0  0  0  0  0  0  0  0  0
   43.6540   35.8000   44.2380 N   0  0  0  0  0  0  0  0  0  0  0  0
   47.7210   35.0930   41.7210 C   0  0  0  0  0  0  0  0  0  0  0  0
   48.7320   35.8370   41.7230 O   0  0  0  0  0  0  0  0  0  0  0  0
   47.2340   34.4870   40.5470 O   0  0  0  0  0  0  0  0  0  0  0  0
   47.2840   32.3640   38.9270 O   0  0  0  0  0  0  0  0  0  0  0  0
   48.1210   33.3720   39.6150 P   0  0  1  0  0  0  0  0  0  0  0  0
   48.9240   34.3000   38.4300 O   0  0  0  0  0  0  0  0  0  0  0  0
   49.2770   32.6420   40.5970 O   0  0  0  0  0  0  0  0  0  0  0  0
   50.2420   31.7460   40.1800 C   0  0  0  0  0  0  0  0  0  0  0  0
   51.3420   31.9350   40.7650 O   0  0  0  0  0  0  0  0  0  0  0  0
   45.4008   36.1844   42.2396 H   0  0  0  0  0  0  0  0  0  0  0  0
   46.7178   32.8218   45.5995 H   0  0  0  0  0  0  0  0  0  0  0  0
   43.3617   36.5052   43.5465 H   0  0  0  0  0  0  0  0  0  0  0  0
   43.0471   35.5845   45.0419 H   0  0  0  0  0  0  0  0  0  0  0  0
   49.5036   34.9698   38.8722 H   0  0  0  0  0  0  0  0  0  0  0  0
   50.0709   30.9618   39.4278 H   0  0  0  0  0  0  0  0  0  0  0  0
  1  7  1  0
  1  6  2  0
  2  1  1  0
  3  2  2  0
  3  4  1  0
  4  5  2  0
  5  6  1  0
  8  9  2  0
  8  3  1  0
 10  8  1  0
 12 11  2  0
 12 10  1  0
 12 14  1  0
 13 12  1  0
 15 14  1  0
 15 16  2  0
  2 17  1  0
  5 18  1  0
  7 19  1  0
  7 20  1  0
 13 21  1  0
 15 22  1  0
M  ISO  4  17  14  18  14  21   3  22   6
M  END
>  <minimizedAffinity>  (1) 
-4.50123596

>  <minimizedRMSD>  (1) 
2.1957562

$$$$
