
     RDKit          3D

 15 15  0  0  0  0  0  0  0  0999 V2000
   44.5150   36.0450   44.6150 C   0  0  0  0  0  0  0  0  0  0  0  0
   45.1620   36.1080   43.3630 C   0  0  0  0  0  0  0  0  0  0  0  0
   46.0560   35.0840   43.0480 C   0  0  0  0  0  0  0  0  0  0  0  0
   46.2640   34.0900   43.9380 N   0  0  0  0  0  0  0  0  0  0  0  0
   45.6290   34.0550   45.1330 C   0  0  0  0  0  0  0  0  0  0  0  0
   44.7500   35.0450   45.4620 N   0  0  0  0  0  0  0  0  0  0  0  0
   46.7610   35.0110   41.8600 O   0  0  0  0  0  0  0  0  0  0  0  0
   46.4430   34.1330   40.8250 C   0  0  0  0  0  0  0  0  0  0  0  0
   47.2230   33.2510   40.3810 O   0  0  0  0  0  0  0  0  0  0  0  0
   45.1340   34.2640   40.2460 N   0  0  0  0  0  0  0  0  0  0  0  0
   43.8040   36.8358   44.8963 H   0  0  0  0  0  0  0  0  0  0  0  0
   44.9690   36.9331   42.6616 H   0  0  0  0  0  0  0  0  0  0  0  0
   45.8211   33.2312   45.8362 H   0  0  0  0  0  0  0  0  0  0  0  0
   44.8459   33.6411   39.4779 H   0  0  0  0  0  0  0  0  0  0  0  0
   44.4840   34.9808   40.5991 H   0  0  0  0  0  0  0  0  0  0  0  0
  1  6  2  0
  2  1  1  0
  3  2  2  0
  3  4  1  0
  4  5  2  0
  5  6  1  0
  7  3  1  0
  8  7  1  0
  9  8  2  0
 10  8  1  0
  1 11  1  0
  2 12  1  0
  5 13  1  0
 10 14  1  0
 10 15  1  0
M  ISO  3  11  14  12  14  13  14
M  END
>  <minimizedAffinity>  (1) 
-3.47130203

>  <minimizedRMSD>  (1) 
0.195498809

$$$$
