
     RDKit          3D

 24 25  0  0  0  0  0  0  0  0999 V2000
   44.5030   35.9360   44.2980 C   0  0  0  0  0  0  0  0  0  0  0  0
   45.3070   36.0280   43.1690 C   0  0  0  0  0  0  0  0  0  0  0  0
   46.3630   35.1410   42.9820 C   0  0  0  0  0  0  0  0  0  0  0  0
   46.5430   34.2100   43.9520 N   0  0  0  0  0  0  0  0  0  0  0  0
   45.7630   34.1260   45.0400 C   0  0  0  0  0  0  0  0  0  0  0  0
   44.7440   34.9940   45.2050 N   0  0  0  0  0  0  0  0  0  0  0  0
   44.3830   34.1330   47.4600 F   0  0  0  0  0  0  0  0  0  0  0  0
   45.2880   33.1530   47.2430 C   0  0  0  0  0  0  0  0  0  0  0  0
   46.0020   33.1050   46.0540 C   0  0  0  0  0  0  0  0  0  0  0  0
   46.9250   32.1020   45.8360 C   0  0  0  0  0  0  0  0  0  0  0  0
   47.1880   31.1160   46.7580 C   0  0  0  0  0  0  0  0  0  0  0  0
   46.4870   31.1510   47.9430 C   0  0  0  0  0  0  0  0  0  0  0  0
   45.5490   32.1570   48.1810 C   0  0  0  0  0  0  0  0  0  0  0  0
   47.2370   35.1070   41.9250 O   0  0  0  0  0  0  0  0  0  0  0  0
   46.8870   34.2300   40.8410 C   0  0  0  0  0  0  0  0  0  0  0  0
   45.5560   34.3580   40.5290 F   0  0  0  0  0  0  0  0  0  0  0  0
   47.6490   34.6020   39.7300 F   0  0  0  0  0  0  0  0  0  0  0  0
   47.2220   32.9060   41.1610 F   0  0  0  0  0  0  0  0  0  0  0  0
   43.6699   36.6399   44.4412 H   0  0  0  0  0  0  0  0  0  0  0  0
   45.1078   36.8068   42.4181 H   0  0  0  0  0  0  0  0  0  0  0  0
   47.4743   32.0909   44.8830 H   0  0  0  0  0  0  0  0  0  0  0  0
   47.9300   30.3293   46.5567 H   0  0  0  0  0  0  0  0  0  0  0  0
   46.6676   30.3808   48.7073 H   0  0  0  0  0  0  0  0  0  0  0  0
   45.0013   32.1633   49.1349 H   0  0  0  0  0  0  0  0  0  0  0  0
  1  6  2  0
  2  1  1  0
  3  2  2  0
  3  4  1  0
  4  5  2  0
  5  6  1  0
  5  9  1  0
  8  7  1  0
  8 13  2  0
  9  8  1  0
 10  9  2  0
 10 11  1  0
 11 12  2  0
 12 13  1  0
 14  3  1  0
 15 18  1  0
 15 14  1  0
 16 15  1  0
 17 15  1  0
  1 19  1  0
  2 20  1  0
 10 21  1  0
 11 22  1  0
 12 23  1  0
 13 24  1  0
M  ISO  6  19  14  20  14  21  14  22  14  23  14  24  14
M  END
>  <minimizedAffinity>  (1) 
-5.52261209

>  <minimizedRMSD>  (1) 
0.225954741

$$$$
