
     RDKit          3D

 17 17  0  0  0  0  0  0  0  0999 V2000
   44.4390   36.0340   44.7130 C   0  0  0  0  0  0  0  0  0  0  0  0
   45.1320   36.0540   43.4990 C   0  0  0  0  0  0  0  0  0  0  0  0
   46.0710   35.0590   43.2430 C   0  0  0  0  0  0  0  0  0  0  0  0
   46.2600   34.1180   44.1990 N   0  0  0  0  0  0  0  0  0  0  0  0
   45.5840   34.1170   45.3560 C   0  0  0  0  0  0  0  0  0  0  0  0
   44.6760   35.0810   45.6020 N   0  0  0  0  0  0  0  0  0  0  0  0
   45.8440   33.0520   46.3630 C   0  0  0  0  0  0  0  0  0  0  0  0
   47.1510   33.1050   46.8070 F   0  0  0  0  0  0  0  0  0  0  0  0
   44.9340   33.1280   47.3870 F   0  0  0  0  0  0  0  0  0  0  0  0
   45.6990   31.7770   45.7980 F   0  0  0  0  0  0  0  0  0  0  0  0
   46.8300   34.9470   42.0930 O   0  0  0  0  0  0  0  0  0  0  0  0
   46.2370   34.1960   41.0190 C   0  0  0  0  0  0  0  0  0  0  0  0
   44.9780   34.7050   40.7300 F   0  0  0  0  0  0  0  0  0  0  0  0
   47.0540   34.3450   39.8970 F   0  0  0  0  0  0  0  0  0  0  0  0
   46.1810   32.8380   41.3270 F   0  0  0  0  0  0  0  0  0  0  0  0
   43.6936   36.8131   44.9309 H   0  0  0  0  0  0  0  0  0  0  0  0
   44.9383   36.8435   42.7579 H   0  0  0  0  0  0  0  0  0  0  0  0
  1  6  2  0
  2  1  1  0
  3  2  2  0
  3  4  1  0
  4  5  2  0
  5  6  1  0
  5  7  1  0
  7  8  1  0
  7  9  1  0
 10  7  1  0
 11  3  1  0
 12 15  1  0
 12 11  1  0
 13 12  1  0
 14 12  1  0
  1 16  1  0
  2 17  1  0
M  ISO  2  16  14  17  14
M  END
>  <minimizedAffinity>  (1) 
-4.62870598

>  <minimizedRMSD>  (1) 
0.664553702

$$$$
