
     RDKit          3D

 20 20  0  0  0  0  0  0  0  0999 V2000
   44.8680   34.9120   43.7890 C   0  0  0  0  0  0  0  0  0  0  0  0
   45.7390   35.5150   42.8760 C   0  0  0  0  0  0  0  0  0  0  0  0
   47.0460   35.0450   42.7630 C   0  0  0  0  0  0  0  0  0  0  0  0
   47.4000   34.0190   43.5570 N   0  0  0  0  0  0  0  0  0  0  0  0
   46.5560   33.4480   44.4290 C   0  0  0  0  0  0  0  0  0  0  0  0
   45.2960   33.8960   44.5420 N   0  0  0  0  0  0  0  0  0  0  0  0
   47.9950   35.5500   41.9070 O   0  0  0  0  0  0  0  0  0  0  0  0
   48.2080   34.8320   40.6920 C   0  0  0  0  0  0  0  0  0  0  0  0
   46.9820   34.4250   40.1730 F   0  0  0  0  0  0  0  0  0  0  0  0
   48.7960   35.6980   39.7620 F   0  0  0  0  0  0  0  0  0  0  0  0
   49.0820   33.7500   40.8750 F   0  0  0  0  0  0  0  0  0  0  0  0
   46.9330   32.3110   45.3120 C   0  0  0  0  0  0  0  0  0  0  0  0
   46.7310   32.7020   46.7830 C   0  0  0  0  0  0  0  0  0  0  0  0
   43.8337   35.2736   43.8864 H   0  0  0  0  0  0  0  0  0  0  0  0
   45.3952   36.3533   42.2523 H   0  0  0  0  0  0  0  0  0  0  0  0
   46.3023   31.4412   45.0759 H   0  0  0  0  0  0  0  0  0  0  0  0
   47.9909   32.0593   45.1463 H   0  0  0  0  0  0  0  0  0  0  0  0
   47.1388   31.9126   47.4315 H   0  0  0  0  0  0  0  0  0  0  0  0
   47.2527   33.6490   46.9857 H   0  0  0  0  0  0  0  0  0  0  0  0
   45.6568   32.8245   46.9857 H   0  0  0  0  0  0  0  0  0  0  0  0
  1  6  2  0
  2  1  1  0
  3  2  2  0
  3  4  1  0
  4  5  2  0
  5  6  1  0
  5 12  1  0
  7  3  1  0
  8 11  1  0
  8  7  1  0
  9  8  1  0
 10  8  1  0
 12 13  1  0
  1 14  1  0
  2 15  1  0
 12 16  1  0
 12 17  1  0
 13 18  1  0
 13 19  1  0
 13 20  1  0
M  ISO  7  14  14  15  14  16   8  17   8  18   8  19   8  20   8
M  END
>  <minimizedAffinity>  (1) 
-4.10389137

>  <minimizedRMSD>  (1) 
1.27395403

$$$$
