
     RDKit          3D

 16 16  0  0  0  0  0  0  0  0999 V2000
   44.5310   35.8870   44.4040 C   0  0  0  0  0  0  0  0  0  0  0  0
   45.3170   36.0100   43.2480 C   0  0  0  0  0  0  0  0  0  0  0  0
   46.3520   35.1160   43.0300 C   0  0  0  0  0  0  0  0  0  0  0  0
   46.5570   34.1510   43.9610 N   0  0  0  0  0  0  0  0  0  0  0  0
   45.7930   34.0490   45.0610 C   0  0  0  0  0  0  0  0  0  0  0  0
   44.7910   34.9130   45.2730 N   0  0  0  0  0  0  0  0  0  0  0  0
   46.0450   33.0030   46.0310 C   0  0  0  0  0  0  0  0  0  0  0  0
   45.4350   32.9700   47.1310 O   0  0  0  0  0  0  0  0  0  0  0  0
   47.2030   35.1160   41.9450 O   0  0  0  0  0  0  0  0  0  0  0  0
   46.8610   34.2440   40.8640 C   0  0  0  0  0  0  0  0  0  0  0  0
   45.5130   34.3900   40.5520 F   0  0  0  0  0  0  0  0  0  0  0  0
   47.6130   34.6160   39.7550 F   0  0  0  0  0  0  0  0  0  0  0  0
   47.1770   32.9110   41.1710 F   0  0  0  0  0  0  0  0  0  0  0  0
   43.7061   36.5904   44.5906 H   0  0  0  0  0  0  0  0  0  0  0  0
   45.1127   36.8099   42.5210 H   0  0  0  0  0  0  0  0  0  0  0  0
   46.7846   32.2218   45.8013 H   0  0  0  0  0  0  0  0  0  0  0  0
  1  6  2  0
  2  1  1  0
  3  2  2  0
  3  4  1  0
  4  5  2  0
  5  6  1  0
  5  7  1  0
  7  8  2  0
  9  3  1  0
 10 13  1  0
 10  9  1  0
 11 10  1  0
 12 10  1  0
  1 14  1  0
  2 15  1  0
  7 16  1  0
M  ISO  3  14  14  15  14  16   6
M  END
>  <minimizedAffinity>  (1) 
-4.06773376

>  <minimizedRMSD>  (1) 
0.0590379201

$$$$
