
     RDKit          3D

 34 36  0  0  0  0  0  0  0  0999 V2000
   45.5020   31.8720   48.6270 C   0  0  0  0  0  0  0  0  0  0  0  0
   46.4890   30.9170   48.1200 N   0  0  0  0  0  0  0  0  0  0  0  0
   46.2180   29.9320   47.2230 C   0  0  0  0  0  0  0  0  0  0  0  0
   47.3430   29.2320   46.9670 N   0  0  0  0  0  0  0  0  0  0  0  0
   48.3520   29.7550   47.6930 C   0  0  0  0  0  0  0  0  0  0  0  0
   49.6770   29.4080   47.7870 C   0  0  0  0  0  0  0  0  0  0  0  0
   50.4360   30.1380   48.6140 N   0  0  0  0  0  0  0  0  0  0  0  0
   49.8940   31.1570   49.3030 C   0  0  0  0  0  0  0  0  0  0  0  0
   48.5870   31.5110   49.2190 N   0  0  0  0  0  0  0  0  0  0  0  0
   47.7980   30.7930   48.3950 C   0  0  0  0  0  0  0  0  0  0  0  0
   50.1360   28.3050   47.0020 N   0  0  0  0  0  0  0  0  0  0  0  0
   46.0490   33.0590   46.5760 C   0  0  0  0  0  0  0  0  0  0  0  0
   45.2060   32.8420   47.5590 C   0  0  0  0  0  0  0  0  0  0  0  0
   44.4740   35.8120   44.7140 C   0  0  0  0  0  0  0  0  0  0  0  0
   45.2060   35.7970   43.5110 C   0  0  0  0  0  0  0  0  0  0  0  0
   46.2100   34.8700   43.3470 C   0  0  0  0  0  0  0  0  0  0  0  0
   46.4300   34.0230   44.3650 N   0  0  0  0  0  0  0  0  0  0  0  0
   45.7410   34.0350   45.5020 C   0  0  0  0  0  0  0  0  0  0  0  0
   44.7600   34.9280   45.6840 N   0  0  0  0  0  0  0  0  0  0  0  0
   46.9920   34.7510   42.2280 O   0  0  0  0  0  0  0  0  0  0  0  0
   46.4260   34.0700   41.0950 C   0  0  0  0  0  0  0  0  0  0  0  0
   45.2250   34.6930   40.7530 F   0  0  0  0  0  0  0  0  0  0  0  0
   47.3320   34.2080   40.0360 F   0  0  0  0  0  0  0  0  0  0  0  0
   46.2460   32.7150   41.3530 F   0  0  0  0  0  0  0  0  0  0  0  0
   44.5822   31.3403   48.9119 H   0  0  0  0  0  0  0  0  0  0  0  0
   45.8975   32.3918   49.5121 H   0  0  0  0  0  0  0  0  0  0  0  0
   45.2329   29.7357   46.7747 H   0  0  0  0  0  0  0  0  0  0  0  0
   50.5468   31.7364   49.9725 H   0  0  0  0  0  0  0  0  0  0  0  0
   51.1237   28.0164   47.0472 H   0  0  0  0  0  0  0  0  0  0  0  0
   49.4790   27.7988   46.3912 H   0  0  0  0  0  0  0  0  0  0  0  0
   47.0003   32.5074   46.5483 H   0  0  0  0  0  0  0  0  0  0  0  0
   44.2569   33.3974   47.5855 H   0  0  0  0  0  0  0  0  0  0  0  0
   43.6687   36.5471   44.8592 H   0  0  0  0  0  0  0  0  0  0  0  0
   44.9780   36.5177   42.7118 H   0  0  0  0  0  0  0  0  0  0  0  0
  2 10  1  0
  2  1  1  0
  3  2  1  0
  4  3  2  0
  4  5  1  0
  5  6  2  0
  5 10  1  0
  6  7  1  0
  7  8  2  0
  9  8  1  0
 10  9  2  0
 11  6  1  0
 12 13  2  0
 13  1  1  0
 14 19  2  0
 15 14  1  0
 16 15  2  0
 16 17  1  0
 17 18  2  0
 18 19  1  0
 18 12  1  0
 20 16  1  0
 21 24  1  0
 21 20  1  0
 22 21  1  0
 23 21  1  0
  1 25  1  0
  1 26  1  0
  3 27  1  0
  8 28  1  0
 11 29  1  0
 11 30  1  0
 12 31  1  0
 13 32  1  0
 14 33  1  0
 15 34  1  0
M  ISO  6  25   8  26   8  27  14  28  14  33  14  34  14
M  END
>  <minimizedAffinity>  (1) 
-5.56582117

>  <minimizedRMSD>  (1) 
1.08438981

$$$$
