
     RDKit          3D

 28 29  0  0  0  0  0  0  0  0999 V2000
   44.4470   35.9110   44.6110 C   0  0  0  0  0  0  0  0  0  0  0  0
   45.1690   35.9220   43.4160 C   0  0  0  0  0  0  0  0  0  0  0  0
   46.1730   34.9870   43.2280 C   0  0  0  0  0  0  0  0  0  0  0  0
   46.3940   34.1130   44.2280 N   0  0  0  0  0  0  0  0  0  0  0  0
   45.7020   34.1080   45.3670 C   0  0  0  0  0  0  0  0  0  0  0  0
   44.7280   35.0030   45.5640 N   0  0  0  0  0  0  0  0  0  0  0  0
   46.0030   33.1150   46.4180 C   0  0  0  0  0  0  0  0  0  0  0  0
   45.2800   33.0200   47.4920 C   0  0  0  0  0  0  0  0  0  0  0  0
   45.5500   32.0420   48.5660 C   0  0  0  0  0  0  0  0  0  0  0  0
   45.6940   30.7350   47.9730 C   0  0  0  0  0  0  0  0  0  0  0  0
   44.8050   29.8190   47.4190 C   0  0  0  0  0  0  0  0  0  0  0  0
   45.2760   28.6470   46.9330 C   0  0  0  0  0  0  0  0  0  0  0  0
   46.6460   28.4000   47.0050 C   0  0  0  0  0  0  0  0  0  0  0  0
   47.3410   29.9180   47.8150 S   0  0  0  0  0  0  0  0  0  0  0  0
   46.9770   34.8670   42.1050 O   0  0  0  0  0  0  0  0  0  0  0  0
   46.4280   34.1430   40.9960 C   0  0  0  0  0  0  0  0  0  0  0  0
   45.1630   34.6480   40.7090 F   0  0  0  0  0  0  0  0  0  0  0  0
   47.2710   34.3630   39.9000 F   0  0  0  0  0  0  0  0  0  0  0  0
   46.3850   32.7750   41.2520 F   0  0  0  0  0  0  0  0  0  0  0  0
   43.6458   36.6469   44.7742 H   0  0  0  0  0  0  0  0  0  0  0  0
   44.9435   36.6629   42.6349 H   0  0  0  0  0  0  0  0  0  0  0  0
   46.8611   32.4392   46.2875 H   0  0  0  0  0  0  0  0  0  0  0  0
   44.4242   33.7012   47.6082 H   0  0  0  0  0  0  0  0  0  0  0  0
   46.4773   32.3149   49.0911 H   0  0  0  0  0  0  0  0  0  0  0  0
   44.7198   32.0377   49.2876 H   0  0  0  0  0  0  0  0  0  0  0  0
   43.7294   30.0454   47.3765 H   0  0  0  0  0  0  0  0  0  0  0  0
   44.5933   27.9062   46.4912 H   0  0  0  0  0  0  0  0  0  0  0  0
   47.1908   27.5087   46.6603 H   0  0  0  0  0  0  0  0  0  0  0  0
  1  6  2  0
  2  1  1  0
  3  2  2  0
  3  4  1  0
  4  5  2  0
  5  6  1  0
  5  7  1  0
  7  8  2  0
  8  9  1  0
 10  9  1  0
 11 10  2  0
 12 13  2  0
 12 11  1  0
 13 14  1  0
 14 10  1  0
 15  3  1  0
 16 19  1  0
 16 15  1  0
 17 16  1  0
 18 16  1  0
  1 20  1  0
  2 21  1  0
  7 22  1  0
  8 23  1  0
  9 24  1  0
  9 25  1  0
 11 26  1  0
 12 27  1  0
 13 28  1  0
M  ISO  7  20  14  21  14  24   8  25   8  26  14  27  14  28  14
M  END
>  <minimizedAffinity>  (1) 
-5.05758524

>  <minimizedRMSD>  (1) 
1.1694032

$$$$
