
     RDKit          3D

 41 43  0  0  0  0  0  0  0  0999 V2000
   47.1480   30.5030   47.0070 C   0  0  0  0  0  0  0  0  0  0  0  0
   45.4270   29.0460   47.6940 C   0  0  0  0  0  0  0  0  0  0  0  0
   44.9770   29.7100   48.6570 O   0  0  0  0  0  0  0  0  0  0  0  0
   46.4720   29.2520   46.7690 N   0  0  0  0  0  0  0  0  0  0  0  0
   44.6360   27.7910   47.5700 C   0  0  0  0  0  0  0  0  0  0  0  0
   44.7540   26.7410   48.4240 C   0  0  0  0  0  0  0  0  0  0  0  0
   43.9740   25.6240   48.2230 C   0  0  0  0  0  0  0  0  0  0  0  0
   43.0740   25.4890   47.2080 C   0  0  0  0  0  0  0  0  0  0  0  0
   42.9430   26.5510   46.3260 C   0  0  0  0  0  0  0  0  0  0  0  0
   42.0360   26.4350   45.2930 C   0  0  0  0  0  0  0  0  0  0  0  0
   41.8870   27.4870   44.3960 C   0  0  0  0  0  0  0  0  0  0  0  0
   42.6430   28.6070   44.5660 C   0  0  0  0  0  0  0  0  0  0  0  0
   43.5360   28.6960   45.6040 C   0  0  0  0  0  0  0  0  0  0  0  0
   43.7300   27.6840   46.5270 C   0  0  0  0  0  0  0  0  0  0  0  0
   47.2550   32.1760   45.2550 C   0  0  0  0  0  0  0  0  0  0  0  0
   46.5830   31.5930   46.1980 C   0  0  0  0  0  0  0  0  0  0  0  0
   44.9200   34.5910   43.8290 C   0  0  0  0  0  0  0  0  0  0  0  0
   45.7140   35.2820   42.9160 C   0  0  0  0  0  0  0  0  0  0  0  0
   47.0590   34.9200   42.7870 C   0  0  0  0  0  0  0  0  0  0  0  0
   47.5060   33.9120   43.5640 N   0  0  0  0  0  0  0  0  0  0  0  0
   46.7140   33.2630   44.4360 C   0  0  0  0  0  0  0  0  0  0  0  0
   45.4140   33.5970   44.5760 N   0  0  0  0  0  0  0  0  0  0  0  0
   47.9530   35.5110   41.9330 O   0  0  0  0  0  0  0  0  0  0  0  0
   48.2180   34.8340   40.6960 C   0  0  0  0  0  0  0  0  0  0  0  0
   47.0040   34.4030   40.1380 F   0  0  0  0  0  0  0  0  0  0  0  0
   48.8160   35.7570   39.8330 F   0  0  0  0  0  0  0  0  0  0  0  0
   49.0890   33.7530   40.8690 F   0  0  0  0  0  0  0  0  0  0  0  0
   47.0511   30.7629   48.0715 H   0  0  0  0  0  0  0  0  0  0  0  0
   48.2038   30.3797   46.7239 H   0  0  0  0  0  0  0  0  0  0  0  0
   46.7207   28.5920   46.0184 H   0  0  0  0  0  0  0  0  0  0  0  0
   45.4627   26.7825   49.2643 H   0  0  0  0  0  0  0  0  0  0  0  0
   44.0843   24.7862   48.9272 H   0  0  0  0  0  0  0  0  0  0  0  0
   42.4752   24.5735   47.0931 H   0  0  0  0  0  0  0  0  0  0  0  0
   41.4367   25.5195   45.1801 H   0  0  0  0  0  0  0  0  0  0  0  0
   41.1712   27.4159   43.5638 H   0  0  0  0  0  0  0  0  0  0  0  0
   42.5368   29.4479   43.8648 H   0  0  0  0  0  0  0  0  0  0  0  0
   44.1270   29.6179   45.7073 H   0  0  0  0  0  0  0  0  0  0  0  0
   48.2832   31.8372   45.0602 H   0  0  0  0  0  0  0  0  0  0  0  0
   45.5541   31.9255   46.3999 H   0  0  0  0  0  0  0  0  0  0  0  0
   43.8614   34.8694   43.9383 H   0  0  0  0  0  0  0  0  0  0  0  0
   45.2915   36.0961   42.3087 H   0  0  0  0  0  0  0  0  0  0  0  0
  2  3  2  0
  4  1  1  0
  4  2  1  0
  5  2  1  0
  5  6  2  0
  7  6  1  0
  8  7  2  0
  9 14  2  0
  9  8  1  0
 10  9  1  0
 11 12  1  0
 11 10  2  0
 12 13  2  0
 13 14  1  0
 14  5  1  0
 15 16  2  0
 16  1  1  0
 17 22  2  0
 18 17  1  0
 19 18  2  0
 19 20  1  0
 20 21  2  0
 21 22  1  0
 21 15  1  0
 23 19  1  0
 24 27  1  0
 24 23  1  0
 25 24  1  0
 26 24  1  0
  1 28  1  0
  1 29  1  0
  4 30  1  0
  6 31  1  0
  7 32  1  0
  8 33  1  0
 10 34  1  0
 11 35  1  0
 12 36  1  0
 13 37  1  0
 15 38  1  0
 16 39  1  0
 17 40  1  0
 18 41  1  0
M  ISO  8  28   8  29   8  31  14  32  14  33  14  34  14  35  14  36  14
M  ISO  3  37  14  40  14  41  14
M  END
>  <minimizedAffinity>  (1) 
-6.0103364

>  <minimizedRMSD>  (1) 
1.64832747

$$$$
