
     RDKit          3D

 26 26  0  0  0  0  0  0  0  0999 V2000
   44.7820   33.4040   42.8010 C   0  0  0  0  0  0  0  0  0  0  0  0
   45.5280   34.3920   42.1500 C   0  0  0  0  0  0  0  0  0  0  0  0
   46.7720   34.7260   42.6460 C   0  0  0  0  0  0  0  0  0  0  0  0
   47.1810   34.0680   43.7340 N   0  0  0  0  0  0  0  0  0  0  0  0
   46.4750   33.1290   44.3550 C   0  0  0  0  0  0  0  0  0  0  0  0
   45.2640   32.7860   43.8940 N   0  0  0  0  0  0  0  0  0  0  0  0
   46.9910   32.4480   45.5470 C   0  0  0  0  0  0  0  0  0  0  0  0
   46.7540   32.8720   46.7650 C   0  0  0  0  0  0  0  0  0  0  0  0
   47.2820   32.1710   47.9490 C   0  0  0  0  0  0  0  0  0  0  0  0
   45.7370   30.6680   48.9300 C   0  0  0  0  0  0  0  0  0  0  0  0
   45.2170   31.4940   49.7430 O   0  0  0  0  0  0  0  0  0  0  0  0
   46.8130   30.8150   48.0340 N   0  0  0  0  0  0  0  0  0  0  0  0
   45.0390   29.4410   49.0340 O   0  0  0  0  0  0  0  0  0  0  0  0
   47.5930   35.6780   42.0930 O   0  0  0  0  0  0  0  0  0  0  0  0
   48.5160   35.2390   41.0990 C   0  0  0  0  0  0  0  0  0  0  0  0
   47.8010   34.7440   40.0090 F   0  0  0  0  0  0  0  0  0  0  0  0
   49.2550   36.3620   40.6870 F   0  0  0  0  0  0  0  0  0  0  0  0
   49.4100   34.2850   41.5920 F   0  0  0  0  0  0  0  0  0  0  0  0
   43.7895   33.1292   42.4145 H   0  0  0  0  0  0  0  0  0  0  0  0
   45.1294   34.8950   41.2566 H   0  0  0  0  0  0  0  0  0  0  0  0
   47.6026   31.5435   45.4137 H   0  0  0  0  0  0  0  0  0  0  0  0
   46.1440   33.7763   46.9070 H   0  0  0  0  0  0  0  0  0  0  0  0
   48.3806   32.1626   47.8945 H   0  0  0  0  0  0  0  0  0  0  0  0
   46.9283   32.7062   48.8426 H   0  0  0  0  0  0  0  0  0  0  0  0
   47.2199   30.0355   47.4977 H   0  0  0  0  0  0  0  0  0  0  0  0
   45.3049   28.6710   48.4714 H   0  0  0  0  0  0  0  0  0  0  0  0
  1  6  2  0
  2  3  2  0
  2  1  1  0
  3  4  1  0
  4  5  2  0
  5  7  1  0
  6  5  1  0
  7  8  2  0
  8  9  1  0
  9 12  1  0
 10 13  1  0
 10 11  2  0
 12 10  1  0
 14  3  1  0
 15 18  1  0
 15 14  1  0
 16 15  1  0
 17 15  1  0
  1 19  1  0
  2 20  1  0
  7 21  1  0
  8 22  1  0
  9 23  1  0
  9 24  1  0
 12 25  1  0
 13 26  1  0
M  ISO  5  19  14  20  14  23   8  24   8  26   3
M  END
>  <minimizedAffinity>  (1) 
-5.21103048

>  <minimizedRMSD>  (1) 
0.84510988

$$$$
