
     RDKit          3D

 27 27  0  0  0  0  0  0  0  0999 V2000
   44.7310   33.5100   42.7720 C   0  0  0  0  0  0  0  0  0  0  0  0
   45.4880   34.4610   42.0810 C   0  0  0  0  0  0  0  0  0  0  0  0
   46.7600   34.7740   42.5500 C   0  0  0  0  0  0  0  0  0  0  0  0
   47.1730   34.1240   43.6530 N   0  0  0  0  0  0  0  0  0  0  0  0
   46.4490   33.2190   44.3060 C   0  0  0  0  0  0  0  0  0  0  0  0
   45.2130   32.9020   43.8680 N   0  0  0  0  0  0  0  0  0  0  0  0
   46.9720   32.5500   45.5070 C   0  0  0  0  0  0  0  0  0  0  0  0
   46.6910   32.9610   46.7120 C   0  0  0  0  0  0  0  0  0  0  0  0
   47.2360   32.2610   47.9010 C   0  0  0  0  0  0  0  0  0  0  0  0
   45.7780   30.6690   48.8570 C   0  0  0  0  0  0  0  0  0  0  0  0
   45.2180   31.4040   49.7020 O   0  0  0  0  0  0  0  0  0  0  0  0
   46.8420   30.8930   47.9520 N   0  0  0  0  0  0  0  0  0  0  0  0
   45.0650   29.4310   48.9900 N   0  0  0  0  0  0  0  0  0  0  0  0
   47.6070   35.6820   41.9760 O   0  0  0  0  0  0  0  0  0  0  0  0
   48.4840   35.1840   40.9480 C   0  0  0  0  0  0  0  0  0  0  0  0
   47.7110   34.6700   39.9130 F   0  0  0  0  0  0  0  0  0  0  0  0
   49.2100   36.2970   40.4870 F   0  0  0  0  0  0  0  0  0  0  0  0
   49.3790   34.2390   41.4380 F   0  0  0  0  0  0  0  0  0  0  0  0
   43.7233   33.2555   42.4117 H   0  0  0  0  0  0  0  0  0  0  0  0
   45.0854   34.9527   41.1831 H   0  0  0  0  0  0  0  0  0  0  0  0
   47.6232   31.6720   45.3842 H   0  0  0  0  0  0  0  0  0  0  0  0
   46.0414   33.8381   46.8488 H   0  0  0  0  0  0  0  0  0  0  0  0
   48.3344   32.3116   47.8684 H   0  0  0  0  0  0  0  0  0  0  0  0
   46.8367   32.7593   48.7967 H   0  0  0  0  0  0  0  0  0  0  0  0
   47.2829   30.1494   47.3920 H   0  0  0  0  0  0  0  0  0  0  0  0
   45.3190   28.6246   48.4016 H   0  0  0  0  0  0  0  0  0  0  0  0
   44.2992   29.3486   49.6739 H   0  0  0  0  0  0  0  0  0  0  0  0
  1  6  2  0
  2  3  2  0
  2  1  1  0
  3  4  1  0
  4  5  2  0
  5  7  1  0
  6  5  1  0
  7  8  2  0
  8  9  1  0
  9 12  1  0
 10 13  1  0
 10 11  2  0
 12 10  1  0
 14  3  1  0
 15 18  1  0
 15 14  1  0
 16 15  1  0
 17 15  1  0
  1 19  1  0
  2 20  1  0
  7 21  1  0
  8 22  1  0
  9 23  1  0
  9 24  1  0
 12 25  1  0
 13 26  1  0
 13 27  1  0
M  ISO  4  19  14  20  14  23   8  24   8
M  END
>  <minimizedAffinity>  (1) 
-5.17528343

>  <minimizedRMSD>  (1) 
0.795716763

$$$$
