
     RDKit          3D

 42 44  0  0  0  0  0  0  0  0999 V2000
   48.5940   31.2630   48.6640 C   0  0  0  0  0  0  0  0  0  0  0  0
   47.5260   32.0270   48.7490 C   0  0  0  0  0  0  0  0  0  0  0  0
   51.1440   32.0560   51.1510 C   0  0  0  0  0  0  0  0  0  0  0  0
   51.2490   30.8290   51.8680 C   0  0  0  0  0  0  0  0  0  0  0  0
   50.4790   29.7630   51.4780 C   0  0  0  0  0  0  0  0  0  0  0  0
   49.6540   29.9570   50.4310 N   0  0  0  0  0  0  0  0  0  0  0  0
   49.5500   31.1110   49.7630 C   0  0  0  0  0  0  0  0  0  0  0  0
   50.2930   32.1700   50.1120 N   0  0  0  0  0  0  0  0  0  0  0  0
   52.1480   30.9760   52.9940 C   0  0  0  0  0  0  0  0  0  0  0  0
   51.9920   30.8370   54.3520 C   0  0  0  0  0  0  0  0  0  0  0  0
   53.1270   31.0870   55.0790 C   0  0  0  0  0  0  0  0  0  0  0  0
   54.0030   31.3930   54.0650 C   0  0  0  0  0  0  0  0  0  0  0  0
   53.4010   31.3150   52.9260 O   0  0  0  0  0  0  0  0  0  0  0  0
   50.5410   28.5710   52.1010 O   0  0  0  0  0  0  0  0  0  0  0  0
   51.5340   27.6330   51.6410 C   0  0  0  0  0  0  0  0  0  0  0  0
   52.0360   28.0610   50.3990 F   0  0  0  0  0  0  0  0  0  0  0  0
   52.6020   27.6830   52.5350 F   0  0  0  0  0  0  0  0  0  0  0  0
   51.0690   26.3280   51.5760 F   0  0  0  0  0  0  0  0  0  0  0  0
   46.5770   32.1570   47.6190 C   0  0  0  0  0  0  0  0  0  0  0  0
   46.5650   32.7750   45.3640 C   0  0  0  0  0  0  0  0  0  0  0  0
   45.8490   31.8850   44.8740 O   0  0  0  0  0  0  0  0  0  0  0  0
   47.0020   33.0720   46.6500 N   0  0  0  0  0  0  0  0  0  0  0  0
   44.8640   35.1430   44.4520 Cl  0  0  0  0  0  0  0  0  0  0  0  0
   46.2650   34.6140   43.5680 C   0  0  0  0  0  0  0  0  0  0  0  0
   46.8890   33.5340   44.1480 C   0  0  0  0  0  0  0  0  0  0  0  0
   48.0330   32.9780   43.5660 C   0  0  0  0  0  0  0  0  0  0  0  0
   48.5430   33.5320   42.3800 C   0  0  0  0  0  0  0  0  0  0  0  0
   47.9000   34.6090   41.8240 C   0  0  0  0  0  0  0  0  0  0  0  0
   48.4870   35.3450   40.3450 Cl  0  0  0  0  0  0  0  0  0  0  0  0
   46.7750   35.1430   42.4100 C   0  0  0  0  0  0  0  0  0  0  0  0
   48.7765   30.7152   47.7277 H   0  0  0  0  0  0  0  0  0  0  0  0
   47.3337   32.5812   49.6795 H   0  0  0  0  0  0  0  0  0  0  0  0
   51.7619   32.9163   51.4476 H   0  0  0  0  0  0  0  0  0  0  0  0
   51.0372   30.5495   54.8165 H   0  0  0  0  0  0  0  0  0  0  0  0
   53.2904   31.0525   56.1662 H   0  0  0  0  0  0  0  0  0  0  0  0
   55.0600   31.6641   54.2036 H   0  0  0  0  0  0  0  0  0  0  0  0
   46.4611   31.1718   47.1437 H   0  0  0  0  0  0  0  0  0  0  0  0
   45.6268   32.5299   48.0290 H   0  0  0  0  0  0  0  0  0  0  0  0
   47.5859   33.8917   46.8694 H   0  0  0  0  0  0  0  0  0  0  0  0
   48.5291   32.1144   44.0330 H   0  0  0  0  0  0  0  0  0  0  0  0
   49.4414   33.1101   41.9058 H   0  0  0  0  0  0  0  0  0  0  0  0
   46.2780   36.0061   41.9431 H   0  0  0  0  0  0  0  0  0  0  0  0
  1  2  2  0
  1  7  1  0
  3  4  2  0
  4  9  1  0
  5  4  1  0
  5 14  1  0
  6  5  2  0
  7  8  2  0
  7  6  1  0
  8  3  1  0
  9 10  2  0
 10 11  1  0
 12 11  2  0
 13  9  1  0
 13 12  1  0
 15 14  1  0
 15 17  1  0
 16 15  1  0
 18 15  1  0
 19  2  1  0
 20 22  1  0
 21 20  2  0
 22 19  1  0
 24 25  2  0
 24 23  1  0
 25 20  1  0
 26 25  1  0
 27 26  2  0
 28 27  1  0
 28 30  2  0
 29 28  1  0
 30 24  1  0
  1 31  1  0
  2 32  1  0
  3 33  1  0
 10 34  1  0
 11 35  1  0
 12 36  1  0
 19 37  1  0
 19 38  1  0
 22 39  1  0
 26 40  1  0
 27 41  1  0
 30 42  1  0
M  ISO  8  33  14  34  14  35  14  36  14  37   8  38   8  40  14  41  14
M  ISO  1  42  14
M  END
>  <minimizedAffinity>  (1) 
-7.12257719

>  <minimizedRMSD>  (1) 
0.514640927

$$$$
