
     RDKit          3D

 39 40  0  0  0  0  0  0  0  0999 V2000
   48.5330   31.2900   48.7180 C   0  0  0  0  0  0  0  0  0  0  0  0
   47.6860   32.2940   48.7080 C   0  0  0  0  0  0  0  0  0  0  0  0
   51.4280   32.1100   50.7930 C   0  0  0  0  0  0  0  0  0  0  0  0
   51.5370   30.9470   51.6050 C   0  0  0  0  0  0  0  0  0  0  0  0
   50.6250   29.9120   51.4290 C   0  0  0  0  0  0  0  0  0  0  0  0
   49.6920   30.0840   50.4920 N   0  0  0  0  0  0  0  0  0  0  0  0
   49.5930   31.1850   49.7250 C   0  0  0  0  0  0  0  0  0  0  0  0
   50.4580   32.2020   49.8720 N   0  0  0  0  0  0  0  0  0  0  0  0
   52.2790   31.7310   53.6870 C   0  0  0  0  0  0  0  0  0  0  0  0
   51.2140   32.4340   53.7470 O   0  0  0  0  0  0  0  0  0  0  0  0
   52.5750   30.8800   52.5750 N   0  0  0  0  0  0  0  0  0  0  0  0
   50.6740   28.7800   52.1700 O   0  0  0  0  0  0  0  0  0  0  0  0
   51.4940   27.7060   51.6630 C   0  0  0  0  0  0  0  0  0  0  0  0
   51.9670   28.0440   50.3970 F   0  0  0  0  0  0  0  0  0  0  0  0
   52.5870   27.6190   52.5280 F   0  0  0  0  0  0  0  0  0  0  0  0
   50.8340   26.4830   51.6570 F   0  0  0  0  0  0  0  0  0  0  0  0
   46.6180   32.3680   47.6700 C   0  0  0  0  0  0  0  0  0  0  0  0
   46.6820   32.7710   45.3670 C   0  0  0  0  0  0  0  0  0  0  0  0
   46.2320   31.6960   44.9200 O   0  0  0  0  0  0  0  0  0  0  0  0
   46.9190   33.2650   46.6410 N   0  0  0  0  0  0  0  0  0  0  0  0
   44.9150   35.0830   44.4350 Cl  0  0  0  0  0  0  0  0  0  0  0  0
   46.2720   34.5230   43.5130 C   0  0  0  0  0  0  0  0  0  0  0  0
   46.9340   33.4780   44.1050 C   0  0  0  0  0  0  0  0  0  0  0  0
   48.0590   32.9100   43.4860 C   0  0  0  0  0  0  0  0  0  0  0  0
   48.5070   33.4050   42.2650 C   0  0  0  0  0  0  0  0  0  0  0  0
   47.8220   34.4650   41.6830 C   0  0  0  0  0  0  0  0  0  0  0  0
   48.3370   35.1290   40.1550 Cl  0  0  0  0  0  0  0  0  0  0  0  0
   46.7280   35.0000   42.3080 C   0  0  0  0  0  0  0  0  0  0  0  0
   48.4445   30.5072   47.9503 H   0  0  0  0  0  0  0  0  0  0  0  0
   47.7650   33.0842   49.4692 H   0  0  0  0  0  0  0  0  0  0  0  0
   52.1421   32.9368   50.9212 H   0  0  0  0  0  0  0  0  0  0  0  0
   52.9949   31.7816   54.5207 H   0  0  0  0  0  0  0  0  0  0  0  0
   53.4218   30.2999   52.4892 H   0  0  0  0  0  0  0  0  0  0  0  0
   46.4824   31.3671   47.2343 H   0  0  0  0  0  0  0  0  0  0  0  0
   45.7031   32.7277   48.1636 H   0  0  0  0  0  0  0  0  0  0  0  0
   47.2855   34.2119   46.8142 H   0  0  0  0  0  0  0  0  0  0  0  0
   48.5867   32.0730   43.9666 H   0  0  0  0  0  0  0  0  0  0  0  0
   49.3859   32.9660   41.7703 H   0  0  0  0  0  0  0  0  0  0  0  0
   46.1978   35.8374   41.8309 H   0  0  0  0  0  0  0  0  0  0  0  0
  1  7  1  0
  2  1  2  0
  3  4  2  0
  4 11  1  0
  5  4  1  0
  5 12  1  0
  6  5  2  0
  7  8  2  0
  7  6  1  0
  8  3  1  0
  9 10  2  0
 11  9  1  0
 13 12  1  0
 13 15  1  0
 14 13  1  0
 16 13  1  0
 17  2  1  0
 18 20  1  0
 19 18  2  0
 20 17  1  0
 22 23  2  0
 22 21  1  0
 23 18  1  0
 24 23  1  0
 25 24  2  0
 26 25  1  0
 26 28  2  0
 27 26  1  0
 28 22  1  0
  1 29  1  0
  2 30  1  0
  3 31  1  0
  9 32  1  0
 11 33  1  0
 17 34  1  0
 17 35  1  0
 20 36  1  0
 24 37  1  0
 25 38  1  0
 28 39  1  0
M  ISO  7  31  14  32   6  34   8  35   8  37  14  38  14  39  14
M  END
>  <minimizedAffinity>  (1) 
-6.46605635

>  <minimizedRMSD>  (1) 
0.409760416

$$$$
