
     RDKit          3D

 37 38  0  0  0  0  0  0  0  0999 V2000
   46.6440   32.1790   47.6250 C   0  0  0  0  0  0  0  0  0  0  0  0
   46.6410   32.7450   45.3570 C   0  0  0  0  0  0  0  0  0  0  0  0
   45.9970   31.7960   44.8750 O   0  0  0  0  0  0  0  0  0  0  0  0
   47.0350   33.1010   46.6420 N   0  0  0  0  0  0  0  0  0  0  0  0
   44.9090   35.0910   44.4680 Cl  0  0  0  0  0  0  0  0  0  0  0  0
   46.2950   34.5700   43.5580 C   0  0  0  0  0  0  0  0  0  0  0  0
   46.9340   33.5010   44.1300 C   0  0  0  0  0  0  0  0  0  0  0  0
   48.0730   32.9520   43.5280 C   0  0  0  0  0  0  0  0  0  0  0  0
   48.5600   33.4940   42.3390 C   0  0  0  0  0  0  0  0  0  0  0  0
   47.8920   34.5800   41.7780 C   0  0  0  0  0  0  0  0  0  0  0  0
   48.4520   35.3030   40.2930 Cl  0  0  0  0  0  0  0  0  0  0  0  0
   46.7810   35.1000   42.3850 C   0  0  0  0  0  0  0  0  0  0  0  0
   48.5810   31.2080   48.7360 C   0  0  0  0  0  0  0  0  0  0  0  0
   47.6250   32.1050   48.7540 C   0  0  0  0  0  0  0  0  0  0  0  0
   51.2200   32.0510   51.1200 C   0  0  0  0  0  0  0  0  0  0  0  0
   51.3680   30.8450   51.8340 C   0  0  0  0  0  0  0  0  0  0  0  0
   50.5580   29.7520   51.4900 C   0  0  0  0  0  0  0  0  0  0  0  0
   49.6980   29.9480   50.4930 N   0  0  0  0  0  0  0  0  0  0  0  0
   49.5610   31.0980   49.8170 C   0  0  0  0  0  0  0  0  0  0  0  0
   50.3280   32.1630   50.1290 N   0  0  0  0  0  0  0  0  0  0  0  0
   52.3010   30.7220   52.8730 N   0  0  0  0  0  0  0  0  0  0  0  0
   50.6310   28.5540   52.1230 O   0  0  0  0  0  0  0  0  0  0  0  0
   51.4540   27.5500   51.5200 C   0  0  0  0  0  0  0  0  0  0  0  0
   52.1150   28.1010   50.4230 F   0  0  0  0  0  0  0  0  0  0  0  0
   52.4190   27.2140   52.4990 F   0  0  0  0  0  0  0  0  0  0  0  0
   50.7560   26.4090   51.1590 F   0  0  0  0  0  0  0  0  0  0  0  0
   46.5593   31.1840   47.1636 H   0  0  0  0  0  0  0  0  0  0  0  0
   45.6802   32.5130   48.0367 H   0  0  0  0  0  0  0  0  0  0  0  0
   47.5635   33.9597   46.8524 H   0  0  0  0  0  0  0  0  0  0  0  0
   48.5826   32.0948   43.9922 H   0  0  0  0  0  0  0  0  0  0  0  0
   49.4530   33.0727   41.8542 H   0  0  0  0  0  0  0  0  0  0  0  0
   46.2670   35.9577   41.9265 H   0  0  0  0  0  0  0  0  0  0  0  0
   48.6484   30.5173   47.8825 H   0  0  0  0  0  0  0  0  0  0  0  0
   47.5434   32.8040   49.5994 H   0  0  0  0  0  0  0  0  0  0  0  0
   51.8485   32.9149   51.3819 H   0  0  0  0  0  0  0  0  0  0  0  0
   52.3916   29.8306   53.3810 H   0  0  0  0  0  0  0  0  0  0  0  0
   52.8959   31.5231   53.1284 H   0  0  0  0  0  0  0  0  0  0  0  0
  1 14  1  0
  2  4  1  0
  3  2  2  0
  4  1  1  0
  6  7  2  0
  6  5  1  0
  7  2  1  0
  8  7  1  0
  9  8  2  0
 10  9  1  0
 10 12  2  0
 11 10  1  0
 12  6  1  0
 13 14  2  0
 13 19  1  0
 15 16  2  0
 16 21  1  0
 17 16  1  0
 17 22  1  0
 18 17  2  0
 19 20  2  0
 19 18  1  0
 20 15  1  0
 23 22  1  0
 23 25  1  0
 24 23  1  0
 26 23  1  0
  1 27  1  0
  1 28  1  0
  4 29  1  0
  8 30  1  0
  9 31  1  0
 12 32  1  0
 13 33  1  0
 14 34  1  0
 15 35  1  0
 21 36  1  0
 21 37  1  0
M  ISO  6  27   8  28   8  30  14  31  14  32  14  35  14
M  END
>  <minimizedAffinity>  (1) 
-6.43433285

>  <minimizedRMSD>  (1) 
0.256393254

$$$$
