
     RDKit          3D

 31 33  0  0  0  0  0  0  0  0999 V2000
   46.7320   34.7770   42.0790 C   0  0  0  0  0  0  0  0  0  0  0  0
   47.9640   35.3840   41.8650 C   0  0  0  0  0  0  0  0  0  0  0  0
   48.7030   35.2710   40.7120 C   0  0  0  0  0  0  0  0  0  0  0  0
   48.2130   34.5100   39.6860 C   0  0  0  0  0  0  0  0  0  0  0  0
   46.9970   33.9150   39.9100 C   0  0  0  0  0  0  0  0  0  0  0  0
   46.2950   34.0410   41.0430 N   0  0  0  0  0  0  0  0  0  0  0  0
   46.4390   33.1100   38.8720 N   0  0  0  0  0  0  0  0  0  0  0  0
   45.3400   32.1490   38.9520 C   0  0  0  0  0  0  0  0  0  0  0  0
   44.4650   32.6560   37.7980 C   0  0  0  0  0  0  0  0  0  0  0  0
   45.4540   33.2790   36.8080 C   0  0  0  0  0  0  0  0  0  0  0  0
   46.8140   33.0350   37.4690 C   0  0  0  0  0  0  0  0  0  0  0  0
   44.4580   35.9450   44.8450 C   0  0  0  0  0  0  0  0  0  0  0  0
   45.0960   35.9570   43.5900 C   0  0  0  0  0  0  0  0  0  0  0  0
   45.9850   34.9260   43.3200 C   0  0  0  0  0  0  0  0  0  0  0  0
   46.1830   33.9820   44.2770 N   0  0  0  0  0  0  0  0  0  0  0  0
   45.5610   33.9940   45.4680 C   0  0  0  0  0  0  0  0  0  0  0  0
   44.7030   34.9780   45.7430 N   0  0  0  0  0  0  0  0  0  0  0  0
   48.3774   35.9995   42.6776 H   0  0  0  0  0  0  0  0  0  0  0  0
   49.6716   35.7834   40.6156 H   0  0  0  0  0  0  0  0  0  0  0  0
   48.7600   34.3830   38.7401 H   0  0  0  0  0  0  0  0  0  0  0  0
   45.6846   31.1184   38.7818 H   0  0  0  0  0  0  0  0  0  0  0  0
   44.8373   32.0974   39.9291 H   0  0  0  0  0  0  0  0  0  0  0  0
   43.9192   31.8236   37.3298 H   0  0  0  0  0  0  0  0  0  0  0  0
   43.7043   33.3751   38.1361 H   0  0  0  0  0  0  0  0  0  0  0  0
   45.2631   34.3553   36.6847 H   0  0  0  0  0  0  0  0  0  0  0  0
   45.3822   32.8479   35.7985 H   0  0  0  0  0  0  0  0  0  0  0  0
   47.2213   32.0468   37.2090 H   0  0  0  0  0  0  0  0  0  0  0  0
   47.6053   33.7365   37.1661 H   0  0  0  0  0  0  0  0  0  0  0  0
   43.7445   36.7441   45.0946 H   0  0  0  0  0  0  0  0  0  0  0  0
   44.8981   36.7504   42.8542 H   0  0  0  0  0  0  0  0  0  0  0  0
   45.7567   33.2028   46.2067 H   0  0  0  0  0  0  0  0  0  0  0  0
  1 14  1  0
  2  1  2  0
  3  2  1  0
  4  5  1  0
  4  3  2  0
  5  6  2  0
  6  1  1  0
  7  8  1  0
  7  5  1  0
  9  8  1  0
 10 11  1  0
 10  9  1  0
 11  7  1  0
 12 17  2  0
 13 12  1  0
 14 13  2  0
 14 15  1  0
 15 16  2  0
 16 17  1  0
  2 18  1  0
  3 19  1  0
  4 20  1  0
  8 21  1  0
  8 22  1  0
  9 23  1  0
  9 24  1  0
 10 25  1  0
 10 26  1  0
 11 27  1  0
 11 28  1  0
 12 29  1  0
 13 30  1  0
 16 31  1  0
M  ISO  8  18  14  19  14  20  14  21  13  22  13  23  13  24  13  25  13
M  ISO  6  26  13  27  13  28  13  29  14  30  14  31  14
M  END
>  <minimizedAffinity>  (1) 
-5.68432474

>  <minimizedRMSD>  (1) 
0.0949184299

$$$$
