
     RDKit          3D

 29 31  0  0  0  0  0  0  0  0999 V2000
   46.7240   34.7940   42.0770 C   0  0  0  0  0  0  0  0  0  0  0  0
   47.9780   35.3180   41.8850 C   0  0  0  0  0  0  0  0  0  0  0  0
   48.7160   35.2010   40.7290 C   0  0  0  0  0  0  0  0  0  0  0  0
   48.1560   34.5010   39.6680 C   0  0  0  0  0  0  0  0  0  0  0  0
   46.9070   33.9870   39.8730 C   0  0  0  0  0  0  0  0  0  0  0  0
   46.2510   34.1370   41.0170 N   0  0  0  0  0  0  0  0  0  0  0  0
   44.4580   35.9380   44.8680 C   0  0  0  0  0  0  0  0  0  0  0  0
   45.0930   35.9590   43.6040 C   0  0  0  0  0  0  0  0  0  0  0  0
   45.9800   34.9360   43.3190 C   0  0  0  0  0  0  0  0  0  0  0  0
   46.1870   33.9740   44.2670 N   0  0  0  0  0  0  0  0  0  0  0  0
   45.5580   33.9900   45.4660 C   0  0  0  0  0  0  0  0  0  0  0  0
   44.7020   34.9750   45.7500 N   0  0  0  0  0  0  0  0  0  0  0  0
   46.2470   33.2370   38.8070 C   0  0  0  0  0  0  0  0  0  0  0  0
   45.1450   32.4280   38.9770 C   0  0  0  0  0  0  0  0  0  0  0  0
   44.5410   31.7310   37.9550 C   0  0  0  0  0  0  0  0  0  0  0  0
   45.0400   31.8270   36.6750 C   0  0  0  0  0  0  0  0  0  0  0  0
   46.1410   32.6180   36.4230 C   0  0  0  0  0  0  0  0  0  0  0  0
   46.6940   33.2870   37.4960 C   0  0  0  0  0  0  0  0  0  0  0  0
   48.4283   35.8748   42.7200 H   0  0  0  0  0  0  0  0  0  0  0  0
   49.7179   35.6479   40.6480 H   0  0  0  0  0  0  0  0  0  0  0  0
   48.6890   34.3678   38.7150 H   0  0  0  0  0  0  0  0  0  0  0  0
   43.7467   36.7364   45.1261 H   0  0  0  0  0  0  0  0  0  0  0  0
   44.8894   36.7579   42.8758 H   0  0  0  0  0  0  0  0  0  0  0  0
   45.7511   33.1959   46.2023 H   0  0  0  0  0  0  0  0  0  0  0  0
   44.7231   32.3334   39.9884 H   0  0  0  0  0  0  0  0  0  0  0  0
   43.6635   31.1001   38.1599 H   0  0  0  0  0  0  0  0  0  0  0  0
   44.5607   31.2731   35.8543 H   0  0  0  0  0  0  0  0  0  0  0  0
   46.5604   32.7117   35.4104 H   0  0  0  0  0  0  0  0  0  0  0  0
   47.5711   33.9187   37.2918 H   0  0  0  0  0  0  0  0  0  0  0  0
  1  9  1  0
  2  1  2  0
  3  2  1  0
  4  5  1  0
  4  3  2  0
  5  6  2  0
  6  1  1  0
  7 12  2  0
  8  7  1  0
  9  8  2  0
  9 10  1  0
 10 11  2  0
 11 12  1  0
 13 14  2  0
 13  5  1  0
 15 14  1  0
 16 15  2  0
 17 16  1  0
 17 18  2  0
 18 13  1  0
  2 19  1  0
  3 20  1  0
  4 21  1  0
  7 22  1  0
  8 23  1  0
 11 24  1  0
 14 25  1  0
 15 26  1  0
 16 27  1  0
 17 28  1  0
 18 29  1  0
M  ISO  8  19  14  20  14  21  14  22  14  23  14  24  14  25  14  26  14
M  ISO  3  27  14  28  14  29  14
M  END
>  <minimizedAffinity>  (1) 
-5.44486523

>  <minimizedRMSD>  (1) 
0.717945337

$$$$
