
     RDKit          3D

 45 49  0  0  1  0  0  0  0  0999 V2000
   47.2420   32.9170   44.2500 C   0  0  0  0  0  0  0  0  0  0  0  0
   47.1940   32.1080   45.3820 C   0  0  0  0  0  0  0  0  0  0  0  0
   46.3270   32.3360   46.4440 C   0  0  0  0  0  0  0  0  0  0  0  0
   45.4580   33.4080   46.4070 C   0  0  0  0  0  0  0  0  0  0  0  0
   45.4850   34.2210   45.3060 C   0  0  0  0  0  0  0  0  0  0  0  0
   44.6160   35.2900   45.2670 C   0  0  0  0  0  0  0  0  0  0  0  0
   44.5800   36.1540   44.1810 C   0  0  0  0  0  0  0  0  0  0  0  0
   45.4610   35.8890   43.1380 C   0  0  0  0  0  0  0  0  0  0  0  0
   46.3220   34.8010   43.2190 C   0  0  0  0  0  0  0  0  0  0  0  0
   46.3540   33.9560   44.2850 C   0  0  0  0  0  0  0  0  0  0  0  0
   45.2300   33.2940   41.2380 F   0  0  0  0  0  0  0  0  0  0  0  0
   46.3930   33.9770   41.0510 C   0  0  0  0  0  0  0  0  0  0  0  0
   47.0820   34.7750   41.9830 C   0  0  0  0  0  0  0  0  0  0  0  0
   48.2500   35.3680   41.5500 C   0  0  0  0  0  0  0  0  0  0  0  0
   48.7130   35.1890   40.2730 C   0  0  0  0  0  0  0  0  0  0  0  0
   48.0480   34.4130   39.3560 C   0  0  0  0  0  0  0  0  0  0  0  0
   46.8760   33.8010   39.7500 C   0  0  0  0  0  0  0  0  0  0  0  0
   48.1600   32.6130   43.2320 N   0  0  0  0  0  0  0  0  0  0  0  0
   50.0720   31.1040   42.4790 C   0  0  1  0  0  0  0  0  0  0  0  0
   48.8060   30.6250   41.8030 C   0  0  0  0  0  0  0  0  0  0  0  0
   48.8060   31.3320   43.1560 C   0  0  2  0  0  0  0  0  0  0  0  0
   53.1000   28.9890   42.8850 C   0  0  0  0  0  0  0  0  0  0  0  0
   52.7140   28.1580   43.9880 C   0  0  0  0  0  0  0  0  0  0  0  0
   51.4260   28.3630   44.5640 C   0  0  0  0  0  0  0  0  0  0  0  0
   50.6300   29.3130   44.0610 N   0  0  0  0  0  0  0  0  0  0  0  0
   51.0270   30.0810   43.0150 C   0  0  0  0  0  0  0  0  0  0  0  0
   52.2610   29.9190   42.4300 N   0  0  0  0  0  0  0  0  0  0  0  0
   47.8755   31.2464   45.4386 H   0  0  0  0  0  0  0  0  0  0  0  0
   46.3332   31.6625   47.3137 H   0  0  0  0  0  0  0  0  0  0  0  0
   44.7641   33.6032   47.2379 H   0  0  0  0  0  0  0  0  0  0  0  0
   43.9364   35.4623   46.1146 H   0  0  0  0  0  0  0  0  0  0  0  0
   43.8874   37.0079   44.1470 H   0  0  0  0  0  0  0  0  0  0  0  0
   45.4763   36.5391   42.2508 H   0  0  0  0  0  0  0  0  0  0  0  0
   48.8226   35.9989   42.2458 H   0  0  0  0  0  0  0  0  0  0  0  0
   49.6485   35.6834   39.9724 H   0  0  0  0  0  0  0  0  0  0  0  0
   48.4387   34.2829   38.3360 H   0  0  0  0  0  0  0  0  0  0  0  0
   46.3196   33.1727   39.0389 H   0  0  0  0  0  0  0  0  0  0  0  0
   48.3758   33.3267   42.5214 H   0  0  0  0  0  0  0  0  0  0  0  0
   50.9052   31.7597   42.1859 H   0  0  0  0  0  0  0  0  0  0  0  0
   48.4247   31.1360   40.9066 H   0  0  0  0  0  0  0  0  0  0  0  0
   48.4301   29.6707   41.4055 H   0  0  0  0  0  0  0  0  0  0  0  0
   48.4732   31.1174   44.1823 H   0  0  0  0  0  0  0  0  0  0  0  0
   54.0863   28.8591   42.4156 H   0  0  0  0  0  0  0  0  0  0  0  0
   53.3920   27.3848   44.3784 H   0  0  0  0  0  0  0  0  0  0  0  0
   51.0909   27.7474   45.4118 H   0  0  0  0  0  0  0  0  0  0  0  0
  1 10  1  0
  1  2  2  0
  2  3  1  0
  4  3  2  0
  5  4  1  0
  6  5  2  0
  7  6  1  0
  8  9  1  0
  8  7  2  0
  9 10  2  0
 10  5  1  0
 12 11  1  0
 12 13  2  0
 13  9  1  0
 14 13  1  0
 15 14  2  0
 16 17  2  0
 16 15  1  0
 17 12  1  0
 18  1  1  0
 19 26  1  0
 19 21  1  0
 20 19  1  0
 20 21  1  0
 21 18  1  0
 22 23  2  0
 23 24  1  0
 25 24  2  0
 26 25  1  0
 27 22  1  0
 27 26  2  0
  2 28  1  0
  3 29  1  0
  4 30  1  0
  6 31  1  0
  7 32  1  0
  8 33  1  0
 14 34  1  0
 15 35  1  0
 16 36  1  0
 17 37  1  0
 18 38  1  0
 19 39  1  6
 20 40  1  0
 20 41  1  0
 21 42  1  1
 22 43  1  0
 23 44  1  0
 24 45  1  0
M  ISO  8  28  14  29  14  30  14  31  14  32  14  33  14  34  14  35  14
M  ISO  8  36  14  37  14  39  13  40  13  41  13  42  13  43  14  44  14
M  ISO  1  45  14
M  END
>  <minimizedAffinity>  (1) 
-6.27265501

>  <minimizedRMSD>  (1) 
2.57326674

$$$$
