
     RDKit          3D

 28 30  0  0  0  0  0  0  0  0999 V2000
   46.7340   34.7700   42.0210 C   0  0  0  0  0  0  0  0  0  0  0  0
   47.9670   35.3190   41.8020 C   0  0  0  0  0  0  0  0  0  0  0  0
   48.6770   35.1780   40.6230 C   0  0  0  0  0  0  0  0  0  0  0  0
   48.1370   34.4510   39.5960 C   0  0  0  0  0  0  0  0  0  0  0  0
   46.9030   33.9110   39.8360 C   0  0  0  0  0  0  0  0  0  0  0  0
   46.2320   34.0570   40.9820 N   0  0  0  0  0  0  0  0  0  0  0  0
   44.4720   35.9690   44.7980 C   0  0  0  0  0  0  0  0  0  0  0  0
   45.1110   35.9570   43.5550 C   0  0  0  0  0  0  0  0  0  0  0  0
   45.9920   34.9240   43.2700 C   0  0  0  0  0  0  0  0  0  0  0  0
   46.1890   33.9740   44.2200 N   0  0  0  0  0  0  0  0  0  0  0  0
   45.5630   34.0010   45.4130 C   0  0  0  0  0  0  0  0  0  0  0  0
   44.7150   34.9890   45.6950 N   0  0  0  0  0  0  0  0  0  0  0  0
   46.2770   33.1250   38.7720 C   0  0  0  0  0  0  0  0  0  0  0  0
   45.2930   32.1810   39.0430 C   0  0  0  0  0  0  0  0  0  0  0  0
   44.7890   31.5090   37.9310 C   0  0  0  0  0  0  0  0  0  0  0  0
   45.2070   31.7370   36.6510 C   0  0  0  0  0  0  0  0  0  0  0  0
   46.1800   32.6790   36.4390 C   0  0  0  0  0  0  0  0  0  0  0  0
   46.6710   33.3300   37.5020 N   0  0  0  0  0  0  0  0  0  0  0  0
   48.4218   35.9082   42.6120 H   0  0  0  0  0  0  0  0  0  0  0  0
   49.6664   35.6457   40.5116 H   0  0  0  0  0  0  0  0  0  0  0  0
   48.6616   34.3102   38.6395 H   0  0  0  0  0  0  0  0  0  0  0  0
   43.7697   36.7784   45.0462 H   0  0  0  0  0  0  0  0  0  0  0  0
   44.9192   36.7505   42.8177 H   0  0  0  0  0  0  0  0  0  0  0  0
   45.7518   33.2089   46.1525 H   0  0  0  0  0  0  0  0  0  0  0  0
   44.9371   31.9786   40.0640 H   0  0  0  0  0  0  0  0  0  0  0  0
   44.0090   30.7507   38.0938 H   0  0  0  0  0  0  0  0  0  0  0  0
   44.7728   31.1775   35.8093 H   0  0  0  0  0  0  0  0  0  0  0  0
   46.5473   32.8943   35.4247 H   0  0  0  0  0  0  0  0  0  0  0  0
  1  9  1  0
  2  1  2  0
  3  2  1  0
  4  5  1  0
  4  3  2  0
  5  6  2  0
  6  1  1  0
  7 12  2  0
  8  7  1  0
  9  8  2  0
  9 10  1  0
 10 11  2  0
 11 12  1  0
 13 14  2  0
 13  5  1  0
 15 14  1  0
 16 15  2  0
 17 16  1  0
 17 18  2  0
 18 13  1  0
  2 19  1  0
  3 20  1  0
  4 21  1  0
  7 22  1  0
  8 23  1  0
 11 24  1  0
 14 25  1  0
 15 26  1  0
 16 27  1  0
 17 28  1  0
M  ISO  8  19  14  20  14  21  14  22  14  23  14  24  14  25  14  26  14
M  ISO  2  27  14  28  14
M  END
>  <minimizedAffinity>  (1) 
-5.40954018

>  <minimizedRMSD>  (1) 
0.520515144

$$$$
