
     RDKit          3D

 26 28  0  0  0  0  0  0  0  0999 V2000
   46.7520   34.8020   42.0910 C   0  0  0  0  0  0  0  0  0  0  0  0
   47.9960   35.3740   41.9040 C   0  0  0  0  0  0  0  0  0  0  0  0
   48.7400   35.2610   40.7390 C   0  0  0  0  0  0  0  0  0  0  0  0
   48.2260   34.5400   39.6910 C   0  0  0  0  0  0  0  0  0  0  0  0
   46.9940   33.9830   39.8980 C   0  0  0  0  0  0  0  0  0  0  0  0
   46.3130   34.1140   41.0300 N   0  0  0  0  0  0  0  0  0  0  0  0
   44.4580   35.9270   44.8560 C   0  0  0  0  0  0  0  0  0  0  0  0
   45.0980   35.9510   43.6090 C   0  0  0  0  0  0  0  0  0  0  0  0
   45.9980   34.9390   43.3260 C   0  0  0  0  0  0  0  0  0  0  0  0
   46.2090   33.9790   44.2740 N   0  0  0  0  0  0  0  0  0  0  0  0
   45.5800   33.9760   45.4690 C   0  0  0  0  0  0  0  0  0  0  0  0
   44.7070   34.9560   45.7470 N   0  0  0  0  0  0  0  0  0  0  0  0
   46.3230   33.1860   38.8650 C   0  0  0  0  0  0  0  0  0  0  0  0
   46.6190   33.2660   37.5140 C   0  0  0  0  0  0  0  0  0  0  0  0
   45.8260   32.3990   36.7950 C   0  0  0  0  0  0  0  0  0  0  0  0
   45.0600   31.8050   37.7300 N   0  0  0  0  0  0  0  0  0  0  0  0
   45.3630   32.2740   38.9280 N   0  0  0  0  0  0  0  0  0  0  0  0
   48.4239   35.9568   42.7330 H   0  0  0  0  0  0  0  0  0  0  0  0
   49.7260   35.7416   40.6566 H   0  0  0  0  0  0  0  0  0  0  0  0
   48.7708   34.4175   38.7433 H   0  0  0  0  0  0  0  0  0  0  0  0
   43.7381   36.7194   45.1084 H   0  0  0  0  0  0  0  0  0  0  0  0
   44.8915   36.7481   42.8796 H   0  0  0  0  0  0  0  0  0  0  0  0
   45.7804   33.1820   46.2034 H   0  0  0  0  0  0  0  0  0  0  0  0
   47.3803   33.9288   37.0768 H   0  0  0  0  0  0  0  0  0  0  0  0
   45.8198   32.2307   35.7080 H   0  0  0  0  0  0  0  0  0  0  0  0
   44.3433   31.0902   37.5395 H   0  0  0  0  0  0  0  0  0  0  0  0
  1  9  1  0
  2  1  2  0
  3  2  1  0
  4  5  1  0
  4  3  2  0
  5  6  2  0
  6  1  1  0
  7 12  2  0
  8  7  1  0
  9  8  2  0
  9 10  1  0
 10 11  2  0
 11 12  1  0
 13 17  2  0
 13  5  1  0
 14 13  1  0
 15 14  2  0
 15 16  1  0
 16 17  1  0
  2 18  1  0
  3 19  1  0
  4 20  1  0
  7 21  1  0
  8 22  1  0
 11 23  1  0
 14 24  1  0
 15 25  1  0
 16 26  1  0
M  ISO  8  18  14  19  14  20  14  21  14  22  14  23  14  24  14  25  14
M  ISO  1  26   9
M  END
>  <minimizedAffinity>  (1) 
-5.25605297

>  <minimizedRMSD>  (1) 
0.685449302

$$$$
