
     RDKit          3D

 33 36  0  0  1  0  0  0  0  0999 V2000
   46.7060   34.7480   42.0830 C   0  0  0  0  0  0  0  0  0  0  0  0
   47.9480   35.3190   41.8500 C   0  0  0  0  0  0  0  0  0  0  0  0
   48.6700   35.2020   40.6920 C   0  0  0  0  0  0  0  0  0  0  0  0
   48.1360   34.4580   39.6590 C   0  0  0  0  0  0  0  0  0  0  0  0
   46.9090   33.8970   39.8980 C   0  0  0  0  0  0  0  0  0  0  0  0
   46.2430   34.0410   41.0430 N   0  0  0  0  0  0  0  0  0  0  0  0
   44.4570   35.9420   44.8600 C   0  0  0  0  0  0  0  0  0  0  0  0
   45.0930   35.9350   43.6000 C   0  0  0  0  0  0  0  0  0  0  0  0
   45.9730   34.9000   43.3310 C   0  0  0  0  0  0  0  0  0  0  0  0
   46.1750   33.9660   44.2740 N   0  0  0  0  0  0  0  0  0  0  0  0
   45.5580   33.9910   45.4740 C   0  0  0  0  0  0  0  0  0  0  0  0
   44.7040   34.9840   45.7490 N   0  0  0  0  0  0  0  0  0  0  0  0
   46.3150   33.0910   38.7960 C   0  0  2  0  0  0  0  0  0  0  0  0
   46.7520   31.6580   38.7420 C   0  0  0  0  0  0  0  0  0  0  0  0
   47.1480   32.6670   37.6800 C   0  0  1  0  0  0  0  0  0  0  0  0
   46.4680   32.5630   36.3470 C   0  0  0  0  0  0  0  0  0  0  0  0
   45.2370   33.0920   35.9900 C   0  0  0  0  0  0  0  0  0  0  0  0
   44.9640   32.7860   34.6930 N   0  0  0  0  0  0  0  0  0  0  0  0
   46.0100   32.0770   34.2530 C   0  0  0  0  0  0  0  0  0  0  0  0
   46.9220   31.9380   35.2480 N   0  0  0  0  0  0  0  0  0  0  0  0
   48.3898   35.9150   42.6621 H   0  0  0  0  0  0  0  0  0  0  0  0
   49.6509   35.6887   40.5877 H   0  0  0  0  0  0  0  0  0  0  0  0
   48.6631   34.3238   38.7029 H   0  0  0  0  0  0  0  0  0  0  0  0
   43.7504   36.7474   45.1091 H   0  0  0  0  0  0  0  0  0  0  0  0
   44.8968   36.7233   42.8583 H   0  0  0  0  0  0  0  0  0  0  0  0
   45.7547   33.2044   46.2173 H   0  0  0  0  0  0  0  0  0  0  0  0
   45.3557   33.6272   38.8435 H   0  0  0  0  0  0  0  0  0  0  0  0
   47.4993   31.2772   39.4537 H   0  0  0  0  0  0  0  0  0  0  0  0
   46.2530   30.6778   38.7550 H   0  0  0  0  0  0  0  0  0  0  0  0
   48.1053   32.9966   37.2500 H   0  0  0  0  0  0  0  0  0  0  0  0
   44.5802   33.6717   36.6553 H   0  0  0  0  0  0  0  0  0  0  0  0
   44.1232   33.0470   34.1584 H   0  0  0  0  0  0  0  0  0  0  0  0
   46.1148   31.6682   33.2372 H   0  0  0  0  0  0  0  0  0  0  0  0
  1  9  1  0
  2  1  2  0
  3  2  1  0
  4  5  1  0
  4  3  2  0
  5  6  2  0
  6  1  1  0
  7 12  2  0
  8  7  1  0
  9  8  2  0
  9 10  1  0
 10 11  2  0
 11 12  1  0
 13  5  1  0
 14 13  1  0
 15 14  1  0
 15 13  1  0
 16 15  1  0
 17 16  2  0
 18 17  1  0
 19 18  1  0
 19 20  2  0
 20 16  1  0
  2 21  1  0
  3 22  1  0
  4 23  1  0
  7 24  1  0
  8 25  1  0
 11 26  1  0
 13 27  1  6
 14 28  1  0
 14 29  1  0
 15 30  1  6
 17 31  1  0
 18 32  1  0
 19 33  1  0
M  ISO  8  21  14  22  14  23  14  24  14  25  14  26  14  27  13  28  13
M  ISO  5  29  13  30  13  31  14  32   9  33  14
M  END
>  <minimizedAffinity>  (1) 
-5.99018908

>  <minimizedRMSD>  (1) 
0.704131782

$$$$
