
     RDKit          3D

 34 37  0  0  1  0  0  0  0  0999 V2000
   46.7830   34.8260   42.1100 C   0  0  0  0  0  0  0  0  0  0  0  0
   48.0070   35.4530   41.9200 C   0  0  0  0  0  0  0  0  0  0  0  0
   48.7690   35.3700   40.7830 C   0  0  0  0  0  0  0  0  0  0  0  0
   48.3040   34.6080   39.7280 C   0  0  0  0  0  0  0  0  0  0  0  0
   47.0850   33.9950   39.9380 C   0  0  0  0  0  0  0  0  0  0  0  0
   46.3720   34.1000   41.0600 N   0  0  0  0  0  0  0  0  0  0  0  0
   44.4580   35.9170   44.8610 C   0  0  0  0  0  0  0  0  0  0  0  0
   45.1110   35.9520   43.6190 C   0  0  0  0  0  0  0  0  0  0  0  0
   46.0180   34.9500   43.3360 C   0  0  0  0  0  0  0  0  0  0  0  0
   46.2220   33.9930   44.2700 N   0  0  0  0  0  0  0  0  0  0  0  0
   45.5780   33.9800   45.4640 C   0  0  0  0  0  0  0  0  0  0  0  0
   44.6980   34.9570   45.7360 N   0  0  0  0  0  0  0  0  0  0  0  0
   46.5450   33.1580   38.8170 C   0  0  2  0  0  0  0  0  0  0  0  0
   46.6670   31.6760   39.0080 C   0  0  0  0  0  0  0  0  0  0  0  0
   47.4950   32.3960   37.9910 C   0  0  1  0  0  0  0  0  0  0  0  0
   47.1460   32.3000   36.5440 C   0  0  0  0  0  0  0  0  0  0  0  0
   48.1650   32.2520   35.5990 C   0  0  0  0  0  0  0  0  0  0  0  0
   47.8540   32.1610   34.2410 C   0  0  0  0  0  0  0  0  0  0  0  0
   46.5630   32.1230   33.8670 N   0  0  0  0  0  0  0  0  0  0  0  0
   45.5830   32.1720   34.7870 C   0  0  0  0  0  0  0  0  0  0  0  0
   45.8470   32.2590   36.1230 N   0  0  0  0  0  0  0  0  0  0  0  0
   48.3964   36.0648   42.7471 H   0  0  0  0  0  0  0  0  0  0  0  0
   49.7308   35.8991   40.7121 H   0  0  0  0  0  0  0  0  0  0  0  0
   48.8650   34.4978   38.7882 H   0  0  0  0  0  0  0  0  0  0  0  0
   43.7319   36.7047   45.1106 H   0  0  0  0  0  0  0  0  0  0  0  0
   44.9065   36.7530   42.8934 H   0  0  0  0  0  0  0  0  0  0  0  0
   45.7734   33.1830   46.1965 H   0  0  0  0  0  0  0  0  0  0  0  0
   45.7350   33.8646   38.5833 H   0  0  0  0  0  0  0  0  0  0  0  0
   47.1358   31.2722   39.9175 H   0  0  0  0  0  0  0  0  0  0  0  0
   45.9724   30.8232   38.9928 H   0  0  0  0  0  0  0  0  0  0  0  0
   48.5756   32.4170   37.7866 H   0  0  0  0  0  0  0  0  0  0  0  0
   49.2161   32.2857   35.9214 H   0  0  0  0  0  0  0  0  0  0  0  0
   48.6542   32.1209   33.4873 H   0  0  0  0  0  0  0  0  0  0  0  0
   44.5357   32.1410   34.4519 H   0  0  0  0  0  0  0  0  0  0  0  0
  1  9  1  0
  2  1  2  0
  3  2  1  0
  4  5  1  0
  4  3  2  0
  5  6  2  0
  6  1  1  0
  7 12  2  0
  8  7  1  0
  9  8  2  0
  9 10  1  0
 10 11  2  0
 11 12  1  0
 13 14  1  0
 13  5  1  0
 15 13  1  0
 15 14  1  0
 16 15  1  0
 17 16  2  0
 18 17  1  0
 19 18  2  0
 19 20  1  0
 20 21  2  0
 21 16  1  0
  2 22  1  0
  3 23  1  0
  4 24  1  0
  7 25  1  0
  8 26  1  0
 11 27  1  0
 13 28  1  6
 14 29  1  0
 14 30  1  0
 15 31  1  6
 17 32  1  0
 18 33  1  0
 20 34  1  0
M  ISO  8  22  14  23  14  24  14  25  14  26  14  27  14  28  13  29  13
M  ISO  5  30  13  31  13  32  14  33  14  34  14
M  END
>  <minimizedAffinity>  (1) 
-5.75989246

>  <minimizedRMSD>  (1) 
1.45800734

$$$$
