
     RDKit          3D

 35 38  0  0  1  0  0  0  0  0999 V2000
   46.9090   34.8640   42.1420 C   0  0  0  0  0  0  0  0  0  0  0  0
   48.0680   35.5810   41.9410 C   0  0  0  0  0  0  0  0  0  0  0  0
   48.8550   35.5460   40.8150 C   0  0  0  0  0  0  0  0  0  0  0  0
   48.4720   34.7270   39.7830 C   0  0  0  0  0  0  0  0  0  0  0  0
   47.3160   34.0100   39.9820 C   0  0  0  0  0  0  0  0  0  0  0  0
   46.5930   34.0850   41.0950 N   0  0  0  0  0  0  0  0  0  0  0  0
   44.4680   35.8850   44.8220 C   0  0  0  0  0  0  0  0  0  0  0  0
   45.1700   35.9340   43.6050 C   0  0  0  0  0  0  0  0  0  0  0  0
   46.1140   34.9380   43.3490 C   0  0  0  0  0  0  0  0  0  0  0  0
   46.3080   33.9820   44.2720 N   0  0  0  0  0  0  0  0  0  0  0  0
   45.6200   33.9500   45.4410 C   0  0  0  0  0  0  0  0  0  0  0  0
   44.7050   34.9080   45.6980 N   0  0  0  0  0  0  0  0  0  0  0  0
   46.8740   33.1110   38.8790 C   0  0  2  0  0  0  0  0  0  0  0  0
   47.3400   31.6870   38.9910 C   0  0  0  0  0  0  0  0  0  0  0  0
   47.8570   32.6250   37.9160 C   0  0  1  0  0  0  0  0  0  0  0  0
   47.3650   32.4140   36.5220 C   0  0  0  0  0  0  0  0  0  0  0  0
   48.2290   32.1440   35.4560 C   0  0  0  0  0  0  0  0  0  0  0  0
   47.7010   31.9580   34.1850 C   0  0  0  0  0  0  0  0  0  0  0  0
   46.3260   32.0410   33.9890 C   0  0  0  0  0  0  0  0  0  0  0  0
   45.4940   32.3080   35.0630 C   0  0  0  0  0  0  0  0  0  0  0  0
   46.0260   32.4860   36.2910 N   0  0  0  0  0  0  0  0  0  0  0  0
   48.3936   36.2427   42.7572 H   0  0  0  0  0  0  0  0  0  0  0  0
   49.7665   36.1575   40.7431 H   0  0  0  0  0  0  0  0  0  0  0  0
   49.0544   34.6488   38.8531 H   0  0  0  0  0  0  0  0  0  0  0  0
   43.7191   36.6569   45.0529 H   0  0  0  0  0  0  0  0  0  0  0  0
   44.9807   36.7347   42.8749 H   0  0  0  0  0  0  0  0  0  0  0  0
   45.8064   33.1502   46.1728 H   0  0  0  0  0  0  0  0  0  0  0  0
   45.9072   33.6225   38.7620 H   0  0  0  0  0  0  0  0  0  0  0  0
   47.9927   31.3792   39.8212 H   0  0  0  0  0  0  0  0  0  0  0  0
   46.8600   30.6975   39.0127 H   0  0  0  0  0  0  0  0  0  0  0  0
   48.8589   32.9429   37.5918 H   0  0  0  0  0  0  0  0  0  0  0  0
   49.3145   32.0797   35.6223 H   0  0  0  0  0  0  0  0  0  0  0  0
   48.3676   31.7458   33.3361 H   0  0  0  0  0  0  0  0  0  0  0  0
   45.9016   31.8951   32.9847 H   0  0  0  0  0  0  0  0  0  0  0  0
   44.4058   32.3747   34.9166 H   0  0  0  0  0  0  0  0  0  0  0  0
  1  9  1  0
  2  1  2  0
  3  2  1  0
  4  5  1  0
  4  3  2  0
  5  6  2  0
  6  1  1  0
  7 12  2  0
  8  7  1  0
  9  8  2  0
  9 10  1  0
 10 11  2  0
 11 12  1  0
 13 14  1  0
 13  5  1  0
 15 13  1  0
 15 14  1  0
 16 15  1  0
 17 16  2  0
 18 17  1  0
 19 18  2  0
 19 20  1  0
 20 21  2  0
 21 16  1  0
  2 22  1  0
  3 23  1  0
  4 24  1  0
  7 25  1  0
  8 26  1  0
 11 27  1  0
 13 28  1  6
 14 29  1  0
 14 30  1  0
 15 31  1  6
 17 32  1  0
 18 33  1  0
 19 34  1  0
 20 35  1  0
M  ISO  8  22  14  23  14  24  14  25  14  26  14  27  14  28  13  29  13
M  ISO  6  30  13  31  13  32  14  33  14  34  14  35  14
M  END
>  <minimizedAffinity>  (1) 
-5.60088634

>  <minimizedRMSD>  (1) 
1.47727394

$$$$
