
     RDKit          3D

 32 34  0  0  1  0  0  0  0  0999 V2000
   46.8030   34.8400   42.1260 C   0  0  0  0  0  0  0  0  0  0  0  0
   48.0300   35.4570   41.9340 C   0  0  0  0  0  0  0  0  0  0  0  0
   48.7960   35.3770   40.8000 C   0  0  0  0  0  0  0  0  0  0  0  0
   48.3100   34.6150   39.7450 C   0  0  0  0  0  0  0  0  0  0  0  0
   47.0920   34.0100   39.9510 C   0  0  0  0  0  0  0  0  0  0  0  0
   46.3860   34.1160   41.0660 N   0  0  0  0  0  0  0  0  0  0  0  0
   44.4580   35.9020   44.8730 C   0  0  0  0  0  0  0  0  0  0  0  0
   45.1170   35.9560   43.6230 C   0  0  0  0  0  0  0  0  0  0  0  0
   46.0260   34.9550   43.3560 C   0  0  0  0  0  0  0  0  0  0  0  0
   46.2340   33.9890   44.2930 N   0  0  0  0  0  0  0  0  0  0  0  0
   45.5820   33.9720   45.4810 C   0  0  0  0  0  0  0  0  0  0  0  0
   44.7030   34.9390   45.7390 N   0  0  0  0  0  0  0  0  0  0  0  0
   46.5630   33.1890   38.8210 C   0  0  2  0  0  0  0  0  0  0  0  0
   46.6730   31.7000   38.9980 C   0  0  0  0  0  0  0  0  0  0  0  0
   47.4880   32.4610   37.9710 C   0  0  1  0  0  0  0  0  0  0  0  0
   47.1650   32.3320   36.5030 C   0  0  0  0  0  0  0  0  0  0  0  0
   48.4020   32.8500   35.7570 C   0  0  0  0  0  0  0  0  0  0  0  0
   48.4227   36.0632   42.7637 H   0  0  0  0  0  0  0  0  0  0  0  0
   49.7620   35.8981   40.7279 H   0  0  0  0  0  0  0  0  0  0  0  0
   48.8654   34.5023   38.8022 H   0  0  0  0  0  0  0  0  0  0  0  0
   43.7246   36.6810   45.1283 H   0  0  0  0  0  0  0  0  0  0  0  0
   44.9139   36.7584   42.8985 H   0  0  0  0  0  0  0  0  0  0  0  0
   45.7745   33.1768   46.2163 H   0  0  0  0  0  0  0  0  0  0  0  0
   45.7558   33.9034   38.6019 H   0  0  0  0  0  0  0  0  0  0  0  0
   47.1565   31.2797   39.8922 H   0  0  0  0  0  0  0  0  0  0  0  0
   45.9785   30.8470   38.9844 H   0  0  0  0  0  0  0  0  0  0  0  0
   48.5628   32.5276   37.7467 H   0  0  0  0  0  0  0  0  0  0  0  0
   46.9735   31.2803   36.2437 H   0  0  0  0  0  0  0  0  0  0  0  0
   46.2623   32.9007   36.2350 H   0  0  0  0  0  0  0  0  0  0  0  0
   49.1626   33.1685   36.4851 H   0  0  0  0  0  0  0  0  0  0  0  0
   48.8120   32.0480   35.1256 H   0  0  0  0  0  0  0  0  0  0  0  0
   48.1181   33.7048   35.1256 H   0  0  0  0  0  0  0  0  0  0  0  0
  1  9  1  0
  2  1  2  0
  3  2  1  0
  4  5  1  0
  4  3  2  0
  5  6  2  0
  6  1  1  0
  7 12  2  0
  8  7  1  0
  9  8  2  0
  9 10  1  0
 10 11  2  0
 11 12  1  0
 13 14  1  0
 13  5  1  0
 15 13  1  0
 15 14  1  0
 16 15  1  0
 17 16  1  0
  2 18  1  0
  3 19  1  0
  4 20  1  0
  7 21  1  0
  8 22  1  0
 11 23  1  0
 13 24  1  6
 14 25  1  0
 14 26  1  0
 15 27  1  6
 16 28  1  0
 16 29  1  0
 17 30  1  0
 17 31  1  0
 17 32  1  0
M  ISO  8  18  14  19  14  20  14  21  14  22  14  23  14  24  13  25  13
M  ISO  7  26  13  27  13  28   8  29   8  30   8  31   8  32   8
M  END
>  <minimizedAffinity>  (1) 
-5.06891251

>  <minimizedRMSD>  (1) 
0.863316357

$$$$
