
     RDKit          3D

 41 44  0  0  1  0  0  0  0  0999 V2000
   46.0700   32.4700   38.6550 C   0  0  2  0  0  0  0  0  0  0  0  0
   46.9590   31.5120   37.9740 C   0  0  0  0  0  0  0  0  0  0  0  0
   46.2510   32.6430   37.2250 C   0  0  1  0  0  0  0  0  0  0  0  0
   46.5640   34.5600   41.6520 C   0  0  0  0  0  0  0  0  0  0  0  0
   47.7760   35.1320   41.2700 C   0  0  0  0  0  0  0  0  0  0  0  0
   48.4480   34.8730   40.0920 C   0  0  0  0  0  0  0  0  0  0  0  0
   47.8720   33.9740   39.2140 C   0  0  0  0  0  0  0  0  0  0  0  0
   46.6820   33.4250   39.6080 C   0  0  0  0  0  0  0  0  0  0  0  0
   46.0780   33.7070   40.7520 N   0  0  0  0  0  0  0  0  0  0  0  0
   44.6270   36.1600   44.4520 C   0  0  0  0  0  0  0  0  0  0  0  0
   45.1950   36.0330   43.1600 C   0  0  0  0  0  0  0  0  0  0  0  0
   45.9080   34.8730   42.9140 C   0  0  0  0  0  0  0  0  0  0  0  0
   46.0270   33.9420   43.8880 N   0  0  0  0  0  0  0  0  0  0  0  0
   45.4630   34.1120   45.1120 C   0  0  0  0  0  0  0  0  0  0  0  0
   44.7740   35.2210   45.3670 N   0  0  0  0  0  0  0  0  0  0  0  0
   45.2480   32.2360   36.3270 O   0  0  0  0  0  0  0  0  0  0  0  0
   45.4640   30.5560   34.4230 O   0  0  0  0  0  0  0  0  0  0  0  0
   45.8170   32.0120   34.7600 P   0  0  1  0  0  0  0  0  0  0  0  0
   44.9830   32.9710   33.6750 O   0  0  0  0  0  0  0  0  0  0  0  0
   47.4880   32.1190   34.6100 O   0  0  0  0  0  0  0  0  0  0  0  0
   48.1220   32.2420   33.3810 C   0  0  0  0  0  0  0  0  0  0  0  0
   48.8280   33.3010   32.8490 C   0  0  0  0  0  0  0  0  0  0  0  0
   49.3750   33.1850   31.5890 C   0  0  0  0  0  0  0  0  0  0  0  0
   49.2340   32.0350   30.8420 C   0  0  0  0  0  0  0  0  0  0  0  0
   48.5280   31.0100   31.4050 C   0  0  0  0  0  0  0  0  0  0  0  0
   47.9860   31.1050   32.6370 N   0  0  0  0  0  0  0  0  0  0  0  0
   45.1737   32.3807   39.2864 H   0  0  0  0  0  0  0  0  0  0  0  0
   48.0461   31.5488   38.1380 H   0  0  0  0  0  0  0  0  0  0  0  0
   47.0187   30.4176   37.8804 H   0  0  0  0  0  0  0  0  0  0  0  0
   46.5320   33.5026   36.5988 H   0  0  0  0  0  0  0  0  0  0  0  0
   48.2358   35.8499   41.9651 H   0  0  0  0  0  0  0  0  0  0  0  0
   49.4052   35.3633   39.8610 H   0  0  0  0  0  0  0  0  0  0  0  0
   48.3429   33.7149   38.2542 H   0  0  0  0  0  0  0  0  0  0  0  0
   44.0495   37.0634   44.6980 H   0  0  0  0  0  0  0  0  0  0  0  0
   45.0756   36.8139   42.3945 H   0  0  0  0  0  0  0  0  0  0  0  0
   45.5751   33.3387   45.8862 H   0  0  0  0  0  0  0  0  0  0  0  0
   44.4206   33.6177   34.1706 H   0  0  0  0  0  0  0  0  0  0  0  0
   48.9534   34.2297   33.4250 H   0  0  0  0  0  0  0  0  0  0  0  0
   49.9382   34.0314   31.1690 H   0  0  0  0  0  0  0  0  0  0  0  0
   49.6710   31.9466   29.8364 H   0  0  0  0  0  0  0  0  0  0  0  0
   48.3972   30.0777   30.8360 H   0  0  0  0  0  0  0  0  0  0  0  0
  1  8  1  0
  2  1  1  0
  3  2  1  0
  3  1  1  0
  4 12  1  0
  5  4  2  0
  6  5  1  0
  7  8  1  0
  7  6  2  0
  8  9  2  0
  9  4  1  0
 10 15  2  0
 11 10  1  0
 12 11  2  0
 12 13  1  0
 13 14  2  0
 14 15  1  0
 16  3  1  0
 18 17  2  0
 18 16  1  0
 19 18  1  0
 20 18  1  0
 21 20  1  0
 22 21  2  0
 23 22  1  0
 24 25  1  0
 24 23  2  0
 25 26  2  0
 26 21  1  0
  1 27  1  6
  2 28  1  0
  2 29  1  0
  3 30  1  1
  5 31  1  0
  6 32  1  0
  7 33  1  0
 10 34  1  0
 11 35  1  0
 14 36  1  0
 19 37  1  0
 22 38  1  0
 23 39  1  0
 24 40  1  0
 25 41  1  0
M  ISO  8  27  13  28  13  29  13  30  13  31  14  32  14  33  14  34  14
M  ISO  7  35  14  36  14  37   3  38  14  39  14  40  14  41  14
M  END
>  <minimizedAffinity>  (1) 
-7.10639858

>  <minimizedRMSD>  (1) 
0.700150132

$$$$
