
     RDKit          3D

 36 38  0  0  1  0  0  0  0  0999 V2000
   46.5780   34.5860   41.8760 C   0  0  0  0  0  0  0  0  0  0  0  0
   47.7740   35.1790   41.5200 C   0  0  0  0  0  0  0  0  0  0  0  0
   48.4560   34.9450   40.3460 C   0  0  0  0  0  0  0  0  0  0  0  0
   47.9050   34.0450   39.4530 C   0  0  0  0  0  0  0  0  0  0  0  0
   46.7220   33.4680   39.8240 C   0  0  0  0  0  0  0  0  0  0  0  0
   46.1030   33.7270   40.9650 N   0  0  0  0  0  0  0  0  0  0  0  0
   44.5300   36.1150   44.6470 C   0  0  0  0  0  0  0  0  0  0  0  0
   45.1230   35.9900   43.3810 C   0  0  0  0  0  0  0  0  0  0  0  0
   45.8940   34.8680   43.1380 C   0  0  0  0  0  0  0  0  0  0  0  0
   46.0390   33.9520   44.1220 N   0  0  0  0  0  0  0  0  0  0  0  0
   45.4460   34.1110   45.3400 C   0  0  0  0  0  0  0  0  0  0  0  0
   44.7060   35.1850   45.5780 N   0  0  0  0  0  0  0  0  0  0  0  0
   46.1390   32.5160   38.8580 C   0  0  2  0  0  0  0  0  0  0  0  0
   47.0030   31.4310   38.3530 C   0  0  0  0  0  0  0  0  0  0  0  0
   46.5080   32.5700   37.4560 C   0  0  1  0  0  0  0  0  0  0  0  0
   45.5930   32.1970   36.4580 O   0  0  0  0  0  0  0  0  0  0  0  0
   46.2910   30.7020   34.5100 O   0  0  0  0  0  0  0  0  0  0  0  0
   46.2660   32.1820   34.9150 P   0  0  1  0  0  0  0  0  0  0  0  0
   45.2740   32.9700   33.8240 O   0  0  0  0  0  0  0  0  0  0  0  0
   47.8700   32.6860   34.8550 O   0  0  0  0  0  0  0  0  0  0  0  0
   48.6430   32.6650   33.7240 C   0  0  0  0  0  0  0  0  0  0  0  0
   48.0390   32.9980   32.6740 O   0  0  0  0  0  0  0  0  0  0  0  0
   50.0120   32.3280   33.5520 N   0  0  0  0  0  0  0  0  0  0  0  0
   48.2163   35.8939   42.2294 H   0  0  0  0  0  0  0  0  0  0  0  0
   49.4051   35.4561   40.1270 H   0  0  0  0  0  0  0  0  0  0  0  0
   48.3917   33.8060   38.4959 H   0  0  0  0  0  0  0  0  0  0  0  0
   43.9106   36.9960   44.8710 H   0  0  0  0  0  0  0  0  0  0  0  0
   44.9792   36.7590   42.6077 H   0  0  0  0  0  0  0  0  0  0  0  0
   45.5814   33.3501   46.1228 H   0  0  0  0  0  0  0  0  0  0  0  0
   45.1677   32.5577   39.3726 H   0  0  0  0  0  0  0  0  0  0  0  0
   48.0604   31.3771   38.6514 H   0  0  0  0  0  0  0  0  0  0  0  0
   46.9624   30.3320   38.3316 H   0  0  0  0  0  0  0  0  0  0  0  0
   46.9460   33.3564   36.8237 H   0  0  0  0  0  0  0  0  0  0  0  0
   44.6013   33.5044   34.3159 H   0  0  0  0  0  0  0  0  0  0  0  0
   50.4384   32.3677   32.6152 H   0  0  0  0  0  0  0  0  0  0  0  0
   50.5784   32.0440   34.3640 H   0  0  0  0  0  0  0  0  0  0  0  0
  1  9  1  0
  2  1  2  0
  3  2  1  0
  4  5  1  0
  4  3  2  0
  5  6  2  0
  6  1  1  0
  7 12  2  0
  8  7  1  0
  9  8  2  0
  9 10  1  0
 10 11  2  0
 11 12  1  0
 13  5  1  0
 14 13  1  0
 15 14  1  0
 15 13  1  0
 16 15  1  0
 18 17  2  0
 18 16  1  0
 19 18  1  0
 20 18  1  0
 21 20  1  0
 22 21  2  0
 23 21  1  0
  2 24  1  0
  3 25  1  0
  4 26  1  0
  7 27  1  0
  8 28  1  0
 11 29  1  0
 13 30  1  6
 14 31  1  0
 14 32  1  0
 15 33  1  6
 19 34  1  0
 23 35  1  0
 23 36  1  0
M  ISO  8  24  14  25  14  26  14  27  14  28  14  29  14  30  13  31  13
M  ISO  3  32  13  33  13  34   3
M  END
>  <minimizedAffinity>  (1) 
-6.22508812

>  <minimizedRMSD>  (1) 
0.835079372

$$$$
