
     RDKit          3D

 44 46  0  0  0  0  0  0  0  0999 V2000
   46.6160   34.6655   42.0043 C   0  0  0  0  0  0  0  0  0  0  0  0
   47.8169   35.2679   41.6963 C   0  0  0  0  0  0  0  0  0  0  0  0
   48.5229   35.0778   40.5272 C   0  0  0  0  0  0  0  0  0  0  0  0
   47.9858   34.2158   39.5889 C   0  0  0  0  0  0  0  0  0  0  0  0
   46.7943   33.6325   39.9197 C   0  0  0  0  0  0  0  0  0  0  0  0
   46.1611   33.8505   41.0548 N   0  0  0  0  0  0  0  0  0  0  0  0
   44.4791   36.0723   44.7775 C   0  0  0  0  0  0  0  0  0  0  0  0
   45.0906   35.9851   43.5233 C   0  0  0  0  0  0  0  0  0  0  0  0
   45.9067   34.9011   43.2658 C   0  0  0  0  0  0  0  0  0  0  0  0
   46.0745   33.9827   44.2309 N   0  0  0  0  0  0  0  0  0  0  0  0
   45.4648   34.0920   45.4483 C   0  0  0  0  0  0  0  0  0  0  0  0
   44.6784   35.1367   45.6962 N   0  0  0  0  0  0  0  0  0  0  0  0
   46.2272   32.7174   38.9030 C   0  0  2  0  0  0  0  0  0  0  0  0
   47.1560   31.8301   38.1781 C   0  0  0  0  0  0  0  0  0  0  0  0
   46.4135   32.9761   37.4872 C   0  0  1  0  0  0  0  0  0  0  0  0
   45.4394   32.5908   36.5510 O   0  0  0  0  0  0  0  0  0  0  0  0
   46.1021   30.8247   34.8265 O   0  0  0  0  0  0  0  0  0  0  0  0
   46.0862   32.3469   34.9975 P   0  0  1  0  0  0  0  0  0  0  0  0
   45.0147   32.9686   33.8503 O   0  0  0  0  0  0  0  0  0  0  0  0
   47.6486   32.8717   34.8172 O   0  0  0  0  0  0  0  0  0  0  0  0
   48.2731   35.9563   42.4137 H   0  0  0  0  0  0  0  0  0  0  0  0
   49.4606   35.5710   40.3283 H   0  0  0  0  0  0  0  0  0  0  0  0
   48.4902   34.0285   38.6607 H   0  0  0  0  0  0  0  0  0  0  0  0
   43.8660   36.9642   44.8572 H   0  0  0  0  0  0  0  0  0  0  0  0
   44.9808   36.6970   42.7297 H   0  0  0  0  0  0  0  0  0  0  0  0
   45.6180   33.3359   46.2089 H   0  0  0  0  0  0  0  0  0  0  0  0
   45.2510   32.2201   39.1885 H   0  0  0  0  0  0  0  0  0  0  0  0
   46.8073   30.8317   37.8472 H   0  0  0  0  0  0  0  0  0  0  0  0
   48.2409   31.8666   38.3144 H   0  0  0  0  0  0  0  0  0  0  0  0
   47.1579   33.6570   37.0556 H   0  0  0  0  0  0  0  0  0  0  0  0
   44.6701   33.8241   34.2246 H   0  0  0  0  0  0  0  0  0  0  0  0
   48.0045   33.1357   33.5430 C   0  0  0  0  0  0  0  0  0  0  0  0
   48.8946   32.2652   32.8600 N   0  0  0  0  0  4  0  0  0  0  0  0
   49.9679   31.7172   33.6539 C   0  0  0  0  0  0  0  0  0  0  0  0
   50.0209   30.6106   33.5939 H   0  0  0  0  0  0  0  0  0  0  0  0
   48.3183   31.2340   32.0573 C   0  0  0  0  0  0  0  0  0  0  0  0
   48.2096   30.2558   32.5282 H   0  0  0  0  0  0  0  0  0  0  0  0
   47.1149   33.2883   32.8622 H   0  0  0  0  0  0  0  0  0  0  0  0
   48.4809   34.1735   33.5550 H   0  0  0  0  0  0  0  0  0  0  0  0
   49.4054   32.8993   32.1397 H   0  0  0  0  0  0  0  0  0  0  0  0
   49.9202   32.0440   34.7104 H   0  0  0  0  0  0  0  0  0  0  0  0
   50.9853   32.0464   33.2752 H   0  0  0  0  0  0  0  0  0  0  0  0
   47.3989   31.5912   31.5104 H   0  0  0  0  0  0  0  0  0  0  0  0
   49.0396   31.0419   31.1973 H   0  0  0  0  0  0  0  0  0  0  0  0
  1  9  1  0
  2  1  2  0
  3  2  1  0
  4  5  1  0
  4  3  2  0
  5  6  2  0
  6  1  1  0
  7 12  2  0
  8  7  1  0
  9  8  2  0
  9 10  1  0
 10 11  2  0
 11 12  1  0
 13  5  1  0
 14 13  1  0
 15 14  1  0
 15 13  1  0
 16 15  1  0
 17 18  2  0
 18 16  1  1
 19 18  1  0
 20 18  1  0
  2 21  1  0
  3 22  1  0
  4 23  1  0
  7 24  1  0
  8 25  1  0
 11 26  1  0
 13 27  1  6
 14 28  1  0
 14 29  1  0
 15 30  1  1
 19 31  1  0
 32 33  1  0
 33 34  1  0
 34 35  1  0
 33 36  1  0
 36 37  1  0
 32 38  1  0
 32 39  1  0
 33 40  1  0
 34 41  1  0
 34 42  1  0
 36 43  1  0
 36 44  1  0
 20 32  1  0
M  CHG  1  33   1
M  END
>  <DihAtoms>  (1) 
17,19,31,32

>  <DihDeg>  (1) 
-62.90086822794034

$$$$
