
     RDKit          3D

 11 11  0  0  0  0  0  0  0  0999 V2000
   44.5060   35.9860   44.5360 C   0  0  0  0  0  0  0  0  0  0  0  0
   45.1870   35.9160   43.2910 C   0  0  0  0  0  0  0  0  0  0  0  0
   46.1110   34.8820   43.1040 C   0  0  0  0  0  0  0  0  0  0  0  0
   46.3120   33.9990   44.1170 N   0  0  0  0  0  0  0  0  0  0  0  0
   45.6440   34.0950   45.2960 C   0  0  0  0  0  0  0  0  0  0  0  0
   44.7550   35.0740   45.5010 N   0  0  0  0  0  0  0  0  0  0  0  0
   46.0990   32.8070   46.4480 S   0  0  0  0  0  0  0  0  0  0  0  0
   43.7728   36.7863   44.7149 H   0  0  0  0  0  0  0  0  0  0  0  0
   44.9936   36.6529   42.4976 H   0  0  0  0  0  0  0  0  0  0  0  0
   46.6628   34.7860   42.1573 H   0  0  0  0  0  0  0  0  0  0  0  0
   45.9379   33.2630   47.7298 H   0  0  0  0  0  0  0  0  0  0  0  0
  1  6  2  0
  2  1  1  0
  3  2  2  0
  3  4  1  0
  4  5  2  0
  5  6  1  0
  5  7  1  0
  1  8  1  0
  2  9  1  0
  3 10  1  0
  7 11  1  0
M  ISO  4   8  14   9  14  10  14  11  11
M  END
>  <minimizedAffinity>  (1) 
-2.97916865

>  <minimizedRMSD>  (1) 
0.458888739

$$$$
