
     RDKit          3D

 20 21  0  0  0  0  0  0  0  0999 V2000
   44.5430   35.5700   45.0240 C   0  0  0  0  0  0  0  0  0  0  0  0
   44.8880   36.0350   43.7360 C   0  0  0  0  0  0  0  0  0  0  0  0
   45.8360   35.3320   42.9920 C   0  0  0  0  0  0  0  0  0  0  0  0
   46.3890   34.2160   43.5520 N   0  0  0  0  0  0  0  0  0  0  0  0
   46.0320   33.7950   44.8030 C   0  0  0  0  0  0  0  0  0  0  0  0
   45.1210   34.4660   45.5260 N   0  0  0  0  0  0  0  0  0  0  0  0
   46.9150   32.3080   45.2840 S   0  0  0  0  0  0  0  0  0  0  0  0
   46.2020   31.6790   46.8160 C   0  0  0  0  0  0  0  0  0  0  0  0
   46.3250   32.3540   47.9930 C   0  0  0  0  0  0  0  0  0  0  0  0
   45.8180   31.9610   49.2140 C   0  0  0  0  0  0  0  0  0  0  0  0
   45.1310   30.7470   49.1530 C   0  0  0  0  0  0  0  0  0  0  0  0
   45.0030   30.0550   47.9530 C   0  0  0  0  0  0  0  0  0  0  0  0
   45.5330   30.5180   46.8010 N   0  0  0  0  0  0  0  0  0  0  0  0
   43.7963   36.1152   45.6200 H   0  0  0  0  0  0  0  0  0  0  0  0
   44.4156   36.9393   43.3248 H   0  0  0  0  0  0  0  0  0  0  0  0
   46.1289   35.6662   41.9858 H   0  0  0  0  0  0  0  0  0  0  0  0
   46.8815   33.3025   47.9671 H   0  0  0  0  0  0  0  0  0  0  0  0
   45.9419   32.5431   50.1391 H   0  0  0  0  0  0  0  0  0  0  0  0
   44.6840   30.3313   50.0681 H   0  0  0  0  0  0  0  0  0  0  0  0
   44.4535   29.1021   47.9425 H   0  0  0  0  0  0  0  0  0  0  0  0
  1  6  2  0
  2  1  1  0
  3  4  1  0
  3  2  2  0
  4  5  2  0
  5  7  1  0
  5  6  1  0
  7  8  1  0
  8  9  2  0
  9 10  1  0
 11 10  2  0
 12 11  1  0
 13  8  1  0
 13 12  2  0
  1 14  1  0
  2 15  1  0
  3 16  1  0
  9 17  1  0
 10 18  1  0
 11 19  1  0
 12 20  1  0
M  ISO  7  14  14  15  14  16  14  17  14  18  14  19  14  20  14
M  END
>  <minimizedAffinity>  (1) 
-4.55826473

>  <minimizedRMSD>  (1) 
2.91500163

$$$$
