
     RDKit          3D

 22 23  0  0  1  0  0  0  0  0999 V2000
   44.5640   35.7170   44.7440 C   0  0  0  0  0  0  0  0  0  0  0  0
   44.9540   36.2150   43.4730 C   0  0  0  0  0  0  0  0  0  0  0  0
   45.9300   35.4870   42.7600 C   0  0  0  0  0  0  0  0  0  0  0  0
   46.4200   34.3740   43.3400 N   0  0  0  0  0  0  0  0  0  0  0  0
   46.0300   33.9240   44.5510 C   0  0  0  0  0  0  0  0  0  0  0  0
   45.1060   34.5930   45.2500 N   0  0  0  0  0  0  0  0  0  0  0  0
   46.8570   32.4360   45.0480 S   0  0  0  0  0  0  0  0  0  0  0  0
   46.2960   32.8230   47.6280 N   0  0  0  0  0  0  0  0  0  0  0  0
   46.3850   31.7930   46.6210 C   0  0  2  0  0  0  0  0  0  0  0  0
   47.3080   30.7480   47.2190 C   0  0  0  0  0  0  0  0  0  0  0  0
   46.5590   30.1350   48.2120 O   0  0  0  0  0  0  0  0  0  0  0  0
   46.1010   30.9350   49.2060 C   0  0  0  0  0  0  0  0  0  0  0  0
   45.7960   32.3610   48.8800 C   0  0  0  0  0  0  0  0  0  0  0  0
   43.8048   36.2596   45.3264 H   0  0  0  0  0  0  0  0  0  0  0  0
   44.5120   37.1336   43.0597 H   0  0  0  0  0  0  0  0  0  0  0  0
   46.2773   35.8154   41.7693 H   0  0  0  0  0  0  0  0  0  0  0  0
   46.5686   33.8015   47.4576 H   0  0  0  0  0  0  0  0  0  0  0  0
   45.4161   31.3297   46.3830 H   0  0  0  0  0  0  0  0  0  0  0  0
   47.6103   30.0164   46.4552 H   0  0  0  0  0  0  0  0  0  0  0  0
   48.2341   31.1914   47.6137 H   0  0  0  0  0  0  0  0  0  0  0  0
   45.9578   30.5451   50.2246 H   0  0  0  0  0  0  0  0  0  0  0  0
   45.2245   33.0099   49.5600 H   0  0  0  0  0  0  0  0  0  0  0  0
  1  6  2  0
  2  1  1  0
  3  4  1  0
  3  2  2  0
  4  5  2  0
  5  7  1  0
  5  6  1  0
  8 13  1  0
  9  7  1  0
  9 10  1  0
  9  8  1  0
 10 11  1  0
 11 12  1  0
 13 12  2  0
  1 14  1  0
  2 15  1  0
  3 16  1  0
  8 17  1  0
  9 18  1  6
 10 19  1  0
 10 20  1  0
 12 21  1  0
 13 22  1  0
M  ISO  8  14  14  15  14  16  14  18  13  19  13  20  13  21  13  22  13
M  END
>  <minimizedAffinity>  (1) 
-4.3399024

>  <minimizedRMSD>  (1) 
2.40450501

$$$$
