
     RDKit          3D

 14 14  0  0  0  0  0  0  0  0999 V2000
   44.4920   35.9120   44.5760 C   0  0  0  0  0  0  0  0  0  0  0  0
   45.1260   35.9640   43.3150 C   0  0  0  0  0  0  0  0  0  0  0  0
   46.1010   35.0190   43.0050 C   0  0  0  0  0  0  0  0  0  0  0  0
   46.3990   34.0840   43.9340 N   0  0  0  0  0  0  0  0  0  0  0  0
   45.7770   34.0450   45.1520 C   0  0  0  0  0  0  0  0  0  0  0  0
   44.8380   34.9550   45.4500 N   0  0  0  0  0  0  0  0  0  0  0  0
   46.3560   32.7180   46.1820 S   0  0  0  0  0  0  0  0  0  0  0  0
   45.3820   32.6210   47.7240 C   0  0  0  0  0  0  0  0  0  0  0  0
   43.7205   36.6505   44.8394 H   0  0  0  0  0  0  0  0  0  0  0  0
   44.8530   36.7416   42.5864 H   0  0  0  0  0  0  0  0  0  0  0  0
   46.6137   35.0333   42.0319 H   0  0  0  0  0  0  0  0  0  0  0  0
   46.0577   32.6883   48.5894 H   0  0  0  0  0  0  0  0  0  0  0  0
   44.6618   33.4519   47.7557 H   0  0  0  0  0  0  0  0  0  0  0  0
   44.8398   31.6644   47.7557 H   0  0  0  0  0  0  0  0  0  0  0  0
  1  6  2  0
  2  1  1  0
  3  2  2  0
  3  4  1  0
  4  5  2  0
  5  6  1  0
  5  7  1  0
  7  8  1  0
  1  9  1  0
  2 10  1  0
  3 11  1  0
  8 12  1  0
  8 13  1  0
  8 14  1  0
M  ISO  6   9  14  10  14  11  14  12   8  13   8  14   8
M  END
>  <minimizedAffinity>  (1) 
-3.16968107

>  <minimizedRMSD>  (1) 
0.264274627

$$$$
