
     RDKit          3D

 32 34  0  0  0  0  0  0  0  0999 V2000
   44.5740   35.7670   44.7280 C   0  0  0  0  0  0  0  0  0  0  0  0
   45.1970   35.7350   43.4520 C   0  0  0  0  0  0  0  0  0  0  0  0
   46.1190   34.7070   43.2220 C   0  0  0  0  0  0  0  0  0  0  0  0
   46.3430   33.8280   44.2300 N   0  0  0  0  0  0  0  0  0  0  0  0
   45.7440   33.8820   45.4180 C   0  0  0  0  0  0  0  0  0  0  0  0
   44.8460   34.8600   45.6820 N   0  0  0  0  0  0  0  0  0  0  0  0
   46.7580   34.6530   41.9480 N   0  0  0  0  0  0  0  0  0  0  0  0
   47.9630   35.2240   41.8240 C   0  0  0  0  0  0  0  0  0  0  0  0
   48.5850   35.1680   40.5770 C   0  0  0  0  0  0  0  0  0  0  0  0
   47.9340   34.5370   39.5550 C   0  0  0  0  0  0  0  0  0  0  0  0
   48.5130   34.4910   38.4100 O   0  0  0  0  0  0  0  0  0  0  0  0
   46.7140   33.9530   39.6630 N   0  0  0  0  0  0  0  0  0  0  0  0
   46.1660   34.0450   40.9050 C   0  0  0  0  0  0  0  0  0  0  0  0
   45.0400   33.5400   41.1200 O   0  0  0  0  0  0  0  0  0  0  0  0
   45.4880   32.8920   47.6820 C   0  0  0  0  0  0  0  0  0  0  0  0
   46.0790   32.8700   46.4140 C   0  0  0  0  0  0  0  0  0  0  0  0
   46.9920   31.9000   46.0650 C   0  0  0  0  0  0  0  0  0  0  0  0
   47.3130   30.9400   47.0040 C   0  0  0  0  0  0  0  0  0  0  0  0
   46.7280   30.9640   48.2540 C   0  0  0  0  0  0  0  0  0  0  0  0
   45.8090   31.9230   48.6350 C   0  0  0  0  0  0  0  0  0  0  0  0
   44.5710   33.9220   47.9370 O   0  0  0  0  0  0  0  0  0  0  0  0
   45.2050   31.9740   49.8820 O   0  0  0  0  0  0  0  0  0  0  0  0
   43.8439   36.5612   44.9429 H   0  0  0  0  0  0  0  0  0  0  0  0
   44.9656   36.4836   42.6799 H   0  0  0  0  0  0  0  0  0  0  0  0
   48.4465   35.7210   42.6779 H   0  0  0  0  0  0  0  0  0  0  0  0
   49.5752   35.6207   40.4202 H   0  0  0  0  0  0  0  0  0  0  0  0
   46.2451   33.4825   38.8758 H   0  0  0  0  0  0  0  0  0  0  0  0
   47.4526   31.8903   45.0661 H   0  0  0  0  0  0  0  0  0  0  0  0
   48.0388   30.1519   46.7546 H   0  0  0  0  0  0  0  0  0  0  0  0
   47.0058   30.1849   48.9792 H   0  0  0  0  0  0  0  0  0  0  0  0
   44.3697   34.5905   47.2351 H   0  0  0  0  0  0  0  0  0  0  0  0
   45.4240   31.2930   50.5663 H   0  0  0  0  0  0  0  0  0  0  0  0
  1  6  2  0
  2  1  1  0
  3  2  2  0
  3  4  1  0
  4  5  2  0
  5  6  1  0
  5 16  1  0
  7  3  1  0
  8  7  1  0
  9  8  2  0
 10 12  1  0
 10  9  1  0
 11 10  2  0
 12 13  1  0
 13 14  2  0
 13  7  1  0
 15 21  1  0
 15 20  2  0
 16 15  1  0
 17 16  2  0
 17 18  1  0
 18 19  2  0
 19 20  1  0
 20 22  1  0
  1 23  1  0
  2 24  1  0
  8 25  1  0
  9 26  1  0
 12 27  1  0
 17 28  1  0
 18 29  1  0
 19 30  1  0
 21 31  1  0
 22 32  1  0
M  ISO  8  23  14  24  14  25  14  26  14  27   9  28  14  29  14  30  14
M  ISO  2  31   3  32   3
M  END
>  <minimizedAffinity>  (1) 
-7.98839045

>  <minimizedRMSD>  (1) 
0.60035634

$$$$
