
     RDKit          3D

 29 31  0  0  0  0  0  0  0  0999 V2000
   44.4870   35.8110   44.8800 C   0  0  0  0  0  0  0  0  0  0  0  0
   45.1040   35.7500   43.6060 C   0  0  0  0  0  0  0  0  0  0  0  0
   46.0110   34.7250   43.4010 C   0  0  0  0  0  0  0  0  0  0  0  0
   46.2760   33.8250   44.4100 N   0  0  0  0  0  0  0  0  0  0  0  0
   45.6560   33.9370   45.6000 C   0  0  0  0  0  0  0  0  0  0  0  0
   44.7640   34.9120   45.8580 N   0  0  0  0  0  0  0  0  0  0  0  0
   46.6480   34.6410   42.1220 N   0  0  0  0  0  0  0  0  0  0  0  0
   47.8770   35.1560   41.9850 C   0  0  0  0  0  0  0  0  0  0  0  0
   48.4980   35.0740   40.7440 C   0  0  0  0  0  0  0  0  0  0  0  0
   47.8220   34.4700   39.7180 C   0  0  0  0  0  0  0  0  0  0  0  0
   48.4040   34.4010   38.5840 O   0  0  0  0  0  0  0  0  0  0  0  0
   46.5920   33.9480   39.8380 N   0  0  0  0  0  0  0  0  0  0  0  0
   46.0360   34.0570   41.0680 C   0  0  0  0  0  0  0  0  0  0  0  0
   44.8860   33.6020   41.2890 O   0  0  0  0  0  0  0  0  0  0  0  0
   45.9640   32.9640   46.6460 C   0  0  0  0  0  0  0  0  0  0  0  0
   45.1470   32.8230   47.7460 C   0  0  0  0  0  0  0  0  0  0  0  0
   45.4500   31.9000   48.7270 C   0  0  0  0  0  0  0  0  0  0  0  0
   46.5810   31.1200   48.5900 C   0  0  0  0  0  0  0  0  0  0  0  0
   47.4010   31.2720   47.4690 C   0  0  0  0  0  0  0  0  0  0  0  0
   47.0570   32.1830   46.5530 N   0  0  0  0  0  0  0  0  0  0  0  0
   43.7608   36.6120   45.0826 H   0  0  0  0  0  0  0  0  0  0  0  0
   44.8733   36.4819   42.8180 H   0  0  0  0  0  0  0  0  0  0  0  0
   48.3840   35.6336   42.8364 H   0  0  0  0  0  0  0  0  0  0  0  0
   49.5071   35.4840   40.5902 H   0  0  0  0  0  0  0  0  0  0  0  0
   46.1052   33.4964   39.0506 H   0  0  0  0  0  0  0  0  0  0  0  0
   44.2480   33.4494   47.8434 H   0  0  0  0  0  0  0  0  0  0  0  0
   44.7988   31.7875   49.6064 H   0  0  0  0  0  0  0  0  0  0  0  0
   46.8362   30.3797   49.3626 H   0  0  0  0  0  0  0  0  0  0  0  0
   48.3054   30.6585   47.3435 H   0  0  0  0  0  0  0  0  0  0  0  0
  1  6  2  0
  2  1  1  0
  3  2  2  0
  3  4  1  0
  4  5  2  0
  5  6  1  0
  5 15  1  0
  7  3  1  0
  8  7  1  0
  9  8  2  0
 10 12  1  0
 10  9  1  0
 11 10  2  0
 12 13  1  0
 13 14  2  0
 13  7  1  0
 15 16  2  0
 16 17  1  0
 18 17  2  0
 19 18  1  0
 20 15  1  0
 20 19  2  0
  1 21  1  0
  2 22  1  0
  8 23  1  0
  9 24  1  0
 12 25  1  0
 16 26  1  0
 17 27  1  0
 18 28  1  0
 19 29  1  0
M  ISO  8  21  14  22  14  23  14  24  14  25   9  26  14  27  14  28  14
M  ISO  1  29  14
M  END
>  <minimizedAffinity>  (1) 
-6.66255951

>  <minimizedRMSD>  (1) 
0.732995868

$$$$
