
     RDKit          3D

 32 34  0  0  1  0  0  0  0  0999 V2000
   44.5690   35.4970   44.9190 C   0  0  0  0  0  0  0  0  0  0  0  0
   45.1470   35.5020   43.6240 C   0  0  0  0  0  0  0  0  0  0  0  0
   46.1720   34.5890   43.3900 C   0  0  0  0  0  0  0  0  0  0  0  0
   46.5530   33.7600   44.4010 N   0  0  0  0  0  0  0  0  0  0  0  0
   45.9900   33.7780   45.6150 C   0  0  0  0  0  0  0  0  0  0  0  0
   44.9950   34.6410   45.8900 N   0  0  0  0  0  0  0  0  0  0  0  0
   46.7730   34.5740   42.0890 N   0  0  0  0  0  0  0  0  0  0  0  0
   47.9660   35.2090   41.9510 C   0  0  0  0  0  0  0  0  0  0  0  0
   48.5580   35.1980   40.6830 C   0  0  0  0  0  0  0  0  0  0  0  0
   47.9070   34.5520   39.6600 C   0  0  0  0  0  0  0  0  0  0  0  0
   48.4560   34.5490   38.5100 O   0  0  0  0  0  0  0  0  0  0  0  0
   46.7200   33.9240   39.8080 N   0  0  0  0  0  0  0  0  0  0  0  0
   46.1940   33.9640   41.0470 C   0  0  0  0  0  0  0  0  0  0  0  0
   45.0990   33.4150   41.2950 O   0  0  0  0  0  0  0  0  0  0  0  0
   45.3310   32.5110   47.6010 C   0  0  1  0  0  0  0  0  0  0  0  0
   46.4850   32.8260   46.6460 C   0  0  1  0  0  0  0  0  0  0  0  0
   46.7620   31.4740   46.0400 C   0  0  0  0  0  0  0  0  0  0  0  0
   45.6490   30.6660   46.3320 O   0  0  0  0  0  0  0  0  0  0  0  0
   45.2420   30.9990   47.6200 C   0  0  0  0  0  0  0  0  0  0  0  0
   45.6970   33.0360   48.8520 O   0  0  0  0  0  0  0  0  0  0  0  0
   43.7558   36.2023   45.1455 H   0  0  0  0  0  0  0  0  0  0  0  0
   44.8021   36.1941   42.8417 H   0  0  0  0  0  0  0  0  0  0  0  0
   48.4477   35.7120   42.8024 H   0  0  0  0  0  0  0  0  0  0  0  0
   49.5234   35.6957   40.5092 H   0  0  0  0  0  0  0  0  0  0  0  0
   46.2492   33.4469   39.0260 H   0  0  0  0  0  0  0  0  0  0  0  0
   44.3577   32.9375   47.3169 H   0  0  0  0  0  0  0  0  0  0  0  0
   47.3728   33.2813   47.1092 H   0  0  0  0  0  0  0  0  0  0  0  0
   47.6718   31.0401   46.4805 H   0  0  0  0  0  0  0  0  0  0  0  0
   46.9214   31.5516   44.9544 H   0  0  0  0  0  0  0  0  0  0  0  0
   45.9162   30.5690   48.3753 H   0  0  0  0  0  0  0  0  0  0  0  0
   44.2435   30.6180   47.8806 H   0  0  0  0  0  0  0  0  0  0  0  0
   45.3077   32.4776   49.5709 H   0  0  0  0  0  0  0  0  0  0  0  0
  1  6  2  0
  2  1  1  0
  3  2  2  0
  3  4  1  0
  4  5  2  0
  5  6  1  0
  7  3  1  0
  8  7  1  0
  9  8  2  0
 10 12  1  0
 10  9  1  0
 11 10  2  0
 12 13  1  0
 13 14  2  0
 13  7  1  0
 15 19  1  0
 15 20  1  0
 16  5  1  0
 16 15  1  0
 17 18  1  0
 17 16  1  0
 18 19  1  0
  1 21  1  0
  2 22  1  0
  8 23  1  0
  9 24  1  0
 12 25  1  0
 15 26  1  6
 16 27  1  1
 17 28  1  0
 17 29  1  0
 19 30  1  0
 19 31  1  0
 20 32  1  0
M  ISO  8  21  14  22  14  23  14  24  14  25   9  26  13  27  13  28  13
M  ISO  4  29  13  30  13  31  13  32   3
M  END
>  <minimizedAffinity>  (1) 
-6.52679443

>  <minimizedRMSD>  (1) 
0.657191098

$$$$
