
     RDKit          3D

 27 29  0  0  0  0  0  0  0  0999 V2000
   44.4480   36.0610   44.7240 C   0  0  0  0  0  0  0  0  0  0  0  0
   45.0960   35.9490   43.4600 C   0  0  0  0  0  0  0  0  0  0  0  0
   45.9560   34.8690   43.2990 C   0  0  0  0  0  0  0  0  0  0  0  0
   46.1340   33.9900   44.3350 N   0  0  0  0  0  0  0  0  0  0  0  0
   45.5010   34.1380   45.5070 C   0  0  0  0  0  0  0  0  0  0  0  0
   44.6510   35.1760   45.7140 N   0  0  0  0  0  0  0  0  0  0  0  0
   46.6230   34.7290   42.0380 N   0  0  0  0  0  0  0  0  0  0  0  0
   47.8690   35.2160   41.9340 C   0  0  0  0  0  0  0  0  0  0  0  0
   48.5160   35.0770   40.7000 C   0  0  0  0  0  0  0  0  0  0  0  0
   47.8560   34.4620   39.6760 C   0  0  0  0  0  0  0  0  0  0  0  0
   48.4620   34.3450   38.5610 O   0  0  0  0  0  0  0  0  0  0  0  0
   46.6050   33.9720   39.7780 N   0  0  0  0  0  0  0  0  0  0  0  0
   46.0190   34.1280   40.9870 C   0  0  0  0  0  0  0  0  0  0  0  0
   44.8610   33.7110   41.1920 O   0  0  0  0  0  0  0  0  0  0  0  0
   45.8260   33.0980   46.4770 C   0  0  0  0  0  0  0  0  0  0  0  0
   46.9010   32.2760   46.2040 C   0  0  0  0  0  0  0  0  0  0  0  0
   46.9910   31.4040   47.2490 N   0  0  0  0  0  0  0  0  0  0  0  0
   46.0040   31.6710   48.1510 C   0  0  0  0  0  0  0  0  0  0  0  0
   45.2930   32.7180   47.6620 N   0  0  0  0  0  0  0  0  0  0  0  0
   43.7582   36.9006   44.8949 H   0  0  0  0  0  0  0  0  0  0  0  0
   44.9248   36.6783   42.6545 H   0  0  0  0  0  0  0  0  0  0  0  0
   48.3634   35.7058   42.7858 H   0  0  0  0  0  0  0  0  0  0  0  0
   49.5385   35.4569   40.5584 H   0  0  0  0  0  0  0  0  0  0  0  0
   46.1281   33.5107   38.9901 H   0  0  0  0  0  0  0  0  0  0  0  0
   47.5546   32.3162   45.3201 H   0  0  0  0  0  0  0  0  0  0  0  0
   47.6959   30.6588   47.3423 H   0  0  0  0  0  0  0  0  0  0  0  0
   45.8193   31.1387   49.0957 H   0  0  0  0  0  0  0  0  0  0  0  0
  1  6  2  0
  2  1  1  0
  3  2  2  0
  3  4  1  0
  4  5  2  0
  5  6  1  0
  5 15  1  0
  7  3  1  0
  8  7  1  0
  9  8  2  0
 10 12  1  0
 10  9  1  0
 11 10  2  0
 12 13  1  0
 13 14  2  0
 13  7  1  0
 15 19  1  0
 16 15  2  0
 16 17  1  0
 17 18  1  0
 19 18  2  0
  1 20  1  0
  2 21  1  0
  8 22  1  0
  9 23  1  0
 12 24  1  0
 16 25  1  0
 17 26  1  0
 18 27  1  0
M  ISO  8  20  14  21  14  22  14  23  14  24   9  25  14  26   9  27  14
M  END
>  <minimizedAffinity>  (1) 
-6.1549325

>  <minimizedRMSD>  (1) 
0.471699357

$$$$
