
     RDKit          3D

 23 24  0  0  0  0  0  0  0  0999 V2000
   44.4950   35.9240   44.8280 C   0  0  0  0  0  0  0  0  0  0  0  0
   45.1290   35.8380   43.5640 C   0  0  0  0  0  0  0  0  0  0  0  0
   45.9950   34.7610   43.3550 C   0  0  0  0  0  0  0  0  0  0  0  0
   46.1820   33.8620   44.3690 N   0  0  0  0  0  0  0  0  0  0  0  0
   45.5590   33.9840   45.5490 C   0  0  0  0  0  0  0  0  0  0  0  0
   44.7150   35.0060   45.7960 N   0  0  0  0  0  0  0  0  0  0  0  0
   46.6370   34.6650   42.0910 N   0  0  0  0  0  0  0  0  0  0  0  0
   47.8810   35.1650   41.9660 C   0  0  0  0  0  0  0  0  0  0  0  0
   48.5190   35.0750   40.7270 C   0  0  0  0  0  0  0  0  0  0  0  0
   47.8390   34.4780   39.7040 C   0  0  0  0  0  0  0  0  0  0  0  0
   48.4290   34.3990   38.5770 O   0  0  0  0  0  0  0  0  0  0  0  0
   46.6030   33.9740   39.8080 N   0  0  0  0  0  0  0  0  0  0  0  0
   46.0370   34.0940   41.0390 C   0  0  0  0  0  0  0  0  0  0  0  0
   44.8900   33.6570   41.2380 O   0  0  0  0  0  0  0  0  0  0  0  0
   45.8080   32.9640   46.6160 C   0  0  0  0  0  0  0  0  0  0  0  0
   47.0940   33.0660   47.1130 F   0  0  0  0  0  0  0  0  0  0  0  0
   44.9150   33.1240   47.6640 F   0  0  0  0  0  0  0  0  0  0  0  0
   45.6510   31.6860   46.1240 F   0  0  0  0  0  0  0  0  0  0  0  0
   43.8065   36.7585   45.0269 H   0  0  0  0  0  0  0  0  0  0  0  0
   44.9473   36.5876   42.7797 H   0  0  0  0  0  0  0  0  0  0  0  0
   48.3850   35.6353   42.8232 H   0  0  0  0  0  0  0  0  0  0  0  0
   49.5345   35.4714   40.5800 H   0  0  0  0  0  0  0  0  0  0  0  0
   46.1176   33.5292   39.0159 H   0  0  0  0  0  0  0  0  0  0  0  0
  1  6  2  0
  2  1  1  0
  3  2  2  0
  3  4  1  0
  4  5  2  0
  5  6  1  0
  5 15  1  0
  7  3  1  0
  8  7  1  0
  9  8  2  0
 10 12  1  0
 10  9  1  0
 11 10  2  0
 12 13  1  0
 13 14  2  0
 13  7  1  0
 15 16  1  0
 15 17  1  0
 18 15  1  0
  1 19  1  0
  2 20  1  0
  8 21  1  0
  9 22  1  0
 12 23  1  0
M  ISO  5  19  14  20  14  21  14  22  14  23   9
M  END
>  <minimizedAffinity>  (1) 
-6.08546877

>  <minimizedRMSD>  (1) 
0.233125523

$$$$
