
     RDKit          3D

 26 27  0  0  0  0  0  0  0  0999 V2000
   46.6550   34.6390   42.1070 N   0  0  0  0  0  0  0  0  0  0  0  0
   47.8890   35.1560   41.9740 C   0  0  0  0  0  0  0  0  0  0  0  0
   48.5140   35.0850   40.7320 C   0  0  0  0  0  0  0  0  0  0  0  0
   47.8360   34.4900   39.7040 C   0  0  0  0  0  0  0  0  0  0  0  0
   48.4180   34.4290   38.5670 O   0  0  0  0  0  0  0  0  0  0  0  0
   46.5970   33.9640   39.8140 N   0  0  0  0  0  0  0  0  0  0  0  0
   46.0490   34.0650   41.0430 C   0  0  0  0  0  0  0  0  0  0  0  0
   44.9040   33.6130   41.2600 O   0  0  0  0  0  0  0  0  0  0  0  0
   44.5110   35.8290   44.8710 C   0  0  0  0  0  0  0  0  0  0  0  0
   45.1350   35.7670   43.5960 C   0  0  0  0  0  0  0  0  0  0  0  0
   46.0240   34.7150   43.3740 C   0  0  0  0  0  0  0  0  0  0  0  0
   46.2470   33.8080   44.3860 N   0  0  0  0  0  0  0  0  0  0  0  0
   45.6290   33.9160   45.5710 C   0  0  0  0  0  0  0  0  0  0  0  0
   44.7610   34.9150   45.8340 N   0  0  0  0  0  0  0  0  0  0  0  0
   46.0460   32.8140   46.4770 C   0  0  0  0  0  0  0  0  0  0  0  0
   45.2140   32.7920   47.7440 C   0  0  0  0  0  0  0  0  0  0  0  0
   48.3951   35.6261   42.8301 H   0  0  0  0  0  0  0  0  0  0  0  0
   49.5235   35.4954   40.5819 H   0  0  0  0  0  0  0  0  0  0  0  0
   46.1090   33.5209   39.0225 H   0  0  0  0  0  0  0  0  0  0  0  0
   43.8037   36.6451   45.0801 H   0  0  0  0  0  0  0  0  0  0  0  0
   44.9262   36.5159   42.8178 H   0  0  0  0  0  0  0  0  0  0  0  0
   45.9243   31.8547   45.9527 H   0  0  0  0  0  0  0  0  0  0  0  0
   47.0973   32.9764   46.7571 H   0  0  0  0  0  0  0  0  0  0  0  0
   45.8793   32.8096   48.6199 H   0  0  0  0  0  0  0  0  0  0  0  0
   44.5558   33.6731   47.7658 H   0  0  0  0  0  0  0  0  0  0  0  0
   44.6032   31.8774   47.7658 H   0  0  0  0  0  0  0  0  0  0  0  0
  1 11  1  0
  2  1  1  0
  3  2  2  0
  4  6  1  0
  4  3  1  0
  5  4  2  0
  6  7  1  0
  7  8  2  0
  7  1  1  0
  9 14  2  0
 10  9  1  0
 11 10  2  0
 11 12  1  0
 12 13  2  0
 13 14  1  0
 13 15  1  0
 15 16  1  0
  2 17  1  0
  3 18  1  0
  6 19  1  0
  9 20  1  0
 10 21  1  0
 15 22  1  0
 15 23  1  0
 16 24  1  0
 16 25  1  0
 16 26  1  0
M  ISO  8  17  14  18  14  19   9  20  14  21  14  22   8  23   8  24   8
M  ISO  2  25   8  26   8
M  END
>  <minimizedAffinity>  (1) 
-5.45729113

>  <minimizedRMSD>  (1) 
0.196720704

$$$$
