
     RDKit          3D

 38 41  0  0  1  0  0  0  0  0999 V2000
   46.8420   32.5460   41.5620 N   0  0  0  0  0  0  0  0  0  0  0  0
   46.6400   32.6880   42.9440 C   0  0  0  0  0  0  0  0  0  0  0  0
   47.1850   31.7530   43.8150 C   0  0  0  0  0  0  0  0  0  0  0  0
   47.0360   31.8220   45.1940 C   0  0  0  0  0  0  0  0  0  0  0  0
   46.3230   32.8480   45.7680 C   0  0  0  0  0  0  0  0  0  0  0  0
   45.7720   33.7870   44.9280 C   0  0  0  0  0  0  0  0  0  0  0  0
   45.0550   34.8230   45.4980 C   0  0  0  0  0  0  0  0  0  0  0  0
   44.4710   35.8050   44.7270 C   0  0  0  0  0  0  0  0  0  0  0  0
   44.6440   35.6930   43.3620 C   0  0  0  0  0  0  0  0  0  0  0  0
   45.3570   34.6630   42.7970 C   0  0  0  0  0  0  0  0  0  0  0  0
   45.9370   33.6930   43.5540 C   0  0  0  0  0  0  0  0  0  0  0  0
   45.4000   34.7090   41.3090 C   0  0  0  0  0  0  0  0  0  0  0  0
   49.3670   32.6200   41.1800 C   0  0  1  0  0  0  0  0  0  0  0  0
   48.6820   32.6780   39.8270 C   0  0  0  0  0  0  0  0  0  0  0  0
   48.0690   31.9990   41.0430 C   0  0  2  0  0  0  0  0  0  0  0  0
   52.6110   30.9780   40.4080 C   0  0  0  0  0  0  0  0  0  0  0  0
   52.7850   30.1580   41.5640 C   0  0  0  0  0  0  0  0  0  0  0  0
   51.7810   30.1970   42.5950 C   0  0  0  0  0  0  0  0  0  0  0  0
   50.7300   31.0020   42.4220 N   0  0  0  0  0  0  0  0  0  0  0  0
   50.5900   31.7700   41.3140 C   0  0  0  0  0  0  0  0  0  0  0  0
   51.5300   31.7560   40.3100 N   0  0  0  0  0  0  0  0  0  0  0  0
   46.1009   32.8377   40.9089 H   0  0  0  0  0  0  0  0  0  0  0  0
   47.7624   30.9177   43.3920 H   0  0  0  0  0  0  0  0  0  0  0  0
   47.4917   31.0502   45.8317 H   0  0  0  0  0  0  0  0  0  0  0  0
   46.1980   32.9152   46.8588 H   0  0  0  0  0  0  0  0  0  0  0  0
   44.9483   34.8644   46.5920 H   0  0  0  0  0  0  0  0  0  0  0  0
   43.8992   36.6315   45.1742 H   0  0  0  0  0  0  0  0  0  0  0  0
   44.1964   36.4532   42.7050 H   0  0  0  0  0  0  0  0  0  0  0  0
   46.1182   35.4773   40.9865 H   0  0  0  0  0  0  0  0  0  0  0  0
   45.7129   33.7285   40.9207 H   0  0  0  0  0  0  0  0  0  0  0  0
   44.4007   34.9552   40.9207 H   0  0  0  0  0  0  0  0  0  0  0  0
   49.7796   33.3651   41.8761 H   0  0  0  0  0  0  0  0  0  0  0  0
   49.0587   32.0802   38.9840 H   0  0  0  0  0  0  0  0  0  0  0  0
   48.3826   33.4651   39.1193 H   0  0  0  0  0  0  0  0  0  0  0  0
   47.7105   30.9960   41.3177 H   0  0  0  0  0  0  0  0  0  0  0  0
   53.3618   30.9689   39.6041 H   0  0  0  0  0  0  0  0  0  0  0  0
   53.6680   29.5098   41.6647 H   0  0  0  0  0  0  0  0  0  0  0  0
   51.8772   29.5803   43.5008 H   0  0  0  0  0  0  0  0  0  0  0  0
  1  2  1  0
  2 11  1  0
  2  3  2  0
  3  4  1  0
  4  5  2  0
  6  7  2  0
  6  5  1  0
  8  7  1  0
  9  8  2  0
 10  9  1  0
 10 11  2  0
 11  6  1  0
 12 10  1  0
 13 20  1  0
 14 15  1  0
 14 13  1  0
 15 13  1  0
 15  1  1  0
 16 17  2  0
 17 18  1  0
 19 18  2  0
 20 19  1  0
 21 16  1  0
 21 20  2  0
  1 22  1  0
  3 23  1  0
  4 24  1  0
  5 25  1  0
  7 26  1  0
  8 27  1  0
  9 28  1  0
 12 29  1  0
 12 30  1  0
 12 31  1  0
 13 32  1  1
 14 33  1  0
 14 34  1  0
 15 35  1  6
 16 36  1  0
 17 37  1  0
 18 38  1  0
M  ISO  8  23  14  24  14  25  14  26  14  27  14  28  14  29   8  30   8
M  ISO  8  31   8  32  13  33  13  34  13  35  13  36  14  37  14  38  14
M  END
>  <minimizedAffinity>  (1) 
-4.74750805

>  <minimizedRMSD>  (1) 
1.74407101

$$$$
