
     RDKit          3D

 40 42  0  0  0  0  0  0  0  0999 V2000
   44.4970   35.8950   44.7100 C   0  0  0  0  0  0  0  0  0  0  0  0
   45.1320   35.8260   43.4420 C   0  0  0  0  0  0  0  0  0  0  0  0
   46.0580   34.8000   43.2500 C   0  0  0  0  0  0  0  0  0  0  0  0
   46.2860   33.9420   44.2880 N   0  0  0  0  0  0  0  0  0  0  0  0
   45.6620   34.0460   45.4660 C   0  0  0  0  0  0  0  0  0  0  0  0
   44.7610   35.0180   45.7020 N   0  0  0  0  0  0  0  0  0  0  0  0
   46.6990   34.7110   41.9960 N   0  0  0  0  0  0  0  0  0  0  0  0
   47.9370   35.2480   41.8740 C   0  0  0  0  0  0  0  0  0  0  0  0
   48.5710   35.1630   40.6440 C   0  0  0  0  0  0  0  0  0  0  0  0
   47.9150   34.5420   39.6100 C   0  0  0  0  0  0  0  0  0  0  0  0
   48.4980   34.4640   38.4780 O   0  0  0  0  0  0  0  0  0  0  0  0
   46.6820   34.0050   39.7220 N   0  0  0  0  0  0  0  0  0  0  0  0
   46.1160   34.1150   40.9340 C   0  0  0  0  0  0  0  0  0  0  0  0
   44.9770   33.6520   41.1470 O   0  0  0  0  0  0  0  0  0  0  0  0
   46.0990   32.9670   46.3850 C   0  0  0  0  0  0  0  0  0  0  0  0
   45.2160   32.8710   47.6110 C   0  0  0  0  0  0  0  0  0  0  0  0
   45.3180   31.5670   48.2440 N   0  0  0  0  0  0  0  0  0  0  0  0
   46.5840   31.3590   48.8950 C   0  0  0  0  0  0  0  0  0  0  0  0
   47.4060   30.2300   48.3690 C   0  0  0  0  0  0  0  0  0  0  0  0
   46.7140   29.0000   48.1820 N   0  0  0  0  0  0  0  0  0  0  0  0
   45.2810   29.1870   48.0180 C   0  0  0  0  0  0  0  0  0  0  0  0
   45.1040   30.4990   47.2830 C   0  0  0  0  0  0  0  0  0  0  0  0
   43.7621   36.6932   44.8910 H   0  0  0  0  0  0  0  0  0  0  0  0
   44.9039   36.5498   42.6457 H   0  0  0  0  0  0  0  0  0  0  0  0
   48.4262   35.7385   42.7284 H   0  0  0  0  0  0  0  0  0  0  0  0
   49.5771   35.5837   40.4997 H   0  0  0  0  0  0  0  0  0  0  0  0
   46.2084   33.5430   38.9326 H   0  0  0  0  0  0  0  0  0  0  0  0
   46.0651   32.0079   45.8475 H   0  0  0  0  0  0  0  0  0  0  0  0
   47.1202   33.2006   46.7204 H   0  0  0  0  0  0  0  0  0  0  0  0
   45.5222   33.6428   48.3325 H   0  0  0  0  0  0  0  0  0  0  0  0
   44.1727   33.0192   47.2955 H   0  0  0  0  0  0  0  0  0  0  0  0
   47.1728   32.2823   48.7913 H   0  0  0  0  0  0  0  0  0  0  0  0
   46.3454   31.0957   49.9360 H   0  0  0  0  0  0  0  0  0  0  0  0
   47.8196   30.5367   47.3970 H   0  0  0  0  0  0  0  0  0  0  0  0
   48.1701   30.0318   49.1350 H   0  0  0  0  0  0  0  0  0  0  0  0
   47.0852   28.5367   47.3403 H   0  0  0  0  0  0  0  0  0  0  0  0
   44.8540   28.3609   47.4305 H   0  0  0  0  0  0  0  0  0  0  0  0
   44.7662   29.2011   48.9900 H   0  0  0  0  0  0  0  0  0  0  0  0
   45.8377   30.5748   46.4669 H   0  0  0  0  0  0  0  0  0  0  0  0
   44.0972   30.5663   46.8450 H   0  0  0  0  0  0  0  0  0  0  0  0
  1  6  2  0
  2  1  1  0
  3  2  2  0
  3  4  1  0
  4  5  2  0
  5  6  1  0
  5 15  1  0
  7  3  1  0
  8  7  1  0
  9  8  2  0
 10 12  1  0
 10  9  1  0
 11 10  2  0
 12 13  1  0
 13 14  2  0
 13  7  1  0
 15 16  1  0
 16 17  1  0
 17 18  1  0
 19 18  1  0
 20 19  1  0
 21 20  1  0
 22 21  1  0
 22 17  1  0
  1 23  1  0
  2 24  1  0
  8 25  1  0
  9 26  1  0
 12 27  1  0
 15 28  1  0
 15 29  1  0
 16 30  1  0
 16 31  1  0
 18 32  1  0
 18 33  1  0
 19 34  1  0
 19 35  1  0
 20 36  1  0
 21 37  1  0
 21 38  1  0
 22 39  1  0
 22 40  1  0
M  ISO  8  23  14  24  14  25  14  26  14  27   9  28   8  29   8  30   8
M  ISO  8  31   8  32  13  33  13  34  13  35  13  36   5  37  13  38  13
M  ISO  2  39  13  40  13
M  END
>  <minimizedAffinity>  (1) 
-6.33876705

>  <minimizedRMSD>  (1) 
0.419001073

$$$$
