
     RDKit          3D

 37 39  0  0  1  0  0  0  0  0999 V2000
   44.4780   35.9560   44.7350 C   0  0  0  0  0  0  0  0  0  0  0  0
   45.1250   35.8590   43.4820 C   0  0  0  0  0  0  0  0  0  0  0  0
   46.0160   34.8170   43.2840 C   0  0  0  0  0  0  0  0  0  0  0  0
   46.2170   33.9410   44.3170 N   0  0  0  0  0  0  0  0  0  0  0  0
   45.5930   34.0560   45.4880 C   0  0  0  0  0  0  0  0  0  0  0  0
   44.7160   35.0600   45.7200 N   0  0  0  0  0  0  0  0  0  0  0  0
   46.6680   34.7130   42.0360 N   0  0  0  0  0  0  0  0  0  0  0  0
   47.9090   35.2300   41.9100 C   0  0  0  0  0  0  0  0  0  0  0  0
   48.5570   35.1310   40.6850 C   0  0  0  0  0  0  0  0  0  0  0  0
   47.8960   34.5120   39.6640 C   0  0  0  0  0  0  0  0  0  0  0  0
   48.4900   34.4200   38.5350 O   0  0  0  0  0  0  0  0  0  0  0  0
   46.6600   33.9890   39.7640 N   0  0  0  0  0  0  0  0  0  0  0  0
   46.0820   34.1150   40.9750 C   0  0  0  0  0  0  0  0  0  0  0  0
   44.9330   33.6640   41.1810 O   0  0  0  0  0  0  0  0  0  0  0  0
   46.0000   32.9700   46.4230 C   0  0  0  0  0  0  0  0  0  0  0  0
   45.1160   32.9490   47.6640 C   0  0  0  0  0  0  0  0  0  0  0  0
   45.0570   31.5480   48.2650 C   0  0  1  0  0  0  0  0  0  0  0  0
   45.3310   30.5490   47.1530 C   0  0  0  0  0  0  0  0  0  0  0  0
   46.2560   29.5540   47.8440 C   0  0  0  0  0  0  0  0  0  0  0  0
   47.0550   30.3860   48.6170 O   0  0  0  0  0  0  0  0  0  0  0  0
   46.2140   31.3290   49.1830 C   0  0  0  0  0  0  0  0  0  0  0  0
   43.7669   36.7763   44.9126 H   0  0  0  0  0  0  0  0  0  0  0  0
   44.9263   36.5913   42.6856 H   0  0  0  0  0  0  0  0  0  0  0  0
   48.3990   35.7216   42.7634 H   0  0  0  0  0  0  0  0  0  0  0  0
   49.5690   35.5379   40.5428 H   0  0  0  0  0  0  0  0  0  0  0  0
   46.1901   33.5262   38.9728 H   0  0  0  0  0  0  0  0  0  0  0  0
   45.9162   32.0023   45.9067 H   0  0  0  0  0  0  0  0  0  0  0  0
   47.0377   33.1536   46.7384 H   0  0  0  0  0  0  0  0  0  0  0  0
   45.5266   33.6445   48.4108 H   0  0  0  0  0  0  0  0  0  0  0  0
   44.0984   33.2519   47.3765 H   0  0  0  0  0  0  0  0  0  0  0  0
   44.0837   31.4361   48.7652 H   0  0  0  0  0  0  0  0  0  0  0  0
   45.8280   31.0294   46.2973 H   0  0  0  0  0  0  0  0  0  0  0  0
   44.4229   30.0928   46.7321 H   0  0  0  0  0  0  0  0  0  0  0  0
   45.6885   28.8505   48.4710 H   0  0  0  0  0  0  0  0  0  0  0  0
   46.8229   28.9197   47.1467 H   0  0  0  0  0  0  0  0  0  0  0  0
   46.7589   32.2741   49.3244 H   0  0  0  0  0  0  0  0  0  0  0  0
   45.8559   30.9743   50.1607 H   0  0  0  0  0  0  0  0  0  0  0  0
  1  6  2  0
  2  1  1  0
  3  2  2  0
  3  4  1  0
  4  5  2  0
  5  6  1  0
  5 15  1  0
  7  3  1  0
  8  7  1  0
  9  8  2  0
 10 12  1  0
 10  9  1  0
 11 10  2  0
 12 13  1  0
 13 14  2  0
 13  7  1  0
 15 16  1  0
 17 16  1  0
 17 21  1  0
 18 19  1  0
 18 17  1  0
 19 20  1  0
 20 21  1  0
  1 22  1  0
  2 23  1  0
  8 24  1  0
  9 25  1  0
 12 26  1  0
 15 27  1  0
 15 28  1  0
 16 29  1  0
 16 30  1  0
 17 31  1  1
 18 32  1  0
 18 33  1  0
 19 34  1  0
 19 35  1  0
 21 36  1  0
 21 37  1  0
M  ISO  8  22  14  23  14  24  14  25  14  26   9  27   8  28   8  29   8
M  ISO  8  30   8  31  13  32  13  33  13  34  13  35  13  36  13  37  13
M  END
>  <minimizedAffinity>  (1) 
-6.26529264

>  <minimizedRMSD>  (1) 
0.69917345

$$$$
