
     RDKit          3D

 30 31  0  0  0  0  0  0  0  0999 V2000
   44.5210   35.8300   44.8580 C   0  0  0  0  0  0  0  0  0  0  0  0
   45.1360   35.7700   43.5890 C   0  0  0  0  0  0  0  0  0  0  0  0
   46.0150   34.7170   43.3620 C   0  0  0  0  0  0  0  0  0  0  0  0
   46.2370   33.8020   44.3660 N   0  0  0  0  0  0  0  0  0  0  0  0
   45.6220   33.9090   45.5550 C   0  0  0  0  0  0  0  0  0  0  0  0
   44.7570   34.9190   45.8240 N   0  0  0  0  0  0  0  0  0  0  0  0
   46.6460   34.6400   42.0890 N   0  0  0  0  0  0  0  0  0  0  0  0
   47.8870   35.1560   41.9620 C   0  0  0  0  0  0  0  0  0  0  0  0
   48.5130   35.0850   40.7220 C   0  0  0  0  0  0  0  0  0  0  0  0
   47.8400   34.4950   39.6890 C   0  0  0  0  0  0  0  0  0  0  0  0
   48.4270   34.4390   38.5600 O   0  0  0  0  0  0  0  0  0  0  0  0
   46.6040   33.9770   39.8020 N   0  0  0  0  0  0  0  0  0  0  0  0
   46.0430   34.0750   41.0300 C   0  0  0  0  0  0  0  0  0  0  0  0
   44.8950   33.6250   41.2440 O   0  0  0  0  0  0  0  0  0  0  0  0
   46.0400   32.7940   46.4540 C   0  0  0  0  0  0  0  0  0  0  0  0
   45.2490   32.8270   47.7480 C   0  0  0  0  0  0  0  0  0  0  0  0
   45.1450   30.6430   48.8560 C   0  0  0  0  0  0  0  0  0  0  0  0
   46.1760   31.0090   49.4670 O   0  0  0  0  0  0  0  0  0  0  0  0
   44.5950   31.5490   47.9290 N   0  0  0  0  0  0  0  0  0  0  0  0
   43.8213   36.6526   45.0674 H   0  0  0  0  0  0  0  0  0  0  0  0
   44.9291   36.5228   42.8141 H   0  0  0  0  0  0  0  0  0  0  0  0
   48.3922   35.6225   42.8206 H   0  0  0  0  0  0  0  0  0  0  0  0
   49.5240   35.4933   40.5764 H   0  0  0  0  0  0  0  0  0  0  0  0
   46.1176   33.5359   39.0084 H   0  0  0  0  0  0  0  0  0  0  0  0
   45.8629   31.8344   45.9463 H   0  0  0  0  0  0  0  0  0  0  0  0
   47.1086   32.9087   46.6883 H   0  0  0  0  0  0  0  0  0  0  0  0
   45.9287   33.0170   48.5918 H   0  0  0  0  0  0  0  0  0  0  0  0
   44.4967   33.6284   47.7052 H   0  0  0  0  0  0  0  0  0  0  0  0
   44.6899   29.6578   49.0358 H   0  0  0  0  0  0  0  0  0  0  0  0
   43.7488   31.3082   47.3934 H   0  0  0  0  0  0  0  0  0  0  0  0
  1  6  2  0
  2  1  1  0
  3  2  2  0
  3  4  1  0
  4  5  2  0
  5  6  1  0
  5 15  1  0
  7  3  1  0
  8  7  1  0
  9  8  2  0
 10 12  1  0
 10  9  1  0
 11 10  2  0
 12 13  1  0
 13 14  2  0
 13  7  1  0
 15 16  1  0
 16 19  1  0
 17 18  2  0
 19 17  1  0
  1 20  1  0
  2 21  1  0
  8 22  1  0
  9 23  1  0
 12 24  1  0
 15 25  1  0
 15 26  1  0
 16 27  1  0
 16 28  1  0
 17 29  1  0
 19 30  1  0
M  ISO  8  20  14  21  14  22  14  23  14  24   9  25   8  26   8  27   8
M  ISO  2  28   8  29   6
M  END
>  <minimizedAffinity>  (1) 
-6.00022173

>  <minimizedRMSD>  (1) 
0.934197009

$$$$
