
     RDKit          3D

 44 47  0  0  0  0  0  0  0  0999 V2000
   45.3230   33.7730   45.6760 C   0  0  0  0  0  0  0  0  0  0  0  0
   44.8150   35.0100   45.9480 C   0  0  0  0  0  0  0  0  0  0  0  0
   44.4290   35.9100   44.9800 C   0  0  0  0  0  0  0  0  0  0  0  0
   44.5770   35.5050   43.7010 N   0  0  0  0  0  0  0  0  0  0  0  0
   45.0770   34.2850   43.4240 C   0  0  0  0  0  0  0  0  0  0  0  0
   45.4570   33.4000   44.3700 N   0  0  0  0  0  0  0  0  0  0  0  0
   45.2310   33.8600   42.0120 C   0  0  0  0  0  0  0  0  0  0  0  0
   44.1990   33.1980   41.3870 C   0  0  0  0  0  0  0  0  0  0  0  0
   44.2440   32.7610   40.0740 C   0  0  0  0  0  0  0  0  0  0  0  0
   45.4110   33.0170   39.3640 C   0  0  0  0  0  0  0  0  0  0  0  0
   46.4230   33.6700   39.9840 C   0  0  0  0  0  0  0  0  0  0  0  0
   46.3760   34.1040   41.2930 C   0  0  0  0  0  0  0  0  0  0  0  0
   47.3870   34.7660   41.9410 O   0  0  0  0  0  0  0  0  0  0  0  0
   49.8230   35.4510   42.5880 O   0  0  0  0  0  0  0  0  0  0  0  0
   49.0080   34.8300   41.4590 P   0  0  0  0  0  0  0  0  0  0  0  0
   49.6550   33.3560   41.0080 O   0  0  0  0  0  0  0  0  0  0  0  0
   49.1300   35.8950   40.1420 O   0  0  0  0  0  0  0  0  0  0  0  0
   45.3990   32.0090   48.8770 C   0  0  0  0  0  0  0  0  0  0  0  0
   46.4680   31.1190   48.6850 C   0  0  0  0  0  0  0  0  0  0  0  0
   47.1470   31.1230   47.4920 C   0  0  0  0  0  0  0  0  0  0  0  0
   46.7420   32.0100   46.5220 N   0  0  0  0  0  0  0  0  0  0  0  0
   45.7180   32.8540   46.7200 C   0  0  0  0  0  0  0  0  0  0  0  0
   45.0590   32.8500   47.8840 N   0  0  0  0  0  0  0  0  0  0  0  0
   49.3550   31.3050   49.4380 Cl  0  0  0  0  0  0  0  0  0  0  0  0
   49.3530   30.2190   48.0460 C   0  0  0  0  0  0  0  0  0  0  0  0
   48.2510   30.2420   47.2210 C   0  0  0  0  0  0  0  0  0  0  0  0
   48.2990   29.3830   46.1590 C   0  0  0  0  0  0  0  0  0  0  0  0
   49.3920   28.5620   45.9560 C   0  0  0  0  0  0  0  0  0  0  0  0
   50.4860   28.5400   46.7760 C   0  0  0  0  0  0  0  0  0  0  0  0
   50.4330   29.4040   47.8420 C   0  0  0  0  0  0  0  0  0  0  0  0
   44.7076   35.3054   47.0021 H   0  0  0  0  0  0  0  0  0  0  0  0
   44.0239   36.9006   45.2341 H   0  0  0  0  0  0  0  0  0  0  0  0
   43.2835   33.0044   41.9652 H   0  0  0  0  0  0  0  0  0  0  0  0
   43.3946   32.2350   39.6137 H   0  0  0  0  0  0  0  0  0  0  0  0
   45.5111   32.6950   38.3170 H   0  0  0  0  0  0  0  0  0  0  0  0
   47.3393   33.8665   39.4081 H   0  0  0  0  0  0  0  0  0  0  0  0
   49.8839   32.8345   41.8177 H   0  0  0  0  0  0  0  0  0  0  0  0
   49.2361   36.8212   40.4753 H   0  0  0  0  0  0  0  0  0  0  0  0
   44.8463   32.0183   49.8280 H   0  0  0  0  0  0  0  0  0  0  0  0
   46.7594   30.4231   49.4855 H   0  0  0  0  0  0  0  0  0  0  0  0
   47.4547   29.3445   45.4550 H   0  0  0  0  0  0  0  0  0  0  0  0
   49.3813   27.8887   45.0862 H   0  0  0  0  0  0  0  0  0  0  0  0
   51.3459   27.8784   46.5949 H   0  0  0  0  0  0  0  0  0  0  0  0
   51.2767   29.4417   48.5469 H   0  0  0  0  0  0  0  0  0  0  0  0
  1  2  2  0
  1 22  1  0
  3  2  1  0
  4  3  2  0
  5  4  1  0
  5  6  2  0
  6  1  1  0
  7  5  1  0
  8  7  2  0
  9  8  1  0
 10 11  1  0
 10  9  2  0
 11 12  2  0
 12 13  1  0
 12  7  1  0
 15 13  1  0
 15 14  2  0
 16 15  1  0
 17 15  1  0
 19 18  2  0
 20 19  1  0
 21 22  1  0
 21 20  2  0
 22 23  2  0
 23 18  1  0
 25 24  1  0
 26 20  1  0
 26 25  2  0
 27 26  1  0
 28 27  2  0
 28 29  1  0
 29 30  2  0
 30 25  1  0
  2 31  1  0
  3 32  1  0
  8 33  1  0
  9 34  1  0
 10 35  1  0
 11 36  1  0
 16 37  1  0
 17 38  1  0
 18 39  1  0
 19 40  1  0
 27 41  1  0
 28 42  1  0
 29 43  1  0
 30 44  1  0
M  ISO  8  31  14  32  14  33  14  34  14  35  14  36  14  37   3  38   3
M  ISO  6  39  14  40  14  41  14  42  14  43  14  44  14
M  END
>  <minimizedAffinity>  (1) 
-6.68231678

>  <minimizedRMSD>  (1) 
0.598577082

$$$$
