
     RDKit          3D

 44 47  0  0  0  0  0  0  0  0999 V2000
   45.3300   33.7830   45.6340 C   0  0  0  0  0  0  0  0  0  0  0  0
   44.8040   35.0110   45.9190 C   0  0  0  0  0  0  0  0  0  0  0  0
   44.3940   35.9080   44.9720 C   0  0  0  0  0  0  0  0  0  0  0  0
   44.5370   35.5120   43.6870 N   0  0  0  0  0  0  0  0  0  0  0  0
   45.0550   34.3000   43.3900 C   0  0  0  0  0  0  0  0  0  0  0  0
   45.4560   33.4230   44.3350 N   0  0  0  0  0  0  0  0  0  0  0  0
   45.2010   33.8910   41.9830 C   0  0  0  0  0  0  0  0  0  0  0  0
   44.1650   33.2430   41.3640 C   0  0  0  0  0  0  0  0  0  0  0  0
   44.1930   32.8100   40.0380 C   0  0  0  0  0  0  0  0  0  0  0  0
   45.3590   33.0670   39.3320 C   0  0  0  0  0  0  0  0  0  0  0  0
   46.3890   33.7110   39.9480 C   0  0  0  0  0  0  0  0  0  0  0  0
   46.3400   34.1290   41.2550 C   0  0  0  0  0  0  0  0  0  0  0  0
   47.3650   34.7810   41.9040 O   0  0  0  0  0  0  0  0  0  0  0  0
   49.8000   35.4480   42.5670 O   0  0  0  0  0  0  0  0  0  0  0  0
   48.9800   34.8280   41.4320 P   0  0  0  0  0  0  0  0  0  0  0  0
   49.6210   33.3580   40.9790 O   0  0  0  0  0  0  0  0  0  0  0  0
   49.1290   35.8980   40.1170 O   0  0  0  0  0  0  0  0  0  0  0  0
   45.5220   32.0630   48.8620 C   0  0  0  0  0  0  0  0  0  0  0  0
   46.5560   31.1390   48.6340 C   0  0  0  0  0  0  0  0  0  0  0  0
   47.1660   31.1120   47.4040 C   0  0  0  0  0  0  0  0  0  0  0  0
   46.7540   31.9820   46.4350 N   0  0  0  0  0  0  0  0  0  0  0  0
   45.7500   32.8670   46.6820 C   0  0  0  0  0  0  0  0  0  0  0  0
   45.1470   32.9050   47.8750 N   0  0  0  0  0  0  0  0  0  0  0  0
   48.2340   30.2090   47.0630 C   0  0  0  0  0  0  0  0  0  0  0  0
   49.1340   29.8230   48.0340 C   0  0  0  0  0  0  0  0  0  0  0  0
   50.1990   28.9660   47.8410 C   0  0  0  0  0  0  0  0  0  0  0  0
   50.3360   28.4750   46.5440 C   0  0  0  0  0  0  0  0  0  0  0  0
   49.4580   28.8360   45.5410 C   0  0  0  0  0  0  0  0  0  0  0  0
   48.4300   29.6880   45.8100 C   0  0  0  0  0  0  0  0  0  0  0  0
   44.7040   35.2961   46.9767 H   0  0  0  0  0  0  0  0  0  0  0  0
   43.9745   36.8893   45.2385 H   0  0  0  0  0  0  0  0  0  0  0  0
   43.2535   33.0520   41.9493 H   0  0  0  0  0  0  0  0  0  0  0  0
   43.3378   32.2934   39.5779 H   0  0  0  0  0  0  0  0  0  0  0  0
   45.4512   32.7529   38.2818 H   0  0  0  0  0  0  0  0  0  0  0  0
   47.3046   33.9057   39.3703 H   0  0  0  0  0  0  0  0  0  0  0  0
   49.8494   32.8343   41.7875 H   0  0  0  0  0  0  0  0  0  0  0  0
   49.2574   36.8198   40.4545 H   0  0  0  0  0  0  0  0  0  0  0  0
   45.0203   32.1003   49.8402 H   0  0  0  0  0  0  0  0  0  0  0  0
   46.8720   30.4476   49.4290 H   0  0  0  0  0  0  0  0  0  0  0  0
   48.9916   30.2315   49.0454 H   0  0  0  0  0  0  0  0  0  0  0  0
   50.8893   28.6907   48.6520 H   0  0  0  0  0  0  0  0  0  0  0  0
   51.1613   27.7850   46.3142 H   0  0  0  0  0  0  0  0  0  0  0  0
   49.5889   28.4355   44.5249 H   0  0  0  0  0  0  0  0  0  0  0  0
   47.7387   29.9655   45.0006 H   0  0  0  0  0  0  0  0  0  0  0  0
  1  2  2  0
  1 22  1  0
  3  2  1  0
  4  3  2  0
  5  4  1  0
  5  6  2  0
  6  1  1  0
  7  5  1  0
  8  7  2  0
  9  8  1  0
 10 11  1  0
 10  9  2  0
 11 12  2  0
 12 13  1  0
 12  7  1  0
 15 13  1  0
 15 14  2  0
 16 15  1  0
 17 15  1  0
 19 18  2  0
 20 19  1  0
 21 22  1  0
 21 20  2  0
 22 23  2  0
 23 18  1  0
 24 20  1  0
 24 25  2  0
 26 25  1  0
 27 26  2  0
 28 29  2  0
 28 27  1  0
 29 24  1  0
  2 30  1  0
  3 31  1  0
  8 32  1  0
  9 33  1  0
 10 34  1  0
 11 35  1  0
 16 36  1  0
 17 37  1  0
 18 38  1  0
 19 39  1  0
 25 40  1  0
 26 41  1  0
 27 42  1  0
 28 43  1  0
 29 44  1  0
M  ISO  8  30  14  31  14  32  14  33  14  34  14  35  14  36   3  37   3
M  ISO  7  38  14  39  14  40  14  41  14  42  14  43  14  44  14
M  END
>  <minimizedAffinity>  (1) 
-6.53297091

>  <minimizedRMSD>  (1) 
0.685401678

$$$$
