
     RDKit          3D

 41 44  0  0  0  0  0  0  0  0999 V2000
   45.3400   33.7730   45.6490 C   0  0  0  0  0  0  0  0  0  0  0  0
   44.8040   34.9920   45.9430 C   0  0  0  0  0  0  0  0  0  0  0  0
   44.3830   35.8890   44.9960 C   0  0  0  0  0  0  0  0  0  0  0  0
   44.5270   35.5000   43.7100 N   0  0  0  0  0  0  0  0  0  0  0  0
   45.0580   34.2930   43.4120 C   0  0  0  0  0  0  0  0  0  0  0  0
   45.4650   33.4260   44.3560 N   0  0  0  0  0  0  0  0  0  0  0  0
   45.2040   33.8930   41.9970 C   0  0  0  0  0  0  0  0  0  0  0  0
   44.1630   33.2490   41.3720 C   0  0  0  0  0  0  0  0  0  0  0  0
   44.1930   32.8310   40.0520 C   0  0  0  0  0  0  0  0  0  0  0  0
   45.3610   33.0920   39.3420 C   0  0  0  0  0  0  0  0  0  0  0  0
   46.3880   33.7290   39.9660 C   0  0  0  0  0  0  0  0  0  0  0  0
   46.3440   34.1400   41.2800 C   0  0  0  0  0  0  0  0  0  0  0  0
   47.3660   34.7860   41.9380 O   0  0  0  0  0  0  0  0  0  0  0  0
   49.8080   35.4290   42.6100 O   0  0  0  0  0  0  0  0  0  0  0  0
   48.9840   34.8340   41.4610 P   0  0  0  0  0  0  0  0  0  0  0  0
   49.6120   33.3490   40.9940 O   0  0  0  0  0  0  0  0  0  0  0  0
   49.1350   35.9010   40.1590 O   0  0  0  0  0  0  0  0  0  0  0  0
   45.5420   32.0480   48.8710 C   0  0  0  0  0  0  0  0  0  0  0  0
   46.5820   31.1410   48.6450 C   0  0  0  0  0  0  0  0  0  0  0  0
   47.2070   31.1150   47.4110 C   0  0  0  0  0  0  0  0  0  0  0  0
   46.7840   31.9860   46.4450 N   0  0  0  0  0  0  0  0  0  0  0  0
   45.7730   32.8530   46.6980 C   0  0  0  0  0  0  0  0  0  0  0  0
   45.1580   32.8880   47.8920 N   0  0  0  0  0  0  0  0  0  0  0  0
   48.2950   30.1880   47.1300 C   0  0  0  0  0  0  0  0  0  0  0  0
   49.1980   29.7420   48.0530 C   0  0  0  0  0  0  0  0  0  0  0  0
   50.1030   28.8740   47.4760 C   0  0  0  0  0  0  0  0  0  0  0  0
   49.7270   28.8050   46.1860 N   0  0  0  0  0  0  0  0  0  0  0  0
   48.6700   29.5780   46.0010 N   0  0  0  0  0  0  0  0  0  0  0  0
   44.7037   35.2718   47.0021 H   0  0  0  0  0  0  0  0  0  0  0  0
   43.9543   36.8653   45.2662 H   0  0  0  0  0  0  0  0  0  0  0  0
   43.2511   33.0538   41.9554 H   0  0  0  0  0  0  0  0  0  0  0  0
   43.3371   32.3187   39.5884 H   0  0  0  0  0  0  0  0  0  0  0  0
   45.4525   32.7869   38.2891 H   0  0  0  0  0  0  0  0  0  0  0  0
   47.3039   33.9268   39.3898 H   0  0  0  0  0  0  0  0  0  0  0  0
   49.8366   32.8179   41.7987 H   0  0  0  0  0  0  0  0  0  0  0  0
   49.2652   36.8213   40.4999 H   0  0  0  0  0  0  0  0  0  0  0  0
   45.0380   32.0750   49.8484 H   0  0  0  0  0  0  0  0  0  0  0  0
   46.9008   30.4534   49.4423 H   0  0  0  0  0  0  0  0  0  0  0  0
   49.2032   30.0351   49.1132 H   0  0  0  0  0  0  0  0  0  0  0  0
   50.9427   28.3554   47.9616 H   0  0  0  0  0  0  0  0  0  0  0  0
   50.1886   28.2403   45.4587 H   0  0  0  0  0  0  0  0  0  0  0  0
  1  2  2  0
  1 22  1  0
  3  2  1  0
  4  3  2  0
  5  4  1  0
  5  6  2  0
  6  1  1  0
  7  5  1  0
  8  7  2  0
  9  8  1  0
 10 11  1  0
 10  9  2  0
 11 12  2  0
 12 13  1  0
 12  7  1  0
 15 13  1  0
 15 14  2  0
 16 15  1  0
 17 15  1  0
 19 18  2  0
 20 19  1  0
 21 22  1  0
 21 20  2  0
 22 23  2  0
 23 18  1  0
 24 20  1  0
 24 25  1  0
 26 25  2  0
 27 26  1  0
 28 27  1  0
 28 24  2  0
  2 29  1  0
  3 30  1  0
  8 31  1  0
  9 32  1  0
 10 33  1  0
 11 34  1  0
 16 35  1  0
 17 36  1  0
 18 37  1  0
 19 38  1  0
 25 39  1  0
 26 40  1  0
 27 41  1  0
M  ISO  8  29  14  30  14  31  14  32  14  33  14  34  14  35   3  36   3
M  ISO  5  37  14  38  14  39  14  40  14  41   9
M  END
>  <minimizedAffinity>  (1) 
-6.33236122

>  <minimizedRMSD>  (1) 
0.474820018

$$$$
