
     RDKit          3D

 41 44  0  0  0  0  0  0  0  0999 V2000
   45.3860   33.6960   45.6860 C   0  0  0  0  0  0  0  0  0  0  0  0
   44.8480   34.9030   46.0070 C   0  0  0  0  0  0  0  0  0  0  0  0
   44.4100   35.8200   45.0860 C   0  0  0  0  0  0  0  0  0  0  0  0
   44.5430   35.4530   43.7880 N   0  0  0  0  0  0  0  0  0  0  0  0
   45.0700   34.2660   43.4670 C   0  0  0  0  0  0  0  0  0  0  0  0
   45.4970   33.3740   44.3830 N   0  0  0  0  0  0  0  0  0  0  0  0
   45.2050   33.8870   42.0400 C   0  0  0  0  0  0  0  0  0  0  0  0
   44.1700   33.2450   41.4120 C   0  0  0  0  0  0  0  0  0  0  0  0
   44.1920   32.8470   40.0830 C   0  0  0  0  0  0  0  0  0  0  0  0
   45.3400   33.1240   39.3660 C   0  0  0  0  0  0  0  0  0  0  0  0
   46.3740   33.7650   39.9940 C   0  0  0  0  0  0  0  0  0  0  0  0
   46.3370   34.1530   41.3110 C   0  0  0  0  0  0  0  0  0  0  0  0
   47.3650   34.7990   41.9660 O   0  0  0  0  0  0  0  0  0  0  0  0
   49.8170   35.4150   42.6240 O   0  0  0  0  0  0  0  0  0  0  0  0
   48.9880   34.8290   41.4810 P   0  0  0  0  0  0  0  0  0  0  0  0
   49.6030   33.3530   41.0190 O   0  0  0  0  0  0  0  0  0  0  0  0
   49.1300   35.9110   40.1790 O   0  0  0  0  0  0  0  0  0  0  0  0
   45.6680   31.9330   48.8840 C   0  0  0  0  0  0  0  0  0  0  0  0
   46.6760   30.9970   48.6110 C   0  0  0  0  0  0  0  0  0  0  0  0
   47.2400   30.9760   47.3620 C   0  0  0  0  0  0  0  0  0  0  0  0
   46.8160   31.8590   46.4100 N   0  0  0  0  0  0  0  0  0  0  0  0
   45.8350   32.7560   46.7030 C   0  0  0  0  0  0  0  0  0  0  0  0
   45.2790   32.7830   47.9210 N   0  0  0  0  0  0  0  0  0  0  0  0
   48.2970   30.0000   47.0630 C   0  0  0  0  0  0  0  0  0  0  0  0
   48.5060   28.7950   47.8880 C   0  0  0  0  0  0  0  0  0  0  0  0
   49.4260   29.9820   48.0870 C   0  0  0  0  0  0  0  0  0  0  0  0
   44.7585   35.1601   47.0728 H   0  0  0  0  0  0  0  0  0  0  0  0
   43.9796   36.7884   45.3809 H   0  0  0  0  0  0  0  0  0  0  0  0
   43.2643   33.0317   41.9987 H   0  0  0  0  0  0  0  0  0  0  0  0
   43.3350   32.3346   39.6216 H   0  0  0  0  0  0  0  0  0  0  0  0
   45.4219   32.8343   38.3080 H   0  0  0  0  0  0  0  0  0  0  0  0
   47.2827   33.9807   39.4129 H   0  0  0  0  0  0  0  0  0  0  0  0
   49.8246   32.8212   41.8241 H   0  0  0  0  0  0  0  0  0  0  0  0
   49.2507   36.8304   40.5257 H   0  0  0  0  0  0  0  0  0  0  0  0
   45.2002   31.9702   49.8789 H   0  0  0  0  0  0  0  0  0  0  0  0
   47.0085   30.2913   49.3865 H   0  0  0  0  0  0  0  0  0  0  0  0
   48.1736   30.1245   45.9771 H   0  0  0  0  0  0  0  0  0  0  0  0
   47.7755   28.5331   48.6676 H   0  0  0  0  0  0  0  0  0  0  0  0
   48.6614   27.7285   47.6681 H   0  0  0  0  0  0  0  0  0  0  0  0
   50.4742   29.9335   47.7570 H   0  0  0  0  0  0  0  0  0  0  0  0
   49.7304   30.6105   48.9369 H   0  0  0  0  0  0  0  0  0  0  0  0
  1  2  2  0
  1 22  1  0
  3  2  1  0
  4  3  2  0
  5  4  1  0
  5  6  2  0
  6  1  1  0
  7  5  1  0
  8  7  2  0
  9  8  1  0
 10 11  1  0
 10  9  2  0
 11 12  2  0
 12 13  1  0
 12  7  1  0
 15 13  1  0
 15 14  2  0
 16 15  1  0
 17 15  1  0
 19 18  2  0
 20 19  1  0
 21 22  1  0
 21 20  2  0
 22 23  2  0
 23 18  1  0
 24 20  1  0
 24 25  1  0
 24 26  1  0
 25 26  1  0
  2 27  1  0
  3 28  1  0
  8 29  1  0
  9 30  1  0
 10 31  1  0
 11 32  1  0
 16 33  1  0
 17 34  1  0
 18 35  1  0
 19 36  1  0
 24 37  1  0
 25 38  1  0
 25 39  1  0
 26 40  1  0
 26 41  1  0
M  ISO  8  27  14  28  14  29  14  30  14  31  14  32  14  33   3  34   3
M  ISO  7  35  14  36  14  37  13  38  13  39  13  40  13  41  13
M  END
>  <minimizedAffinity>  (1) 
-6.17420864

>  <minimizedRMSD>  (1) 
0.524512053

$$$$
