
     RDKit          3D

 40 42  0  0  0  0  0  0  0  0999 V2000
   45.3910   33.7000   45.6950 C   0  0  0  0  0  0  0  0  0  0  0  0
   44.8420   34.9020   46.0190 C   0  0  0  0  0  0  0  0  0  0  0  0
   44.3970   35.8110   45.0870 C   0  0  0  0  0  0  0  0  0  0  0  0
   44.5290   35.4510   43.7890 N   0  0  0  0  0  0  0  0  0  0  0  0
   45.0760   34.2530   43.4720 C   0  0  0  0  0  0  0  0  0  0  0  0
   45.5070   33.3720   44.3950 N   0  0  0  0  0  0  0  0  0  0  0  0
   45.2120   33.8760   42.0470 C   0  0  0  0  0  0  0  0  0  0  0  0
   44.1690   33.2360   41.4210 C   0  0  0  0  0  0  0  0  0  0  0  0
   44.1950   32.8400   40.0880 C   0  0  0  0  0  0  0  0  0  0  0  0
   45.3490   33.1180   39.3710 C   0  0  0  0  0  0  0  0  0  0  0  0
   46.3760   33.7510   39.9940 C   0  0  0  0  0  0  0  0  0  0  0  0
   46.3440   34.1430   41.3200 C   0  0  0  0  0  0  0  0  0  0  0  0
   47.3740   34.7870   41.9740 O   0  0  0  0  0  0  0  0  0  0  0  0
   49.8210   35.4190   42.6240 O   0  0  0  0  0  0  0  0  0  0  0  0
   48.9910   34.8330   41.4930 P   0  0  0  0  0  0  0  0  0  0  0  0
   49.6120   33.3500   41.0190 O   0  0  0  0  0  0  0  0  0  0  0  0
   49.1300   35.9100   40.1820 O   0  0  0  0  0  0  0  0  0  0  0  0
   45.7200   31.9630   48.9080 C   0  0  0  0  0  0  0  0  0  0  0  0
   46.7030   31.0140   48.6200 C   0  0  0  0  0  0  0  0  0  0  0  0
   47.2490   30.9640   47.3500 C   0  0  0  0  0  0  0  0  0  0  0  0
   46.8000   31.8570   46.4050 N   0  0  0  0  0  0  0  0  0  0  0  0
   45.8500   32.7640   46.7090 C   0  0  0  0  0  0  0  0  0  0  0  0
   45.3180   32.8140   47.9450 N   0  0  0  0  0  0  0  0  0  0  0  0
   48.2880   29.9930   46.9690 C   0  0  0  0  0  0  0  0  0  0  0  0
   49.1310   29.7150   48.1990 C   0  0  0  0  0  0  0  0  0  0  0  0
   44.7489   35.1611   47.0840 H   0  0  0  0  0  0  0  0  0  0  0  0
   43.9585   36.7762   45.3803 H   0  0  0  0  0  0  0  0  0  0  0  0
   43.2626   33.0251   42.0074 H   0  0  0  0  0  0  0  0  0  0  0  0
   43.3387   32.3293   39.6234 H   0  0  0  0  0  0  0  0  0  0  0  0
   45.4312   32.8298   38.3126 H   0  0  0  0  0  0  0  0  0  0  0  0
   47.2844   33.9640   39.4115 H   0  0  0  0  0  0  0  0  0  0  0  0
   49.8362   32.8146   41.8210 H   0  0  0  0  0  0  0  0  0  0  0  0
   49.2490   36.8317   40.5233 H   0  0  0  0  0  0  0  0  0  0  0  0
   45.2775   32.0150   49.9137 H   0  0  0  0  0  0  0  0  0  0  0  0
   47.0404   30.3119   49.3967 H   0  0  0  0  0  0  0  0  0  0  0  0
   47.8199   29.0618   46.6171 H   0  0  0  0  0  0  0  0  0  0  0  0
   48.9116   30.3942   46.1565 H   0  0  0  0  0  0  0  0  0  0  0  0
   48.5361   29.9112   49.1032 H   0  0  0  0  0  0  0  0  0  0  0  0
   49.4528   28.6631   48.1929 H   0  0  0  0  0  0  0  0  0  0  0  0
   50.0154   30.3691   48.1929 H   0  0  0  0  0  0  0  0  0  0  0  0
  1  2  2  0
  1 22  1  0
  3  2  1  0
  4  3  2  0
  5  4  1  0
  5  6  2  0
  6  1  1  0
  7  5  1  0
  8  7  2  0
  9  8  1  0
 10 11  1  0
 10  9  2  0
 11 12  2  0
 12 13  1  0
 12  7  1  0
 15 13  1  0
 15 14  2  0
 16 15  1  0
 17 15  1  0
 19 18  2  0
 20 19  1  0
 21 22  1  0
 21 20  2  0
 22 23  2  0
 23 18  1  0
 24 20  1  0
 24 25  1  0
  2 26  1  0
  3 27  1  0
  8 28  1  0
  9 29  1  0
 10 30  1  0
 11 31  1  0
 16 32  1  0
 17 33  1  0
 18 34  1  0
 19 35  1  0
 24 36  1  0
 24 37  1  0
 25 38  1  0
 25 39  1  0
 25 40  1  0
M  ISO  8  26  14  27  14  28  14  29  14  30  14  31  14  32   3  33   3
M  ISO  7  34  14  35  14  36   8  37   8  38   8  39   8  40   8
M  END
>  <minimizedAffinity>  (1) 
-6.06470251

>  <minimizedRMSD>  (1) 
0.499040633

$$$$
