
     RDKit          3D

 40 43  0  0  1  0  0  0  0  0999 V2000
   48.0970   33.5500   42.5590 C   0  0  1  0  0  0  0  0  0  0  0  0
   46.6240   33.7640   42.3020 C   0  0  2  0  0  0  0  0  0  0  0  0
   46.4030   34.6820   41.2950 O   0  0  0  0  0  0  0  0  0  0  0  0
   46.7930   34.0710   40.1160 C   0  0  0  0  0  0  0  0  0  0  0  0
   48.2920   34.0050   40.0950 C   0  0  2  0  0  0  0  0  0  0  0  0
   48.9210   33.4410   41.3240 C   0  0  2  0  0  0  0  0  0  0  0  0
   44.5430   35.7920   44.7320 C   0  0  0  0  0  0  0  0  0  0  0  0
   45.1650   35.3890   43.5420 C   0  0  0  0  0  0  0  0  0  0  0  0
   45.9500   34.2020   43.5320 C   0  0  0  0  0  0  0  0  0  0  0  0
   46.0550   33.5170   44.6910 N   0  0  0  0  0  0  0  0  0  0  0  0
   45.4440   33.9300   45.8300 C   0  0  0  0  0  0  0  0  0  0  0  0
   44.6920   35.0610   45.8520 N   0  0  0  0  0  0  0  0  0  0  0  0
   48.6100   34.4810   43.4690 O   0  0  0  0  0  0  0  0  0  0  0  0
   48.7260   35.3240   39.8570 O   0  0  0  0  0  0  0  0  0  0  0  0
   49.3900   32.1270   41.1260 O   0  0  0  0  0  0  0  0  0  0  0  0
   50.7880   31.9060   39.0390 N   0  0  0  0  0  0  0  0  0  0  0  0
   50.4830   31.8180   40.3460 C   0  0  0  0  0  0  0  0  0  0  0  0
   51.5440   31.2840   41.0180 N   0  0  0  0  0  0  0  0  0  0  0  0
   52.5340   31.0330   40.1260 C   0  0  0  0  0  0  0  0  0  0  0  0
   53.8230   30.5150   40.1420 C   0  0  0  0  0  0  0  0  0  0  0  0
   54.4960   30.4310   39.0000 N   0  0  0  0  0  0  0  0  0  0  0  0
   54.0310   30.8120   37.7980 C   0  0  0  0  0  0  0  0  0  0  0  0
   52.7690   31.3200   37.7740 N   0  0  0  0  0  0  0  0  0  0  0  0
   52.0390   31.4300   38.8970 C   0  0  0  0  0  0  0  0  0  0  0  0
   54.3300   30.1080   41.4070 N   0  0  0  0  0  0  0  0  0  0  0  0
   48.1713   32.5591   43.0308 H   0  0  0  0  0  0  0  0  0  0  0  0
   46.2058   32.8002   41.9761 H   0  0  0  0  0  0  0  0  0  0  0  0
   46.3749   33.0547   40.0674 H   0  0  0  0  0  0  0  0  0  0  0  0
   46.4260   34.6442   39.2518 H   0  0  0  0  0  0  0  0  0  0  0  0
   48.6071   33.3001   39.3115 H   0  0  0  0  0  0  0  0  0  0  0  0
   49.7893   34.0912   41.5064 H   0  0  0  0  0  0  0  0  0  0  0  0
   43.9324   36.7068   44.7502 H   0  0  0  0  0  0  0  0  0  0  0  0
   45.0474   35.9846   42.6247 H   0  0  0  0  0  0  0  0  0  0  0  0
   45.5596   33.3392   46.7507 H   0  0  0  0  0  0  0  0  0  0  0  0
   48.4380   34.1689   44.3927 H   0  0  0  0  0  0  0  0  0  0  0  0
   48.8769   35.7827   40.7212 H   0  0  0  0  0  0  0  0  0  0  0  0
   50.1806   32.2683   38.2902 H   0  0  0  0  0  0  0  0  0  0  0  0
   54.6368   30.7184   36.8846 H   0  0  0  0  0  0  0  0  0  0  0  0
   55.2799   29.7165   41.4793 H   0  0  0  0  0  0  0  0  0  0  0  0
   53.7472   30.2048   42.2507 H   0  0  0  0  0  0  0  0  0  0  0  0
  1 13  1  0
  2  1  1  0
  2  9  1  0
  3  2  1  0
  4  3  1  0
  5  4  1  0
  5  6  1  0
  6  1  1  0
  7 12  2  0
  8  7  1  0
  9  8  2  0
  9 10  1  0
 10 11  2  0
 11 12  1  0
 14  5  1  0
 15  6  1  0
 16 17  1  0
 17 18  2  0
 17 15  1  0
 19 20  2  0
 19 18  1  0
 20 25  1  0
 21 20  1  0
 22 21  2  0
 23 22  1  0
 23 24  2  0
 24 16  1  0
 24 19  1  0
  1 26  1  1
  2 27  1  6
  4 28  1  0
  4 29  1  0
  5 30  1  6
  6 31  1  1
  7 32  1  0
  8 33  1  0
 11 34  1  0
 13 35  1  0
 14 36  1  0
 16 37  1  0
 22 38  1  0
 25 39  1  0
 25 40  1  0
M  ISO  8  26  13  27  13  28  13  29  13  30  13  31  13  32  14  33  14
M  ISO  5  34  14  35   3  36   3  37   9  38  14
M  END
>  <minimizedAffinity>  (1) 
-6.53395939

>  <minimizedRMSD>  (1) 
1.64656281

$$$$
