
     RDKit          3D

 37 39  0  0  1  0  0  0  0  0999 V2000
   47.9950   33.5070   42.4720 C   0  0  1  0  0  0  0  0  0  0  0  0
   46.5220   33.7430   42.2340 C   0  0  2  0  0  0  0  0  0  0  0  0
   46.2910   34.6540   41.2230 O   0  0  0  0  0  0  0  0  0  0  0  0
   46.6560   34.0200   40.0450 C   0  0  0  0  0  0  0  0  0  0  0  0
   48.1490   33.9300   39.9900 C   0  0  2  0  0  0  0  0  0  0  0  0
   48.8020   33.3640   41.2250 C   0  0  2  0  0  0  0  0  0  0  0  0
   44.5140   35.8180   44.6890 C   0  0  0  0  0  0  0  0  0  0  0  0
   45.1050   35.4020   43.4880 C   0  0  0  0  0  0  0  0  0  0  0  0
   45.8780   34.2070   43.4720 C   0  0  0  0  0  0  0  0  0  0  0  0
   46.0010   33.5310   44.6360 N   0  0  0  0  0  0  0  0  0  0  0  0
   45.4200   33.9570   45.7830 C   0  0  0  0  0  0  0  0  0  0  0  0
   44.6740   35.1000   45.8150 N   0  0  0  0  0  0  0  0  0  0  0  0
   48.5380   34.4380   43.3620 O   0  0  0  0  0  0  0  0  0  0  0  0
   48.5890   35.2420   39.7350 O   0  0  0  0  0  0  0  0  0  0  0  0
   49.2390   32.0530   41.0230 O   0  0  0  0  0  0  0  0  0  0  0  0
   51.8480   30.8040   38.7330 N   0  0  0  0  0  0  0  0  0  0  0  0
   50.5950   31.0410   39.1270 C   0  0  0  0  0  0  0  0  0  0  0  0
   50.3770   31.6690   40.3350 C   0  0  0  0  0  0  0  0  0  0  0  0
   51.4990   32.0290   41.0940 C   0  0  0  0  0  0  0  0  0  0  0  0
   51.5250   32.6110   42.2260 O   0  0  0  0  0  0  0  0  0  0  0  0
   52.7630   31.7680   40.6520 N   0  0  0  0  0  0  0  0  0  0  0  0
   52.9170   31.1540   39.4680 C   0  0  0  0  0  0  0  0  0  0  0  0
   54.0190   30.8520   38.9380 O   0  0  0  0  0  0  0  0  0  0  0  0
   48.0571   32.5211   42.9558 H   0  0  0  0  0  0  0  0  0  0  0  0
   46.0882   32.7819   41.9208 H   0  0  0  0  0  0  0  0  0  0  0  0
   46.2232   33.0090   40.0195 H   0  0  0  0  0  0  0  0  0  0  0  0
   46.2833   34.5907   39.1817 H   0  0  0  0  0  0  0  0  0  0  0  0
   48.4408   33.2143   39.2073 H   0  0  0  0  0  0  0  0  0  0  0  0
   49.6891   33.9912   41.3972 H   0  0  0  0  0  0  0  0  0  0  0  0
   43.9141   36.7398   44.7108 H   0  0  0  0  0  0  0  0  0  0  0  0
   44.9730   35.9919   42.5690 H   0  0  0  0  0  0  0  0  0  0  0  0
   45.5515   33.3717   46.7050 H   0  0  0  0  0  0  0  0  0  0  0  0
   48.3668   34.1444   44.2918 H   0  0  0  0  0  0  0  0  0  0  0  0
   48.7460   35.7101   40.5931 H   0  0  0  0  0  0  0  0  0  0  0  0
   52.0017   30.3340   37.8294 H   0  0  0  0  0  0  0  0  0  0  0  0
   49.7464   30.7389   38.4956 H   0  0  0  0  0  0  0  0  0  0  0  0
   53.5825   32.0365   41.2152 H   0  0  0  0  0  0  0  0  0  0  0  0
  1 13  1  0
  2  1  1  0
  2  9  1  0
  3  2  1  0
  4  3  1  0
  5  4  1  0
  5  6  1  0
  6  1  1  0
  7 12  2  0
  8  7  1  0
  9  8  2  0
  9 10  1  0
 10 11  2  0
 11 12  1  0
 14  5  1  0
 15  6  1  0
 16 17  1  0
 16 22  1  0
 17 18  2  0
 18 15  1  0
 18 19  1  0
 19 20  2  0
 21 19  1  0
 22 21  1  0
 23 22  2  0
  1 24  1  1
  2 25  1  6
  4 26  1  0
  4 27  1  0
  5 28  1  6
  6 29  1  1
  7 30  1  0
  8 31  1  0
 11 32  1  0
 13 33  1  0
 14 34  1  0
 16 35  1  0
 17 36  1  0
 21 37  1  0
M  ISO  8  24  13  25  13  26  13  27  13  28  13  29  13  30  14  31  14
M  ISO  6  32  14  33   3  34   3  35   9  36  14  37   9
M  END
>  <minimizedAffinity>  (1) 
-6.14099884

>  <minimizedRMSD>  (1) 
1.1101917

$$$$
