
     RDKit          3D

 31 32  0  0  1  0  0  0  0  0999 V2000
   48.1450   33.5280   42.5860 C   0  0  1  0  0  0  0  0  0  0  0  0
   46.6760   33.7370   42.3110 C   0  0  2  0  0  0  0  0  0  0  0  0
   46.4630   34.6430   41.2940 O   0  0  0  0  0  0  0  0  0  0  0  0
   46.8710   34.0280   40.1240 C   0  0  0  0  0  0  0  0  0  0  0  0
   48.3780   33.9630   40.1150 C   0  0  2  0  0  0  0  0  0  0  0  0
   48.9850   33.4160   41.3600 C   0  0  2  0  0  0  0  0  0  0  0  0
   44.5620   35.7860   44.7010 C   0  0  0  0  0  0  0  0  0  0  0  0
   45.1990   35.3740   43.5210 C   0  0  0  0  0  0  0  0  0  0  0  0
   45.9850   34.1880   43.5280 C   0  0  0  0  0  0  0  0  0  0  0  0
   46.0770   33.5100   44.6910 N   0  0  0  0  0  0  0  0  0  0  0  0
   45.4500   33.9320   45.8210 C   0  0  0  0  0  0  0  0  0  0  0  0
   44.7000   35.0590   45.8230 N   0  0  0  0  0  0  0  0  0  0  0  0
   48.6500   34.4610   43.4990 O   0  0  0  0  0  0  0  0  0  0  0  0
   48.8020   35.2840   39.8790 O   0  0  0  0  0  0  0  0  0  0  0  0
   49.4580   32.0900   41.1870 O   0  0  0  0  0  0  0  0  0  0  0  0
   50.7280   31.8500   40.7270 C   0  0  0  0  0  0  0  0  0  0  0  0
   51.0100   31.0380   39.8070 O   0  0  0  0  0  0  0  0  0  0  0  0
   51.9100   32.4740   41.2110 N   0  0  0  0  0  0  0  0  0  0  0  0
   48.2114   32.5393   43.0635 H   0  0  0  0  0  0  0  0  0  0  0  0
   46.2661   32.7676   41.9913 H   0  0  0  0  0  0  0  0  0  0  0  0
   46.4558   33.0105   40.0759 H   0  0  0  0  0  0  0  0  0  0  0  0
   46.5142   34.5997   39.2546 H   0  0  0  0  0  0  0  0  0  0  0  0
   48.7114   33.2570   39.3402 H   0  0  0  0  0  0  0  0  0  0  0  0
   49.8437   34.0789   41.5423 H   0  0  0  0  0  0  0  0  0  0  0  0
   43.9516   36.7011   44.7080 H   0  0  0  0  0  0  0  0  0  0  0  0
   45.0917   35.9629   42.5981 H   0  0  0  0  0  0  0  0  0  0  0  0
   45.5537   33.3488   46.7479 H   0  0  0  0  0  0  0  0  0  0  0  0
   48.4792   34.1455   44.4217 H   0  0  0  0  0  0  0  0  0  0  0  0
   48.9493   35.7428   40.7438 H   0  0  0  0  0  0  0  0  0  0  0  0
   52.8244   32.2308   40.8040 H   0  0  0  0  0  0  0  0  0  0  0  0
   51.8520   33.1693   41.9687 H   0  0  0  0  0  0  0  0  0  0  0  0
  1 13  1  0
  2  1  1  0
  2  9  1  0
  3  2  1  0
  4  3  1  0
  5  4  1  0
  5  6  1  0
  6  1  1  0
  7 12  2  0
  8  9  2  0
  8  7  1  0
  9 10  1  0
 10 11  2  0
 11 12  1  0
 14  5  1  0
 15  6  1  0
 16 15  1  0
 16 18  1  0
 17 16  2  0
  1 19  1  1
  2 20  1  6
  4 21  1  0
  4 22  1  0
  5 23  1  6
  6 24  1  1
  7 25  1  0
  8 26  1  0
 11 27  1  0
 13 28  1  0
 14 29  1  0
 18 30  1  0
 18 31  1  0
M  ISO  8  19  13  20  13  21  13  22  13  23  13  24  13  25  14  26  14
M  ISO  3  27  14  28   3  29   3
M  END
>  <minimizedAffinity>  (1) 
-5.50277996

>  <minimizedRMSD>  (1) 
0.34165591

$$$$
