
     RDKit          3D

 39 41  0  0  1  0  0  0  0  0999 V2000
   48.1420   33.5170   42.5490 C   0  0  1  0  0  0  0  0  0  0  0  0
   46.6710   33.7230   42.2750 C   0  0  2  0  0  0  0  0  0  0  0  0
   46.4670   34.6300   41.2520 O   0  0  0  0  0  0  0  0  0  0  0  0
   46.8670   34.0070   40.0850 C   0  0  0  0  0  0  0  0  0  0  0  0
   48.3750   33.9340   40.0790 C   0  0  2  0  0  0  0  0  0  0  0  0
   48.9770   33.3800   41.3250 C   0  0  2  0  0  0  0  0  0  0  0  0
   44.5700   35.7890   44.6530 C   0  0  0  0  0  0  0  0  0  0  0  0
   45.2030   35.3770   43.4710 C   0  0  0  0  0  0  0  0  0  0  0  0
   45.9840   34.1870   43.4910 C   0  0  0  0  0  0  0  0  0  0  0  0
   46.0850   33.5030   44.6510 N   0  0  0  0  0  0  0  0  0  0  0  0
   45.4500   33.9420   45.7850 C   0  0  0  0  0  0  0  0  0  0  0  0
   44.7010   35.0720   45.7850 N   0  0  0  0  0  0  0  0  0  0  0  0
   48.6520   34.4720   43.4400 O   0  0  0  0  0  0  0  0  0  0  0  0
   48.8100   35.2380   39.8270 O   0  0  0  0  0  0  0  0  0  0  0  0
   49.4470   32.0640   41.1680 O   0  0  0  0  0  0  0  0  0  0  0  0
   51.5880   32.1900   42.1390 N   0  0  0  0  0  0  0  0  0  0  0  0
   51.2980   30.9110   42.8040 C   0  0  0  0  0  0  0  0  0  0  0  0
   51.8300   29.9740   41.7300 C   0  0  0  0  0  0  0  0  0  0  0  0
   51.2720   30.6400   40.4690 C   0  0  0  0  0  0  0  0  0  0  0  0
   50.7970   32.0070   40.9170 C   0  0  1  0  0  0  0  0  0  0  0  0
   48.2082   32.5381   43.0463 H   0  0  0  0  0  0  0  0  0  0  0  0
   46.2537   32.7538   41.9644 H   0  0  0  0  0  0  0  0  0  0  0  0
   46.4454   32.9919   40.0420 H   0  0  0  0  0  0  0  0  0  0  0  0
   46.5117   34.5740   39.2119 H   0  0  0  0  0  0  0  0  0  0  0  0
   48.7063   33.2220   39.3088 H   0  0  0  0  0  0  0  0  0  0  0  0
   49.8468   34.0310   41.4973 H   0  0  0  0  0  0  0  0  0  0  0  0
   43.9616   36.7054   44.6551 H   0  0  0  0  0  0  0  0  0  0  0  0
   45.0979   35.9626   42.5458 H   0  0  0  0  0  0  0  0  0  0  0  0
   45.5509   33.3640   46.7155 H   0  0  0  0  0  0  0  0  0  0  0  0
   48.4926   34.1736   44.3704 H   0  0  0  0  0  0  0  0  0  0  0  0
   48.9660   35.7056   40.6856 H   0  0  0  0  0  0  0  0  0  0  0  0
   51.2607   32.9946   42.6925 H   0  0  0  0  0  0  0  0  0  0  0  0
   51.8425   30.8047   43.7538 H   0  0  0  0  0  0  0  0  0  0  0  0
   50.2505   30.7529   43.1003 H   0  0  0  0  0  0  0  0  0  0  0  0
   52.9297   29.9493   41.7224 H   0  0  0  0  0  0  0  0  0  0  0  0
   51.5376   28.9213   41.8574 H   0  0  0  0  0  0  0  0  0  0  0  0
   50.4339   30.0548   40.0626 H   0  0  0  0  0  0  0  0  0  0  0  0
   52.0275   30.7086   39.6724 H   0  0  0  0  0  0  0  0  0  0  0  0
   50.9344   32.7873   40.1540 H   0  0  0  0  0  0  0  0  0  0  0  0
  1 13  1  0
  2  1  1  0
  2  9  1  0
  3  2  1  0
  4  3  1  0
  5  4  1  0
  5  6  1  0
  6  1  1  0
  7 12  2  0
  8  9  2  0
  8  7  1  0
  9 10  1  0
 10 11  2  0
 12 11  1  0
 14  5  1  0
 15  6  1  0
 16 17  1  0
 18 17  1  0
 19 20  1  0
 19 18  1  0
 20 15  1  0
 20 16  1  0
  1 21  1  1
  2 22  1  6
  4 23  1  0
  4 24  1  0
  5 25  1  6
  6 26  1  1
  7 27  1  0
  8 28  1  0
 11 29  1  0
 13 30  1  0
 14 31  1  0
 16 32  1  0
 17 33  1  0
 17 34  1  0
 18 35  1  0
 18 36  1  0
 19 37  1  0
 19 38  1  0
 20 39  1  6
M  ISO  8  21  13  22  13  23  13  24  13  25  13  26  13  27  14  28  14
M  ISO  8  29  14  30   3  31   3  32   5  33  13  34  13  35  13  36  13
M  ISO  3  37  13  38  13  39  13
M  END
>  <minimizedAffinity>  (1) 
-5.48046923

>  <minimizedRMSD>  (1) 
0.517526269

$$$$
