
     RDKit          3D

 42 44  0  0  1  0  0  0  0  0999 V2000
   47.9840   33.3550   42.4980 C   0  0  1  0  0  0  0  0  0  0  0  0
   46.5280   33.7260   42.2330 C   0  0  2  0  0  0  0  0  0  0  0  0
   46.4050   34.6570   41.2440 O   0  0  0  0  0  0  0  0  0  0  0  0
   46.7510   34.0660   40.0580 C   0  0  0  0  0  0  0  0  0  0  0  0
   48.2250   33.8190   40.0400 C   0  0  2  0  0  0  0  0  0  0  0  0
   48.7980   33.1800   41.2910 C   0  0  2  0  0  0  0  0  0  0  0  0
   44.5330   35.8400   44.6630 C   0  0  0  0  0  0  0  0  0  0  0  0
   45.1210   35.4100   43.4650 C   0  0  0  0  0  0  0  0  0  0  0  0
   45.8900   34.1970   43.4710 C   0  0  0  0  0  0  0  0  0  0  0  0
   46.0210   33.5140   44.6200 N   0  0  0  0  0  0  0  0  0  0  0  0
   45.4270   33.9720   45.7720 C   0  0  0  0  0  0  0  0  0  0  0  0
   44.6940   35.1180   45.7940 N   0  0  0  0  0  0  0  0  0  0  0  0
   48.5690   34.1950   43.4310 O   0  0  0  0  0  0  0  0  0  0  0  0
   48.8040   35.0860   39.8350 O   0  0  0  0  0  0  0  0  0  0  0  0
   49.1180   31.8380   41.0110 O   0  0  0  0  0  0  0  0  0  0  0  0
   51.3710   32.4110   41.4250 N   0  0  0  0  0  0  0  0  0  0  0  0
   51.2840   31.6620   42.6990 C   0  0  0  0  0  0  0  0  0  0  0  0
   51.7020   30.2960   42.1980 C   0  0  0  0  0  0  0  0  0  0  0  0
   50.8740   30.2100   40.9280 C   0  0  0  0  0  0  0  0  0  0  0  0
   50.4250   31.6530   40.6480 C   0  0  1  0  0  0  0  0  0  0  0  0
   50.6850   31.7950   39.1700 C   0  0  0  0  0  0  0  0  0  0  0  0
   47.9521   32.3495   42.9430 H   0  0  0  0  0  0  0  0  0  0  0  0
   46.0138   32.8177   41.8857 H   0  0  0  0  0  0  0  0  0  0  0  0
   46.2170   33.1099   39.9545 H   0  0  0  0  0  0  0  0  0  0  0  0
   46.4784   34.7284   39.2232 H   0  0  0  0  0  0  0  0  0  0  0  0
   48.4499   33.0850   39.2522 H   0  0  0  0  0  0  0  0  0  0  0  0
   49.7202   33.7195   41.5529 H   0  0  0  0  0  0  0  0  0  0  0  0
   43.9399   36.7662   44.6823 H   0  0  0  0  0  0  0  0  0  0  0  0
   44.9958   35.9902   42.5389 H   0  0  0  0  0  0  0  0  0  0  0  0
   45.5476   33.3962   46.7015 H   0  0  0  0  0  0  0  0  0  0  0  0
   48.3491   33.8792   44.3431 H   0  0  0  0  0  0  0  0  0  0  0  0
   48.9962   35.5065   40.7104 H   0  0  0  0  0  0  0  0  0  0  0  0
   51.0808   33.3932   41.5346 H   0  0  0  0  0  0  0  0  0  0  0  0
   51.9786   32.0541   43.4565 H   0  0  0  0  0  0  0  0  0  0  0  0
   50.3089   31.7023   43.2065 H   0  0  0  0  0  0  0  0  0  0  0  0
   52.7803   30.2527   41.9849 H   0  0  0  0  0  0  0  0  0  0  0  0
   51.5400   29.4739   42.9107 H   0  0  0  0  0  0  0  0  0  0  0  0
   51.4816   29.8256   40.0955 H   0  0  0  0  0  0  0  0  0  0  0  0
   50.0201   29.5251   41.0368 H   0  0  0  0  0  0  0  0  0  0  0  0
   51.6407   32.3169   39.0143 H   0  0  0  0  0  0  0  0  0  0  0  0
   50.7325   30.7976   38.7086 H   0  0  0  0  0  0  0  0  0  0  0  0
   49.8715   32.3741   38.7086 H   0  0  0  0  0  0  0  0  0  0  0  0
  1 13  1  0
  2  1  1  0
  2  9  1  0
  3  2  1  0
  4  3  1  0
  5  4  1  0
  5  6  1  0
  6  1  1  0
  7 12  2  0
  8  9  2  0
  8  7  1  0
  9 10  1  0
 10 11  2  0
 11 12  1  0
 14  5  1  0
 15  6  1  0
 16 17  1  0
 18 17  1  0
 19 18  1  0
 20 21  1  0
 20 19  1  0
 20 15  1  6
 20 16  1  0
  1 22  1  1
  2 23  1  6
  4 24  1  0
  4 25  1  0
  5 26  1  6
  6 27  1  1
  7 28  1  0
  8 29  1  0
 11 30  1  0
 13 31  1  0
 14 32  1  0
 16 33  1  0
 17 34  1  0
 17 35  1  0
 18 36  1  0
 18 37  1  0
 19 38  1  0
 19 39  1  0
 21 40  1  0
 21 41  1  0
 21 42  1  0
M  ISO  8  22  13  23  13  24  13  25  13  26  13  27  13  28  14  29  14
M  ISO  8  30  14  31   3  32   3  33   5  34  13  35  13  36  13  37  13
M  ISO  5  38  13  39  13  40   8  41   8  42   8
M  END
>  <minimizedAffinity>  (1) 
-5.38142538

>  <minimizedRMSD>  (1) 
0.480091602

$$$$
