
     RDKit          3D

 40 42  0  0  1  0  0  0  0  0999 V2000
   47.8080   33.2860   42.4320 C   0  0  1  0  0  0  0  0  0  0  0  0
   46.3430   33.6520   42.1940 C   0  0  2  0  0  0  0  0  0  0  0  0
   46.2020   34.5480   41.1760 O   0  0  0  0  0  0  0  0  0  0  0  0
   46.5130   33.9120   40.0020 C   0  0  0  0  0  0  0  0  0  0  0  0
   47.9830   33.6570   39.9520 C   0  0  2  0  0  0  0  0  0  0  0  0
   48.5830   33.0560   41.2100 C   0  0  2  0  0  0  0  0  0  0  0  0
   44.4950   35.9160   44.6100 C   0  0  0  0  0  0  0  0  0  0  0  0
   45.0340   35.4240   43.4100 C   0  0  0  0  0  0  0  0  0  0  0  0
   45.7530   34.1830   43.4330 C   0  0  0  0  0  0  0  0  0  0  0  0
   45.8830   33.5370   44.6050 N   0  0  0  0  0  0  0  0  0  0  0  0
   45.3460   34.0460   45.7510 C   0  0  0  0  0  0  0  0  0  0  0  0
   44.6560   35.2250   45.7620 N   0  0  0  0  0  0  0  0  0  0  0  0
   48.4300   34.1640   43.3090 O   0  0  0  0  0  0  0  0  0  0  0  0
   48.5660   34.9090   39.6820 O   0  0  0  0  0  0  0  0  0  0  0  0
   48.8750   31.6920   40.9730 O   0  0  0  0  0  0  0  0  0  0  0  0
   51.1370   32.4050   41.1490 N   0  0  0  0  0  0  0  0  0  0  0  0
   51.1380   31.8650   42.5330 C   0  0  0  0  0  0  0  0  0  0  0  0
   51.5790   30.4490   42.2260 C   0  0  0  0  0  0  0  0  0  0  0  0
   50.7210   30.1390   41.0110 C   0  0  0  0  0  0  0  0  0  0  0  0
   50.1840   31.5120   40.5640 C   0  0  1  0  0  0  0  0  0  0  0  0
   50.2930   31.6000   38.7540 S   0  0  0  0  0  0  0  0  0  0  0  0
   47.7823   32.3026   42.9243 H   0  0  0  0  0  0  0  0  0  0  0  0
   45.8093   32.7366   41.8988 H   0  0  0  0  0  0  0  0  0  0  0  0
   45.9723   32.9556   39.9481 H   0  0  0  0  0  0  0  0  0  0  0  0
   46.2203   34.5454   39.1516 H   0  0  0  0  0  0  0  0  0  0  0  0
   48.1837   32.8956   39.1839 H   0  0  0  0  0  0  0  0  0  0  0  0
   49.5197   33.5924   41.4218 H   0  0  0  0  0  0  0  0  0  0  0  0
   43.9403   36.8659   44.6132 H   0  0  0  0  0  0  0  0  0  0  0  0
   44.9071   35.9803   42.4695 H   0  0  0  0  0  0  0  0  0  0  0  0
   45.4721   33.4916   46.6927 H   0  0  0  0  0  0  0  0  0  0  0  0
   48.2370   33.8915   44.2410 H   0  0  0  0  0  0  0  0  0  0  0  0
   48.7783   35.3649   40.5347 H   0  0  0  0  0  0  0  0  0  0  0  0
   50.8199   33.3844   41.1163 H   0  0  0  0  0  0  0  0  0  0  0  0
   51.8547   32.3901   43.1815 H   0  0  0  0  0  0  0  0  0  0  0  0
   50.1893   31.9597   43.0816 H   0  0  0  0  0  0  0  0  0  0  0  0
   52.6516   30.4023   41.9864 H   0  0  0  0  0  0  0  0  0  0  0  0
   51.4569   29.7434   43.0610 H   0  0  0  0  0  0  0  0  0  0  0  0
   51.3246   29.6787   40.2149 H   0  0  0  0  0  0  0  0  0  0  0  0
   49.9147   29.4256   41.2368 H   0  0  0  0  0  0  0  0  0  0  0  0
   51.3224   32.4311   38.3984 H   0  0  0  0  0  0  0  0  0  0  0  0
  1 13  1  0
  2  1  1  0
  2  9  1  0
  3  2  1  0
  4  3  1  0
  5  4  1  0
  5  6  1  0
  6  1  1  0
  7 12  2  0
  8  9  2  0
  8  7  1  0
  9 10  1  0
 10 11  2  0
 11 12  1  0
 14  5  1  0
 15  6  1  0
 16 17  1  0
 18 17  1  0
 19 18  1  0
 20 21  1  0
 20 15  1  6
 20 19  1  0
 20 16  1  0
  1 22  1  1
  2 23  1  6
  4 24  1  0
  4 25  1  0
  5 26  1  6
  6 27  1  1
  7 28  1  0
  8 29  1  0
 11 30  1  0
 13 31  1  0
 14 32  1  0
 16 33  1  0
 17 34  1  0
 17 35  1  0
 18 36  1  0
 18 37  1  0
 19 38  1  0
 19 39  1  0
 21 40  1  0
M  ISO  8  22  13  23  13  24  13  25  13  26  13  27  13  28  14  29  14
M  ISO  8  30  14  31   3  32   3  33   5  34  13  35  13  36  13  37  13
M  ISO  3  38  13  39  13  40  11
M  END
>  <minimizedAffinity>  (1) 
-5.33338737

>  <minimizedRMSD>  (1) 
0.725192487

$$$$
