
     RDKit          3D

 38 41  0  0  0  0  0  0  0  0999 V2000
   44.4700   35.8360   45.1200 C   0  0  0  0  0  0  0  0  0  0  0  0
   45.0610   35.8180   43.8380 C   0  0  0  0  0  0  0  0  0  0  0  0
   45.9040   34.7730   43.5090 C   0  0  0  0  0  0  0  0  0  0  0  0
   46.1450   33.7890   44.4240 N   0  0  0  0  0  0  0  0  0  0  0  0
   45.5490   33.8480   45.6600 C   0  0  0  0  0  0  0  0  0  0  0  0
   44.7350   34.8510   45.9840 N   0  0  0  0  0  0  0  0  0  0  0  0
   45.8260   32.8030   46.5860 N   0  0  0  0  0  0  0  0  0  0  0  0
   46.9400   31.9000   46.3670 C   0  0  0  0  0  0  0  0  0  0  0  0
   47.8050   32.0270   47.6190 C   0  0  0  0  0  0  0  0  0  0  0  0
   46.9910   31.4360   48.7420 C   0  0  0  0  0  0  0  0  0  0  0  0
   45.7670   32.2510   48.9880 C   0  0  0  0  0  0  0  0  0  0  0  0
   45.0030   32.6300   47.7500 C   0  0  0  0  0  0  0  0  0  0  0  0
   47.8510   35.1690   42.1140 C   0  0  0  0  0  0  0  0  0  0  0  0
   46.5700   34.6460   42.2200 C   0  0  0  0  0  0  0  0  0  0  0  0
   46.0170   34.0490   41.1190 C   0  0  0  0  0  0  0  0  0  0  0  0
   46.6670   33.9390   39.9060 C   0  0  0  0  0  0  0  0  0  0  0  0
   46.3210   33.4020   38.7190 N   0  0  0  0  0  0  0  0  0  0  0  0
   47.3740   33.5790   37.8570 C   0  0  0  0  0  0  0  0  0  0  0  0
   48.3570   34.2280   38.5370 N   0  0  0  0  0  0  0  0  0  0  0  0
   47.9520   34.4620   39.7990 C   0  0  0  0  0  0  0  0  0  0  0  0
   48.5210   35.0640   40.8900 C   0  0  0  0  0  0  0  0  0  0  0  0
   43.7951   36.6561   45.4064 H   0  0  0  0  0  0  0  0  0  0  0  0
   44.8545   36.6205   43.1145 H   0  0  0  0  0  0  0  0  0  0  0  0
   46.5822   30.8667   46.2477 H   0  0  0  0  0  0  0  0  0  0  0  0
   47.4987   32.1479   45.4524 H   0  0  0  0  0  0  0  0  0  0  0  0
   48.7452   31.4701   47.4931 H   0  0  0  0  0  0  0  0  0  0  0  0
   48.0735   33.0744   47.8212 H   0  0  0  0  0  0  0  0  0  0  0  0
   46.6950   30.4112   48.4735 H   0  0  0  0  0  0  0  0  0  0  0  0
   47.6018   31.4283   49.6568 H   0  0  0  0  0  0  0  0  0  0  0  0
   45.0963   31.6728   49.6405 H   0  0  0  0  0  0  0  0  0  0  0  0
   46.1082   33.1930   49.4420 H   0  0  0  0  0  0  0  0  0  0  0  0
   44.4760   33.5757   47.9447 H   0  0  0  0  0  0  0  0  0  0  0  0
   44.3157   31.7990   47.5332 H   0  0  0  0  0  0  0  0  0  0  0  0
   48.3305   35.6567   42.9755 H   0  0  0  0  0  0  0  0  0  0  0  0
   45.0014   33.6353   41.2054 H   0  0  0  0  0  0  0  0  0  0  0  0
   45.4265   32.9414   38.4985 H   0  0  0  0  0  0  0  0  0  0  0  0
   47.4155   33.2548   36.8067 H   0  0  0  0  0  0  0  0  0  0  0  0
   49.5363   35.4778   40.8011 H   0  0  0  0  0  0  0  0  0  0  0  0
  1  6  2  0
  2  1  1  0
  3  2  2  0
  3  4  1  0
  4  5  2  0
  5  6  1  0
  5  7  1  0
  7 12  1  0
  8  7  1  0
  8  9  1  0
  9 10  1  0
 10 11  1  0
 12 11  1  0
 13 14  2  0
 14  3  1  0
 15 14  1  0
 16 15  2  0
 17 16  1  0
 18 19  2  0
 18 17  1  0
 19 20  1  0
 20 16  1  0
 20 21  2  0
 21 13  1  0
  1 22  1  0
  2 23  1  0
  8 24  1  0
  8 25  1  0
  9 26  1  0
  9 27  1  0
 10 28  1  0
 10 29  1  0
 11 30  1  0
 11 31  1  0
 12 32  1  0
 12 33  1  0
 13 34  1  0
 15 35  1  0
 17 36  1  0
 18 37  1  0
 21 38  1  0
M  ISO  8  22  14  23  14  24  13  25  13  26  13  27  13  28  13  29  13
M  ISO  8  30  13  31  13  32  13  33  13  34  14  35  14  36   9  37  14
M  ISO  1  38  14
M  END
>  <minimizedAffinity>  (1) 
-7.21869946

>  <minimizedRMSD>  (1) 
0.216784075

$$$$
