
     RDKit          3D

 36 40  0  0  0  0  0  0  0  0999 V2000
   44.3920   36.0280   44.6540 C   0  0  0  0  0  0  0  0  0  0  0  0
   44.9890   35.9510   43.3700 C   0  0  0  0  0  0  0  0  0  0  0  0
   45.9040   34.9310   43.1500 C   0  0  0  0  0  0  0  0  0  0  0  0
   46.1920   34.0610   44.1470 N   0  0  0  0  0  0  0  0  0  0  0  0
   45.6060   34.1570   45.3700 C   0  0  0  0  0  0  0  0  0  0  0  0
   44.7210   35.1320   45.6030 N   0  0  0  0  0  0  0  0  0  0  0  0
   47.8860   35.2340   41.7790 C   0  0  0  0  0  0  0  0  0  0  0  0
   46.5950   34.7340   41.8750 C   0  0  0  0  0  0  0  0  0  0  0  0
   46.0560   34.0980   40.7880 C   0  0  0  0  0  0  0  0  0  0  0  0
   46.7450   33.9330   39.6010 C   0  0  0  0  0  0  0  0  0  0  0  0
   46.4300   33.3530   38.4220 N   0  0  0  0  0  0  0  0  0  0  0  0
   47.5010   33.4840   37.5890 C   0  0  0  0  0  0  0  0  0  0  0  0
   48.4730   34.1430   38.2630 N   0  0  0  0  0  0  0  0  0  0  0  0
   48.0350   34.4320   39.5040 C   0  0  0  0  0  0  0  0  0  0  0  0
   48.5950   35.0750   40.5840 C   0  0  0  0  0  0  0  0  0  0  0  0
   45.2210   33.1620   47.5860 C   0  0  0  0  0  0  0  0  0  0  0  0
   45.9470   33.1960   46.4130 C   0  0  0  0  0  0  0  0  0  0  0  0
   46.9980   32.3240   46.2160 C   0  0  0  0  0  0  0  0  0  0  0  0
   47.3430   31.4040   47.1860 C   0  0  0  0  0  0  0  0  0  0  0  0
   48.2860   30.4470   47.2940 N   0  0  0  0  0  0  0  0  0  0  0  0
   48.1620   29.8500   48.4590 N   0  0  0  0  0  0  0  0  0  0  0  0
   47.1310   30.3850   49.1730 C   0  0  0  0  0  0  0  0  0  0  0  0
   46.6040   31.3860   48.3540 C   0  0  0  0  0  0  0  0  0  0  0  0
   45.5410   32.2440   48.5910 C   0  0  0  0  0  0  0  0  0  0  0  0
   43.6605   36.8195   44.8743 H   0  0  0  0  0  0  0  0  0  0  0  0
   44.7365   36.6721   42.5787 H   0  0  0  0  0  0  0  0  0  0  0  0
   48.3470   35.7501   42.6341 H   0  0  0  0  0  0  0  0  0  0  0  0
   45.0324   33.7022   40.8628 H   0  0  0  0  0  0  0  0  0  0  0  0
   45.5375   32.8928   38.1929 H   0  0  0  0  0  0  0  0  0  0  0  0
   47.5644   33.1191   36.5532 H   0  0  0  0  0  0  0  0  0  0  0  0
   49.6183   35.4709   40.5061 H   0  0  0  0  0  0  0  0  0  0  0  0
   44.3849   33.8618   47.7314 H   0  0  0  0  0  0  0  0  0  0  0  0
   47.5674   32.3622   45.2756 H   0  0  0  0  0  0  0  0  0  0  0  0
   48.9910   30.2197   46.5784 H   0  0  0  0  0  0  0  0  0  0  0  0
   46.7886   30.0918   50.1764 H   0  0  0  0  0  0  0  0  0  0  0  0
   44.9723   32.2041   49.5317 H   0  0  0  0  0  0  0  0  0  0  0  0
  1  6  2  0
  2  1  1  0
  3  2  2  0
  3  4  1  0
  4  5  2  0
  5  6  1  0
  5 17  1  0
  7  8  2  0
  8  3  1  0
  9  8  1  0
 10  9  2  0
 11 10  1  0
 12 13  2  0
 12 11  1  0
 13 14  1  0
 14 10  1  0
 14 15  2  0
 15  7  1  0
 16 24  2  0
 17 16  1  0
 18 17  2  0
 18 19  1  0
 19 20  1  0
 19 23  2  0
 20 21  1  0
 21 22  2  0
 23 24  1  0
 23 22  1  0
  1 25  1  0
  2 26  1  0
  7 27  1  0
  9 28  1  0
 11 29  1  0
 12 30  1  0
 15 31  1  0
 16 32  1  0
 18 33  1  0
 20 34  1  0
 22 35  1  0
 24 36  1  0
M  ISO  8  25  14  26  14  27  14  28  14  29   9  30  14  31  14  32  14
M  ISO  4  33  14  34   9  35  14  36  14
M  END
>  <minimizedAffinity>  (1) 
-7.20988083

>  <minimizedRMSD>  (1) 
0.309367478

$$$$
