
     RDKit          3D

 29 32  0  0  0  0  0  0  0  0999 V2000
   44.4310   35.9770   44.8880 C   0  0  0  0  0  0  0  0  0  0  0  0
   45.0330   35.9240   43.6020 C   0  0  0  0  0  0  0  0  0  0  0  0
   45.9030   34.8870   43.3280 C   0  0  0  0  0  0  0  0  0  0  0  0
   46.1580   33.9500   44.2880 N   0  0  0  0  0  0  0  0  0  0  0  0
   45.5490   34.0470   45.5140 C   0  0  0  0  0  0  0  0  0  0  0  0
   44.7090   35.0440   45.7900 N   0  0  0  0  0  0  0  0  0  0  0  0
   47.8640   35.1960   41.9470 C   0  0  0  0  0  0  0  0  0  0  0  0
   46.5870   34.7150   42.0510 C   0  0  0  0  0  0  0  0  0  0  0  0
   46.0190   34.0980   40.9590 C   0  0  0  0  0  0  0  0  0  0  0  0
   46.6900   33.9440   39.7560 C   0  0  0  0  0  0  0  0  0  0  0  0
   46.3450   33.3820   38.5720 N   0  0  0  0  0  0  0  0  0  0  0  0
   47.4290   33.5230   37.7350 C   0  0  0  0  0  0  0  0  0  0  0  0
   48.4140   34.1640   38.4080 N   0  0  0  0  0  0  0  0  0  0  0  0
   47.9860   34.4340   39.6530 C   0  0  0  0  0  0  0  0  0  0  0  0
   48.5610   35.0530   40.7440 C   0  0  0  0  0  0  0  0  0  0  0  0
   45.9280   32.9570   46.4420 C   0  0  0  0  0  0  0  0  0  0  0  0
   46.9310   32.0250   46.1480 C   0  0  0  0  0  0  0  0  0  0  0  0
   46.9150   31.0050   47.6130 S   0  0  0  0  0  0  0  0  0  0  0  0
   45.5200   32.0200   48.4190 C   0  0  0  0  0  0  0  0  0  0  0  0
   45.2980   32.8540   47.5980 N   0  0  0  0  0  0  0  0  0  0  0  0
   43.7344   36.7914   45.1360 H   0  0  0  0  0  0  0  0  0  0  0  0
   44.8117   36.6896   42.8438 H   0  0  0  0  0  0  0  0  0  0  0  0
   48.3394   35.6926   42.8057 H   0  0  0  0  0  0  0  0  0  0  0  0
   44.9925   33.7122   41.0447 H   0  0  0  0  0  0  0  0  0  0  0  0
   45.4455   32.9356   38.3426 H   0  0  0  0  0  0  0  0  0  0  0  0
   47.4856   33.1734   36.6936 H   0  0  0  0  0  0  0  0  0  0  0  0
   49.5872   35.4412   40.6654 H   0  0  0  0  0  0  0  0  0  0  0  0
   47.5623   31.9430   45.2509 H   0  0  0  0  0  0  0  0  0  0  0  0
   45.0395   31.8730   49.3975 H   0  0  0  0  0  0  0  0  0  0  0  0
  1  6  2  0
  2  1  1  0
  3  2  2  0
  3  4  1  0
  4  5  2  0
  5  6  1  0
  5 16  1  0
  7  8  2  0
  8  3  1  0
  9  8  1  0
 10  9  2  0
 11 10  1  0
 12 13  2  0
 12 11  1  0
 13 14  1  0
 14 10  1  0
 14 15  2  0
 15  7  1  0
 16 20  1  0
 17 16  2  0
 17 18  1  0
 18 19  1  0
 20 19  2  0
  1 21  1  0
  2 22  1  0
  7 23  1  0
  9 24  1  0
 11 25  1  0
 12 26  1  0
 15 27  1  0
 17 28  1  0
 19 29  1  0
M  ISO  8  21  14  22  14  23  14  24  14  25   9  26  14  27  14  28  14
M  ISO  1  29  14
M  END
>  <minimizedAffinity>  (1) 
-6.6183157

>  <minimizedRMSD>  (1) 
0.448937267

$$$$
