
     RDKit          3D

 26 28  0  0  0  0  0  0  0  0999 V2000
   47.8880   35.2210   41.9210 C   0  0  0  0  0  0  0  0  0  0  0  0
   46.6230   34.7110   42.0380 C   0  0  0  0  0  0  0  0  0  0  0  0
   46.0690   34.0800   40.9390 C   0  0  0  0  0  0  0  0  0  0  0  0
   46.7310   33.9440   39.7300 C   0  0  0  0  0  0  0  0  0  0  0  0
   46.3810   33.3760   38.5530 N   0  0  0  0  0  0  0  0  0  0  0  0
   47.4250   33.5310   37.6970 C   0  0  0  0  0  0  0  0  0  0  0  0
   48.4160   34.2010   38.3670 N   0  0  0  0  0  0  0  0  0  0  0  0
   48.0040   34.4630   39.6230 C   0  0  0  0  0  0  0  0  0  0  0  0
   48.5710   35.0930   40.7080 C   0  0  0  0  0  0  0  0  0  0  0  0
   44.4550   35.9380   44.8750 C   0  0  0  0  0  0  0  0  0  0  0  0
   45.0640   35.8870   43.6010 C   0  0  0  0  0  0  0  0  0  0  0  0
   45.9430   34.8610   43.3110 C   0  0  0  0  0  0  0  0  0  0  0  0
   46.1980   33.9230   44.2670 N   0  0  0  0  0  0  0  0  0  0  0  0
   45.5970   33.9940   45.4920 C   0  0  0  0  0  0  0  0  0  0  0  0
   44.7390   35.0000   45.7710 N   0  0  0  0  0  0  0  0  0  0  0  0
   45.9060   32.9390   46.5200 C   0  0  0  0  0  0  0  0  0  0  0  0
   48.3630   35.7273   42.7743 H   0  0  0  0  0  0  0  0  0  0  0  0
   45.0538   33.6663   41.0294 H   0  0  0  0  0  0  0  0  0  0  0  0
   45.4862   32.9108   38.3438 H   0  0  0  0  0  0  0  0  0  0  0  0
   47.4674   33.1819   36.6547 H   0  0  0  0  0  0  0  0  0  0  0  0
   49.5866   35.5059   40.6182 H   0  0  0  0  0  0  0  0  0  0  0  0
   43.7521   36.7472   45.1223 H   0  0  0  0  0  0  0  0  0  0  0  0
   44.8405   36.6565   42.8474 H   0  0  0  0  0  0  0  0  0  0  0  0
   45.7822   33.3618   47.5279 H   0  0  0  0  0  0  0  0  0  0  0  0
   45.2189   32.0896   46.3917 H   0  0  0  0  0  0  0  0  0  0  0  0
   46.9428   32.5945   46.3917 H   0  0  0  0  0  0  0  0  0  0  0  0
  1  2  2  0
  2 12  1  0
  3  2  1  0
  4  3  2  0
  5  4  1  0
  6  7  2  0
  6  5  1  0
  7  8  1  0
  8  4  1  0
  8  9  2  0
  9  1  1  0
 10 15  2  0
 11 10  1  0
 12 11  2  0
 12 13  1  0
 13 14  2  0
 14 15  1  0
 14 16  1  0
  1 17  1  0
  3 18  1  0
  5 19  1  0
  6 20  1  0
  9 21  1  0
 10 22  1  0
 11 23  1  0
 16 24  1  0
 16 25  1  0
 16 26  1  0
M  ISO  8  17  14  18  14  19   9  20  14  21  14  22  14  23  14  24   8
M  ISO  2  25   8  26   8
M  END
>  <minimizedAffinity>  (1) 
-5.82502794

>  <minimizedRMSD>  (1) 
0.0262206625

$$$$
