
     RDKit          3D

 24 26  0  0  0  0  0  0  0  0999 V2000
   47.8860   35.2160   41.9140 C   0  0  0  0  0  0  0  0  0  0  0  0
   46.6100   34.6980   42.0330 C   0  0  0  0  0  0  0  0  0  0  0  0
   46.0650   34.0750   40.9360 C   0  0  0  0  0  0  0  0  0  0  0  0
   46.7110   33.9350   39.7290 C   0  0  0  0  0  0  0  0  0  0  0  0
   46.3790   33.3750   38.5450 N   0  0  0  0  0  0  0  0  0  0  0  0
   47.4380   33.5410   37.6930 C   0  0  0  0  0  0  0  0  0  0  0  0
   48.4160   34.2060   38.3660 N   0  0  0  0  0  0  0  0  0  0  0  0
   47.9960   34.4620   39.6210 C   0  0  0  0  0  0  0  0  0  0  0  0
   48.5650   35.0870   40.6980 C   0  0  0  0  0  0  0  0  0  0  0  0
   44.4660   35.9230   44.8760 C   0  0  0  0  0  0  0  0  0  0  0  0
   45.0600   35.8870   43.5960 C   0  0  0  0  0  0  0  0  0  0  0  0
   45.9330   34.8500   43.3150 C   0  0  0  0  0  0  0  0  0  0  0  0
   46.1840   33.9260   44.2600 N   0  0  0  0  0  0  0  0  0  0  0  0
   45.6000   33.9790   45.4910 C   0  0  0  0  0  0  0  0  0  0  0  0
   44.7500   34.9810   45.7730 N   0  0  0  0  0  0  0  0  0  0  0  0
   45.9900   32.6970   46.7040 S   0  0  0  0  0  0  0  0  0  0  0  0
   48.3620   35.7238   42.7658 H   0  0  0  0  0  0  0  0  0  0  0  0
   45.0494   33.6627   41.0285 H   0  0  0  0  0  0  0  0  0  0  0  0
   45.4887   32.9070   38.3231 H   0  0  0  0  0  0  0  0  0  0  0  0
   47.4891   33.1976   36.6492 H   0  0  0  0  0  0  0  0  0  0  0  0
   49.5811   35.4978   40.6047 H   0  0  0  0  0  0  0  0  0  0  0  0
   43.7663   36.7319   45.1332 H   0  0  0  0  0  0  0  0  0  0  0  0
   44.8361   36.6590   42.8451 H   0  0  0  0  0  0  0  0  0  0  0  0
   45.8363   33.2024   47.9681 H   0  0  0  0  0  0  0  0  0  0  0  0
  1  2  2  0
  2 12  1  0
  3  2  1  0
  4  3  2  0
  5  4  1  0
  6  7  2  0
  6  5  1  0
  7  8  1  0
  8  4  1  0
  8  9  2  0
  9  1  1  0
 10 15  2  0
 11 10  1  0
 12 11  2  0
 12 13  1  0
 13 14  2  0
 14 15  1  0
 14 16  1  0
  1 17  1  0
  3 18  1  0
  5 19  1  0
  6 20  1  0
  9 21  1  0
 10 22  1  0
 11 23  1  0
 16 24  1  0
M  ISO  8  17  14  18  14  19   9  20  14  21  14  22  14  23  14  24  11
M  END
>  <minimizedAffinity>  (1) 
-5.78267479

>  <minimizedRMSD>  (1) 
0.0241391249

$$$$
