
     RDKit          3D

 37 41  0  0  0  0  0  0  0  0999 V2000
   44.4410   35.7850   44.8590 C   0  0  0  0  0  0  0  0  0  0  0  0
   45.0270   35.7490   43.5780 C   0  0  0  0  0  0  0  0  0  0  0  0
   45.9730   34.7870   43.2770 C   0  0  0  0  0  0  0  0  0  0  0  0
   46.3160   33.8910   44.2340 N   0  0  0  0  0  0  0  0  0  0  0  0
   45.7440   33.9350   45.4710 C   0  0  0  0  0  0  0  0  0  0  0  0
   44.8160   34.8840   45.7530 N   0  0  0  0  0  0  0  0  0  0  0  0
   47.9040   35.2200   41.8740 C   0  0  0  0  0  0  0  0  0  0  0  0
   46.6360   34.6640   41.9880 C   0  0  0  0  0  0  0  0  0  0  0  0
   46.0910   34.0380   40.8890 C   0  0  0  0  0  0  0  0  0  0  0  0
   46.7440   33.9370   39.6760 C   0  0  0  0  0  0  0  0  0  0  0  0
   46.4050   33.3830   38.5010 N   0  0  0  0  0  0  0  0  0  0  0  0
   47.4510   33.5820   37.6350 C   0  0  0  0  0  0  0  0  0  0  0  0
   48.4180   34.2590   38.2980 N   0  0  0  0  0  0  0  0  0  0  0  0
   48.0150   34.4920   39.5560 C   0  0  0  0  0  0  0  0  0  0  0  0
   48.5660   35.1170   40.6420 C   0  0  0  0  0  0  0  0  0  0  0  0
   45.5020   32.9680   47.7070 C   0  0  0  0  0  0  0  0  0  0  0  0
   46.1180   32.9720   46.4890 C   0  0  0  0  0  0  0  0  0  0  0  0
   47.1150   32.0520   46.2060 C   0  0  0  0  0  0  0  0  0  0  0  0
   47.4830   31.1280   47.1690 C   0  0  0  0  0  0  0  0  0  0  0  0
   48.4210   30.1780   47.0560 N   0  0  0  0  0  0  0  0  0  0  0  0
   48.4080   29.5330   48.2580 C   0  0  0  0  0  0  0  0  0  0  0  0
   47.4750   30.0920   49.0750 N   0  0  0  0  0  0  0  0  0  0  0  0
   46.8750   31.1010   48.4110 C   0  0  0  0  0  0  0  0  0  0  0  0
   45.8840   32.0380   48.6520 C   0  0  0  0  0  0  0  0  0  0  0  0
   45.3040   31.9690   49.9180 O   0  0  0  0  0  0  0  0  0  0  0  0
   43.6877   36.5460   45.1107 H   0  0  0  0  0  0  0  0  0  0  0  0
   44.7316   36.4866   42.8173 H   0  0  0  0  0  0  0  0  0  0  0  0
   48.3764   35.7278   42.7278 H   0  0  0  0  0  0  0  0  0  0  0  0
   45.0874   33.5972   40.9816 H   0  0  0  0  0  0  0  0  0  0  0  0
   45.5218   32.8976   38.2884 H   0  0  0  0  0  0  0  0  0  0  0  0
   47.4958   33.2501   36.5872 H   0  0  0  0  0  0  0  0  0  0  0  0
   49.5696   35.5567   40.5443 H   0  0  0  0  0  0  0  0  0  0  0  0
   44.7103   33.6976   47.9326 H   0  0  0  0  0  0  0  0  0  0  0  0
   47.6102   32.0559   45.2238 H   0  0  0  0  0  0  0  0  0  0  0  0
   49.0195   29.9788   46.2417 H   0  0  0  0  0  0  0  0  0  0  0  0
   49.0563   28.6860   48.5269 H   0  0  0  0  0  0  0  0  0  0  0  0
   45.6090   31.2851   50.5656 H   0  0  0  0  0  0  0  0  0  0  0  0
  1  6  2  0
  2  1  1  0
  3  2  2  0
  3  4  1  0
  4  5  2  0
  5  6  1  0
  5 17  1  0
  7  8  2  0
  8  3  1  0
  9  8  1  0
 10  9  2  0
 11 10  1  0
 12 13  2  0
 12 11  1  0
 13 14  1  0
 14 10  1  0
 14 15  2  0
 15  7  1  0
 16 24  2  0
 17 16  1  0
 18 17  2  0
 18 19  1  0
 19 23  2  0
 20 19  1  0
 20 21  1  0
 21 22  2  0
 23 24  1  0
 23 22  1  0
 24 25  1  0
  1 26  1  0
  2 27  1  0
  7 28  1  0
  9 29  1  0
 11 30  1  0
 12 31  1  0
 15 32  1  0
 16 33  1  0
 18 34  1  0
 20 35  1  0
 21 36  1  0
 25 37  1  0
M  ISO  8  26  14  27  14  28  14  29  14  30   9  31  14  32  14  33  14
M  ISO  4  34  14  35   9  36  14  37   3
M  END
>  <minimizedAffinity>  (1) 
-7.73424387

>  <minimizedRMSD>  (1) 
0.24418886

$$$$
