
     RDKit          3D

 38 42  0  0  0  0  0  0  0  0999 V2000
   44.4780   35.7570   44.8580 C   0  0  0  0  0  0  0  0  0  0  0  0
   45.0670   35.7490   43.5840 C   0  0  0  0  0  0  0  0  0  0  0  0
   46.0120   34.7970   43.2590 C   0  0  0  0  0  0  0  0  0  0  0  0
   46.3450   33.8790   44.2110 N   0  0  0  0  0  0  0  0  0  0  0  0
   45.7620   33.9030   45.4430 C   0  0  0  0  0  0  0  0  0  0  0  0
   44.8470   34.8350   45.7390 N   0  0  0  0  0  0  0  0  0  0  0  0
   47.9220   35.2700   41.8580 C   0  0  0  0  0  0  0  0  0  0  0  0
   46.6820   34.7000   41.9740 C   0  0  0  0  0  0  0  0  0  0  0  0
   46.1440   34.0710   40.8740 C   0  0  0  0  0  0  0  0  0  0  0  0
   46.8010   33.9910   39.6580 C   0  0  0  0  0  0  0  0  0  0  0  0
   46.4630   33.4340   38.4770 N   0  0  0  0  0  0  0  0  0  0  0  0
   47.4990   33.6540   37.6080 C   0  0  0  0  0  0  0  0  0  0  0  0
   48.4500   34.3440   38.2810 N   0  0  0  0  0  0  0  0  0  0  0  0
   48.0600   34.5700   39.5400 C   0  0  0  0  0  0  0  0  0  0  0  0
   48.5960   35.1960   40.6360 C   0  0  0  0  0  0  0  0  0  0  0  0
   45.5400   32.8870   47.6680 C   0  0  0  0  0  0  0  0  0  0  0  0
   46.1480   32.8990   46.4370 C   0  0  0  0  0  0  0  0  0  0  0  0
   47.1270   31.9640   46.1280 C   0  0  0  0  0  0  0  0  0  0  0  0
   47.4790   31.0260   47.0740 C   0  0  0  0  0  0  0  0  0  0  0  0
   48.4030   30.0620   46.9260 N   0  0  0  0  0  0  0  0  0  0  0  0
   48.3980   29.3910   48.1160 C   0  0  0  0  0  0  0  0  0  0  0  0
   47.4810   29.9560   48.9460 N   0  0  0  0  0  0  0  0  0  0  0  0
   46.8930   30.9830   48.3160 C   0  0  0  0  0  0  0  0  0  0  0  0
   45.9270   31.9310   48.5750 C   0  0  0  0  0  0  0  0  0  0  0  0
   45.3120   31.8990   49.8560 N   0  0  0  0  0  0  0  0  0  0  0  0
   43.7243   36.5136   45.1217 H   0  0  0  0  0  0  0  0  0  0  0  0
   44.7740   36.5052   42.8409 H   0  0  0  0  0  0  0  0  0  0  0  0
   48.3822   35.7803   42.7170 H   0  0  0  0  0  0  0  0  0  0  0  0
   45.1486   33.6119   40.9652 H   0  0  0  0  0  0  0  0  0  0  0  0
   45.5868   32.9349   38.2670 H   0  0  0  0  0  0  0  0  0  0  0  0
   47.5490   33.3301   36.5580 H   0  0  0  0  0  0  0  0  0  0  0  0
   49.5915   35.6561   40.5503 H   0  0  0  0  0  0  0  0  0  0  0  0
   44.7633   33.6237   47.9212 H   0  0  0  0  0  0  0  0  0  0  0  0
   47.6146   31.9720   45.1420 H   0  0  0  0  0  0  0  0  0  0  0  0
   48.9860   29.8711   46.0986 H   0  0  0  0  0  0  0  0  0  0  0  0
   49.0354   28.5294   48.3637 H   0  0  0  0  0  0  0  0  0  0  0  0
   45.5936   31.1869   50.5448 H   0  0  0  0  0  0  0  0  0  0  0  0
   44.5847   32.5879   50.0955 H   0  0  0  0  0  0  0  0  0  0  0  0
  1  6  2  0
  2  1  1  0
  3  2  2  0
  3  4  1  0
  4  5  2  0
  5  6  1  0
  5 17  1  0
  7  8  2  0
  8  3  1  0
  9  8  1  0
 10  9  2  0
 11 10  1  0
 12 13  2  0
 12 11  1  0
 13 14  1  0
 14 10  1  0
 14 15  2  0
 15  7  1  0
 16 24  2  0
 17 16  1  0
 18 17  2  0
 18 19  1  0
 19 23  2  0
 20 19  1  0
 20 21  1  0
 21 22  2  0
 23 24  1  0
 23 22  1  0
 24 25  1  0
  1 26  1  0
  2 27  1  0
  7 28  1  0
  9 29  1  0
 11 30  1  0
 12 31  1  0
 15 32  1  0
 16 33  1  0
 18 34  1  0
 20 35  1  0
 21 36  1  0
 25 37  1  0
 25 38  1  0
M  ISO  8  26  14  27  14  28  14  29  14  30   9  31  14  32  14  33  14
M  ISO  3  34  14  35   9  36  14
M  END
>  <minimizedAffinity>  (1) 
-7.71609211

>  <minimizedRMSD>  (1) 
0.320183277

$$$$
