
     RDKit          3D

 42 46  0  0  0  0  0  0  0  0999 V2000
   44.7220   35.6360   44.3280 C   0  0  0  0  0  0  0  0  0  0  0  0
   45.2820   35.6420   43.0340 C   0  0  0  0  0  0  0  0  0  0  0  0
   46.2100   34.6770   42.6770 C   0  0  0  0  0  0  0  0  0  0  0  0
   46.5530   33.7420   43.6080 N   0  0  0  0  0  0  0  0  0  0  0  0
   46.0020   33.7550   44.8440 C   0  0  0  0  0  0  0  0  0  0  0  0
   45.0970   34.6970   45.1860 N   0  0  0  0  0  0  0  0  0  0  0  0
   48.0830   35.1990   41.2340 C   0  0  0  0  0  0  0  0  0  0  0  0
   46.8470   34.5890   41.3770 C   0  0  0  0  0  0  0  0  0  0  0  0
   46.3000   33.9490   40.3040 C   0  0  0  0  0  0  0  0  0  0  0  0
   46.9180   33.8720   39.0650 C   0  0  0  0  0  0  0  0  0  0  0  0
   46.5840   33.3140   37.8910 N   0  0  0  0  0  0  0  0  0  0  0  0
   47.5920   33.5590   37.0030 C   0  0  0  0  0  0  0  0  0  0  0  0
   48.5460   34.2760   37.6500 N   0  0  0  0  0  0  0  0  0  0  0  0
   48.1700   34.4860   38.9080 C   0  0  0  0  0  0  0  0  0  0  0  0
   48.7220   35.1310   39.9870 C   0  0  0  0  0  0  0  0  0  0  0  0
   45.9630   32.8320   47.1230 C   0  0  0  0  0  0  0  0  0  0  0  0
   46.3890   32.7410   45.8180 C   0  0  0  0  0  0  0  0  0  0  0  0
   47.2020   31.6830   45.4200 C   0  0  0  0  0  0  0  0  0  0  0  0
   47.5750   30.7280   46.3460 C   0  0  0  0  0  0  0  0  0  0  0  0
   48.3630   29.6620   46.1110 N   0  0  0  0  0  0  0  0  0  0  0  0
   48.4460   29.0390   47.3260 C   0  0  0  0  0  0  0  0  0  0  0  0
   47.7200   29.7230   48.2610 N   0  0  0  0  0  0  0  0  0  0  0  0
   47.1640   30.7880   47.6660 C   0  0  0  0  0  0  0  0  0  0  0  0
   46.3610   31.8500   48.0200 C   0  0  0  0  0  0  0  0  0  0  0  0
   45.8790   31.9580   49.4000 C   0  0  0  0  0  0  0  0  0  0  0  0
   44.7140   30.9720   49.5570 C   0  0  0  0  0  0  0  0  0  0  0  0
   43.9854   36.3985   44.6213 H   0  0  0  0  0  0  0  0  0  0  0  0
   44.9823   36.4124   42.3083 H   0  0  0  0  0  0  0  0  0  0  0  0
   48.5523   35.7244   42.0788 H   0  0  0  0  0  0  0  0  0  0  0  0
   45.3180   33.4692   40.4278 H   0  0  0  0  0  0  0  0  0  0  0  0
   45.7182   32.7919   37.6941 H   0  0  0  0  0  0  0  0  0  0  0  0
   47.6250   33.2339   35.9526 H   0  0  0  0  0  0  0  0  0  0  0  0
   49.7036   35.6133   39.8691 H   0  0  0  0  0  0  0  0  0  0  0  0
   45.3214   33.6642   47.4484 H   0  0  0  0  0  0  0  0  0  0  0  0
   47.5443   31.6082   44.3773 H   0  0  0  0  0  0  0  0  0  0  0  0
   48.8016   29.3808   45.2225 H   0  0  0  0  0  0  0  0  0  0  0  0
   49.0157   28.1188   47.5227 H   0  0  0  0  0  0  0  0  0  0  0  0
   46.6863   31.7010   50.1015 H   0  0  0  0  0  0  0  0  0  0  0  0
   45.5509   32.9851   49.6178 H   0  0  0  0  0  0  0  0  0  0  0  0
   44.5166   30.8049   50.6262 H   0  0  0  0  0  0  0  0  0  0  0  0
   43.8149   31.3876   49.0787 H   0  0  0  0  0  0  0  0  0  0  0  0
   44.9753   30.0165   49.0787 H   0  0  0  0  0  0  0  0  0  0  0  0
  1  6  2  0
  2  1  1  0
  3  2  2  0
  3  4  1  0
  4  5  2  0
  5  6  1  0
  5 17  1  0
  7  8  2  0
  8  3  1  0
  9  8  1  0
 10  9  2  0
 11 10  1  0
 12 13  2  0
 12 11  1  0
 13 14  1  0
 14 10  1  0
 14 15  2  0
 15  7  1  0
 16 24  2  0
 17 16  1  0
 18 17  2  0
 18 19  1  0
 19 23  2  0
 20 19  1  0
 20 21  1  0
 21 22  2  0
 23 24  1  0
 23 22  1  0
 24 25  1  0
 25 26  1  0
  1 27  1  0
  2 28  1  0
  7 29  1  0
  9 30  1  0
 11 31  1  0
 12 32  1  0
 15 33  1  0
 16 34  1  0
 18 35  1  0
 20 36  1  0
 21 37  1  0
 25 38  1  0
 25 39  1  0
 26 40  1  0
 26 41  1  0
 26 42  1  0
M  ISO  8  27  14  28  14  29  14  30  14  31   9  32  14  33  14  34  14
M  ISO  8  35  14  36   9  37  14  38   8  39   8  40   8  41   8  42   8
M  END
>  <minimizedAffinity>  (1) 
-6.76219988

>  <minimizedRMSD>  (1) 
0.893770576

$$$$
