
     RDKit          3D

 30 31  0  0  1  0  0  0  0  0999 V2000
   46.0410   34.6940   43.5820 C   0  0  0  0  0  0  0  0  0  0  0  0
   46.5700   33.5220   44.1220 C   0  0  0  0  0  0  0  0  0  0  0  0
   46.1550   33.1430   45.4170 C   0  0  0  0  0  0  0  0  0  0  0  0
   45.2580   33.9540   46.0590 N   0  0  0  0  0  0  0  0  0  0  0  0
   44.7750   35.0810   45.4890 C   0  0  0  0  0  0  0  0  0  0  0  0
   45.1630   35.4520   44.2570 N   0  0  0  0  0  0  0  0  0  0  0  0
   46.6540   32.1450   47.5530 C   0  0  1  0  0  0  0  0  0  0  0  0
   46.6680   31.9110   46.0660 C   0  0  1  0  0  0  0  0  0  0  0  0
   45.7890   30.8850   45.7960 O   0  0  0  0  0  0  0  0  0  0  0  0
   46.1150   29.6730   46.3380 C   0  0  0  0  0  0  0  0  0  0  0  0
   46.4460   29.6530   47.7840 C   0  0  2  0  0  0  0  0  0  0  0  0
   47.0500   30.9130   48.3220 C   0  0  2  0  0  0  0  0  0  0  0  0
   47.4850   33.2020   47.8660 O   0  0  0  0  0  0  0  0  0  0  0  0
   47.3850   28.6380   47.9850 O   0  0  0  0  0  0  0  0  0  0  0  0
   46.6350   31.0930   49.6410 O   0  0  0  0  0  0  0  0  0  0  0  0
   46.4990   35.0760   42.2040 C   0  0  0  0  0  0  0  0  0  0  0  0
   47.2889   32.9114   43.5560 H   0  0  0  0  0  0  0  0  0  0  0  0
   44.0548   35.7026   46.0412 H   0  0  0  0  0  0  0  0  0  0  0  0
   45.6231   32.3905   47.8480 H   0  0  0  0  0  0  0  0  0  0  0  0
   47.6779   31.6659   45.7055 H   0  0  0  0  0  0  0  0  0  0  0  0
   45.2598   28.9986   46.1832 H   0  0  0  0  0  0  0  0  0  0  0  0
   47.0406   29.3694   45.8271 H   0  0  0  0  0  0  0  0  0  0  0  0
   45.4918   29.5090   48.3119 H   0  0  0  0  0  0  0  0  0  0  0  0
   48.1401   30.7932   48.2364 H   0  0  0  0  0  0  0  0  0  0  0  0
   47.5528   33.2883   48.8499 H   0  0  0  0  0  0  0  0  0  0  0  0
   47.5156   28.4968   48.9561 H   0  0  0  0  0  0  0  0  0  0  0  0
   47.3468   30.7843   50.2559 H   0  0  0  0  0  0  0  0  0  0  0  0
   47.3418   35.7789   42.2794 H   0  0  0  0  0  0  0  0  0  0  0  0
   46.8207   34.1747   41.6615 H   0  0  0  0  0  0  0  0  0  0  0  0
   45.6701   35.5542   41.6615 H   0  0  0  0  0  0  0  0  0  0  0  0
  1  2  2  0
  1  6  1  0
  2  3  1  0
  3  4  2  0
  5  4  1  0
  6  5  2  0
  7 13  1  0
  7 12  1  0
  8  3  1  0
  8  7  1  0
  9  8  1  0
  9 10  1  0
 10 11  1  0
 11 14  1  0
 11 12  1  0
 12 15  1  0
 16  1  1  0
  2 17  1  0
  5 18  1  0
  7 19  1  1
  8 20  1  6
 10 21  1  0
 10 22  1  0
 11 23  1  1
 12 24  1  1
 13 25  1  0
 14 26  1  0
 15 27  1  0
 16 28  1  0
 16 29  1  0
 16 30  1  0
M  ISO  8  17  14  18  14  19  13  20  13  21  13  22  13  23  13  24  13
M  ISO  6  25   3  26   3  27   3  28   8  29   8  30   8
M  END
>  <minimizedAffinity>  (1) 
-5.64241695

>  <minimizedRMSD>  (1) 
3.38725424

$$$$
