
     RDKit          3D

 16 16  0  0  0  0  0  0  0  0999 V2000
   45.6000   35.0070   43.3520 C   0  0  0  0  0  0  0  0  0  0  0  0
   46.5580   35.4530   42.4400 C   0  0  0  0  0  0  0  0  0  0  0  0
   47.8130   34.8100   42.4420 C   0  0  0  0  0  0  0  0  0  0  0  0
   48.0120   33.8070   43.3220 N   0  0  0  0  0  0  0  0  0  0  0  0
   47.0450   33.4070   44.1910 C   0  0  0  0  0  0  0  0  0  0  0  0
   45.8340   34.0110   44.2070 N   0  0  0  0  0  0  0  0  0  0  0  0
   44.2770   35.7030   43.3310 C   0  0  0  0  0  0  0  0  0  0  0  0
   48.8470   35.2710   41.4780 C   0  0  0  0  0  0  0  0  0  0  0  0
   49.2150   36.5640   41.7480 F   0  0  0  0  0  0  0  0  0  0  0  0
   48.3980   35.1640   40.1600 F   0  0  0  0  0  0  0  0  0  0  0  0
   49.9410   34.4100   41.6030 F   0  0  0  0  0  0  0  0  0  0  0  0
   46.3416   36.2771   41.7442 H   0  0  0  0  0  0  0  0  0  0  0  0
   47.2499   32.5823   44.8895 H   0  0  0  0  0  0  0  0  0  0  0  0
   43.9396   35.8805   44.3628 H   0  0  0  0  0  0  0  0  0  0  0  0
   44.3771   36.6652   42.8074 H   0  0  0  0  0  0  0  0  0  0  0  0
   43.5408   35.0754   42.8074 H   0  0  0  0  0  0  0  0  0  0  0  0
  1  6  2  0
  2  3  2  0
  2  1  1  0
  3  4  1  0
  4  5  2  0
  5  6  1  0
  7  1  1  0
  8 11  1  0
  8  9  1  0
  8  3  1  0
 10  8  1  0
  2 12  1  0
  5 13  1  0
  7 14  1  0
  7 15  1  0
  7 16  1  0
M  ISO  5  12  14  13  14  14   8  15   8  16   8
M  END
>  <minimizedAffinity>  (1) 
-4.09121895

>  <minimizedRMSD>  (1) 
2.92504072

$$$$
