
     RDKit          3D

 14 14  0  0  0  0  0  0  0  0999 V2000
   45.4140   35.1880   43.9690 C   0  0  0  0  0  0  0  0  0  0  0  0
   46.3970   34.4150   43.3270 C   0  0  0  0  0  0  0  0  0  0  0  0
   46.9110   33.3220   44.0380 C   0  0  0  0  0  0  0  0  0  0  0  0
   46.4480   33.0660   45.2810 N   0  0  0  0  0  0  0  0  0  0  0  0
   45.4960   33.8380   45.8630 C   0  0  0  0  0  0  0  0  0  0  0  0
   44.9830   34.9020   45.1950 N   0  0  0  0  0  0  0  0  0  0  0  0
   44.8530   36.3620   43.2200 C   0  0  0  0  0  0  0  0  0  0  0  0
   48.1610   32.3380   43.2260 S   0  0  0  0  0  0  0  0  0  0  0  0
   46.7469   34.6570   42.3126 H   0  0  0  0  0  0  0  0  0  0  0  0
   45.1400   33.6013   46.8765 H   0  0  0  0  0  0  0  0  0  0  0  0
   44.4929   37.1156   43.9359 H   0  0  0  0  0  0  0  0  0  0  0  0
   45.6379   36.8025   42.5877 H   0  0  0  0  0  0  0  0  0  0  0  0
   44.0172   36.0281   42.5877 H   0  0  0  0  0  0  0  0  0  0  0  0
   48.9420   31.7232   44.1688 H   0  0  0  0  0  0  0  0  0  0  0  0
  1  6  2  0
  2  1  1  0
  2  3  2  0
  3  4  1  0
  4  5  2  0
  6  5  1  0
  7  1  1  0
  8  3  1  0
  2  9  1  0
  5 10  1  0
  7 11  1  0
  7 12  1  0
  7 13  1  0
  8 14  1  0
M  ISO  6   9  14  10  14  11   8  12   8  13   8  14  11
M  END
>  <minimizedAffinity>  (1) 
-2.75447774

>  <minimizedRMSD>  (1) 
0.28240481

$$$$
