
     RDKit          3D

 38 40  0  0  1  0  0  0  0  0999 V2000
   43.7440   35.1170   41.2160 C   0  0  0  0  0  0  0  0  0  0  0  0
   44.8240   34.3320   40.7730 C   0  0  0  0  0  0  0  0  0  0  0  0
   46.0380   34.3980   41.4680 C   0  0  0  0  0  0  0  0  0  0  0  0
   46.1190   35.2100   42.5330 N   0  0  0  0  0  0  0  0  0  0  0  0
   45.0550   35.9600   42.9400 C   0  0  0  0  0  0  0  0  0  0  0  0
   43.8940   35.9100   42.2910 N   0  0  0  0  0  0  0  0  0  0  0  0
   47.9740   34.2120   39.9140 C   0  0  2  0  0  0  0  0  0  0  0  0
   47.1260   33.5670   40.9720 C   0  0  2  0  0  0  0  0  0  0  0  0
   46.7100   32.4040   40.2930 O   0  0  0  0  0  0  0  0  0  0  0  0
   47.8780   31.8890   39.7820 C   0  0  0  0  0  0  0  0  0  0  0  0
   48.8620   33.0020   39.5710 C   0  0  1  0  0  0  0  0  0  0  0  0
   48.6820   35.2990   40.3600 O   0  0  0  0  0  0  0  0  0  0  0  0
   49.3140   33.1260   38.2740 O   0  0  0  0  0  0  0  0  0  0  0  0
   42.4510   35.0530   40.4620 C   0  0  0  0  0  0  0  0  0  0  0  0
   41.3450   35.3880   41.3340 N   0  0  0  0  0  0  0  0  0  0  0  0
   40.3990   36.2780   40.7430 C   0  0  0  0  0  0  0  0  0  0  0  0
   39.5850   35.3510   39.8680 C   0  0  0  0  0  0  0  0  0  0  0  0
   39.7990   33.9630   40.4410 C   0  0  0  0  0  0  0  0  0  0  0  0
   40.5750   34.2510   41.7250 C   0  0  0  0  0  0  0  0  0  0  0  0
   44.7168   33.6774   39.8955 H   0  0  0  0  0  0  0  0  0  0  0  0
   45.1578   36.6156   43.8172 H   0  0  0  0  0  0  0  0  0  0  0  0
   47.4224   34.6539   39.0711 H   0  0  0  0  0  0  0  0  0  0  0  0
   47.6583   33.3718   41.9146 H   0  0  0  0  0  0  0  0  0  0  0  0
   48.2969   31.1576   40.4888 H   0  0  0  0  0  0  0  0  0  0  0  0
   47.6723   31.3929   38.8220 H   0  0  0  0  0  0  0  0  0  0  0  0
   49.7823   32.8656   40.1579 H   0  0  0  0  0  0  0  0  0  0  0  0
   48.6867   35.3062   41.3500 H   0  0  0  0  0  0  0  0  0  0  0  0
   50.2687   33.3879   38.2809 H   0  0  0  0  0  0  0  0  0  0  0  0
   42.4828   35.7666   39.6254 H   0  0  0  0  0  0  0  0  0  0  0  0
   42.3093   34.0313   40.0799 H   0  0  0  0  0  0  0  0  0  0  0  0
   39.7706   36.7567   41.5085 H   0  0  0  0  0  0  0  0  0  0  0  0
   40.8622   37.1094   40.1915 H   0  0  0  0  0  0  0  0  0  0  0  0
   39.9379   35.3960   38.8271 H   0  0  0  0  0  0  0  0  0  0  0  0
   38.5208   35.6290   39.8573 H   0  0  0  0  0  0  0  0  0  0  0  0
   38.8397   33.4705   40.6583 H   0  0  0  0  0  0  0  0  0  0  0  0
   40.3238   33.2817   39.7551 H   0  0  0  0  0  0  0  0  0  0  0  0
   41.2194   33.4046   42.0051 H   0  0  0  0  0  0  0  0  0  0  0  0
   39.9409   34.4170   42.6084 H   0  0  0  0  0  0  0  0  0  0  0  0
  1  6  1  0
  2  1  2  0
  2  3  1  0
  3  4  2  0
  4  5  1  0
  6  5  2  0
  7 12  1  0
  7  8  1  0
  8  3  1  0
  9  8  1  0
 10  9  1  0
 11 10  1  0
 11  7  1  0
 13 11  1  0
 14  1  1  0
 14 15  1  0
 15 19  1  0
 16 15  1  0
 17 18  1  0
 17 16  1  0
 18 19  1  0
  2 20  1  0
  5 21  1  0
  7 22  1  6
  8 23  1  1
 10 24  1  0
 10 25  1  0
 11 26  1  1
 12 27  1  0
 13 28  1  0
 14 29  1  0
 14 30  1  0
 16 31  1  0
 16 32  1  0
 17 33  1  0
 17 34  1  0
 18 35  1  0
 18 36  1  0
 19 37  1  0
 19 38  1  0
M  ISO  8  20  14  21  14  22  13  23  13  24  13  25  13  26  13  27   3
M  ISO  8  28   3  29   8  30   8  31  13  32  13  33  13  34  13  35  13
M  ISO  3  36  13  37  13  38  13
M  END
>  <minimizedAffinity>  (1) 
-5.2925272

>  <minimizedRMSD>  (1) 
3.21898055

$$$$
