
     RDKit          3D

 28 29  0  0  1  0  0  0  0  0999 V2000
   45.3420   35.1660   43.7370 C   0  0  0  0  0  0  0  0  0  0  0  0
   46.4450   34.4660   43.2210 C   0  0  0  0  0  0  0  0  0  0  0  0
   47.0670   33.5140   44.0400 C   0  0  0  0  0  0  0  0  0  0  0  0
   46.5810   33.3180   45.2760 N   0  0  0  0  0  0  0  0  0  0  0  0
   45.5120   34.0110   45.7440 C   0  0  0  0  0  0  0  0  0  0  0  0
   44.8990   34.9350   44.9670 N   0  0  0  0  0  0  0  0  0  0  0  0
   49.0870   33.6400   42.5900 C   0  0  2  0  0  0  0  0  0  0  0  0
   48.2020   32.8080   43.4720 C   0  0  2  0  0  0  0  0  0  0  0  0
   47.8610   31.7710   42.5800 O   0  0  0  0  0  0  0  0  0  0  0  0
   49.0790   31.3640   42.0670 C   0  0  0  0  0  0  0  0  0  0  0  0
   50.0260   32.5240   42.0930 C   0  0  1  0  0  0  0  0  0  0  0  0
   49.7390   34.6500   43.2510 O   0  0  0  0  0  0  0  0  0  0  0  0
   50.5340   32.8800   40.8560 O   0  0  0  0  0  0  0  0  0  0  0  0
   44.6810   36.1960   42.8560 C   0  0  0  0  0  0  0  0  0  0  0  0
   44.9840   37.4990   43.4450 N   0  0  0  0  0  0  0  0  0  0  0  0
   46.8106   34.6598   42.2018 H   0  0  0  0  0  0  0  0  0  0  0  0
   45.1409   33.8206   46.7619 H   0  0  0  0  0  0  0  0  0  0  0  0
   48.5670   34.2096   41.8057 H   0  0  0  0  0  0  0  0  0  0  0  0
   48.6869   32.4674   44.3988 H   0  0  0  0  0  0  0  0  0  0  0  0
   48.9468   31.0179   41.0313 H   0  0  0  0  0  0  0  0  0  0  0  0
   49.4823   30.5388   42.6723 H   0  0  0  0  0  0  0  0  0  0  0  0
   50.9214   32.3121   42.6957 H   0  0  0  0  0  0  0  0  0  0  0  0
   49.6519   34.5151   44.2279 H   0  0  0  0  0  0  0  0  0  0  0  0
   51.3384   33.4437   40.9794 H   0  0  0  0  0  0  0  0  0  0  0  0
   43.5934   36.0335   42.8310 H   0  0  0  0  0  0  0  0  0  0  0  0
   45.0491   36.1309   41.8215 H   0  0  0  0  0  0  0  0  0  0  0  0
   44.9665   37.4239   44.4721 H   0  0  0  0  0  0  0  0  0  0  0  0
   45.9186   37.8051   43.1390 H   0  0  0  0  0  0  0  0  0  0  0  0
  1  6  2  0
  2  1  1  0
  2  3  2  0
  3  4  1  0
  4  5  2  0
  6  5  1  0
  7 12  1  0
  7  8  1  0
  8  3  1  0
  9  8  1  0
 10 11  1  0
 10  9  1  0
 11  7  1  0
 13 11  1  0
 14 15  1  0
 14  1  1  0
  2 16  1  0
  5 17  1  0
  7 18  1  6
  8 19  1  1
 10 20  1  0
 10 21  1  0
 11 22  1  1
 12 23  1  0
 13 24  1  0
 14 25  1  0
 14 26  1  0
 15 27  1  0
 15 28  1  0
M  ISO  8  16  14  17  14  18  13  19  13  20  13  21  13  22  13  23   3
M  ISO  5  24   3  25   8  26   8  27   5  28   5
M  END
>  <minimizedAffinity>  (1) 
-4.71876574

>  <minimizedRMSD>  (1) 
0.219335556

$$$$
