
     RDKit          3D

 39 41  0  0  1  0  0  0  0  0999 V2000
   48.7320   30.9720   43.2270 C   0  0  0  0  0  0  0  0  0  0  0  0
   47.6170   31.0150   44.0810 C   0  0  0  0  0  0  0  0  0  0  0  0
   47.6260   30.2130   45.2230 C   0  0  0  0  0  0  0  0  0  0  0  0
   48.7000   29.4390   45.4500 N   0  0  0  0  0  0  0  0  0  0  0  0
   49.7630   29.4260   44.5980 C   0  0  0  0  0  0  0  0  0  0  0  0
   49.7810   30.1820   43.5000 N   0  0  0  0  0  0  0  0  0  0  0  0
   46.7030   29.8850   47.5110 C   0  0  2  0  0  0  0  0  0  0  0  0
   46.4580   30.2810   46.0830 C   0  0  2  0  0  0  0  0  0  0  0  0
   45.4250   29.3850   45.7420 O   0  0  0  0  0  0  0  0  0  0  0  0
   44.5250   29.5270   46.7780 C   0  0  0  0  0  0  0  0  0  0  0  0
   45.2550   29.9530   48.0220 C   0  0  1  0  0  0  0  0  0  0  0  0
   47.5500   30.7350   48.1790 O   0  0  0  0  0  0  0  0  0  0  0  0
   45.1100   29.0900   49.0930 O   0  0  0  0  0  0  0  0  0  0  0  0
   48.7050   31.8400   41.9880 C   0  0  0  0  0  0  0  0  0  0  0  0
   48.7050   33.2510   42.4740 C   0  0  0  0  0  0  0  0  0  0  0  0
   50.0660   33.8920   42.4600 C   0  0  0  0  0  0  0  0  0  0  0  0
   49.6850   35.3670   42.3240 C   0  0  0  0  0  0  0  0  0  0  0  0
   48.6290   35.3110   41.2380 C   0  0  0  0  0  0  0  0  0  0  0  0
   47.8090   34.1140   41.6280 C   0  0  0  0  0  0  0  0  0  0  0  0
   46.7585   31.6646   43.8550 H   0  0  0  0  0  0  0  0  0  0  0  0
   50.6240   28.7786   44.8205 H   0  0  0  0  0  0  0  0  0  0  0  0
   47.2119   28.9195   47.6484 H   0  0  0  0  0  0  0  0  0  0  0  0
   46.1953   31.3412   45.9525 H   0  0  0  0  0  0  0  0  0  0  0  0
   43.7776   30.2891   46.5124 H   0  0  0  0  0  0  0  0  0  0  0  0
   44.0209   28.5664   46.9597 H   0  0  0  0  0  0  0  0  0  0  0  0
   44.8983   30.9175   48.4125 H   0  0  0  0  0  0  0  0  0  0  0  0
   47.4331   30.6177   49.1550 H   0  0  0  0  0  0  0  0  0  0  0  0
   45.1952   29.5969   49.9391 H   0  0  0  0  0  0  0  0  0  0  0  0
   47.7976   31.6384   41.3998 H   0  0  0  0  0  0  0  0  0  0  0  0
   49.5678   31.6385   41.3361 H   0  0  0  0  0  0  0  0  0  0  0  0
   48.3474   33.1883   43.5123 H   0  0  0  0  0  0  0  0  0  0  0  0
   50.6140   33.6996   43.3942 H   0  0  0  0  0  0  0  0  0  0  0  0
   50.7372   33.5199   41.6720 H   0  0  0  0  0  0  0  0  0  0  0  0
   49.2734   35.7634   43.2639 H   0  0  0  0  0  0  0  0  0  0  0  0
   50.5325   36.0280   42.0900 H   0  0  0  0  0  0  0  0  0  0  0  0
   49.0869   35.1713   40.2477 H   0  0  0  0  0  0  0  0  0  0  0  0
   48.0378   36.2353   41.1591 H   0  0  0  0  0  0  0  0  0  0  0  0
   46.9261   34.4276   42.2044 H   0  0  0  0  0  0  0  0  0  0  0  0
   47.4465   33.5702   40.7432 H   0  0  0  0  0  0  0  0  0  0  0  0
  1  6  1  0
  1  2  2  0
  2  3  1  0
  3  4  2  0
  3  8  1  0
  5  4  1  0
  6  5  2  0
  7 11  1  0
  7 12  1  0
  8  7  1  0
  9  8  1  0
  9 10  1  0
 10 11  1  0
 11 13  1  0
 14 15  1  0
 14  1  1  0
 16 15  1  0
 17 16  1  0
 18 19  1  0
 18 17  1  0
 19 15  1  0
  2 20  1  0
  5 21  1  0
  7 22  1  6
  8 23  1  1
 10 24  1  0
 10 25  1  0
 11 26  1  1
 12 27  1  0
 13 28  1  0
 14 29  1  0
 14 30  1  0
 15 31  1  0
 16 32  1  0
 16 33  1  0
 17 34  1  0
 17 35  1  0
 18 36  1  0
 18 37  1  0
 19 38  1  0
 19 39  1  0
M  ISO  8  20  14  21  14  22  13  23  13  24  13  25  13  26  13  27   3
M  ISO  8  28   3  29   8  30   8  31  13  32  13  33  13  34  13  35  13
M  ISO  4  36  13  37  13  38  13  39  13
M  END
>  <minimizedAffinity>  (1) 
-4.48944426

>  <minimizedRMSD>  (1) 
6.63577938

$$$$
