
     RDKit          3D

 33 35  0  0  1  0  0  0  0  0999 V2000
   45.4310   35.3130   43.9120 C   0  0  0  0  0  0  0  0  0  0  0  0
   46.4840   34.5940   43.3260 C   0  0  0  0  0  0  0  0  0  0  0  0
   47.0100   33.5030   44.0220 C   0  0  0  0  0  0  0  0  0  0  0  0
   46.4760   33.2000   45.2180 N   0  0  0  0  0  0  0  0  0  0  0  0
   45.4550   33.9210   45.7510 C   0  0  0  0  0  0  0  0  0  0  0  0
   44.9410   34.9640   45.1040 N   0  0  0  0  0  0  0  0  0  0  0  0
   49.0050   33.6240   42.5450 C   0  0  2  0  0  0  0  0  0  0  0  0
   48.0980   32.7760   43.3950 C   0  0  2  0  0  0  0  0  0  0  0  0
   47.6940   31.8190   42.4390 O   0  0  0  0  0  0  0  0  0  0  0  0
   48.8760   31.3920   41.8760 C   0  0  0  0  0  0  0  0  0  0  0  0
   49.8870   32.5060   41.9660 C   0  0  1  0  0  0  0  0  0  0  0  0
   49.7180   34.5620   43.2480 O   0  0  0  0  0  0  0  0  0  0  0  0
   50.3870   32.8980   40.7400 O   0  0  0  0  0  0  0  0  0  0  0  0
   44.8820   36.5010   43.1420 C   0  0  0  0  0  0  0  0  0  0  0  0
   45.0550   37.7570   43.9150 C   0  0  0  0  0  0  0  0  0  0  0  0
   44.9580   38.0650   45.2410 C   0  0  0  0  0  0  0  0  0  0  0  0
   45.2250   39.3750   45.3380 N   0  0  0  0  0  0  0  0  0  0  0  0
   45.4850   39.9070   44.1400 C   0  0  0  0  0  0  0  0  0  0  0  0
   45.3800   38.8970   43.2400 N   0  0  0  0  0  0  0  0  0  0  0  0
   46.8852   34.8823   42.3432 H   0  0  0  0  0  0  0  0  0  0  0  0
   45.0470   33.6381   46.7326 H   0  0  0  0  0  0  0  0  0  0  0  0
   48.4904   34.2607   41.8103 H   0  0  0  0  0  0  0  0  0  0  0  0
   48.5762   32.3492   44.2890 H   0  0  0  0  0  0  0  0  0  0  0  0
   48.7091   31.1285   40.8211 H   0  0  0  0  0  0  0  0  0  0  0  0
   49.2470   30.5063   42.4125 H   0  0  0  0  0  0  0  0  0  0  0  0
   50.7811   32.2304   42.5444 H   0  0  0  0  0  0  0  0  0  0  0  0
   49.6001   34.4069   44.2186 H   0  0  0  0  0  0  0  0  0  0  0  0
   51.1587   33.5030   40.8765 H   0  0  0  0  0  0  0  0  0  0  0  0
   45.4181   36.5896   42.1856 H   0  0  0  0  0  0  0  0  0  0  0  0
   43.8080   36.3408   42.9660 H   0  0  0  0  0  0  0  0  0  0  0  0
   44.7108   37.3776   46.0634 H   0  0  0  0  0  0  0  0  0  0  0  0
   45.2292   39.9035   46.2221 H   0  0  0  0  0  0  0  0  0  0  0  0
   45.7348   40.9566   43.9258 H   0  0  0  0  0  0  0  0  0  0  0  0
  1  6  1  0
  2  1  2  0
  2  3  1  0
  3  4  2  0
  4  5  1  0
  6  5  2  0
  7 12  1  0
  7  8  1  0
  8  3  1  0
  9  8  1  0
 10 11  1  0
 10  9  1  0
 11  7  1  0
 13 11  1  0
 14  1  1  0
 14 15  1  0
 15 16  2  0
 16 17  1  0
 18 17  1  0
 19 15  1  0
 19 18  2  0
  2 20  1  0
  5 21  1  0
  7 22  1  6
  8 23  1  1
 10 24  1  0
 10 25  1  0
 11 26  1  1
 12 27  1  0
 13 28  1  0
 14 29  1  0
 14 30  1  0
 16 31  1  0
 17 32  1  0
 18 33  1  0
M  ISO  8  20  14  21  14  22  13  23  13  24  13  25  13  26  13  27   3
M  ISO  6  28   3  29   8  30   8  31  14  32   9  33  14
M  END
>  <minimizedAffinity>  (1) 
-4.09998083

>  <minimizedRMSD>  (1) 
0.847069323

$$$$
