
     RDKit          3D

 39 42  0  0  1  0  0  0  0  0999 V2000
   47.7990   33.1680   42.1520 N   0  0  0  0  0  0  0  0  0  0  0  0
   47.1620   33.1200   43.4040 C   0  0  0  0  0  0  0  0  0  0  0  0
   47.4790   32.1210   44.2860 C   0  0  0  0  0  0  0  0  0  0  0  0
   46.9450   32.0430   45.5600 C   0  0  0  0  0  0  0  0  0  0  0  0
   46.0500   32.9900   46.0040 C   0  0  0  0  0  0  0  0  0  0  0  0
   45.7130   34.0020   45.1420 C   0  0  0  0  0  0  0  0  0  0  0  0
   44.8190   34.9830   45.5650 C   0  0  0  0  0  0  0  0  0  0  0  0
   44.4540   36.0130   44.7640 C   0  0  0  0  0  0  0  0  0  0  0  0
   45.0090   36.0520   43.4910 C   0  0  0  0  0  0  0  0  0  0  0  0
   45.8880   35.0780   43.0880 C   0  0  0  0  0  0  0  0  0  0  0  0
   46.2640   34.0420   43.8870 C   0  0  0  0  0  0  0  0  0  0  0  0
   46.3920   35.1720   41.8130 O   0  0  0  0  0  0  0  0  0  0  0  0
   50.0370   32.4310   41.3550 C   0  0  1  0  0  0  0  0  0  0  0  0
   49.0830   32.1420   40.2190 C   0  0  0  0  0  0  0  0  0  0  0  0
   48.6540   32.0980   41.7010 C   0  0  2  0  0  0  0  0  0  0  0  0
   52.9220   30.1600   40.8640 C   0  0  0  0  0  0  0  0  0  0  0  0
   53.1050   29.6420   42.1940 C   0  0  0  0  0  0  0  0  0  0  0  0
   52.2250   30.0960   43.2240 C   0  0  0  0  0  0  0  0  0  0  0  0
   51.2820   30.9730   42.9100 N   0  0  0  0  0  0  0  0  0  0  0  0
   51.1370   31.4410   41.6410 C   0  0  0  0  0  0  0  0  0  0  0  0
   51.9490   31.0440   40.6090 N   0  0  0  0  0  0  0  0  0  0  0  0
   52.4250   29.5540   44.5940 C   0  0  0  0  0  0  0  0  0  0  0  0
   53.0350   28.3300   44.5420 F   0  0  0  0  0  0  0  0  0  0  0  0
   51.1990   29.3740   45.2440 F   0  0  0  0  0  0  0  0  0  0  0  0
   53.1500   30.4490   45.3780 F   0  0  0  0  0  0  0  0  0  0  0  0
   47.6518   33.9856   41.5431 H   0  0  0  0  0  0  0  0  0  0  0  0
   48.1906   31.3453   43.9668 H   0  0  0  0  0  0  0  0  0  0  0  0
   47.2383   31.2167   46.2242 H   0  0  0  0  0  0  0  0  0  0  0  0
   45.6201   32.9369   47.0151 H   0  0  0  0  0  0  0  0  0  0  0  0
   44.3971   34.9196   46.5789 H   0  0  0  0  0  0  0  0  0  0  0  0
   43.7490   36.7847   45.1067 H   0  0  0  0  0  0  0  0  0  0  0  0
   44.7426   36.8676   42.8026 H   0  0  0  0  0  0  0  0  0  0  0  0
   47.0292   34.4908   41.4811 H   0  0  0  0  0  0  0  0  0  0  0  0
   50.6987   33.2721   41.6096 H   0  0  0  0  0  0  0  0  0  0  0  0
   48.7363   32.9534   39.5622 H   0  0  0  0  0  0  0  0  0  0  0  0
   49.0538   31.4511   39.3636 H   0  0  0  0  0  0  0  0  0  0  0  0
   48.1842   31.3534   42.3604 H   0  0  0  0  0  0  0  0  0  0  0  0
   53.5854   29.8278   40.0519 H   0  0  0  0  0  0  0  0  0  0  0  0
   53.9016   28.9154   42.4120 H   0  0  0  0  0  0  0  0  0  0  0  0
  1  2  1  0
  2 11  1  0
  2  3  2  0
  3  4  1  0
  4  5  2  0
  6  7  2  0
  6  5  1  0
  8  7  1  0
  9  8  2  0
 10  9  1  0
 10 11  2  0
 11  6  1  0
 12 10  1  0
 13 20  1  0
 13 15  1  0
 14 13  1  0
 14 15  1  0
 15  1  1  0
 16 17  2  0
 17 18  1  0
 18 22  1  0
 19 18  2  0
 20 19  1  0
 21 16  1  0
 21 20  2  0
 22 24  1  0
 22 25  1  0
 23 22  1  0
  1 26  1  0
  3 27  1  0
  4 28  1  0
  5 29  1  0
  7 30  1  0
  8 31  1  0
  9 32  1  0
 12 33  1  0
 13 34  1  6
 14 35  1  0
 14 36  1  0
 15 37  1  1
 16 38  1  0
 17 39  1  0
M  ISO  8  27  14  28  14  29  14  30  14  31  14  32  14  33   3  34  13
M  ISO  5  35  13  36  13  37  13  38  14  39  14
M  END
>  <minimizedAffinity>  (1) 
-5.11710119

>  <minimizedRMSD>  (1) 
1.29386938

$$$$
