
     RDKit          3D

 43 47  0  0  1  0  0  0  0  0999 V2000
   47.5390   33.0000   41.9750 N   0  0  0  0  0  0  0  0  0  0  0  0
   47.0980   33.0260   43.3080 C   0  0  0  0  0  0  0  0  0  0  0  0
   47.4270   32.0280   44.1700 C   0  0  0  0  0  0  0  0  0  0  0  0
   46.9510   31.9570   45.4630 C   0  0  0  0  0  0  0  0  0  0  0  0
   46.0910   32.9250   45.9500 C   0  0  0  0  0  0  0  0  0  0  0  0
   45.7370   33.9510   45.1070 C   0  0  0  0  0  0  0  0  0  0  0  0
   44.8690   34.9400   45.5630 C   0  0  0  0  0  0  0  0  0  0  0  0
   44.4750   35.9870   44.7750 C   0  0  0  0  0  0  0  0  0  0  0  0
   44.9880   36.0220   43.4890 C   0  0  0  0  0  0  0  0  0  0  0  0
   45.8480   35.0310   43.0570 C   0  0  0  0  0  0  0  0  0  0  0  0
   46.2380   33.9840   43.8300 C   0  0  0  0  0  0  0  0  0  0  0  0
   46.3440   35.1170   41.7780 O   0  0  0  0  0  0  0  0  0  0  0  0
   49.9750   32.5710   41.3320 C   0  0  1  0  0  0  0  0  0  0  0  0
   49.1370   32.3710   40.1040 C   0  0  0  0  0  0  0  0  0  0  0  0
   48.6120   32.1470   41.5540 C   0  0  2  0  0  0  0  0  0  0  0  0
   52.8800   30.2860   40.8210 C   0  0  0  0  0  0  0  0  0  0  0  0
   53.0100   29.7170   42.1350 C   0  0  0  0  0  0  0  0  0  0  0  0
   52.1020   30.1410   43.1550 C   0  0  0  0  0  0  0  0  0  0  0  0
   51.1860   31.0390   42.8370 N   0  0  0  0  0  0  0  0  0  0  0  0
   51.0750   31.5630   41.6020 C   0  0  0  0  0  0  0  0  0  0  0  0
   51.9220   31.1910   40.5840 N   0  0  0  0  0  0  0  0  0  0  0  0
   52.2570   29.5380   44.5050 C   0  0  0  0  0  0  0  0  0  0  0  0
   53.2620   30.0840   45.4560 C   0  0  0  0  0  0  0  0  0  0  0  0
   53.4560   28.7390   44.8430 C   0  0  0  0  0  0  0  0  0  0  0  0
   47.0802   33.6089   41.2824 H   0  0  0  0  0  0  0  0  0  0  0  0
   48.1067   31.2374   43.8192 H   0  0  0  0  0  0  0  0  0  0  0  0
   47.2579   31.1237   46.1121 H   0  0  0  0  0  0  0  0  0  0  0  0
   45.7033   32.8751   46.9782 H   0  0  0  0  0  0  0  0  0  0  0  0
   44.4868   34.8773   46.5926 H   0  0  0  0  0  0  0  0  0  0  0  0
   43.7862   36.7612   45.1440 H   0  0  0  0  0  0  0  0  0  0  0  0
   44.7098   36.8412   42.8097 H   0  0  0  0  0  0  0  0  0  0  0  0
   46.9625   34.4222   41.4392 H   0  0  0  0  0  0  0  0  0  0  0  0
   50.5743   33.4134   41.7077 H   0  0  0  0  0  0  0  0  0  0  0  0
   48.7963   33.2333   39.5122 H   0  0  0  0  0  0  0  0  0  0  0  0
   49.2043   31.7800   39.1787 H   0  0  0  0  0  0  0  0  0  0  0  0
   48.1953   31.3388   42.1730 H   0  0  0  0  0  0  0  0  0  0  0  0
   53.5634   29.9797   40.0153 H   0  0  0  0  0  0  0  0  0  0  0  0
   53.7903   28.9723   42.3507 H   0  0  0  0  0  0  0  0  0  0  0  0
   51.1727   29.3553   44.5367 H   0  0  0  0  0  0  0  0  0  0  0  0
   53.9051   30.9244   45.1559 H   0  0  0  0  0  0  0  0  0  0  0  0
   53.2316   30.4762   46.4833 H   0  0  0  0  0  0  0  0  0  0  0  0
   53.3574   27.8340   45.4605 H   0  0  0  0  0  0  0  0  0  0  0  0
   54.2575   28.2570   44.2639 H   0  0  0  0  0  0  0  0  0  0  0  0
  1  2  1  0
  2 11  1  0
  2  3  2  0
  3  4  1  0
  4  5  2  0
  6  7  2  0
  6  5  1  0
  8  7  1  0
  9  8  2  0
 10  9  1  0
 10 11  2  0
 11  6  1  0
 12 10  1  0
 13 15  1  0
 13 20  1  0
 14 13  1  0
 14 15  1  0
 15  1  1  0
 16 17  2  0
 17 18  1  0
 18 22  1  0
 19 18  2  0
 20 19  1  0
 21 16  1  0
 21 20  2  0
 22 24  1  0
 22 23  1  0
 24 23  1  0
  1 25  1  0
  3 26  1  0
  4 27  1  0
  5 28  1  0
  7 29  1  0
  8 30  1  0
  9 31  1  0
 12 32  1  0
 13 33  1  1
 14 34  1  0
 14 35  1  0
 15 36  1  6
 16 37  1  0
 17 38  1  0
 22 39  1  0
 23 40  1  0
 23 41  1  0
 24 42  1  0
 24 43  1  0
M  ISO  8  26  14  27  14  28  14  29  14  30  14  31  14  32   3  33  13
M  ISO  8  34  13  35  13  36  13  37  14  38  14  39  13  40  13  41  13
M  ISO  2  42  13  43  13
M  END
>  <minimizedAffinity>  (1) 
-5.09266615

>  <minimizedRMSD>  (1) 
1.34767628

$$$$
