
     RDKit          3D

 22 23  0  0  0  0  0  0  0  0999 V2000
   44.4660   35.9770   44.7350 C   0  0  0  0  0  0  0  0  0  0  0  0
   45.1180   35.9570   43.4820 C   0  0  0  0  0  0  0  0  0  0  0  0
   46.0150   34.9260   43.2370 C   0  0  0  0  0  0  0  0  0  0  0  0
   46.2170   33.9990   44.2100 N   0  0  0  0  0  0  0  0  0  0  0  0
   45.5800   34.0450   45.3950 C   0  0  0  0  0  0  0  0  0  0  0  0
   44.7160   35.0230   45.6530 N   0  0  0  0  0  0  0  0  0  0  0  0
   47.5590   31.9110   44.4730 Cl  0  0  0  0  0  0  0  0  0  0  0  0
   46.7760   31.9690   46.0320 C   0  0  0  0  0  0  0  0  0  0  0  0
   45.8870   32.9830   46.3600 C   0  0  0  0  0  0  0  0  0  0  0  0
   45.2680   33.0260   47.5950 C   0  0  0  0  0  0  0  0  0  0  0  0
   45.5520   32.0240   48.5160 C   0  0  0  0  0  0  0  0  0  0  0  0
   46.4310   30.9900   48.2380 C   0  0  0  0  0  0  0  0  0  0  0  0
   47.0070   31.0200   46.9830 C   0  0  0  0  0  0  0  0  0  0  0  0
   46.6960   34.8550   42.0020 N   0  0  0  0  0  0  0  0  0  0  0  0
   43.7479   36.7784   44.9632 H   0  0  0  0  0  0  0  0  0  0  0  0
   44.9217   36.7318   42.7262 H   0  0  0  0  0  0  0  0  0  0  0  0
   44.5659   33.8354   47.8438 H   0  0  0  0  0  0  0  0  0  0  0  0
   45.0614   32.0533   49.5001 H   0  0  0  0  0  0  0  0  0  0  0  0
   46.6552   30.1981   48.9678 H   0  0  0  0  0  0  0  0  0  0  0  0
   47.7095   30.2122   46.7302 H   0  0  0  0  0  0  0  0  0  0  0  0
   47.3608   34.0887   41.8238 H   0  0  0  0  0  0  0  0  0  0  0  0
   46.5280   35.5695   41.2794 H   0  0  0  0  0  0  0  0  0  0  0  0
  1  6  2  0
  2  1  1  0
  3  2  2  0
  3  4  1  0
  4  5  2  0
  5  6  1  0
  5  9  1  0
  7  8  1  0
  8  9  2  0
  8 13  1  0
  9 10  1  0
 10 11  2  0
 12 11  1  0
 13 12  2  0
 14  3  1  0
  1 15  1  0
  2 16  1  0
 10 17  1  0
 11 18  1  0
 12 19  1  0
 13 20  1  0
 14 21  1  0
 14 22  1  0
M  ISO  6  15  14  16  14  17  14  18  14  19  14  20  14
M  END
>  <minimizedAffinity>  (1) 
-4.8884201

>  <minimizedRMSD>  (1) 
0.279958606

$$$$
