
     RDKit          3D

 16 16  0  0  0  0  0  0  0  0999 V2000
   44.5470   35.5220   44.8190 C   0  0  0  0  0  0  0  0  0  0  0  0
   45.0630   35.6420   43.5080 C   0  0  0  0  0  0  0  0  0  0  0  0
   46.1470   34.8380   43.1600 C   0  0  0  0  0  0  0  0  0  0  0  0
   46.6450   33.9840   44.1010 N   0  0  0  0  0  0  0  0  0  0  0  0
   46.1300   33.8960   45.3350 C   0  0  0  0  0  0  0  0  0  0  0  0
   45.0960   34.6530   45.6900 N   0  0  0  0  0  0  0  0  0  0  0  0
   46.0980   32.5740   47.2940 C   0  0  0  0  0  0  0  0  0  0  0  0
   44.9580   33.0430   47.6320 O   0  0  0  0  0  0  0  0  0  0  0  0
   46.8360   32.9300   46.1110 N   0  0  0  0  0  0  0  0  0  0  0  0
   46.6830   34.9400   41.8520 N   0  0  0  0  0  0  0  0  0  0  0  0
   43.6927   36.1415   45.1294 H   0  0  0  0  0  0  0  0  0  0  0  0
   44.6234   36.3466   42.7866 H   0  0  0  0  0  0  0  0  0  0  0  0
   46.5551   31.8332   47.9665 H   0  0  0  0  0  0  0  0  0  0  0  0
   47.7543   32.5382   45.8578 H   0  0  0  0  0  0  0  0  0  0  0  0
   47.4840   34.3540   41.5765 H   0  0  0  0  0  0  0  0  0  0  0  0
   46.2716   35.6002   41.1769 H   0  0  0  0  0  0  0  0  0  0  0  0
  1  6  2  0
  2  1  1  0
  3  2  2  0
  3  4  1  0
  4  5  2  0
  5  6  1  0
  5  9  1  0
  7  8  2  0
  9  7  1  0
 10  3  1  0
  1 11  1  0
  2 12  1  0
  7 13  1  0
  9 14  1  0
 10 15  1  0
 10 16  1  0
M  ISO  3  11  14  12  14  13   6
M  END
>  <minimizedAffinity>  (1) 
-3.92329693

>  <minimizedRMSD>  (1) 
0.707204521

$$$$
