
     RDKit          3D

 14 14  0  0  0  0  0  0  0  0999 V2000
   44.5380   36.1550   44.5640 C   0  0  0  0  0  0  0  0  0  0  0  0
   45.2190   36.0540   43.3510 C   0  0  0  0  0  0  0  0  0  0  0  0
   46.0150   34.9290   43.1360 C   0  0  0  0  0  0  0  0  0  0  0  0
   46.0790   34.0050   44.1160 N   0  0  0  0  0  0  0  0  0  0  0  0
   45.4160   34.1230   45.2770 C   0  0  0  0  0  0  0  0  0  0  0  0
   44.6520   35.1900   45.4970 N   0  0  0  0  0  0  0  0  0  0  0  0
   45.4650   33.1630   46.3300 N   0  0  0  0  0  0  0  0  0  0  0  0
   46.7100   34.8010   41.9250 N   0  0  0  0  0  0  0  0  0  0  0  0
   43.9020   37.0307   44.7606 H   0  0  0  0  0  0  0  0  0  0  0  0
   45.1308   36.8392   42.5857 H   0  0  0  0  0  0  0  0  0  0  0  0
   44.9288   33.3199   47.1953 H   0  0  0  0  0  0  0  0  0  0  0  0
   46.0366   32.3126   46.2254 H   0  0  0  0  0  0  0  0  0  0  0  0
   47.3008   33.9746   41.7551 H   0  0  0  0  0  0  0  0  0  0  0  0
   46.6297   35.5334   41.2052 H   0  0  0  0  0  0  0  0  0  0  0  0
  1  6  2  0
  2  1  1  0
  3  2  2  0
  3  4  1  0
  4  5  2  0
  5  6  1  0
  5  7  1  0
  8  3  1  0
  1  9  1  0
  2 10  1  0
  7 11  1  0
  7 12  1  0
  8 13  1  0
  8 14  1  0
M  ISO  2   9  14  10  14
M  END
>  <minimizedAffinity>  (1) 
-3.43990874

>  <minimizedRMSD>  (1) 
0.145171031

$$$$
