
     RDKit          3D

 15 15  0  0  0  0  0  0  0  0999 V2000
   44.5070   36.0090   44.5210 C   0  0  0  0  0  0  0  0  0  0  0  0
   45.1860   35.9440   43.2880 C   0  0  0  0  0  0  0  0  0  0  0  0
   46.1020   34.9120   43.0860 C   0  0  0  0  0  0  0  0  0  0  0  0
   46.2850   34.0250   44.0960 N   0  0  0  0  0  0  0  0  0  0  0  0
   45.6280   34.1070   45.2610 C   0  0  0  0  0  0  0  0  0  0  0  0
   44.7440   35.0960   45.4680 N   0  0  0  0  0  0  0  0  0  0  0  0
   46.7870   34.8350   41.8600 N   0  0  0  0  0  0  0  0  0  0  0  0
   45.9030   33.0830   46.3060 C   0  0  0  0  0  0  0  0  0  0  0  0
   43.7797   36.8135   44.7047 H   0  0  0  0  0  0  0  0  0  0  0  0
   44.9978   36.6906   42.5024 H   0  0  0  0  0  0  0  0  0  0  0  0
   47.4665   34.0784   41.6963 H   0  0  0  0  0  0  0  0  0  0  0  0
   46.6092   35.5352   41.1258 H   0  0  0  0  0  0  0  0  0  0  0  0
   45.7819   33.5339   47.3020 H   0  0  0  0  0  0  0  0  0  0  0  0
   45.1977   32.2463   46.1941 H   0  0  0  0  0  0  0  0  0  0  0  0
   46.9326   32.7122   46.1941 H   0  0  0  0  0  0  0  0  0  0  0  0
  1  6  2  0
  2  1  1  0
  3  2  2  0
  3  4  1  0
  4  5  2  0
  5  6  1  0
  5  8  1  0
  7  3  1  0
  1  9  1  0
  2 10  1  0
  7 11  1  0
  7 12  1  0
  8 13  1  0
  8 14  1  0
  8 15  1  0
M  ISO  5   9  14  10  14  13   8  14   8  15   8
M  END
>  <minimizedAffinity>  (1) 
-3.33159971

>  <minimizedRMSD>  (1) 
0.047968708

$$$$
