
     RDKit          3D

 28 30  0  0  0  0  0  0  0  0999 V2000
   44.5280   35.8750   44.6920 C   0  0  0  0  0  0  0  0  0  0  0  0
   45.2530   35.7470   43.5120 C   0  0  0  0  0  0  0  0  0  0  0  0
   46.1290   34.6790   43.4260 C   0  0  0  0  0  0  0  0  0  0  0  0
   46.1910   33.8730   44.4940 N   0  0  0  0  0  0  0  0  0  0  0  0
   45.5080   33.9830   45.6290 C   0  0  0  0  0  0  0  0  0  0  0  0
   44.6810   35.0090   45.6810 N   0  0  0  0  0  0  0  0  0  0  0  0
   45.8260   32.9290   46.5790 C   0  0  0  0  0  0  0  0  0  0  0  0
   45.3700   32.9490   47.8780 C   0  0  0  0  0  0  0  0  0  0  0  0
   45.6470   31.9740   48.8080 C   0  0  0  0  0  0  0  0  0  0  0  0
   46.4230   30.8910   48.4750 C   0  0  0  0  0  0  0  0  0  0  0  0
   46.9060   30.8170   47.1900 C   0  0  0  0  0  0  0  0  0  0  0  0
   47.6840   29.7270   46.8600 C   0  0  0  0  0  0  0  0  0  0  0  0
   48.2000   29.5930   45.5880 C   0  0  0  0  0  0  0  0  0  0  0  0
   47.9040   30.5970   44.6610 C   0  0  0  0  0  0  0  0  0  0  0  0
   47.1210   31.6620   45.0500 C   0  0  0  0  0  0  0  0  0  0  0  0
   46.5940   31.8220   46.3080 C   0  0  0  0  0  0  0  0  0  0  0  0
   46.9210   34.4510   42.2620 N   0  0  0  0  0  0  0  0  0  0  0  0
   43.8178   36.7074   44.8048 H   0  0  0  0  0  0  0  0  0  0  0  0
   45.1355   36.4622   42.6846 H   0  0  0  0  0  0  0  0  0  0  0  0
   44.7449   33.7980   48.1918 H   0  0  0  0  0  0  0  0  0  0  0  0
   45.2434   32.0626   49.8274 H   0  0  0  0  0  0  0  0  0  0  0  0
   46.6508   30.1077   49.2129 H   0  0  0  0  0  0  0  0  0  0  0  0
   47.8947   28.9580   47.6178 H   0  0  0  0  0  0  0  0  0  0  0  0
   48.8215   28.7281   45.3129 H   0  0  0  0  0  0  0  0  0  0  0  0
   48.2916   30.5374   43.6333 H   0  0  0  0  0  0  0  0  0  0  0  0
   46.9030   32.4377   44.3011 H   0  0  0  0  0  0  0  0  0  0  0  0
   47.5646   33.6477   42.2263 H   0  0  0  0  0  0  0  0  0  0  0  0
   46.8493   35.0897   41.4571 H   0  0  0  0  0  0  0  0  0  0  0  0
  1  6  2  0
  2  1  1  0
  3  2  2  0
  3  4  1  0
  4  5  2  0
  5  6  1  0
  5  7  1  0
  7  8  2  0
  8  9  1  0
 10  9  2  0
 11 10  1  0
 12 11  2  0
 13 12  1  0
 14 15  1  0
 14 13  2  0
 15 16  2  0
 16  7  1  0
 16 11  1  0
 17  3  1  0
  1 18  1  0
  2 19  1  0
  8 20  1  0
  9 21  1  0
 10 22  1  0
 12 23  1  0
 13 24  1  0
 14 25  1  0
 15 26  1  0
 17 27  1  0
 17 28  1  0
M  ISO  8  18  14  19  14  20  14  21  14  22  14  23  14  24  14  25  14
M  ISO  1  26  14
M  END
>  <minimizedAffinity>  (1) 
-5.45102453

>  <minimizedRMSD>  (1) 
0.787012875

$$$$
