
     RDKit          3D

 40 43  0  0  0  0  0  0  0  0999 V2000
   46.3410   33.4110   44.4900 C   0  0  0  0  0  0  0  0  0  0  0  0
   45.5070   34.2380   45.2220 C   0  0  0  0  0  0  0  0  0  0  0  0
   45.0960   33.9490   46.5260 C   0  0  0  0  0  0  0  0  0  0  0  0
   45.5200   32.7940   47.1550 C   0  0  0  0  0  0  0  0  0  0  0  0
   46.3570   31.9380   46.4360 C   0  0  0  0  0  0  0  0  0  0  0  0
   46.7460   30.7870   47.0700 C   0  0  0  0  0  0  0  0  0  0  0  0
   47.5480   29.8840   46.3710 C   0  0  0  0  0  0  0  0  0  0  0  0
   47.9140   30.2060   45.0250 C   0  0  0  0  0  0  0  0  0  0  0  0
   47.4570   31.3940   44.5000 C   0  0  0  0  0  0  0  0  0  0  0  0
   46.7040   32.3000   45.1550 C   0  0  0  0  0  0  0  0  0  0  0  0
   47.2240   34.5010   41.0380 C   0  0  0  0  0  0  0  0  0  0  0  0
   48.5510   34.9080   41.2420 C   0  0  0  0  0  0  0  0  0  0  0  0
   49.0660   34.7570   42.5210 C   0  0  0  0  0  0  0  0  0  0  0  0
   48.2320   34.2420   43.4220 N   0  0  0  0  0  0  0  0  0  0  0  0
   46.9900   33.8510   43.2670 C   0  0  0  0  0  0  0  0  0  0  0  0
   46.5060   33.9970   42.0380 N   0  0  0  0  0  0  0  0  0  0  0  0
   50.4250   35.0410   42.8530 N   0  0  0  0  0  0  0  0  0  0  0  0
   47.4940   31.0750   43.0680 N   0  0  0  0  0  0  0  0  0  0  0  0
   48.5440   30.9700   42.0680 C   0  0  0  0  0  0  0  0  0  0  0  0
   48.5590   29.4680   41.7370 C   0  0  0  0  0  0  0  0  0  0  0  0
   47.0800   29.1310   41.8940 C   0  0  0  0  0  0  0  0  0  0  0  0
   46.5030   30.5460   42.0880 C   0  0  0  0  0  0  0  0  0  0  0  0
   45.1504   35.1678   44.7548 H   0  0  0  0  0  0  0  0  0  0  0  0
   44.4300   34.6461   47.0556 H   0  0  0  0  0  0  0  0  0  0  0  0
   45.2098   32.5577   48.1836 H   0  0  0  0  0  0  0  0  0  0  0  0
   46.4338   30.5801   48.1043 H   0  0  0  0  0  0  0  0  0  0  0  0
   47.8897   28.9502   46.8414 H   0  0  0  0  0  0  0  0  0  0  0  0
   48.5404   29.5259   44.4291 H   0  0  0  0  0  0  0  0  0  0  0  0
   46.7722   34.5998   40.0399 H   0  0  0  0  0  0  0  0  0  0  0  0
   49.1557   35.3279   40.4246 H   0  0  0  0  0  0  0  0  0  0  0  0
   50.7569   34.9118   43.8195 H   0  0  0  0  0  0  0  0  0  0  0  0
   51.0737   35.3751   42.1261 H   0  0  0  0  0  0  0  0  0  0  0  0
   48.3027   31.5686   41.1772 H   0  0  0  0  0  0  0  0  0  0  0  0
   49.5162   31.3457   42.4197 H   0  0  0  0  0  0  0  0  0  0  0  0
   49.1814   28.9026   42.4462 H   0  0  0  0  0  0  0  0  0  0  0  0
   48.9822   29.2210   40.7522 H   0  0  0  0  0  0  0  0  0  0  0  0
   46.6744   28.6444   40.9947 H   0  0  0  0  0  0  0  0  0  0  0  0
   46.8495   28.4216   42.7025 H   0  0  0  0  0  0  0  0  0  0  0  0
   46.5026   31.1224   41.1511 H   0  0  0  0  0  0  0  0  0  0  0  0
   45.4525   30.5862   42.4118 H   0  0  0  0  0  0  0  0  0  0  0  0
  1 10  1  0
  1  2  2  0
  2  3  1  0
  3  4  2  0
  5  6  2  0
  5  4  1  0
  7  6  1  0
  8  7  2  0
  9  8  1  0
  9 10  2  0
 10  5  1  0
 11 12  2  0
 11 16  1  0
 12 13  1  0
 13 17  1  0
 13 14  2  0
 15 14  1  0
 15  1  1  0
 16 15  2  0
 18  9  1  0
 19 18  1  0
 20 21  1  0
 20 19  1  0
 21 22  1  0
 22 18  1  0
  2 23  1  0
  3 24  1  0
  4 25  1  0
  6 26  1  0
  7 27  1  0
  8 28  1  0
 11 29  1  0
 12 30  1  0
 17 31  1  0
 17 32  1  0
 19 33  1  0
 19 34  1  0
 20 35  1  0
 20 36  1  0
 21 37  1  0
 21 38  1  0
 22 39  1  0
 22 40  1  0
M  ISO  8  23  14  24  14  25  14  26  14  27  14  28  14  29  14  30  14
M  ISO  8  33  13  34  13  35  13  36  13  37  13  38  13  39  13  40  13
M  END
>  <minimizedAffinity>  (1) 
-5.36114454

>  <minimizedRMSD>  (1) 
3.08300853

$$$$
