
     RDKit          3D

 39 43  0  0  0  0  0  0  0  0999 V2000
   46.1410   32.2770   46.0610 C   0  0  0  0  0  0  0  0  0  0  0  0
   45.5350   32.8460   47.1730 C   0  0  0  0  0  0  0  0  0  0  0  0
   45.7650   32.4040   48.4820 C   0  0  0  0  0  0  0  0  0  0  0  0
   46.6270   31.3590   48.7270 C   0  0  0  0  0  0  0  0  0  0  0  0
   47.2460   30.7620   47.6250 C   0  0  0  0  0  0  0  0  0  0  0  0
   48.0840   29.7120   47.8900 C   0  0  0  0  0  0  0  0  0  0  0  0
   48.6950   29.0600   46.8190 C   0  0  0  0  0  0  0  0  0  0  0  0
   48.4000   29.5200   45.5000 C   0  0  0  0  0  0  0  0  0  0  0  0
   47.5430   30.5810   45.3580 C   0  0  0  0  0  0  0  0  0  0  0  0
   46.9620   31.2470   46.3580 C   0  0  0  0  0  0  0  0  0  0  0  0
   47.0850   30.3300   44.0080 N   0  0  0  0  0  0  0  0  0  0  0  0
   45.9470   29.5890   43.6960 C   0  0  0  0  0  0  0  0  0  0  0  0
   45.7600   29.3840   42.3980 N   0  0  0  0  0  0  0  0  0  0  0  0
   46.7700   29.9810   41.7750 C   0  0  0  0  0  0  0  0  0  0  0  0
   47.2380   30.1740   40.4900 C   0  0  0  0  0  0  0  0  0  0  0  0
   48.3650   30.8510   40.2050 N   0  0  0  0  0  0  0  0  0  0  0  0
   49.1040   31.3840   41.2110 C   0  0  0  0  0  0  0  0  0  0  0  0
   48.6890   31.2230   42.4810 N   0  0  0  0  0  0  0  0  0  0  0  0
   47.5410   30.5350   42.7670 C   0  0  0  0  0  0  0  0  0  0  0  0
   45.3020   33.7920   42.7650 C   0  0  0  0  0  0  0  0  0  0  0  0
   46.5370   34.3720   42.4360 C   0  0  0  0  0  0  0  0  0  0  0  0
   47.5850   34.1900   43.3430 C   0  0  0  0  0  0  0  0  0  0  0  0
   47.2820   33.4820   44.4270 N   0  0  0  0  0  0  0  0  0  0  0  0
   46.1420   32.9250   44.7650 C   0  0  0  0  0  0  0  0  0  0  0  0
   45.1610   33.1060   43.8920 N   0  0  0  0  0  0  0  0  0  0  0  0
   48.9120   34.6340   43.0940 N   0  0  0  0  0  0  0  0  0  0  0  0
   44.8404   33.6848   47.0185 H   0  0  0  0  0  0  0  0  0  0  0  0
   45.2524   32.8962   49.3216 H   0  0  0  0  0  0  0  0  0  0  0  0
   46.8213   31.0072   49.7510 H   0  0  0  0  0  0  0  0  0  0  0  0
   48.2712   29.3897   48.9249 H   0  0  0  0  0  0  0  0  0  0  0  0
   49.3827   28.2177   46.9854 H   0  0  0  0  0  0  0  0  0  0  0  0
   48.8487   29.0357   44.6202 H   0  0  0  0  0  0  0  0  0  0  0  0
   45.2590   29.2049   44.4635 H   0  0  0  0  0  0  0  0  0  0  0  0
   46.6587   29.7519   39.6556 H   0  0  0  0  0  0  0  0  0  0  0  0
   50.0280   31.9391   40.9916 H   0  0  0  0  0  0  0  0  0  0  0  0
   44.4456   33.9069   42.0843 H   0  0  0  0  0  0  0  0  0  0  0  0
   46.6741   34.9439   41.5064 H   0  0  0  0  0  0  0  0  0  0  0  0
   49.6486   34.4749   43.7962 H   0  0  0  0  0  0  0  0  0  0  0  0
   49.1371   35.1149   42.2114 H   0  0  0  0  0  0  0  0  0  0  0  0
  1 10  1  0
  1  2  2  0
  2  3  1  0
  3  4  2  0
  5  6  2  0
  5  4  1  0
  7  6  1  0
  8  7  2  0
  9  8  1  0
  9 10  2  0
 10  5  1  0
 11  9  1  0
 12 11  1  0
 13 12  2  0
 14 13  1  0
 14 19  2  0
 15 14  1  0
 16 15  2  0
 16 17  1  0
 17 18  2  0
 18 19  1  0
 19 11  1  0
 20 25  2  0
 21 20  1  0
 21 22  2  0
 22 23  1  0
 23 24  2  0
 24  1  1  0
 25 24  1  0
 26 22  1  0
  2 27  1  0
  3 28  1  0
  4 29  1  0
  6 30  1  0
  7 31  1  0
  8 32  1  0
 12 33  1  0
 15 34  1  0
 17 35  1  0
 20 36  1  0
 21 37  1  0
 26 38  1  0
 26 39  1  0
M  ISO  8  27  14  28  14  29  14  30  14  31  14  32  14  33  14  34  14
M  ISO  3  35  14  36  14  37  14
M  END
>  <minimizedAffinity>  (1) 
-5.10734415

>  <minimizedRMSD>  (1) 
1.75843894

$$$$
