
     RDKit          3D

 38 41  0  0  0  0  0  0  0  0999 V2000
   46.1330   32.2750   46.0820 C   0  0  0  0  0  0  0  0  0  0  0  0
   45.5370   32.8670   47.1840 C   0  0  0  0  0  0  0  0  0  0  0  0
   45.7670   32.4510   48.5030 C   0  0  0  0  0  0  0  0  0  0  0  0
   46.6260   31.4010   48.7660 C   0  0  0  0  0  0  0  0  0  0  0  0
   47.2400   30.7750   47.6700 C   0  0  0  0  0  0  0  0  0  0  0  0
   48.0270   29.6940   47.9450 C   0  0  0  0  0  0  0  0  0  0  0  0
   48.5700   28.9840   46.8680 C   0  0  0  0  0  0  0  0  0  0  0  0
   48.2620   29.4230   45.5510 C   0  0  0  0  0  0  0  0  0  0  0  0
   47.4610   30.5240   45.3980 C   0  0  0  0  0  0  0  0  0  0  0  0
   46.9400   31.2520   46.4050 C   0  0  0  0  0  0  0  0  0  0  0  0
   45.0120   29.5630   44.2860 F   0  0  0  0  0  0  0  0  0  0  0  0
   46.0240   29.7940   43.3810 C   0  0  0  0  0  0  0  0  0  0  0  0
   47.1580   30.2590   43.9890 C   0  0  0  0  0  0  0  0  0  0  0  0
   48.1900   30.5570   43.0580 C   0  0  0  0  0  0  0  0  0  0  0  0
   48.1060   30.4100   41.6990 C   0  0  0  0  0  0  0  0  0  0  0  0
   46.9580   29.9430   41.1630 C   0  0  0  0  0  0  0  0  0  0  0  0
   45.9260   29.6400   42.0150 C   0  0  0  0  0  0  0  0  0  0  0  0
   45.3130   33.7730   42.7760 C   0  0  0  0  0  0  0  0  0  0  0  0
   46.5550   34.3470   42.4540 C   0  0  0  0  0  0  0  0  0  0  0  0
   47.5990   34.1550   43.3630 C   0  0  0  0  0  0  0  0  0  0  0  0
   47.2760   33.4430   44.4410 N   0  0  0  0  0  0  0  0  0  0  0  0
   46.1340   32.8920   44.7760 C   0  0  0  0  0  0  0  0  0  0  0  0
   45.1480   33.0770   43.9050 N   0  0  0  0  0  0  0  0  0  0  0  0
   48.9280   34.5970   43.1240 N   0  0  0  0  0  0  0  0  0  0  0  0
   44.8474   33.7072   47.0151 H   0  0  0  0  0  0  0  0  0  0  0  0
   45.2604   32.9638   49.3339 H   0  0  0  0  0  0  0  0  0  0  0  0
   46.8213   31.0681   49.7961 H   0  0  0  0  0  0  0  0  0  0  0  0
   48.2285   29.3898   48.9827 H   0  0  0  0  0  0  0  0  0  0  0  0
   49.2172   28.1105   47.0357 H   0  0  0  0  0  0  0  0  0  0  0  0
   48.6583   28.8902   44.6740 H   0  0  0  0  0  0  0  0  0  0  0  0
   49.1382   30.9388   43.4643 H   0  0  0  0  0  0  0  0  0  0  0  0
   48.9595   30.6681   41.0548 H   0  0  0  0  0  0  0  0  0  0  0  0
   46.8533   29.8095   40.0762 H   0  0  0  0  0  0  0  0  0  0  0  0
   44.9847   29.2597   41.5916 H   0  0  0  0  0  0  0  0  0  0  0  0
   44.4638   33.8986   42.0882 H   0  0  0  0  0  0  0  0  0  0  0  0
   46.6989   34.9220   41.5274 H   0  0  0  0  0  0  0  0  0  0  0  0
   49.6608   34.4297   43.8282 H   0  0  0  0  0  0  0  0  0  0  0  0
   49.1586   35.0847   42.2466 H   0  0  0  0  0  0  0  0  0  0  0  0
  1 10  1  0
  1  2  2  0
  2  3  1  0
  3  4  2  0
  5  6  2  0
  5  4  1  0
  7  6  1  0
  8  7  2  0
  9  8  1  0
  9 10  2  0
 10  5  1  0
 12 13  2  0
 12 11  1  0
 13  9  1  0
 14 13  1  0
 15 14  2  0
 16 15  1  0
 16 17  2  0
 17 12  1  0
 18 23  2  0
 19 18  1  0
 19 20  2  0
 20 21  1  0
 21 22  2  0
 22  1  1  0
 23 22  1  0
 24 20  1  0
  2 25  1  0
  3 26  1  0
  4 27  1  0
  6 28  1  0
  7 29  1  0
  8 30  1  0
 14 31  1  0
 15 32  1  0
 16 33  1  0
 17 34  1  0
 18 35  1  0
 19 36  1  0
 24 37  1  0
 24 38  1  0
M  ISO  8  25  14  26  14  27  14  28  14  29  14  30  14  31  14  32  14
M  ISO  4  33  14  34  14  35  14  36  14
M  END
>  <minimizedAffinity>  (1) 
-4.99715328

>  <minimizedRMSD>  (1) 
1.84300601

$$$$
