
     RDKit          3D

 52 55  0  0  0  0  0  0  0  0999 V2000
   45.9396   32.3450   46.0830 C   0  0  0  0  0  0  0  0  0  0  0  0
   45.6400   33.0147   47.2664 C   0  0  0  0  0  0  0  0  0  0  0  0
   45.8609   32.4607   48.5326 C   0  0  0  0  0  0  0  0  0  0  0  0
   46.3940   31.2084   48.6615 C   0  0  0  0  0  0  0  0  0  0  0  0
   46.6994   30.5041   47.4785 C   0  0  0  0  0  0  0  0  0  0  0  0
   47.1743   29.2427   47.6462 C   0  0  0  0  0  0  0  0  0  0  0  0
   47.4154   28.4901   46.4942 C   0  0  0  0  0  0  0  0  0  0  0  0
   47.1423   29.0854   45.2130 C   0  0  0  0  0  0  0  0  0  0  0  0
   46.6621   30.3752   45.2122 C   0  0  0  0  0  0  0  0  0  0  0  0
   46.4340   31.1439   46.2646 C   0  0  0  0  0  0  0  0  0  0  0  0
   45.2473   34.1346   42.8818 C   0  0  0  0  0  0  0  0  0  0  0  0
   46.5609   34.5378   42.5407 C   0  0  0  0  0  0  0  0  0  0  0  0
   47.5552   34.1490   43.4015 C   0  0  0  0  0  0  0  0  0  0  0  0
   47.1591   33.4415   44.4573 N   0  0  0  0  0  0  0  0  0  0  0  0
   45.9399   33.0473   44.8098 C   0  0  0  0  0  0  0  0  0  0  0  0
   45.0055   33.4175   43.9844 N   0  0  0  0  0  0  0  0  0  0  0  0
   48.9284   34.4275   43.1562 N   0  0  0  0  0  0  0  0  0  0  0  0
   44.8797   29.7583   43.8406 C   0  0  0  0  0  0  0  0  0  0  0  0
   46.2306   30.2842   43.8343 C   0  0  0  0  0  0  0  0  0  0  0  0
   46.6887   30.3792   42.5892 C   0  0  0  0  0  0  0  0  0  0  0  0
   46.0022   30.0294   41.4438 C   0  0  0  0  0  0  0  0  0  0  0  0
   44.7308   29.5315   41.4731 C   0  0  0  0  0  0  0  0  0  0  0  0
   44.1738   29.4004   42.7117 C   0  0  0  0  0  0  0  0  0  0  0  0
   44.0696   29.5287   44.9864 O   0  0  0  0  0  0  0  0  0  0  0  0
   42.8852   28.8850   42.6828 O   0  0  0  0  0  0  0  0  0  0  0  0
   45.2099   34.0265   47.1778 H   0  0  0  0  0  0  0  0  0  0  0  0
   45.6204   32.9977   49.4280 H   0  0  0  0  0  0  0  0  0  0  0  0
   46.5773   30.7678   49.6361 H   0  0  0  0  0  0  0  0  0  0  0  0
   47.3568   28.8414   48.6327 H   0  0  0  0  0  0  0  0  0  0  0  0
   47.7963   27.5002   46.7024 H   0  0  0  0  0  0  0  0  0  0  0  0
   47.4147   28.2932   44.5325 H   0  0  0  0  0  0  0  0  0  0  0  0
   44.4243   34.4132   42.2364 H   0  0  0  0  0  0  0  0  0  0  0  0
   46.7753   35.1126   41.6643 H   0  0  0  0  0  0  0  0  0  0  0  0
   49.5216   34.1616   42.3304 H   0  0  0  0  0  0  0  0  0  0  0  0
   49.2574   34.9723   43.9888 H   0  0  0  0  0  0  0  0  0  0  0  0
   47.7109   30.7882   42.6817 H   0  0  0  0  0  0  0  0  0  0  0  0
   46.5640   30.1869   40.5319 H   0  0  0  0  0  0  0  0  0  0  0  0
   44.2463   29.2748   40.5431 H   0  0  0  0  0  0  0  0  0  0  0  0
   43.9955   30.2198   45.7311 H   0  0  0  0  0  0  0  0  0  0  0  0
   42.2142   28.5320   41.5183 C   0  0  0  0  0  0  0  0  0  0  0  0
   41.4590   29.6220   40.9672 N   0  0  0  0  0  4  0  0  0  0  0  0
   41.0607   29.2983   39.6199 C   0  0  0  0  0  0  0  0  0  0  0  0
   40.0757   28.8012   39.6146 H   0  0  0  0  0  0  0  0  0  0  0  0
   40.2597   29.9359   41.7228 C   0  0  0  0  0  0  0  0  0  0  0  0
   40.0597   29.2129   42.5473 H   0  0  0  0  0  0  0  0  0  0  0  0
   41.4593   27.7443   41.8074 H   0  0  0  0  0  0  0  0  0  0  0  0
   42.8365   28.0527   40.7459 H   0  0  0  0  0  0  0  0  0  0  0  0
   42.1099   30.4594   40.9868 H   0  0  0  0  0  0  0  0  0  0  0  0
   40.9729   30.2161   38.9873 H   0  0  0  0  0  0  0  0  0  0  0  0
   41.8068   28.6125   39.1463 H   0  0  0  0  0  0  0  0  0  0  0  0
   40.4058   30.9173   42.2514 H   0  0  0  0  0  0  0  0  0  0  0  0
   39.3652   30.0815   41.0647 H   0  0  0  0  0  0  0  0  0  0  0  0
  1 10  1  0
  1  2  2  0
  2  3  1  0
  3  4  2  0
  5  6  2  0
  5  4  1  0
  7  6  1  0
  8  7  2  0
  9  8  1  0
  9 10  2  0
 10  5  1  0
 11 16  2  0
 12 11  1  0
 12 13  2  0
 13 14  1  0
 14 15  2  0
 15  1  1  0
 16 15  1  0
 17 13  1  0
 18 24  1  0
 19 18  2  0
 19  9  1  0
 20 19  1  0
 21 22  1  0
 21 20  2  0
 22 23  2  0
 23 18  1  0
 25 23  1  0
  2 26  1  0
  3 27  1  0
  4 28  1  0
  6 29  1  0
  7 30  1  0
  8 31  1  0
 11 32  1  0
 12 33  1  0
 17 34  1  0
 17 35  1  0
 20 36  1  0
 21 37  1  0
 22 38  1  0
 24 39  1  0
 40 41  1  0
 41 42  1  0
 42 43  1  0
 41 44  1  0
 44 45  1  0
 40 46  1  0
 40 47  1  0
 41 48  1  0
 42 49  1  0
 42 50  1  0
 44 51  1  0
 44 52  1  0
 25 40  1  0
M  CHG  1  41   1
M  END
>  <DihAtoms>  (1) 
22,24,39,40

>  <DihDeg>  (1) 
179.99888698362912

$$$$
