
     RDKit          3D

 42 45  0  0  0  0  0  0  0  0999 V2000
   45.8050   32.2970   46.0380 C   0  0  0  0  0  0  0  0  0  0  0  0
   45.6130   32.9770   47.2400 C   0  0  0  0  0  0  0  0  0  0  0  0
   45.7830   32.3730   48.4930 C   0  0  0  0  0  0  0  0  0  0  0  0
   46.1540   31.0610   48.5860 C   0  0  0  0  0  0  0  0  0  0  0  0
   46.3500   30.3470   47.3870 C   0  0  0  0  0  0  0  0  0  0  0  0
   46.6670   29.0350   47.5190 C   0  0  0  0  0  0  0  0  0  0  0  0
   46.7950   28.2830   46.3500 C   0  0  0  0  0  0  0  0  0  0  0  0
   46.5770   28.9330   45.0840 C   0  0  0  0  0  0  0  0  0  0  0  0
   46.2610   30.2690   45.1230 C   0  0  0  0  0  0  0  0  0  0  0  0
   46.1460   31.0410   46.1920 C   0  0  0  0  0  0  0  0  0  0  0  0
   44.4150   29.7850   43.7730 C   0  0  0  0  0  0  0  0  0  0  0  0
   45.7900   30.2560   43.7510 C   0  0  0  0  0  0  0  0  0  0  0  0
   46.2140   30.3890   42.4960 C   0  0  0  0  0  0  0  0  0  0  0  0
   45.4850   30.1210   41.3600 C   0  0  0  0  0  0  0  0  0  0  0  0
   44.1880   29.6730   41.4050 C   0  0  0  0  0  0  0  0  0  0  0  0
   43.6550   29.5070   42.6540 C   0  0  0  0  0  0  0  0  0  0  0  0
   43.6280   29.5340   44.9300 O   0  0  0  0  0  0  0  0  0  0  0  0
   42.3530   29.0550   42.6340 O   0  0  0  0  0  0  0  0  0  0  0  0
   41.2640   29.9270   42.5550 C   0  0  0  0  0  0  0  0  0  0  0  0
   40.7640   30.2100   43.6920 O   0  0  0  0  0  0  0  0  0  0  0  0
   45.2560   34.1550   42.8510 C   0  0  0  0  0  0  0  0  0  0  0  0
   46.5900   34.5180   42.5500 C   0  0  0  0  0  0  0  0  0  0  0  0
   47.5540   34.0810   43.4330 C   0  0  0  0  0  0  0  0  0  0  0  0
   47.0990   33.3730   44.4630 N   0  0  0  0  0  0  0  0  0  0  0  0
   45.8620   33.0170   44.7790 C   0  0  0  0  0  0  0  0  0  0  0  0
   44.9620   33.4300   43.9350 N   0  0  0  0  0  0  0  0  0  0  0  0
   48.9330   34.3180   43.2210 N   0  0  0  0  0  0  0  0  0  0  0  0
   45.3147   34.0351   47.2031 H   0  0  0  0  0  0  0  0  0  0  0  0
   45.6166   32.9594   49.4087 H   0  0  0  0  0  0  0  0  0  0  0  0
   46.2950   30.5783   49.5643 H   0  0  0  0  0  0  0  0  0  0  0  0
   46.8175   28.5808   48.5095 H   0  0  0  0  0  0  0  0  0  0  0  0
   47.0571   27.2156   46.3951 H   0  0  0  0  0  0  0  0  0  0  0  0
   46.6594   28.3868   44.1328 H   0  0  0  0  0  0  0  0  0  0  0  0
   47.2444   30.7469   42.3537 H   0  0  0  0  0  0  0  0  0  0  0  0
   45.9593   30.2714   40.3790 H   0  0  0  0  0  0  0  0  0  0  0  0
   43.6123   29.4604   40.4921 H   0  0  0  0  0  0  0  0  0  0  0  0
   42.6963   29.2131   44.8348 H   0  0  0  0  0  0  0  0  0  0  0  0
   40.8775   30.3286   41.6067 H   0  0  0  0  0  0  0  0  0  0  0  0
   44.4453   34.4755   42.1802 H   0  0  0  0  0  0  0  0  0  0  0  0
   46.8435   35.1151   41.6616 H   0  0  0  0  0  0  0  0  0  0  0  0
   49.6251   33.9762   43.9030 H   0  0  0  0  0  0  0  0  0  0  0  0
   49.2446   34.8323   42.3847 H   0  0  0  0  0  0  0  0  0  0  0  0
  1 10  1  0
  1  2  2  0
  2  3  1  0
  3  4  2  0
  5  6  2  0
  5  4  1  0
  7  6  1  0
  8  9  1  0
  8  7  2  0
  9 10  2  0
 10  5  1  0
 11 17  1  0
 12 11  2  0
 12  9  1  0
 13 12  1  0
 14 15  1  0
 14 13  2  0
 15 16  2  0
 16 11  1  0
 18 16  1  0
 19 18  1  0
 19 20  2  0
 21 26  2  0
 22 21  1  0
 22 23  2  0
 23 24  1  0
 24 25  2  0
 25  1  1  0
 26 25  1  0
 27 23  1  0
  2 28  1  0
  3 29  1  0
  4 30  1  0
  6 31  1  0
  7 32  1  0
  8 33  1  0
 13 34  1  0
 14 35  1  0
 15 36  1  0
 17 37  1  0
 19 38  1  0
 21 39  1  0
 22 40  1  0
 27 41  1  0
 27 42  1  0
M  ISO  8  28  14  29  14  30  14  31  14  32  14  33  14  34  14  35  14
M  ISO  5  36  14  37   3  38   6  39  14  40  14
M  END
>  <minimizedAffinity>  (1) 
-4.84634733

>  <minimizedRMSD>  (1) 
0.408568084

$$$$
