
     RDKit          3D

 35 37  0  0  0  0  0  0  0  0999 V2000
   46.7990   34.8360   42.0950 C   0  0  0  0  0  0  0  0  0  0  0  0
   48.0180   35.4340   41.8890 C   0  0  0  0  0  0  0  0  0  0  0  0
   48.7760   35.2870   40.7360 C   0  0  0  0  0  0  0  0  0  0  0  0
   48.2860   34.4950   39.7220 C   0  0  0  0  0  0  0  0  0  0  0  0
   47.0840   33.9150   39.9370 C   0  0  0  0  0  0  0  0  0  0  0  0
   46.3740   34.0690   41.0530 N   0  0  0  0  0  0  0  0  0  0  0  0
   44.4520   35.9580   44.8130 C   0  0  0  0  0  0  0  0  0  0  0  0
   45.1170   35.9850   43.5840 C   0  0  0  0  0  0  0  0  0  0  0  0
   46.0150   34.9840   43.3170 C   0  0  0  0  0  0  0  0  0  0  0  0
   46.2050   34.0190   44.2750 N   0  0  0  0  0  0  0  0  0  0  0  0
   45.5560   34.0100   45.4520 C   0  0  0  0  0  0  0  0  0  0  0  0
   44.6800   34.9900   45.7060 N   0  0  0  0  0  0  0  0  0  0  0  0
   46.5690   33.1160   38.9330 O   0  0  0  0  0  0  0  0  0  0  0  0
   47.8590   34.5200   37.1000 O   0  0  0  0  0  0  0  0  0  0  0  0
   47.0440   33.2650   37.2970 P   0  0  1  0  0  0  0  0  0  0  0  0
   47.9440   31.9150   36.8590 O   0  0  0  0  0  0  0  0  0  0  0  0
   45.6120   33.3790   36.3660 O   0  0  0  0  0  0  0  0  0  0  0  0
   45.1470   32.2630   35.7050 C   0  0  0  0  0  0  0  0  0  0  0  0
   45.3100   31.9150   34.3890 C   0  0  0  0  0  0  0  0  0  0  0  0
   44.7890   30.7650   33.8540 C   0  0  0  0  0  0  0  0  0  0  0  0
   44.0710   29.8850   34.6050 C   0  0  0  0  0  0  0  0  0  0  0  0
   43.9030   30.2320   35.9420 C   0  0  0  0  0  0  0  0  0  0  0  0
   44.4170   31.3910   36.5140 C   0  0  0  0  0  0  0  0  0  0  0  0
   48.4199   36.0713   42.6905 H   0  0  0  0  0  0  0  0  0  0  0  0
   49.7477   35.7925   40.6343 H   0  0  0  0  0  0  0  0  0  0  0  0
   48.8433   34.3422   38.7860 H   0  0  0  0  0  0  0  0  0  0  0  0
   43.7261   36.7497   45.0502 H   0  0  0  0  0  0  0  0  0  0  0  0
   44.9258   36.7848   42.8534 H   0  0  0  0  0  0  0  0  0  0  0  0
   45.7405   33.2153   46.1899 H   0  0  0  0  0  0  0  0  0  0  0  0
   48.2557   31.4475   37.6741 H   0  0  0  0  0  0  0  0  0  0  0  0
   45.8835   32.5874   33.7340 H   0  0  0  0  0  0  0  0  0  0  0  0
   44.9557   30.5474   32.7887 H   0  0  0  0  0  0  0  0  0  0  0  0
   43.6512   28.9602   34.1824 H   0  0  0  0  0  0  0  0  0  0  0  0
   43.3292   29.5486   36.5852 H   0  0  0  0  0  0  0  0  0  0  0  0
   44.2521   31.6149   37.5783 H   0  0  0  0  0  0  0  0  0  0  0  0
  1  9  1  0
  2  1  2  0
  3  2  1  0
  4  5  1  0
  4  3  2  0
  5  6  2  0
  6  1  1  0
  7 12  2  0
  8  7  1  0
  9  8  2  0
  9 10  1  0
 10 11  2  0
 11 12  1  0
 13  5  1  0
 15 14  2  0
 15 13  1  0
 16 15  1  0
 17 15  1  0
 18 17  1  0
 18 23  1  0
 19 18  2  0
 20 19  1  0
 20 21  2  0
 21 22  1  0
 22 23  2  0
  2 24  1  0
  3 25  1  0
  4 26  1  0
  7 27  1  0
  8 28  1  0
 11 29  1  0
 16 30  1  0
 19 31  1  0
 20 32  1  0
 21 33  1  0
 22 34  1  0
 23 35  1  0
M  ISO  8  24  14  25  14  26  14  27  14  28  14  29  14  30   3  31  14
M  ISO  4  32  14  33  14  34  14  35  14
M  END
>  <minimizedAffinity>  (1) 
-5.69601107

>  <minimizedRMSD>  (1) 
1.27452242

$$$$
