
     RDKit          3D

 34 36  0  0  0  0  0  0  0  0999 V2000
   46.8720   34.8360   42.0750 C   0  0  0  0  0  0  0  0  0  0  0  0
   48.0340   35.5720   41.8520 C   0  0  0  0  0  0  0  0  0  0  0  0
   48.8400   35.4520   40.7300 C   0  0  0  0  0  0  0  0  0  0  0  0
   48.4730   34.5400   39.7600 C   0  0  0  0  0  0  0  0  0  0  0  0
   47.3430   33.8370   39.9930 C   0  0  0  0  0  0  0  0  0  0  0  0
   46.5830   33.9750   41.0890 N   0  0  0  0  0  0  0  0  0  0  0  0
   44.4640   35.9410   44.7370 C   0  0  0  0  0  0  0  0  0  0  0  0
   45.1510   35.9740   43.5130 C   0  0  0  0  0  0  0  0  0  0  0  0
   46.0600   34.9780   43.2720 C   0  0  0  0  0  0  0  0  0  0  0  0
   46.2410   34.0160   44.2350 N   0  0  0  0  0  0  0  0  0  0  0  0
   45.5740   34.0060   45.3980 C   0  0  0  0  0  0  0  0  0  0  0  0
   44.6840   34.9720   45.6480 N   0  0  0  0  0  0  0  0  0  0  0  0
   46.9510   32.9200   39.0370 O   0  0  0  0  0  0  0  0  0  0  0  0
   47.8780   34.4600   37.1020 O   0  0  0  0  0  0  0  0  0  0  0  0
   47.0310   33.2320   37.3560 P   0  0  1  0  0  0  0  0  0  0  0  0
   47.7220   31.8970   36.5890 O   0  0  0  0  0  0  0  0  0  0  0  0
   45.4480   33.5140   36.8150 O   0  0  0  0  0  0  0  0  0  0  0  0
   44.3940   32.9020   37.4450 C   0  0  0  0  0  0  0  0  0  0  0  0
   43.5710   33.5130   38.3600 C   0  0  0  0  0  0  0  0  0  0  0  0
   42.5050   32.9190   39.0050 C   0  0  0  0  0  0  0  0  0  0  0  0
   42.2760   31.5880   38.6790 C   0  0  0  0  0  0  0  0  0  0  0  0
   43.0970   30.9760   37.7650 C   0  0  0  0  0  0  0  0  0  0  0  0
   44.1390   31.6030   37.1520 N   0  0  0  0  0  0  0  0  0  0  0  0
   48.3332   36.2999   42.6206 H   0  0  0  0  0  0  0  0  0  0  0  0
   49.7458   36.0656   40.6158 H   0  0  0  0  0  0  0  0  0  0  0  0
   49.0686   34.3938   38.8468 H   0  0  0  0  0  0  0  0  0  0  0  0
   43.7267   36.7267   44.9585 H   0  0  0  0  0  0  0  0  0  0  0  0
   44.9664   36.7692   42.7758 H   0  0  0  0  0  0  0  0  0  0  0  0
   45.7568   33.2126   46.1376 H   0  0  0  0  0  0  0  0  0  0  0  0
   48.0521   31.2592   37.2704 H   0  0  0  0  0  0  0  0  0  0  0  0
   43.7796   34.5662   38.5991 H   0  0  0  0  0  0  0  0  0  0  0  0
   41.8792   33.4626   39.7281 H   0  0  0  0  0  0  0  0  0  0  0  0
   41.4492   31.0330   39.1463 H   0  0  0  0  0  0  0  0  0  0  0  0
   42.9029   29.9227   37.5142 H   0  0  0  0  0  0  0  0  0  0  0  0
  1  9  1  0
  2  1  2  0
  3  2  1  0
  4  5  1  0
  4  3  2  0
  5  6  2  0
  6  1  1  0
  7 12  2  0
  8  7  1  0
  9  8  2  0
  9 10  1  0
 10 11  2  0
 11 12  1  0
 13  5  1  0
 15 14  2  0
 15 13  1  0
 16 15  1  0
 17 15  1  0
 17 18  1  0
 18 19  2  0
 19 20  1  0
 21 20  2  0
 22 21  1  0
 23 18  1  0
 23 22  2  0
  2 24  1  0
  3 25  1  0
  4 26  1  0
  7 27  1  0
  8 28  1  0
 11 29  1  0
 16 30  1  0
 19 31  1  0
 20 32  1  0
 21 33  1  0
 22 34  1  0
M  ISO  8  24  14  25  14  26  14  27  14  28  14  29  14  30   3  31  14
M  ISO  3  32  14  33  14  34  14
M  END
>  <minimizedAffinity>  (1) 
-5.3634367

>  <minimizedRMSD>  (1) 
0.801665127

$$$$
