
     RDKit          3D

 25 26  0  0  1  0  0  0  0  0999 V2000
   46.8460   34.5690   42.2830 N   0  0  0  0  0  0  0  0  0  0  0  0
   46.2020   34.3820   40.9950 C   0  0  0  0  0  0  0  0  0  0  0  0
   47.0800   33.6960   40.0000 C   0  0  0  0  0  0  0  0  0  0  0  0
   48.4020   34.1930   39.9070 N   0  0  0  0  0  0  0  0  0  0  0  0
   48.9820   34.7350   41.0670 C   0  0  2  0  0  0  0  0  0  0  0  0
   48.2700   34.5410   42.3470 C   0  0  0  0  0  0  0  0  0  0  0  0
   44.4630   35.9300   44.8230 C   0  0  0  0  0  0  0  0  0  0  0  0
   45.1700   35.8500   43.5970 C   0  0  0  0  0  0  0  0  0  0  0  0
   46.0720   34.7770   43.4520 C   0  0  0  0  0  0  0  0  0  0  0  0
   46.1960   33.9060   44.4950 N   0  0  0  0  0  0  0  0  0  0  0  0
   45.5000   34.0230   45.6470 C   0  0  0  0  0  0  0  0  0  0  0  0
   44.6270   35.0500   45.8010 N   0  0  0  0  0  0  0  0  0  0  0  0
   49.1920   36.1150   40.8670 O   0  0  0  0  0  0  0  0  0  0  0  0
   45.2959   33.7755   41.1404 H   0  0  0  0  0  0  0  0  0  0  0  0
   45.9672   35.3796   40.5955 H   0  0  0  0  0  0  0  0  0  0  0  0
   47.1367   32.6324   40.2749 H   0  0  0  0  0  0  0  0  0  0  0  0
   46.6202   33.8769   39.0172 H   0  0  0  0  0  0  0  0  0  0  0  0
   49.0018   33.4145   39.5987 H   0  0  0  0  0  0  0  0  0  0  0  0
   49.9111   34.1596   41.1926 H   0  0  0  0  0  0  0  0  0  0  0  0
   48.5913   35.3374   43.0344 H   0  0  0  0  0  0  0  0  0  0  0  0
   48.5310   33.5254   42.6794 H   0  0  0  0  0  0  0  0  0  0  0  0
   43.7500   36.7549   44.9687 H   0  0  0  0  0  0  0  0  0  0  0  0
   45.0216   36.5902   42.7969 H   0  0  0  0  0  0  0  0  0  0  0  0
   45.6403   33.2901   46.4552 H   0  0  0  0  0  0  0  0  0  0  0  0
   49.2611   36.5688   41.7441 H   0  0  0  0  0  0  0  0  0  0  0  0
  1  6  1  0
  1  9  1  0
  2  1  1  0
  3  2  1  0
  4  3  1  0
  4  5  1  0
  5  6  1  0
  7 12  2  0
  8  7  1  0
  9  8  2  0
  9 10  1  0
 10 11  2  0
 11 12  1  0
 13  5  1  0
  2 14  1  0
  2 15  1  0
  3 16  1  0
  3 17  1  0
  4 18  1  0
  5 19  1  1
  6 20  1  0
  6 21  1  0
  7 22  1  0
  8 23  1  0
 11 24  1  0
 13 25  1  0
M  ISO  8  14  13  15  13  16  13  17  13  18   5  19  13  20  13  21  13
M  ISO  4  22  14  23  14  24  14  25   3
M  END
>  <minimizedAffinity>  (1) 
-4.6712203

>  <minimizedRMSD>  (1) 
0.536482394

$$$$
