
     RDKit          3D

 27 29  0  0  0  0  0  0  0  0999 V2000
   46.4600   33.8050   40.5030 C   0  0  0  0  0  0  0  0  0  0  0  0
   45.2630   33.2160   40.9090 C   0  0  0  0  0  0  0  0  0  0  0  0
   44.5120   32.5030   39.9740 C   0  0  0  0  0  0  0  0  0  0  0  0
   44.9850   32.4050   38.6650 C   0  0  0  0  0  0  0  0  0  0  0  0
   46.1710   33.0030   38.3160 C   0  0  0  0  0  0  0  0  0  0  0  0
   46.6330   32.8990   37.0130 C   0  0  0  0  0  0  0  0  0  0  0  0
   47.8310   33.5060   36.6720 C   0  0  0  0  0  0  0  0  0  0  0  0
   48.5720   34.2110   37.6000 C   0  0  0  0  0  0  0  0  0  0  0  0
   48.1400   34.3370   38.9150 C   0  0  0  0  0  0  0  0  0  0  0  0
   46.9400   33.7150   39.2150 C   0  0  0  0  0  0  0  0  0  0  0  0
   47.2980   34.6780   41.8170 S   0  0  0  0  0  0  0  0  0  0  0  0
   44.5600   36.0090   44.4880 C   0  0  0  0  0  0  0  0  0  0  0  0
   45.3580   35.9220   43.3300 C   0  0  0  0  0  0  0  0  0  0  0  0
   46.2600   34.8450   43.2550 C   0  0  0  0  0  0  0  0  0  0  0  0
   46.3120   33.9550   44.2930 N   0  0  0  0  0  0  0  0  0  0  0  0
   45.5300   34.0830   45.3750 C   0  0  0  0  0  0  0  0  0  0  0  0
   44.6610   35.0950   45.4810 N   0  0  0  0  0  0  0  0  0  0  0  0
   44.9168   33.3119   41.9487 H   0  0  0  0  0  0  0  0  0  0  0  0
   43.5638   32.0266   40.2637 H   0  0  0  0  0  0  0  0  0  0  0  0
   44.4076   31.8484   37.9121 H   0  0  0  0  0  0  0  0  0  0  0  0
   46.0562   32.3420   36.2599 H   0  0  0  0  0  0  0  0  0  0  0  0
   48.2001   33.4245   35.6390 H   0  0  0  0  0  0  0  0  0  0  0  0
   49.5187   34.6800   37.2937 H   0  0  0  0  0  0  0  0  0  0  0  0
   48.7146   34.8950   39.6690 H   0  0  0  0  0  0  0  0  0  0  0  0
   43.8411   36.8357   44.5868 H   0  0  0  0  0  0  0  0  0  0  0  0
   45.2792   36.6630   42.5209 H   0  0  0  0  0  0  0  0  0  0  0  0
   45.6041   33.3451   46.1874 H   0  0  0  0  0  0  0  0  0  0  0  0
  1  2  2  0
  1 11  1  0
  3  2  1  0
  4  3  2  0
  5  4  1  0
  5 10  2  0
  6  5  1  0
  7  6  2  0
  7  8  1  0
  8  9  2  0
  9 10  1  0
 10  1  1  0
 11 14  1  0
 12 17  2  0
 13 12  1  0
 14 13  2  0
 14 15  1  0
 15 16  2  0
 16 17  1  0
  2 18  1  0
  3 19  1  0
  4 20  1  0
  6 21  1  0
  7 22  1  0
  8 23  1  0
  9 24  1  0
 12 25  1  0
 13 26  1  0
 16 27  1  0
M  ISO  8  18  14  19  14  20  14  21  14  22  14  23  14  24  14  25  14
M  ISO  2  26  14  27  14
M  END
>  <minimizedAffinity>  (1) 
-4.74979305

>  <minimizedRMSD>  (1) 
0.826618135

$$$$
