
     RDKit          3D

 26 27  0  0  1  0  0  0  0  0999 V2000
   47.2740   34.0650   42.4620 N   0  0  0  0  0  0  0  0  0  0  0  0
   47.3440   34.7710   41.1910 C   0  0  0  0  0  0  0  0  0  0  0  0
   47.9340   33.9280   40.0970 C   0  0  0  0  0  0  0  0  0  0  0  0
   49.1480   33.2850   40.4330 N   0  0  0  0  0  0  0  0  0  0  0  0
   49.2990   32.8480   41.7620 C   0  0  2  0  0  0  0  0  0  0  0  0
   48.1450   32.9560   42.6680 C   0  0  0  0  0  0  0  0  0  0  0  0
   44.6390   35.8770   44.3960 C   0  0  0  0  0  0  0  0  0  0  0  0
   45.5040   35.5730   43.3170 C   0  0  0  0  0  0  0  0  0  0  0  0
   46.3630   34.4770   43.4590 C   0  0  0  0  0  0  0  0  0  0  0  0
   46.3020   33.7750   44.6400 N   0  0  0  0  0  0  0  0  0  0  0  0
   45.4560   34.1060   45.6420 C   0  0  0  0  0  0  0  0  0  0  0  0
   44.6310   35.1530   45.5170 N   0  0  0  0  0  0  0  0  0  0  0  0
   50.4500   33.6190   42.3600 C   0  0  0  0  0  0  0  0  0  0  0  0
   50.3860   34.8310   42.5170 O   0  0  0  0  0  0  0  0  0  0  0  0
   46.3270   35.0696   40.8968 H   0  0  0  0  0  0  0  0  0  0  0  0
   47.9978   35.6447   41.3294 H   0  0  0  0  0  0  0  0  0  0  0  0
   48.1192   34.5761   39.2277 H   0  0  0  0  0  0  0  0  0  0  0  0
   47.2058   33.1287   39.8951 H   0  0  0  0  0  0  0  0  0  0  0  0
   49.2405   32.4600   39.8233 H   0  0  0  0  0  0  0  0  0  0  0  0
   49.4554   31.7623   41.6799 H   0  0  0  0  0  0  0  0  0  0  0  0
   48.5323   33.0221   43.6954 H   0  0  0  0  0  0  0  0  0  0  0  0
   47.5328   32.0648   42.4657 H   0  0  0  0  0  0  0  0  0  0  0  0
   43.9547   36.7337   44.3078 H   0  0  0  0  0  0  0  0  0  0  0  0
   45.5010   36.1777   42.3982 H   0  0  0  0  0  0  0  0  0  0  0  0
   45.4457   33.5104   46.5667 H   0  0  0  0  0  0  0  0  0  0  0  0
   51.3622   33.0825   42.6600 H   0  0  0  0  0  0  0  0  0  0  0  0
  1  6  1  0
  1  9  1  0
  2  1  1  0
  3  4  1  0
  3  2  1  0
  4  5  1  0
  5 13  1  0
  5  6  1  0
  7 12  2  0
  8  9  2  0
  8  7  1  0
  9 10  1  0
 10 11  2  0
 12 11  1  0
 13 14  2  0
  2 15  1  0
  2 16  1  0
  3 17  1  0
  3 18  1  0
  4 19  1  0
  5 20  1  6
  6 21  1  0
  6 22  1  0
  7 23  1  0
  8 24  1  0
 11 25  1  0
 13 26  1  0
M  ISO  8  15  13  16  13  17  13  18  13  19   5  20  13  21  13  22  13
M  ISO  4  23  14  24  14  25  14  26   6
M  END
>  <minimizedAffinity>  (1) 
-4.5067935

>  <minimizedRMSD>  (1) 
2.00556421

$$$$
