
     RDKit          3D

 37 39  0  0  1  0  0  0  0  0999 V2000
   46.4700   34.0860   42.7090 N   0  0  0  0  0  0  0  0  0  0  0  0
   45.5720   34.5150   41.6520 C   0  0  0  0  0  0  0  0  0  0  0  0
   46.0120   34.0150   40.3130 C   0  0  0  0  0  0  0  0  0  0  0  0
   47.3600   34.2680   39.9950 N   0  0  0  0  0  0  0  0  0  0  0  0
   48.2900   34.1940   41.0630 C   0  0  2  0  0  0  0  0  0  0  0  0
   47.8190   33.7080   42.3780 C   0  0  0  0  0  0  0  0  0  0  0  0
   44.6900   34.7050   45.9490 C   0  0  0  0  0  0  0  0  0  0  0  0
   45.0310   34.8520   44.5930 C   0  0  0  0  0  0  0  0  0  0  0  0
   46.0330   34.0370   44.0620 C   0  0  0  0  0  0  0  0  0  0  0  0
   46.6000   33.1630   44.9200 N   0  0  0  0  0  0  0  0  0  0  0  0
   46.2660   33.0360   46.2120 C   0  0  0  0  0  0  0  0  0  0  0  0
   45.3040   33.8140   46.7230 N   0  0  0  0  0  0  0  0  0  0  0  0
   45.7150   30.1920   45.3340 Br  0  0  0  0  0  0  0  0  0  0  0  0
   46.8010   30.7100   46.8030 C   0  0  0  0  0  0  0  0  0  0  0  0
   46.9380   32.0600   47.0550 C   0  0  0  0  0  0  0  0  0  0  0  0
   47.7210   32.4550   48.1170 C   0  0  0  0  0  0  0  0  0  0  0  0
   48.3650   31.5170   48.9250 C   0  0  0  0  0  0  0  0  0  0  0  0
   48.2240   30.1610   48.6680 C   0  0  0  0  0  0  0  0  0  0  0  0
   47.4390   29.7690   47.6030 C   0  0  0  0  0  0  0  0  0  0  0  0
   48.8910   35.5690   41.2790 C   0  0  0  0  0  0  0  0  0  0  0  0
   50.0740   35.4540   42.0170 F   0  0  0  0  0  0  0  0  0  0  0  0
   48.0100   36.2490   42.0980 F   0  0  0  0  0  0  0  0  0  0  0  0
   49.1690   36.2300   40.1270 F   0  0  0  0  0  0  0  0  0  0  0  0
   44.5638   34.1288   41.8627 H   0  0  0  0  0  0  0  0  0  0  0  0
   45.5762   35.6147   41.6248 H   0  0  0  0  0  0  0  0  0  0  0  0
   45.8540   32.9267   40.2868 H   0  0  0  0  0  0  0  0  0  0  0  0
   45.4137   34.5623   39.5696 H   0  0  0  0  0  0  0  0  0  0  0  0
   47.6470   33.5815   39.2828 H   0  0  0  0  0  0  0  0  0  0  0  0
   48.9967   33.4229   40.7224 H   0  0  0  0  0  0  0  0  0  0  0  0
   47.8774   32.6096   42.3787 H   0  0  0  0  0  0  0  0  0  0  0  0
   48.4678   34.1753   43.1335 H   0  0  0  0  0  0  0  0  0  0  0  0
   43.9002   35.3390   46.3783 H   0  0  0  0  0  0  0  0  0  0  0  0
   44.5188   35.5941   43.9630 H   0  0  0  0  0  0  0  0  0  0  0  0
   47.8407   33.5272   48.3318 H   0  0  0  0  0  0  0  0  0  0  0  0
   48.9862   31.8537   49.7681 H   0  0  0  0  0  0  0  0  0  0  0  0
   48.7272   29.4142   49.2997 H   0  0  0  0  0  0  0  0  0  0  0  0
   47.3165   28.6980   47.3842 H   0  0  0  0  0  0  0  0  0  0  0  0
  1  9  1  0
  2  1  1  0
  3  2  1  0
  4  3  1  0
  4  5  1  0
  5 20  1  0
  5  6  1  0
  6  1  1  0
  7 12  2  0
  8  7  1  0
  9  8  2  0
  9 10  1  0
 10 11  2  0
 11 12  1  0
 11 15  1  0
 13 14  1  0
 14 15  2  0
 14 19  1  0
 15 16  1  0
 16 17  2  0
 18 17  1  0
 19 18  2  0
 20 21  1  0
 20 22  1  0
 23 20  1  0
  2 24  1  0
  2 25  1  0
  3 26  1  0
  3 27  1  0
  4 28  1  0
  5 29  1  6
  6 30  1  0
  6 31  1  0
  7 32  1  0
  8 33  1  0
 16 34  1  0
 17 35  1  0
 18 36  1  0
 19 37  1  0
M  ISO  8  24  13  25  13  26  13  27  13  28   5  29  13  30  13  31  13
M  ISO  6  32  14  33  14  34  14  35  14  36  14  37  14
M  END
>  <minimizedAffinity>  (1) 
-6.37596703

>  <minimizedRMSD>  (1) 
1.71557689

$$$$
