
     RDKit          3D

 30 31  0  0  1  0  0  0  0  0999 V2000
   47.7400   33.3500   43.1790 N   0  0  0  0  0  0  0  0  0  0  0  0
   47.4090   32.4910   42.0650 C   0  0  0  0  0  0  0  0  0  0  0  0
   48.6180   32.1730   41.2380 C   0  0  0  0  0  0  0  0  0  0  0  0
   49.3690   33.3060   40.8380 N   0  0  0  0  0  0  0  0  0  0  0  0
   49.4710   34.3760   41.7560 C   0  0  2  0  0  0  0  0  0  0  0  0
   48.9260   34.1620   43.1110 C   0  0  0  0  0  0  0  0  0  0  0  0
   45.1350   34.2670   45.7130 C   0  0  0  0  0  0  0  0  0  0  0  0
   45.8760   34.3320   44.5140 C   0  0  0  0  0  0  0  0  0  0  0  0
   46.9120   33.4030   44.3350 C   0  0  0  0  0  0  0  0  0  0  0  0
   47.1350   32.4980   45.3350 N   0  0  0  0  0  0  0  0  0  0  0  0
   46.3910   32.4850   46.4640 C   0  0  0  0  0  0  0  0  0  0  0  0
   45.3970   33.3630   46.6540 N   0  0  0  0  0  0  0  0  0  0  0  0
   46.6960   31.4680   47.5080 C   0  0  0  0  0  0  0  0  0  0  0  0
   48.7810   35.5930   41.1730 C   0  0  0  0  0  0  0  0  0  0  0  0
   49.5350   36.7380   41.4190 F   0  0  0  0  0  0  0  0  0  0  0  0
   47.6190   35.7650   41.9090 F   0  0  0  0  0  0  0  0  0  0  0  0
   48.5650   35.4930   39.8270 F   0  0  0  0  0  0  0  0  0  0  0  0
   46.9833   31.5531   42.4511 H   0  0  0  0  0  0  0  0  0  0  0  0
   46.6834   33.0172   41.4273 H   0  0  0  0  0  0  0  0  0  0  0  0
   49.2745   31.5158   41.8272 H   0  0  0  0  0  0  0  0  0  0  0  0
   48.2512   31.6984   40.3159 H   0  0  0  0  0  0  0  0  0  0  0  0
   50.3254   32.9850   40.6301 H   0  0  0  0  0  0  0  0  0  0  0  0
   50.5554   34.4957   41.8965 H   0  0  0  0  0  0  0  0  0  0  0  0
   49.7049   33.6762   43.7171 H   0  0  0  0  0  0  0  0  0  0  0  0
   48.6338   35.1561   43.4802 H   0  0  0  0  0  0  0  0  0  0  0  0
   44.3169   34.9844   45.8747 H   0  0  0  0  0  0  0  0  0  0  0  0
   45.6491   35.0856   43.7455 H   0  0  0  0  0  0  0  0  0  0  0  0
   46.5622   31.9141   48.5046 H   0  0  0  0  0  0  0  0  0  0  0  0
   46.0153   30.6113   47.3953 H   0  0  0  0  0  0  0  0  0  0  0  0
   47.7358   31.1273   47.3953 H   0  0  0  0  0  0  0  0  0  0  0  0
  1  9  1  0
  2  1  1  0
  3  2  1  0
  4  3  1  0
  4  5  1  0
  5  6  1  0
  6  1  1  0
  7 12  2  0
  8  7  1  0
  9  8  2  0
  9 10  1  0
 10 11  2  0
 11 12  1  0
 11 13  1  0
 14 15  1  0
 14  5  1  0
 14 16  1  0
 17 14  1  0
  2 18  1  0
  2 19  1  0
  3 20  1  0
  3 21  1  0
  4 22  1  0
  5 23  1  1
  6 24  1  0
  6 25  1  0
  7 26  1  0
  8 27  1  0
 13 28  1  0
 13 29  1  0
 13 30  1  0
M  ISO  8  18  13  19  13  20  13  21  13  22   5  23  13  24  13  25  13
M  ISO  5  26  14  27  14  28   8  29   8  30   8
M  END
>  <minimizedAffinity>  (1) 
-5.33303213

>  <minimizedRMSD>  (1) 
0.0144278547

$$$$
