
     RDKit          3D

 28 29  0  0  1  0  0  0  0  0999 V2000
   47.7550   33.3430   43.1850 N   0  0  0  0  0  0  0  0  0  0  0  0
   47.4270   32.4840   42.0630 C   0  0  0  0  0  0  0  0  0  0  0  0
   48.6260   32.1790   41.2140 C   0  0  0  0  0  0  0  0  0  0  0  0
   49.3710   33.3080   40.8280 N   0  0  0  0  0  0  0  0  0  0  0  0
   49.4720   34.3680   41.7560 C   0  0  2  0  0  0  0  0  0  0  0  0
   48.9340   34.1490   43.1080 C   0  0  0  0  0  0  0  0  0  0  0  0
   45.1590   34.2400   45.7170 C   0  0  0  0  0  0  0  0  0  0  0  0
   45.8930   34.3140   44.5340 C   0  0  0  0  0  0  0  0  0  0  0  0
   46.9260   33.3880   44.3400 C   0  0  0  0  0  0  0  0  0  0  0  0
   47.1400   32.4770   45.3280 N   0  0  0  0  0  0  0  0  0  0  0  0
   46.4020   32.4420   46.4620 C   0  0  0  0  0  0  0  0  0  0  0  0
   45.4090   33.3310   46.6500 N   0  0  0  0  0  0  0  0  0  0  0  0
   46.7600   31.2040   47.7070 S   0  0  0  0  0  0  0  0  0  0  0  0
   48.7810   35.6000   41.1850 C   0  0  0  0  0  0  0  0  0  0  0  0
   49.5330   36.7340   41.4340 F   0  0  0  0  0  0  0  0  0  0  0  0
   47.6160   35.7500   41.9070 F   0  0  0  0  0  0  0  0  0  0  0  0
   48.5570   35.5050   39.8380 F   0  0  0  0  0  0  0  0  0  0  0  0
   47.0160   31.5392   42.4483 H   0  0  0  0  0  0  0  0  0  0  0  0
   46.6942   33.0126   41.4356 H   0  0  0  0  0  0  0  0  0  0  0  0
   49.2877   31.5089   41.7824 H   0  0  0  0  0  0  0  0  0  0  0  0
   48.2453   31.7243   40.2876 H   0  0  0  0  0  0  0  0  0  0  0  0
   50.3276   32.9897   40.6171 H   0  0  0  0  0  0  0  0  0  0  0  0
   50.5577   34.4786   41.8937 H   0  0  0  0  0  0  0  0  0  0  0  0
   49.7164   33.6610   43.7078 H   0  0  0  0  0  0  0  0  0  0  0  0
   48.6416   35.1427   43.4781 H   0  0  0  0  0  0  0  0  0  0  0  0
   44.3443   34.9604   45.8823 H   0  0  0  0  0  0  0  0  0  0  0  0
   45.6675   35.0775   43.7749 H   0  0  0  0  0  0  0  0  0  0  0  0
   46.6019   31.7506   48.9532 H   0  0  0  0  0  0  0  0  0  0  0  0
  1  9  1  0
  2  1  1  0
  3  2  1  0
  4  3  1  0
  4  5  1  0
  5  6  1  0
  6  1  1  0
  7 12  2  0
  8  7  1  0
  9  8  2  0
  9 10  1  0
 10 11  2  0
 11 12  1  0
 11 13  1  0
 14 15  1  0
 14  5  1  0
 14 16  1  0
 17 14  1  0
  2 18  1  0
  2 19  1  0
  3 20  1  0
  3 21  1  0
  4 22  1  0
  5 23  1  1
  6 24  1  0
  6 25  1  0
  7 26  1  0
  8 27  1  0
 13 28  1  0
M  ISO  8  18  13  19  13  20  13  21  13  22   5  23  13  24  13  25  13
M  ISO  3  26  14  27  14  28  11
M  END
>  <minimizedAffinity>  (1) 
-5.3008852

>  <minimizedRMSD>  (1) 
0.0113717057

$$$$
