
     RDKit          3D

 49 53  0  0  1  0  0  0  0  0999 V2000
   44.7220   35.0660   45.2570 C   0  0  0  0  0  0  0  0  0  0  0  0
   45.5140   34.9400   44.1050 C   0  0  0  0  0  0  0  0  0  0  0  0
   46.5010   33.9530   44.0760 C   0  0  0  0  0  0  0  0  0  0  0  0
   46.6050   33.1860   45.1930 N   0  0  0  0  0  0  0  0  0  0  0  0
   45.8370   33.3250   46.2820 C   0  0  0  0  0  0  0  0  0  0  0  0
   44.8850   34.2780   46.3090 N   0  0  0  0  0  0  0  0  0  0  0  0
   47.3740   33.7130   42.9740 N   0  0  0  0  0  0  0  0  0  0  0  0
   46.9510   32.8570   41.8890 C   0  0  0  0  0  0  0  0  0  0  0  0
   48.1390   32.3340   41.1180 C   0  0  0  0  0  0  0  0  0  0  0  0
   49.0650   33.3130   40.7130 N   0  0  0  0  0  0  0  0  0  0  0  0
   49.2930   34.3860   41.6050 C   0  0  2  0  0  0  0  0  0  0  0  0
   48.6710   34.3200   42.9420 C   0  0  0  0  0  0  0  0  0  0  0  0
   48.8390   35.6680   40.9420 C   0  0  0  0  0  0  0  0  0  0  0  0
   49.6490   36.7280   41.3500 F   0  0  0  0  0  0  0  0  0  0  0  0
   47.5720   35.9390   41.4500 F   0  0  0  0  0  0  0  0  0  0  0  0
   48.8690   35.6220   39.5830 F   0  0  0  0  0  0  0  0  0  0  0  0
   46.0280   32.4520   47.4300 C   0  0  0  0  0  0  0  0  0  0  0  0
   44.9400   32.0250   48.1590 C   0  0  0  0  0  0  0  0  0  0  0  0
   45.1770   31.1870   49.2530 C   0  0  0  0  0  0  0  0  0  0  0  0
   46.4790   30.8540   49.5170 C   0  0  0  0  0  0  0  0  0  0  0  0
   47.5620   31.2770   48.7950 C   0  0  0  0  0  0  0  0  0  0  0  0
   47.3110   32.0870   47.7420 N   0  0  0  0  0  0  0  0  0  0  0  0
   49.3300   29.6250   48.8200 C   0  0  0  0  0  0  0  0  0  0  0  0
   48.9500   30.9260   49.0740 C   0  0  0  0  0  0  0  0  0  0  0  0
   49.8520   31.8330   49.5680 C   0  0  0  0  0  0  0  0  0  0  0  0
   51.1380   31.3840   49.7920 C   0  0  0  0  0  0  0  0  0  0  0  0
   52.1890   32.0880   50.2680 N   0  0  0  0  0  0  0  0  0  0  0  0
   53.2360   31.2400   50.3190 C   0  0  0  0  0  0  0  0  0  0  0  0
   52.8890   30.0130   49.8870 N   0  0  0  0  0  0  0  0  0  0  0  0
   51.5690   30.1040   49.5560 C   0  0  0  0  0  0  0  0  0  0  0  0
   50.6390   29.1880   49.0520 C   0  0  0  0  0  0  0  0  0  0  0  0
   43.9430   35.8421   45.2870 H   0  0  0  0  0  0  0  0  0  0  0  0
   45.3602   35.6053   43.2426 H   0  0  0  0  0  0  0  0  0  0  0  0
   46.3866   32.0071   42.3003 H   0  0  0  0  0  0  0  0  0  0  0  0
   46.3200   33.4437   41.2052 H   0  0  0  0  0  0  0  0  0  0  0  0
   48.6664   31.6088   41.7551 H   0  0  0  0  0  0  0  0  0  0  0  0
   47.7353   31.8932   40.1946 H   0  0  0  0  0  0  0  0  0  0  0  0
   49.9673   32.8418   40.5561 H   0  0  0  0  0  0  0  0  0  0  0  0
   50.3734   34.3325   41.8049 H   0  0  0  0  0  0  0  0  0  0  0  0
   49.3357   33.7410   43.6000 H   0  0  0  0  0  0  0  0  0  0  0  0
   48.5329   35.3609   43.2699 H   0  0  0  0  0  0  0  0  0  0  0  0
   43.9189   32.3329   47.8895 H   0  0  0  0  0  0  0  0  0  0  0  0
   44.3520   30.8108   49.8757 H   0  0  0  0  0  0  0  0  0  0  0  0
   46.6692   30.1948   50.3768 H   0  0  0  0  0  0  0  0  0  0  0  0
   48.5878   28.9150   48.4263 H   0  0  0  0  0  0  0  0  0  0  0  0
   49.5632   32.8737   49.7768 H   0  0  0  0  0  0  0  0  0  0  0  0
   52.1899   33.0815   50.5396 H   0  0  0  0  0  0  0  0  0  0  0  0
   54.2423   31.5148   50.6680 H   0  0  0  0  0  0  0  0  0  0  0  0
   50.9302   28.1481   48.8429 H   0  0  0  0  0  0  0  0  0  0  0  0
  1  6  2  0
  2  1  1  0
  3  2  2  0
  3  4  1  0
  4  5  2  0
  5  6  1  0
  5 17  1  0
  7  3  1  0
  8  7  1  0
  9  8  1  0
 10  9  1  0
 10 11  1  0
 11 12  1  0
 12  7  1  0
 13 14  1  0
 13 15  1  0
 13 11  1  0
 16 13  1  0
 17 22  1  0
 17 18  2  0
 18 19  1  0
 19 20  2  0
 21 24  1  0
 21 20  1  0
 22 21  2  0
 23 31  2  0
 23 24  1  0
 24 25  2  0
 25 26  1  0
 26 27  1  0
 27 28  1  0
 29 28  2  0
 30 26  2  0
 30 29  1  0
 31 30  1  0
  1 32  1  0
  2 33  1  0
  8 34  1  0
  8 35  1  0
  9 36  1  0
  9 37  1  0
 10 38  1  0
 11 39  1  1
 12 40  1  0
 12 41  1  0
 18 42  1  0
 19 43  1  0
 20 44  1  0
 23 45  1  0
 25 46  1  0
 27 47  1  0
 28 48  1  0
 31 49  1  0
M  ISO  8  32  14  33  14  34  13  35  13  36  13  37  13  38   5  39  13
M  ISO  8  40  13  41  13  42  14  43  14  44  14  45  14  46  14  47   9
M  ISO  2  48  14  49  14
M  END
>  <minimizedAffinity>  (1) 
-7.74848318

>  <minimizedRMSD>  (1) 
0.401411325

$$$$
