
     RDKit          3D

 51 54  0  0  1  0  0  0  0  0999 V2000
   44.7220   35.0430   45.2590 C   0  0  0  0  0  0  0  0  0  0  0  0
   45.5030   34.9240   44.1010 C   0  0  0  0  0  0  0  0  0  0  0  0
   46.4950   33.9460   44.0650 C   0  0  0  0  0  0  0  0  0  0  0  0
   46.6180   33.1750   45.1900 N   0  0  0  0  0  0  0  0  0  0  0  0
   45.8540   33.3140   46.2860 C   0  0  0  0  0  0  0  0  0  0  0  0
   44.8960   34.2630   46.3140 N   0  0  0  0  0  0  0  0  0  0  0  0
   46.0660   32.4420   47.4320 C   0  0  0  0  0  0  0  0  0  0  0  0
   44.9780   32.0540   48.1950 C   0  0  0  0  0  0  0  0  0  0  0  0
   45.2300   31.2150   49.2860 C   0  0  0  0  0  0  0  0  0  0  0  0
   46.5340   30.8530   49.5020 C   0  0  0  0  0  0  0  0  0  0  0  0
   47.6140   31.2290   48.7570 C   0  0  0  0  0  0  0  0  0  0  0  0
   47.3290   32.0460   47.7020 N   0  0  0  0  0  0  0  0  0  0  0  0
   48.9450   30.8040   49.0530 N   0  0  0  0  0  0  0  0  0  0  0  0
   49.3120   29.4650   48.7370 C   0  0  0  0  0  0  0  0  0  0  0  0
   50.8020   29.2310   48.7140 C   0  0  0  0  0  0  0  0  0  0  0  0
   51.4310   29.9460   49.9050 C   0  0  0  0  0  0  0  0  0  0  0  0
   51.2790   31.4270   49.5920 C   0  0  0  0  0  0  0  0  0  0  0  0
   49.8280   31.7550   49.6490 C   0  0  0  0  0  0  0  0  0  0  0  0
   47.3610   33.7070   42.9650 N   0  0  0  0  0  0  0  0  0  0  0  0
   46.9420   32.8670   41.8660 C   0  0  0  0  0  0  0  0  0  0  0  0
   48.1240   32.3450   41.0880 C   0  0  0  0  0  0  0  0  0  0  0  0
   49.0560   33.3300   40.6980 N   0  0  0  0  0  0  0  0  0  0  0  0
   49.3020   34.3860   41.6080 C   0  0  2  0  0  0  0  0  0  0  0  0
   48.6710   34.3020   42.9330 C   0  0  0  0  0  0  0  0  0  0  0  0
   48.8520   35.6860   40.9630 C   0  0  0  0  0  0  0  0  0  0  0  0
   49.6560   36.7430   41.3810 F   0  0  0  0  0  0  0  0  0  0  0  0
   47.5940   35.9510   41.4710 F   0  0  0  0  0  0  0  0  0  0  0  0
   48.8710   35.6470   39.5950 F   0  0  0  0  0  0  0  0  0  0  0  0
   43.9364   35.8122   45.2920 H   0  0  0  0  0  0  0  0  0  0  0  0
   45.3365   35.5879   43.2399 H   0  0  0  0  0  0  0  0  0  0  0  0
   43.9590   32.3909   47.9539 H   0  0  0  0  0  0  0  0  0  0  0  0
   44.4190   30.8623   49.9401 H   0  0  0  0  0  0  0  0  0  0  0  0
   46.7296   30.1941   50.3609 H   0  0  0  0  0  0  0  0  0  0  0  0
   48.8677   28.7969   49.4895 H   0  0  0  0  0  0  0  0  0  0  0  0
   48.9403   29.2622   47.7217 H   0  0  0  0  0  0  0  0  0  0  0  0
   51.0078   28.1524   48.7797 H   0  0  0  0  0  0  0  0  0  0  0  0
   51.2268   29.6211   47.7773 H   0  0  0  0  0  0  0  0  0  0  0  0
   50.9018   29.6899   50.8347 H   0  0  0  0  0  0  0  0  0  0  0  0
   52.4821   29.6585   50.0548 H   0  0  0  0  0  0  0  0  0  0  0  0
   51.6720   31.6398   48.5869 H   0  0  0  0  0  0  0  0  0  0  0  0
   51.8400   32.0338   50.3180 H   0  0  0  0  0  0  0  0  0  0  0  0
   49.6806   32.7174   49.1370 H   0  0  0  0  0  0  0  0  0  0  0  0
   49.5699   31.7682   50.7182 H   0  0  0  0  0  0  0  0  0  0  0  0
   46.3718   32.0149   42.2645 H   0  0  0  0  0  0  0  0  0  0  0  0
   46.3211   33.4703   41.1874 H   0  0  0  0  0  0  0  0  0  0  0  0
   48.6472   31.6073   41.7141 H   0  0  0  0  0  0  0  0  0  0  0  0
   47.7192   31.9161   40.1595 H   0  0  0  0  0  0  0  0  0  0  0  0
   49.9536   32.8555   40.5244 H   0  0  0  0  0  0  0  0  0  0  0  0
   50.3819   34.3230   41.8074 H   0  0  0  0  0  0  0  0  0  0  0  0
   49.3285   33.7061   43.5831 H   0  0  0  0  0  0  0  0  0  0  0  0
   48.5358   35.3415   43.2666 H   0  0  0  0  0  0  0  0  0  0  0  0
  1  6  2  0
  2  1  1  0
  3  2  2  0
  3  4  1  0
  4  5  2  0
  5  6  1  0
  5  7  1  0
  7 12  1  0
  7  8  2  0
  8  9  1  0
  9 10  2  0
 11 13  1  0
 11 10  1  0
 12 11  2  0
 13 18  1  0
 14 13  1  0
 15 14  1  0
 15 16  1  0
 17 18  1  0
 17 16  1  0
 19  3  1  0
 20 19  1  0
 21 20  1  0
 22 21  1  0
 22 23  1  0
 23 24  1  0
 24 19  1  0
 25 26  1  0
 25 27  1  0
 25 23  1  0
 28 25  1  0
  1 29  1  0
  2 30  1  0
  8 31  1  0
  9 32  1  0
 10 33  1  0
 14 34  1  0
 14 35  1  0
 15 36  1  0
 15 37  1  0
 16 38  1  0
 16 39  1  0
 17 40  1  0
 17 41  1  0
 18 42  1  0
 18 43  1  0
 20 44  1  0
 20 45  1  0
 21 46  1  0
 21 47  1  0
 22 48  1  0
 23 49  1  1
 24 50  1  0
 24 51  1  0
M  ISO  8  29  14  30  14  31  14  32  14  33  14  34  13  35  13  36  13
M  ISO  8  37  13  38  13  39  13  40  13  41  13  42  13  43  13  44  13
M  ISO  7  45  13  46  13  47  13  48   5  49  13  50  13  51  13
M  END
>  <minimizedAffinity>  (1) 
-7.64917755

>  <minimizedRMSD>  (1) 
0.0744308531

$$$$
