
     RDKit          3D

 50 53  0  0  1  0  0  0  0  0999 V2000
   44.7310   35.0750   45.3020 C   0  0  0  0  0  0  0  0  0  0  0  0
   45.5300   34.9480   44.1540 C   0  0  0  0  0  0  0  0  0  0  0  0
   46.5020   33.9320   44.1210 C   0  0  0  0  0  0  0  0  0  0  0  0
   46.5750   33.1540   45.2280 N   0  0  0  0  0  0  0  0  0  0  0  0
   45.7980   33.2960   46.3130 C   0  0  0  0  0  0  0  0  0  0  0  0
   44.8640   34.2750   46.3410 N   0  0  0  0  0  0  0  0  0  0  0  0
   45.9590   32.4030   47.4520 C   0  0  0  0  0  0  0  0  0  0  0  0
   44.8510   32.0750   48.2170 C   0  0  0  0  0  0  0  0  0  0  0  0
   45.0600   31.2150   49.2980 C   0  0  0  0  0  0  0  0  0  0  0  0
   46.3400   30.7700   49.5100 C   0  0  0  0  0  0  0  0  0  0  0  0
   47.4330   31.0950   48.7540 C   0  0  0  0  0  0  0  0  0  0  0  0
   47.2190   31.9290   47.7090 N   0  0  0  0  0  0  0  0  0  0  0  0
   48.6920   30.5710   49.0770 N   0  0  0  0  0  0  0  0  0  0  0  0
   49.0820   29.3110   48.4780 C   0  0  0  0  0  0  0  0  0  0  0  0
   50.5690   29.1160   48.6530 C   0  0  0  0  0  0  0  0  0  0  0  0
   50.9940   29.1920   50.0180 N   0  0  0  0  0  0  0  0  0  0  0  0
   50.2460   30.1390   50.8090 C   0  0  0  0  0  0  0  0  0  0  0  0
   49.6160   31.2320   49.9800 C   0  0  0  0  0  0  0  0  0  0  0  0
   47.3700   33.6980   43.0270 N   0  0  0  0  0  0  0  0  0  0  0  0
   46.9760   32.8290   41.9480 C   0  0  0  0  0  0  0  0  0  0  0  0
   48.1660   32.3070   41.1850 C   0  0  0  0  0  0  0  0  0  0  0  0
   49.0900   33.2860   40.7770 N   0  0  0  0  0  0  0  0  0  0  0  0
   49.2990   34.3870   41.6670 C   0  0  2  0  0  0  0  0  0  0  0  0
   48.6590   34.3320   42.9910 C   0  0  0  0  0  0  0  0  0  0  0  0
   48.8230   35.6560   40.9840 C   0  0  0  0  0  0  0  0  0  0  0  0
   49.6400   36.7270   41.3620 F   0  0  0  0  0  0  0  0  0  0  0  0
   47.5730   35.9260   41.4980 F   0  0  0  0  0  0  0  0  0  0  0  0
   48.8440   35.5850   39.6270 F   0  0  0  0  0  0  0  0  0  0  0  0
   43.9694   35.8680   45.3351 H   0  0  0  0  0  0  0  0  0  0  0  0
   45.3985   35.6281   43.2995 H   0  0  0  0  0  0  0  0  0  0  0  0
   43.8526   32.4735   47.9838 H   0  0  0  0  0  0  0  0  0  0  0  0
   44.2314   30.9072   49.9527 H   0  0  0  0  0  0  0  0  0  0  0  0
   46.5018   30.0930   50.3618 H   0  0  0  0  0  0  0  0  0  0  0  0
   48.8362   29.3219   47.4059 H   0  0  0  0  0  0  0  0  0  0  0  0
   48.5416   28.4870   48.9669 H   0  0  0  0  0  0  0  0  0  0  0  0
   50.8401   28.1259   48.2577 H   0  0  0  0  0  0  0  0  0  0  0  0
   51.0703   29.9309   48.1102 H   0  0  0  0  0  0  0  0  0  0  0  0
   50.8895   28.2596   50.4430 H   0  0  0  0  0  0  0  0  0  0  0  0
   49.4490   29.5991   51.3413 H   0  0  0  0  0  0  0  0  0  0  0  0
   50.9518   30.6180   51.5035 H   0  0  0  0  0  0  0  0  0  0  0  0
   50.3869   31.7711   49.4099 H   0  0  0  0  0  0  0  0  0  0  0  0
   49.1008   31.9697   50.6127 H   0  0  0  0  0  0  0  0  0  0  0  0
   46.4178   31.9769   42.3631 H   0  0  0  0  0  0  0  0  0  0  0  0
   46.3525   33.4098   41.2523 H   0  0  0  0  0  0  0  0  0  0  0  0
   48.6939   31.5872   41.8279 H   0  0  0  0  0  0  0  0  0  0  0  0
   47.7663   31.8601   40.2628 H   0  0  0  0  0  0  0  0  0  0  0  0
   49.9980   32.8195   40.6399 H   0  0  0  0  0  0  0  0  0  0  0  0
   50.3786   34.3515   41.8749 H   0  0  0  0  0  0  0  0  0  0  0  0
   49.3275   33.7803   43.6683 H   0  0  0  0  0  0  0  0  0  0  0  0
   48.4909   35.3772   43.2899 H   0  0  0  0  0  0  0  0  0  0  0  0
  1  6  2  0
  2  1  1  0
  3  2  2  0
  3  4  1  0
  4  5  2  0
  5  6  1  0
  5  7  1  0
  7 12  1  0
  7  8  2  0
  8  9  1  0
  9 10  2  0
 11 13  1  0
 11 10  1  0
 12 11  2  0
 13 18  1  0
 14 15  1  0
 14 13  1  0
 15 16  1  0
 16 17  1  0
 18 17  1  0
 19  3  1  0
 20 19  1  0
 21 20  1  0
 22 21  1  0
 22 23  1  0
 23 24  1  0
 24 19  1  0
 25 26  1  0
 25 27  1  0
 25 23  1  0
 28 25  1  0
  1 29  1  0
  2 30  1  0
  8 31  1  0
  9 32  1  0
 10 33  1  0
 14 34  1  0
 14 35  1  0
 15 36  1  0
 15 37  1  0
 16 38  1  0
 17 39  1  0
 17 40  1  0
 18 41  1  0
 18 42  1  0
 20 43  1  0
 20 44  1  0
 21 45  1  0
 21 46  1  0
 22 47  1  0
 23 48  1  1
 24 49  1  0
 24 50  1  0
M  ISO  8  29  14  30  14  31  14  32  14  33  14  34  13  35  13  36  13
M  ISO  8  37  13  38   5  39  13  40  13  41  13  42  13  43  13  44  13
M  ISO  6  45  13  46  13  47   5  48  13  49  13  50  13
M  END
>  <minimizedAffinity>  (1) 
-7.62952995

>  <minimizedRMSD>  (1) 
0.143436149

$$$$
