
     RDKit          3D

 21 22  0  0  0  0  0  0  0  0999 V2000
   47.0400   34.7090   41.7800 S   0  0  0  0  0  0  0  0  0  0  0  0
   44.4900   35.9560   44.6960 C   0  0  0  0  0  0  0  0  0  0  0  0
   45.2040   35.8830   43.4840 C   0  0  0  0  0  0  0  0  0  0  0  0
   46.1180   34.8360   43.2950 C   0  0  0  0  0  0  0  0  0  0  0  0
   46.2560   33.9460   44.3080 N   0  0  0  0  0  0  0  0  0  0  0  0
   45.5630   34.0370   45.4530 C   0  0  0  0  0  0  0  0  0  0  0  0
   44.6880   35.0300   45.6510 N   0  0  0  0  0  0  0  0  0  0  0  0
   49.6930   35.6950   42.4910 F   0  0  0  0  0  0  0  0  0  0  0  0
   49.6300   34.3600   42.2560 C   0  0  0  0  0  0  0  0  0  0  0  0
   48.4700   33.6800   41.9030 C   0  0  0  0  0  0  0  0  0  0  0  0
   48.5600   32.3150   41.6950 C   0  0  0  0  0  0  0  0  0  0  0  0
   49.7640   31.6580   41.8340 C   0  0  0  0  0  0  0  0  0  0  0  0
   50.9080   32.3410   42.1840 C   0  0  0  0  0  0  0  0  0  0  0  0
   50.8340   33.6930   42.3940 C   0  0  0  0  0  0  0  0  0  0  0  0
   43.7700   36.7710   44.8615 H   0  0  0  0  0  0  0  0  0  0  0  0
   45.0471   36.6359   42.6975 H   0  0  0  0  0  0  0  0  0  0  0  0
   45.7162   33.2845   46.2406 H   0  0  0  0  0  0  0  0  0  0  0  0
   47.6602   31.7474   41.4154 H   0  0  0  0  0  0  0  0  0  0  0  0
   49.8119   30.5724   41.6629 H   0  0  0  0  0  0  0  0  0  0  0  0
   51.8650   31.8098   42.2931 H   0  0  0  0  0  0  0  0  0  0  0  0
   51.7388   34.2522   42.6744 H   0  0  0  0  0  0  0  0  0  0  0  0
  1 10  1  0
  1  4  1  0
  2  7  2  0
  3  2  1  0
  4  3  2  0
  4  5  1  0
  5  6  2  0
  6  7  1  0
  9 14  2  0
  9  8  1  0
 10  9  1  0
 11 12  1  0
 11 10  2  0
 12 13  2  0
 13 14  1  0
  2 15  1  0
  3 16  1  0
  6 17  1  0
 11 18  1  0
 12 19  1  0
 13 20  1  0
 14 21  1  0
M  ISO  7  15  14  16  14  17  14  18  14  19  14  20  14  21  14
M  END
>  <minimizedAffinity>  (1) 
-4.66519213

>  <minimizedRMSD>  (1) 
2.39320374

$$$$
