
     RDKit          3D

 44 47  0  0  1  0  0  0  0  0999 V2000
   44.7130   35.0580   45.2550 C   0  0  0  0  0  0  0  0  0  0  0  0
   45.4980   34.9360   44.0920 C   0  0  0  0  0  0  0  0  0  0  0  0
   46.5040   33.9470   44.0620 C   0  0  0  0  0  0  0  0  0  0  0  0
   46.6150   33.1950   45.1870 N   0  0  0  0  0  0  0  0  0  0  0  0
   45.8560   33.3310   46.2850 C   0  0  0  0  0  0  0  0  0  0  0  0
   44.8930   34.2800   46.3090 N   0  0  0  0  0  0  0  0  0  0  0  0
   47.3620   33.7110   42.9670 N   0  0  0  0  0  0  0  0  0  0  0  0
   46.9450   32.8660   41.8670 C   0  0  0  0  0  0  0  0  0  0  0  0
   48.1210   32.3390   41.0870 C   0  0  0  0  0  0  0  0  0  0  0  0
   49.0640   33.3040   40.6980 N   0  0  0  0  0  0  0  0  0  0  0  0
   49.2950   34.3780   41.5950 C   0  0  2  0  0  0  0  0  0  0  0  0
   48.6720   34.3110   42.9330 C   0  0  0  0  0  0  0  0  0  0  0  0
   48.8520   35.6790   40.9500 C   0  0  0  0  0  0  0  0  0  0  0  0
   49.6520   36.7310   41.3610 F   0  0  0  0  0  0  0  0  0  0  0  0
   47.5790   35.9420   41.4490 F   0  0  0  0  0  0  0  0  0  0  0  0
   48.8670   35.6320   39.5840 F   0  0  0  0  0  0  0  0  0  0  0  0
   46.0690   32.4620   47.4360 C   0  0  0  0  0  0  0  0  0  0  0  0
   44.9710   32.0160   48.1620 C   0  0  0  0  0  0  0  0  0  0  0  0
   45.2150   31.1890   49.2560 C   0  0  0  0  0  0  0  0  0  0  0  0
   46.5370   30.8850   49.5200 C   0  0  0  0  0  0  0  0  0  0  0  0
   47.6230   31.3240   48.8030 C   0  0  0  0  0  0  0  0  0  0  0  0
   47.3550   32.1260   47.7460 N   0  0  0  0  0  0  0  0  0  0  0  0
   48.9440   30.9260   49.1940 C   0  0  0  0  0  0  0  0  0  0  0  0
   49.9070   31.8180   49.6230 C   0  0  0  0  0  0  0  0  0  0  0  0
   51.1460   31.2930   49.9710 C   0  0  0  0  0  0  0  0  0  0  0  0
   51.4090   29.9570   49.8950 N   0  0  0  0  0  0  0  0  0  0  0  0
   50.4580   29.1140   49.4760 C   0  0  0  0  0  0  0  0  0  0  0  0
   49.2470   29.6180   49.1350 N   0  0  0  0  0  0  0  0  0  0  0  0
   43.9251   35.8249   45.2876 H   0  0  0  0  0  0  0  0  0  0  0  0
   45.3309   35.5958   43.2279 H   0  0  0  0  0  0  0  0  0  0  0  0
   46.3744   32.0155   42.2683 H   0  0  0  0  0  0  0  0  0  0  0  0
   46.3281   33.4714   41.1866 H   0  0  0  0  0  0  0  0  0  0  0  0
   48.6355   31.5930   41.7105 H   0  0  0  0  0  0  0  0  0  0  0  0
   47.7074   31.9251   40.1556 H   0  0  0  0  0  0  0  0  0  0  0  0
   49.9621   32.8205   40.5546 H   0  0  0  0  0  0  0  0  0  0  0  0
   50.3769   34.3109   41.7823 H   0  0  0  0  0  0  0  0  0  0  0  0
   49.3329   33.7242   43.5879 H   0  0  0  0  0  0  0  0  0  0  0  0
   48.5413   35.3521   43.2630 H   0  0  0  0  0  0  0  0  0  0  0  0
   43.9471   32.3054   47.8830 H   0  0  0  0  0  0  0  0  0  0  0  0
   44.3967   30.7977   49.8783 H   0  0  0  0  0  0  0  0  0  0  0  0
   46.7376   30.2324   50.3824 H   0  0  0  0  0  0  0  0  0  0  0  0
   49.7024   32.8969   49.6865 H   0  0  0  0  0  0  0  0  0  0  0  0
   51.9369   31.9745   50.3176 H   0  0  0  0  0  0  0  0  0  0  0  0
   50.6551   28.0338   49.4097 H   0  0  0  0  0  0  0  0  0  0  0  0
  1  6  2  0
  2  1  1  0
  3  2  2  0
  3  4  1  0
  4  5  2  0
  5  6  1  0
  5 17  1  0
  7  3  1  0
  8  7  1  0
  9  8  1  0
 10  9  1  0
 10 11  1  0
 11 12  1  0
 12  7  1  0
 13 14  1  0
 13 15  1  0
 13 11  1  0
 16 13  1  0
 17 22  1  0
 17 18  2  0
 18 19  1  0
 19 20  2  0
 21 23  1  0
 21 20  1  0
 22 21  2  0
 23 24  2  0
 24 25  1  0
 26 25  2  0
 27 26  1  0
 28 23  1  0
 28 27  2  0
  1 29  1  0
  2 30  1  0
  8 31  1  0
  8 32  1  0
  9 33  1  0
  9 34  1  0
 10 35  1  0
 11 36  1  1
 12 37  1  0
 12 38  1  0
 18 39  1  0
 19 40  1  0
 20 41  1  0
 24 42  1  0
 25 43  1  0
 27 44  1  0
M  ISO  8  29  14  30  14  31  13  32  13  33  13  34  13  35   5  36  13
M  ISO  8  37  13  38  13  39  14  40  14  41  14  42  14  43  14  44  14
M  END
>  <minimizedAffinity>  (1) 
-7.29215956

>  <minimizedRMSD>  (1) 
0.356334269

$$$$
