
     RDKit          3D

 39 41  0  0  1  0  0  0  0  0999 V2000
   44.7190   35.0840   45.3530 C   0  0  0  0  0  0  0  0  0  0  0  0
   45.5140   34.9620   44.2030 C   0  0  0  0  0  0  0  0  0  0  0  0
   46.4780   33.9500   44.1620 C   0  0  0  0  0  0  0  0  0  0  0  0
   46.5690   33.1510   45.2590 N   0  0  0  0  0  0  0  0  0  0  0  0
   45.7800   33.3030   46.3500 C   0  0  0  0  0  0  0  0  0  0  0  0
   44.8540   34.2730   46.3910 N   0  0  0  0  0  0  0  0  0  0  0  0
   47.3530   33.7110   43.0600 N   0  0  0  0  0  0  0  0  0  0  0  0
   46.9360   32.8530   41.9660 C   0  0  0  0  0  0  0  0  0  0  0  0
   48.1210   32.3240   41.1980 C   0  0  0  0  0  0  0  0  0  0  0  0
   49.0600   33.3090   40.8070 N   0  0  0  0  0  0  0  0  0  0  0  0
   49.2740   34.3850   41.7000 C   0  0  2  0  0  0  0  0  0  0  0  0
   48.6420   34.3130   43.0280 C   0  0  0  0  0  0  0  0  0  0  0  0
   48.8240   35.6730   41.0500 C   0  0  0  0  0  0  0  0  0  0  0  0
   49.6460   36.7260   41.4220 F   0  0  0  0  0  0  0  0  0  0  0  0
   47.5800   35.9510   41.5740 F   0  0  0  0  0  0  0  0  0  0  0  0
   48.8170   35.6160   39.6870 F   0  0  0  0  0  0  0  0  0  0  0  0
   45.9480   32.3980   47.4800 C   0  0  0  0  0  0  0  0  0  0  0  0
   44.8450   31.8880   48.1260 C   0  0  0  0  0  0  0  0  0  0  0  0
   45.0320   31.0290   49.1970 C   0  0  0  0  0  0  0  0  0  0  0  0
   46.3330   30.7490   49.5370 C   0  0  0  0  0  0  0  0  0  0  0  0
   47.4620   31.2500   48.9030 C   0  0  0  0  0  0  0  0  0  0  0  0
   47.2040   32.0810   47.8660 N   0  0  0  0  0  0  0  0  0  0  0  0
   48.8370   30.8950   49.3350 C   0  0  0  0  0  0  0  0  0  0  0  0
   43.9595   35.8787   45.3934 H   0  0  0  0  0  0  0  0  0  0  0  0
   45.3817   35.6473   43.3528 H   0  0  0  0  0  0  0  0  0  0  0  0
   46.3664   32.0049   42.3737 H   0  0  0  0  0  0  0  0  0  0  0  0
   46.3152   33.4463   41.2785 H   0  0  0  0  0  0  0  0  0  0  0  0
   48.6392   31.5888   41.8312 H   0  0  0  0  0  0  0  0  0  0  0  0
   47.7211   31.8900   40.2697 H   0  0  0  0  0  0  0  0  0  0  0  0
   49.9648   32.8371   40.6671 H   0  0  0  0  0  0  0  0  0  0  0  0
   50.3551   34.3324   41.8963 H   0  0  0  0  0  0  0  0  0  0  0  0
   49.3039   33.7325   43.6875 H   0  0  0  0  0  0  0  0  0  0  0  0
   48.4976   35.3545   43.3512 H   0  0  0  0  0  0  0  0  0  0  0  0
   43.8306   32.1581   47.7972 H   0  0  0  0  0  0  0  0  0  0  0  0
   44.1836   30.5944   49.7458 H   0  0  0  0  0  0  0  0  0  0  0  0
   46.4945   30.0683   50.3858 H   0  0  0  0  0  0  0  0  0  0  0  0
   48.8844   30.8828   50.4339 H   0  0  0  0  0  0  0  0  0  0  0  0
   49.0983   29.9000   48.9456 H   0  0  0  0  0  0  0  0  0  0  0  0
   49.5473   31.6392   48.9456 H   0  0  0  0  0  0  0  0  0  0  0  0
  1  6  2  0
  2  1  1  0
  3  2  2  0
  3  4  1  0
  4  5  2  0
  5  6  1  0
  5 17  1  0
  7  3  1  0
  8  7  1  0
  9  8  1  0
 10  9  1  0
 10 11  1  0
 11 12  1  0
 12  7  1  0
 13 14  1  0
 13 15  1  0
 13 11  1  0
 16 13  1  0
 17 22  1  0
 17 18  2  0
 18 19  1  0
 19 20  2  0
 21 23  1  0
 21 20  1  0
 22 21  2  0
  1 24  1  0
  2 25  1  0
  8 26  1  0
  8 27  1  0
  9 28  1  0
  9 29  1  0
 10 30  1  0
 11 31  1  1
 12 32  1  0
 12 33  1  0
 18 34  1  0
 19 35  1  0
 20 36  1  0
 23 37  1  0
 23 38  1  0
 23 39  1  0
M  ISO  8  24  14  25  14  26  13  27  13  28  13  29  13  30   5  31  13
M  ISO  8  32  13  33  13  34  14  35  14  36  14  37   8  38   8  39   8
M  END
>  <minimizedAffinity>  (1) 
-6.77758408

>  <minimizedRMSD>  (1) 
0.151421726

$$$$
