
     RDKit          3D

 24 26  0  0  0  0  0  0  0  0999 V2000
   43.3250   33.4420   41.9010 N   0  0  0  0  0  0  0  0  0  0  0  0
   43.6720   34.7000   42.2340 C   0  0  0  0  0  0  0  0  0  0  0  0
   42.7050   35.5250   41.8200 N   0  0  0  0  0  0  0  0  0  0  0  0
   41.7130   34.8580   41.2170 C   0  0  0  0  0  0  0  0  0  0  0  0
   40.4930   35.0890   40.5990 C   0  0  0  0  0  0  0  0  0  0  0  0
   39.7430   34.0930   40.0850 N   0  0  0  0  0  0  0  0  0  0  0  0
   40.1960   32.8150   40.1730 C   0  0  0  0  0  0  0  0  0  0  0  0
   41.3900   32.5360   40.7710 N   0  0  0  0  0  0  0  0  0  0  0  0
   42.1360   33.5390   41.2840 C   0  0  0  0  0  0  0  0  0  0  0  0
   40.1350   36.4840   40.5750 N   0  0  0  0  0  0  0  0  0  0  0  0
   45.0660   35.4540   43.0600 S   0  0  0  0  0  0  0  0  0  0  0  0
   47.2750   32.4690   44.6930 C   0  0  0  0  0  0  0  0  0  0  0  0
   46.7560   33.3950   43.7480 C   0  0  0  0  0  0  0  0  0  0  0  0
   45.7560   34.2710   44.1960 C   0  0  0  0  0  0  0  0  0  0  0  0
   45.3450   34.1870   45.4840 N   0  0  0  0  0  0  0  0  0  0  0  0
   45.8710   33.2850   46.3510 C   0  0  0  0  0  0  0  0  0  0  0  0
   46.8280   32.4350   45.9540 N   0  0  0  0  0  0  0  0  0  0  0  0
   43.8616   32.5817   42.0824 H   0  0  0  0  0  0  0  0  0  0  0  0
   39.5924   31.9950   39.7568 H   0  0  0  0  0  0  0  0  0  0  0  0
   39.2491   36.7810   40.1416 H   0  0  0  0  0  0  0  0  0  0  0  0
   40.7649   37.1846   40.9913 H   0  0  0  0  0  0  0  0  0  0  0  0
   48.0609   31.7652   44.3813 H   0  0  0  0  0  0  0  0  0  0  0  0
   47.1222   33.4236   42.7111 H   0  0  0  0  0  0  0  0  0  0  0  0
   45.5085   33.2513   47.3890 H   0  0  0  0  0  0  0  0  0  0  0  0
  1  2  1  0
  2 11  1  0
  3  2  2  0
  4  9  2  0
  4  3  1  0
  5  4  1  0
  6  7  1  0
  6  5  2  0
  7  8  2  0
  8  9  1  0
  9  1  1  0
 10  5  1  0
 11 14  1  0
 12 17  2  0
 13 14  2  0
 13 12  1  0
 14 15  1  0
 15 16  2  0
 17 16  1  0
  1 18  1  0
  7 19  1  0
 10 20  1  0
 10 21  1  0
 12 22  1  0
 13 23  1  0
 16 24  1  0
M  ISO  5  18   9  19  14  22  14  23  14  24  14
M  END
>  <minimizedAffinity>  (1) 
-4.65609884

>  <minimizedRMSD>  (1) 
8.14741707

$$$$
