
     RDKit          3D

 42 44  0  0  1  0  0  0  0  0999 V2000
   44.7330   35.0700   45.3460 C   0  0  0  0  0  0  0  0  0  0  0  0
   45.5270   34.9520   44.2040 C   0  0  0  0  0  0  0  0  0  0  0  0
   46.5020   33.9350   44.1520 C   0  0  0  0  0  0  0  0  0  0  0  0
   46.5860   33.1330   45.2520 N   0  0  0  0  0  0  0  0  0  0  0  0
   45.8010   33.2790   46.3360 C   0  0  0  0  0  0  0  0  0  0  0  0
   44.8640   34.2590   46.3850 N   0  0  0  0  0  0  0  0  0  0  0  0
   47.3680   33.7050   43.0610 N   0  0  0  0  0  0  0  0  0  0  0  0
   46.9510   32.8420   41.9680 C   0  0  0  0  0  0  0  0  0  0  0  0
   48.1440   32.3290   41.1980 C   0  0  0  0  0  0  0  0  0  0  0  0
   49.0720   33.3020   40.8070 N   0  0  0  0  0  0  0  0  0  0  0  0
   49.2970   34.3830   41.7000 C   0  0  2  0  0  0  0  0  0  0  0  0
   48.6620   34.3170   43.0240 C   0  0  0  0  0  0  0  0  0  0  0  0
   48.8290   35.6700   41.0310 C   0  0  0  0  0  0  0  0  0  0  0  0
   49.6380   36.7310   41.4160 F   0  0  0  0  0  0  0  0  0  0  0  0
   47.5710   35.9400   41.5450 F   0  0  0  0  0  0  0  0  0  0  0  0
   48.8250   35.6050   39.6680 F   0  0  0  0  0  0  0  0  0  0  0  0
   45.9550   32.3800   47.4730 C   0  0  0  0  0  0  0  0  0  0  0  0
   44.8670   32.0030   48.2200 C   0  0  0  0  0  0  0  0  0  0  0  0
   45.0470   31.1440   49.2970 C   0  0  0  0  0  0  0  0  0  0  0  0
   46.3350   30.7360   49.5280 C   0  0  0  0  0  0  0  0  0  0  0  0
   47.4340   31.0960   48.8000 C   0  0  0  0  0  0  0  0  0  0  0  0
   47.2180   31.9400   47.7490 N   0  0  0  0  0  0  0  0  0  0  0  0
   48.7830   30.5850   49.1490 C   0  0  0  0  0  0  0  0  0  0  0  0
   49.6880   31.7570   49.4990 C   0  0  0  0  0  0  0  0  0  0  0  0
   43.9724   35.8637   45.3844 H   0  0  0  0  0  0  0  0  0  0  0  0
   45.3940   35.6419   43.3576 H   0  0  0  0  0  0  0  0  0  0  0  0
   46.3926   31.9873   42.3775 H   0  0  0  0  0  0  0  0  0  0  0  0
   46.3167   33.4248   41.2839 H   0  0  0  0  0  0  0  0  0  0  0  0
   48.6668   31.5968   41.8310 H   0  0  0  0  0  0  0  0  0  0  0  0
   47.7424   31.9028   40.2669 H   0  0  0  0  0  0  0  0  0  0  0  0
   49.9747   32.8279   40.6614 H   0  0  0  0  0  0  0  0  0  0  0  0
   50.3775   34.3369   41.9011 H   0  0  0  0  0  0  0  0  0  0  0  0
   49.3257   33.7452   43.6893 H   0  0  0  0  0  0  0  0  0  0  0  0
   48.5097   35.3606   43.3364 H   0  0  0  0  0  0  0  0  0  0  0  0
   43.8635   32.3769   47.9687 H   0  0  0  0  0  0  0  0  0  0  0  0
   44.2076   30.8118   49.9256 H   0  0  0  0  0  0  0  0  0  0  0  0
   46.4990   30.0565   50.3773 H   0  0  0  0  0  0  0  0  0  0  0  0
   48.7076   29.9079   50.0126 H   0  0  0  0  0  0  0  0  0  0  0  0
   49.2031   30.0371   48.2926 H   0  0  0  0  0  0  0  0  0  0  0  0
   49.7603   31.8506   50.5926 H   0  0  0  0  0  0  0  0  0  0  0  0
   50.6899   31.5849   49.0787 H   0  0  0  0  0  0  0  0  0  0  0  0
   49.2681   32.6828   49.0787 H   0  0  0  0  0  0  0  0  0  0  0  0
  1  6  2  0
  2  1  1  0
  3  2  2  0
  3  4  1  0
  4  5  2  0
  5  6  1  0
  5 17  1  0
  7  3  1  0
  8  7  1  0
  9  8  1  0
 10  9  1  0
 10 11  1  0
 11 12  1  0
 12  7  1  0
 13 14  1  0
 13 15  1  0
 13 11  1  0
 16 13  1  0
 17 22  1  0
 17 18  2  0
 18 19  1  0
 19 20  2  0
 21 23  1  0
 21 20  1  0
 22 21  2  0
 23 24  1  0
  1 25  1  0
  2 26  1  0
  8 27  1  0
  8 28  1  0
  9 29  1  0
  9 30  1  0
 10 31  1  0
 11 32  1  1
 12 33  1  0
 12 34  1  0
 18 35  1  0
 19 36  1  0
 20 37  1  0
 23 38  1  0
 23 39  1  0
 24 40  1  0
 24 41  1  0
 24 42  1  0
M  ISO  8  25  14  26  14  27  13  28  13  29  13  30  13  31   5  32  13
M  ISO  8  33  13  34  13  35  14  36  14  37  14  38   8  39   8  40   8
M  ISO  2  41   8  42   8
M  END
>  <minimizedAffinity>  (1) 
-6.7452116

>  <minimizedRMSD>  (1) 
0.106343523

$$$$
