
     RDKit          3D

 38 40  0  0  1  0  0  0  0  0999 V2000
   44.7180   35.0840   45.3540 C   0  0  0  0  0  0  0  0  0  0  0  0
   45.5070   34.9650   44.2020 C   0  0  0  0  0  0  0  0  0  0  0  0
   46.4680   33.9570   44.1540 C   0  0  0  0  0  0  0  0  0  0  0  0
   46.5490   33.1630   45.2610 N   0  0  0  0  0  0  0  0  0  0  0  0
   45.7830   33.2950   46.3550 C   0  0  0  0  0  0  0  0  0  0  0  0
   44.8520   34.2760   46.3940 N   0  0  0  0  0  0  0  0  0  0  0  0
   47.3400   33.7130   43.0590 N   0  0  0  0  0  0  0  0  0  0  0  0
   46.9260   32.8550   41.9680 C   0  0  0  0  0  0  0  0  0  0  0  0
   48.1040   32.3260   41.1930 C   0  0  0  0  0  0  0  0  0  0  0  0
   49.0260   33.3090   40.7940 N   0  0  0  0  0  0  0  0  0  0  0  0
   49.2680   34.3800   41.6900 C   0  0  2  0  0  0  0  0  0  0  0  0
   48.6380   34.3150   43.0240 C   0  0  0  0  0  0  0  0  0  0  0  0
   48.8220   35.6660   41.0410 C   0  0  0  0  0  0  0  0  0  0  0  0
   49.6460   36.7250   41.4300 F   0  0  0  0  0  0  0  0  0  0  0  0
   47.5660   35.9510   41.5670 F   0  0  0  0  0  0  0  0  0  0  0  0
   48.8140   35.6130   39.6770 F   0  0  0  0  0  0  0  0  0  0  0  0
   45.9510   32.3910   47.4870 C   0  0  0  0  0  0  0  0  0  0  0  0
   44.8440   31.9310   48.1630 C   0  0  0  0  0  0  0  0  0  0  0  0
   45.0240   31.0720   49.2380 C   0  0  0  0  0  0  0  0  0  0  0  0
   46.3350   30.7560   49.5300 C   0  0  0  0  0  0  0  0  0  0  0  0
   47.4490   31.2020   48.8730 C   0  0  0  0  0  0  0  0  0  0  0  0
   47.2260   32.0400   47.8290 N   0  0  0  0  0  0  0  0  0  0  0  0
   48.7570   30.8080   49.2660 N   0  0  0  0  0  0  0  0  0  0  0  0
   43.9587   35.8788   45.3957 H   0  0  0  0  0  0  0  0  0  0  0  0
   45.3707   35.6523   43.3541 H   0  0  0  0  0  0  0  0  0  0  0  0
   46.3597   32.0059   42.3783 H   0  0  0  0  0  0  0  0  0  0  0  0
   46.3055   33.4503   41.2820 H   0  0  0  0  0  0  0  0  0  0  0  0
   48.6314   31.5960   41.8246 H   0  0  0  0  0  0  0  0  0  0  0  0
   47.6994   31.8828   40.2711 H   0  0  0  0  0  0  0  0  0  0  0  0
   49.9263   32.8377   40.6259 H   0  0  0  0  0  0  0  0  0  0  0  0
   50.3491   34.3158   41.8828 H   0  0  0  0  0  0  0  0  0  0  0  0
   49.2995   33.7349   43.6843 H   0  0  0  0  0  0  0  0  0  0  0  0
   48.4983   35.3577   43.3454 H   0  0  0  0  0  0  0  0  0  0  0  0
   43.8335   32.2390   47.8564 H   0  0  0  0  0  0  0  0  0  0  0  0
   44.1795   30.6706   49.8175 H   0  0  0  0  0  0  0  0  0  0  0  0
   46.5015   30.0756   50.3781 H   0  0  0  0  0  0  0  0  0  0  0  0
   49.5772   31.1602   48.7520 H   0  0  0  0  0  0  0  0  0  0  0  0
   48.8846   30.1703   50.0647 H   0  0  0  0  0  0  0  0  0  0  0  0
  1  6  2  0
  2  1  1  0
  3  2  2  0
  3  4  1  0
  4  5  2  0
  5  6  1  0
  5 17  1  0
  7  3  1  0
  8  7  1  0
  9  8  1  0
 10  9  1  0
 10 11  1  0
 11 12  1  0
 12  7  1  0
 13 14  1  0
 13 15  1  0
 13 11  1  0
 16 13  1  0
 17 22  1  0
 17 18  2  0
 18 19  1  0
 19 20  2  0
 21 23  1  0
 21 20  1  0
 22 21  2  0
  1 24  1  0
  2 25  1  0
  8 26  1  0
  8 27  1  0
  9 28  1  0
  9 29  1  0
 10 30  1  0
 11 31  1  1
 12 32  1  0
 12 33  1  0
 18 34  1  0
 19 35  1  0
 20 36  1  0
 23 37  1  0
 23 38  1  0
M  ISO  8  24  14  25  14  26  13  27  13  28  13  29  13  30   5  31  13
M  ISO  5  32  13  33  13  34  14  35  14  36  14
M  END
>  <minimizedAffinity>  (1) 
-6.67644501

>  <minimizedRMSD>  (1) 
0.121956587

$$$$
