
     RDKit          3D

 37 39  0  0  1  0  0  0  0  0999 V2000
   44.7130   35.0870   45.3590 C   0  0  0  0  0  0  0  0  0  0  0  0
   45.5100   34.9680   44.2040 C   0  0  0  0  0  0  0  0  0  0  0  0
   46.4690   33.9570   44.1640 C   0  0  0  0  0  0  0  0  0  0  0  0
   46.5580   33.1600   45.2610 N   0  0  0  0  0  0  0  0  0  0  0  0
   45.7870   33.2930   46.3520 C   0  0  0  0  0  0  0  0  0  0  0  0
   44.8510   34.2750   46.3960 N   0  0  0  0  0  0  0  0  0  0  0  0
   47.3390   33.7210   43.0690 N   0  0  0  0  0  0  0  0  0  0  0  0
   46.9210   32.8790   41.9660 C   0  0  0  0  0  0  0  0  0  0  0  0
   48.1020   32.3430   41.1910 C   0  0  0  0  0  0  0  0  0  0  0  0
   49.0470   33.3020   40.8050 N   0  0  0  0  0  0  0  0  0  0  0  0
   49.2780   34.3790   41.7000 C   0  0  2  0  0  0  0  0  0  0  0  0
   48.6460   34.3070   43.0290 C   0  0  0  0  0  0  0  0  0  0  0  0
   48.8330   35.6720   41.0470 C   0  0  0  0  0  0  0  0  0  0  0  0
   49.6460   36.7300   41.4240 F   0  0  0  0  0  0  0  0  0  0  0  0
   47.5850   35.9570   41.5730 F   0  0  0  0  0  0  0  0  0  0  0  0
   48.8090   35.6120   39.6740 F   0  0  0  0  0  0  0  0  0  0  0  0
   45.9500   32.3960   47.4820 C   0  0  0  0  0  0  0  0  0  0  0  0
   44.8370   31.8990   48.1270 C   0  0  0  0  0  0  0  0  0  0  0  0
   45.0270   31.0390   49.2090 C   0  0  0  0  0  0  0  0  0  0  0  0
   46.3440   30.7600   49.5370 C   0  0  0  0  0  0  0  0  0  0  0  0
   47.4640   31.2490   48.9000 C   0  0  0  0  0  0  0  0  0  0  0  0
   47.2080   32.0780   47.8600 N   0  0  0  0  0  0  0  0  0  0  0  0
   48.7410   30.9030   49.3160 O   0  0  0  0  0  0  0  0  0  0  0  0
   43.9516   35.8797   45.4011 H   0  0  0  0  0  0  0  0  0  0  0  0
   45.3791   35.6552   43.3551 H   0  0  0  0  0  0  0  0  0  0  0  0
   46.3421   32.0324   42.3637 H   0  0  0  0  0  0  0  0  0  0  0  0
   46.3113   33.4882   41.2825 H   0  0  0  0  0  0  0  0  0  0  0  0
   48.6111   31.5972   41.8192 H   0  0  0  0  0  0  0  0  0  0  0  0
   47.6919   31.9264   40.2592 H   0  0  0  0  0  0  0  0  0  0  0  0
   49.9443   32.8154   40.6670 H   0  0  0  0  0  0  0  0  0  0  0  0
   50.3592   34.3234   41.8948 H   0  0  0  0  0  0  0  0  0  0  0  0
   49.3019   33.7131   43.6825 H   0  0  0  0  0  0  0  0  0  0  0  0
   48.5150   35.3499   43.3535 H   0  0  0  0  0  0  0  0  0  0  0  0
   43.8244   32.1738   47.7965 H   0  0  0  0  0  0  0  0  0  0  0  0
   44.1828   30.6087   49.7676 H   0  0  0  0  0  0  0  0  0  0  0  0
   46.5117   30.0831   50.3877 H   0  0  0  0  0  0  0  0  0  0  0  0
   49.5311   31.2665   48.8431 H   0  0  0  0  0  0  0  0  0  0  0  0
  1  6  2  0
  2  1  1  0
  3  2  2  0
  3  4  1  0
  4  5  2  0
  5  6  1  0
  5 17  1  0
  7  3  1  0
  8  7  1  0
  9  8  1  0
 10  9  1  0
 10 11  1  0
 11 12  1  0
 12  7  1  0
 13 14  1  0
 13 15  1  0
 13 11  1  0
 16 13  1  0
 17 22  1  0
 17 18  2  0
 18 19  1  0
 19 20  2  0
 21 23  1  0
 21 20  1  0
 22 21  2  0
  1 24  1  0
  2 25  1  0
  8 26  1  0
  8 27  1  0
  9 28  1  0
  9 29  1  0
 10 30  1  0
 11 31  1  1
 12 32  1  0
 12 33  1  0
 18 34  1  0
 19 35  1  0
 20 36  1  0
 23 37  1  0
M  ISO  8  24  14  25  14  26  13  27  13  28  13  29  13  30   5  31  13
M  ISO  6  32  13  33  13  34  14  35  14  36  14  37   3
M  END
>  <minimizedAffinity>  (1) 
-6.65343237

>  <minimizedRMSD>  (1) 
0.141581088

$$$$
