
     RDKit          3D

 22 23  0  0  0  0  0  0  0  0999 V2000
   44.4970   35.6840   45.0600 C   0  0  0  0  0  0  0  0  0  0  0  0
   45.0530   35.7260   43.7810 C   0  0  0  0  0  0  0  0  0  0  0  0
   45.9830   34.7400   43.4310 C   0  0  0  0  0  0  0  0  0  0  0  0
   46.2780   33.8140   44.3560 N   0  0  0  0  0  0  0  0  0  0  0  0
   45.7340   33.7670   45.6020 C   0  0  0  0  0  0  0  0  0  0  0  0
   44.8300   34.7240   45.9520 N   0  0  0  0  0  0  0  0  0  0  0  0
   45.0410   33.4030   41.0830 F   0  0  0  0  0  0  0  0  0  0  0  0
   46.2560   34.0040   40.9650 C   0  0  0  0  0  0  0  0  0  0  0  0
   46.6370   34.6790   42.1340 C   0  0  0  0  0  0  0  0  0  0  0  0
   47.8480   35.3530   42.1890 C   0  0  0  0  0  0  0  0  0  0  0  0
   48.6910   35.3610   41.0730 C   0  0  0  0  0  0  0  0  0  0  0  0
   48.3030   34.6860   39.9080 C   0  0  0  0  0  0  0  0  0  0  0  0
   47.0920   34.0200   39.8750 C   0  0  0  0  0  0  0  0  0  0  0  0
   44.6220   36.7650   42.9150 N   0  0  0  0  0  0  0  0  0  0  0  0
   43.7670   36.4537   45.3509 H   0  0  0  0  0  0  0  0  0  0  0  0
   46.0175   32.9746   46.3104 H   0  0  0  0  0  0  0  0  0  0  0  0
   48.1446   35.8799   43.1079 H   0  0  0  0  0  0  0  0  0  0  0  0
   49.6526   35.8939   41.1096 H   0  0  0  0  0  0  0  0  0  0  0  0
   48.9584   34.6860   39.0246 H   0  0  0  0  0  0  0  0  0  0  0  0
   46.7918   33.4924   38.9577 H   0  0  0  0  0  0  0  0  0  0  0  0
   45.0064   36.8337   41.9619 H   0  0  0  0  0  0  0  0  0  0  0  0
   43.9249   37.4501   43.2398 H   0  0  0  0  0  0  0  0  0  0  0  0
  1  6  2  0
  2  1  1  0
  3  2  2  0
  3  4  1  0
  4  5  2  0
  5  6  1  0
  8  7  1  0
  8  9  2  0
  9 10  1  0
  9  3  1  0
 11 10  2  0
 12 11  1  0
 13 12  2  0
 13  8  1  0
 14  2  1  0
  1 15  1  0
  5 16  1  0
 10 17  1  0
 11 18  1  0
 12 19  1  0
 13 20  1  0
 14 21  1  0
 14 22  1  0
M  ISO  6  15  14  16  14  17  14  18  14  19  14  20  14
M  END
>  <minimizedAffinity>  (1) 
-5.41230774

>  <minimizedRMSD>  (1) 
1.9757961

$$$$
