
     RDKit          3D

 22 23  0  0  0  0  0  0  0  0999 V2000
   44.4940   35.6800   45.0090 C   0  0  0  0  0  0  0  0  0  0  0  0
   45.1780   35.5810   43.7910 C   0  0  0  0  0  0  0  0  0  0  0  0
   46.0950   34.5520   43.6170 C   0  0  0  0  0  0  0  0  0  0  0  0
   46.2770   33.6930   44.6520 N   0  0  0  0  0  0  0  0  0  0  0  0
   45.6130   33.8020   45.8130 C   0  0  0  0  0  0  0  0  0  0  0  0
   44.7110   34.8010   46.0040 N   0  0  0  0  0  0  0  0  0  0  0  0
   46.7310   34.5490   42.3380 C   0  0  0  0  0  0  0  0  0  0  0  0
   46.2680   33.8740   41.2150 C   0  0  0  0  0  0  0  0  0  0  0  0
   46.9570   33.9260   39.9990 C   0  0  0  0  0  0  0  0  0  0  0  0
   48.1250   34.6580   39.8890 C   0  0  0  0  0  0  0  0  0  0  0  0
   48.6240   35.3520   40.9940 C   0  0  0  0  0  0  0  0  0  0  0  0
   47.9000   35.2650   42.1770 C   0  0  0  0  0  0  0  0  0  0  0  0
   44.8580   36.5790   42.8080 N   0  0  0  0  0  0  0  0  0  0  0  0
   43.7658   36.4915   45.1548 H   0  0  0  0  0  0  0  0  0  0  0  0
   45.8004   33.0760   46.6179 H   0  0  0  0  0  0  0  0  0  0  0  0
   45.3405   33.2867   41.2839 H   0  0  0  0  0  0  0  0  0  0  0  0
   46.5678   33.3819   39.1258 H   0  0  0  0  0  0  0  0  0  0  0  0
   48.6622   34.6939   38.9297 H   0  0  0  0  0  0  0  0  0  0  0  0
   49.5502   35.9420   40.9304 H   0  0  0  0  0  0  0  0  0  0  0  0
   48.2880   35.8080   43.0514 H   0  0  0  0  0  0  0  0  0  0  0  0
   45.3243   36.5655   41.8897 H   0  0  0  0  0  0  0  0  0  0  0  0
   44.1624   37.3079   43.0217 H   0  0  0  0  0  0  0  0  0  0  0  0
  1  6  2  0
  2  1  1  0
  3  2  2  0
  3  4  1  0
  4  5  2  0
  5  6  1  0
  7  3  1  0
  8  7  2  0
  9  8  1  0
 10  9  2  0
 10 11  1  0
 11 12  2  0
 12  7  1  0
 13  2  1  0
  1 14  1  0
  5 15  1  0
  8 16  1  0
  9 17  1  0
 10 18  1  0
 11 19  1  0
 12 20  1  0
 13 21  1  0
 13 22  1  0
M  ISO  7  14  14  15  14  16  14  17  14  18  14  19  14  20  14
M  END
>  <minimizedAffinity>  (1) 
-5.21530437

>  <minimizedRMSD>  (1) 
1.86065924

$$$$
