
     RDKit          3D

 19 20  0  0  0  0  0  0  0  0999 V2000
   44.4940   35.7200   44.9550 C   0  0  0  0  0  0  0  0  0  0  0  0
   45.1350   35.6890   43.7060 C   0  0  0  0  0  0  0  0  0  0  0  0
   46.0670   34.6910   43.4740 C   0  0  0  0  0  0  0  0  0  0  0  0
   46.3170   33.7930   44.4530 N   0  0  0  0  0  0  0  0  0  0  0  0
   45.6820   33.8430   45.6550 C   0  0  0  0  0  0  0  0  0  0  0  0
   44.7770   34.8090   45.8870 N   0  0  0  0  0  0  0  0  0  0  0  0
   46.7290   34.6660   42.1760 C   0  0  0  0  0  0  0  0  0  0  0  0
   48.0220   35.0300   41.8620 C   0  0  0  0  0  0  0  0  0  0  0  0
   48.1860   34.8300   40.5000 C   0  0  0  0  0  0  0  0  0  0  0  0
   46.9980   34.3580   40.0440 N   0  0  0  0  0  0  0  0  0  0  0  0
   46.1260   34.2620   41.0580 N   0  0  0  0  0  0  0  0  0  0  0  0
   44.7750   36.6970   42.7700 N   0  0  0  0  0  0  0  0  0  0  0  0
   43.7513   36.5033   45.1667 H   0  0  0  0  0  0  0  0  0  0  0  0
   45.9078   33.0977   46.4319 H   0  0  0  0  0  0  0  0  0  0  0  0
   48.7815   35.4085   42.5620 H   0  0  0  0  0  0  0  0  0  0  0  0
   49.0947   35.0161   39.9088 H   0  0  0  0  0  0  0  0  0  0  0  0
   46.7963   34.1104   39.0648 H   0  0  0  0  0  0  0  0  0  0  0  0
   45.2168   36.7175   41.8398 H   0  0  0  0  0  0  0  0  0  0  0  0
   44.0724   37.4067   43.0222 H   0  0  0  0  0  0  0  0  0  0  0  0
  1  6  2  0
  2  1  1  0
  3  2  2  0
  3  4  1  0
  4  5  2  0
  5  6  1  0
  7  3  1  0
  8  7  1  0
  9  8  2  0
 10  9  1  0
 10 11  1  0
 11  7  2  0
 12  2  1  0
  1 13  1  0
  5 14  1  0
  8 15  1  0
  9 16  1  0
 10 17  1  0
 12 18  1  0
 12 19  1  0
M  ISO  5  13  14  14  14  15  14  16  14  17   9
M  END
>  <minimizedAffinity>  (1) 
-4.57461309

>  <minimizedRMSD>  (1) 
1.7008357

$$$$
