
     RDKit          3D

 18 18  0  0  0  0  0  0  0  0999 V2000
   44.5930   35.5830   45.0740 C   0  0  0  0  0  0  0  0  0  0  0  0
   45.1050   35.7140   43.7680 C   0  0  0  0  0  0  0  0  0  0  0  0
   46.0120   34.7750   43.3070 C   0  0  0  0  0  0  0  0  0  0  0  0
   46.3510   33.7690   44.1710 N   0  0  0  0  0  0  0  0  0  0  0  0
   45.8600   33.6530   45.4110 C   0  0  0  0  0  0  0  0  0  0  0  0
   44.9650   34.5710   45.8790 N   0  0  0  0  0  0  0  0  0  0  0  0
   44.6360   36.8190   43.0060 N   0  0  0  0  0  0  0  0  0  0  0  0
   46.5690   34.8760   41.9620 C   0  0  0  0  0  0  0  0  0  0  0  0
   48.0350   35.2540   41.9520 C   0  0  0  0  0  0  0  0  0  0  0  0
   43.8716   36.3261   45.4446 H   0  0  0  0  0  0  0  0  0  0  0  0
   46.1778   32.8179   46.0526 H   0  0  0  0  0  0  0  0  0  0  0  0
   44.9769   36.9635   42.0448 H   0  0  0  0  0  0  0  0  0  0  0  0
   43.9554   37.4749   43.4151 H   0  0  0  0  0  0  0  0  0  0  0  0
   46.4552   33.9027   41.4622 H   0  0  0  0  0  0  0  0  0  0  0  0
   46.0213   35.6743   41.4398 H   0  0  0  0  0  0  0  0  0  0  0  0
   48.3967   35.3473   42.9866 H   0  0  0  0  0  0  0  0  0  0  0  0
   48.6110   34.4750   41.4310 H   0  0  0  0  0  0  0  0  0  0  0  0
   48.1625   36.2144   41.4310 H   0  0  0  0  0  0  0  0  0  0  0  0
  1  6  2  0
  2  1  1  0
  3  2  2  0
  3  4  1  0
  4  5  2  0
  5  6  1  0
  7  2  1  0
  8  3  1  0
  9  8  1  0
  1 10  1  0
  5 11  1  0
  7 12  1  0
  7 13  1  0
  8 14  1  0
  8 15  1  0
  9 16  1  0
  9 17  1  0
  9 18  1  0
M  ISO  7  10  14  11  14  14   8  15   8  16   8  17   8  18   8
M  END
>  <minimizedAffinity>  (1) 
-3.70608878

>  <minimizedRMSD>  (1) 
1.18936229

$$$$
