
     RDKit          3D

 16 16  0  0  0  0  0  0  0  0999 V2000
   44.6500   35.5720   45.0920 C   0  0  0  0  0  0  0  0  0  0  0  0
   45.0850   35.7010   43.7750 C   0  0  0  0  0  0  0  0  0  0  0  0
   45.8970   34.6960   43.2760 C   0  0  0  0  0  0  0  0  0  0  0  0
   46.2230   33.6510   44.0880 N   0  0  0  0  0  0  0  0  0  0  0  0
   45.7750   33.5740   45.3580 C   0  0  0  0  0  0  0  0  0  0  0  0
   44.9750   34.5430   45.8830 N   0  0  0  0  0  0  0  0  0  0  0  0
   47.7730   34.9240   41.8880 C   0  0  0  0  0  0  0  0  0  0  0  0
   48.6120   34.8990   42.8110 O   0  0  0  0  0  0  0  0  0  0  0  0
   46.3370   34.8340   41.9340 N   0  0  0  0  0  0  0  0  0  0  0  0
   44.6680   36.8470   43.0400 N   0  0  0  0  0  0  0  0  0  0  0  0
   44.0031   36.3602   45.5048 H   0  0  0  0  0  0  0  0  0  0  0  0
   46.0609   32.7134   45.9806 H   0  0  0  0  0  0  0  0  0  0  0  0
   48.1979   35.0319   40.8791 H   0  0  0  0  0  0  0  0  0  0  0  0
   45.7181   34.8653   41.1113 H   0  0  0  0  0  0  0  0  0  0  0  0
   44.9725   36.9717   42.0640 H   0  0  0  0  0  0  0  0  0  0  0  0
   44.0618   37.5513   43.4843 H   0  0  0  0  0  0  0  0  0  0  0  0
  1  6  2  0
  2  1  1  0
  3  2  2  0
  3  4  1  0
  4  5  2  0
  5  6  1  0
  7  9  1  0
  7  8  2  0
  9  3  1  0
 10  2  1  0
  1 11  1  0
  5 12  1  0
  7 13  1  0
  9 14  1  0
 10 15  1  0
 10 16  1  0
M  ISO  3  11  14  12  14  13   6
M  END
>  <minimizedAffinity>  (1) 
-3.61781216

>  <minimizedRMSD>  (1) 
1.78041446

$$$$
