
     RDKit          3D

 14 14  0  0  0  0  0  0  0  0999 V2000
   44.5590   35.5700   45.0630 C   0  0  0  0  0  0  0  0  0  0  0  0
   45.1330   35.7090   43.7890 C   0  0  0  0  0  0  0  0  0  0  0  0
   46.0960   34.7950   43.3730 C   0  0  0  0  0  0  0  0  0  0  0  0
   46.4210   33.8070   44.2530 N   0  0  0  0  0  0  0  0  0  0  0  0
   45.8570   33.6950   45.4700 C   0  0  0  0  0  0  0  0  0  0  0  0
   44.9230   34.5670   45.8940 N   0  0  0  0  0  0  0  0  0  0  0  0
   44.6460   36.8150   43.0310 N   0  0  0  0  0  0  0  0  0  0  0  0
   46.6330   34.9790   42.0980 N   0  0  0  0  0  0  0  0  0  0  0  0
   43.7972   36.2921   45.3920 H   0  0  0  0  0  0  0  0  0  0  0  0
   46.1659   32.8731   46.1326 H   0  0  0  0  0  0  0  0  0  0  0  0
   45.0124   36.9921   42.0848 H   0  0  0  0  0  0  0  0  0  0  0  0
   43.9279   37.4364   43.4299 H   0  0  0  0  0  0  0  0  0  0  0  0
   47.3493   34.3299   41.7423 H   0  0  0  0  0  0  0  0  0  0  0  0
   46.3130   35.7639   41.5128 H   0  0  0  0  0  0  0  0  0  0  0  0
  1  6  2  0
  2  1  1  0
  3  2  2  0
  3  4  1  0
  4  5  2  0
  5  6  1  0
  7  2  1  0
  8  3  1  0
  1  9  1  0
  5 10  1  0
  7 11  1  0
  7 12  1  0
  8 13  1  0
  8 14  1  0
M  ISO  2   9  14  10  14
M  END
>  <minimizedAffinity>  (1) 
-3.33174562

>  <minimizedRMSD>  (1) 
1.04683208

$$$$
