
     RDKit          3D

 22 23  0  0  0  0  0  0  0  0999 V2000
   44.4930   35.8130   44.7290 C   0  0  0  0  0  0  0  0  0  0  0  0
   44.8100   35.4870   43.4070 C   0  0  0  0  0  0  0  0  0  0  0  0
   45.4850   34.3170   43.1630 C   0  0  0  0  0  0  0  0  0  0  0  0
   45.8050   33.5380   44.2490 N   0  0  0  0  0  0  0  0  0  0  0  0
   45.4860   33.8780   45.5030 C   0  0  0  0  0  0  0  0  0  0  0  0
   44.8240   35.0250   45.7390 N   0  0  0  0  0  0  0  0  0  0  0  0
   45.8580   33.9060   41.7910 C   0  0  0  0  0  0  0  0  0  0  0  0
   45.1600   32.9700   41.0730 C   0  0  0  0  0  0  0  0  0  0  0  0
   46.0960   32.9010   39.4830 S   0  0  0  0  0  0  0  0  0  0  0  0
   47.2970   34.1910   40.1040 C   0  0  0  0  0  0  0  0  0  0  0  0
   46.8970   34.4150   41.1570 N   0  0  0  0  0  0  0  0  0  0  0  0
   48.4740   34.4720   37.9540 C   0  0  0  0  0  0  0  0  0  0  0  0
   47.5120   33.8180   37.4890 O   0  0  0  0  0  0  0  0  0  0  0  0
   48.4260   34.7120   39.3540 N   0  0  0  0  0  0  0  0  0  0  0  0
   44.4010   36.4110   42.4080 N   0  0  0  0  0  0  0  0  0  0  0  0
   43.9541   36.7495   44.9350 H   0  0  0  0  0  0  0  0  0  0  0  0
   45.7646   33.2206   46.3398 H   0  0  0  0  0  0  0  0  0  0  0  0
   44.2659   32.4021   41.3698 H   0  0  0  0  0  0  0  0  0  0  0  0
   49.2984   34.8352   37.3227 H   0  0  0  0  0  0  0  0  0  0  0  0
   49.1732   35.2421   39.8247 H   0  0  0  0  0  0  0  0  0  0  0  0
   44.6076   36.2226   41.4167 H   0  0  0  0  0  0  0  0  0  0  0  0
   43.8979   37.2691   42.6752 H   0  0  0  0  0  0  0  0  0  0  0  0
  1  6  2  0
  2  1  1  0
  3  2  2  0
  3  4  1  0
  4  5  2  0
  5  6  1  0
  7  3  1  0
  8  7  2  0
  9 10  1  0
  9  8  1  0
 10 11  2  0
 11  7  1  0
 12 14  1  0
 13 12  2  0
 14 10  1  0
 15  2  1  0
  1 16  1  0
  5 17  1  0
  8 18  1  0
 12 19  1  0
 14 20  1  0
 15 21  1  0
 15 22  1  0
M  ISO  4  16  14  17  14  18  14  19   6
M  END
>  <minimizedAffinity>  (1) 
-4.83715868

>  <minimizedRMSD>  (1) 
1.65490854

$$$$
