
     RDKit          3D

 30 32  0  0  1  0  0  0  0  0999 V2000
   47.6130   32.7320   42.0020 C   0  0  0  0  0  0  0  0  0  0  0  0
   48.8330   33.2870   41.3090 C   0  0  1  0  0  0  0  0  0  0  0  0
   50.0100   33.4260   42.2320 C   0  0  0  0  0  0  0  0  0  0  0  0
   50.7170   32.1560   42.2260 N   0  0  0  0  0  0  0  0  0  0  0  0
   51.3430   30.9070   42.5170 C   0  0  0  0  0  0  0  0  0  0  0  0
   51.5940   30.2970   43.5940 O   0  0  0  0  0  0  0  0  0  0  0  0
   51.6010   30.5660   41.0960 C   0  0  0  0  0  0  0  0  0  0  0  0
   51.1600   31.9590   40.8370 C   0  0  1  0  0  0  0  0  0  0  0  0
   49.4960   32.1320   40.0730 S   0  0  0  0  0  0  0  0  0  0  0  0
   48.5780   34.5950   40.6370 C   0  0  0  0  0  0  0  0  0  0  0  0
   46.2620   33.9040   41.7540 S   0  0  0  0  0  0  0  0  0  0  0  0
   44.4380   36.0140   44.7170 C   0  0  0  0  0  0  0  0  0  0  0  0
   44.9210   35.6460   43.4420 C   0  0  0  0  0  0  0  0  0  0  0  0
   45.6240   34.4230   43.3490 C   0  0  0  0  0  0  0  0  0  0  0  0
   45.7910   33.6860   44.4740 N   0  0  0  0  0  0  0  0  0  0  0  0
   45.3150   34.0730   45.6690 C   0  0  0  0  0  0  0  0  0  0  0  0
   44.6370   35.2360   45.7960 N   0  0  0  0  0  0  0  0  0  0  0  0
   47.3472   31.7564   41.5689 H   0  0  0  0  0  0  0  0  0  0  0  0
   47.8095   32.5911   43.0751 H   0  0  0  0  0  0  0  0  0  0  0  0
   50.6739   34.2280   41.8771 H   0  0  0  0  0  0  0  0  0  0  0  0
   49.6788   33.6823   43.2492 H   0  0  0  0  0  0  0  0  0  0  0  0
   52.6503   30.3500   40.8464 H   0  0  0  0  0  0  0  0  0  0  0  0
   51.1655   29.6892   40.5944 H   0  0  0  0  0  0  0  0  0  0  0  0
   51.8998   32.5377   40.2644 H   0  0  0  0  0  0  0  0  0  0  0  0
   48.4260   35.3747   41.3979 H   0  0  0  0  0  0  0  0  0  0  0  0
   49.4416   34.8590   40.0089 H   0  0  0  0  0  0  0  0  0  0  0  0
   47.6785   34.5153   40.0089 H   0  0  0  0  0  0  0  0  0  0  0  0
   43.8862   36.9588   44.8303 H   0  0  0  0  0  0  0  0  0  0  0  0
   44.7574   36.2829   42.5602 H   0  0  0  0  0  0  0  0  0  0  0  0
   45.4782   33.4380   46.5523 H   0  0  0  0  0  0  0  0  0  0  0  0
  2 10  1  6
  2  1  1  0
  2  3  1  0
  4  3  1  0
  4  5  1  0
  5  6  2  0
  7  5  1  0
  8  9  1  0
  8  7  1  0
  8  4  1  0
  9  2  1  0
 11  1  1  0
 11 14  1  0
 12 17  2  0
 13 12  1  0
 14 13  2  0
 14 15  1  0
 15 16  2  0
 16 17  1  0
  1 18  1  0
  1 19  1  0
  3 20  1  0
  3 21  1  0
  7 22  1  0
  7 23  1  0
  8 24  1  6
 10 25  1  0
 10 26  1  0
 10 27  1  0
 12 28  1  0
 13 29  1  0
 16 30  1  0
M  ISO  8  18   8  19   8  20  13  21  13  22  13  23  13  24  13  25   8
M  ISO  5  26   8  27   8  28  14  29  14  30  14
M  END
>  <minimizedAffinity>  (1) 
-4.1506815

>  <minimizedRMSD>  (1) 
2.28314614

$$$$
