
     RDKit          3D

 22 23  0  0  1  0  0  0  0  0999 V2000
   44.6270   36.1800   44.4390 C   0  0  0  0  0  0  0  0  0  0  0  0
   45.0450   35.9250   43.1140 C   0  0  0  0  0  0  0  0  0  0  0  0
   45.6330   34.6680   42.8550 C   0  0  0  0  0  0  0  0  0  0  0  0
   45.7480   33.8090   43.8860 N   0  0  0  0  0  0  0  0  0  0  0  0
   45.3420   34.0740   45.1350 C   0  0  0  0  0  0  0  0  0  0  0  0
   44.7850   35.2550   45.4080 N   0  0  0  0  0  0  0  0  0  0  0  0
   46.1860   34.2720   41.2110 S   0  0  0  0  0  0  0  0  0  0  0  0
   47.9950   34.2810   41.2050 C   0  0  1  0  0  0  0  0  0  0  0  0
   48.4890   35.5590   41.8500 C   0  0  0  0  0  0  0  0  0  0  0  0
   49.8150   35.1090   42.3910 C   0  0  0  0  0  0  0  0  0  0  0  0
   49.7320   33.7650   42.6900 O   0  0  0  0  0  0  0  0  0  0  0  0
   48.5830   33.2590   42.1460 C   0  0  0  0  0  0  0  0  0  0  0  0
   44.1655   37.1479   44.6844 H   0  0  0  0  0  0  0  0  0  0  0  0
   44.9178   36.6737   42.3182 H   0  0  0  0  0  0  0  0  0  0  0  0
   45.4670   33.3234   45.9293 H   0  0  0  0  0  0  0  0  0  0  0  0
   48.2783   34.1199   40.1544 H   0  0  0  0  0  0  0  0  0  0  0  0
   48.6062   36.3658   41.1115 H   0  0  0  0  0  0  0  0  0  0  0  0
   47.8088   35.9795   42.6053 H   0  0  0  0  0  0  0  0  0  0  0  0
   50.5987   35.2737   41.6369 H   0  0  0  0  0  0  0  0  0  0  0  0
   50.0671   35.6817   43.2957 H   0  0  0  0  0  0  0  0  0  0  0  0
   47.8622   33.0369   42.9467 H   0  0  0  0  0  0  0  0  0  0  0  0
   48.8078   32.3330   41.5964 H   0  0  0  0  0  0  0  0  0  0  0  0
  1  6  2  0
  2  1  1  0
  3  2  2  0
  3  4  1  0
  4  5  2  0
  5  6  1  0
  7  3  1  0
  8  7  1  0
  8  9  1  0
  8 12  1  0
  9 10  1  0
 10 11  1  0
 12 11  1  0
  1 13  1  0
  2 14  1  0
  5 15  1  0
  8 16  1  6
  9 17  1  0
  9 18  1  0
 10 19  1  0
 10 20  1  0
 12 21  1  0
 12 22  1  0
M  ISO  8  13  14  14  14  15  14  16  13  17  13  18  13  19  13  20  13
M  ISO  2  21  13  22  13
M  END
>  <minimizedAffinity>  (1) 
-4.08206892

>  <minimizedRMSD>  (1) 
2.05457902

$$$$
