
     RDKit          3D

 30 32  0  0  0  0  0  0  0  0999 V2000
   44.8500   34.3970   41.9810 C   0  0  0  0  0  0  0  0  0  0  0  0
   46.1390   34.4930   41.5530 C   0  0  0  0  0  0  0  0  0  0  0  0
   47.1080   34.3280   43.1150 S   0  0  0  0  0  0  0  0  0  0  0  0
   45.5200   34.1540   44.0940 C   0  0  0  0  0  0  0  0  0  0  0  0
   44.7260   34.2320   43.2590 N   0  0  0  0  0  0  0  0  0  0  0  0
   41.4450   35.1030   40.5430 C   0  0  0  0  0  0  0  0  0  0  0  0
   42.5090   35.0580   41.4620 C   0  0  0  0  0  0  0  0  0  0  0  0
   43.6920   34.4730   41.0710 C   0  0  0  0  0  0  0  0  0  0  0  0
   43.7550   33.9600   39.7840 N   0  0  0  0  0  0  0  0  0  0  0  0
   42.7100   34.0310   38.9520 C   0  0  0  0  0  0  0  0  0  0  0  0
   41.5660   34.5920   39.3130 N   0  0  0  0  0  0  0  0  0  0  0  0
   42.2640   35.6210   42.7430 N   0  0  0  0  0  0  0  0  0  0  0  0
   45.4740   33.9640   45.5930 C   0  0  0  0  0  0  0  0  0  0  0  0
   46.4610   32.9460   46.0460 C   0  0  0  0  0  0  0  0  0  0  0  0
   45.9570   32.0630   47.1300 C   0  0  0  0  0  0  0  0  0  0  0  0
   45.8460   32.5080   48.4310 C   0  0  0  0  0  0  0  0  0  0  0  0
   45.2190   31.0690   49.3300 S   0  0  0  0  0  0  0  0  0  0  0  0
   45.2140   30.0600   47.7080 C   0  0  0  0  0  0  0  0  0  0  0  0
   45.5930   30.8120   46.9670 N   0  0  0  0  0  0  0  0  0  0  0  0
   46.5115   34.6343   40.5277 H   0  0  0  0  0  0  0  0  0  0  0  0
   40.4940   35.5680   40.8421 H   0  0  0  0  0  0  0  0  0  0  0  0
   42.8035   33.6116   37.9394 H   0  0  0  0  0  0  0  0  0  0  0  0
   43.0057   35.6171   43.4577 H   0  0  0  0  0  0  0  0  0  0  0  0
   41.3447   36.0332   42.9571 H   0  0  0  0  0  0  0  0  0  0  0  0
   45.7004   34.9231   46.0817 H   0  0  0  0  0  0  0  0  0  0  0  0
   44.4676   33.6129   45.8650 H   0  0  0  0  0  0  0  0  0  0  0  0
   46.7315   32.3178   45.1845 H   0  0  0  0  0  0  0  0  0  0  0  0
   47.3228   33.4945   46.4541 H   0  0  0  0  0  0  0  0  0  0  0  0
   46.0835   33.5056   48.8290 H   0  0  0  0  0  0  0  0  0  0  0  0
   44.9168   29.0138   47.5435 H   0  0  0  0  0  0  0  0  0  0  0  0
  1  5  1  0
  2  1  2  0
  2  3  1  0
  3  4  1  0
  4 13  1  0
  5  4  2  0
  6  7  2  0
  7 12  1  0
  8  7  1  0
  8  1  1  0
  9  8  2  0
 10 11  2  0
 10  9  1  0
 11  6  1  0
 13 14  1  0
 14 15  1  0
 15 16  2  0
 16 17  1  0
 18 17  1  0
 19 15  1  0
 19 18  2  0
  2 20  1  0
  6 21  1  0
 10 22  1  0
 12 23  1  0
 12 24  1  0
 13 25  1  0
 13 26  1  0
 14 27  1  0
 14 28  1  0
 16 29  1  0
 18 30  1  0
M  ISO  8  20  14  21  14  22  14  25   8  26   8  27   8  28   8  29  14
M  ISO  1  30  14
M  END
>  <minimizedAffinity>  (1) 
-5.14821911

>  <minimizedRMSD>  (1) 
6.31013966

$$$$
