
     RDKit          3D

 23 24  0  0  1  0  0  0  0  0999 V2000
   45.7570   34.4200   41.5080 S   0  0  0  0  0  0  0  0  0  0  0  0
   44.4080   35.7780   45.0840 C   0  0  0  0  0  0  0  0  0  0  0  0
   44.6680   35.6920   43.6960 C   0  0  0  0  0  0  0  0  0  0  0  0
   45.3980   34.5810   43.2500 C   0  0  0  0  0  0  0  0  0  0  0  0
   45.8080   33.6660   44.1630 N   0  0  0  0  0  0  0  0  0  0  0  0
   45.5470   33.7740   45.4710 C   0  0  0  0  0  0  0  0  0  0  0  0
   44.8550   34.8180   45.9310 N   0  0  0  0  0  0  0  0  0  0  0  0
   48.0320   32.9380   41.5740 N   0  0  0  0  0  0  0  0  0  0  0  0
   47.5030   34.1930   41.1580 C   0  0  2  0  0  0  0  0  0  0  0  0
   48.2430   35.3900   41.7060 C   0  0  0  0  0  0  0  0  0  0  0  0
   49.6500   35.1620   41.5790 N   0  0  0  0  0  0  0  0  0  0  0  0
   50.0140   34.1140   42.4810 C   0  0  0  0  0  0  0  0  0  0  0  0
   49.0630   32.9690   42.5570 C   0  0  0  0  0  0  0  0  0  0  0  0
   43.8380   36.6315   45.4798 H   0  0  0  0  0  0  0  0  0  0  0  0
   44.3128   36.4634   42.9969 H   0  0  0  0  0  0  0  0  0  0  0  0
   45.9034   33.0011   46.1679 H   0  0  0  0  0  0  0  0  0  0  0  0
   47.6858   32.0502   41.1830 H   0  0  0  0  0  0  0  0  0  0  0  0
   47.6455   34.1446   40.0683 H   0  0  0  0  0  0  0  0  0  0  0  0
   47.9619   36.2896   41.1388 H   0  0  0  0  0  0  0  0  0  0  0  0
   47.9829   35.5368   42.7647 H   0  0  0  0  0  0  0  0  0  0  0  0
   50.2894   35.6654   40.9476 H   0  0  0  0  0  0  0  0  0  0  0  0
   50.9360   34.1505   43.0799 H   0  0  0  0  0  0  0  0  0  0  0  0
   49.1521   32.1908   43.3293 H   0  0  0  0  0  0  0  0  0  0  0  0
  1  4  1  0
  2  7  2  0
  3  2  1  0
  4  3  2  0
  4  5  1  0
  5  6  2  0
  6  7  1  0
  8 13  1  0
  9  1  1  0
  9  8  1  0
  9 10  1  0
 11 10  1  0
 11 12  1  0
 12 13  2  0
  2 14  1  0
  3 15  1  0
  6 16  1  0
  8 17  1  0
  9 18  1  6
 10 19  1  0
 10 20  1  0
 11 21  1  0
 12 22  1  0
 13 23  1  0
M  ISO  8  14  14  15  14  16  14  18  13  19  13  20  13  22  13  23  13
M  END
>  <minimizedAffinity>  (1) 
-4.03292799

>  <minimizedRMSD>  (1) 
2.23427701

$$$$
