
     RDKit          3D

 33 35  0  0  0  0  0  0  0  0999 V2000
   46.6040   33.8620   42.1990 C   0  0  0  0  0  0  0  0  0  0  0  0
   46.7000   34.2280   43.4980 C   0  0  0  0  0  0  0  0  0  0  0  0
   45.2250   35.3440   43.6910 S   0  0  0  0  0  0  0  0  0  0  0  0
   44.7480   35.0850   41.9100 C   0  0  0  0  0  0  0  0  0  0  0  0
   45.5860   34.3860   41.6000 N   0  0  0  0  0  0  0  0  0  0  0  0
   49.2730   32.4670   39.9360 C   0  0  0  0  0  0  0  0  0  0  0  0
   48.3840   33.3940   40.5220 C   0  0  0  0  0  0  0  0  0  0  0  0
   47.5620   32.9550   41.5320 C   0  0  0  0  0  0  0  0  0  0  0  0
   47.6710   31.6270   41.8950 N   0  0  0  0  0  0  0  0  0  0  0  0
   48.5280   30.7850   41.3130 C   0  0  0  0  0  0  0  0  0  0  0  0
   49.3270   31.1950   40.3390 N   0  0  0  0  0  0  0  0  0  0  0  0
   48.4090   34.7110   40.0140 N   0  0  0  0  0  0  0  0  0  0  0  0
   43.5420   35.7220   41.2810 C   0  0  0  0  0  0  0  0  0  0  0  0
   42.9730   34.8710   40.2010 C   0  0  0  0  0  0  0  0  0  0  0  0
   41.9500   33.9060   40.5750 C   0  0  0  0  0  0  0  0  0  0  0  0
   41.8100   32.5750   40.3220 C   0  0  0  0  0  0  0  0  0  0  0  0
   40.7690   31.7730   40.7210 C   0  0  0  0  0  0  0  0  0  0  0  0
   39.7760   32.3870   41.4490 C   0  0  0  0  0  0  0  0  0  0  0  0
   39.9260   33.7380   41.7020 C   0  0  0  0  0  0  0  0  0  0  0  0
   40.9510   34.4880   41.2980 N   0  0  0  0  0  0  0  0  0  0  0  0
   47.4541   33.9403   44.2453 H   0  0  0  0  0  0  0  0  0  0  0  0
   49.9385   32.8012   39.1264 H   0  0  0  0  0  0  0  0  0  0  0  0
   48.5713   29.7376   41.6463 H   0  0  0  0  0  0  0  0  0  0  0  0
   47.7804   35.4264   40.4064 H   0  0  0  0  0  0  0  0  0  0  0  0
   49.0558   34.9565   39.2510 H   0  0  0  0  0  0  0  0  0  0  0  0
   42.7756   35.8765   42.0548 H   0  0  0  0  0  0  0  0  0  0  0  0
   43.8512   36.6798   40.8372 H   0  0  0  0  0  0  0  0  0  0  0  0
   43.8053   34.3108   39.7499 H   0  0  0  0  0  0  0  0  0  0  0  0
   42.4614   35.5757   39.5290 H   0  0  0  0  0  0  0  0  0  0  0  0
   42.6104   32.0946   39.7402 H   0  0  0  0  0  0  0  0  0  0  0  0
   40.7313   30.7020   40.4730 H   0  0  0  0  0  0  0  0  0  0  0  0
   38.9016   31.8279   41.8135 H   0  0  0  0  0  0  0  0  0  0  0  0
   39.1352   34.2341   42.2839 H   0  0  0  0  0  0  0  0  0  0  0  0
  1  2  2  0
  2  3  1  0
  4  3  1  0
  5  4  2  0
  5  1  1  0
  6 11  2  0
  6  7  1  0
  7  8  2  0
  8  9  1  0
  8  1  1  0
 10  9  2  0
 11 10  1  0
 12  7  1  0
 13  4  1  0
 14 15  1  0
 14 13  1  0
 15 20  1  0
 16 15  2  0
 16 17  1  0
 17 18  2  0
 18 19  1  0
 20 19  2  0
  2 21  1  0
  6 22  1  0
 10 23  1  0
 12 24  1  0
 12 25  1  0
 13 26  1  0
 13 27  1  0
 14 28  1  0
 14 29  1  0
 16 30  1  0
 17 31  1  0
 18 32  1  0
 19 33  1  0
M  ISO  8  21  14  22  14  23  14  26   8  27   8  28   8  29   8  30  14
M  ISO  3  31  14  32  14  33  14
M  END
>  <minimizedAffinity>  (1) 
-4.4105711

>  <minimizedRMSD>  (1) 
7.15956783

$$$$
