
     RDKit          3D

 39 41  0  0  0  0  0  0  0  0999 V2000
   44.6430   35.7680   42.6540 C   0  0  0  0  0  0  0  0  0  0  0  0
   47.4210   33.4940   43.5730 C   0  0  0  0  0  0  0  0  0  0  0  0
   47.0310   33.1730   44.8180 C   0  0  0  0  0  0  0  0  0  0  0  0
   45.4560   34.1380   44.9940 S   0  0  0  0  0  0  0  0  0  0  0  0
   45.6340   34.8200   43.2730 C   0  0  0  0  0  0  0  0  0  0  0  0
   46.6090   34.3040   42.9920 N   0  0  0  0  0  0  0  0  0  0  0  0
   50.8940   33.2020   42.1180 C   0  0  0  0  0  0  0  0  0  0  0  0
   49.7510   33.7660   42.7360 C   0  0  0  0  0  0  0  0  0  0  0  0
   48.6530   32.9730   42.9330 C   0  0  0  0  0  0  0  0  0  0  0  0
   48.7450   31.6680   42.5080 N   0  0  0  0  0  0  0  0  0  0  0  0
   49.8380   31.1650   41.9280 C   0  0  0  0  0  0  0  0  0  0  0  0
   50.9070   31.9220   41.7320 N   0  0  0  0  0  0  0  0  0  0  0  0
   49.8450   35.1330   43.1070 N   0  0  0  0  0  0  0  0  0  0  0  0
   44.1490   35.2190   41.3500 C   0  0  0  0  0  0  0  0  0  0  0  0
   43.1920   34.1420   41.4110 C   0  0  0  0  0  0  0  0  0  0  0  0
   43.3680   32.8220   41.7060 C   0  0  0  0  0  0  0  0  0  0  0  0
   42.3880   31.8440   41.7440 C   0  0  0  0  0  0  0  0  0  0  0  0
   41.1140   32.2780   41.4500 C   0  0  0  0  0  0  0  0  0  0  0  0
   40.9430   33.6140   41.1520 C   0  0  0  0  0  0  0  0  0  0  0  0
   41.9230   34.5270   41.1280 N   0  0  0  0  0  0  0  0  0  0  0  0
   39.5150   33.9790   40.8460 C   0  0  0  0  0  0  0  0  0  0  0  0
   39.4690   34.9250   39.6830 C   0  0  0  0  0  0  0  0  0  0  0  0
   43.7919   35.9021   43.3379 H   0  0  0  0  0  0  0  0  0  0  0  0
   45.1349   36.7353   42.4737 H   0  0  0  0  0  0  0  0  0  0  0  0
   47.5198   32.5088   45.5459 H   0  0  0  0  0  0  0  0  0  0  0  0
   51.7844   33.8266   41.9532 H   0  0  0  0  0  0  0  0  0  0  0  0
   49.8504   30.1120   41.6101 H   0  0  0  0  0  0  0  0  0  0  0  0
   49.0465   35.5997   43.5604 H   0  0  0  0  0  0  0  0  0  0  0  0
   50.7117   35.6582   42.9228 H   0  0  0  0  0  0  0  0  0  0  0  0
   45.0236   34.8539   40.7916 H   0  0  0  0  0  0  0  0  0  0  0  0
   43.6096   36.0525   40.8764 H   0  0  0  0  0  0  0  0  0  0  0  0
   44.3943   32.5010   41.9377 H   0  0  0  0  0  0  0  0  0  0  0  0
   42.6110   30.7956   41.9913 H   0  0  0  0  0  0  0  0  0  0  0  0
   40.2617   31.5826   41.4528 H   0  0  0  0  0  0  0  0  0  0  0  0
   38.9506   33.0680   40.5979 H   0  0  0  0  0  0  0  0  0  0  0  0
   39.0682   34.4645   41.7262 H   0  0  0  0  0  0  0  0  0  0  0  0
   39.4187   35.9595   40.0536 H   0  0  0  0  0  0  0  0  0  0  0  0
   40.3744   34.7983   39.0712 H   0  0  0  0  0  0  0  0  0  0  0  0
   38.5802   34.7110   39.0712 H   0  0  0  0  0  0  0  0  0  0  0  0
  1  5  1  0
  2  3  2  0
  3  4  1  0
  5  4  1  0
  6  5  2  0
  6  2  1  0
  7  8  2  0
  8  9  1  0
  8 13  1  0
  9  2  1  0
 10  9  2  0
 11 10  1  0
 12 11  2  0
 12  7  1  0
 14 15  1  0
 14  1  1  0
 15 16  2  0
 16 17  1  0
 18 17  2  0
 19 18  1  0
 20 19  2  0
 20 15  1  0
 21 19  1  0
 22 21  1  0
  1 23  1  0
  1 24  1  0
  3 25  1  0
  7 26  1  0
 11 27  1  0
 13 28  1  0
 13 29  1  0
 14 30  1  0
 14 31  1  0
 16 32  1  0
 17 33  1  0
 18 34  1  0
 21 35  1  0
 21 36  1  0
 22 37  1  0
 22 38  1  0
 22 39  1  0
M  ISO  8  23   8  24   8  25  14  26  14  27  14  30   8  31   8  32  14
M  ISO  7  33  14  34  14  35   8  36   8  37   8  38   8  39   8
M  END
>  <minimizedAffinity>  (1) 
-5.56642056

>  <minimizedRMSD>  (1) 
1.94430387

$$$$
