
     RDKit          3D

 35 37  0  0  0  0  0  0  0  0999 V2000
   43.8470   35.8150   41.4850 C   0  0  0  0  0  0  0  0  0  0  0  0
   46.7160   33.7050   42.5010 C   0  0  0  0  0  0  0  0  0  0  0  0
   46.6700   33.9090   43.8350 C   0  0  0  0  0  0  0  0  0  0  0  0
   45.2230   35.0600   44.0000 S   0  0  0  0  0  0  0  0  0  0  0  0
   44.9460   35.0430   42.1660 C   0  0  0  0  0  0  0  0  0  0  0  0
   45.7910   34.3450   41.8610 N   0  0  0  0  0  0  0  0  0  0  0  0
   49.4790   32.4300   40.2810 C   0  0  0  0  0  0  0  0  0  0  0  0
   48.5540   33.3210   40.8700 C   0  0  0  0  0  0  0  0  0  0  0  0
   47.7150   32.8400   41.8340 C   0  0  0  0  0  0  0  0  0  0  0  0
   47.8320   31.5000   42.1680 N   0  0  0  0  0  0  0  0  0  0  0  0
   48.7210   30.6910   41.5850 C   0  0  0  0  0  0  0  0  0  0  0  0
   49.5400   31.1470   40.6500 N   0  0  0  0  0  0  0  0  0  0  0  0
   48.5690   34.6640   40.4080 N   0  0  0  0  0  0  0  0  0  0  0  0
   43.3950   35.1220   40.2480 C   0  0  0  0  0  0  0  0  0  0  0  0
   41.9820   34.8430   40.1280 C   0  0  0  0  0  0  0  0  0  0  0  0
   41.1070   35.0670   39.1030 C   0  0  0  0  0  0  0  0  0  0  0  0
   39.7620   34.7630   39.0810 C   0  0  0  0  0  0  0  0  0  0  0  0
   39.2670   34.1720   40.2230 C   0  0  0  0  0  0  0  0  0  0  0  0
   40.1540   33.9480   41.2590 C   0  0  0  0  0  0  0  0  0  0  0  0
   41.4560   34.2570   41.2430 N   0  0  0  0  0  0  0  0  0  0  0  0
   39.5410   33.3270   42.4070 N   0  0  0  0  0  0  0  0  0  0  0  0
   42.9953   35.9121   42.1744 H   0  0  0  0  0  0  0  0  0  0  0  0
   44.2349   36.8066   41.2090 H   0  0  0  0  0  0  0  0  0  0  0  0
   47.3215   33.4991   44.6208 H   0  0  0  0  0  0  0  0  0  0  0  0
   50.1629   32.7999   39.5029 H   0  0  0  0  0  0  0  0  0  0  0  0
   48.7731   29.6340   41.8852 H   0  0  0  0  0  0  0  0  0  0  0  0
   47.9143   35.3527   40.8055 H   0  0  0  0  0  0  0  0  0  0  0  0
   49.2345   34.9492   39.6755 H   0  0  0  0  0  0  0  0  0  0  0  0
   43.6824   35.7506   39.3923 H   0  0  0  0  0  0  0  0  0  0  0  0
   43.8779   34.1343   40.2828 H   0  0  0  0  0  0  0  0  0  0  0  0
   41.5190   35.5400   38.1994 H   0  0  0  0  0  0  0  0  0  0  0  0
   39.1264   34.9781   38.2094 H   0  0  0  0  0  0  0  0  0  0  0  0
   38.2072   33.8895   40.3069 H   0  0  0  0  0  0  0  0  0  0  0  0
   40.1073   33.1125   43.2402 H   0  0  0  0  0  0  0  0  0  0  0  0
   38.5369   33.0979   42.3938 H   0  0  0  0  0  0  0  0  0  0  0  0
  1  5  1  0
  2  3  2  0
  3  4  1  0
  5  4  1  0
  6  5  2  0
  6  2  1  0
  7 12  2  0
  7  8  1  0
  8  9  2  0
  9 10  1  0
  9  2  1  0
 11 10  2  0
 12 11  1  0
 13  8  1  0
 14  1  1  0
 15 14  1  0
 15 20  1  0
 16 15  2  0
 17 16  1  0
 17 18  2  0
 18 19  1  0
 19 21  1  0
 20 19  2  0
  1 22  1  0
  1 23  1  0
  3 24  1  0
  7 25  1  0
 11 26  1  0
 13 27  1  0
 13 28  1  0
 14 29  1  0
 14 30  1  0
 16 31  1  0
 17 32  1  0
 18 33  1  0
 21 34  1  0
 21 35  1  0
M  ISO  8  22   8  23   8  24  14  25  14  26  14  29   8  30   8  31  14
M  ISO  2  32  14  33  14
M  END
>  <minimizedAffinity>  (1) 
-5.39091587

>  <minimizedRMSD>  (1) 
1.21472526

$$$$
