
     RDKit          3D

 36 38  0  0  0  0  0  0  0  0999 V2000
   46.4940   33.9360   42.2570 C   0  0  0  0  0  0  0  0  0  0  0  0
   46.6430   34.3710   43.5230 C   0  0  0  0  0  0  0  0  0  0  0  0
   45.1260   35.4010   43.7500 S   0  0  0  0  0  0  0  0  0  0  0  0
   44.5500   35.0380   42.0220 C   0  0  0  0  0  0  0  0  0  0  0  0
   45.4120   34.3730   41.7040 N   0  0  0  0  0  0  0  0  0  0  0  0
   49.2200   32.6310   39.9990 C   0  0  0  0  0  0  0  0  0  0  0  0
   48.3240   33.5280   40.6120 C   0  0  0  0  0  0  0  0  0  0  0  0
   47.4660   33.0490   41.5680 C   0  0  0  0  0  0  0  0  0  0  0  0
   47.5460   31.7110   41.8620 N   0  0  0  0  0  0  0  0  0  0  0  0
   48.4110   30.8900   41.2580 C   0  0  0  0  0  0  0  0  0  0  0  0
   49.2470   31.3360   40.3330 N   0  0  0  0  0  0  0  0  0  0  0  0
   48.3840   34.8810   40.1800 N   0  0  0  0  0  0  0  0  0  0  0  0
   43.2820   35.5790   41.4440 C   0  0  0  0  0  0  0  0  0  0  0  0
   43.1330   35.1720   40.0120 C   0  0  0  0  0  0  0  0  0  0  0  0
   42.1880   34.1170   39.7140 C   0  0  0  0  0  0  0  0  0  0  0  0
   42.3790   32.8390   39.3010 C   0  0  0  0  0  0  0  0  0  0  0  0
   41.4040   31.8940   39.0390 C   0  0  0  0  0  0  0  0  0  0  0  0
   40.0990   32.3220   39.2270 C   0  0  0  0  0  0  0  0  0  0  0  0
   39.9140   33.6230   39.6480 C   0  0  0  0  0  0  0  0  0  0  0  0
   40.8900   34.5040   39.8890 N   0  0  0  0  0  0  0  0  0  0  0  0
   38.4620   33.9820   39.8210 C   0  0  0  0  0  0  0  0  0  0  0  0
   47.4556   34.1665   44.2356 H   0  0  0  0  0  0  0  0  0  0  0  0
   49.9122   33.0031   39.2293 H   0  0  0  0  0  0  0  0  0  0  0  0
   48.4286   29.8254   41.5342 H   0  0  0  0  0  0  0  0  0  0  0  0
   47.7524   35.5820   40.5931 H   0  0  0  0  0  0  0  0  0  0  0  0
   49.0590   35.1603   39.4539 H   0  0  0  0  0  0  0  0  0  0  0  0
   42.4290   35.1905   42.0197 H   0  0  0  0  0  0  0  0  0  0  0  0
   43.3118   36.6773   41.4964 H   0  0  0  0  0  0  0  0  0  0  0  0
   42.8221   36.0628   39.4465 H   0  0  0  0  0  0  0  0  0  0  0  0
   44.1135   34.7581   39.7339 H   0  0  0  0  0  0  0  0  0  0  0  0
   43.4221   32.5200   39.1592 H   0  0  0  0  0  0  0  0  0  0  0  0
   41.6469   30.8745   38.7049 H   0  0  0  0  0  0  0  0  0  0  0  0
   39.2455   31.6516   39.0478 H   0  0  0  0  0  0  0  0  0  0  0  0
   38.2241   34.0408   40.8934 H   0  0  0  0  0  0  0  0  0  0  0  0
   38.2661   34.9556   39.3480 H   0  0  0  0  0  0  0  0  0  0  0  0
   37.8350   33.2118   39.3480 H   0  0  0  0  0  0  0  0  0  0  0  0
  1  2  2  0
  2  3  1  0
  4  3  1  0
  5  4  2  0
  5  1  1  0
  6 11  2  0
  6  7  1  0
  7  8  2  0
  8  9  1  0
  8  1  1  0
 10  9  2  0
 11 10  1  0
 12  7  1  0
 13  4  1  0
 14 13  1  0
 15 20  1  0
 15 14  1  0
 16 15  2  0
 17 18  2  0
 17 16  1  0
 18 19  1  0
 19 21  1  0
 19 20  2  0
  2 22  1  0
  6 23  1  0
 10 24  1  0
 12 25  1  0
 12 26  1  0
 13 27  1  0
 13 28  1  0
 14 29  1  0
 14 30  1  0
 16 31  1  0
 17 32  1  0
 18 33  1  0
 21 34  1  0
 21 35  1  0
 21 36  1  0
M  ISO  8  22  14  23  14  24  14  27   8  28   8  29   8  30   8  31  14
M  ISO  5  32  14  33  14  34   8  35   8  36   8
M  END
>  <minimizedAffinity>  (1) 
-4.59249926

>  <minimizedRMSD>  (1) 
1.09076965

$$$$
