
     RDKit          3D

 36 38  0  0  0  0  0  0  0  0999 V2000
   43.1800   35.6080   41.1660 C   0  0  0  0  0  0  0  0  0  0  0  0
   46.4330   34.0300   41.9370 C   0  0  0  0  0  0  0  0  0  0  0  0
   46.6630   34.5790   43.1470 C   0  0  0  0  0  0  0  0  0  0  0  0
   45.1570   35.6420   43.3700 S   0  0  0  0  0  0  0  0  0  0  0  0
   44.4830   35.1190   41.7250 C   0  0  0  0  0  0  0  0  0  0  0  0
   45.3220   34.4170   41.4090 N   0  0  0  0  0  0  0  0  0  0  0  0
   49.1000   32.5140   39.7470 C   0  0  0  0  0  0  0  0  0  0  0  0
   48.2570   33.4850   40.3220 C   0  0  0  0  0  0  0  0  0  0  0  0
   47.3570   33.0810   41.2810 C   0  0  0  0  0  0  0  0  0  0  0  0
   47.3480   31.7320   41.6130 N   0  0  0  0  0  0  0  0  0  0  0  0
   48.1810   30.8540   41.0270 C   0  0  0  0  0  0  0  0  0  0  0  0
   49.0540   31.2360   40.0980 N   0  0  0  0  0  0  0  0  0  0  0  0
   48.4000   34.8140   39.8660 N   0  0  0  0  0  0  0  0  0  0  0  0
   43.0030   35.1770   39.7430 C   0  0  0  0  0  0  0  0  0  0  0  0
   41.6890   34.7250   39.3530 C   0  0  0  0  0  0  0  0  0  0  0  0
   40.9440   34.9870   38.2380 C   0  0  0  0  0  0  0  0  0  0  0  0
   39.6850   34.5060   37.9500 C   0  0  0  0  0  0  0  0  0  0  0  0
   39.1410   33.6720   38.9020 C   0  0  0  0  0  0  0  0  0  0  0  0
   39.8930   33.4060   40.0290 C   0  0  0  0  0  0  0  0  0  0  0  0
   41.1120   33.8950   40.2700 N   0  0  0  0  0  0  0  0  0  0  0  0
   39.2020   32.4860   41.0010 C   0  0  0  0  0  0  0  0  0  0  0  0
   37.8220   32.5480   40.8090 F   0  0  0  0  0  0  0  0  0  0  0  0
   39.5820   32.7010   42.2910 F   0  0  0  0  0  0  0  0  0  0  0  0
   39.5460   31.1620   40.6930 F   0  0  0  0  0  0  0  0  0  0  0  0
   42.3556   35.2000   41.7692 H   0  0  0  0  0  0  0  0  0  0  0  0
   43.1788   36.7075   41.1987 H   0  0  0  0  0  0  0  0  0  0  0  0
   47.5180   34.4350   43.8239 H   0  0  0  0  0  0  0  0  0  0  0  0
   49.8226   32.8271   38.9790 H   0  0  0  0  0  0  0  0  0  0  0  0
   48.1399   29.7952   41.3224 H   0  0  0  0  0  0  0  0  0  0  0  0
   47.8059   35.5592   40.2566 H   0  0  0  0  0  0  0  0  0  0  0  0
   49.0984   35.0380   39.1428 H   0  0  0  0  0  0  0  0  0  0  0  0
   43.2630   36.0327   39.1025 H   0  0  0  0  0  0  0  0  0  0  0  0
   43.6530   34.2970   39.6286 H   0  0  0  0  0  0  0  0  0  0  0  0
   41.3979   35.6535   37.4898 H   0  0  0  0  0  0  0  0  0  0  0  0
   39.1518   34.7696   37.0247 H   0  0  0  0  0  0  0  0  0  0  0  0
   38.1413   33.2328   38.7688 H   0  0  0  0  0  0  0  0  0  0  0  0
  1  5  1  0
  2  3  2  0
  3  4  1  0
  5  4  1  0
  6  5  2  0
  6  2  1  0
  7 12  2  0
  7  8  1  0
  8  9  2  0
  9 10  1  0
  9  2  1  0
 11 10  2  0
 12 11  1  0
 13  8  1  0
 14  1  1  0
 15 14  1  0
 15 20  1  0
 16 15  2  0
 17 16  1  0
 17 18  2  0
 18 19  1  0
 19 20  2  0
 19 21  1  0
 21 23  1  0
 22 21  1  0
 24 21  1  0
  1 25  1  0
  1 26  1  0
  3 27  1  0
  7 28  1  0
 11 29  1  0
 13 30  1  0
 13 31  1  0
 14 32  1  0
 14 33  1  0
 16 34  1  0
 17 35  1  0
 18 36  1  0
M  ISO  8  25   8  26   8  27  14  28  14  29  14  32   8  33   8  34  14
M  ISO  2  35  14  36  14
M  END
>  <minimizedAffinity>  (1) 
-5.63061333

>  <minimizedRMSD>  (1) 
1.81921315

$$$$
