
     RDKit          3D

 17 17  0  0  0  0  0  0  0  0999 V2000
   44.6170   36.0230   44.3510 C   0  0  0  0  0  0  0  0  0  0  0  0
   45.3750   35.8830   43.1710 C   0  0  0  0  0  0  0  0  0  0  0  0
   46.2650   34.8060   43.0620 C   0  0  0  0  0  0  0  0  0  0  0  0
   46.3480   33.9420   44.1180 N   0  0  0  0  0  0  0  0  0  0  0  0
   45.6100   34.1060   45.2250 C   0  0  0  0  0  0  0  0  0  0  0  0
   44.7510   35.1320   45.3520 N   0  0  0  0  0  0  0  0  0  0  0  0
   47.2380   34.6010   41.5830 S   0  0  0  0  0  0  0  0  0  0  0  0
   48.7260   35.6020   41.5900 C   0  0  0  0  0  0  0  0  0  0  0  0
   49.7650   34.9640   42.5160 C   0  0  0  0  0  0  0  0  0  0  0  0
   43.9138   36.8625   44.4547 H   0  0  0  0  0  0  0  0  0  0  0  0
   45.2698   36.6069   42.3495 H   0  0  0  0  0  0  0  0  0  0  0  0
   45.7097   33.3839   46.0488 H   0  0  0  0  0  0  0  0  0  0  0  0
   49.1322   35.6625   40.5695 H   0  0  0  0  0  0  0  0  0  0  0  0
   48.4861   36.6136   41.9494 H   0  0  0  0  0  0  0  0  0  0  0  0
   49.4793   35.1394   43.5637 H   0  0  0  0  0  0  0  0  0  0  0  0
   49.8111   33.8817   42.3248 H   0  0  0  0  0  0  0  0  0  0  0  0
   50.7511   35.4125   42.3248 H   0  0  0  0  0  0  0  0  0  0  0  0
  1  6  2  0
  2  1  1  0
  3  2  2  0
  3  4  1  0
  4  5  2  0
  5  6  1  0
  7  8  1  0
  7  3  1  0
  8  9  1  0
  1 10  1  0
  2 11  1  0
  5 12  1  0
  8 13  1  0
  8 14  1  0
  9 15  1  0
  9 16  1  0
  9 17  1  0
M  ISO  8  10  14  11  14  12  14  13   8  14   8  15   8  16   8  17   8
M  END
>  <minimizedAffinity>  (1) 
-3.60937548

>  <minimizedRMSD>  (1) 
1.99961829

$$$$
