
     RDKit          3D

 39 41  0  0  0  0  0  0  0  0999 V2000
   43.2740   35.1920   41.9140 C   0  0  0  0  0  0  0  0  0  0  0  0
   46.5740   33.6560   42.5540 C   0  0  0  0  0  0  0  0  0  0  0  0
   46.7250   33.9710   43.8460 C   0  0  0  0  0  0  0  0  0  0  0  0
   45.1550   34.8970   44.1790 S   0  0  0  0  0  0  0  0  0  0  0  0
   44.5810   34.6630   42.4320 C   0  0  0  0  0  0  0  0  0  0  0  0
   45.4680   34.0810   42.0450 N   0  0  0  0  0  0  0  0  0  0  0  0
   49.3320   32.6860   40.1720 C   0  0  0  0  0  0  0  0  0  0  0  0
   48.4040   33.4890   40.8620 C   0  0  0  0  0  0  0  0  0  0  0  0
   47.5820   32.8900   41.7800 C   0  0  0  0  0  0  0  0  0  0  0  0
   47.7270   31.5190   41.9640 N   0  0  0  0  0  0  0  0  0  0  0  0
   48.6330   30.8080   41.2720 C   0  0  0  0  0  0  0  0  0  0  0  0
   49.4370   31.3810   40.3780 N   0  0  0  0  0  0  0  0  0  0  0  0
   48.3920   34.8600   40.5520 N   0  0  0  0  0  0  0  0  0  0  0  0
   43.3400   35.4560   40.4510 C   0  0  0  0  0  0  0  0  0  0  0  0
   42.1600   35.1480   39.6680 C   0  0  0  0  0  0  0  0  0  0  0  0
   41.8380   35.4860   38.3860 C   0  0  0  0  0  0  0  0  0  0  0  0
   40.6900   35.1430   37.7200 C   0  0  0  0  0  0  0  0  0  0  0  0
   39.7850   34.3850   38.4250 C   0  0  0  0  0  0  0  0  0  0  0  0
   40.1100   34.0480   39.7100 C   0  0  0  0  0  0  0  0  0  0  0  0
   41.2380   34.3980   40.3320 N   0  0  0  0  0  0  0  0  0  0  0  0
   39.0620   33.2290   40.4120 C   0  0  0  0  0  0  0  0  0  0  0  0
   37.8080   33.8300   40.2420 F   0  0  0  0  0  0  0  0  0  0  0  0
   39.3490   33.0150   41.7360 F   0  0  0  0  0  0  0  0  0  0  0  0
   38.9700   31.9820   39.8040 F   0  0  0  0  0  0  0  0  0  0  0  0
   38.5550   34.0210   37.6720 C   0  0  0  0  0  0  0  0  0  0  0  0
   42.4848   34.4511   42.1093 H   0  0  0  0  0  0  0  0  0  0  0  0
   43.0541   36.1391   42.4284 H   0  0  0  0  0  0  0  0  0  0  0  0
   47.5576   33.7417   44.5273 H   0  0  0  0  0  0  0  0  0  0  0  0
   49.9954   33.1599   39.4336 H   0  0  0  0  0  0  0  0  0  0  0  0
   48.7128   29.7251   41.4483 H   0  0  0  0  0  0  0  0  0  0  0  0
   47.7316   35.4901   41.0292 H   0  0  0  0  0  0  0  0  0  0  0  0
   49.0436   35.2345   39.8476 H   0  0  0  0  0  0  0  0  0  0  0  0
   43.5556   36.5264   40.3174 H   0  0  0  0  0  0  0  0  0  0  0  0
   44.1159   34.7731   40.0746 H   0  0  0  0  0  0  0  0  0  0  0  0
   42.5706   36.0925   37.8333 H   0  0  0  0  0  0  0  0  0  0  0  0
   40.5037   35.4559   36.6820 H   0  0  0  0  0  0  0  0  0  0  0  0
   37.7484   33.7823   38.3808 H   0  0  0  0  0  0  0  0  0  0  0  0
   38.2486   34.8670   37.0392 H   0  0  0  0  0  0  0  0  0  0  0  0
   38.7584   33.1445   37.0392 H   0  0  0  0  0  0  0  0  0  0  0  0
  1  5  1  0
  2  3  2  0
  3  4  1  0
  5  4  1  0
  6  5  2  0
  6  2  1  0
  7 12  2  0
  7  8  1  0
  8  9  2  0
  9 10  1  0
  9  2  1  0
 11 10  2  0
 12 11  1  0
 13  8  1  0
 14  1  1  0
 15 20  1  0
 15 14  1  0
 16 15  2  0
 17 16  1  0
 17 18  2  0
 18 19  1  0
 19 20  2  0
 19 21  1  0
 21 23  1  0
 22 21  1  0
 24 21  1  0
 25 18  1  0
  1 26  1  0
  1 27  1  0
  3 28  1  0
  7 29  1  0
 11 30  1  0
 13 31  1  0
 13 32  1  0
 14 33  1  0
 14 34  1  0
 16 35  1  0
 17 36  1  0
 25 37  1  0
 25 38  1  0
 25 39  1  0
M  ISO  8  26   8  27   8  28  14  29  14  30  14  33   8  34   8  35  14
M  ISO  4  36  14  37   8  38   8  39   8
M  END
>  <minimizedAffinity>  (1) 
-5.98136282

>  <minimizedRMSD>  (1) 
0.888234019

$$$$
