
     RDKit          3D

 30 32  0  0  0  0  0  0  0  0999 V2000
   44.5150   35.9000   44.6920 C   0  0  0  0  0  0  0  0  0  0  0  0
   45.1700   35.8050   43.4560 C   0  0  0  0  0  0  0  0  0  0  0  0
   46.0980   34.7820   43.2140 C   0  0  0  0  0  0  0  0  0  0  0  0
   46.3250   33.9090   44.2170 N   0  0  0  0  0  0  0  0  0  0  0  0
   45.6890   34.0100   45.4030 C   0  0  0  0  0  0  0  0  0  0  0  0
   44.8000   34.9870   45.6400 N   0  0  0  0  0  0  0  0  0  0  0  0
   44.6520   33.1140   41.2860 Cl  0  0  0  0  0  0  0  0  0  0  0  0
   46.1930   33.9060   40.9490 C   0  0  0  0  0  0  0  0  0  0  0  0
   46.7900   34.6680   41.9290 C   0  0  0  0  0  0  0  0  0  0  0  0
   47.9970   35.2680   41.6250 C   0  0  0  0  0  0  0  0  0  0  0  0
   48.5860   35.1140   40.3900 C   0  0  0  0  0  0  0  0  0  0  0  0
   47.9400   34.3340   39.4400 C   0  0  0  0  0  0  0  0  0  0  0  0
   48.6770   34.1310   37.8700 Cl  0  0  0  0  0  0  0  0  0  0  0  0
   46.7380   33.7150   39.6920 C   0  0  0  0  0  0  0  0  0  0  0  0
   44.2740   33.8330   47.8490 F   0  0  0  0  0  0  0  0  0  0  0  0
   45.2840   32.9640   47.6110 C   0  0  0  0  0  0  0  0  0  0  0  0
   46.0030   33.0180   46.4260 C   0  0  0  0  0  0  0  0  0  0  0  0
   47.0350   32.1250   46.1920 C   0  0  0  0  0  0  0  0  0  0  0  0
   47.2820   31.2100   47.1990 C   0  0  0  0  0  0  0  0  0  0  0  0
   46.5780   31.1380   48.3880 C   0  0  0  0  0  0  0  0  0  0  0  0
   45.5550   32.0380   48.5960 C   0  0  0  0  0  0  0  0  0  0  0  0
   43.7858   36.7011   44.8828 H   0  0  0  0  0  0  0  0  0  0  0  0
   44.9536   36.5409   42.6676 H   0  0  0  0  0  0  0  0  0  0  0  0
   48.4987   35.8826   42.3869 H   0  0  0  0  0  0  0  0  0  0  0  0
   49.5469   35.5981   40.1610 H   0  0  0  0  0  0  0  0  0  0  0  0
   46.2352   33.0989   38.9320 H   0  0  0  0  0  0  0  0  0  0  0  0
   47.6224   32.1424   45.2621 H   0  0  0  0  0  0  0  0  0  0  0  0
   48.0967   30.4875   47.0436 H   0  0  0  0  0  0  0  0  0  0  0  0
   46.8282   30.3824   49.1473 H   0  0  0  0  0  0  0  0  0  0  0  0
   44.9684   32.0180   49.5263 H   0  0  0  0  0  0  0  0  0  0  0  0
  1  6  2  0
  2  1  1  0
  3  2  2  0
  3  4  1  0
  4  5  2  0
  5  6  1  0
  5 17  1  0
  8  7  1  0
  8  9  2  0
  9  3  1  0
 10  9  1  0
 11 10  2  0
 12 14  2  0
 12 11  1  0
 13 12  1  0
 14  8  1  0
 16 15  1  0
 16 21  2  0
 17 16  1  0
 18 17  2  0
 18 19  1  0
 19 20  2  0
 20 21  1  0
  1 22  1  0
  2 23  1  0
 10 24  1  0
 11 25  1  0
 14 26  1  0
 18 27  1  0
 19 28  1  0
 20 29  1  0
 21 30  1  0
M  ISO  8  22  14  23  14  24  14  25  14  26  14  27  14  28  14  29  14
M  ISO  1  30  14
M  END
>  <minimizedAffinity>  (1) 
-6.98804855

>  <minimizedRMSD>  (1) 
0.172173381

$$$$
