
     RDKit          3D

 31 33  0  0  1  0  0  0  0  0999 V2000
   48.2590   32.6200   40.4790 C   0  0  0  0  0  0  0  0  0  0  0  0
   49.4810   32.3090   40.1660 C   0  0  0  0  0  0  0  0  0  0  0  0
   49.8180   31.9140   38.8580 N   0  0  0  0  0  0  0  0  0  0  0  0
   50.5180   30.9710   38.0170 C   0  0  0  0  0  0  0  0  0  0  0  0
   51.5410   30.2350   38.1490 O   0  0  0  0  0  0  0  0  0  0  0  0
   49.4730   31.3000   36.9830 C   0  0  0  0  0  0  0  0  0  0  0  0
   49.3580   32.6450   37.6630 C   0  0  1  0  0  0  0  0  0  0  0  0
   47.6970   33.2610   37.9510 S   0  0  0  0  0  0  0  0  0  0  0  0
   47.1200   32.5810   39.5280 C   0  0  0  0  0  0  0  0  0  0  0  0
   50.5280   32.3730   41.1860 C   0  0  0  0  0  0  0  0  0  0  0  0
   51.7320   32.0000   41.0220 O   0  0  0  0  0  0  0  0  0  0  0  0
   51.2630   32.5570   42.3170 O   0  0  0  0  0  0  0  0  0  0  0  0
   47.9320   33.0320   41.8390 C   0  0  0  0  0  0  0  0  0  0  0  0
   47.1040   34.6690   41.8290 S   0  0  0  0  0  0  0  0  0  0  0  0
   44.5120   35.9090   44.6920 C   0  0  0  0  0  0  0  0  0  0  0  0
   45.2420   35.8510   43.4730 C   0  0  0  0  0  0  0  0  0  0  0  0
   46.1660   34.7860   43.3360 C   0  0  0  0  0  0  0  0  0  0  0  0
   46.2980   33.9080   44.3520 N   0  0  0  0  0  0  0  0  0  0  0  0
   45.5880   34.0010   45.4850 C   0  0  0  0  0  0  0  0  0  0  0  0
   44.6970   34.9970   45.6600 N   0  0  0  0  0  0  0  0  0  0  0  0
   49.8418   31.3352   35.9473 H   0  0  0  0  0  0  0  0  0  0  0  0
   48.5997   30.6554   36.8046 H   0  0  0  0  0  0  0  0  0  0  0  0
   49.8186   33.5385   37.2164 H   0  0  0  0  0  0  0  0  0  0  0  0
   46.2875   33.1868   39.9152 H   0  0  0  0  0  0  0  0  0  0  0  0
   46.7634   31.5489   39.3955 H   0  0  0  0  0  0  0  0  0  0  0  0
   52.2209   32.3074   42.3309 H   0  0  0  0  0  0  0  0  0  0  0  0
   47.2594   32.2883   42.2913 H   0  0  0  0  0  0  0  0  0  0  0  0
   48.8613   33.1055   42.4230 H   0  0  0  0  0  0  0  0  0  0  0  0
   43.7813   36.7169   44.8450 H   0  0  0  0  0  0  0  0  0  0  0  0
   45.0965   36.5956   42.6765 H   0  0  0  0  0  0  0  0  0  0  0  0
   45.7341   33.2560   46.2810 H   0  0  0  0  0  0  0  0  0  0  0  0
  1 13  1  0
  2  1  2  0
  2 10  1  0
  3  2  1  0
  4  5  2  0
  4  3  1  0
  6  4  1  0
  7  6  1  0
  7  8  1  0
  7  3  1  0
  8  9  1  0
  9  1  1  0
 10 12  1  0
 11 10  2  0
 14 13  1  0
 14 17  1  0
 15 20  2  0
 16 15  1  0
 17 16  2  0
 17 18  1  0
 18 19  2  0
 19 20  1  0
  6 21  1  0
  6 22  1  0
  7 23  1  6
  9 24  1  0
  9 25  1  0
 12 26  1  0
 13 27  1  0
 13 28  1  0
 15 29  1  0
 16 30  1  0
 19 31  1  0
M  ISO  8  21  13  22  13  23  13  24  13  25  13  26   3  27   8  28   8
M  ISO  3  29  14  30  14  31  14
M  END
>  <minimizedAffinity>  (1) 
-4.51749086

>  <minimizedRMSD>  (1) 
1.02262783

$$$$
