
     RDKit          3D

 23 24  0  0  0  0  0  0  0  0999 V2000
   44.4610   35.9380   44.8740 C   0  0  0  0  0  0  0  0  0  0  0  0
   45.1140   35.8310   43.6410 C   0  0  0  0  0  0  0  0  0  0  0  0
   46.0050   34.7790   43.3900 C   0  0  0  0  0  0  0  0  0  0  0  0
   46.1930   33.8860   44.3920 N   0  0  0  0  0  0  0  0  0  0  0  0
   45.5500   34.0140   45.5720 C   0  0  0  0  0  0  0  0  0  0  0  0
   44.7030   35.0150   45.8130 N   0  0  0  0  0  0  0  0  0  0  0  0
   44.5090   33.1520   41.4540 Cl  0  0  0  0  0  0  0  0  0  0  0  0
   46.0720   33.9060   41.1260 C   0  0  0  0  0  0  0  0  0  0  0  0
   46.6930   34.6540   42.1100 C   0  0  0  0  0  0  0  0  0  0  0  0
   47.9170   35.2250   41.8050 C   0  0  0  0  0  0  0  0  0  0  0  0
   48.4840   35.0400   40.5490 C   0  0  0  0  0  0  0  0  0  0  0  0
   47.8120   34.2800   39.6060 C   0  0  0  0  0  0  0  0  0  0  0  0
   48.5530   34.0670   38.0360 Cl  0  0  0  0  0  0  0  0  0  0  0  0
   46.5910   33.6930   39.8660 C   0  0  0  0  0  0  0  0  0  0  0  0
   45.8250   32.9770   46.6180 C   0  0  0  0  0  0  0  0  0  0  0  0
   47.1190   33.0300   47.0730 F   0  0  0  0  0  0  0  0  0  0  0  0
   44.9170   33.0410   47.6520 F   0  0  0  0  0  0  0  0  0  0  0  0
   45.6880   31.7260   46.0030 F   0  0  0  0  0  0  0  0  0  0  0  0
   43.7620   36.7649   45.0680 H   0  0  0  0  0  0  0  0  0  0  0  0
   44.9256   36.5817   42.8594 H   0  0  0  0  0  0  0  0  0  0  0  0
   48.4432   35.8278   42.5598 H   0  0  0  0  0  0  0  0  0  0  0  0
   49.4567   35.4928   40.3066 H   0  0  0  0  0  0  0  0  0  0  0  0
   46.0624   33.0905   39.1127 H   0  0  0  0  0  0  0  0  0  0  0  0
  1  6  2  0
  2  1  1  0
  3  2  2  0
  3  4  1  0
  4  5  2  0
  5  6  1  0
  5 15  1  0
  8  7  1  0
  8  9  2  0
  9  3  1  0
 10  9  1  0
 11 10  2  0
 12 14  2  0
 12 11  1  0
 13 12  1  0
 14  8  1  0
 15 16  1  0
 15 17  1  0
 18 15  1  0
  1 19  1  0
  2 20  1  0
 10 21  1  0
 11 22  1  0
 14 23  1  0
M  ISO  5  19  14  20  14  21  14  22  14  23  14
M  END
>  <minimizedAffinity>  (1) 
-6.12425375

>  <minimizedRMSD>  (1) 
0.166956067

$$$$
