
     RDKit          3D

 27 29  0  0  0  0  0  0  0  0999 V2000
   44.7880   32.9340   41.4780 Cl  0  0  0  0  0  0  0  0  0  0  0  0
   46.2600   33.8250   41.1320 C   0  0  0  0  0  0  0  0  0  0  0  0
   46.8470   34.5920   42.1230 C   0  0  0  0  0  0  0  0  0  0  0  0
   47.9980   35.2750   41.8140 C   0  0  0  0  0  0  0  0  0  0  0  0
   48.5710   35.2150   40.5610 C   0  0  0  0  0  0  0  0  0  0  0  0
   47.9380   34.4260   39.5950 C   0  0  0  0  0  0  0  0  0  0  0  0
   48.6350   34.3260   37.9950 Cl  0  0  0  0  0  0  0  0  0  0  0  0
   46.7750   33.7170   39.8540 C   0  0  0  0  0  0  0  0  0  0  0  0
   44.5420   35.5310   44.9770 C   0  0  0  0  0  0  0  0  0  0  0  0
   45.1690   35.5170   43.7200 C   0  0  0  0  0  0  0  0  0  0  0  0
   46.1930   34.6130   43.4220 C   0  0  0  0  0  0  0  0  0  0  0  0
   46.5340   33.7590   44.4260 N   0  0  0  0  0  0  0  0  0  0  0  0
   45.9300   33.7790   45.6240 C   0  0  0  0  0  0  0  0  0  0  0  0
   44.9500   34.6550   45.8880 N   0  0  0  0  0  0  0  0  0  0  0  0
   46.4200   32.7760   46.6170 C   0  0  0  0  0  0  0  0  0  0  0  0
   45.4870   32.4900   47.7320 C   0  0  0  0  0  0  0  0  0  0  0  0
   45.7560   31.4540   46.7140 C   0  0  0  0  0  0  0  0  0  0  0  0
   48.4778   35.8891   42.5903 H   0  0  0  0  0  0  0  0  0  0  0  0
   49.4932   35.7681   40.3295 H   0  0  0  0  0  0  0  0  0  0  0  0
   46.2881   33.1013   39.0834 H   0  0  0  0  0  0  0  0  0  0  0  0
   43.7368   36.2465   45.2002 H   0  0  0  0  0  0  0  0  0  0  0  0
   44.8464   36.2348   42.9514 H   0  0  0  0  0  0  0  0  0  0  0  0
   47.4696   33.0847   46.5025 H   0  0  0  0  0  0  0  0  0  0  0  0
   45.8735   32.3690   48.7547 H   0  0  0  0  0  0  0  0  0  0  0  0
   44.5817   32.9713   48.1304 H   0  0  0  0  0  0  0  0  0  0  0  0
   44.9742   31.1771   45.9914 H   0  0  0  0  0  0  0  0  0  0  0  0
   46.1023   30.4102   46.7398 H   0  0  0  0  0  0  0  0  0  0  0  0
  2  1  1  0
  2  3  2  0
  3 11  1  0
  4  3  1  0
  5  4  2  0
  6  8  2  0
  6  5  1  0
  7  6  1  0
  8  2  1  0
  9 14  2  0
 10  9  1  0
 11 10  2  0
 11 12  1  0
 12 13  2  0
 13 14  1  0
 13 15  1  0
 15 17  1  0
 15 16  1  0
 17 16  1  0
  4 18  1  0
  5 19  1  0
  8 20  1  0
  9 21  1  0
 10 22  1  0
 15 23  1  0
 16 24  1  0
 16 25  1  0
 17 26  1  0
 17 27  1  0
M  ISO  8  18  14  19  14  20  14  21  14  22  14  23  13  24  13  25  13
M  ISO  2  26  13  27  13
M  END
>  <minimizedAffinity>  (1) 
-5.71687841

>  <minimizedRMSD>  (1) 
0.443071663

$$$$
