
     RDKit          3D

 22 23  0  0  0  0  0  0  0  0999 V2000
   44.3850   33.3160   41.3490 Cl  0  0  0  0  0  0  0  0  0  0  0  0
   45.9940   33.9770   41.0390 C   0  0  0  0  0  0  0  0  0  0  0  0
   46.6410   34.6980   42.0270 C   0  0  0  0  0  0  0  0  0  0  0  0
   47.8880   35.1880   41.7380 C   0  0  0  0  0  0  0  0  0  0  0  0
   48.4940   34.9840   40.5130 C   0  0  0  0  0  0  0  0  0  0  0  0
   47.7850   34.2450   39.5560 C   0  0  0  0  0  0  0  0  0  0  0  0
   48.5490   33.9840   38.0050 Cl  0  0  0  0  0  0  0  0  0  0  0  0
   46.5380   33.7330   39.7930 C   0  0  0  0  0  0  0  0  0  0  0  0
   44.4890   36.1430   44.7750 C   0  0  0  0  0  0  0  0  0  0  0  0
   45.1530   36.0030   43.5450 C   0  0  0  0  0  0  0  0  0  0  0  0
   45.9410   34.8720   43.2880 C   0  0  0  0  0  0  0  0  0  0  0  0
   46.0120   33.9490   44.2880 N   0  0  0  0  0  0  0  0  0  0  0  0
   45.3660   34.1080   45.4580 C   0  0  0  0  0  0  0  0  0  0  0  0
   44.6120   35.1950   45.6960 N   0  0  0  0  0  0  0  0  0  0  0  0
   45.5510   33.0470   46.3890 N   0  0  0  0  0  0  0  0  0  0  0  0
   48.4245   35.7630   42.5071 H   0  0  0  0  0  0  0  0  0  0  0  0
   49.4948   35.3863   40.2971 H   0  0  0  0  0  0  0  0  0  0  0  0
   45.9960   33.1560   39.0293 H   0  0  0  0  0  0  0  0  0  0  0  0
   43.8717   37.0316   44.9735 H   0  0  0  0  0  0  0  0  0  0  0  0
   45.0541   36.7857   42.7785 H   0  0  0  0  0  0  0  0  0  0  0  0
   45.0933   33.0851   47.3109 H   0  0  0  0  0  0  0  0  0  0  0  0
   46.1426   32.2412   46.1407 H   0  0  0  0  0  0  0  0  0  0  0  0
  2  1  1  0
  2  3  2  0
  3 11  1  0
  4  3  1  0
  5  4  2  0
  6  8  2  0
  6  5  1  0
  7  6  1  0
  8  2  1  0
  9 14  2  0
 10  9  1  0
 11 10  2  0
 11 12  1  0
 12 13  2  0
 13 14  1  0
 13 15  1  0
  4 16  1  0
  5 17  1  0
  8 18  1  0
  9 19  1  0
 10 20  1  0
 15 21  1  0
 15 22  1  0
M  ISO  5  16  14  17  14  18  14  19  14  20  14
M  END
>  <minimizedAffinity>  (1) 
-5.51277828

>  <minimizedRMSD>  (1) 
0.177312896

$$$$
