
     RDKit          3D

 35 37  0  0  1  0  0  0  0  0999 V2000
   44.6000   35.4660   44.8970 C   0  0  0  0  0  0  0  0  0  0  0  0
   45.2270   35.4910   43.6360 C   0  0  0  0  0  0  0  0  0  0  0  0
   46.2890   34.6280   43.3450 C   0  0  0  0  0  0  0  0  0  0  0  0
   46.6870   33.7690   44.3250 N   0  0  0  0  0  0  0  0  0  0  0  0
   46.0750   33.7650   45.5190 C   0  0  0  0  0  0  0  0  0  0  0  0
   45.0540   34.5900   45.8080 N   0  0  0  0  0  0  0  0  0  0  0  0
   46.5830   32.7930   46.5350 C   0  0  2  0  0  0  0  0  0  0  0  0
   47.0170   31.4980   45.8780 C   0  0  0  0  0  0  0  0  0  0  0  0
   45.8300   30.5480   45.9140 C   0  0  0  0  0  0  0  0  0  0  0  0
   45.4780   30.1670   47.1870 O   0  0  0  0  0  0  0  0  0  0  0  0
   45.6090   31.1820   48.1450 C   0  0  0  0  0  0  0  0  0  0  0  0
   45.4000   32.5020   47.4430 C   0  0  1  0  0  0  0  0  0  0  0  0
   45.0850   33.5390   48.2810 O   0  0  0  0  0  0  0  0  0  0  0  0
   44.9130   32.9340   41.3680 Cl  0  0  0  0  0  0  0  0  0  0  0  0
   46.3740   33.8640   41.0310 C   0  0  0  0  0  0  0  0  0  0  0  0
   46.9510   34.6370   42.0370 C   0  0  0  0  0  0  0  0  0  0  0  0
   48.0820   35.3410   41.7320 C   0  0  0  0  0  0  0  0  0  0  0  0
   48.6420   35.2910   40.4650 C   0  0  0  0  0  0  0  0  0  0  0  0
   48.0210   34.5030   39.5040 C   0  0  0  0  0  0  0  0  0  0  0  0
   48.7190   34.4310   37.8930 Cl  0  0  0  0  0  0  0  0  0  0  0  0
   46.8890   33.7800   39.7580 C   0  0  0  0  0  0  0  0  0  0  0  0
   43.7644   36.1430   45.1284 H   0  0  0  0  0  0  0  0  0  0  0  0
   44.8770   36.1985   42.8698 H   0  0  0  0  0  0  0  0  0  0  0  0
   47.4499   33.2054   47.0721 H   0  0  0  0  0  0  0  0  0  0  0  0
   47.8636   31.0625   46.4289 H   0  0  0  0  0  0  0  0  0  0  0  0
   47.3385   31.6778   44.8415 H   0  0  0  0  0  0  0  0  0  0  0  0
   44.9681   31.0481   45.4481 H   0  0  0  0  0  0  0  0  0  0  0  0
   46.1240   29.6379   45.3706 H   0  0  0  0  0  0  0  0  0  0  0  0
   44.8534   31.0530   48.9339 H   0  0  0  0  0  0  0  0  0  0  0  0
   46.6043   31.1462   48.6121 H   0  0  0  0  0  0  0  0  0  0  0  0
   44.5012   32.4051   46.8163 H   0  0  0  0  0  0  0  0  0  0  0  0
   45.1751   33.2425   49.2213 H   0  0  0  0  0  0  0  0  0  0  0  0
   48.5574   35.9596   42.5074 H   0  0  0  0  0  0  0  0  0  0  0  0
   49.5531   35.8596   40.2270 H   0  0  0  0  0  0  0  0  0  0  0  0
   46.4133   33.1615   38.9827 H   0  0  0  0  0  0  0  0  0  0  0  0
  1  6  2  0
  2  1  1  0
  3  2  2  0
  3  4  1  0
  4  5  2  0
  5  6  1  0
  5  7  1  0
  7 12  1  0
  8  9  1  0
  8  7  1  0
  9 10  1  0
 10 11  1  0
 12 11  1  0
 12 13  1  0
 15 14  1  0
 15 16  2  0
 16  3  1  0
 17 16  1  0
 18 17  2  0
 19 21  2  0
 19 18  1  0
 20 19  1  0
 21 15  1  0
  1 22  1  0
  2 23  1  0
  7 24  1  1
  8 25  1  0
  8 26  1  0
  9 27  1  0
  9 28  1  0
 11 29  1  0
 11 30  1  0
 12 31  1  6
 13 32  1  0
 17 33  1  0
 18 34  1  0
 21 35  1  0
M  ISO  8  22  14  23  14  24  13  25  13  26  13  27  13  28  13  29  13
M  ISO  6  30  13  31  13  32   3  33  14  34  14  35  14
M  END
>  <minimizedAffinity>  (1) 
-6.97556734

>  <minimizedRMSD>  (1) 
0.209598929

$$$$
