
     RDKit          3D

 30 32  0  0  0  0  0  0  0  0999 V2000
   45.2050   33.5160   41.1420 F   0  0  0  0  0  0  0  0  0  0  0  0
   46.4150   34.1560   41.0710 C   0  0  0  0  0  0  0  0  0  0  0  0
   46.9310   34.8500   42.1280 C   0  0  0  0  0  0  0  0  0  0  0  0
   48.1460   35.4500   41.9450 C   0  0  0  0  0  0  0  0  0  0  0  0
   48.8590   35.3910   40.7740 C   0  0  0  0  0  0  0  0  0  0  0  0
   48.2900   34.6770   39.7390 C   0  0  0  0  0  0  0  0  0  0  0  0
   47.0720   34.0550   39.8690 C   0  0  0  0  0  0  0  0  0  0  0  0
   44.4670   35.9150   44.8080 C   0  0  0  0  0  0  0  0  0  0  0  0
   45.2020   35.8920   43.6230 C   0  0  0  0  0  0  0  0  0  0  0  0
   46.1500   34.8940   43.3600 C   0  0  0  0  0  0  0  0  0  0  0  0
   46.2950   33.9640   44.3370 N   0  0  0  0  0  0  0  0  0  0  0  0
   45.5810   33.9970   45.4730 C   0  0  0  0  0  0  0  0  0  0  0  0
   44.6820   34.9540   45.7070 N   0  0  0  0  0  0  0  0  0  0  0  0
   46.5560   33.3240   38.7130 C   0  0  0  0  0  0  0  0  0  0  0  0
   45.3630   32.6300   38.8000 C   0  0  0  0  0  0  0  0  0  0  0  0
   44.9520   31.9680   37.6620 C   0  0  0  0  0  0  0  0  0  0  0  0
   45.6790   31.9800   36.4700 C   0  0  0  0  0  0  0  0  0  0  0  0
   46.8760   32.7010   36.4540 C   0  0  0  0  0  0  0  0  0  0  0  0
   47.3310   33.3830   37.5730 C   0  0  0  0  0  0  0  0  0  0  0  0
   48.5772   36.0130   42.7859 H   0  0  0  0  0  0  0  0  0  0  0  0
   49.8345   35.8876   40.6657 H   0  0  0  0  0  0  0  0  0  0  0  0
   48.8275   34.6038   38.7820 H   0  0  0  0  0  0  0  0  0  0  0  0
   43.7274   36.7071   44.9966 H   0  0  0  0  0  0  0  0  0  0  0  0
   45.0328   36.6794   42.8737 H   0  0  0  0  0  0  0  0  0  0  0  0
   45.7413   33.2152   46.2300 H   0  0  0  0  0  0  0  0  0  0  0  0
   44.7729   32.6072   39.7280 H   0  0  0  0  0  0  0  0  0  0  0  0
   44.0078   31.4045   37.6950 H   0  0  0  0  0  0  0  0  0  0  0  0
   45.3234   31.4429   35.5783 H   0  0  0  0  0  0  0  0  0  0  0  0
   47.4727   32.7284   35.5303 H   0  0  0  0  0  0  0  0  0  0  0  0
   48.2738   33.9493   37.5523 H   0  0  0  0  0  0  0  0  0  0  0  0
  2  1  1  0
  2  3  2  0
  3 10  1  0
  4  3  1  0
  5  4  2  0
  6  7  2  0
  6  5  1  0
  7  2  1  0
  8 13  2  0
  9  8  1  0
 10  9  2  0
 10 11  1  0
 11 12  2  0
 12 13  1  0
 14 15  2  0
 14  7  1  0
 16 15  1  0
 17 16  2  0
 18 17  1  0
 18 19  2  0
 19 14  1  0
  4 20  1  0
  5 21  1  0
  6 22  1  0
  8 23  1  0
  9 24  1  0
 12 25  1  0
 15 26  1  0
 16 27  1  0
 17 28  1  0
 18 29  1  0
 19 30  1  0
M  ISO  8  20  14  21  14  22  14  23  14  24  14  25  14  26  14  27  14
M  ISO  3  28  14  29  14  30  14
M  END
>  <minimizedAffinity>  (1) 
-5.76440287

>  <minimizedRMSD>  (1) 
0.27537629

$$$$
