
     RDKit          3D

 38 40  0  0  0  0  0  0  0  0999 V2000
   44.5760   33.5250   41.3420 F   0  0  0  0  0  0  0  0  0  0  0  0
   45.8450   33.9750   41.1460 C   0  0  0  0  0  0  0  0  0  0  0  0
   46.5210   34.6640   42.1140 C   0  0  0  0  0  0  0  0  0  0  0  0
   47.7950   35.0840   41.8230 C   0  0  0  0  0  0  0  0  0  0  0  0
   48.4100   34.8360   40.6160 C   0  0  0  0  0  0  0  0  0  0  0  0
   47.6790   34.1320   39.6810 C   0  0  0  0  0  0  0  0  0  0  0  0
   46.4110   33.6980   39.9170 C   0  0  0  0  0  0  0  0  0  0  0  0
   45.7260   32.9980   38.8540 C   0  0  0  0  0  0  0  0  0  0  0  0
   44.6650   32.1590   39.1670 C   0  0  0  0  0  0  0  0  0  0  0  0
   44.0440   31.5410   38.1000 C   0  0  0  0  0  0  0  0  0  0  0  0
   44.4410   31.7260   36.7590 C   0  0  0  0  0  0  0  0  0  0  0  0
   45.5340   32.5970   36.5190 C   0  0  0  0  0  0  0  0  0  0  0  0
   46.1590   33.2210   37.5810 C   0  0  0  0  0  0  0  0  0  0  0  0
   47.1490   33.9970   36.9960 N   0  0  0  0  0  0  0  0  0  0  0  0
   48.6250   33.1800   36.5280 S   0  0  0  0  0  0  0  0  0  0  0  0
   48.6440   31.8000   37.1350 O   0  0  0  0  0  0  0  0  0  0  0  0
   48.7660   33.0500   35.0430 O   0  0  0  0  0  0  0  0  0  0  0  0
   49.9200   34.0890   37.0910 O   0  0  0  0  0  0  0  0  0  0  0  0
   44.4290   36.0920   44.9300 C   0  0  0  0  0  0  0  0  0  0  0  0
   45.0420   35.9540   43.6760 C   0  0  0  0  0  0  0  0  0  0  0  0
   45.8470   34.8700   43.3970 C   0  0  0  0  0  0  0  0  0  0  0  0
   45.9780   33.9900   44.4210 N   0  0  0  0  0  0  0  0  0  0  0  0
   45.3970   34.1180   45.6110 C   0  0  0  0  0  0  0  0  0  0  0  0
   44.6220   35.1730   45.8610 N   0  0  0  0  0  0  0  0  0  0  0  0
   48.3504   35.6446   42.5893 H   0  0  0  0  0  0  0  0  0  0  0  0
   49.4332   35.1819   40.4076 H   0  0  0  0  0  0  0  0  0  0  0  0
   48.1395   33.9130   38.7063 H   0  0  0  0  0  0  0  0  0  0  0  0
   44.3382   31.9962   40.2046 H   0  0  0  0  0  0  0  0  0  0  0  0
   43.1967   30.8704   38.3059 H   0  0  0  0  0  0  0  0  0  0  0  0
   43.9238   31.2155   35.9332 H   0  0  0  0  0  0  0  0  0  0  0  0
   45.8828   32.7750   35.4911 H   0  0  0  0  0  0  0  0  0  0  0  0
   47.0215   35.0077   36.8439 H   0  0  0  0  0  0  0  0  0  0  0  0
   48.6430   31.8737   38.1223 H   0  0  0  0  0  0  0  0  0  0  0  0
   49.4776   32.3939   34.8353 H   0  0  0  0  0  0  0  0  0  0  0  0
   49.9184   34.0878   38.0810 H   0  0  0  0  0  0  0  0  0  0  0  0
   43.7894   36.9624   45.1384 H   0  0  0  0  0  0  0  0  0  0  0  0
   44.8783   36.7210   42.9047 H   0  0  0  0  0  0  0  0  0  0  0  0
   45.5560   33.3547   46.3869 H   0  0  0  0  0  0  0  0  0  0  0  0
  2  1  1  0
  2  3  2  0
  3 21  1  0
  4  3  1  0
  5  4  2  0
  6  7  2  0
  6  5  1  0
  7  2  1  0
  8  9  2  0
  8  7  1  0
 10  9  1  0
 11 10  2  0
 12 11  1  0
 12 13  2  0
 13  8  1  0
 14 13  1  0
 15 14  1  0
 15 18  1  0
 15 16  1  0
 17 15  1  0
 19 24  2  0
 20 19  1  0
 21 20  2  0
 21 22  1  0
 22 23  2  0
 23 24  1  0
  4 25  1  0
  5 26  1  0
  6 27  1  0
  9 28  1  0
 10 29  1  0
 11 30  1  0
 12 31  1  0
 14 32  1  0
 16 33  1  0
 17 34  1  0
 18 35  1  0
 19 36  1  0
 20 37  1  0
 23 38  1  0
M  ISO  8  25  14  26  14  27  14  28  14  29  14  30  14  31  14  33   3
M  ISO  5  34   3  35   3  36  14  37  14  38  14
M  END
>  <minimizedAffinity>  (1) 
-6.62145567

>  <minimizedRMSD>  (1) 
0.934589684

$$$$
