
     RDKit          3D

 32 34  0  0  0  0  0  0  0  0999 V2000
   45.1990   33.3250   41.1310 F   0  0  0  0  0  0  0  0  0  0  0  0
   46.3940   33.9560   40.9930 C   0  0  0  0  0  0  0  0  0  0  0  0
   46.8740   34.7700   41.9660 C   0  0  0  0  0  0  0  0  0  0  0  0
   48.0770   35.3970   41.7240 C   0  0  0  0  0  0  0  0  0  0  0  0
   48.7820   35.2240   40.5570 C   0  0  0  0  0  0  0  0  0  0  0  0
   48.2300   34.3860   39.6260 C   0  0  0  0  0  0  0  0  0  0  0  0
   47.0440   33.7370   39.8080 C   0  0  0  0  0  0  0  0  0  0  0  0
   46.5920   32.8760   38.7470 C   0  0  0  0  0  0  0  0  0  0  0  0
   46.0520   31.6400   39.0520 C   0  0  0  0  0  0  0  0  0  0  0  0
   45.6160   30.8520   38.0220 C   0  0  0  0  0  0  0  0  0  0  0  0
   45.7030   31.2560   36.6920 C   0  0  0  0  0  0  0  0  0  0  0  0
   46.2620   32.5230   36.4330 C   0  0  0  0  0  0  0  0  0  0  0  0
   46.7000   33.3210   37.4630 C   0  0  0  0  0  0  0  0  0  0  0  0
   47.1580   34.5190   36.9070 N   0  0  0  0  0  0  0  0  0  0  0  0
   44.4850   36.0700   44.5890 C   0  0  0  0  0  0  0  0  0  0  0  0
   45.2130   35.9670   43.3960 C   0  0  0  0  0  0  0  0  0  0  0  0
   46.0950   34.9180   43.1960 C   0  0  0  0  0  0  0  0  0  0  0  0
   46.1800   34.0430   44.2150 N   0  0  0  0  0  0  0  0  0  0  0  0
   45.4880   34.1390   45.3490 C   0  0  0  0  0  0  0  0  0  0  0  0
   44.6380   35.1570   45.5330 N   0  0  0  0  0  0  0  0  0  0  0  0
   48.4897   36.0629   42.4961 H   0  0  0  0  0  0  0  0  0  0  0  0
   49.7410   35.7330   40.3801 H   0  0  0  0  0  0  0  0  0  0  0  0
   48.7712   34.2276   38.6815 H   0  0  0  0  0  0  0  0  0  0  0  0
   45.9750   31.2994   40.0951 H   0  0  0  0  0  0  0  0  0  0  0  0
   45.1827   29.8674   38.2518 H   0  0  0  0  0  0  0  0  0  0  0  0
   45.3487   30.6104   35.8749 H   0  0  0  0  0  0  0  0  0  0  0  0
   46.3489   32.8775   35.3953 H   0  0  0  0  0  0  0  0  0  0  0  0
   47.5318   35.2601   37.5169 H   0  0  0  0  0  0  0  0  0  0  0  0
   47.1216   34.6607   35.8874 H   0  0  0  0  0  0  0  0  0  0  0  0
   43.7884   36.9079   44.7396 H   0  0  0  0  0  0  0  0  0  0  0  0
   45.0827   36.7265   42.6110 H   0  0  0  0  0  0  0  0  0  0  0  0
   45.6150   33.3807   46.1357 H   0  0  0  0  0  0  0  0  0  0  0  0
  2  1  1  0
  2  3  2  0
  3 17  1  0
  4  3  1  0
  5  4  2  0
  6  7  2  0
  6  5  1  0
  7  2  1  0
  8  9  2  0
  8  7  1  0
 10  9  1  0
 11 10  2  0
 12 11  1  0
 12 13  2  0
 13  8  1  0
 14 13  1  0
 15 20  2  0
 16 15  1  0
 17 16  2  0
 17 18  1  0
 18 19  2  0
 19 20  1  0
  4 21  1  0
  5 22  1  0
  6 23  1  0
  9 24  1  0
 10 25  1  0
 11 26  1  0
 12 27  1  0
 14 28  1  0
 14 29  1  0
 15 30  1  0
 16 31  1  0
 19 32  1  0
M  ISO  8  21  14  22  14  23  14  24  14  25  14  26  14  27  14  30  14
M  ISO  2  31  14  32  14
M  END
>  <minimizedAffinity>  (1) 
-6.21048403

>  <minimizedRMSD>  (1) 
0.567351341

$$$$
