
     RDKit          3D

 40 43  0  0  0  0  0  0  0  0999 V2000
   45.3540   33.1740   41.1680 F   0  0  0  0  0  0  0  0  0  0  0  0
   46.4880   33.8970   41.0000 C   0  0  0  0  0  0  0  0  0  0  0  0
   46.9400   34.7090   41.9760 C   0  0  0  0  0  0  0  0  0  0  0  0
   48.1070   35.4150   41.7150 C   0  0  0  0  0  0  0  0  0  0  0  0
   48.7840   35.3040   40.5250 C   0  0  0  0  0  0  0  0  0  0  0  0
   48.2570   34.4580   39.5860 C   0  0  0  0  0  0  0  0  0  0  0  0
   47.1210   33.7430   39.7880 C   0  0  0  0  0  0  0  0  0  0  0  0
   46.6640   32.8810   38.7200 C   0  0  0  0  0  0  0  0  0  0  0  0
   46.2330   31.5940   39.0130 C   0  0  0  0  0  0  0  0  0  0  0  0
   45.8000   30.7940   38.0020 C   0  0  0  0  0  0  0  0  0  0  0  0
   45.7840   31.2510   36.6790 C   0  0  0  0  0  0  0  0  0  0  0  0
   46.2290   32.5510   36.4440 C   0  0  0  0  0  0  0  0  0  0  0  0
   46.6670   33.3650   37.4560 C   0  0  0  0  0  0  0  0  0  0  0  0
   47.0490   34.5830   36.9640 O   0  0  0  0  0  0  0  0  0  0  0  0
   44.5240   35.7970   44.6630 C   0  0  0  0  0  0  0  0  0  0  0  0
   45.2180   35.7540   43.4520 C   0  0  0  0  0  0  0  0  0  0  0  0
   46.1840   34.7930   43.2340 C   0  0  0  0  0  0  0  0  0  0  0  0
   46.4000   33.9270   44.2530 N   0  0  0  0  0  0  0  0  0  0  0  0
   45.7320   33.9800   45.4010 C   0  0  0  0  0  0  0  0  0  0  0  0
   44.7900   34.9200   45.6080 N   0  0  0  0  0  0  0  0  0  0  0  0
   46.0140   33.0140   46.4600 C   0  0  0  0  0  0  0  0  0  0  0  0
   45.2070   32.9470   47.5770 C   0  0  0  0  0  0  0  0  0  0  0  0
   45.3990   32.0670   48.6240 C   0  0  0  0  0  0  0  0  0  0  0  0
   46.5000   31.2230   48.4720 C   0  0  0  0  0  0  0  0  0  0  0  0
   47.3280   31.2700   47.3570 C   0  0  0  0  0  0  0  0  0  0  0  0
   47.0710   32.1710   46.3620 N   0  0  0  0  0  0  0  0  0  0  0  0
   48.5038   36.0877   42.4896 H   0  0  0  0  0  0  0  0  0  0  0  0
   49.7082   35.8694   40.3348 H   0  0  0  0  0  0  0  0  0  0  0  0
   48.7785   34.3529   38.6232 H   0  0  0  0  0  0  0  0  0  0  0  0
   46.2417   31.2262   40.0496 H   0  0  0  0  0  0  0  0  0  0  0  0
   45.4575   29.7732   38.2271 H   0  0  0  0  0  0  0  0  0  0  0  0
   45.4340   30.6094   35.8569 H   0  0  0  0  0  0  0  0  0  0  0  0
   46.2286   32.9358   35.4135 H   0  0  0  0  0  0  0  0  0  0  0  0
   47.3898   35.2803   37.5786 H   0  0  0  0  0  0  0  0  0  0  0  0
   43.7538   36.5649   44.8275 H   0  0  0  0  0  0  0  0  0  0  0  0
   44.9932   36.4909   42.6668 H   0  0  0  0  0  0  0  0  0  0  0  0
   44.3548   33.6399   47.6377 H   0  0  0  0  0  0  0  0  0  0  0  0
   44.7395   32.0341   49.5038 H   0  0  0  0  0  0  0  0  0  0  0  0
   46.7207   30.4930   49.2647 H   0  0  0  0  0  0  0  0  0  0  0  0
   48.1855   30.5858   47.2757 H   0  0  0  0  0  0  0  0  0  0  0  0
  2  1  1  0
  2  3  2  0
  3 17  1  0
  4  3  1  0
  5  4  2  0
  6  7  2  0
  6  5  1  0
  7  2  1  0
  8  9  2  0
  8  7  1  0
 10  9  1  0
 11 10  2  0
 12 11  1  0
 12 13  2  0
 13  8  1  0
 14 13  1  0
 15 20  2  0
 16 15  1  0
 17 16  2  0
 17 18  1  0
 18 19  2  0
 19 20  1  0
 19 21  1  0
 21 22  2  0
 22 23  1  0
 24 23  2  0
 25 24  1  0
 26 21  1  0
 26 25  2  0
  4 27  1  0
  5 28  1  0
  6 29  1  0
  9 30  1  0
 10 31  1  0
 11 32  1  0
 12 33  1  0
 14 34  1  0
 15 35  1  0
 16 36  1  0
 22 37  1  0
 23 38  1  0
 24 39  1  0
 25 40  1  0
M  ISO  8  27  14  28  14  29  14  30  14  31  14  32  14  33  14  34   3
M  ISO  6  35  14  36  14  37  14  38  14  39  14  40  14
M  END
>  <minimizedAffinity>  (1) 
-7.67433023

>  <minimizedRMSD>  (1) 
0.470487118

$$$$
