
     RDKit          3D

 43 46  0  0  0  0  0  0  0  0999 V2000
   45.2950   33.2510   41.1340 F   0  0  0  0  0  0  0  0  0  0  0  0
   46.4560   33.9370   40.9800 C   0  0  0  0  0  0  0  0  0  0  0  0
   46.9230   34.7530   41.9520 C   0  0  0  0  0  0  0  0  0  0  0  0
   48.1100   35.4100   41.7100 C   0  0  0  0  0  0  0  0  0  0  0  0
   48.8120   35.2640   40.5400 C   0  0  0  0  0  0  0  0  0  0  0  0
   48.2780   34.4220   39.6030 C   0  0  0  0  0  0  0  0  0  0  0  0
   47.1140   33.7470   39.7840 C   0  0  0  0  0  0  0  0  0  0  0  0
   44.4740   35.9640   44.5710 C   0  0  0  0  0  0  0  0  0  0  0  0
   45.2020   35.8750   43.3810 C   0  0  0  0  0  0  0  0  0  0  0  0
   46.1360   34.8780   43.1910 C   0  0  0  0  0  0  0  0  0  0  0  0
   46.2900   34.0140   44.2230 N   0  0  0  0  0  0  0  0  0  0  0  0
   45.5940   34.1020   45.3530 C   0  0  0  0  0  0  0  0  0  0  0  0
   44.6900   35.0680   45.5350 N   0  0  0  0  0  0  0  0  0  0  0  0
   45.8280   33.1450   46.3800 N   0  0  0  0  0  0  0  0  0  0  0  0
   45.1990   33.0400   47.6830 C   0  0  0  0  0  0  0  0  0  0  0  0
   45.2130   31.5480   48.0180 C   0  0  0  0  0  0  0  0  0  0  0  0
   45.8230   30.8990   46.7700 C   0  0  0  0  0  0  0  0  0  0  0  0
   46.7640   32.0380   46.3570 C   0  0  0  0  0  0  0  0  0  0  0  0
   46.6530   32.8830   38.7170 C   0  0  0  0  0  0  0  0  0  0  0  0
   46.2200   31.6000   39.0120 C   0  0  0  0  0  0  0  0  0  0  0  0
   45.7850   30.7970   38.0030 C   0  0  0  0  0  0  0  0  0  0  0  0
   45.7730   31.2480   36.6850 C   0  0  0  0  0  0  0  0  0  0  0  0
   46.2210   32.5480   36.4420 C   0  0  0  0  0  0  0  0  0  0  0  0
   46.6580   33.3620   37.4510 C   0  0  0  0  0  0  0  0  0  0  0  0
   47.0430   34.5800   36.9610 O   0  0  0  0  0  0  0  0  0  0  0  0
   48.5109   36.0785   42.4861 H   0  0  0  0  0  0  0  0  0  0  0  0
   49.7576   35.7977   40.3640 H   0  0  0  0  0  0  0  0  0  0  0  0
   48.8191   34.2850   38.6551 H   0  0  0  0  0  0  0  0  0  0  0  0
   43.7317   36.7637   44.7107 H   0  0  0  0  0  0  0  0  0  0  0  0
   45.0272   36.6119   42.5833 H   0  0  0  0  0  0  0  0  0  0  0  0
   45.7685   33.6087   48.4328 H   0  0  0  0  0  0  0  0  0  0  0  0
   44.1784   33.4504   47.6803 H   0  0  0  0  0  0  0  0  0  0  0  0
   45.8332   31.3513   48.9049 H   0  0  0  0  0  0  0  0  0  0  0  0
   44.2132   31.1559   48.2560 H   0  0  0  0  0  0  0  0  0  0  0  0
   46.3705   29.9753   47.0090 H   0  0  0  0  0  0  0  0  0  0  0  0
   45.1055   30.5710   46.0035 H   0  0  0  0  0  0  0  0  0  0  0  0
   47.1854   31.8782   45.3535 H   0  0  0  0  0  0  0  0  0  0  0  0
   47.6525   32.1640   46.9931 H   0  0  0  0  0  0  0  0  0  0  0  0
   46.2278   31.2349   40.0496 H   0  0  0  0  0  0  0  0  0  0  0  0
   45.4383   29.7783   38.2312 H   0  0  0  0  0  0  0  0  0  0  0  0
   45.4232   30.6033   35.8653 H   0  0  0  0  0  0  0  0  0  0  0  0
   46.2226   32.9285   35.4099 H   0  0  0  0  0  0  0  0  0  0  0  0
   47.3835   35.2762   37.5770 H   0  0  0  0  0  0  0  0  0  0  0  0
  2  1  1  0
  2  3  2  0
  3 10  1  0
  4  3  1  0
  5  4  2  0
  6  7  2  0
  6  5  1  0
  7  2  1  0
  8 13  2  0
  9  8  1  0
 10  9  2  0
 10 11  1  0
 11 12  2  0
 12 13  1  0
 12 14  1  0
 14 15  1  0
 15 16  1  0
 17 16  1  0
 18 14  1  0
 18 17  1  0
 19 20  2  0
 19  7  1  0
 21 20  1  0
 22 21  2  0
 23 22  1  0
 23 24  2  0
 24 19  1  0
 25 24  1  0
  4 26  1  0
  5 27  1  0
  6 28  1  0
  8 29  1  0
  9 30  1  0
 15 31  1  0
 15 32  1  0
 16 33  1  0
 16 34  1  0
 17 35  1  0
 17 36  1  0
 18 37  1  0
 18 38  1  0
 20 39  1  0
 21 40  1  0
 22 41  1  0
 23 42  1  0
 25 43  1  0
M  ISO  8  26  14  27  14  28  14  29  14  30  14  31  13  32  13  33  13
M  ISO  8  34  13  35  13  36  13  37  13  38  13  39  14  40  14  41  14
M  ISO  2  42  14  43   3
M  END
>  <minimizedAffinity>  (1) 
-7.64539194

>  <minimizedRMSD>  (1) 
0.0991625786

$$$$
