
     RDKit          3D

 44 47  0  0  0  0  0  0  0  0999 V2000
   45.3600   33.1940   41.1460 F   0  0  0  0  0  0  0  0  0  0  0  0
   46.4950   33.9220   40.9950 C   0  0  0  0  0  0  0  0  0  0  0  0
   46.9370   34.7440   41.9720 C   0  0  0  0  0  0  0  0  0  0  0  0
   48.0940   35.4420   41.7330 C   0  0  0  0  0  0  0  0  0  0  0  0
   48.7950   35.3300   40.5560 C   0  0  0  0  0  0  0  0  0  0  0  0
   48.2870   34.4780   39.6100 C   0  0  0  0  0  0  0  0  0  0  0  0
   47.1470   33.7610   39.7900 C   0  0  0  0  0  0  0  0  0  0  0  0
   46.7200   32.9030   38.7240 C   0  0  0  0  0  0  0  0  0  0  0  0
   46.3090   31.6120   39.0010 C   0  0  0  0  0  0  0  0  0  0  0  0
   45.9040   30.8000   37.9910 C   0  0  0  0  0  0  0  0  0  0  0  0
   45.8980   31.2530   36.6800 C   0  0  0  0  0  0  0  0  0  0  0  0
   46.3180   32.5610   36.4320 C   0  0  0  0  0  0  0  0  0  0  0  0
   46.7290   33.3850   37.4580 C   0  0  0  0  0  0  0  0  0  0  0  0
   47.0930   34.6140   36.9740 O   0  0  0  0  0  0  0  0  0  0  0  0
   44.5520   35.9070   44.6660 C   0  0  0  0  0  0  0  0  0  0  0  0
   45.2730   35.8640   43.4690 C   0  0  0  0  0  0  0  0  0  0  0  0
   46.1560   34.8340   43.2170 C   0  0  0  0  0  0  0  0  0  0  0  0
   46.2590   33.9070   44.1870 N   0  0  0  0  0  0  0  0  0  0  0  0
   45.5710   33.9480   45.3310 C   0  0  0  0  0  0  0  0  0  0  0  0
   44.7230   34.9440   45.5660 N   0  0  0  0  0  0  0  0  0  0  0  0
   46.4030   31.6800   45.9750 C   0  0  0  0  0  0  0  0  0  0  0  0
   45.7920   32.8670   46.2880 C   0  0  0  0  0  0  0  0  0  0  0  0
   45.3700   33.0290   47.5920 C   0  0  0  0  0  0  0  0  0  0  0  0
   45.5050   32.1070   48.6080 C   0  0  0  0  0  0  0  0  0  0  0  0
   46.1240   30.9130   48.2720 C   0  0  0  0  0  0  0  0  0  0  0  0
   46.5600   30.7250   46.9610 C   0  0  0  0  0  0  0  0  0  0  0  0
   46.9550   31.4220   44.3470 S   0  0  0  0  0  0  0  0  0  0  0  0
   45.9430   30.6450   43.5360 O   0  0  0  0  0  0  0  0  0  0  0  0
   48.2310   30.6150   44.4150 O   0  0  0  0  0  0  0  0  0  0  0  0
   48.4751   36.1171   42.5134 H   0  0  0  0  0  0  0  0  0  0  0  0
   49.7208   35.8978   40.3813 H   0  0  0  0  0  0  0  0  0  0  0  0
   48.8287   34.3695   38.6588 H   0  0  0  0  0  0  0  0  0  0  0  0
   46.3102   31.2437   40.0375 H   0  0  0  0  0  0  0  0  0  0  0  0
   45.5777   29.7736   38.2144 H   0  0  0  0  0  0  0  0  0  0  0  0
   45.5711   30.5992   35.8580 H   0  0  0  0  0  0  0  0  0  0  0  0
   46.3211   32.9409   35.3997 H   0  0  0  0  0  0  0  0  0  0  0  0
   47.4119   35.3160   37.5950 H   0  0  0  0  0  0  0  0  0  0  0  0
   43.8494   36.7305   44.8613 H   0  0  0  0  0  0  0  0  0  0  0  0
   45.1351   36.6587   42.7210 H   0  0  0  0  0  0  0  0  0  0  0  0
   44.8809   33.9815   47.8439 H   0  0  0  0  0  0  0  0  0  0  0  0
   45.1423   32.3073   49.6270 H   0  0  0  0  0  0  0  0  0  0  0  0
   46.2689   30.1266   49.0274 H   0  0  0  0  0  0  0  0  0  0  0  0
   47.0501   29.7753   46.7005 H   0  0  0  0  0  0  0  0  0  0  0  0
   47.1478   32.6377   43.7454 H   0  0  0  0  0  0  0  0  0  0  0  0
  2  1  1  0
  2  3  2  0
  3 17  1  0
  4  3  1  0
  5  4  2  0
  6  7  2  0
  6  5  1  0
  7  2  1  0
  8  9  2  0
  8  7  1  0
 10  9  1  0
 11 10  2  0
 12 11  1  0
 12 13  2  0
 13  8  1  0
 14 13  1  0
 15 20  2  0
 16 15  1  0
 17 16  2  0
 17 18  1  0
 18 19  2  0
 19 20  1  0
 19 22  1  0
 21 22  2  0
 21 26  1  0
 22 23  1  0
 23 24  2  0
 25 24  1  0
 26 25  2  0
 27 29  2  0
 27 21  1  0
 28 27  2  0
  4 30  1  0
  5 31  1  0
  6 32  1  0
  9 33  1  0
 10 34  1  0
 11 35  1  0
 12 36  1  0
 14 37  1  0
 15 38  1  0
 16 39  1  0
 23 40  1  0
 24 41  1  0
 25 42  1  0
 26 43  1  0
 27 44  1  0
M  ISO  8  30  14  31  14  32  14  33  14  34  14  35  14  36  14  37   3
M  ISO  7  38  14  39  14  40  14  41  14  42  14  43  14  44  11
M  END
>  <minimizedAffinity>  (1) 
-7.47976494

>  <minimizedRMSD>  (1) 
0.241510317

$$$$
