
     RDKit          3D

 35 37  0  0  0  0  0  0  0  0999 V2000
   45.1850   33.3880   41.1000 F   0  0  0  0  0  0  0  0  0  0  0  0
   46.3800   34.0040   40.9640 C   0  0  0  0  0  0  0  0  0  0  0  0
   46.8610   34.8210   41.9310 C   0  0  0  0  0  0  0  0  0  0  0  0
   48.0850   35.4080   41.7090 C   0  0  0  0  0  0  0  0  0  0  0  0
   48.8160   35.1950   40.5640 C   0  0  0  0  0  0  0  0  0  0  0  0
   48.2630   34.3550   39.6330 C   0  0  0  0  0  0  0  0  0  0  0  0
   47.0510   33.7410   39.7930 C   0  0  0  0  0  0  0  0  0  0  0  0
   44.4080   36.2220   44.4470 C   0  0  0  0  0  0  0  0  0  0  0  0
   45.1600   36.0680   43.2790 C   0  0  0  0  0  0  0  0  0  0  0  0
   46.0480   35.0240   43.1400 C   0  0  0  0  0  0  0  0  0  0  0  0
   46.1350   34.1790   44.1950 N   0  0  0  0  0  0  0  0  0  0  0  0
   45.4060   34.3420   45.3080 C   0  0  0  0  0  0  0  0  0  0  0  0
   44.5470   35.3610   45.4310 N   0  0  0  0  0  0  0  0  0  0  0  0
   46.5150   32.4070   46.0460 C   0  0  0  0  0  0  0  0  0  0  0  0
   47.2260   32.2050   45.0240 O   0  0  0  0  0  0  0  0  0  0  0  0
   45.5450   33.4100   46.3950 N   0  0  0  0  0  0  0  0  0  0  0  0
   46.5840   32.8860   38.7430 C   0  0  0  0  0  0  0  0  0  0  0  0
   46.1200   31.6260   39.0320 C   0  0  0  0  0  0  0  0  0  0  0  0
   45.6780   30.8180   38.0360 C   0  0  0  0  0  0  0  0  0  0  0  0
   45.6880   31.2530   36.7140 C   0  0  0  0  0  0  0  0  0  0  0  0
   46.1660   32.5400   36.4490 C   0  0  0  0  0  0  0  0  0  0  0  0
   46.6130   33.3530   37.4650 C   0  0  0  0  0  0  0  0  0  0  0  0
   47.0330   34.5630   36.9670 O   0  0  0  0  0  0  0  0  0  0  0  0
   48.4964   36.0760   42.4800 H   0  0  0  0  0  0  0  0  0  0  0  0
   49.7933   35.6737   40.4037 H   0  0  0  0  0  0  0  0  0  0  0  0
   48.8243   34.1640   38.7065 H   0  0  0  0  0  0  0  0  0  0  0  0
   43.7024   37.0605   44.5427 H   0  0  0  0  0  0  0  0  0  0  0  0
   45.0410   36.7911   42.4586 H   0  0  0  0  0  0  0  0  0  0  0  0
   46.6693   31.6584   46.8371 H   0  0  0  0  0  0  0  0  0  0  0  0
   45.0295   33.4542   47.2856 H   0  0  0  0  0  0  0  0  0  0  0  0
   46.1068   31.2714   40.0732 H   0  0  0  0  0  0  0  0  0  0  0  0
   45.3084   29.8100   38.2754 H   0  0  0  0  0  0  0  0  0  0  0  0
   45.3304   30.6034   35.9015 H   0  0  0  0  0  0  0  0  0  0  0  0
   46.1850   32.9081   35.4126 H   0  0  0  0  0  0  0  0  0  0  0  0
   47.3833   35.2562   37.5808 H   0  0  0  0  0  0  0  0  0  0  0  0
  2  1  1  0
  2  3  2  0
  3 10  1  0
  4  3  1  0
  5  4  2  0
  6  7  2  0
  6  5  1  0
  7  2  1  0
  8 13  2  0
  9  8  1  0
 10  9  2  0
 10 11  1  0
 11 12  2  0
 12 13  1  0
 12 16  1  0
 14 16  1  0
 15 14  2  0
 17 18  2  0
 17  7  1  0
 19 18  1  0
 20 19  2  0
 21 20  1  0
 21 22  2  0
 22 17  1  0
 23 22  1  0
  4 24  1  0
  5 25  1  0
  6 26  1  0
  8 27  1  0
  9 28  1  0
 14 29  1  0
 16 30  1  0
 18 31  1  0
 19 32  1  0
 20 33  1  0
 21 34  1  0
 23 35  1  0
M  ISO  8  24  14  25  14  26  14  27  14  28  14  29   6  31  14  32  14
M  ISO  3  33  14  34  14  35   3
M  END
>  <minimizedAffinity>  (1) 
-7.07969284

>  <minimizedRMSD>  (1) 
0.159671351

$$$$
