
     RDKit          3D

 41 44  0  0  1  0  0  0  0  0999 V2000
   47.7980   32.5520   42.2660 C   0  0  0  0  0  0  0  0  0  0  0  0
   48.3120   32.1560   40.9650 C   0  0  0  0  0  0  0  0  0  0  0  0
   49.5750   32.2320   40.7010 C   0  0  0  0  0  0  0  0  0  0  0  0
   50.1000   31.8450   39.4510 N   0  0  0  0  0  0  0  0  0  0  0  0
   51.1000   31.1130   38.7240 C   0  0  0  0  0  0  0  0  0  0  0  0
   52.3010   30.7560   38.9450 O   0  0  0  0  0  0  0  0  0  0  0  0
   50.0540   31.0030   37.6390 C   0  0  0  0  0  0  0  0  0  0  0  0
   49.4860   32.2890   38.1750 C   0  0  1  0  0  0  0  0  0  0  0  0
   47.7090   32.3720   38.3690 S   0  0  0  0  0  0  0  0  0  0  0  0
   47.2990   31.6720   39.9990 C   0  0  0  0  0  0  0  0  0  0  0  0
   50.5050   32.7340   41.7200 C   0  0  0  0  0  0  0  0  0  0  0  0
   51.2120   32.0080   42.4850 O   0  0  0  0  0  0  0  0  0  0  0  0
   51.2660   33.4880   42.5540 O   0  0  0  0  0  0  0  0  0  0  0  0
   46.9330   34.1770   42.1410 S   0  0  0  0  0  0  0  0  0  0  0  0
   44.4850   35.6170   45.0410 C   0  0  0  0  0  0  0  0  0  0  0  0
   45.1510   35.4660   43.7940 C   0  0  0  0  0  0  0  0  0  0  0  0
   46.0720   34.4100   43.6820 C   0  0  0  0  0  0  0  0  0  0  0  0
   46.2680   33.6060   44.7600 N   0  0  0  0  0  0  0  0  0  0  0  0
   45.6190   33.7850   45.9150 C   0  0  0  0  0  0  0  0  0  0  0  0
   44.7340   34.7760   46.0710 N   0  0  0  0  0  0  0  0  0  0  0  0
   45.9240   32.8490   46.9920 C   0  0  0  0  0  0  0  0  0  0  0  0
   45.0390   32.5260   47.9990 C   0  0  0  0  0  0  0  0  0  0  0  0
   45.3000   31.6520   49.0220 C   0  0  0  0  0  0  0  0  0  0  0  0
   46.5600   31.0940   48.9700 C   0  0  0  0  0  0  0  0  0  0  0  0
   47.5290   31.3400   48.0130 C   0  0  0  0  0  0  0  0  0  0  0  0
   47.1620   32.2420   47.0230 C   0  0  0  0  0  0  0  0  0  0  0  0
   47.0901   31.7901   42.6244 H   0  0  0  0  0  0  0  0  0  0  0  0
   48.6375   32.6453   42.9706 H   0  0  0  0  0  0  0  0  0  0  0  0
   49.3878   30.1321   37.7267 H   0  0  0  0  0  0  0  0  0  0  0  0
   50.3212   30.8783   36.5793 H   0  0  0  0  0  0  0  0  0  0  0  0
   49.6592   33.2398   37.6496 H   0  0  0  0  0  0  0  0  0  0  0  0
   46.2973   32.0049   40.3084 H   0  0  0  0  0  0  0  0  0  0  0  0
   47.3006   30.5728   39.9575 H   0  0  0  0  0  0  0  0  0  0  0  0
   51.8647   33.0499   43.2096 H   0  0  0  0  0  0  0  0  0  0  0  0
   43.7558   36.4304   45.1703 H   0  0  0  0  0  0  0  0  0  0  0  0
   44.9539   36.1466   42.9526 H   0  0  0  0  0  0  0  0  0  0  0  0
   44.0493   33.0058   47.9798 H   0  0  0  0  0  0  0  0  0  0  0  0
   44.5714   31.4172   49.8119 H   0  0  0  0  0  0  0  0  0  0  0  0
   46.8206   30.3832   49.7680 H   0  0  0  0  0  0  0  0  0  0  0  0
   48.5169   30.8567   48.0349 H   0  0  0  0  0  0  0  0  0  0  0  0
   47.8877   32.4819   46.2319 H   0  0  0  0  0  0  0  0  0  0  0  0
  2  1  1  0
  3  2  2  0
  3 11  1  0
  4  3  1  0
  5  6  2  0
  5  4  1  0
  7  8  1  0
  7  5  1  0
  8  9  1  0
  8  4  1  0
  9 10  1  0
 10  2  1  0
 11 12  2  0
 11 13  1  0
 14  1  1  0
 14 17  1  0
 15 20  2  0
 16 15  1  0
 17 16  2  0
 17 18  1  0
 18 19  2  0
 19 20  1  0
 19 21  1  0
 21 26  1  0
 21 22  2  0
 22 23  1  0
 24 23  2  0
 25 24  1  0
 26 25  2  0
  1 27  1  0
  1 28  1  0
  7 29  1  0
  7 30  1  0
  8 31  1  6
 10 32  1  0
 10 33  1  0
 13 34  1  0
 15 35  1  0
 16 36  1  0
 22 37  1  0
 23 38  1  0
 24 39  1  0
 25 40  1  0
 26 41  1  0
M  ISO  8  27   8  28   8  29  13  30  13  31  13  32  13  33  13  34   3
M  ISO  7  35  14  36  14  37  14  38  14  39  14  40  14  41  14
M  END
>  <minimizedAffinity>  (1) 
-6.15321732

>  <minimizedRMSD>  (1) 
0.811361432

$$$$
