
     RDKit          3D

 43 45  0  0  0  0  0  0  0  0999 V2000
   45.2727   33.2675   41.1110 F   0  0  0  0  0  0  0  0  0  0  0  0
   46.4368   33.9410   40.9593 C   0  0  0  0  0  0  0  0  0  0  0  0
   46.9023   34.7577   41.9279 C   0  0  0  0  0  0  0  0  0  0  0  0
   48.1027   35.4073   41.6867 C   0  0  0  0  0  0  0  0  0  0  0  0
   48.8109   35.2480   40.5242 C   0  0  0  0  0  0  0  0  0  0  0  0
   48.2736   34.4037   39.5914 C   0  0  0  0  0  0  0  0  0  0  0  0
   47.0942   33.7326   39.7665 C   0  0  0  0  0  0  0  0  0  0  0  0
   46.6404   32.8743   38.7056 C   0  0  0  0  0  0  0  0  0  0  0  0
   46.2146   31.5958   38.9933 C   0  0  0  0  0  0  0  0  0  0  0  0
   45.7873   30.7901   37.9879 C   0  0  0  0  0  0  0  0  0  0  0  0
   45.7742   31.2393   36.6726 C   0  0  0  0  0  0  0  0  0  0  0  0
   46.2131   32.5414   36.4184 C   0  0  0  0  0  0  0  0  0  0  0  0
   46.6452   33.3556   37.4366 C   0  0  0  0  0  0  0  0  0  0  0  0
   47.0256   34.5822   36.9508 O   0  0  0  0  0  0  0  0  0  0  0  0
   44.4960   36.0443   44.5441 C   0  0  0  0  0  0  0  0  0  0  0  0
   45.2271   35.9397   43.3561 C   0  0  0  0  0  0  0  0  0  0  0  0
   46.1154   34.9035   43.1612 C   0  0  0  0  0  0  0  0  0  0  0  0
   46.2218   34.0195   44.1815 N   0  0  0  0  0  0  0  0  0  0  0  0
   45.5253   34.1212   45.3103 C   0  0  0  0  0  0  0  0  0  0  0  0
   44.6679   35.1292   45.4878 N   0  0  0  0  0  0  0  0  0  0  0  0
   48.4805   36.0654   42.4638 H   0  0  0  0  0  0  0  0  0  0  0  0
   49.7466   35.7642   40.3548 H   0  0  0  0  0  0  0  0  0  0  0  0
   48.8391   34.2777   38.6654 H   0  0  0  0  0  0  0  0  0  0  0  0
   46.2287   31.2509   40.0336 H   0  0  0  0  0  0  0  0  0  0  0  0
   45.4588   29.7969   38.2287 H   0  0  0  0  0  0  0  0  0  0  0  0
   45.4252   30.5574   35.9163 H   0  0  0  0  0  0  0  0  0  0  0  0
   46.1569   32.7748   35.3667 H   0  0  0  0  0  0  0  0  0  0  0  0
   46.4778   35.2269   36.4184 H   0  0  0  0  0  0  0  0  0  0  0  0
   43.8368   36.8866   44.5880 H   0  0  0  0  0  0  0  0  0  0  0  0
   45.1367   36.6476   42.5485 H   0  0  0  0  0  0  0  0  0  0  0  0
   45.6315   33.1583   46.4394 C   0  0  0  0  0  0  0  0  0  0  0  0
   46.7910   32.3117   46.3452 N   0  0  0  0  0  4  0  0  0  0  0  0
   46.7016   31.3024   45.3070 C   0  0  0  0  0  0  0  0  0  0  0  0
   47.3807   31.5584   44.4604 H   0  0  0  0  0  0  0  0  0  0  0  0
   48.0382   33.0457   46.2683 C   0  0  0  0  0  0  0  0  0  0  0  0
   48.3043   33.3536   45.2552 H   0  0  0  0  0  0  0  0  0  0  0  0
   44.7605   32.4934   46.5474 H   0  0  0  0  0  0  0  0  0  0  0  0
   45.7230   33.6875   47.4209 H   0  0  0  0  0  0  0  0  0  0  0  0
   46.8352   31.7939   47.2598 H   0  0  0  0  0  0  0  0  0  0  0  0
   45.6398   31.2504   44.9934 H   0  0  0  0  0  0  0  0  0  0  0  0
   46.9471   30.2775   45.7099 H   0  0  0  0  0  0  0  0  0  0  0  0
   47.9940   33.8597   47.0180 H   0  0  0  0  0  0  0  0  0  0  0  0
   48.8390   32.3537   46.6224 H   0  0  0  0  0  0  0  0  0  0  0  0
  2  1  1  0
  2  3  2  0
  3 17  1  0
  4  3  1  0
  5  4  2  0
  6  7  2  0
  6  5  1  0
  7  2  1  0
  8  9  2  0
  8  7  1  0
 10  9  1  0
 11 10  2  0
 12 11  1  0
 12 13  2  0
 13  8  1  0
 14 13  1  0
 15 20  2  0
 16 15  1  0
 17 16  2  0
 17 18  1  0
 18 19  2  0
 19 20  1  0
  4 21  1  0
  5 22  1  0
  6 23  1  0
  9 24  1  0
 10 25  1  0
 11 26  1  0
 12 27  1  0
 14 28  1  0
 15 29  1  0
 16 30  1  0
 31 32  1  0
 32 33  1  0
 33 34  1  0
 32 35  1  0
 35 36  1  0
 31 37  1  0
 31 38  1  0
 32 39  1  0
 33 40  1  0
 33 41  1  0
 35 42  1  0
 35 43  1  0
 19 31  1  0
M  CHG  1  32   1
M  END
>  <DihAtoms>  (1) 
17,18,30,31

>  <DihDeg>  (1) 
90.00399576922793

$$$$
