
     RDKit          3D

 37 39  0  0  0  0  0  0  0  0999 V2000
   45.3720   33.1510   41.1600 F   0  0  0  0  0  0  0  0  0  0  0  0
   46.5000   33.8860   40.9850 C   0  0  0  0  0  0  0  0  0  0  0  0
   46.9540   34.7060   41.9630 C   0  0  0  0  0  0  0  0  0  0  0  0
   48.1120   35.4190   41.7010 C   0  0  0  0  0  0  0  0  0  0  0  0
   48.7910   35.3200   40.5130 C   0  0  0  0  0  0  0  0  0  0  0  0
   48.2690   34.4690   39.5720 C   0  0  0  0  0  0  0  0  0  0  0  0
   47.1300   33.7370   39.7680 C   0  0  0  0  0  0  0  0  0  0  0  0
   46.6890   32.8850   38.7050 C   0  0  0  0  0  0  0  0  0  0  0  0
   46.2760   31.6030   38.9850 C   0  0  0  0  0  0  0  0  0  0  0  0
   45.8570   30.7910   37.9830 C   0  0  0  0  0  0  0  0  0  0  0  0
   45.8420   31.2450   36.6600 C   0  0  0  0  0  0  0  0  0  0  0  0
   46.2710   32.5560   36.4100 C   0  0  0  0  0  0  0  0  0  0  0  0
   46.6920   33.3680   37.4390 C   0  0  0  0  0  0  0  0  0  0  0  0
   47.0630   34.6000   36.9590 O   0  0  0  0  0  0  0  0  0  0  0  0
   44.5480   35.7710   44.6650 C   0  0  0  0  0  0  0  0  0  0  0  0
   45.2340   35.7400   43.4510 C   0  0  0  0  0  0  0  0  0  0  0  0
   46.2010   34.7840   43.2210 C   0  0  0  0  0  0  0  0  0  0  0  0
   46.4130   33.9210   44.2280 N   0  0  0  0  0  0  0  0  0  0  0  0
   45.7600   33.9490   45.3860 C   0  0  0  0  0  0  0  0  0  0  0  0
   44.8220   34.8790   45.6040 N   0  0  0  0  0  0  0  0  0  0  0  0
   46.1060   32.9240   46.4100 C   0  0  0  0  0  0  0  0  0  0  0  0
   45.1360   33.0630   47.5860 C   0  0  0  0  0  0  0  0  0  0  0  0
   48.5035   36.0926   42.4775 H   0  0  0  0  0  0  0  0  0  0  0  0
   49.7095   35.8951   40.3241 H   0  0  0  0  0  0  0  0  0  0  0  0
   48.7934   34.3701   38.6101 H   0  0  0  0  0  0  0  0  0  0  0  0
   46.2856   31.2364   40.0221 H   0  0  0  0  0  0  0  0  0  0  0  0
   45.5263   29.7673   38.2124 H   0  0  0  0  0  0  0  0  0  0  0  0
   45.5039   30.5933   35.8409 H   0  0  0  0  0  0  0  0  0  0  0  0
   46.2712   32.9405   35.3794 H   0  0  0  0  0  0  0  0  0  0  0  0
   47.3900   35.2962   37.5823 H   0  0  0  0  0  0  0  0  0  0  0  0
   43.7788   36.5371   44.8423 H   0  0  0  0  0  0  0  0  0  0  0  0
   45.0025   36.4821   42.6728 H   0  0  0  0  0  0  0  0  0  0  0  0
   46.0170   31.9185   45.9729 H   0  0  0  0  0  0  0  0  0  0  0  0
   47.1398   33.0716   46.7556 H   0  0  0  0  0  0  0  0  0  0  0  0
   45.6923   32.9833   48.5316 H   0  0  0  0  0  0  0  0  0  0  0  0
   44.6367   34.0419   47.5357 H   0  0  0  0  0  0  0  0  0  0  0  0
   44.3819   32.2637   47.5357 H   0  0  0  0  0  0  0  0  0  0  0  0
  2  1  1  0
  2  3  2  0
  3 17  1  0
  4  3  1  0
  5  4  2  0
  6  7  2  0
  6  5  1  0
  7  2  1  0
  8  9  2  0
  8  7  1  0
 10  9  1  0
 11 10  2  0
 12 11  1  0
 12 13  2  0
 13  8  1  0
 14 13  1  0
 15 20  2  0
 16 15  1  0
 17 16  2  0
 17 18  1  0
 18 19  2  0
 19 20  1  0
 19 21  1  0
 21 22  1  0
  4 23  1  0
  5 24  1  0
  6 25  1  0
  9 26  1  0
 10 27  1  0
 11 28  1  0
 12 29  1  0
 14 30  1  0
 15 31  1  0
 16 32  1  0
 21 33  1  0
 21 34  1  0
 22 35  1  0
 22 36  1  0
 22 37  1  0
M  ISO  8  23  14  24  14  25  14  26  14  27  14  28  14  29  14  30   3
M  ISO  7  31  14  32  14  33   8  34   8  35   8  36   8  37   8
M  END
>  <minimizedAffinity>  (1) 
-6.50138521

>  <minimizedRMSD>  (1) 
0.243639529

$$$$
