
     RDKit          3D

 23 24  0  0  0  0  0  0  0  0999 V2000
   46.9670   32.4730   45.6610 C   0  0  0  0  0  0  0  0  0  0  0  0
   44.5650   35.3020   45.4490 C   0  0  0  0  0  0  0  0  0  0  0  0
   44.7900   35.7550   44.1300 C   0  0  0  0  0  0  0  0  0  0  0  0
   45.7390   35.0880   43.3740 C   0  0  0  0  0  0  0  0  0  0  0  0
   46.4230   34.0330   43.8980 N   0  0  0  0  0  0  0  0  0  0  0  0
   46.1670   33.6310   45.1850 C   0  0  0  0  0  0  0  0  0  0  0  0
   45.2520   34.2700   45.9230 N   0  0  0  0  0  0  0  0  0  0  0  0
   45.2920   30.1910   45.4950 F   0  0  0  0  0  0  0  0  0  0  0  0
   45.5150   30.7070   46.7360 C   0  0  0  0  0  0  0  0  0  0  0  0
   46.3270   31.8180   46.8380 C   0  0  0  0  0  0  0  0  0  0  0  0
   46.5540   32.3430   48.1130 C   0  0  0  0  0  0  0  0  0  0  0  0
   45.9680   31.7490   49.2270 C   0  0  0  0  0  0  0  0  0  0  0  0
   45.1520   30.6240   49.0690 C   0  0  0  0  0  0  0  0  0  0  0  0
   44.9170   30.0900   47.8170 C   0  0  0  0  0  0  0  0  0  0  0  0
   47.9694   32.8238   45.9476 H   0  0  0  0  0  0  0  0  0  0  0  0
   47.0299   31.7367   44.8462 H   0  0  0  0  0  0  0  0  0  0  0  0
   43.8202   35.8047   46.0835 H   0  0  0  0  0  0  0  0  0  0  0  0
   44.2308   36.6079   43.7179 H   0  0  0  0  0  0  0  0  0  0  0  0
   45.9421   35.4124   42.3427 H   0  0  0  0  0  0  0  0  0  0  0  0
   47.1968   33.2271   48.2364 H   0  0  0  0  0  0  0  0  0  0  0  0
   46.1463   32.1636   50.2301 H   0  0  0  0  0  0  0  0  0  0  0  0
   44.6916   30.1586   49.9530 H   0  0  0  0  0  0  0  0  0  0  0  0
   44.2767   29.2053   47.6858 H   0  0  0  0  0  0  0  0  0  0  0  0
  1 10  1  0
  2  7  2  0
  3  2  1  0
  4  5  1  0
  4  3  2  0
  5  6  2  0
  6  1  1  0
  6  7  1  0
  8  9  1  0
  9 10  2  0
  9 14  1  0
 10 11  1  0
 11 12  2  0
 13 12  1  0
 14 13  2  0
  1 15  1  0
  1 16  1  0
  2 17  1  0
  3 18  1  0
  4 19  1  0
 11 20  1  0
 12 21  1  0
 13 22  1  0
 14 23  1  0
M  ISO  8  15   8  16   8  17  14  18  14  19  14  20  14  21  14  22  14
M  ISO  1  23  14
M  END
>  <minimizedAffinity>  (1) 
-4.66457129

>  <minimizedRMSD>  (1) 
2.10682821

$$$$
