
     RDKit          3D

 29 30  0  0  0  0  0  0  0  0999 V2000
   46.2760   32.8660   45.7980 C   0  0  0  0  0  0  0  0  0  0  0  0
   46.9840   32.7800   44.6220 C   0  0  0  0  0  0  0  0  0  0  0  0
   47.3970   31.5120   44.2200 C   0  0  0  0  0  0  0  0  0  0  0  0
   47.1270   30.3460   44.9490 C   0  0  0  0  0  0  0  0  0  0  0  0
   46.4160   30.4770   46.1180 C   0  0  0  0  0  0  0  0  0  0  0  0
   46.0000   31.7250   46.5300 C   0  0  0  0  0  0  0  0  0  0  0  0
   47.3230   33.9430   43.7800 C   0  0  0  0  0  0  0  0  0  0  0  0
   44.2030   35.5820   42.5990 C   0  0  0  0  0  0  0  0  0  0  0  0
   44.0690   35.0480   41.3050 C   0  0  0  0  0  0  0  0  0  0  0  0
   45.0510   34.1440   40.8730 C   0  0  0  0  0  0  0  0  0  0  0  0
   46.0730   33.8180   41.6960 N   0  0  0  0  0  0  0  0  0  0  0  0
   46.1610   34.3680   42.9570 C   0  0  0  0  0  0  0  0  0  0  0  0
   45.2280   35.2290   43.3690 N   0  0  0  0  0  0  0  0  0  0  0  0
   45.8480   34.1080   46.2320 O   0  0  0  0  0  0  0  0  0  0  0  0
   45.2880   31.8270   47.7070 O   0  0  0  0  0  0  0  0  0  0  0  0
   45.8770   31.6190   48.9610 C   0  0  0  0  0  0  0  0  0  0  0  0
   45.0330   31.3810   49.8810 O   0  0  0  0  0  0  0  0  0  0  0  0
   47.3080   31.6840   49.1210 N   0  0  0  0  0  0  0  0  0  0  0  0
   47.9643   31.4211   43.2820 H   0  0  0  0  0  0  0  0  0  0  0  0
   47.4715   29.3619   44.5985 H   0  0  0  0  0  0  0  0  0  0  0  0
   46.1798   29.5890   46.7227 H   0  0  0  0  0  0  0  0  0  0  0  0
   47.6284   34.7780   44.4277 H   0  0  0  0  0  0  0  0  0  0  0  0
   48.1422   33.6565   43.1041 H   0  0  0  0  0  0  0  0  0  0  0  0
   43.4558   36.2957   42.9763 H   0  0  0  0  0  0  0  0  0  0  0  0
   43.2262   35.3285   40.6561 H   0  0  0  0  0  0  0  0  0  0  0  0
   44.9897   33.7017   39.8677 H   0  0  0  0  0  0  0  0  0  0  0  0
   46.0525   34.9164   45.6983 H   0  0  0  0  0  0  0  0  0  0  0  0
   47.7301   31.5294   50.0477 H   0  0  0  0  0  0  0  0  0  0  0  0
   47.9084   31.8850   48.3086 H   0  0  0  0  0  0  0  0  0  0  0  0
  1 14  1  0
  1  6  2  0
  2  1  1  0
  3  2  2  0
  3  4  1  0
  4  5  2  0
  5  6  1  0
  6 15  1  0
  7  2  1  0
  8 13  2  0
  9  8  1  0
 10  9  2  0
 10 11  1  0
 11 12  2  0
 12 13  1  0
 12  7  1  0
 15 16  1  0
 16 18  1  0
 16 17  2  0
  3 19  1  0
  4 20  1  0
  5 21  1  0
  7 22  1  0
  7 23  1  0
  8 24  1  0
  9 25  1  0
 10 26  1  0
 14 27  1  0
 18 28  1  0
 18 29  1  0
M  ISO  8  19  14  20  14  21  14  22   8  23   8  24  14  25  14  26  14
M  ISO  1  27   3
M  END
>  <minimizedAffinity>  (1) 
-4.74706841

>  <minimizedRMSD>  (1) 
2.23433495

$$$$
