
     RDKit          3D

 28 29  0  0  0  0  0  0  0  0999 V2000
   46.6590   32.1490   46.6030 C   0  0  0  0  0  0  0  0  0  0  0  0
   46.6580   31.9670   45.2310 C   0  0  0  0  0  0  0  0  0  0  0  0
   46.0890   30.8140   44.7370 C   0  0  0  0  0  0  0  0  0  0  0  0
   45.5150   29.8210   45.5300 C   0  0  0  0  0  0  0  0  0  0  0  0
   45.5340   30.0370   46.9020 C   0  0  0  0  0  0  0  0  0  0  0  0
   46.1030   31.1920   47.4150 C   0  0  0  0  0  0  0  0  0  0  0  0
   47.2330   32.9400   44.2690 C   0  0  0  0  0  0  0  0  0  0  0  0
   44.6200   35.5760   44.1310 C   0  0  0  0  0  0  0  0  0  0  0  0
   44.4100   35.6870   42.7460 C   0  0  0  0  0  0  0  0  0  0  0  0
   45.1670   34.8590   41.9150 C   0  0  0  0  0  0  0  0  0  0  0  0
   46.0570   33.9970   42.4560 N   0  0  0  0  0  0  0  0  0  0  0  0
   46.2280   33.9240   43.8240 C   0  0  0  0  0  0  0  0  0  0  0  0
   45.5060   34.7140   44.6110 N   0  0  0  0  0  0  0  0  0  0  0  0
   47.2160   33.2820   47.1200 O   0  0  0  0  0  0  0  0  0  0  0  0
   46.1080   31.3780   48.7730 O   0  0  0  0  0  0  0  0  0  0  0  0
   45.0240   31.2840   49.6410 C   0  0  0  0  0  0  0  0  0  0  0  0
   46.0873   30.6671   43.6469 H   0  0  0  0  0  0  0  0  0  0  0  0
   45.0708   28.9148   45.0923 H   0  0  0  0  0  0  0  0  0  0  0  0
   45.0971   29.2908   47.5819 H   0  0  0  0  0  0  0  0  0  0  0  0
   48.0638   33.4731   44.7544 H   0  0  0  0  0  0  0  0  0  0  0  0
   47.5840   32.3845   43.3868 H   0  0  0  0  0  0  0  0  0  0  0  0
   44.0448   36.2092   44.8225 H   0  0  0  0  0  0  0  0  0  0  0  0
   43.6787   36.3975   42.3332 H   0  0  0  0  0  0  0  0  0  0  0  0
   45.0397   34.9078   40.8235 H   0  0  0  0  0  0  0  0  0  0  0  0
   47.6115   33.9593   46.5159 H   0  0  0  0  0  0  0  0  0  0  0  0
   45.3828   31.3151   50.6804 H   0  0  0  0  0  0  0  0  0  0  0  0
   44.3387   32.1261   49.4643 H   0  0  0  0  0  0  0  0  0  0  0  0
   44.4939   30.3365   49.4643 H   0  0  0  0  0  0  0  0  0  0  0  0
  1 14  1  0
  1  6  2  0
  2  1  1  0
  3  2  2  0
  3  4  1  0
  4  5  2  0
  5  6  1  0
  6 15  1  0
  7  2  1  0
  8 13  2  0
  9  8  1  0
 10 11  1  0
 10  9  2  0
 11 12  2  0
 12  7  1  0
 12 13  1  0
 15 16  1  0
  3 17  1  0
  4 18  1  0
  5 19  1  0
  7 20  1  0
  7 21  1  0
  8 22  1  0
  9 23  1  0
 10 24  1  0
 14 25  1  0
 16 26  1  0
 16 27  1  0
 16 28  1  0
M  ISO  8  17  14  18  14  19  14  20   8  21   8  22  14  23  14  24  14
M  ISO  4  25   3  26   8  27   8  28   8
M  END
>  <minimizedAffinity>  (1) 
-4.46599579

>  <minimizedRMSD>  (1) 
1.51610255

$$$$
