
     RDKit          3D

 38 40  0  0  0  0  0  0  0  0999 V2000
   43.6300   35.2680   42.2740 C   0  0  0  0  0  0  0  0  0  0  0  0
   42.5920   35.0930   41.3990 C   0  0  0  0  0  0  0  0  0  0  0  0
   42.8590   34.5180   40.1720 C   0  0  0  0  0  0  0  0  0  0  0  0
   44.1180   34.1040   39.7660 C   0  0  0  0  0  0  0  0  0  0  0  0
   45.1690   34.2840   40.6560 C   0  0  0  0  0  0  0  0  0  0  0  0
   44.9010   34.8660   41.8990 C   0  0  0  0  0  0  0  0  0  0  0  0
   41.2070   35.4920   41.7210 C   0  0  0  0  0  0  0  0  0  0  0  0
   39.1010   32.4810   41.2780 C   0  0  0  0  0  0  0  0  0  0  0  0
   38.3170   32.8340   40.1810 C   0  0  0  0  0  0  0  0  0  0  0  0
   38.5290   34.0920   39.6190 C   0  0  0  0  0  0  0  0  0  0  0  0
   39.4680   34.8930   40.1580 N   0  0  0  0  0  0  0  0  0  0  0  0
   40.2140   34.5240   41.2240 C   0  0  0  0  0  0  0  0  0  0  0  0
   40.0170   33.3210   41.7680 N   0  0  0  0  0  0  0  0  0  0  0  0
   43.4170   35.8290   43.4970 O   0  0  0  0  0  0  0  0  0  0  0  0
   45.9590   35.0440   42.7740 O   0  0  0  0  0  0  0  0  0  0  0  0
   46.8490   33.9960   42.9270 C   0  0  0  0  0  0  0  0  0  0  0  0
   46.3670   32.8680   43.6120 C   0  0  0  0  0  0  0  0  0  0  0  0
   47.1950   31.7840   43.8030 C   0  0  0  0  0  0  0  0  0  0  0  0
   48.4930   31.7960   43.3240 C   0  0  0  0  0  0  0  0  0  0  0  0
   48.9010   32.9330   42.6630 C   0  0  0  0  0  0  0  0  0  0  0  0
   48.1240   34.0710   42.4310 C   0  0  0  0  0  0  0  0  0  0  0  0
   48.7350   35.2110   41.7410 C   0  0  0  0  0  0  0  0  0  0  0  0
   48.4220   35.2060   40.3700 F   0  0  0  0  0  0  0  0  0  0  0  0
   48.0820   36.3930   42.1840 F   0  0  0  0  0  0  0  0  0  0  0  0
   50.0510   35.4580   41.9800 F   0  0  0  0  0  0  0  0  0  0  0  0
   42.0205   34.3800   39.4736 H   0  0  0  0  0  0  0  0  0  0  0  0
   44.2786   33.6503   38.7769 H   0  0  0  0  0  0  0  0  0  0  0  0
   46.1904   33.9753   40.3888 H   0  0  0  0  0  0  0  0  0  0  0  0
   41.1071   35.5712   42.8136 H   0  0  0  0  0  0  0  0  0  0  0  0
   41.0122   36.4557   41.2277 H   0  0  0  0  0  0  0  0  0  0  0  0
   38.9634   31.4958   41.7475 H   0  0  0  0  0  0  0  0  0  0  0  0
   37.5604   32.1467   39.7745 H   0  0  0  0  0  0  0  0  0  0  0  0
   37.9402   34.4243   38.7513 H   0  0  0  0  0  0  0  0  0  0  0  0
   44.1734   35.9519   44.1237 H   0  0  0  0  0  0  0  0  0  0  0  0
   45.3353   32.8507   43.9932 H   0  0  0  0  0  0  0  0  0  0  0  0
   46.8209   30.9007   44.3413 H   0  0  0  0  0  0  0  0  0  0  0  0
   49.1670   30.9381   43.4645 H   0  0  0  0  0  0  0  0  0  0  0  0
   49.9331   32.9467   42.2828 H   0  0  0  0  0  0  0  0  0  0  0  0
  1 14  1  0
  2  7  1  0
  2  1  2  0
  3  2  1  0
  4  3  2  0
  4  5  1  0
  5  6  2  0
  6  1  1  0
  6 15  1  0
  8 13  2  0
  9  8  1  0
 10 11  1  0
 10  9  2  0
 11 12  2  0
 12  7  1  0
 12 13  1  0
 15 16  1  0
 16 17  2  0
 17 18  1  0
 19 18  2  0
 20 19  1  0
 21 20  2  0
 21 16  1  0
 22 25  1  0
 22 24  1  0
 22 21  1  0
 23 22  1  0
  3 26  1  0
  4 27  1  0
  5 28  1  0
  7 29  1  0
  7 30  1  0
  8 31  1  0
  9 32  1  0
 10 33  1  0
 14 34  1  0
 17 35  1  0
 18 36  1  0
 19 37  1  0
 20 38  1  0
M  ISO  8  26  14  27  14  28  14  29   8  30   8  31  14  32  14  33  14
M  ISO  5  34   3  35  14  36  14  37  14  38  14
M  END
>  <minimizedAffinity>  (1) 
-6.58889532

>  <minimizedRMSD>  (1) 
1.57420957

$$$$
