
     RDKit          3D

 44 47  0  0  0  0  0  0  0  0999 V2000
   43.6180   35.2970   42.3280 C   0  0  0  0  0  0  0  0  0  0  0  0
   42.5790   35.1040   41.4450 C   0  0  0  0  0  0  0  0  0  0  0  0
   42.8640   34.5360   40.2340 C   0  0  0  0  0  0  0  0  0  0  0  0
   44.1390   34.1400   39.8350 C   0  0  0  0  0  0  0  0  0  0  0  0
   45.1670   34.3430   40.7410 C   0  0  0  0  0  0  0  0  0  0  0  0
   44.8870   34.9160   41.9650 C   0  0  0  0  0  0  0  0  0  0  0  0
   41.1910   35.4870   41.7640 C   0  0  0  0  0  0  0  0  0  0  0  0
   39.1230   32.4600   41.2690 C   0  0  0  0  0  0  0  0  0  0  0  0
   38.3540   32.8190   40.1610 C   0  0  0  0  0  0  0  0  0  0  0  0
   38.5610   34.0730   39.6170 C   0  0  0  0  0  0  0  0  0  0  0  0
   39.4760   34.8900   40.1620 N   0  0  0  0  0  0  0  0  0  0  0  0
   40.2050   34.5100   41.2370 C   0  0  0  0  0  0  0  0  0  0  0  0
   40.0160   33.3100   41.7670 N   0  0  0  0  0  0  0  0  0  0  0  0
   43.3750   35.8700   43.5680 O   0  0  0  0  0  0  0  0  0  0  0  0
   45.9400   35.1110   42.8590 O   0  0  0  0  0  0  0  0  0  0  0  0
   46.8290   34.0560   43.0300 C   0  0  0  0  0  0  0  0  0  0  0  0
   46.3450   32.9460   43.7120 C   0  0  0  0  0  0  0  0  0  0  0  0
   47.1870   31.8670   43.9100 C   0  0  0  0  0  0  0  0  0  0  0  0
   48.4900   31.8690   43.4450 C   0  0  0  0  0  0  0  0  0  0  0  0
   48.9190   33.0040   42.7710 C   0  0  0  0  0  0  0  0  0  0  0  0
   48.1140   34.0910   42.5560 C   0  0  0  0  0  0  0  0  0  0  0  0
   48.6020   35.2180   41.8650 N   0  0  0  0  0  0  0  0  0  0  0  0
   50.3260   32.9910   42.2770 C   0  0  0  0  0  0  0  0  0  0  0  0
   51.0510   31.6460   42.4740 C   0  0  0  0  0  0  0  0  0  0  0  0
   50.7400   32.2090   41.1090 C   0  0  0  0  0  0  0  0  0  0  0  0
   42.0333   34.3818   39.5296 H   0  0  0  0  0  0  0  0  0  0  0  0
   44.3203   33.6882   38.8486 H   0  0  0  0  0  0  0  0  0  0  0  0
   46.1966   34.0503   40.4874 H   0  0  0  0  0  0  0  0  0  0  0  0
   41.0820   35.5460   42.8570 H   0  0  0  0  0  0  0  0  0  0  0  0
   40.9909   36.4588   41.2890 H   0  0  0  0  0  0  0  0  0  0  0  0
   38.9899   31.4709   41.7316 H   0  0  0  0  0  0  0  0  0  0  0  0
   37.6101   32.1291   39.7359 H   0  0  0  0  0  0  0  0  0  0  0  0
   37.9791   34.3994   38.7424 H   0  0  0  0  0  0  0  0  0  0  0  0
   44.1211   36.0093   44.2037 H   0  0  0  0  0  0  0  0  0  0  0  0
   45.3112   32.9261   44.0874 H   0  0  0  0  0  0  0  0  0  0  0  0
   46.8116   30.9856   44.4505 H   0  0  0  0  0  0  0  0  0  0  0  0
   49.1570   31.0086   43.6026 H   0  0  0  0  0  0  0  0  0  0  0  0
   47.9893   36.0309   41.7080 H   0  0  0  0  0  0  0  0  0  0  0  0
   49.5714   35.2288   41.5170 H   0  0  0  0  0  0  0  0  0  0  0  0
   50.4703   34.0510   42.5332 H   0  0  0  0  0  0  0  0  0  0  0  0
   52.0869   31.6204   42.8432 H   0  0  0  0  0  0  0  0  0  0  0  0
   50.8475   30.7068   43.0092 H   0  0  0  0  0  0  0  0  0  0  0  0
   49.9775   31.7238   40.4820 H   0  0  0  0  0  0  0  0  0  0  0  0
   51.3460   32.4299   40.2179 H   0  0  0  0  0  0  0  0  0  0  0  0
  1 14  1  0
  2  7  1  0
  2  1  2  0
  3  2  1  0
  4  3  2  0
  4  5  1  0
  5  6  2  0
  6  1  1  0
  6 15  1  0
  8 13  2  0
  9  8  1  0
 10  9  2  0
 10 11  1  0
 11 12  2  0
 12  7  1  0
 12 13  1  0
 15 16  1  0
 16 17  2  0
 17 18  1  0
 19 18  2  0
 20 19  1  0
 21 20  2  0
 21 16  1  0
 22 21  1  0
 23 24  1  0
 23 20  1  0
 25 23  1  0
 25 24  1  0
  3 26  1  0
  4 27  1  0
  5 28  1  0
  7 29  1  0
  7 30  1  0
  8 31  1  0
  9 32  1  0
 10 33  1  0
 14 34  1  0
 17 35  1  0
 18 36  1  0
 19 37  1  0
 22 38  1  0
 22 39  1  0
 23 40  1  0
 24 41  1  0
 24 42  1  0
 25 43  1  0
 25 44  1  0
M  ISO  8  26  14  27  14  28  14  29   8  30   8  31  14  32  14  33  14
M  ISO  8  34   3  35  14  36  14  37  14  40  13  41  13  42  13  43  13
M  ISO  1  44  13
M  END
>  <minimizedAffinity>  (1) 
-6.26408815

>  <minimizedRMSD>  (1) 
0.609586179

$$$$
