
     RDKit          3D

 38 39  0  0  0  0  0  0  0  0999 V2000
   46.2940   31.5260   45.9410 C   0  0  0  0  0  0  0  0  0  0  0  0
   47.5580   32.1210   48.0180 C   0  0  0  0  0  0  0  0  0  0  0  0
   47.1690   31.1440   47.0520 C   0  0  0  0  0  0  0  0  0  0  0  0
   47.6690   29.8610   47.2290 C   0  0  0  0  0  0  0  0  0  0  0  0
   48.4840   29.6110   48.2860 N   0  0  0  0  0  0  0  0  0  0  0  0
   48.8220   30.5490   49.1630 C   0  0  0  0  0  0  0  0  0  0  0  0
   48.3680   31.7880   49.0350 N   0  0  0  0  0  0  0  0  0  0  0  0
   49.7260   30.1880   50.2900 C   0  0  0  0  0  0  0  0  0  0  0  0
   50.1160   28.8720   50.2920 O   0  0  0  0  0  0  0  0  0  0  0  0
   52.3930   29.2310   51.5850 O   0  0  0  0  0  0  0  0  0  0  0  0
   51.0260   28.5990   51.6910 P   0  0  0  0  0  0  0  0  0  0  0  0
   50.2200   29.1550   53.0680 O   0  0  0  0  0  0  0  0  0  0  0  0
   51.2090   26.9300   51.8660 O   0  0  0  0  0  0  0  0  0  0  0  0
   47.0220   32.5650   45.1260 C   0  0  0  0  0  0  0  0  0  0  0  0
   46.4340   34.3520   43.5550 C   0  0  0  0  0  0  0  0  0  0  0  0
   46.2390   33.7450   44.7780 C   0  0  0  0  0  0  0  0  0  0  0  0
   45.3390   34.1990   45.6930 C   0  0  0  0  0  0  0  0  0  0  0  0
   44.5820   35.3140   45.3910 C   0  0  0  0  0  0  0  0  0  0  0  0
   44.7160   35.9710   44.1990 C   0  0  0  0  0  0  0  0  0  0  0  0
   45.6550   35.4560   43.3060 C   0  0  0  0  0  0  0  0  0  0  0  0
   47.5790   33.8130   42.3540 S   0  0  0  0  0  0  0  0  0  0  0  0
   49.0070   34.2200   42.6980 O   0  0  0  0  0  0  0  0  0  0  0  0
   47.3100   34.5480   41.0530 O   0  0  0  0  0  0  0  0  0  0  0  0
   46.0732   30.6470   45.3177 H   0  0  0  0  0  0  0  0  0  0  0  0
   45.3420   31.9275   46.3185 H   0  0  0  0  0  0  0  0  0  0  0  0
   47.1911   33.1541   47.9280 H   0  0  0  0  0  0  0  0  0  0  0  0
   47.4087   29.0585   46.5232 H   0  0  0  0  0  0  0  0  0  0  0  0
   50.6269   30.8159   50.2258 H   0  0  0  0  0  0  0  0  0  0  0  0
   49.1599   30.3541   51.2184 H   0  0  0  0  0  0  0  0  0  0  0  0
   50.6887   28.8317   53.8778 H   0  0  0  0  0  0  0  0  0  0  0  0
   51.2342   26.6999   52.8286 H   0  0  0  0  0  0  0  0  0  0  0  0
   47.8982   32.8965   45.7025 H   0  0  0  0  0  0  0  0  0  0  0  0
   47.2794   32.0789   44.1734 H   0  0  0  0  0  0  0  0  0  0  0  0
   45.2166   33.6856   46.6581 H   0  0  0  0  0  0  0  0  0  0  0  0
   43.8531   35.6829   46.1276 H   0  0  0  0  0  0  0  0  0  0  0  0
   44.1143   36.8595   43.9573 H   0  0  0  0  0  0  0  0  0  0  0  0
   45.7801   35.9666   42.3398 H   0  0  0  0  0  0  0  0  0  0  0  0
   47.4461   32.4514   42.2806 H   0  0  0  0  0  0  0  0  0  0  0  0
  1  3  1  0
  2  7  2  0
  3  4  2  0
  3  2  1  0
  4  5  1  0
  5  6  2  0
  6  8  1  0
  7  6  1  0
  8  9  1  0
  9 11  1  0
 10 11  2  0
 11 13  1  0
 11 12  1  0
 14  1  1  0
 15 16  2  0
 16 14  1  0
 16 17  1  0
 18 17  2  0
 19 18  1  0
 20 15  1  0
 20 19  2  0
 21 22  2  0
 21 15  1  0
 23 21  2  0
  1 24  1  0
  1 25  1  0
  2 26  1  0
  4 27  1  0
  8 28  1  0
  8 29  1  0
 12 30  1  0
 13 31  1  0
 14 32  1  0
 14 33  1  0
 17 34  1  0
 18 35  1  0
 19 36  1  0
 20 37  1  0
 21 38  1  0
M  ISO  8  24   8  25   8  26  14  27  14  28   8  29   8  30   3  31   3
M  ISO  7  32   8  33   8  34  14  35  14  36  14  37  14  38  11
M  END
>  <minimizedAffinity>  (1) 
-5.83130503

>  <minimizedRMSD>  (1) 
0.997262895

$$$$
