
     RDKit          3D

 41 43  0  0  0  0  0  0  0  0999 V2000
   46.2850   31.6980   45.3720 C   0  0  0  0  0  0  0  0  0  0  0  0
   47.2790   32.3100   47.5910 C   0  0  0  0  0  0  0  0  0  0  0  0
   47.0750   31.3560   46.5550 C   0  0  0  0  0  0  0  0  0  0  0  0
   47.6690   30.1020   46.7340 C   0  0  0  0  0  0  0  0  0  0  0  0
   48.3920   29.8620   47.8560 N   0  0  0  0  0  0  0  0  0  0  0  0
   48.5520   30.8000   48.8010 C   0  0  0  0  0  0  0  0  0  0  0  0
   48.0070   32.0020   48.6730 N   0  0  0  0  0  0  0  0  0  0  0  0
   49.3650   30.4410   50.0020 C   0  0  0  0  0  0  0  0  0  0  0  0
   50.5820   31.2790   50.1040 C   0  0  0  0  0  0  0  0  0  0  0  0
   51.5740   31.1960   49.1430 C   0  0  0  0  0  0  0  0  0  0  0  0
   52.6570   32.0210   49.3420 C   0  0  0  0  0  0  0  0  0  0  0  0
   52.8070   32.8910   50.4000 C   0  0  0  0  0  0  0  0  0  0  0  0
   51.7720   32.9060   51.3070 C   0  0  0  0  0  0  0  0  0  0  0  0
   50.7070   32.1260   51.1520 N   0  0  0  0  0  0  0  0  0  0  0  0
   47.0160   32.8040   44.6510 C   0  0  0  0  0  0  0  0  0  0  0  0
   46.4180   34.6920   43.1940 C   0  0  0  0  0  0  0  0  0  0  0  0
   46.2210   33.9990   44.3730 C   0  0  0  0  0  0  0  0  0  0  0  0
   45.2980   34.3750   45.3040 C   0  0  0  0  0  0  0  0  0  0  0  0
   44.5310   35.4900   45.0620 C   0  0  0  0  0  0  0  0  0  0  0  0
   44.6610   36.2270   43.9270 C   0  0  0  0  0  0  0  0  0  0  0  0
   45.6230   35.7910   43.0120 C   0  0  0  0  0  0  0  0  0  0  0  0
   47.5930   34.2520   41.9810 S   0  0  0  0  0  0  0  0  0  0  0  0
   48.7530   35.2370   41.9240 O   0  0  0  0  0  0  0  0  0  0  0  0
   46.9550   34.3860   40.6120 O   0  0  0  0  0  0  0  0  0  0  0  0
   46.1889   30.8200   44.7164 H   0  0  0  0  0  0  0  0  0  0  0  0
   45.2732   32.0209   45.6584 H   0  0  0  0  0  0  0  0  0  0  0  0
   46.8339   33.3120   47.5026 H   0  0  0  0  0  0  0  0  0  0  0  0
   47.5507   29.3179   45.9716 H   0  0  0  0  0  0  0  0  0  0  0  0
   48.7534   30.5876   50.9045 H   0  0  0  0  0  0  0  0  0  0  0  0
   49.6765   29.3904   49.9064 H   0  0  0  0  0  0  0  0  0  0  0  0
   51.5018   30.5177   48.2800 H   0  0  0  0  0  0  0  0  0  0  0  0
   53.4665   31.9831   48.5982 H   0  0  0  0  0  0  0  0  0  0  0  0
   53.6947   33.5308   50.5122 H   0  0  0  0  0  0  0  0  0  0  0  0
   51.8272   33.5766   52.1772 H   0  0  0  0  0  0  0  0  0  0  0  0
   47.8751   33.1033   45.2693 H   0  0  0  0  0  0  0  0  0  0  0  0
   47.3010   32.3928   43.6713 H   0  0  0  0  0  0  0  0  0  0  0  0
   45.1697   33.7970   46.2311 H   0  0  0  0  0  0  0  0  0  0  0  0
   43.7869   35.7962   45.8121 H   0  0  0  0  0  0  0  0  0  0  0  0
   44.0430   37.1174   43.7393 H   0  0  0  0  0  0  0  0  0  0  0  0
   45.7496   36.3690   42.0847 H   0  0  0  0  0  0  0  0  0  0  0  0
   48.0184   32.9881   42.2949 H   0  0  0  0  0  0  0  0  0  0  0  0
  1  3  1  0
  2  7  2  0
  3  4  2  0
  3  2  1  0
  4  5  1  0
  5  6  2  0
  6  8  1  0
  7  6  1  0
  8  9  1  0
  9 14  2  0
 10 11  2  0
 10  9  1  0
 11 12  1  0
 12 13  2  0
 14 13  1  0
 15  1  1  0
 16 17  2  0
 17 15  1  0
 17 18  1  0
 19 18  2  0
 20 19  1  0
 21 16  1  0
 21 20  2  0
 22 16  1  0
 23 22  2  0
 24 22  2  0
  1 25  1  0
  1 26  1  0
  2 27  1  0
  4 28  1  0
  8 29  1  0
  8 30  1  0
 10 31  1  0
 11 32  1  0
 12 33  1  0
 13 34  1  0
 15 35  1  0
 15 36  1  0
 18 37  1  0
 19 38  1  0
 20 39  1  0
 21 40  1  0
 22 41  1  0
M  ISO  8  25   8  26   8  27  14  28  14  29   8  30   8  31  14  32  14
M  ISO  8  33  14  34  14  35   8  36   8  37  14  38  14  39  14  40  14
M  ISO  1  41  11
M  END
>  <minimizedAffinity>  (1) 
-5.77065229

>  <minimizedRMSD>  (1) 
1.00806928

$$$$
