
     RDKit          3D

 34 35  0  0  0  0  0  0  0  0999 V2000
   46.9020   32.7050   44.9580 C   0  0  0  0  0  0  0  0  0  0  0  0
   46.4430   34.5060   43.3440 C   0  0  0  0  0  0  0  0  0  0  0  0
   46.1730   33.9070   44.5630 C   0  0  0  0  0  0  0  0  0  0  0  0
   45.2400   34.3870   45.4300 C   0  0  0  0  0  0  0  0  0  0  0  0
   44.5310   35.5210   45.0860 C   0  0  0  0  0  0  0  0  0  0  0  0
   44.7460   36.1660   43.8970 C   0  0  0  0  0  0  0  0  0  0  0  0
   45.7080   35.6260   43.0610 C   0  0  0  0  0  0  0  0  0  0  0  0
   47.6310   33.9210   42.2100 S   0  0  0  0  0  0  0  0  0  0  0  0
   49.0460   34.3390   42.5870 O   0  0  0  0  0  0  0  0  0  0  0  0
   47.4040   34.6070   40.8720 O   0  0  0  0  0  0  0  0  0  0  0  0
   46.2000   31.8000   45.9340 C   0  0  0  0  0  0  0  0  0  0  0  0
   47.5200   32.1030   48.0340 C   0  0  0  0  0  0  0  0  0  0  0  0
   47.1990   31.3170   46.8890 C   0  0  0  0  0  0  0  0  0  0  0  0
   47.8710   30.1080   46.7440 C   0  0  0  0  0  0  0  0  0  0  0  0
   48.7810   29.7470   47.6810 N   0  0  0  0  0  0  0  0  0  0  0  0
   49.0510   30.5120   48.7370 C   0  0  0  0  0  0  0  0  0  0  0  0
   48.4330   31.6730   48.9140 N   0  0  0  0  0  0  0  0  0  0  0  0
   50.0730   30.0160   49.7200 C   0  0  0  0  0  0  0  0  0  0  0  0
   49.5300   30.0400   51.0570 N   0  0  0  0  0  0  0  0  0  0  0  0
   47.8511   33.0217   45.4151 H   0  0  0  0  0  0  0  0  0  0  0  0
   47.0213   32.1141   44.0379 H   0  0  0  0  0  0  0  0  0  0  0  0
   45.0539   33.8802   46.3884 H   0  0  0  0  0  0  0  0  0  0  0  0
   43.7765   35.9152   45.7827 H   0  0  0  0  0  0  0  0  0  0  0  0
   44.1819   37.0688   43.6201 H   0  0  0  0  0  0  0  0  0  0  0  0
   45.8951   36.1320   42.1024 H   0  0  0  0  0  0  0  0  0  0  0  0
   47.5044   32.5571   42.1867 H   0  0  0  0  0  0  0  0  0  0  0  0
   45.4139   32.3579   46.4638 H   0  0  0  0  0  0  0  0  0  0  0  0
   45.7295   30.9562   45.4080 H   0  0  0  0  0  0  0  0  0  0  0  0
   47.0154   33.0670   48.1954 H   0  0  0  0  0  0  0  0  0  0  0  0
   47.6671   29.4552   45.8824 H   0  0  0  0  0  0  0  0  0  0  0  0
   50.3561   28.9851   49.4611 H   0  0  0  0  0  0  0  0  0  0  0  0
   50.9572   30.6692   49.6795 H   0  0  0  0  0  0  0  0  0  0  0  0
   50.2995   30.0060   51.7408 H   0  0  0  0  0  0  0  0  0  0  0  0
   48.9886   30.9057   51.1922 H   0  0  0  0  0  0  0  0  0  0  0  0
  1 11  1  0
  2  3  2  0
  3  1  1  0
  3  4  1  0
  5  4  2  0
  6  5  1  0
  7  2  1  0
  7  6  2  0
  8  9  2  0
  8  2  1  0
 10  8  2  0
 11 13  1  0
 12 17  2  0
 13 12  1  0
 14 13  2  0
 14 15  1  0
 15 16  2  0
 16 17  1  0
 16 18  1  0
 18 19  1  0
  1 20  1  0
  1 21  1  0
  4 22  1  0
  5 23  1  0
  6 24  1  0
  7 25  1  0
  8 26  1  0
 11 27  1  0
 11 28  1  0
 12 29  1  0
 14 30  1  0
 18 31  1  0
 18 32  1  0
 19 33  1  0
 19 34  1  0
M  ISO  8  20   8  21   8  22  14  23  14  24  14  25  14  26  11  27   8
M  ISO  7  28   8  29  14  30  14  31   8  32   8  33   5  34   5
M  END
>  <minimizedAffinity>  (1) 
-5.03128004

>  <minimizedRMSD>  (1) 
0.373349309

$$$$
