
     RDKit          3D

 33 34  0  0  0  0  0  0  0  0999 V2000
   46.9870   32.6920   44.8940 C   0  0  0  0  0  0  0  0  0  0  0  0
   46.5020   34.5040   43.3150 C   0  0  0  0  0  0  0  0  0  0  0  0
   46.2330   33.8860   44.5170 C   0  0  0  0  0  0  0  0  0  0  0  0
   45.2860   34.3320   45.3890 C   0  0  0  0  0  0  0  0  0  0  0  0
   44.5550   35.4540   45.0630 C   0  0  0  0  0  0  0  0  0  0  0  0
   44.7570   36.1300   43.8900 C   0  0  0  0  0  0  0  0  0  0  0  0
   45.7430   35.6120   43.0500 C   0  0  0  0  0  0  0  0  0  0  0  0
   47.7000   33.9740   42.1720 S   0  0  0  0  0  0  0  0  0  0  0  0
   49.1030   34.4440   42.5350 O   0  0  0  0  0  0  0  0  0  0  0  0
   47.4300   34.6350   40.8320 O   0  0  0  0  0  0  0  0  0  0  0  0
   46.2280   31.6670   45.6960 C   0  0  0  0  0  0  0  0  0  0  0  0
   47.4100   32.2430   47.8210 C   0  0  0  0  0  0  0  0  0  0  0  0
   47.0680   31.2840   46.8310 C   0  0  0  0  0  0  0  0  0  0  0  0
   47.5760   30.0010   47.0150 C   0  0  0  0  0  0  0  0  0  0  0  0
   48.3490   29.7470   48.1030 N   0  0  0  0  0  0  0  0  0  0  0  0
   48.6400   30.6760   49.0030 C   0  0  0  0  0  0  0  0  0  0  0  0
   48.1770   31.9110   48.8640 N   0  0  0  0  0  0  0  0  0  0  0  0
   49.4990   30.3060   50.1680 C   0  0  0  0  0  0  0  0  0  0  0  0
   50.8480   30.5120   49.8130 O   0  0  0  0  0  0  0  0  0  0  0  0
   47.8537   33.0137   45.4902 H   0  0  0  0  0  0  0  0  0  0  0  0
   47.2551   32.1957   43.9496 H   0  0  0  0  0  0  0  0  0  0  0  0
   45.1077   33.8051   46.3380 H   0  0  0  0  0  0  0  0  0  0  0  0
   43.7887   35.8160   45.7642 H   0  0  0  0  0  0  0  0  0  0  0  0
   44.1773   37.0268   43.6259 H   0  0  0  0  0  0  0  0  0  0  0  0
   45.9249   36.1352   42.0997 H   0  0  0  0  0  0  0  0  0  0  0  0
   47.6296   32.6059   42.1548 H   0  0  0  0  0  0  0  0  0  0  0  0
   45.2827   32.0982   46.0574 H   0  0  0  0  0  0  0  0  0  0  0  0
   45.9913   30.7893   45.0766 H   0  0  0  0  0  0  0  0  0  0  0  0
   47.0382   33.2741   47.7281 H   0  0  0  0  0  0  0  0  0  0  0  0
   47.3547   29.2041   46.2897 H   0  0  0  0  0  0  0  0  0  0  0  0
   49.2426   30.9357   51.0327 H   0  0  0  0  0  0  0  0  0  0  0  0
   49.3367   29.2515   50.4358 H   0  0  0  0  0  0  0  0  0  0  0  0
   51.3960   30.5957   50.6332 H   0  0  0  0  0  0  0  0  0  0  0  0
  1 11  1  0
  2  3  2  0
  3  1  1  0
  3  4  1  0
  5  4  2  0
  6  5  1  0
  7  2  1  0
  7  6  2  0
  8  9  2  0
  8  2  1  0
 10  8  2  0
 11 13  1  0
 12 17  2  0
 13 14  2  0
 13 12  1  0
 14 15  1  0
 15 16  2  0
 16 18  1  0
 17 16  1  0
 19 18  1  0
  1 20  1  0
  1 21  1  0
  4 22  1  0
  5 23  1  0
  6 24  1  0
  7 25  1  0
  8 26  1  0
 11 27  1  0
 11 28  1  0
 12 29  1  0
 14 30  1  0
 18 31  1  0
 18 32  1  0
 19 33  1  0
M  ISO  8  20   8  21   8  22  14  23  14  24  14  25  14  26  11  27   8
M  ISO  6  28   8  29  14  30  14  31   8  32   8  33   3
M  END
>  <minimizedAffinity>  (1) 
-4.8975625

>  <minimizedRMSD>  (1) 
0.0202990137

$$$$
