
     RDKit          3D

 34 36  0  0  1  0  0  0  0  0999 V2000
   48.2800   32.5980   40.4850 C   0  0  0  0  0  0  0  0  0  0  0  0
   49.4950   32.2990   40.1750 C   0  0  0  0  0  0  0  0  0  0  0  0
   49.8390   31.9030   38.8630 N   0  0  0  0  0  0  0  0  0  0  0  0
   50.5440   30.9650   38.0230 C   0  0  0  0  0  0  0  0  0  0  0  0
   51.5640   30.2240   38.1540 O   0  0  0  0  0  0  0  0  0  0  0  0
   49.5090   31.2990   36.9800 C   0  0  0  0  0  0  0  0  0  0  0  0
   49.3820   32.6340   37.6610 C   0  0  1  0  0  0  0  0  0  0  0  0
   47.7220   33.2360   37.9450 S   0  0  0  0  0  0  0  0  0  0  0  0
   47.1450   32.5550   39.5300 C   0  0  0  0  0  0  0  0  0  0  0  0
   47.9370   33.0090   41.8400 C   0  0  0  0  0  0  0  0  0  0  0  0
   47.1070   34.6560   41.8140 S   0  0  0  0  0  0  0  0  0  0  0  0
   44.5150   35.8770   44.6900 C   0  0  0  0  0  0  0  0  0  0  0  0
   45.2350   35.8150   43.4750 C   0  0  0  0  0  0  0  0  0  0  0  0
   46.1780   34.7740   43.3290 C   0  0  0  0  0  0  0  0  0  0  0  0
   46.3280   33.9070   44.3580 N   0  0  0  0  0  0  0  0  0  0  0  0
   45.6330   33.9900   45.4970 C   0  0  0  0  0  0  0  0  0  0  0  0
   44.7250   34.9720   45.6690 N   0  0  0  0  0  0  0  0  0  0  0  0
   45.8430   33.0020   46.6040 C   0  0  0  0  0  0  0  0  0  0  0  0
   50.5480   32.3690   41.1950 C   0  0  0  0  0  0  0  0  0  0  0  0
   51.7500   31.9990   41.0100 O   0  0  0  0  0  0  0  0  0  0  0  0
   51.2770   32.5560   42.3190 O   0  0  0  0  0  0  0  0  0  0  0  0
   48.6030   30.6760   37.0120 H   0  0  0  0  0  0  0  0  0  0  0  0
   49.7120   31.2077   35.9028 H   0  0  0  0  0  0  0  0  0  0  0  0
   49.8403   33.5298   37.2165 H   0  0  0  0  0  0  0  0  0  0  0  0
   46.3099   33.1590   39.9145 H   0  0  0  0  0  0  0  0  0  0  0  0
   46.7944   31.5208   39.3978 H   0  0  0  0  0  0  0  0  0  0  0  0
   47.2576   32.2665   42.2841 H   0  0  0  0  0  0  0  0  0  0  0  0
   48.8576   33.0800   42.4379 H   0  0  0  0  0  0  0  0  0  0  0  0
   43.7725   36.6747   44.8397 H   0  0  0  0  0  0  0  0  0  0  0  0
   45.0671   36.5497   42.6738 H   0  0  0  0  0  0  0  0  0  0  0  0
   45.7351   33.5096   47.5739 H   0  0  0  0  0  0  0  0  0  0  0  0
   45.0955   32.1988   46.5253 H   0  0  0  0  0  0  0  0  0  0  0  0
   46.8525   32.5723   46.5253 H   0  0  0  0  0  0  0  0  0  0  0  0
   52.2373   32.3157   42.3319 H   0  0  0  0  0  0  0  0  0  0  0  0
  1 10  1  0
  2  1  2  0
  2 19  1  0
  3  2  1  0
  4  5  2  0
  4  3  1  0
  6  7  1  0
  6  4  1  0
  7  8  1  0
  7  3  1  0
  8  9  1  0
  9  1  1  0
 11 10  1  0
 11 14  1  0
 12 17  2  0
 13 12  1  0
 14 13  2  0
 14 15  1  0
 15 16  2  0
 16 17  1  0
 16 18  1  0
 19 21  1  0
 20 19  2  0
  6 22  1  0
  6 23  1  0
  7 24  1  6
  9 25  1  0
  9 26  1  0
 10 27  1  0
 10 28  1  0
 12 29  1  0
 13 30  1  0
 18 31  1  0
 18 32  1  0
 18 33  1  0
 21 34  1  0
M  ISO  8  22  13  23  13  24  13  25  13  26  13  27   8  28   8  29  14
M  ISO  5  30  14  31   8  32   8  33   8  34   3
M  END
>  <minimizedAffinity>  (1) 
-4.82341385

>  <minimizedRMSD>  (1) 
0.0326805189

$$$$
