
     RDKit          3D

 30 32  0  0  0  0  0  0  0  0999 V2000
   47.3530   34.1360   42.2920 C   0  0  0  0  0  0  0  0  0  0  0  0
   48.3240   35.0420   41.9500 C   0  0  0  0  0  0  0  0  0  0  0  0
   48.6690   35.2310   40.6310 C   0  0  0  0  0  0  0  0  0  0  0  0
   48.0750   34.5410   39.5990 C   0  0  0  0  0  0  0  0  0  0  0  0
   48.4770   34.7930   38.3450 N   0  0  0  0  0  0  0  0  0  0  0  0
   47.8920   34.1130   37.3150 C   0  0  0  0  0  0  0  0  0  0  0  0
   46.9170   33.2020   37.6370 C   0  0  0  0  0  0  0  0  0  0  0  0
   46.4810   32.9180   38.9170 C   0  0  0  0  0  0  0  0  0  0  0  0
   47.0990   33.6310   39.9440 C   0  0  0  0  0  0  0  0  0  0  0  0
   46.7330   33.4220   41.2720 C   0  0  0  0  0  0  0  0  0  0  0  0
   45.8310   34.4940   44.2590 C   0  0  0  0  0  0  0  0  0  0  0  0
   46.8480   33.7920   43.6120 C   0  0  0  0  0  0  0  0  0  0  0  0
   47.4370   32.6660   44.2720 C   0  0  0  0  0  0  0  0  0  0  0  0
   46.9410   32.3670   45.5070 N   0  0  0  0  0  0  0  0  0  0  0  0
   45.9700   33.0610   46.0940 C   0  0  0  0  0  0  0  0  0  0  0  0
   45.4200   34.1170   45.4710 N   0  0  0  0  0  0  0  0  0  0  0  0
   45.2620   35.5990   43.5990 N   0  0  0  0  0  0  0  0  0  0  0  0
   45.4510   32.7050   47.4540 C   0  0  0  0  0  0  0  0  0  0  0  0
   44.9100   31.4550   47.5170 F   0  0  0  0  0  0  0  0  0  0  0  0
   44.5050   33.6620   47.7640 F   0  0  0  0  0  0  0  0  0  0  0  0
   46.5380   32.7480   48.3340 F   0  0  0  0  0  0  0  0  0  0  0  0
   48.8308   35.6219   42.7355 H   0  0  0  0  0  0  0  0  0  0  0  0
   49.4528   35.9647   40.3916 H   0  0  0  0  0  0  0  0  0  0  0  0
   48.1899   34.2881   36.2707 H   0  0  0  0  0  0  0  0  0  0  0  0
   46.4444   32.6536   36.8088 H   0  0  0  0  0  0  0  0  0  0  0  0
   45.6943   32.1748   39.1140 H   0  0  0  0  0  0  0  0  0  0  0  0
   45.9499   32.6887   41.5150 H   0  0  0  0  0  0  0  0  0  0  0  0
   48.2426   32.0764   43.8100 H   0  0  0  0  0  0  0  0  0  0  0  0
   45.5978   35.8690   42.6634 H   0  0  0  0  0  0  0  0  0  0  0  0
   44.5098   36.1378   44.0515 H   0  0  0  0  0  0  0  0  0  0  0  0
  1 12  1  0
  2  1  2  0
  3  2  1  0
  4  9  1  0
  4  3  2  0
  5  4  1  0
  6  7  1  0
  6  5  2  0
  7  8  2  0
  8  9  1  0
  9 10  2  0
 10  1  1  0
 11 16  2  0
 12 11  1  0
 12 13  2  0
 13 14  1  0
 14 15  2  0
 15 18  1  0
 16 15  1  0
 17 11  1  0
 18 19  1  0
 18 20  1  0
 18 21  1  0
  2 22  1  0
  3 23  1  0
  6 24  1  0
  7 25  1  0
  8 26  1  0
 10 27  1  0
 13 28  1  0
 17 29  1  0
 17 30  1  0
M  ISO  7  22  14  23  14  24  14  25  14  26  14  27  14  28  14
M  END
>  <minimizedAffinity>  (1) 
-6.21473455

>  <minimizedRMSD>  (1) 
1.59018207

$$$$
