
     RDKit          3D

 28 30  0  0  0  0  0  0  0  0999 V2000
   47.3680   34.2230   42.2170 C   0  0  0  0  0  0  0  0  0  0  0  0
   48.3550   35.1140   41.8840 C   0  0  0  0  0  0  0  0  0  0  0  0
   48.7110   35.2910   40.5630 C   0  0  0  0  0  0  0  0  0  0  0  0
   48.1020   34.5900   39.5280 C   0  0  0  0  0  0  0  0  0  0  0  0
   48.5230   34.8260   38.2780 N   0  0  0  0  0  0  0  0  0  0  0  0
   47.9420   34.1430   37.2480 C   0  0  0  0  0  0  0  0  0  0  0  0
   46.9410   33.2360   37.5750 C   0  0  0  0  0  0  0  0  0  0  0  0
   46.5070   32.9910   38.8540 C   0  0  0  0  0  0  0  0  0  0  0  0
   47.1120   33.6960   39.8710 C   0  0  0  0  0  0  0  0  0  0  0  0
   46.7350   33.5000   41.1990 C   0  0  0  0  0  0  0  0  0  0  0  0
   45.8010   34.6130   44.1520 C   0  0  0  0  0  0  0  0  0  0  0  0
   46.8460   33.8920   43.5440 C   0  0  0  0  0  0  0  0  0  0  0  0
   47.4250   32.7970   44.2340 C   0  0  0  0  0  0  0  0  0  0  0  0
   46.9030   32.5340   45.4580 N   0  0  0  0  0  0  0  0  0  0  0  0
   45.9150   33.2200   46.0260 C   0  0  0  0  0  0  0  0  0  0  0  0
   45.3750   34.2500   45.3690 N   0  0  0  0  0  0  0  0  0  0  0  0
   45.2280   35.7040   43.4500 N   0  0  0  0  0  0  0  0  0  0  0  0
   45.2780   32.8120   47.6480 S   0  0  0  0  0  0  0  0  0  0  0  0
   48.8641   35.6889   42.6716 H   0  0  0  0  0  0  0  0  0  0  0  0
   49.5050   36.0124   40.3198 H   0  0  0  0  0  0  0  0  0  0  0  0
   48.2527   34.3037   36.2051 H   0  0  0  0  0  0  0  0  0  0  0  0
   46.4653   32.6779   36.7551 H   0  0  0  0  0  0  0  0  0  0  0  0
   45.7091   32.2619   39.0583 H   0  0  0  0  0  0  0  0  0  0  0  0
   45.9420   32.7789   41.4462 H   0  0  0  0  0  0  0  0  0  0  0  0
   48.2434   32.2002   43.8050 H   0  0  0  0  0  0  0  0  0  0  0  0
   45.5794   35.9567   42.5154 H   0  0  0  0  0  0  0  0  0  0  0  0
   44.4604   36.2437   43.8748 H   0  0  0  0  0  0  0  0  0  0  0  0
   46.1012   33.3393   48.6078 H   0  0  0  0  0  0  0  0  0  0  0  0
  1 12  1  0
  2  1  2  0
  3  2  1  0
  4  9  1  0
  4  3  2  0
  5  4  1  0
  6  7  1  0
  6  5  2  0
  7  8  2  0
  8  9  1  0
  9 10  2  0
 10  1  1  0
 11 16  2  0
 12 11  1  0
 12 13  2  0
 13 14  1  0
 14 15  2  0
 15 18  1  0
 16 15  1  0
 17 11  1  0
  2 19  1  0
  3 20  1  0
  6 21  1  0
  7 22  1  0
  8 23  1  0
 10 24  1  0
 13 25  1  0
 17 26  1  0
 17 27  1  0
 18 28  1  0
M  ISO  8  19  14  20  14  21  14  22  14  23  14  24  14  25  14  28  11
M  END
>  <minimizedAffinity>  (1) 
-5.49671936

>  <minimizedRMSD>  (1) 
1.19080997

$$$$
