
     RDKit          3D

 44 47  0  0  0  0  0  0  0  0999 V2000
   45.6590   34.6840   44.2050 C   0  0  0  0  0  0  0  0  0  0  0  0
   46.7270   33.9760   43.6390 C   0  0  0  0  0  0  0  0  0  0  0  0
   47.3160   32.9080   44.3760 C   0  0  0  0  0  0  0  0  0  0  0  0
   46.7950   32.6420   45.5980 N   0  0  0  0  0  0  0  0  0  0  0  0
   45.7680   33.3380   46.1210 C   0  0  0  0  0  0  0  0  0  0  0  0
   45.2230   34.3350   45.4240 N   0  0  0  0  0  0  0  0  0  0  0  0
   45.0810   35.7380   43.4740 N   0  0  0  0  0  0  0  0  0  0  0  0
   47.2700   34.2730   42.3330 C   0  0  0  0  0  0  0  0  0  0  0  0
   48.2770   35.1510   42.0070 C   0  0  0  0  0  0  0  0  0  0  0  0
   48.6770   35.3210   40.6970 C   0  0  0  0  0  0  0  0  0  0  0  0
   48.0800   34.6080   39.6500 C   0  0  0  0  0  0  0  0  0  0  0  0
   48.5410   34.8450   38.4180 N   0  0  0  0  0  0  0  0  0  0  0  0
   47.9670   34.1550   37.3760 C   0  0  0  0  0  0  0  0  0  0  0  0
   46.9490   33.2640   37.6840 C   0  0  0  0  0  0  0  0  0  0  0  0
   46.4860   33.0310   38.9560 C   0  0  0  0  0  0  0  0  0  0  0  0
   47.0700   33.7290   39.9890 C   0  0  0  0  0  0  0  0  0  0  0  0
   46.6580   33.5510   41.3040 C   0  0  0  0  0  0  0  0  0  0  0  0
   45.2690   32.9600   47.4820 C   0  0  0  0  0  0  0  0  0  0  0  0
   46.3950   32.2020   48.2180 C   0  0  0  0  0  0  0  0  0  0  0  0
   47.2700   29.8510   47.9150 C   0  0  0  0  0  0  0  0  0  0  0  0
   46.2320   30.7570   47.8970 C   0  0  0  0  0  0  0  0  0  0  0  0
   44.9810   30.2720   47.5600 C   0  0  0  0  0  0  0  0  0  0  0  0
   44.6660   28.9710   47.2390 C   0  0  0  0  0  0  0  0  0  0  0  0
   45.7320   28.0960   47.2670 C   0  0  0  0  0  0  0  0  0  0  0  0
   47.0160   28.5120   47.5980 C   0  0  0  0  0  0  0  0  0  0  0  0
   49.6430   30.6870   48.5550 N   0  0  0  0  0  0  0  0  0  0  0  0
   48.5810   30.3170   48.2600 C   0  0  0  0  0  0  0  0  0  0  0  0
   48.1564   32.3254   43.9707 H   0  0  0  0  0  0  0  0  0  0  0  0
   45.4437   35.9766   42.5400 H   0  0  0  0  0  0  0  0  0  0  0  0
   44.2951   36.2711   43.8729 H   0  0  0  0  0  0  0  0  0  0  0  0
   48.7716   35.7270   42.8030 H   0  0  0  0  0  0  0  0  0  0  0  0
   49.4838   36.0334   40.4700 H   0  0  0  0  0  0  0  0  0  0  0  0
   48.3019   34.3037   36.3388 H   0  0  0  0  0  0  0  0  0  0  0  0
   46.4829   32.7087   36.8567 H   0  0  0  0  0  0  0  0  0  0  0  0
   45.6758   32.3109   39.1430 H   0  0  0  0  0  0  0  0  0  0  0  0
   45.8498   32.8416   41.5356 H   0  0  0  0  0  0  0  0  0  0  0  0
   45.0011   33.8663   48.0449 H   0  0  0  0  0  0  0  0  0  0  0  0
   44.3769   32.3223   47.3950 H   0  0  0  0  0  0  0  0  0  0  0  0
   47.3772   32.5569   47.8725 H   0  0  0  0  0  0  0  0  0  0  0  0
   46.3365   32.3711   49.3033 H   0  0  0  0  0  0  0  0  0  0  0  0
   44.1554   30.9987   47.5473 H   0  0  0  0  0  0  0  0  0  0  0  0
   43.6448   28.6541   46.9806 H   0  0  0  0  0  0  0  0  0  0  0  0
   45.5607   27.0378   47.0201 H   0  0  0  0  0  0  0  0  0  0  0  0
   47.8394   27.7827   47.6109 H   0  0  0  0  0  0  0  0  0  0  0  0
  1  6  2  0
  2  1  1  0
  2  3  2  0
  3  4  1  0
  4  5  2  0
  5 18  1  0
  6  5  1  0
  7  1  1  0
  8  2  1  0
  9  8  2  0
 10  9  1  0
 11 16  1  0
 11 10  2  0
 12 11  1  0
 13 14  1  0
 13 12  2  0
 14 15  2  0
 15 16  1  0
 16 17  2  0
 17  8  1  0
 18 19  1  0
 20 27  1  0
 21 20  2  0
 21 19  1  0
 22 21  1  0
 23 24  1  0
 23 22  2  0
 24 25  2  0
 25 20  1  0
 27 26  3  0
  3 28  1  0
  7 29  1  0
  7 30  1  0
  9 31  1  0
 10 32  1  0
 13 33  1  0
 14 34  1  0
 15 35  1  0
 17 36  1  0
 18 37  1  0
 18 38  1  0
 19 39  1  0
 19 40  1  0
 22 41  1  0
 23 42  1  0
 24 43  1  0
 25 44  1  0
M  ISO  8  28  14  31  14  32  14  33  14  34  14  35  14  36  14  37   8
M  ISO  7  38   8  39   8  40   8  41  14  42  14  43  14  44  14
M  END
>  <minimizedAffinity>  (1) 
-6.40310287

>  <minimizedRMSD>  (1) 
2.94103622

$$$$
