
     RDKit          3D

 34 36  0  0  0  0  0  0  0  0999 V2000
   45.6170   34.7400   44.1910 C   0  0  0  0  0  0  0  0  0  0  0  0
   46.6830   33.9860   43.6360 C   0  0  0  0  0  0  0  0  0  0  0  0
   47.2350   32.9350   44.3940 C   0  0  0  0  0  0  0  0  0  0  0  0
   46.7050   32.7100   45.6240 N   0  0  0  0  0  0  0  0  0  0  0  0
   45.6990   33.4350   46.1280 C   0  0  0  0  0  0  0  0  0  0  0  0
   45.1640   34.4380   45.4130 N   0  0  0  0  0  0  0  0  0  0  0  0
   45.0560   35.7970   43.4360 N   0  0  0  0  0  0  0  0  0  0  0  0
   47.2210   34.2560   42.3240 C   0  0  0  0  0  0  0  0  0  0  0  0
   48.2540   35.1270   41.9930 C   0  0  0  0  0  0  0  0  0  0  0  0
   48.6650   35.2860   40.6880 C   0  0  0  0  0  0  0  0  0  0  0  0
   48.0650   34.5870   39.6600 C   0  0  0  0  0  0  0  0  0  0  0  0
   48.4990   34.7780   38.4140 N   0  0  0  0  0  0  0  0  0  0  0  0
   47.9240   34.1030   37.3780 C   0  0  0  0  0  0  0  0  0  0  0  0
   46.8980   33.2370   37.6940 C   0  0  0  0  0  0  0  0  0  0  0  0
   46.4180   33.0070   38.9660 C   0  0  0  0  0  0  0  0  0  0  0  0
   47.0290   33.7150   39.9920 C   0  0  0  0  0  0  0  0  0  0  0  0
   46.6080   33.5480   41.3040 C   0  0  0  0  0  0  0  0  0  0  0  0
   45.1830   33.1100   47.4950 C   0  0  0  0  0  0  0  0  0  0  0  0
   46.2690   32.2990   48.2340 C   0  0  0  0  0  0  0  0  0  0  0  0
   45.3450   31.1480   49.3180 S   0  0  0  0  0  0  0  0  0  0  0  0
   48.0614   32.3216   44.0057 H   0  0  0  0  0  0  0  0  0  0  0  0
   45.4222   36.0102   42.4972 H   0  0  0  0  0  0  0  0  0  0  0  0
   44.2814   36.3533   43.8252 H   0  0  0  0  0  0  0  0  0  0  0  0
   48.7523   35.6999   42.7889 H   0  0  0  0  0  0  0  0  0  0  0  0
   49.4858   35.9823   40.4610 H   0  0  0  0  0  0  0  0  0  0  0  0
   48.2620   34.2424   36.3405 H   0  0  0  0  0  0  0  0  0  0  0  0
   46.4258   32.6869   36.8667 H   0  0  0  0  0  0  0  0  0  0  0  0
   45.5961   32.3013   39.1573 H   0  0  0  0  0  0  0  0  0  0  0  0
   45.7870   32.8529   41.5336 H   0  0  0  0  0  0  0  0  0  0  0  0
   44.9717   34.0389   48.0449 H   0  0  0  0  0  0  0  0  0  0  0  0
   44.2527   32.5273   47.4239 H   0  0  0  0  0  0  0  0  0  0  0  0
   46.8897   31.7411   47.5174 H   0  0  0  0  0  0  0  0  0  0  0  0
   46.9515   32.9461   48.8046 H   0  0  0  0  0  0  0  0  0  0  0  0
   45.5932   31.4572   50.6294 H   0  0  0  0  0  0  0  0  0  0  0  0
  1  6  2  0
  2  1  1  0
  2  3  2  0
  3  4  1  0
  4  5  2  0
  5 18  1  0
  6  5  1  0
  7  1  1  0
  8  2  1  0
  9  8  2  0
 10  9  1  0
 11 16  1  0
 11 10  2  0
 12 11  1  0
 13 14  1  0
 13 12  2  0
 14 15  2  0
 15 16  1  0
 16 17  2  0
 17  8  1  0
 18 19  1  0
 19 20  1  0
  3 21  1  0
  7 22  1  0
  7 23  1  0
  9 24  1  0
 10 25  1  0
 13 26  1  0
 14 27  1  0
 15 28  1  0
 17 29  1  0
 18 30  1  0
 18 31  1  0
 19 32  1  0
 19 33  1  0
 20 34  1  0
M  ISO  8  21  14  24  14  25  14  26  14  27  14  28  14  29  14  30   8
M  ISO  4  31   8  32   8  33   8  34  11
M  END
>  <minimizedAffinity>  (1) 
-5.83974314

>  <minimizedRMSD>  (1) 
0.806996524

$$$$
