
     RDKit          3D

 28 28  0  0  0  0  0  0  0  0999 V2000
   44.5864   35.9923   44.5188 C   0  0  0  0  0  0  0  0  0  0  0  0
   45.2252   36.0064   43.2499 C   0  0  0  0  0  0  0  0  0  0  0  0
   46.0966   34.9552   42.9668 C   0  0  0  0  0  0  0  0  0  0  0  0
   46.2910   33.9833   43.9012 N   0  0  0  0  0  0  0  0  0  0  0  0
   45.6664   34.0021   45.0977 C   0  0  0  0  0  0  0  0  0  0  0  0
   44.8221   34.9973   45.4036 N   0  0  0  0  0  0  0  0  0  0  0  0
   46.7211   34.9661   41.7303 O   0  0  0  0  0  0  0  0  0  0  0  0
   48.6483   33.3332   40.9680 O   0  0  0  0  0  0  0  0  0  0  0  0
   48.4012   34.6807   41.6412 P   0  0  1  0  0  0  0  0  0  0  0  0
   49.1242   35.9247   40.7770 O   0  0  0  0  0  0  0  0  0  0  0  0
   48.9924   34.5997   43.2264 O   0  0  0  0  0  0  0  0  0  0  0  0
   43.8970   36.7899   44.7888 H   0  0  0  0  0  0  0  0  0  0  0  0
   44.9920   36.8339   42.5870 H   0  0  0  0  0  0  0  0  0  0  0  0
   45.9507   33.1466   45.6986 H   0  0  0  0  0  0  0  0  0  0  0  0
   48.7956   33.6875   43.5585 H   0  0  0  0  0  0  0  0  0  0  0  0
   49.1470   35.5131   39.4339 C   0  0  0  0  0  0  0  0  0  0  0  0
   50.3046   36.1200   38.8034 N   0  0  0  0  0  4  0  0  0  0  0  0
   50.0926   37.5566   38.7838 C   0  0  0  0  0  0  0  0  0  0  0  0
   49.7040   37.8826   37.7937 H   0  0  0  0  0  0  0  0  0  0  0  0
   50.5060   35.6065   37.4744 C   0  0  0  0  0  0  0  0  0  0  0  0
   50.0057   34.6087   37.3862 H   0  0  0  0  0  0  0  0  0  0  0  0
   49.1667   34.4104   39.3322 H   0  0  0  0  0  0  0  0  0  0  0  0
   48.2432   35.8818   38.9274 H   0  0  0  0  0  0  0  0  0  0  0  0
   51.1280   35.8587   39.3813 H   0  0  0  0  0  0  0  0  0  0  0  0
   51.0870   38.0119   38.9669 H   0  0  0  0  0  0  0  0  0  0  0  0
   49.3860   37.8278   39.5664 H   0  0  0  0  0  0  0  0  0  0  0  0
   51.5869   35.4219   37.3051 H   0  0  0  0  0  0  0  0  0  0  0  0
   50.1603   36.3112   36.6842 H   0  0  0  0  0  0  0  0  0  0  0  0
  1  6  2  0
  2  1  1  0
  3  2  2  0
  3  4  1  0
  4  5  2  0
  5  6  1  0
  7  3  1  0
  8  9  2  0
  9  7  1  1
  9 11  1  0
 10  9  1  0
  1 12  1  0
  2 13  1  0
  5 14  1  0
 11 15  1  0
 16 17  1  0
 17 18  1  0
 18 19  1  0
 17 20  1  0
 20 21  1  0
 16 22  1  0
 16 23  1  0
 17 24  1  0
 18 25  1  0
 18 26  1  0
 20 27  1  0
 20 28  1  0
 10 16  1  0
M  CHG  1  17   1
M  END
>  <DihAtoms>  (1) 
8,9,15,16

>  <DihDeg>  (1) 
-179.99889918917705

$$$$
