
     RDKit          3D

 27 28  0  0  0  0  0  0  0  0999 V2000
   45.6650   30.6510   47.6980 O   0  0  0  0  0  0  0  0  0  0  0  0
   45.9640   32.0090   48.3890 P   0  0  2  0  0  0  0  0  0  0  0  0
   45.3460   31.8490   49.9470 O   0  0  0  0  0  0  0  0  0  0  0  0
   45.1240   33.2050   47.5480 O   0  0  0  0  0  0  0  0  0  0  0  0
   46.9850   33.2410   44.4230 C   0  0  0  0  0  0  0  0  0  0  0  0
   46.5460   32.8830   45.7150 C   0  0  0  0  0  0  0  0  0  0  0  0
   45.5160   33.5920   46.2840 C   0  0  0  0  0  0  0  0  0  0  0  0
   44.9620   34.6110   45.5750 N   0  0  0  0  0  0  0  0  0  0  0  0
   45.3900   34.9400   44.3490 C   0  0  0  0  0  0  0  0  0  0  0  0
   46.3940   34.2660   43.7680 N   0  0  0  0  0  0  0  0  0  0  0  0
   47.5970   32.2610   48.3740 O   0  0  0  0  0  0  0  0  0  0  0  0
   48.6430   31.5990   48.9080 C   0  0  0  0  0  0  0  0  0  0  0  0
   49.5710   32.4290   49.3610 O   0  0  0  0  0  0  0  0  0  0  0  0
   49.2080   30.2260   49.2060 C   0  0  0  0  0  0  0  0  0  0  0  0
   49.8640   30.0730   50.3770 C   0  0  0  0  0  0  0  0  0  0  0  0
   50.4090   28.8090   50.6550 C   0  0  0  0  0  0  0  0  0  0  0  0
   50.2780   27.7810   49.7730 C   0  0  0  0  0  0  0  0  0  0  0  0
   49.6010   28.0060   48.6080 C   0  0  0  0  0  0  0  0  0  0  0  0
   49.1040   29.1860   48.3670 N   0  0  0  0  0  0  0  0  0  0  0  0
   46.0610   32.0341   50.6062 H   0  0  0  0  0  0  0  0  0  0  0  0
   47.8079   32.6865   43.9484 H   0  0  0  0  0  0  0  0  0  0  0  0
   47.0198   32.0513   46.2570 H   0  0  0  0  0  0  0  0  0  0  0  0
   44.9124   35.7729   43.8121 H   0  0  0  0  0  0  0  0  0  0  0  0
   49.9674   30.9074   51.0863 H   0  0  0  0  0  0  0  0  0  0  0  0
   50.9496   28.6475   51.5993 H   0  0  0  0  0  0  0  0  0  0  0  0
   50.7071   26.7923   49.9929 H   0  0  0  0  0  0  0  0  0  0  0  0
   49.4760   27.1942   47.8763 H   0  0  0  0  0  0  0  0  0  0  0  0
  2  1  2  0
  2  3  1  0
  4  2  1  0
  5  6  2  0
  6  7  1  0
  7  4  1  0
  8  7  2  0
  9  8  1  0
 10  9  2  0
 10  5  1  0
 11  2  1  0
 11 12  1  0
 12 14  1  0
 12 13  2  0
 14 15  2  0
 15 16  1  0
 17 16  2  0
 18 17  1  0
 19 18  2  0
 19 14  1  0
  3 20  1  0
  5 21  1  0
  6 22  1  0
  9 23  1  0
 15 24  1  0
 16 25  1  0
 17 26  1  0
 18 27  1  0
M  ISO  8  20   3  21  14  22  14  23  14  24  14  25  14  26  14  27  14
M  END
>  <minimizedAffinity>  (1) 
-4.8894949

>  <minimizedRMSD>  (1) 
0.843700707

$$$$
