
     RDKit          3D

 33 36  0  0  0  0  0  0  0  0999 V2000
   44.9550   33.0590   41.0290 Cl  0  0  0  0  0  0  0  0  0  0  0  0
   46.4500   33.9320   40.8240 C   0  0  0  0  0  0  0  0  0  0  0  0
   46.9200   34.7310   41.8230 C   0  0  0  0  0  0  0  0  0  0  0  0
   48.1220   35.4510   41.6990 C   0  0  0  0  0  0  0  0  0  0  0  0
   48.7980   35.3030   40.5030 C   0  0  0  0  0  0  0  0  0  0  0  0
   48.3160   34.4950   39.5030 C   0  0  0  0  0  0  0  0  0  0  0  0
   47.1470   33.8050   39.6460 C   0  0  0  0  0  0  0  0  0  0  0  0
   46.8420   31.5970   38.5590 C   0  0  0  0  0  0  0  0  0  0  0  0
   46.7100   32.9720   38.5300 C   0  0  0  0  0  0  0  0  0  0  0  0
   46.1400   33.5160   37.3800 C   0  0  0  0  0  0  0  0  0  0  0  0
   45.7110   32.7840   36.3000 C   0  0  0  0  0  0  0  0  0  0  0  0
   45.1480   33.0860   35.1210 N   0  0  0  0  0  0  0  0  0  0  0  0
   44.9350   31.9670   34.4390 N   0  0  0  0  0  0  0  0  0  0  0  0
   45.3530   30.9120   35.1570 C   0  0  0  0  0  0  0  0  0  0  0  0
   45.8500   31.4010   36.3420 C   0  0  0  0  0  0  0  0  0  0  0  0
   46.4140   30.8260   37.4730 C   0  0  0  0  0  0  0  0  0  0  0  0
   45.6230   34.0610   45.2040 C   0  0  0  0  0  0  0  0  0  0  0  0
   44.7240   35.1090   45.4100 C   0  0  0  0  0  0  0  0  0  0  0  0
   44.5730   36.0320   44.3870 C   0  0  0  0  0  0  0  0  0  0  0  0
   45.2930   35.8820   43.2500 N   0  0  0  0  0  0  0  0  0  0  0  0
   46.1600   34.8530   43.0750 C   0  0  0  0  0  0  0  0  0  0  0  0
   46.3300   33.9310   44.0610 N   0  0  0  0  0  0  0  0  0  0  0  0
   48.5015   36.0941   42.5067 H   0  0  0  0  0  0  0  0  0  0  0  0
   49.7430   35.8444   40.3487 H   0  0  0  0  0  0  0  0  0  0  0  0
   48.8845   34.4017   38.5659 H   0  0  0  0  0  0  0  0  0  0  0  0
   47.2850   31.1071   39.4386 H   0  0  0  0  0  0  0  0  0  0  0  0
   46.0257   34.6091   37.3343 H   0  0  0  0  0  0  0  0  0  0  0  0
   44.9173   34.0358   34.7960 H   0  0  0  0  0  0  0  0  0  0  0  0
   45.3065   29.8555   34.8541 H   0  0  0  0  0  0  0  0  0  0  0  0
   46.5275   29.7327   37.5163 H   0  0  0  0  0  0  0  0  0  0  0  0
   45.7602   33.3151   46.0007 H   0  0  0  0  0  0  0  0  0  0  0  0
   44.1571   35.1988   46.3484 H   0  0  0  0  0  0  0  0  0  0  0  0
   43.8766   36.8763   44.4975 H   0  0  0  0  0  0  0  0  0  0  0  0
  2  1  1  0
  2  3  2  0
  3 21  1  0
  4  3  1  0
  5  4  2  0
  6  7  2  0
  6  5  1  0
  7  2  1  0
  9  8  2  0
  9  7  1  0
 10  9  1  0
 11 15  1  0
 11 10  2  0
 12 11  1  0
 13 12  1  0
 13 14  2  0
 14 15  1  0
 15 16  2  0
 16  8  1  0
 17 18  2  0
 19 18  1  0
 20 19  2  0
 21 20  1  0
 21 22  2  0
 22 17  1  0
  4 23  1  0
  5 24  1  0
  6 25  1  0
  8 26  1  0
 10 27  1  0
 12 28  1  0
 14 29  1  0
 16 30  1  0
 17 31  1  0
 18 32  1  0
 19 33  1  0
M  ISO  8  23  14  24  14  25  14  26  14  27  14  28   9  29  14  30  14
M  ISO  3  31  14  32  14  33  14
M  END
>  <minimizedAffinity>  (1) 
-6.50293207

>  <minimizedRMSD>  (1) 
0.75164485

$$$$
