
     RDKit          3D

 33 34  0  0  1  0  0  0  0  0999 V2000
   48.4700   31.4390   48.6940 C   0  0  0  0  0  0  0  0  0  0  0  0
   49.4400   32.0070   49.2910 O   0  0  0  0  0  0  0  0  0  0  0  0
   49.1730   30.2070   48.7880 N   0  0  0  0  0  0  0  0  0  0  0  0
   48.8070   29.3810   47.6280 C   0  0  0  0  0  0  0  0  0  0  0  0
   49.5120   28.0520   47.8280 C   0  0  0  0  0  0  0  0  0  0  0  0
   49.3790   27.6190   49.2260 N   0  0  0  0  0  0  0  0  0  0  0  0
   50.3570   28.3650   49.9500 C   0  0  0  0  0  0  0  0  0  0  0  0
   50.0870   29.8160   49.8310 C   0  0  2  0  0  0  0  0  0  0  0  0
   49.6150   30.3260   51.0430 O   0  0  0  0  0  0  0  0  0  0  0  0
   47.4560   32.2790   48.3650 O   0  0  0  0  0  0  0  0  0  0  0  0
   45.4290   30.7920   47.5620 O   0  0  0  0  0  0  0  0  0  0  0  0
   45.8120   32.0450   48.3640 P   0  0  1  0  0  0  0  0  0  0  0  0
   45.2280   31.7840   49.9220 O   0  0  0  0  0  0  0  0  0  0  0  0
   45.0370   33.3700   47.6660 O   0  0  0  0  0  0  0  0  0  0  0  0
   46.6900   33.4960   44.4390 C   0  0  0  0  0  0  0  0  0  0  0  0
   46.3290   33.1060   45.7530 C   0  0  0  0  0  0  0  0  0  0  0  0
   45.3400   33.7980   46.3920 C   0  0  0  0  0  0  0  0  0  0  0  0
   44.7310   34.8370   45.7580 N   0  0  0  0  0  0  0  0  0  0  0  0
   45.0960   35.1880   44.5060 C   0  0  0  0  0  0  0  0  0  0  0  0
   46.0550   34.5370   43.8500 N   0  0  0  0  0  0  0  0  0  0  0  0
   49.1454   29.8577   46.6962 H   0  0  0  0  0  0  0  0  0  0  0  0
   47.7172   29.2535   47.5494 H   0  0  0  0  0  0  0  0  0  0  0  0
   49.0602   27.2968   47.1680 H   0  0  0  0  0  0  0  0  0  0  0  0
   50.5786   28.1685   47.5855 H   0  0  0  0  0  0  0  0  0  0  0  0
   48.4339   27.8265   49.5789 H   0  0  0  0  0  0  0  0  0  0  0  0
   50.3228   28.0751   51.0106 H   0  0  0  0  0  0  0  0  0  0  0  0
   51.3521   28.1504   49.5331 H   0  0  0  0  0  0  0  0  0  0  0  0
   51.0632   30.2406   49.5541 H   0  0  0  0  0  0  0  0  0  0  0  0
   50.0535   29.8522   51.7935 H   0  0  0  0  0  0  0  0  0  0  0  0
   45.9019   32.0852   50.5818 H   0  0  0  0  0  0  0  0  0  0  0  0
   47.4823   32.9556   43.9002 H   0  0  0  0  0  0  0  0  0  0  0  0
   46.8348   32.2637   46.2477 H   0  0  0  0  0  0  0  0  0  0  0  0
   44.5888   36.0322   44.0161 H   0  0  0  0  0  0  0  0  0  0  0  0
  1  3  1  0
  1  2  2  0
  3  8  1  0
  4  5  1  0
  4  3  1  0
  5  6  1  0
  6  7  1  0
  8  7  1  0
  8  9  1  0
 10  1  1  0
 12 11  2  0
 12 10  1  0
 12 13  1  0
 14 12  1  0
 15 16  2  0
 16 17  1  0
 17 14  1  0
 18 17  2  0
 19 18  1  0
 20 15  1  0
 20 19  2  0
  4 21  1  0
  4 22  1  0
  5 23  1  0
  5 24  1  0
  6 25  1  0
  7 26  1  0
  7 27  1  0
  8 28  1  6
  9 29  1  0
 13 30  1  0
 15 31  1  0
 16 32  1  0
 19 33  1  0
M  ISO  8  21  13  22  13  23  13  24  13  25   5  26  13  27  13  28  13
M  ISO  5  29   3  30   3  31  14  32  14  33  14
M  END
>  <minimizedAffinity>  (1) 
-5.58284521

>  <minimizedRMSD>  (1) 
0.0576581247

$$$$
