
     RDKit          3D

 36 37  0  0  1  0  0  0  0  0999 V2000
   48.4890   31.0740   48.8630 C   0  0  0  0  0  0  0  0  0  0  0  0
   49.5400   31.5400   49.4020 O   0  0  0  0  0  0  0  0  0  0  0  0
   49.1110   29.8050   48.7990 N   0  0  0  0  0  0  0  0  0  0  0  0
   48.5730   29.1000   47.6270 C   0  0  0  0  0  0  0  0  0  0  0  0
   49.2050   27.7240   47.6370 C   0  0  0  0  0  0  0  0  0  0  0  0
   49.1500   27.1840   49.0120 N   0  0  0  0  0  0  0  0  0  0  0  0
   50.2530   27.7960   49.6810 C   0  0  0  0  0  0  0  0  0  0  0  0
   50.0940   29.2760   49.7030 C   0  0  2  0  0  0  0  0  0  0  0  0
   50.7210   29.6800   52.0690 C   0  0  0  0  0  0  0  0  0  0  0  0
   51.9480   29.4130   51.9430 O   0  0  0  0  0  0  0  0  0  0  0  0
   49.7030   29.6500   51.0490 N   0  0  0  0  0  0  0  0  0  0  0  0
   47.5070   32.0090   48.7000 O   0  0  0  0  0  0  0  0  0  0  0  0
   45.4710   30.5140   47.9350 O   0  0  0  0  0  0  0  0  0  0  0  0
   45.8650   31.8380   48.6280 P   0  0  1  0  0  0  0  0  0  0  0  0
   45.1860   31.7870   50.1630 O   0  0  0  0  0  0  0  0  0  0  0  0
   45.1900   33.0970   47.7170 O   0  0  0  0  0  0  0  0  0  0  0  0
   47.0710   32.8110   44.6300 C   0  0  0  0  0  0  0  0  0  0  0  0
   46.5940   32.5810   45.9460 C   0  0  0  0  0  0  0  0  0  0  0  0
   45.6010   33.3780   46.4380 C   0  0  0  0  0  0  0  0  0  0  0  0
   45.0870   34.3770   45.6660 N   0  0  0  0  0  0  0  0  0  0  0  0
   45.5610   34.5760   44.4110 C   0  0  0  0  0  0  0  0  0  0  0  0
   46.5390   33.8120   43.8880 N   0  0  0  0  0  0  0  0  0  0  0  0
   48.8395   29.6356   46.7039 H   0  0  0  0  0  0  0  0  0  0  0  0
   47.4754   29.0380   47.6646 H   0  0  0  0  0  0  0  0  0  0  0  0
   48.6533   27.0589   46.9564 H   0  0  0  0  0  0  0  0  0  0  0  0
   50.2511   27.7910   47.3035 H   0  0  0  0  0  0  0  0  0  0  0  0
   48.2617   27.4377   49.4675 H   0  0  0  0  0  0  0  0  0  0  0  0
   50.3023   27.4219   50.7143 H   0  0  0  0  0  0  0  0  0  0  0  0
   51.1788   27.5458   49.1423 H   0  0  0  0  0  0  0  0  0  0  0  0
   51.0584   29.6951   49.3800 H   0  0  0  0  0  0  0  0  0  0  0  0
   50.3890   29.9700   53.0768 H   0  0  0  0  0  0  0  0  0  0  0  0
   48.7253   29.8875   51.2696 H   0  0  0  0  0  0  0  0  0  0  0  0
   45.9034   31.8409   50.8431 H   0  0  0  0  0  0  0  0  0  0  0  0
   47.8695   32.1793   44.2137 H   0  0  0  0  0  0  0  0  0  0  0  0
   47.0177   31.7730   46.5604 H   0  0  0  0  0  0  0  0  0  0  0  0
   45.1336   35.3861   43.8018 H   0  0  0  0  0  0  0  0  0  0  0  0
  1  2  2  0
  3  1  1  0
  3  8  1  0
  4  5  1  0
  4  3  1  0
  5  6  1  0
  6  7  1  0
  7  8  1  0
  8 11  1  0
 10  9  2  0
 11  9  1  0
 12  1  1  0
 14 13  2  0
 14 12  1  0
 14 15  1  0
 16 14  1  0
 17 18  2  0
 18 19  1  0
 19 16  1  0
 20 19  2  0
 21 20  1  0
 22 21  2  0
 22 17  1  0
  4 23  1  0
  4 24  1  0
  5 25  1  0
  5 26  1  0
  6 27  1  0
  7 28  1  0
  7 29  1  0
  8 30  1  6
  9 31  1  0
 11 32  1  0
 15 33  1  0
 17 34  1  0
 18 35  1  0
 21 36  1  0
M  ISO  8  23  13  24  13  25  13  26  13  27   5  28  13  29  13  30  13
M  ISO  5  31   6  33   3  34  14  35  14  36  14
M  END
>  <minimizedAffinity>  (1) 
-5.48320198

>  <minimizedRMSD>  (1) 
0.693561614

$$$$
