
     RDKit          3D

 30 32  0  0  0  0  0  0  0  0999 V2000
   44.6970   33.2710   41.1300 Cl  0  0  0  0  0  0  0  0  0  0  0  0
   46.2780   34.0050   40.9680 C   0  0  0  0  0  0  0  0  0  0  0  0
   46.8170   34.7140   41.9940 C   0  0  0  0  0  0  0  0  0  0  0  0
   48.0860   35.3130   41.8870 C   0  0  0  0  0  0  0  0  0  0  0  0
   48.7410   35.1400   40.6870 C   0  0  0  0  0  0  0  0  0  0  0  0
   48.1930   34.4210   39.6470 C   0  0  0  0  0  0  0  0  0  0  0  0
   46.9580   33.8450   39.7680 C   0  0  0  0  0  0  0  0  0  0  0  0
   48.0850   34.5840   37.1610 Cl  0  0  0  0  0  0  0  0  0  0  0  0
   46.8370   33.3550   37.4000 C   0  0  0  0  0  0  0  0  0  0  0  0
   46.3770   33.0830   38.6650 C   0  0  0  0  0  0  0  0  0  0  0  0
   45.3970   32.1150   38.8460 C   0  0  0  0  0  0  0  0  0  0  0  0
   44.9380   31.4750   37.7150 C   0  0  0  0  0  0  0  0  0  0  0  0
   45.3890   31.7340   36.4400 C   0  0  0  0  0  0  0  0  0  0  0  0
   44.7840   30.9000   35.0250 Cl  0  0  0  0  0  0  0  0  0  0  0  0
   46.3700   32.7030   36.2680 C   0  0  0  0  0  0  0  0  0  0  0  0
   45.5110   34.0920   45.3740 C   0  0  0  0  0  0  0  0  0  0  0  0
   44.6490   35.1810   45.5730 C   0  0  0  0  0  0  0  0  0  0  0  0
   44.5240   36.1120   44.5520 C   0  0  0  0  0  0  0  0  0  0  0  0
   45.2380   35.9290   43.4150 N   0  0  0  0  0  0  0  0  0  0  0  0
   46.0700   34.8620   43.2430 C   0  0  0  0  0  0  0  0  0  0  0  0
   46.1980   33.9530   44.2270 N   0  0  0  0  0  0  0  0  0  0  0  0
   48.5297   35.8866   42.7141 H   0  0  0  0  0  0  0  0  0  0  0  0
   49.7354   35.5913   40.5548 H   0  0  0  0  0  0  0  0  0  0  0  0
   48.7553   34.3088   38.7083 H   0  0  0  0  0  0  0  0  0  0  0  0
   45.0059   31.8709   39.8447 H   0  0  0  0  0  0  0  0  0  0  0  0
   44.1604   30.7069   37.8390 H   0  0  0  0  0  0  0  0  0  0  0  0
   46.7625   32.9446   35.2692 H   0  0  0  0  0  0  0  0  0  0  0  0
   45.6264   33.3404   46.1688 H   0  0  0  0  0  0  0  0  0  0  0  0
   44.0879   35.2935   46.5124 H   0  0  0  0  0  0  0  0  0  0  0  0
   43.8588   36.9810   44.6632 H   0  0  0  0  0  0  0  0  0  0  0  0
  2  1  1  0
  2  3  2  0
  3 20  1  0
  4  3  1  0
  5  4  2  0
  6  7  2  0
  6  5  1  0
  7  2  1  0
  8  9  1  0
  9 10  2  0
 10 11  1  0
 10  7  1  0
 12 11  2  0
 13 12  1  0
 14 13  1  0
 15 13  2  0
 15  9  1  0
 16 17  2  0
 18 17  1  0
 19 18  2  0
 20 19  1  0
 20 21  2  0
 21 16  1  0
  4 22  1  0
  5 23  1  0
  6 24  1  0
 11 25  1  0
 12 26  1  0
 15 27  1  0
 16 28  1  0
 17 29  1  0
 18 30  1  0
M  ISO  8  22  14  23  14  24  14  25  14  26  14  27  14  28  14  29  14
M  ISO  1  30  14
M  END
>  <minimizedAffinity>  (1) 
-6.17827892

>  <minimizedRMSD>  (1) 
0.151839003

$$$$
