
     RDKit          3D

 23 24  0  0  0  0  0  0  0  0999 V2000
   44.1030   32.5620   42.6890 Cl  0  0  0  0  0  0  0  0  0  0  0  0
   45.5560   33.4770   42.4010 C   0  0  0  0  0  0  0  0  0  0  0  0
   46.3370   33.9260   43.4130 C   0  0  0  0  0  0  0  0  0  0  0  0
   47.4590   34.6380   43.0580 C   0  0  0  0  0  0  0  0  0  0  0  0
   47.7970   34.8960   41.7760 C   0  0  0  0  0  0  0  0  0  0  0  0
   47.0040   34.4410   40.7500 C   0  0  0  0  0  0  0  0  0  0  0  0
   45.8770   33.7260   41.0790 C   0  0  0  0  0  0  0  0  0  0  0  0
   44.7750   34.1490   46.8610 C   0  0  0  0  0  0  0  0  0  0  0  0
   45.1380   34.4640   45.5470 C   0  0  0  0  0  0  0  0  0  0  0  0
   45.9380   33.6260   44.7900 C   0  0  0  0  0  0  0  0  0  0  0  0
   46.3520   32.4760   45.3970 N   0  0  0  0  0  0  0  0  0  0  0  0
   45.9980   32.1810   46.6620 C   0  0  0  0  0  0  0  0  0  0  0  0
   45.2160   33.0090   47.3900 N   0  0  0  0  0  0  0  0  0  0  0  0
   49.0180   35.6690   41.4040 C   0  0  0  0  0  0  0  0  0  0  0  0
   50.1120   34.9450   41.7650 F   0  0  0  0  0  0  0  0  0  0  0  0
   49.0040   36.9290   41.9900 F   0  0  0  0  0  0  0  0  0  0  0  0
   49.0000   35.8480   40.0230 F   0  0  0  0  0  0  0  0  0  0  0  0
   48.1132   35.0159   43.8575 H   0  0  0  0  0  0  0  0  0  0  0  0
   47.2626   34.6423   39.7000 H   0  0  0  0  0  0  0  0  0  0  0  0
   45.2221   33.3470   40.2806 H   0  0  0  0  0  0  0  0  0  0  0  0
   44.1381   34.8293   47.4455 H   0  0  0  0  0  0  0  0  0  0  0  0
   44.7775   35.4038   45.1033 H   0  0  0  0  0  0  0  0  0  0  0  0
   46.3538   31.2434   47.1141 H   0  0  0  0  0  0  0  0  0  0  0  0
  2  1  1  0
  2  3  2  0
  3 10  1  0
  4  3  1  0
  5  4  2  0
  6  7  2  0
  6  5  1  0
  7  2  1  0
  8 13  2  0
  9  8  1  0
 10 11  1  0
 10  9  2  0
 11 12  2  0
 12 13  1  0
 14 15  1  0
 14  5  1  0
 14 16  1  0
 17 14  1  0
  4 18  1  0
  6 19  1  0
  7 20  1  0
  8 21  1  0
  9 22  1  0
 12 23  1  0
M  ISO  6  18  14  19  14  20  14  21  14  22  14  23  14
M  END
>  <minimizedAffinity>  (1) 
-5.14815903

>  <minimizedRMSD>  (1) 
1.8693074

$$$$
