
     RDKit          3D

 39 41  0  0  0  0  0  0  0  0999 V2000
   44.1280   32.6030   42.7230 Cl  0  0  0  0  0  0  0  0  0  0  0  0
   45.5730   33.5140   42.4040 C   0  0  0  0  0  0  0  0  0  0  0  0
   46.3220   34.0320   43.4040 C   0  0  0  0  0  0  0  0  0  0  0  0
   47.4490   34.7370   43.0290 C   0  0  0  0  0  0  0  0  0  0  0  0
   47.8180   34.9240   41.7470 C   0  0  0  0  0  0  0  0  0  0  0  0
   47.0620   34.4010   40.7390 C   0  0  0  0  0  0  0  0  0  0  0  0
   45.9340   33.6930   41.0790 C   0  0  0  0  0  0  0  0  0  0  0  0
   44.5990   34.4010   46.7630 C   0  0  0  0  0  0  0  0  0  0  0  0
   44.9810   34.6360   45.4390 C   0  0  0  0  0  0  0  0  0  0  0  0
   45.8990   33.8160   44.7880 C   0  0  0  0  0  0  0  0  0  0  0  0
   46.3960   32.7810   45.5130 N   0  0  0  0  0  0  0  0  0  0  0  0
   46.0260   32.5600   46.7790 C   0  0  0  0  0  0  0  0  0  0  0  0
   45.1300   33.3640   47.4140 N   0  0  0  0  0  0  0  0  0  0  0  0
   46.5930   31.4160   47.5400 C   0  0  0  0  0  0  0  0  0  0  0  0
   47.0840   30.3600   46.5750 C   0  0  0  0  0  0  0  0  0  0  0  0
   47.9050   29.3100   47.2610 C   0  0  0  0  0  0  0  0  0  0  0  0
   49.0040   29.8890   48.1120 C   0  0  0  0  0  0  0  0  0  0  0  0
   48.3280   30.7490   49.1750 C   0  0  0  0  0  0  0  0  0  0  0  0
   47.6770   31.8870   48.4680 C   0  0  0  0  0  0  0  0  0  0  0  0
   49.0390   35.6880   41.3580 C   0  0  0  0  0  0  0  0  0  0  0  0
   50.1340   34.9640   41.7070 F   0  0  0  0  0  0  0  0  0  0  0  0
   49.0330   36.9560   41.9380 F   0  0  0  0  0  0  0  0  0  0  0  0
   49.0080   35.8570   39.9700 F   0  0  0  0  0  0  0  0  0  0  0  0
   48.0794   35.1692   43.8201 H   0  0  0  0  0  0  0  0  0  0  0  0
   47.3466   34.5417   39.6858 H   0  0  0  0  0  0  0  0  0  0  0  0
   45.3072   33.2611   40.2849 H   0  0  0  0  0  0  0  0  0  0  0  0
   43.8723   35.0603   47.2603 H   0  0  0  0  0  0  0  0  0  0  0  0
   44.5458   35.4894   44.8983 H   0  0  0  0  0  0  0  0  0  0  0  0
   45.8107   30.9630   48.1668 H   0  0  0  0  0  0  0  0  0  0  0  0
   47.6998   30.8437   45.8025 H   0  0  0  0  0  0  0  0  0  0  0  0
   46.2047   29.8686   46.1331 H   0  0  0  0  0  0  0  0  0  0  0  0
   47.2428   28.7105   47.9030 H   0  0  0  0  0  0  0  0  0  0  0  0
   48.3799   28.6991   46.4791 H   0  0  0  0  0  0  0  0  0  0  0  0
   49.5804   29.0818   48.5876 H   0  0  0  0  0  0  0  0  0  0  0  0
   49.7018   30.4851   47.5056 H   0  0  0  0  0  0  0  0  0  0  0  0
   47.5730   30.1582   49.7144 H   0  0  0  0  0  0  0  0  0  0  0  0
   49.0616   31.1124   49.9097 H   0  0  0  0  0  0  0  0  0  0  0  0
   48.4374   32.4260   47.8839 H   0  0  0  0  0  0  0  0  0  0  0  0
   47.2213   32.5448   49.2227 H   0  0  0  0  0  0  0  0  0  0  0  0
  2  1  1  0
  2  3  2  0
  3 10  1  0
  4  3  1  0
  5  4  2  0
  6  7  2  0
  6  5  1  0
  7  2  1  0
  8 13  2  0
  9  8  1  0
 10  9  2  0
 10 11  1  0
 11 12  2  0
 12 13  1  0
 12 14  1  0
 14 19  1  0
 15 16  1  0
 15 14  1  0
 16 17  1  0
 17 18  1  0
 19 18  1  0
 20 21  1  0
 20  5  1  0
 20 22  1  0
 23 20  1  0
  4 24  1  0
  6 25  1  0
  7 26  1  0
  8 27  1  0
  9 28  1  0
 14 29  1  0
 15 30  1  0
 15 31  1  0
 16 32  1  0
 16 33  1  0
 17 34  1  0
 17 35  1  0
 18 36  1  0
 18 37  1  0
 19 38  1  0
 19 39  1  0
M  ISO  8  24  14  25  14  26  14  27  14  28  14  29  13  30  13  31  13
M  ISO  8  32  13  33  13  34  13  35  13  36  13  37  13  38  13  39  13
M  END
>  <minimizedAffinity>  (1) 
-6.36913013

>  <minimizedRMSD>  (1) 
0.402763247

$$$$
