
     RDKit          3D

 26 27  0  0  0  0  0  0  0  0999 V2000
   44.1080   32.5650   42.6920 Cl  0  0  0  0  0  0  0  0  0  0  0  0
   45.5620   33.4820   42.3980 C   0  0  0  0  0  0  0  0  0  0  0  0
   46.3420   33.9340   43.4070 C   0  0  0  0  0  0  0  0  0  0  0  0
   47.4570   34.6440   43.0510 C   0  0  0  0  0  0  0  0  0  0  0  0
   47.8080   34.9060   41.7760 C   0  0  0  0  0  0  0  0  0  0  0  0
   47.0180   34.4470   40.7500 C   0  0  0  0  0  0  0  0  0  0  0  0
   45.8860   33.7300   41.0760 C   0  0  0  0  0  0  0  0  0  0  0  0
   44.7720   34.1550   46.8560 C   0  0  0  0  0  0  0  0  0  0  0  0
   45.1410   34.4570   45.5400 C   0  0  0  0  0  0  0  0  0  0  0  0
   45.9430   33.6380   44.7820 C   0  0  0  0  0  0  0  0  0  0  0  0
   46.3650   32.4870   45.4020 N   0  0  0  0  0  0  0  0  0  0  0  0
   46.0110   32.1960   46.6590 C   0  0  0  0  0  0  0  0  0  0  0  0
   45.2270   33.0120   47.3830 N   0  0  0  0  0  0  0  0  0  0  0  0
   46.5090   30.9270   47.2670 C   0  0  0  0  0  0  0  0  0  0  0  0
   49.0270   35.6800   41.4110 C   0  0  0  0  0  0  0  0  0  0  0  0
   50.1230   34.9490   41.7650 F   0  0  0  0  0  0  0  0  0  0  0  0
   49.0050   36.9410   41.9880 F   0  0  0  0  0  0  0  0  0  0  0  0
   49.0070   35.8480   40.0240 F   0  0  0  0  0  0  0  0  0  0  0  0
   48.1059   35.0238   43.8540 H   0  0  0  0  0  0  0  0  0  0  0  0
   47.2804   34.6454   39.7003 H   0  0  0  0  0  0  0  0  0  0  0  0
   45.2332   33.3510   40.2759 H   0  0  0  0  0  0  0  0  0  0  0  0
   44.1302   34.8337   47.4370 H   0  0  0  0  0  0  0  0  0  0  0  0
   44.7725   35.3918   45.0925 H   0  0  0  0  0  0  0  0  0  0  0  0
   46.4770   31.0085   48.3635 H   0  0  0  0  0  0  0  0  0  0  0  0
   45.8724   30.0906   46.9428 H   0  0  0  0  0  0  0  0  0  0  0  0
   47.5446   30.7468   46.9428 H   0  0  0  0  0  0  0  0  0  0  0  0
  2  1  1  0
  2  3  2  0
  3 10  1  0
  4  3  1  0
  5  4  2  0
  6  7  2  0
  6  5  1  0
  7  2  1  0
  8 13  2  0
  9  8  1  0
 10 11  1  0
 10  9  2  0
 11 12  2  0
 12 14  1  0
 12 13  1  0
 15 16  1  0
 15  5  1  0
 15 17  1  0
 18 15  1  0
  4 19  1  0
  6 20  1  0
  7 21  1  0
  8 22  1  0
  9 23  1  0
 14 24  1  0
 14 25  1  0
 14 26  1  0
M  ISO  8  19  14  20  14  21  14  22  14  23  14  24   8  25   8  26   8
M  END
>  <minimizedAffinity>  (1) 
-5.36149693

>  <minimizedRMSD>  (1) 
0.0155637749

$$$$
