
     RDKit          3D

 24 25  0  0  0  0  0  0  0  0999 V2000
   44.1330   32.4940   42.7250 Cl  0  0  0  0  0  0  0  0  0  0  0  0
   45.5740   33.4250   42.4290 C   0  0  0  0  0  0  0  0  0  0  0  0
   46.3730   33.8660   43.4440 C   0  0  0  0  0  0  0  0  0  0  0  0
   47.4770   34.5870   43.0900 C   0  0  0  0  0  0  0  0  0  0  0  0
   47.7980   34.8690   41.8060 C   0  0  0  0  0  0  0  0  0  0  0  0
   47.0060   34.4320   40.7860 C   0  0  0  0  0  0  0  0  0  0  0  0
   45.8850   33.7030   41.1090 C   0  0  0  0  0  0  0  0  0  0  0  0
   44.8470   34.0340   46.9180 C   0  0  0  0  0  0  0  0  0  0  0  0
   45.1950   34.3810   45.5990 C   0  0  0  0  0  0  0  0  0  0  0  0
   45.9890   33.5390   44.8220 C   0  0  0  0  0  0  0  0  0  0  0  0
   46.4030   32.3790   45.3970 N   0  0  0  0  0  0  0  0  0  0  0  0
   46.0560   32.0700   46.6630 C   0  0  0  0  0  0  0  0  0  0  0  0
   45.2870   32.8880   47.4130 N   0  0  0  0  0  0  0  0  0  0  0  0
   46.6770   30.5100   47.2800 S   0  0  0  0  0  0  0  0  0  0  0  0
   49.0130   35.6610   41.4340 C   0  0  0  0  0  0  0  0  0  0  0  0
   50.1150   34.9530   41.7970 F   0  0  0  0  0  0  0  0  0  0  0  0
   48.9920   36.9200   42.0190 F   0  0  0  0  0  0  0  0  0  0  0  0
   48.9910   35.8420   40.0560 F   0  0  0  0  0  0  0  0  0  0  0  0
   48.1380   34.9568   43.8877 H   0  0  0  0  0  0  0  0  0  0  0  0
   47.2554   34.6552   39.7382 H   0  0  0  0  0  0  0  0  0  0  0  0
   45.2269   33.3360   40.3076 H   0  0  0  0  0  0  0  0  0  0  0  0
   44.2207   34.7031   47.5264 H   0  0  0  0  0  0  0  0  0  0  0  0
   44.8352   35.3302   45.1753 H   0  0  0  0  0  0  0  0  0  0  0  0
   46.6708   30.5257   48.6499 H   0  0  0  0  0  0  0  0  0  0  0  0
  2  1  1  0
  2  3  2  0
  3 10  1  0
  4  3  1  0
  5  4  2  0
  6  7  2  0
  6  5  1  0
  7  2  1  0
  8 13  2  0
  9  8  1  0
 10 11  1  0
 10  9  2  0
 11 12  2  0
 12 14  1  0
 12 13  1  0
 15 16  1  0
 15  5  1  0
 15 17  1  0
 18 15  1  0
  4 19  1  0
  6 20  1  0
  7 21  1  0
  8 22  1  0
  9 23  1  0
 14 24  1  0
M  ISO  6  19  14  20  14  21  14  22  14  23  14  24  11
M  END
>  <minimizedAffinity>  (1) 
-5.35535383

>  <minimizedRMSD>  (1) 
0.0896063447

$$$$
