
     RDKit          3D

 24 25  0  0  0  0  0  0  0  0999 V2000
   44.0980   32.5520   42.6900 Cl  0  0  0  0  0  0  0  0  0  0  0  0
   45.5520   33.4740   42.3950 C   0  0  0  0  0  0  0  0  0  0  0  0
   46.3350   33.9300   43.4100 C   0  0  0  0  0  0  0  0  0  0  0  0
   47.4520   34.6430   43.0530 C   0  0  0  0  0  0  0  0  0  0  0  0
   47.7850   34.8940   41.7720 C   0  0  0  0  0  0  0  0  0  0  0  0
   47.0040   34.4380   40.7510 C   0  0  0  0  0  0  0  0  0  0  0  0
   45.8790   33.7220   41.0770 C   0  0  0  0  0  0  0  0  0  0  0  0
   44.7690   34.1630   46.8530 C   0  0  0  0  0  0  0  0  0  0  0  0
   45.1360   34.4730   45.5400 C   0  0  0  0  0  0  0  0  0  0  0  0
   45.9330   33.6340   44.7830 C   0  0  0  0  0  0  0  0  0  0  0  0
   46.3270   32.4990   45.4060 N   0  0  0  0  0  0  0  0  0  0  0  0
   45.9860   32.1850   46.6610 C   0  0  0  0  0  0  0  0  0  0  0  0
   45.2070   33.0190   47.3810 N   0  0  0  0  0  0  0  0  0  0  0  0
   46.5220   30.9600   47.0670 O   0  0  0  0  0  0  0  0  0  0  0  0
   49.0130   35.6760   41.3990 C   0  0  0  0  0  0  0  0  0  0  0  0
   50.1060   34.9380   41.7600 F   0  0  0  0  0  0  0  0  0  0  0  0
   49.0110   36.9200   41.9890 F   0  0  0  0  0  0  0  0  0  0  0  0
   49.0000   35.8450   40.0240 F   0  0  0  0  0  0  0  0  0  0  0  0
   48.1057   35.0274   43.8498 H   0  0  0  0  0  0  0  0  0  0  0  0
   47.2668   34.6373   39.7016 H   0  0  0  0  0  0  0  0  0  0  0  0
   45.2286   33.3403   40.2762 H   0  0  0  0  0  0  0  0  0  0  0  0
   44.1343   34.8461   47.4366 H   0  0  0  0  0  0  0  0  0  0  0  0
   44.7796   35.4138   45.0952 H   0  0  0  0  0  0  0  0  0  0  0  0
   46.3402   30.6177   47.9780 H   0  0  0  0  0  0  0  0  0  0  0  0
  2  1  1  0
  2  3  2  0
  3 10  1  0
  4  3  1  0
  5  4  2  0
  6  7  2  0
  6  5  1  0
  7  2  1  0
  8 13  2  0
  9  8  1  0
 10 11  1  0
 10  9  2  0
 11 12  2  0
 12 14  1  0
 12 13  1  0
 15 16  1  0
 15  5  1  0
 15 17  1  0
 18 15  1  0
  4 19  1  0
  6 20  1  0
  7 21  1  0
  8 22  1  0
  9 23  1  0
 14 24  1  0
M  ISO  6  19  14  20  14  21  14  22  14  23  14  24   3
M  END
>  <minimizedAffinity>  (1) 
-5.35226536

>  <minimizedRMSD>  (1) 
0.0112977419

$$$$
