
     RDKit          3D

 35 37  0  0  1  0  0  0  0  0999 V2000
   45.3160   36.0550   43.3110 C   0  0  0  0  0  0  0  0  0  0  0  0
   46.1200   34.8870   43.2320 C   0  0  0  0  0  0  0  0  0  0  0  0
   46.1450   33.9660   44.2680 C   0  0  0  0  0  0  0  0  0  0  0  0
   45.3750   34.2310   45.3540 N   0  0  0  0  0  0  0  0  0  0  0  0
   44.5970   35.3590   45.4330 C   0  0  0  0  0  0  0  0  0  0  0  0
   44.5660   36.2620   44.4240 N   0  0  0  0  0  0  0  0  0  0  0  0
   46.9060   34.7850   42.0680 N   0  0  0  0  0  0  0  0  0  0  0  0
   48.2220   35.3020   42.0250 C   0  0  0  0  0  0  0  0  0  0  0  0
   48.7170   35.4050   40.6070 C   0  0  0  0  0  0  0  0  0  0  0  0
   48.5940   34.1930   39.9040 N   0  0  0  0  0  0  0  0  0  0  0  0
   47.3760   33.5050   40.0470 C   0  0  0  0  0  0  0  0  0  0  0  0
   46.3920   34.2070   40.8510 C   0  0  0  0  0  0  0  0  0  0  0  0
   45.1010   31.4580   42.9590 O   0  0  0  0  0  0  0  0  0  0  0  0
   46.1190   31.5710   43.6960 C   0  0  0  0  0  0  0  0  0  0  0  0
   46.8800   32.7150   44.2830 C   0  0  2  0  0  0  0  0  0  0  0  0
   46.8590   32.1580   45.7450 C   0  0  0  0  0  0  0  0  0  0  0  0
   47.4260   30.7720   45.4570 C   0  0  0  0  0  0  0  0  0  0  0  0
   46.8220   30.4260   44.1620 N   0  0  0  0  0  0  0  0  0  0  0  0
   45.3010   36.7802   42.4841 H   0  0  0  0  0  0  0  0  0  0  0  0
   43.9876   35.5328   46.3321 H   0  0  0  0  0  0  0  0  0  0  0  0
   48.2302   36.3025   42.4821 H   0  0  0  0  0  0  0  0  0  0  0  0
   48.8841   34.6194   42.5778 H   0  0  0  0  0  0  0  0  0  0  0  0
   48.1326   36.1767   40.0846 H   0  0  0  0  0  0  0  0  0  0  0  0
   49.7857   35.6628   40.6440 H   0  0  0  0  0  0  0  0  0  0  0  0
   49.3464   33.5672   40.2253 H   0  0  0  0  0  0  0  0  0  0  0  0
   46.9514   33.3416   39.0455 H   0  0  0  0  0  0  0  0  0  0  0  0
   47.6016   32.5640   40.5702 H   0  0  0  0  0  0  0  0  0  0  0  0
   45.9665   35.0171   40.2406 H   0  0  0  0  0  0  0  0  0  0  0  0
   45.6482   33.4559   41.1552 H   0  0  0  0  0  0  0  0  0  0  0  0
   47.8339   32.9555   43.7907 H   0  0  0  0  0  0  0  0  0  0  0  0
   47.5038   32.7390   46.4208 H   0  0  0  0  0  0  0  0  0  0  0  0
   45.8849   32.1828   46.2553 H   0  0  0  0  0  0  0  0  0  0  0  0
   48.5233   30.8015   45.3855 H   0  0  0  0  0  0  0  0  0  0  0  0
   47.2016   30.0407   46.2475 H   0  0  0  0  0  0  0  0  0  0  0  0
   46.8948   29.5188   43.6797 H   0  0  0  0  0  0  0  0  0  0  0  0
  1  6  2  0
  2  1  1  0
  2  3  2  0
  3  4  1  0
  4  5  2  0
  6  5  1  0
  7  2  1  0
  8  7  1  0
  9  8  1  0
 10 11  1  0
 10  9  1  0
 11 12  1  0
 12  7  1  0
 13 14  2  0
 14 18  1  0
 14 15  1  0
 15  3  1  0
 15 16  1  0
 17 16  1  0
 18 17  1  0
  1 19  1  0
  5 20  1  0
  8 21  1  0
  8 22  1  0
  9 23  1  0
  9 24  1  0
 10 25  1  0
 11 26  1  0
 11 27  1  0
 12 28  1  0
 12 29  1  0
 15 30  1  6
 16 31  1  0
 16 32  1  0
 17 33  1  0
 17 34  1  0
 18 35  1  0
M  ISO  8  19  14  20  14  21  13  22  13  23  13  24  13  25   5  26  13
M  ISO  8  27  13  28  13  29  13  30  13  31  13  32  13  33  13  34  13
M  ISO  1  35  10
M  END
>  <minimizedAffinity>  (1) 
-4.92890072

>  <minimizedRMSD>  (1) 
3.34609437

$$$$
