
     RDKit          3D

 30 31  0  0  0  0  0  0  0  0999 V2000
   46.9230   34.7990   42.0310 N   0  0  0  0  0  0  0  0  0  0  0  0
   48.2260   35.3540   41.9840 C   0  0  0  0  0  0  0  0  0  0  0  0
   48.7350   35.4260   40.5690 C   0  0  0  0  0  0  0  0  0  0  0  0
   48.6270   34.2000   39.8890 N   0  0  0  0  0  0  0  0  0  0  0  0
   47.4310   33.4770   40.0560 C   0  0  0  0  0  0  0  0  0  0  0  0
   46.4190   34.2050   40.8150 C   0  0  0  0  0  0  0  0  0  0  0  0
   45.2890   36.0100   43.2880 C   0  0  0  0  0  0  0  0  0  0  0  0
   46.1470   34.8800   43.2070 C   0  0  0  0  0  0  0  0  0  0  0  0
   46.2170   33.9820   44.2540 C   0  0  0  0  0  0  0  0  0  0  0  0
   45.4560   34.2010   45.3590 N   0  0  0  0  0  0  0  0  0  0  0  0
   44.6300   35.2920   45.4380 C   0  0  0  0  0  0  0  0  0  0  0  0
   44.5540   36.1740   44.4180 N   0  0  0  0  0  0  0  0  0  0  0  0
   47.0210   32.7620   44.2380 C   0  0  0  0  0  0  0  0  0  0  0  0
   46.9410   32.0760   45.6370 C   0  0  0  0  0  0  0  0  0  0  0  0
   48.1996   36.3686   42.4081 H   0  0  0  0  0  0  0  0  0  0  0  0
   48.9012   34.7088   42.5652 H   0  0  0  0  0  0  0  0  0  0  0  0
   48.1522   36.1830   40.0238 H   0  0  0  0  0  0  0  0  0  0  0  0
   49.8025   35.6876   40.6135 H   0  0  0  0  0  0  0  0  0  0  0  0
   49.4000   33.5989   40.2085 H   0  0  0  0  0  0  0  0  0  0  0  0
   47.0218   33.2441   39.0619 H   0  0  0  0  0  0  0  0  0  0  0  0
   47.6757   32.5685   40.6259 H   0  0  0  0  0  0  0  0  0  0  0  0
   46.0162   35.0061   40.1779 H   0  0  0  0  0  0  0  0  0  0  0  0
   45.6494   33.4756   41.1078 H   0  0  0  0  0  0  0  0  0  0  0  0
   45.2222   36.7307   42.4596 H   0  0  0  0  0  0  0  0  0  0  0  0
   44.0228   35.4508   46.3414 H   0  0  0  0  0  0  0  0  0  0  0  0
   46.6341   32.0766   43.4696 H   0  0  0  0  0  0  0  0  0  0  0  0
   48.0673   33.0121   44.0085 H   0  0  0  0  0  0  0  0  0  0  0  0
   47.0299   32.8385   46.4249 H   0  0  0  0  0  0  0  0  0  0  0  0
   45.9762   31.5570   45.7362 H   0  0  0  0  0  0  0  0  0  0  0  0
   47.7604   31.3489   45.7362 H   0  0  0  0  0  0  0  0  0  0  0  0
  1  8  1  0
  2  1  1  0
  3  2  1  0
  4  5  1  0
  4  3  1  0
  5  6  1  0
  6  1  1  0
  7 12  2  0
  8  7  1  0
  8  9  2  0
  9 10  1  0
 10 11  2  0
 12 11  1  0
 13  9  1  0
 13 14  1  0
  2 15  1  0
  2 16  1  0
  3 17  1  0
  3 18  1  0
  4 19  1  0
  5 20  1  0
  5 21  1  0
  6 22  1  0
  6 23  1  0
  7 24  1  0
 11 25  1  0
 13 26  1  0
 13 27  1  0
 14 28  1  0
 14 29  1  0
 14 30  1  0
M  ISO  8  15  13  16  13  17  13  18  13  19   5  20  13  21  13  22  13
M  ISO  8  23  13  24  14  25  14  26   8  27   8  28   8  29   8  30   8
M  END
>  <minimizedAffinity>  (1) 
-4.47688007

>  <minimizedRMSD>  (1) 
3.38467288

$$$$
