
     RDKit          3D

 33 35  0  0  0  0  0  0  0  0999 V2000
   45.0860   34.0660   45.1070 C   0  0  0  0  0  0  0  0  0  0  0  0
   45.8740   33.7720   44.0050 C   0  0  0  0  0  0  0  0  0  0  0  0
   47.0300   33.0630   44.1870 C   0  0  0  0  0  0  0  0  0  0  0  0
   47.3620   32.6760   45.4640 N   0  0  0  0  0  0  0  0  0  0  0  0
   46.5760   32.9760   46.5140 C   0  0  0  0  0  0  0  0  0  0  0  0
   45.4580   33.6600   46.3400 N   0  0  0  0  0  0  0  0  0  0  0  0
   45.4490   34.2230   42.7350 N   0  0  0  0  0  0  0  0  0  0  0  0
   45.2390   33.3310   41.6510 C   0  0  0  0  0  0  0  0  0  0  0  0
   44.9780   34.0860   40.3450 C   0  0  0  0  0  0  0  0  0  0  0  0
   43.9100   34.9960   40.5190 N   0  0  0  0  0  0  0  0  0  0  0  0
   43.8510   35.7550   41.6950 C   0  0  0  0  0  0  0  0  0  0  0  0
   45.1840   35.6320   42.4350 C   0  0  0  0  0  0  0  0  0  0  0  0
   48.0370   32.6420   43.2570 C   0  0  0  0  0  0  0  0  0  0  0  0
   48.9260   33.7040   42.9490 C   0  0  0  0  0  0  0  0  0  0  0  0
   50.0580   33.6600   42.1210 C   0  0  0  0  0  0  0  0  0  0  0  0
   50.3170   32.4480   41.5590 C   0  0  0  0  0  0  0  0  0  0  0  0
   49.4550   31.4350   41.8650 C   0  0  0  0  0  0  0  0  0  0  0  0
   48.3910   31.5010   42.6500 N   0  0  0  0  0  0  0  0  0  0  0  0
   44.1526   34.6331   44.9763 H   0  0  0  0  0  0  0  0  0  0  0  0
   46.8655   32.6500   47.5239 H   0  0  0  0  0  0  0  0  0  0  0  0
   46.1329   32.7019   41.5276 H   0  0  0  0  0  0  0  0  0  0  0  0
   44.3552   32.7161   41.8765 H   0  0  0  0  0  0  0  0  0  0  0  0
   44.7190   33.3670   39.5538 H   0  0  0  0  0  0  0  0  0  0  0  0
   45.8839   34.6417   40.0613 H   0  0  0  0  0  0  0  0  0  0  0  0
   43.9477   35.6600   39.7325 H   0  0  0  0  0  0  0  0  0  0  0  0
   43.6645   36.8097   41.4442 H   0  0  0  0  0  0  0  0  0  0  0  0
   43.0356   35.3862   42.3346 H   0  0  0  0  0  0  0  0  0  0  0  0
   45.9918   36.0304   41.8036 H   0  0  0  0  0  0  0  0  0  0  0  0
   45.1358   36.2035   43.3737 H   0  0  0  0  0  0  0  0  0  0  0  0
   48.7016   34.6755   43.4136 H   0  0  0  0  0  0  0  0  0  0  0  0
   50.6904   34.5415   41.9393 H   0  0  0  0  0  0  0  0  0  0  0  0
   51.1776   32.2926   40.8918 H   0  0  0  0  0  0  0  0  0  0  0  0
   49.6676   30.4566   41.4095 H   0  0  0  0  0  0  0  0  0  0  0  0
  1  6  2  0
  2  3  2  0
  2  1  1  0
  3  4  1  0
  4  5  2  0
  6  5  1  0
  7  2  1  0
  8  7  1  0
  9 10  1  0
  9  8  1  0
 10 11  1  0
 11 12  1  0
 12  7  1  0
 13  3  1  0
 14 13  2  0
 15 14  1  0
 16 17  1  0
 16 15  2  0
 17 18  2  0
 18 13  1  0
  1 19  1  0
  5 20  1  0
  8 21  1  0
  8 22  1  0
  9 23  1  0
  9 24  1  0
 10 25  1  0
 11 26  1  0
 11 27  1  0
 12 28  1  0
 12 29  1  0
 14 30  1  0
 15 31  1  0
 16 32  1  0
 17 33  1  0
M  ISO  8  19  14  20  14  21  13  22  13  23  13  24  13  25   5  26  13
M  ISO  7  27  13  28  13  29  13  30  14  31  14  32  14  33  14
M  END
>  <minimizedAffinity>  (1) 
-4.12298775

>  <minimizedRMSD>  (1) 
2.57999802

$$$$
