
     RDKit          3D

 26 27  0  0  0  0  0  0  0  0999 V2000
   44.2430   34.4290   41.9860 N   0  0  0  0  0  0  0  0  0  0  0  0
   44.3220   33.3810   41.0220 C   0  0  0  0  0  0  0  0  0  0  0  0
   43.7700   33.7430   39.6680 C   0  0  0  0  0  0  0  0  0  0  0  0
   42.5440   34.4500   39.7190 N   0  0  0  0  0  0  0  0  0  0  0  0
   42.3410   35.3610   40.7770 C   0  0  0  0  0  0  0  0  0  0  0  0
   43.6570   35.6410   41.4910 C   0  0  0  0  0  0  0  0  0  0  0  0
   44.4960   35.1980   44.2490 C   0  0  0  0  0  0  0  0  0  0  0  0
   44.7180   34.2020   43.3060 C   0  0  0  0  0  0  0  0  0  0  0  0
   45.3630   33.0590   43.7150 C   0  0  0  0  0  0  0  0  0  0  0  0
   45.7540   32.9380   45.0020 N   0  0  0  0  0  0  0  0  0  0  0  0
   45.5270   33.9160   45.8970 C   0  0  0  0  0  0  0  0  0  0  0  0
   44.9090   35.0190   45.5140 N   0  0  0  0  0  0  0  0  0  0  0  0
   45.6490   32.0010   42.8770 N   0  0  0  0  0  0  0  0  0  0  0  0
   45.3795   33.1036   40.9002 H   0  0  0  0  0  0  0  0  0  0  0  0
   43.7050   32.5541   41.4035 H   0  0  0  0  0  0  0  0  0  0  0  0
   43.6114   32.8150   39.0991 H   0  0  0  0  0  0  0  0  0  0  0  0
   44.5038   34.4098   39.1916 H   0  0  0  0  0  0  0  0  0  0  0  0
   42.4609   34.9802   38.8398 H   0  0  0  0  0  0  0  0  0  0  0  0
   41.9391   36.3022   40.3738 H   0  0  0  0  0  0  0  0  0  0  0  0
   41.6297   34.9251   41.4940 H   0  0  0  0  0  0  0  0  0  0  0  0
   44.3548   36.1156   40.7855 H   0  0  0  0  0  0  0  0  0  0  0  0
   43.4576   36.3067   42.3437 H   0  0  0  0  0  0  0  0  0  0  0  0
   43.9846   36.1283   43.9607 H   0  0  0  0  0  0  0  0  0  0  0  0
   45.8537   33.7982   46.9407 H   0  0  0  0  0  0  0  0  0  0  0  0
   46.1354   31.1705   43.2437 H   0  0  0  0  0  0  0  0  0  0  0  0
   45.3761   32.0417   41.8847 H   0  0  0  0  0  0  0  0  0  0  0  0
  1  8  1  0
  2  1  1  0
  3  4  1  0
  3  2  1  0
  4  5  1  0
  5  6  1  0
  6  1  1  0
  7 12  2  0
  8  9  2  0
  8  7  1  0
  9 10  1  0
 10 11  2  0
 12 11  1  0
 13  9  1  0
  2 14  1  0
  2 15  1  0
  3 16  1  0
  3 17  1  0
  4 18  1  0
  5 19  1  0
  5 20  1  0
  6 21  1  0
  6 22  1  0
  7 23  1  0
 11 24  1  0
 13 25  1  0
 13 26  1  0
M  ISO  8  14  13  15  13  16  13  17  13  18   5  19  13  20  13  21  13
M  ISO  3  22  13  23  14  24  14
M  END
>  <minimizedAffinity>  (1) 
-3.41217947

>  <minimizedRMSD>  (1) 
0.109442547

$$$$
