
     RDKit          3D

 25 26  0  0  0  0  0  0  0  0999 V2000
   44.2490   34.4170   41.9850 N   0  0  0  0  0  0  0  0  0  0  0  0
   44.3610   33.3610   41.0220 C   0  0  0  0  0  0  0  0  0  0  0  0
   43.8590   33.7220   39.6670 C   0  0  0  0  0  0  0  0  0  0  0  0
   42.6340   34.4160   39.6540 N   0  0  0  0  0  0  0  0  0  0  0  0
   42.3940   35.3370   40.6840 C   0  0  0  0  0  0  0  0  0  0  0  0
   43.6630   35.6220   41.4720 C   0  0  0  0  0  0  0  0  0  0  0  0
   44.4800   35.1820   44.2300 C   0  0  0  0  0  0  0  0  0  0  0  0
   44.7120   34.1790   43.2960 C   0  0  0  0  0  0  0  0  0  0  0  0
   45.3740   33.0480   43.7370 C   0  0  0  0  0  0  0  0  0  0  0  0
   45.7650   32.9500   45.0300 N   0  0  0  0  0  0  0  0  0  0  0  0
   45.5260   33.9390   45.9120 C   0  0  0  0  0  0  0  0  0  0  0  0
   44.8840   35.0520   45.5130 N   0  0  0  0  0  0  0  0  0  0  0  0
   45.6150   32.0470   42.8420 O   0  0  0  0  0  0  0  0  0  0  0  0
   45.4217   33.0828   40.9353 H   0  0  0  0  0  0  0  0  0  0  0  0
   43.7344   32.5324   41.3836 H   0  0  0  0  0  0  0  0  0  0  0  0
   44.6154   34.3548   39.1798 H   0  0  0  0  0  0  0  0  0  0  0  0
   43.6812   32.7725   39.1409 H   0  0  0  0  0  0  0  0  0  0  0  0
   42.5817   34.9306   38.7633 H   0  0  0  0  0  0  0  0  0  0  0  0
   42.0243   36.2763   40.2468 H   0  0  0  0  0  0  0  0  0  0  0  0
   41.6473   34.9081   41.3685 H   0  0  0  0  0  0  0  0  0  0  0  0
   44.3890   36.1188   40.8117 H   0  0  0  0  0  0  0  0  0  0  0  0
   43.4010   36.2665   42.3240 H   0  0  0  0  0  0  0  0  0  0  0  0
   43.9577   36.0988   43.9189 H   0  0  0  0  0  0  0  0  0  0  0  0
   45.8550   33.8371   46.9567 H   0  0  0  0  0  0  0  0  0  0  0  0
   46.0872   31.2267   43.1321 H   0  0  0  0  0  0  0  0  0  0  0  0
  1  8  1  0
  2  1  1  0
  3  2  1  0
  4  3  1  0
  4  5  1  0
  5  6  1  0
  6  1  1  0
  7 12  2  0
  8  9  2  0
  8  7  1  0
  9 10  1  0
 10 11  2  0
 12 11  1  0
 13  9  1  0
  2 14  1  0
  2 15  1  0
  3 16  1  0
  3 17  1  0
  4 18  1  0
  5 19  1  0
  5 20  1  0
  6 21  1  0
  6 22  1  0
  7 23  1  0
 11 24  1  0
 13 25  1  0
M  ISO  8  14  13  15  13  16  13  17  13  18   5  19  13  20  13  21  13
M  ISO  4  22  13  23  14  24  14  25   3
M  END
>  <minimizedAffinity>  (1) 
-3.37248421

>  <minimizedRMSD>  (1) 
0.137286305

$$$$
