
     RDKit          3D

 50 55  0  0  1  0  0  0  0  0999 V2000
   46.8030   32.8990   46.8030 C   0  0  0  0  0  0  0  0  0  0  0  0
   46.6770   32.6670   45.4170 C   0  0  0  0  0  0  0  0  0  0  0  0
   47.1250   31.4000   45.0890 C   0  0  0  0  0  0  0  0  0  0  0  0
   47.6300   30.4750   45.9560 C   0  0  0  0  0  0  0  0  0  0  0  0
   47.7220   30.7920   47.2980 C   0  0  0  0  0  0  0  0  0  0  0  0
   47.3030   32.0150   47.7360 C   0  0  0  0  0  0  0  0  0  0  0  0
   48.2720   29.6710   47.8880 O   0  0  0  0  0  0  0  0  0  0  0  0
   48.4250   28.6410   46.9390 C   0  0  2  0  0  0  0  0  0  0  0  0
   48.0830   29.1990   45.6710 O   0  0  0  0  0  0  0  0  0  0  0  0
   47.4300   27.6250   47.3180 N   0  0  0  0  0  0  0  0  0  0  0  0
   46.1330   27.5940   46.9970 C   0  0  0  0  0  0  0  0  0  0  0  0
   45.5890   26.4780   47.5580 N   0  0  0  0  0  0  0  0  0  0  0  0
   46.5500   25.8290   48.2200 C   0  0  0  0  0  0  0  0  0  0  0  0
   46.5850   24.6660   48.9630 C   0  0  0  0  0  0  0  0  0  0  0  0
   47.7480   24.2810   49.5120 N   0  0  0  0  0  0  0  0  0  0  0  0
   48.8920   24.9650   49.3810 C   0  0  0  0  0  0  0  0  0  0  0  0
   48.8470   26.0990   48.6540 N   0  0  0  0  0  0  0  0  0  0  0  0
   47.7190   26.5470   48.0740 C   0  0  0  0  0  0  0  0  0  0  0  0
   45.3970   23.8900   49.1410 N   0  0  0  0  0  0  0  0  0  0  0  0
   45.8690   35.4710   43.0830 C   0  0  0  0  0  0  0  0  0  0  0  0
   46.5550   34.3420   43.5060 C   0  0  0  0  0  0  0  0  0  0  0  0
   46.1980   33.7860   44.7090 C   0  0  0  0  0  0  0  0  0  0  0  0
   45.1890   34.3670   45.4330 N   0  0  0  0  0  0  0  0  0  0  0  0
   44.5440   35.4620   44.9920 C   0  0  0  0  0  0  0  0  0  0  0  0
   44.8820   36.0020   43.8340 N   0  0  0  0  0  0  0  0  0  0  0  0
   47.5730   33.8460   42.6960 N   0  0  0  0  0  0  0  0  0  0  0  0
   48.9270   34.2130   42.8540 C   0  0  0  0  0  0  0  0  0  0  0  0
   49.9000   33.4460   41.9870 C   0  0  0  0  0  0  0  0  0  0  0  0
   49.6390   32.0860   41.8270 N   0  0  0  0  0  0  0  0  0  0  0  0
   48.2960   31.7230   41.6700 C   0  0  0  0  0  0  0  0  0  0  0  0
   47.3830   32.9310   41.6230 C   0  0  0  0  0  0  0  0  0  0  0  0
   46.4704   33.8792   47.1752 H   0  0  0  0  0  0  0  0  0  0  0  0
   47.0689   31.1108   44.0292 H   0  0  0  0  0  0  0  0  0  0  0  0
   47.3623   32.2871   48.8002 H   0  0  0  0  0  0  0  0  0  0  0  0
   49.4379   28.2141   46.8970 H   0  0  0  0  0  0  0  0  0  0  0  0
   45.5991   28.3380   46.3876 H   0  0  0  0  0  0  0  0  0  0  0  0
   49.8262   24.6169   49.8458 H   0  0  0  0  0  0  0  0  0  0  0  0
   45.4267   23.0228   49.6960 H   0  0  0  0  0  0  0  0  0  0  0  0
   44.5117   24.1983   48.7142 H   0  0  0  0  0  0  0  0  0  0  0  0
   46.1330   35.9392   42.1233 H   0  0  0  0  0  0  0  0  0  0  0  0
   43.7375   35.9067   45.5935 H   0  0  0  0  0  0  0  0  0  0  0  0
   49.0219   35.2816   42.6111 H   0  0  0  0  0  0  0  0  0  0  0  0
   49.1907   33.9781   43.8958 H   0  0  0  0  0  0  0  0  0  0  0  0
   49.8973   33.9084   40.9889 H   0  0  0  0  0  0  0  0  0  0  0  0
   50.8672   33.5018   42.5080 H   0  0  0  0  0  0  0  0  0  0  0  0
   50.1497   31.7652   40.9920 H   0  0  0  0  0  0  0  0  0  0  0  0
   48.1879   31.1595   40.7315 H   0  0  0  0  0  0  0  0  0  0  0  0
   48.0059   31.1116   42.5372 H   0  0  0  0  0  0  0  0  0  0  0  0
   47.5644   33.4643   40.6782 H   0  0  0  0  0  0  0  0  0  0  0  0
   46.3533   32.5533   41.7073 H   0  0  0  0  0  0  0  0  0  0  0  0
  1  6  2  0
  2  1  1  0
  3  2  2  0
  3  4  1  0
  4  5  2  0
  5  6  1  0
  5  7  1  0
  8 10  1  0
  8  7  1  0
  9  4  1  0
  9  8  1  0
 10 18  1  0
 11 10  1  0
 11 12  2  0
 12 13  1  0
 13 14  2  0
 14 19  1  0
 14 15  1  0
 16 15  2  0
 17 16  1  0
 18 13  1  0
 18 17  2  0
 20 21  2  0
 20 25  1  0
 21 22  1  0
 22  2  1  0
 22 23  2  0
 24 23  1  0
 25 24  2  0
 26 27  1  0
 26 21  1  0
 28 27  1  0
 29 28  1  0
 30 29  1  0
 31 30  1  0
 31 26  1  0
  1 32  1  0
  3 33  1  0
  6 34  1  0
  8 35  1  6
 11 36  1  0
 16 37  1  0
 19 38  1  0
 19 39  1  0
 20 40  1  0
 24 41  1  0
 27 42  1  0
 27 43  1  0
 28 44  1  0
 28 45  1  0
 29 46  1  0
 30 47  1  0
 30 48  1  0
 31 49  1  0
 31 50  1  0
M  ISO  8  32  14  33  14  34  14  35  13  36  14  37  14  40  14  41  14
M  ISO  8  42  13  43  13  44  13  45  13  46   5  47  13  48  13  49  13
M  ISO  1  50  13
M  END
>  <minimizedAffinity>  (1) 
-6.57980108

>  <minimizedRMSD>  (1) 
3.80553102

$$$$
