
     RDKit          3D

 28 30  0  0  0  0  0  0  0  0999 V2000
   44.9520   33.0470   41.1310 Cl  0  0  0  0  0  0  0  0  0  0  0  0
   46.4440   33.9360   40.9180 C   0  0  0  0  0  0  0  0  0  0  0  0
   46.9020   34.7470   41.9240 C   0  0  0  0  0  0  0  0  0  0  0  0
   48.0950   35.4790   41.7960 C   0  0  0  0  0  0  0  0  0  0  0  0
   48.7680   35.3310   40.6070 C   0  0  0  0  0  0  0  0  0  0  0  0
   48.3080   34.5210   39.6070 C   0  0  0  0  0  0  0  0  0  0  0  0
   47.1550   33.8220   39.7450 C   0  0  0  0  0  0  0  0  0  0  0  0
   45.6090   34.0520   45.3020 C   0  0  0  0  0  0  0  0  0  0  0  0
   44.7020   35.0930   45.5080 C   0  0  0  0  0  0  0  0  0  0  0  0
   44.5450   36.0210   44.4840 C   0  0  0  0  0  0  0  0  0  0  0  0
   45.2680   35.8780   43.3470 N   0  0  0  0  0  0  0  0  0  0  0  0
   46.1380   34.8640   43.1730 C   0  0  0  0  0  0  0  0  0  0  0  0
   46.3120   33.9420   44.1570 N   0  0  0  0  0  0  0  0  0  0  0  0
   46.6130   32.9420   38.7160 C   0  0  0  0  0  0  0  0  0  0  0  0
   46.9240   31.6100   38.5930 C   0  0  0  0  0  0  0  0  0  0  0  0
   46.4060   30.8070   37.6240 C   0  0  0  0  0  0  0  0  0  0  0  0
   45.5420   31.2900   36.7140 N   0  0  0  0  0  0  0  0  0  0  0  0
   45.2180   32.6120   36.8150 C   0  0  0  0  0  0  0  0  0  0  0  0
   45.7350   33.3800   37.7700 N   0  0  0  0  0  0  0  0  0  0  0  0
   48.4677   36.1313   42.5995 H   0  0  0  0  0  0  0  0  0  0  0  0
   49.7076   35.8825   40.4552 H   0  0  0  0  0  0  0  0  0  0  0  0
   48.8837   34.4348   38.6736 H   0  0  0  0  0  0  0  0  0  0  0  0
   45.7537   33.3025   46.0940 H   0  0  0  0  0  0  0  0  0  0  0  0
   44.1326   35.1762   46.4455 H   0  0  0  0  0  0  0  0  0  0  0  0
   43.8428   36.8603   44.5957 H   0  0  0  0  0  0  0  0  0  0  0  0
   47.6278   31.1696   39.3146 H   0  0  0  0  0  0  0  0  0  0  0  0
   46.6984   29.7473   37.5847 H   0  0  0  0  0  0  0  0  0  0  0  0
   44.5150   33.0512   36.0919 H   0  0  0  0  0  0  0  0  0  0  0  0
  2  1  1  0
  2  3  2  0
  3 12  1  0
  4  3  1  0
  5  4  2  0
  6  7  2  0
  6  5  1  0
  7  2  1  0
  8  9  2  0
 10  9  1  0
 11 10  2  0
 12 11  1  0
 12 13  2  0
 13  8  1  0
 14  7  1  0
 15 14  2  0
 16 15  1  0
 17 18  1  0
 17 16  2  0
 18 19  2  0
 19 14  1  0
  4 20  1  0
  5 21  1  0
  6 22  1  0
  8 23  1  0
  9 24  1  0
 10 25  1  0
 15 26  1  0
 16 27  1  0
 18 28  1  0
M  ISO  8  20  14  21  14  22  14  23  14  24  14  25  14  26  14  27  14
M  ISO  1  28  14
M  END
>  <minimizedAffinity>  (1) 
-5.39834499

>  <minimizedRMSD>  (1) 
0.687511027

$$$$
