
     RDKit          3D

 38 41  0  0  1  0  0  0  0  0999 V2000
   45.1320   36.0100   43.4900 C   0  0  0  0  0  0  0  0  0  0  0  0
   45.9220   34.8930   43.2530 C   0  0  0  0  0  0  0  0  0  0  0  0
   46.0420   33.9600   44.2470 C   0  0  0  0  0  0  0  0  0  0  0  0
   45.3840   34.1670   45.4290 N   0  0  0  0  0  0  0  0  0  0  0  0
   44.6220   35.2590   45.6390 C   0  0  0  0  0  0  0  0  0  0  0  0
   44.5040   36.1580   44.6820 N   0  0  0  0  0  0  0  0  0  0  0  0
   46.5680   34.7990   42.0220 N   0  0  0  0  0  0  0  0  0  0  0  0
   47.8850   35.2590   41.8020 C   0  0  0  0  0  0  0  0  0  0  0  0
   48.4480   34.9320   40.4440 C   0  0  0  0  0  0  0  0  0  0  0  0
   48.1650   33.6460   39.9720 N   0  0  0  0  0  0  0  0  0  0  0  0
   46.8620   33.2050   40.1620 C   0  0  0  0  0  0  0  0  0  0  0  0
   45.9910   34.2400   40.8460 C   0  0  0  0  0  0  0  0  0  0  0  0
   46.4640   32.0140   45.5110 C   0  0  0  0  0  0  0  0  0  0  0  0
   46.7430   32.7440   44.3300 C   0  0  0  0  0  0  0  0  0  0  0  0
   47.6990   32.0930   43.5690 C   0  0  0  0  0  0  0  0  0  0  0  0
   48.3120   30.9130   43.8820 C   0  0  0  0  0  0  0  0  0  0  0  0
   47.9790   30.2700   45.0590 C   0  0  0  0  0  0  0  0  0  0  0  0
   47.0440   30.8220   45.8890 C   0  0  0  0  0  0  0  0  0  0  0  0
   48.7660   29.1310   45.0770 O   0  0  0  0  0  0  0  0  0  0  0  0
   49.5450   29.0540   43.9070 C   0  0  2  0  0  0  0  0  0  0  0  0
   49.2680   30.2320   43.1530 O   0  0  0  0  0  0  0  0  0  0  0  0
   49.0860   27.9560   43.1490 O   0  0  0  0  0  0  0  0  0  0  0  0
   45.0156   36.7760   42.7092 H   0  0  0  0  0  0  0  0  0  0  0  0
   44.1039   35.3986   46.5992 H   0  0  0  0  0  0  0  0  0  0  0  0
   47.8901   36.3526   41.9206 H   0  0  0  0  0  0  0  0  0  0  0  0
   48.5212   34.7408   42.5347 H   0  0  0  0  0  0  0  0  0  0  0  0
   48.0391   35.6557   39.7236 H   0  0  0  0  0  0  0  0  0  0  0  0
   49.5418   34.9831   40.5486 H   0  0  0  0  0  0  0  0  0  0  0  0
   48.7946   32.9875   40.4525 H   0  0  0  0  0  0  0  0  0  0  0  0
   46.4236   32.9680   39.1814 H   0  0  0  0  0  0  0  0  0  0  0  0
   46.9013   32.3193   40.8132 H   0  0  0  0  0  0  0  0  0  0  0  0
   45.7996   35.0559   40.1335 H   0  0  0  0  0  0  0  0  0  0  0  0
   45.0708   33.7244   41.1580 H   0  0  0  0  0  0  0  0  0  0  0  0
   45.7121   32.4391   46.1922 H   0  0  0  0  0  0  0  0  0  0  0  0
   47.9927   32.5712   42.6229 H   0  0  0  0  0  0  0  0  0  0  0  0
   46.7624   30.3294   46.8314 H   0  0  0  0  0  0  0  0  0  0  0  0
   50.6149   28.9516   44.1412 H   0  0  0  0  0  0  0  0  0  0  0  0
   48.7853   27.2366   43.7590 H   0  0  0  0  0  0  0  0  0  0  0  0
  1  6  2  0
  2  1  1  0
  2  3  2  0
  3 14  1  0
  3  4  1  0
  4  5  2  0
  6  5  1  0
  7  2  1  0
  8  7  1  0
  9  8  1  0
 10 11  1  0
 10  9  1  0
 11 12  1  0
 12  7  1  0
 13 18  2  0
 14 13  1  0
 15 16  1  0
 15 14  2  0
 16 17  2  0
 17 19  1  0
 17 18  1  0
 20 19  1  0
 21 16  1  0
 21 20  1  0
 22 20  1  0
  1 23  1  0
  5 24  1  0
  8 25  1  0
  8 26  1  0
  9 27  1  0
  9 28  1  0
 10 29  1  0
 11 30  1  0
 11 31  1  0
 12 32  1  0
 12 33  1  0
 13 34  1  0
 15 35  1  0
 18 36  1  0
 20 37  1  1
 22 38  1  0
M  ISO  8  23  14  24  14  25  13  26  13  27  13  28  13  29   5  30  13
M  ISO  8  31  13  32  13  33  13  34  14  35  14  36  14  37  13  38   3
M  END
>  <minimizedAffinity>  (1) 
-5.09634399

>  <minimizedRMSD>  (1) 
0.035082113

$$$$
