
     RDKit          3D

 50 54  0  0  1  0  0  0  0  0999 V2000
   45.6510   32.8400   46.5830 C   0  0  0  0  0  0  0  0  0  0  0  0
   46.2660   32.8420   45.3130 C   0  0  0  0  0  0  0  0  0  0  0  0
   47.0520   31.7280   45.1380 C   0  0  0  0  0  0  0  0  0  0  0  0
   47.2430   30.7300   46.0450 C   0  0  0  0  0  0  0  0  0  0  0  0
   46.6010   30.8090   47.2770 C   0  0  0  0  0  0  0  0  0  0  0  0
   45.7930   31.8800   47.5470 C   0  0  0  0  0  0  0  0  0  0  0  0
   47.0010   29.6680   47.9570 O   0  0  0  0  0  0  0  0  0  0  0  0
   47.8280   28.8700   47.1330 C   0  0  2  0  0  0  0  0  0  0  0  0
   48.0170   29.5920   45.9200 O   0  0  0  0  0  0  0  0  0  0  0  0
   45.9570   35.6790   42.8860 C   0  0  0  0  0  0  0  0  0  0  0  0
   46.4700   34.4790   43.3820 C   0  0  0  0  0  0  0  0  0  0  0  0
   45.9820   33.9820   44.5540 C   0  0  0  0  0  0  0  0  0  0  0  0
   45.0020   34.7070   45.1830 N   0  0  0  0  0  0  0  0  0  0  0  0
   44.5150   35.8540   44.7040 C   0  0  0  0  0  0  0  0  0  0  0  0
   44.9900   36.3280   43.5730 N   0  0  0  0  0  0  0  0  0  0  0  0
   47.4730   33.8620   42.6440 N   0  0  0  0  0  0  0  0  0  0  0  0
   48.8560   34.1040   42.8900 C   0  0  0  0  0  0  0  0  0  0  0  0
   49.7960   33.2170   42.1140 C   0  0  0  0  0  0  0  0  0  0  0  0
   49.4040   31.8910   41.9970 N   0  0  0  0  0  0  0  0  0  0  0  0
   48.0740   31.6670   41.7150 C   0  0  0  0  0  0  0  0  0  0  0  0
   47.2820   32.9500   41.5850 C   0  0  0  0  0  0  0  0  0  0  0  0
   47.1260   27.6920   46.8570 O   0  0  0  0  0  0  0  0  0  0  0  0
   45.4430   26.7000   48.0470 C   0  0  0  0  0  0  0  0  0  0  0  0
   46.8040   26.6930   47.7330 C   0  0  0  0  0  0  0  0  0  0  0  0
   47.6120   25.7410   48.3080 C   0  0  0  0  0  0  0  0  0  0  0  0
   47.1360   24.7890   49.1840 C   0  0  0  0  0  0  0  0  0  0  0  0
   45.7810   24.8120   49.4830 C   0  0  0  0  0  0  0  0  0  0  0  0
   44.9280   25.7460   48.9330 C   0  0  0  0  0  0  0  0  0  0  0  0
   44.5110   27.5940   47.5480 O   0  0  0  0  0  0  0  0  0  0  0  0
   43.5600   25.7310   49.2660 O   0  0  0  0  0  0  0  0  0  0  0  0
   44.9954   33.6909   46.8202 H   0  0  0  0  0  0  0  0  0  0  0  0
   47.5758   31.6337   44.1753 H   0  0  0  0  0  0  0  0  0  0  0  0
   45.2724   31.9664   48.5121 H   0  0  0  0  0  0  0  0  0  0  0  0
   48.7940   28.6380   47.6052 H   0  0  0  0  0  0  0  0  0  0  0  0
   46.3375   36.0943   41.9412 H   0  0  0  0  0  0  0  0  0  0  0  0
   43.7270   36.3954   45.2480 H   0  0  0  0  0  0  0  0  0  0  0  0
   49.0738   35.1493   42.6255 H   0  0  0  0  0  0  0  0  0  0  0  0
   49.0266   33.8837   43.9541 H   0  0  0  0  0  0  0  0  0  0  0  0
   49.8948   33.6322   41.1002 H   0  0  0  0  0  0  0  0  0  0  0  0
   50.7384   33.2051   42.6812 H   0  0  0  0  0  0  0  0  0  0  0  0
   49.9603   31.4654   41.2418 H   0  0  0  0  0  0  0  0  0  0  0  0
   48.0034   31.1120   40.7679 H   0  0  0  0  0  0  0  0  0  0  0  0
   47.6476   31.0960   42.5529 H   0  0  0  0  0  0  0  0  0  0  0  0
   47.5783   33.4439   40.6478 H   0  0  0  0  0  0  0  0  0  0  0  0
   46.2193   32.6663   41.6025 H   0  0  0  0  0  0  0  0  0  0  0  0
   48.6834   25.7388   48.0586 H   0  0  0  0  0  0  0  0  0  0  0  0
   47.8056   24.0386   49.6297 H   0  0  0  0  0  0  0  0  0  0  0  0
   45.3753   24.0632   50.1792 H   0  0  0  0  0  0  0  0  0  0  0  0
   44.7928   28.3009   46.9148 H   0  0  0  0  0  0  0  0  0  0  0  0
   43.2109   25.0500   49.8941 H   0  0  0  0  0  0  0  0  0  0  0  0
  1  6  2  0
  2  1  1  0
  3  2  2  0
  3  4  1  0
  4  5  2  0
  5  6  1  0
  5  7  1  0
  8  7  1  0
  9  4  1  0
  9  8  1  0
 10 11  2  0
 10 15  1  0
 11 12  1  0
 12 13  2  0
 12  2  1  0
 14 13  1  0
 15 14  2  0
 16 17  1  0
 16 11  1  0
 18 17  1  0
 19 18  1  0
 20 19  1  0
 21 20  1  0
 21 16  1  0
 22  8  1  0
 22 24  1  0
 23 28  2  0
 24 23  1  0
 24 25  2  0
 25 26  1  0
 26 27  2  0
 28 30  1  0
 28 27  1  0
 29 23  1  0
  1 31  1  0
  3 32  1  0
  6 33  1  0
  8 34  1  1
 10 35  1  0
 14 36  1  0
 17 37  1  0
 17 38  1  0
 18 39  1  0
 18 40  1  0
 19 41  1  0
 20 42  1  0
 20 43  1  0
 21 44  1  0
 21 45  1  0
 25 46  1  0
 26 47  1  0
 27 48  1  0
 29 49  1  0
 30 50  1  0
M  ISO  8  31  14  32  14  33  14  34  13  35  14  36  14  37  13  38  13
M  ISO  8  39  13  40  13  41   5  42  13  43  13  44  13  45  13  46  14
M  ISO  4  47  14  48  14  49   3  50   3
M  END
>  <minimizedAffinity>  (1) 
-6.39165068

>  <minimizedRMSD>  (1) 
4.61147833

$$$$
