
     RDKit          3D

 51 56  0  0  1  0  0  0  0  0999 V2000
   46.6670   32.6600   46.3480 C   0  0  0  0  0  0  0  0  0  0  0  0
   46.5530   32.7500   44.9440 C   0  0  0  0  0  0  0  0  0  0  0  0
   47.0360   31.6160   44.3380 C   0  0  0  0  0  0  0  0  0  0  0  0
   47.5640   30.5300   44.9600 C   0  0  0  0  0  0  0  0  0  0  0  0
   47.6420   30.5260   46.3500 C   0  0  0  0  0  0  0  0  0  0  0  0
   47.1860   31.6070   47.0510 C   0  0  0  0  0  0  0  0  0  0  0  0
   48.2220   29.3080   46.6670 O   0  0  0  0  0  0  0  0  0  0  0  0
   48.4460   28.5500   45.4950 C   0  0  2  0  0  0  0  0  0  0  0  0
   48.0570   29.3680   44.3940 O   0  0  0  0  0  0  0  0  0  0  0  0
   45.5460   35.9320   43.2410 C   0  0  0  0  0  0  0  0  0  0  0  0
   46.2430   34.7310   43.3870 C   0  0  0  0  0  0  0  0  0  0  0  0
   46.0380   33.9690   44.4960 C   0  0  0  0  0  0  0  0  0  0  0  0
   45.1450   34.4390   45.4200 N   0  0  0  0  0  0  0  0  0  0  0  0
   44.4780   35.5900   45.2790 C   0  0  0  0  0  0  0  0  0  0  0  0
   44.6770   36.3210   44.2080 N   0  0  0  0  0  0  0  0  0  0  0  0
   47.1450   34.3920   42.3790 N   0  0  0  0  0  0  0  0  0  0  0  0
   48.5530   34.5340   42.5520 C   0  0  0  0  0  0  0  0  0  0  0  0
   49.3930   33.9670   41.4490 C   0  0  0  0  0  0  0  0  0  0  0  0
   48.9360   32.7500   40.9190 N   0  0  0  0  0  0  0  0  0  0  0  0
   47.5770   32.6370   40.7170 C   0  0  0  0  0  0  0  0  0  0  0  0
   46.8190   33.8890   41.1050 C   0  0  0  0  0  0  0  0  0  0  0  0
   47.5850   27.4410   45.5640 O   0  0  0  0  0  0  0  0  0  0  0  0
   45.3990   27.7040   46.4490 C   0  0  0  0  0  0  0  0  0  0  0  0
   46.6760   27.1400   46.5370 C   0  0  0  0  0  0  0  0  0  0  0  0
   46.9310   26.3110   47.6110 C   0  0  0  0  0  0  0  0  0  0  0  0
   45.9800   26.0380   48.5690 C   0  0  0  0  0  0  0  0  0  0  0  0
   46.0040   25.2710   49.6840 N   0  0  0  0  0  0  0  0  0  0  0  0
   44.8200   25.3300   50.2870 N   0  0  0  0  0  0  0  0  0  0  0  0
   44.0050   26.1240   49.5920 C   0  0  0  0  0  0  0  0  0  0  0  0
   44.7130   26.5780   48.5090 C   0  0  0  0  0  0  0  0  0  0  0  0
   44.4600   27.4160   47.4220 C   0  0  0  0  0  0  0  0  0  0  0  0
   46.3040   33.5181   46.9327 H   0  0  0  0  0  0  0  0  0  0  0  0
   46.9907   31.5841   43.2394 H   0  0  0  0  0  0  0  0  0  0  0  0
   47.2348   31.6299   48.1497 H   0  0  0  0  0  0  0  0  0  0  0  0
   49.4925   28.2282   45.3888 H   0  0  0  0  0  0  0  0  0  0  0  0
   45.7000   36.5577   42.3495 H   0  0  0  0  0  0  0  0  0  0  0  0
   43.7698   35.9202   46.0533 H   0  0  0  0  0  0  0  0  0  0  0  0
   48.7789   35.6074   42.6340 H   0  0  0  0  0  0  0  0  0  0  0  0
   48.8083   33.9601   43.4550 H   0  0  0  0  0  0  0  0  0  0  0  0
   49.4260   34.7034   40.6326 H   0  0  0  0  0  0  0  0  0  0  0  0
   50.3788   33.7585   41.8903 H   0  0  0  0  0  0  0  0  0  0  0  0
   49.3998   32.6111   40.0099 H   0  0  0  0  0  0  0  0  0  0  0  0
   47.3960   32.4329   39.6514 H   0  0  0  0  0  0  0  0  0  0  0  0
   47.2144   31.8191   41.3570 H   0  0  0  0  0  0  0  0  0  0  0  0
   47.0375   34.6687   40.3605 H   0  0  0  0  0  0  0  0  0  0  0  0
   45.7541   33.6153   41.1373 H   0  0  0  0  0  0  0  0  0  0  0  0
   45.1440   28.3712   45.6125 H   0  0  0  0  0  0  0  0  0  0  0  0
   47.9268   25.8533   47.7047 H   0  0  0  0  0  0  0  0  0  0  0  0
   46.8134   24.7263   50.0142 H   0  0  0  0  0  0  0  0  0  0  0  0
   42.9617   26.3687   49.8405 H   0  0  0  0  0  0  0  0  0  0  0  0
   43.4622   27.8707   47.3349 H   0  0  0  0  0  0  0  0  0  0  0  0
  1  6  2  0
  2  1  1  0
  3  2  2  0
  3  4  1  0
  4  5  2  0
  5  7  1  0
  5  6  1  0
  8 22  1  0
  8  7  1  0
  9  4  1  0
  9  8  1  0
 10 11  2  0
 10 15  1  0
 11 12  1  0
 12  2  1  0
 12 13  2  0
 14 13  1  0
 15 14  2  0
 16 17  1  0
 16 11  1  0
 18 17  1  0
 19 18  1  0
 20 19  1  0
 20 21  1  0
 21 16  1  0
 22 24  1  0
 23 24  2  0
 23 31  1  0
 24 25  1  0
 25 26  2  0
 26 27  1  0
 27 28  1  0
 29 28  2  0
 30 26  1  0
 30 29  1  0
 31 30  2  0
  1 32  1  0
  3 33  1  0
  6 34  1  0
  8 35  1  6
 10 36  1  0
 14 37  1  0
 17 38  1  0
 17 39  1  0
 18 40  1  0
 18 41  1  0
 19 42  1  0
 20 43  1  0
 20 44  1  0
 21 45  1  0
 21 46  1  0
 23 47  1  0
 25 48  1  0
 27 49  1  0
 29 50  1  0
 31 51  1  0
M  ISO  8  32  14  33  14  34  14  35  13  36  14  37  14  38  13  39  13
M  ISO  8  40  13  41  13  42   5  43  13  44  13  45  13  46  13  47  14
M  ISO  4  48  14  49   9  50  14  51  14
M  END
>  <minimizedAffinity>  (1) 
-6.20294905

>  <minimizedRMSD>  (1) 
5.13428736

$$$$
