
     RDKit          3D

 53 57  0  0  1  0  0  0  0  0999 V2000
   45.2330   35.9760   43.4770 C   0  0  0  0  0  0  0  0  0  0  0  0
   46.0580   34.8810   43.2200 C   0  0  0  0  0  0  0  0  0  0  0  0
   46.1760   33.8950   44.1530 C   0  0  0  0  0  0  0  0  0  0  0  0
   45.4640   34.0450   45.3120 N   0  0  0  0  0  0  0  0  0  0  0  0
   44.6730   35.0970   45.5570 C   0  0  0  0  0  0  0  0  0  0  0  0
   44.5630   36.0400   44.6550 N   0  0  0  0  0  0  0  0  0  0  0  0
   46.7450   34.8740   42.0050 N   0  0  0  0  0  0  0  0  0  0  0  0
   48.0210   35.4940   41.8540 C   0  0  0  0  0  0  0  0  0  0  0  0
   48.6940   35.2480   40.5390 C   0  0  0  0  0  0  0  0  0  0  0  0
   48.5580   33.9470   40.0360 N   0  0  0  0  0  0  0  0  0  0  0  0
   47.3100   33.3700   40.1480 C   0  0  0  0  0  0  0  0  0  0  0  0
   46.2990   34.2850   40.8050 C   0  0  0  0  0  0  0  0  0  0  0  0
   46.4540   31.8220   45.2280 C   0  0  0  0  0  0  0  0  0  0  0  0
   46.8930   32.6990   44.2120 C   0  0  0  0  0  0  0  0  0  0  0  0
   47.9770   32.1780   43.5460 C   0  0  0  0  0  0  0  0  0  0  0  0
   48.5810   30.9880   43.7960 C   0  0  0  0  0  0  0  0  0  0  0  0
   48.0870   30.1840   44.8200 C   0  0  0  0  0  0  0  0  0  0  0  0
   47.0050   30.6130   45.5440 C   0  0  0  0  0  0  0  0  0  0  0  0
   48.9070   29.0680   44.8250 O   0  0  0  0  0  0  0  0  0  0  0  0
   49.8670   29.1600   43.7950 C   0  0  2  0  0  0  0  0  0  0  0  0
   49.6660   30.4200   43.1560 O   0  0  0  0  0  0  0  0  0  0  0  0
   49.5550   28.1460   42.8620 O   0  0  0  0  0  0  0  0  0  0  0  0
   52.7770   28.7300   40.8420 N   0  0  0  0  0  0  0  0  0  0  0  0
   51.4270   28.8420   40.3770 C   0  0  0  0  0  0  0  0  0  0  0  0
   50.6770   27.6370   40.8860 C   0  0  0  0  0  0  0  0  0  0  0  0
   50.6950   27.5060   42.3760 C   0  0  0  0  0  0  0  0  0  0  0  0
   51.9460   27.9600   43.0430 C   0  0  0  0  0  0  0  0  0  0  0  0
   52.7590   28.9480   42.2680 C   0  0  0  0  0  0  0  0  0  0  0  0
   45.1268   36.7789   42.7326 H   0  0  0  0  0  0  0  0  0  0  0  0
   44.1213   35.1685   46.5060 H   0  0  0  0  0  0  0  0  0  0  0  0
   47.8886   36.5797   41.9715 H   0  0  0  0  0  0  0  0  0  0  0  0
   48.6718   35.0472   42.6201 H   0  0  0  0  0  0  0  0  0  0  0  0
   48.2674   35.9446   39.8022 H   0  0  0  0  0  0  0  0  0  0  0  0
   49.7698   35.3986   40.7124 H   0  0  0  0  0  0  0  0  0  0  0  0
   49.2267   33.3459   40.5385 H   0  0  0  0  0  0  0  0  0  0  0  0
   46.9496   33.1131   39.1409 H   0  0  0  0  0  0  0  0  0  0  0  0
   47.4127   32.4782   40.7837 H   0  0  0  0  0  0  0  0  0  0  0  0
   46.0514   35.0898   40.0972 H   0  0  0  0  0  0  0  0  0  0  0  0
   45.4304   33.6615   41.0635 H   0  0  0  0  0  0  0  0  0  0  0  0
   45.5854   32.1433   45.8215 H   0  0  0  0  0  0  0  0  0  0  0  0
   48.3963   32.7851   42.7302 H   0  0  0  0  0  0  0  0  0  0  0  0
   46.5914   29.9996   46.3581 H   0  0  0  0  0  0  0  0  0  0  0  0
   50.8968   29.0611   44.1688 H   0  0  0  0  0  0  0  0  0  0  0  0
   53.3674   29.4392   40.3844 H   0  0  0  0  0  0  0  0  0  0  0  0
   50.9694   29.7630   40.7674 H   0  0  0  0  0  0  0  0  0  0  0  0
   51.3955   28.8853   39.2783 H   0  0  0  0  0  0  0  0  0  0  0  0
   49.6304   27.7139   40.5563 H   0  0  0  0  0  0  0  0  0  0  0  0
   51.1799   26.7479   40.4779 H   0  0  0  0  0  0  0  0  0  0  0  0
   50.6812   26.4351   42.6270 H   0  0  0  0  0  0  0  0  0  0  0  0
   51.6713   28.4233   44.0021 H   0  0  0  0  0  0  0  0  0  0  0  0
   52.5760   27.0648   43.1516 H   0  0  0  0  0  0  0  0  0  0  0  0
   53.7951   28.9012   42.6345 H   0  0  0  0  0  0  0  0  0  0  0  0
   52.2871   29.9291   42.4255 H   0  0  0  0  0  0  0  0  0  0  0  0
  1  6  2  0
  2  1  1  0
  2  3  2  0
  3 14  1  0
  3  4  1  0
  4  5  2  0
  6  5  1  0
  7  2  1  0
  8  7  1  0
  9  8  1  0
 10 11  1  0
 10  9  1  0
 11 12  1  0
 12  7  1  0
 13 18  2  0
 14 13  1  0
 15 16  1  0
 15 14  2  0
 16 17  2  0
 17 19  1  0
 17 18  1  0
 20 19  1  0
 21 20  1  0
 21 16  1  0
 22 20  1  0
 23 28  1  0
 24 23  1  0
 24 25  1  0
 25 26  1  0
 26 22  1  0
 26 27  1  0
 28 27  1  0
  1 29  1  0
  5 30  1  0
  8 31  1  0
  8 32  1  0
  9 33  1  0
  9 34  1  0
 10 35  1  0
 11 36  1  0
 11 37  1  0
 12 38  1  0
 12 39  1  0
 13 40  1  0
 15 41  1  0
 18 42  1  0
 20 43  1  1
 23 44  1  0
 24 45  1  0
 24 46  1  0
 25 47  1  0
 25 48  1  0
 26 49  1  0
 27 50  1  0
 27 51  1  0
 28 52  1  0
 28 53  1  0
M  ISO  8  29  14  30  14  31  13  32  13  33  13  34  13  35   5  36  13
M  ISO  8  37  13  38  13  39  13  40  14  41  14  42  14  43  13  44   5
M  ISO  8  45  13  46  13  47  13  48  13  49  13  50  13  51  13  52  13
M  ISO  1  53  13
M  END
>  <minimizedAffinity>  (1) 
-4.87931728

>  <minimizedRMSD>  (1) 
0.673677027

$$$$
