
     RDKit          3D

 20 21  0  0  0  0  0  0  0  0999 V2000
   45.7850   34.9140   43.5090 C   0  0  0  0  0  0  0  0  0  0  0  0
   47.0730   34.5960   43.0050 C   0  0  0  0  0  0  0  0  0  0  0  0
   47.7740   33.5050   43.5430 C   0  0  0  0  0  0  0  0  0  0  0  0
   47.1550   32.7910   44.5570 N   0  0  0  0  0  0  0  0  0  0  0  0
   45.9250   33.1400   45.0010 C   0  0  0  0  0  0  0  0  0  0  0  0
   45.2390   34.1970   44.4810 N   0  0  0  0  0  0  0  0  0  0  0  0
   47.7850   35.4160   41.9720 C   0  0  0  0  0  0  0  0  0  0  0  0
   49.1570   35.1520   41.6650 C   0  0  0  0  0  0  0  0  0  0  0  0
   48.1460   34.7350   40.6360 C   0  0  0  0  0  0  0  0  0  0  0  0
   44.9200   35.9950   42.9870 C   0  0  0  0  0  0  0  0  0  0  0  0
   48.7730   33.2283   43.1751 H   0  0  0  0  0  0  0  0  0  0  0  0
   45.4638   32.5515   45.8078 H   0  0  0  0  0  0  0  0  0  0  0  0
   47.2327   36.3183   42.2732 H   0  0  0  0  0  0  0  0  0  0  0  0
   49.8335   35.9919   41.4484 H   0  0  0  0  0  0  0  0  0  0  0  0
   49.9625   34.6212   42.1935 H   0  0  0  0  0  0  0  0  0  0  0  0
   48.0552   35.2814   39.6857 H   0  0  0  0  0  0  0  0  0  0  0  0
   47.8739   33.8072   40.1114 H   0  0  0  0  0  0  0  0  0  0  0  0
   44.4771   36.5486   43.8281 H   0  0  0  0  0  0  0  0  0  0  0  0
   45.5212   36.6812   42.3724 H   0  0  0  0  0  0  0  0  0  0  0  0
   44.1187   35.5589   42.3724 H   0  0  0  0  0  0  0  0  0  0  0  0
  1  6  2  0
  2  1  1  0
  2  3  2  0
  3  4  1  0
  4  5  2  0
  6  5  1  0
  7  2  1  0
  8  7  1  0
  9  8  1  0
  9  7  1  0
 10  1  1  0
  3 11  1  0
  5 12  1  0
  7 13  1  0
  8 14  1  0
  8 15  1  0
  9 16  1  0
  9 17  1  0
 10 18  1  0
 10 19  1  0
 10 20  1  0
M  ISO  8  11  14  12  14  13  13  14  13  15  13  16  13  17  13  18   8
M  ISO  2  19   8  20   8
M  END
>  <minimizedAffinity>  (1) 
-3.79259658

>  <minimizedRMSD>  (1) 
1.42784679

$$$$
