
     RDKit          3D

 23 24  0  0  0  0  0  0  0  0999 V2000
   44.8080   33.1590   41.1180 Cl  0  0  0  0  0  0  0  0  0  0  0  0
   46.3370   33.9890   40.9280 C   0  0  0  0  0  0  0  0  0  0  0  0
   46.8540   34.7340   41.9450 C   0  0  0  0  0  0  0  0  0  0  0  0
   48.0690   35.4030   41.8130 C   0  0  0  0  0  0  0  0  0  0  0  0
   48.7180   35.2720   40.6090 C   0  0  0  0  0  0  0  0  0  0  0  0
   48.2030   34.5290   39.5920 C   0  0  0  0  0  0  0  0  0  0  0  0
   47.0060   33.8750   39.7320 C   0  0  0  0  0  0  0  0  0  0  0  0
   45.6080   34.0290   45.3430 C   0  0  0  0  0  0  0  0  0  0  0  0
   44.7170   35.0810   45.5640 C   0  0  0  0  0  0  0  0  0  0  0  0
   44.5500   36.0190   44.5560 C   0  0  0  0  0  0  0  0  0  0  0  0
   45.2540   35.8750   43.4080 N   0  0  0  0  0  0  0  0  0  0  0  0
   46.1180   34.8390   43.2110 C   0  0  0  0  0  0  0  0  0  0  0  0
   46.2850   33.9290   44.1830 N   0  0  0  0  0  0  0  0  0  0  0  0
   46.3950   33.0420   38.6390 C   0  0  0  0  0  0  0  0  0  0  0  0
   47.0790   33.2100   37.4500 F   0  0  0  0  0  0  0  0  0  0  0  0
   46.4060   31.6990   38.9680 F   0  0  0  0  0  0  0  0  0  0  0  0
   45.0810   33.4430   38.3920 F   0  0  0  0  0  0  0  0  0  0  0  0
   48.4879   36.0061   42.6320 H   0  0  0  0  0  0  0  0  0  0  0  0
   49.6815   35.7824   40.4631 H   0  0  0  0  0  0  0  0  0  0  0  0
   48.7550   34.4519   38.6437 H   0  0  0  0  0  0  0  0  0  0  0  0
   45.7590   33.2719   46.1266 H   0  0  0  0  0  0  0  0  0  0  0  0
   44.1631   35.1636   46.5108 H   0  0  0  0  0  0  0  0  0  0  0  0
   43.8584   36.8644   44.6866 H   0  0  0  0  0  0  0  0  0  0  0  0
  2  1  1  0
  2  3  2  0
  3 12  1  0
  4  3  1  0
  5  4  2  0
  6  7  2  0
  6  5  1  0
  7  2  1  0
  8  9  2  0
 10  9  1  0
 11 10  2  0
 12 11  1  0
 12 13  2  0
 13  8  1  0
 14 16  1  0
 14  7  1  0
 15 14  1  0
 17 14  1  0
  4 18  1  0
  5 19  1  0
  6 20  1  0
  8 21  1  0
  9 22  1  0
 10 23  1  0
M  ISO  6  18  14  19  14  20  14  21  14  22  14  23  14
M  END
>  <minimizedAffinity>  (1) 
-5.27515984

>  <minimizedRMSD>  (1) 
0.0549332276

$$$$
