
     RDKit          3D

 29 31  0  0  0  0  0  0  0  0999 V2000
   47.2750   33.1090   43.7900 C   0  0  0  0  0  0  0  0  0  0  0  0
   48.1590   33.5800   42.8750 C   0  0  0  0  0  0  0  0  0  0  0  0
   49.1050   32.6510   42.4420 C   0  0  0  0  0  0  0  0  0  0  0  0
   49.0640   31.3750   42.9680 N   0  0  0  0  0  0  0  0  0  0  0  0
   48.1690   30.9890   43.8630 C   0  0  0  0  0  0  0  0  0  0  0  0
   47.2130   31.8670   44.3210 N   0  0  0  0  0  0  0  0  0  0  0  0
   48.2450   34.9190   42.4140 C   0  0  0  0  0  0  0  0  0  0  0  0
   49.2980   35.5980   41.9010 C   0  0  0  0  0  0  0  0  0  0  0  0
   48.2880   35.1780   40.8430 C   0  0  0  0  0  0  0  0  0  0  0  0
   46.1070   33.8160   44.3140 C   0  0  0  0  0  0  0  0  0  0  0  0
   45.4780   34.3200   45.2290 O   0  0  0  0  0  0  0  0  0  0  0  0
   44.5540   31.4990   43.0350 Cl  0  0  0  0  0  0  0  0  0  0  0  0
   44.4070   33.1590   42.5170 C   0  0  0  0  0  0  0  0  0  0  0  0
   45.1690   34.0860   43.1800 C   0  0  0  0  0  0  0  0  0  0  0  0
   45.0030   35.3940   42.7030 C   0  0  0  0  0  0  0  0  0  0  0  0
   44.1850   35.8090   41.6810 C   0  0  0  0  0  0  0  0  0  0  0  0
   43.4590   34.8080   41.0740 C   0  0  0  0  0  0  0  0  0  0  0  0
   42.3890   35.2490   39.7610 Cl  0  0  0  0  0  0  0  0  0  0  0  0
   43.5470   33.4960   41.4640 C   0  0  0  0  0  0  0  0  0  0  0  0
   49.8665   32.9286   41.6983 H   0  0  0  0  0  0  0  0  0  0  0  0
   48.1892   29.9574   44.2443 H   0  0  0  0  0  0  0  0  0  0  0  0
   47.6198   35.1540   43.2880 H   0  0  0  0  0  0  0  0  0  0  0  0
   49.4045   36.6671   42.1368 H   0  0  0  0  0  0  0  0  0  0  0  0
   50.3836   35.4410   41.9833 H   0  0  0  0  0  0  0  0  0  0  0  0
   47.6212   35.9111   40.3656 H   0  0  0  0  0  0  0  0  0  0  0  0
   48.2652   34.5950   39.9105 H   0  0  0  0  0  0  0  0  0  0  0  0
   45.5941   36.1751   43.2034 H   0  0  0  0  0  0  0  0  0  0  0  0
   44.1148   36.8619   41.3704 H   0  0  0  0  0  0  0  0  0  0  0  0
   42.9521   32.7213   40.9582 H   0  0  0  0  0  0  0  0  0  0  0  0
  1 10  1  0
  1  6  2  0
  2  1  1  0
  3  2  2  0
  3  4  1  0
  4  5  2  0
  5  6  1  0
  7  2  1  0
  8  7  1  0
  9  8  1  0
  9  7  1  0
 10 11  2  0
 13 12  1  0
 13 14  2  0
 14 10  1  0
 15 14  1  0
 16 15  2  0
 17 19  2  0
 17 16  1  0
 18 17  1  0
 19 13  1  0
  3 20  1  0
  5 21  1  0
  7 22  1  0
  8 23  1  0
  8 24  1  0
  9 25  1  0
  9 26  1  0
 15 27  1  0
 16 28  1  0
 19 29  1  0
M  ISO  8  20  14  21  14  22  13  23  13  24  13  25  13  26  13  27  14
M  ISO  2  28  14  29  14
M  END
>  <minimizedAffinity>  (1) 
-5.02997446

>  <minimizedRMSD>  (1) 
2.13288355

$$$$
