
     RDKit          3D

 29 31  0  0  0  0  0  0  0  0999 V2000
   47.0860   33.2860   43.7800 C   0  0  0  0  0  0  0  0  0  0  0  0
   47.9700   33.6750   42.8290 C   0  0  0  0  0  0  0  0  0  0  0  0
   48.8920   32.7150   42.4520 C   0  0  0  0  0  0  0  0  0  0  0  0
   48.8360   31.4680   43.0650 N   0  0  0  0  0  0  0  0  0  0  0  0
   47.9340   31.1540   44.0000 C   0  0  0  0  0  0  0  0  0  0  0  0
   47.0030   32.0850   44.3960 N   0  0  0  0  0  0  0  0  0  0  0  0
   48.0740   34.9730   42.2660 C   0  0  0  0  0  0  0  0  0  0  0  0
   49.1470   35.6350   41.7690 C   0  0  0  0  0  0  0  0  0  0  0  0
   48.2020   35.1190   40.6890 C   0  0  0  0  0  0  0  0  0  0  0  0
   45.9430   34.0560   44.2730 C   0  0  0  0  0  0  0  0  0  0  0  0
   45.3320   34.6540   45.1410 O   0  0  0  0  0  0  0  0  0  0  0  0
   44.4670   31.9160   43.1820 F   0  0  0  0  0  0  0  0  0  0  0  0
   44.3120   33.1120   42.5740 C   0  0  0  0  0  0  0  0  0  0  0  0
   45.0310   34.1900   43.0960 C   0  0  0  0  0  0  0  0  0  0  0  0
   44.8180   35.3950   42.4140 C   0  0  0  0  0  0  0  0  0  0  0  0
   43.9840   35.5270   41.3290 C   0  0  0  0  0  0  0  0  0  0  0  0
   43.3170   34.4070   40.8870 C   0  0  0  0  0  0  0  0  0  0  0  0
   43.4510   33.1770   41.4800 C   0  0  0  0  0  0  0  0  0  0  0  0
   49.6509   32.9327   41.6860 H   0  0  0  0  0  0  0  0  0  0  0  0
   47.9365   30.1513   44.4524 H   0  0  0  0  0  0  0  0  0  0  0  0
   47.3952   35.2572   43.0836 H   0  0  0  0  0  0  0  0  0  0  0  0
   49.2236   36.7200   41.9328 H   0  0  0  0  0  0  0  0  0  0  0  0
   50.2284   35.5064   41.9242 H   0  0  0  0  0  0  0  0  0  0  0  0
   47.5521   35.8029   40.1233 H   0  0  0  0  0  0  0  0  0  0  0  0
   48.2407   34.4698   39.8018 H   0  0  0  0  0  0  0  0  0  0  0  0
   45.3504   36.2900   42.7681 H   0  0  0  0  0  0  0  0  0  0  0  0
   43.8537   36.4982   40.8293 H   0  0  0  0  0  0  0  0  0  0  0  0
   42.6468   34.5023   40.0199 H   0  0  0  0  0  0  0  0  0  0  0  0
   42.9097   32.2926   41.1129 H   0  0  0  0  0  0  0  0  0  0  0  0
  1 10  1  0
  1  6  2  0
  2  1  1  0
  3  2  2  0
  3  4  1  0
  4  5  2  0
  5  6  1  0
  7  2  1  0
  8  7  1  0
  9  8  1  0
  9  7  1  0
 10 11  2  0
 13 14  2  0
 13 12  1  0
 14 10  1  0
 15 14  1  0
 16 15  2  0
 17 16  1  0
 17 18  2  0
 18 13  1  0
  3 19  1  0
  5 20  1  0
  7 21  1  0
  8 22  1  0
  8 23  1  0
  9 24  1  0
  9 25  1  0
 15 26  1  0
 16 27  1  0
 17 28  1  0
 18 29  1  0
M  ISO  8  19  14  20  14  21  13  22  13  23  13  24  13  25  13  26  14
M  ISO  3  27  14  28  14  29  14
M  END
>  <minimizedAffinity>  (1) 
-4.85064602

>  <minimizedRMSD>  (1) 
2.01780081

$$$$
