
     RDKit          3D

 26 28  0  0  0  0  0  0  0  0999 V2000
   46.0430   34.5570   43.8950 C   0  0  0  0  0  0  0  0  0  0  0  0
   47.1140   33.8950   43.3890 C   0  0  0  0  0  0  0  0  0  0  0  0
   47.5430   32.8230   44.1470 C   0  0  0  0  0  0  0  0  0  0  0  0
   46.8750   32.5150   45.3210 N   0  0  0  0  0  0  0  0  0  0  0  0
   45.8250   33.2130   45.7630 C   0  0  0  0  0  0  0  0  0  0  0  0
   45.3800   34.2680   45.0430 N   0  0  0  0  0  0  0  0  0  0  0  0
   47.8380   34.2510   42.2270 C   0  0  0  0  0  0  0  0  0  0  0  0
   48.2360   35.4600   41.7530 C   0  0  0  0  0  0  0  0  0  0  0  0
   49.3710   34.6360   42.3590 C   0  0  0  0  0  0  0  0  0  0  0  0
   45.3080   35.6450   43.2180 C   0  0  0  0  0  0  0  0  0  0  0  0
   45.1970   36.8890   43.1170 O   0  0  0  0  0  0  0  0  0  0  0  0
   44.3220   34.9580   42.3040 C   0  0  0  0  0  0  0  0  0  0  0  0
   43.5470   35.6680   41.4110 C   0  0  0  0  0  0  0  0  0  0  0  0
   42.7190   34.8620   40.6780 N   0  0  0  0  0  0  0  0  0  0  0  0
   43.0200   33.6460   41.1570 C   0  0  0  0  0  0  0  0  0  0  0  0
   43.9550   33.6580   42.1120 N   0  0  0  0  0  0  0  0  0  0  0  0
   48.4046   32.2211   43.8224 H   0  0  0  0  0  0  0  0  0  0  0  0
   45.3274   32.9325   46.7031 H   0  0  0  0  0  0  0  0  0  0  0  0
   47.1966   33.4951   41.7504 H   0  0  0  0  0  0  0  0  0  0  0  0
   48.2269   35.6343   40.6669 H   0  0  0  0  0  0  0  0  0  0  0  0
   47.8807   36.4827   41.9475 H   0  0  0  0  0  0  0  0  0  0  0  0
   49.8125   34.8994   43.3315 H   0  0  0  0  0  0  0  0  0  0  0  0
   50.3496   34.2349   42.0566 H   0  0  0  0  0  0  0  0  0  0  0  0
   43.5898   36.7616   41.3002 H   0  0  0  0  0  0  0  0  0  0  0  0
   42.0406   35.1218   39.9478 H   0  0  0  0  0  0  0  0  0  0  0  0
   42.5413   32.7234   40.7969 H   0  0  0  0  0  0  0  0  0  0  0  0
  1  6  2  0
  2  1  1  0
  2  3  2  0
  3  4  1  0
  4  5  2  0
  6  5  1  0
  7  9  1  0
  7  2  1  0
  8  7  1  0
  8  9  1  0
 10  1  1  0
 11 10  2  0
 12 10  1  0
 13 12  2  0
 14 15  1  0
 14 13  1  0
 15 16  2  0
 16 12  1  0
  3 17  1  0
  5 18  1  0
  7 19  1  0
  8 20  1  0
  8 21  1  0
  9 22  1  0
  9 23  1  0
 13 24  1  0
 14 25  1  0
 15 26  1  0
M  ISO  8  17  14  18  14  19  13  20  13  21  13  22  13  23  13  24  14
M  ISO  2  25   9  26  14
M  END
>  <minimizedAffinity>  (1) 
-4.62947321

>  <minimizedRMSD>  (1) 
0.973787665

$$$$
