
     RDKit          3D

 26 29  0  0  1  0  0  0  0  0999 V2000
   46.1120   34.4670   43.9070 C   0  0  0  0  0  0  0  0  0  0  0  0
   47.1930   33.7920   43.4380 C   0  0  0  0  0  0  0  0  0  0  0  0
   47.6310   32.7310   44.2100 C   0  0  0  0  0  0  0  0  0  0  0  0
   46.9410   32.4470   45.3870 N   0  0  0  0  0  0  0  0  0  0  0  0
   45.8880   33.1450   45.7950 C   0  0  0  0  0  0  0  0  0  0  0  0
   45.4260   34.2060   45.0510 N   0  0  0  0  0  0  0  0  0  0  0  0
   47.9340   34.1330   42.2800 C   0  0  0  0  0  0  0  0  0  0  0  0
   48.1940   35.3330   41.7030 C   0  0  0  0  0  0  0  0  0  0  0  0
   49.3880   34.7530   42.4520 C   0  0  0  0  0  0  0  0  0  0  0  0
   45.3920   35.5350   43.2630 C   0  0  0  0  0  0  0  0  0  0  0  0
   45.0610   36.6910   43.0720 O   0  0  0  0  0  0  0  0  0  0  0  0
   44.3850   35.6890   42.1630 C   0  0  0  0  0  0  0  0  0  0  0  0
   43.4450   34.5220   42.0160 C   0  0  0  0  0  0  0  0  0  0  0  0
   44.4070   34.8590   40.9490 C   0  0  0  0  0  0  0  0  0  0  0  0
   48.4990   32.1288   43.9036 H   0  0  0  0  0  0  0  0  0  0  0  0
   45.3820   32.8735   46.7332 H   0  0  0  0  0  0  0  0  0  0  0  0
   47.4361   33.2501   41.8526 H   0  0  0  0  0  0  0  0  0  0  0  0
   48.2358   35.3960   40.6056 H   0  0  0  0  0  0  0  0  0  0  0  0
   47.6863   36.3067   41.7682 H   0  0  0  0  0  0  0  0  0  0  0  0
   49.7200   35.1742   43.4124 H   0  0  0  0  0  0  0  0  0  0  0  0
   50.4321   34.4736   42.2475 H   0  0  0  0  0  0  0  0  0  0  0  0
   44.5731   35.4204   43.9885 H   0  0  0  0  0  0  0  0  0  0  0  0
   43.5890   33.6166   42.6239 H   0  0  0  0  0  0  0  0  0  0  0  0
   42.3554   34.3823   42.0724 H   0  0  0  0  0  0  0  0  0  0  0  0
   45.2632   34.1958   40.7566 H   0  0  0  0  0  0  0  0  0  0  0  0
   44.3196   35.0682   39.8726 H   0  0  0  0  0  0  0  0  0  0  0  0
  1  6  2  0
  2  1  1  0
  2  3  2  0
  3  4  1  0
  4  5  2  0
  6  5  1  0
  7  9  1  0
  7  2  1  0
  8  7  1  0
  8  9  1  0
 10  1  1  0
 11 10  1  0
 12 11  1  0
 12 10  1  0
 13 12  1  0
 14 13  1  0
 14 12  1  0
  3 15  1  0
  5 16  1  0
  7 17  1  0
  8 18  1  0
  8 19  1  0
  9 20  1  0
  9 21  1  0
 10 22  1  0
 13 23  1  0
 13 24  1  0
 14 25  1  0
 14 26  1  0
M  ISO  8  15  14  16  14  17  13  18  13  19  13  20  13  21  13  22  13
M  ISO  4  23  13  24  13  25  13  26  13
M  END
>  <minimizedAffinity>  (1) 
-4.23703194

>  <minimizedRMSD>  (1) 
0.870970011

$$$$
