
     RDKit          3D

 21 22  0  0  0  0  0  0  0  0999 V2000
   46.2010   34.5490   43.7270 C   0  0  0  0  0  0  0  0  0  0  0  0
   47.2850   33.9400   43.1860 C   0  0  0  0  0  0  0  0  0  0  0  0
   47.7110   32.7950   43.8500 C   0  0  0  0  0  0  0  0  0  0  0  0
   47.0150   32.3870   44.9780 N   0  0  0  0  0  0  0  0  0  0  0  0
   45.9710   33.0360   45.4440 C   0  0  0  0  0  0  0  0  0  0  0  0
   45.5050   34.1740   44.8250 N   0  0  0  0  0  0  0  0  0  0  0  0
   48.0440   34.4210   42.0900 C   0  0  0  0  0  0  0  0  0  0  0  0
   48.5030   35.6680   41.8260 C   0  0  0  0  0  0  0  0  0  0  0  0
   49.5940   34.7130   42.3000 C   0  0  0  0  0  0  0  0  0  0  0  0
   45.4800   35.6770   43.1720 C   0  0  0  0  0  0  0  0  0  0  0  0
   45.2260   36.8470   43.0710 O   0  0  0  0  0  0  0  0  0  0  0  0
   44.5420   35.1330   42.2070 N   0  0  0  0  0  0  0  0  0  0  0  0
   48.5802   32.2258   43.4888 H   0  0  0  0  0  0  0  0  0  0  0  0
   45.4608   32.6632   46.3444 H   0  0  0  0  0  0  0  0  0  0  0  0
   47.3869   33.7747   41.4895 H   0  0  0  0  0  0  0  0  0  0  0  0
   48.5202   36.0170   40.7830 H   0  0  0  0  0  0  0  0  0  0  0  0
   48.1869   36.6593   42.1829 H   0  0  0  0  0  0  0  0  0  0  0  0
   50.0292   34.7961   43.3068 H   0  0  0  0  0  0  0  0  0  0  0  0
   50.5611   34.3257   41.9467 H   0  0  0  0  0  0  0  0  0  0  0  0
   43.9173   35.7633   41.6842 H   0  0  0  0  0  0  0  0  0  0  0  0
   44.5011   34.1166   42.0450 H   0  0  0  0  0  0  0  0  0  0  0  0
  1  6  2  0
  2  1  1  0
  2  3  2  0
  3  4  1  0
  4  5  2  0
  6  5  1  0
  7  9  1  0
  7  2  1  0
  8  7  1  0
  8  9  1  0
 10  1  1  0
 11 10  2  0
 12 10  1  0
  3 13  1  0
  5 14  1  0
  7 15  1  0
  8 16  1  0
  8 17  1  0
  9 18  1  0
  9 19  1  0
 12 20  1  0
 12 21  1  0
M  ISO  7  13  14  14  14  15  13  16  13  17  13  18  13  19  13
M  END
>  <minimizedAffinity>  (1) 
-3.87530613

>  <minimizedRMSD>  (1) 
0.269414425

$$$$
