
     RDKit          3D

 39 42  0  0  0  0  0  0  0  0999 V2000
   43.8500   32.5100   41.1030 Cl  0  0  0  0  0  0  0  0  0  0  0  0
   44.3480   33.9960   41.9140 C   0  0  0  0  0  0  0  0  0  0  0  0
   45.4470   33.8690   42.7880 C   0  0  0  0  0  0  0  0  0  0  0  0
   45.7550   35.0920   43.3620 C   0  0  0  0  0  0  0  0  0  0  0  0
   45.1780   36.2920   43.1960 C   0  0  0  0  0  0  0  0  0  0  0  0
   44.1220   36.3280   42.3340 C   0  0  0  0  0  0  0  0  0  0  0  0
   43.6970   35.2130   41.6940 C   0  0  0  0  0  0  0  0  0  0  0  0
   42.5680   35.1880   40.7630 C   0  0  0  0  0  0  0  0  0  0  0  0
   41.3500   35.2190   41.4480 C   0  0  0  0  0  0  0  0  0  0  0  0
   40.1450   35.2010   40.7680 C   0  0  0  0  0  0  0  0  0  0  0  0
   40.1410   35.1500   39.3840 C   0  0  0  0  0  0  0  0  0  0  0  0
   41.3560   35.1200   38.7270 C   0  0  0  0  0  0  0  0  0  0  0  0
   42.5480   35.1380   39.3870 C   0  0  0  0  0  0  0  0  0  0  0  0
   46.2180   32.6250   43.0760 C   0  0  0  0  0  0  0  0  0  0  0  0
   45.6800   32.3350   44.1160 O   0  0  0  0  0  0  0  0  0  0  0  0
   47.1830   32.4120   41.9900 C   0  0  0  0  0  0  0  0  0  0  0  0
   48.2210   33.2010   41.6780 C   0  0  0  0  0  0  0  0  0  0  0  0
   48.9170   32.8190   40.5510 C   0  0  0  0  0  0  0  0  0  0  0  0
   48.4930   31.6720   39.8550 N   0  0  0  0  0  0  0  0  0  0  0  0
   47.4680   30.9440   40.2210 C   0  0  0  0  0  0  0  0  0  0  0  0
   46.7430   31.2970   41.3450 N   0  0  0  0  0  0  0  0  0  0  0  0
   48.7140   34.2850   42.4490 C   0  0  0  0  0  0  0  0  0  0  0  0
   49.9550   34.8420   42.4310 C   0  0  0  0  0  0  0  0  0  0  0  0
   48.9330   35.6600   41.6850 C   0  0  0  0  0  0  0  0  0  0  0  0
   46.6035   35.0768   44.0618 H   0  0  0  0  0  0  0  0  0  0  0  0
   45.5343   37.1900   43.7220 H   0  0  0  0  0  0  0  0  0  0  0  0
   43.6049   37.2822   42.1549 H   0  0  0  0  0  0  0  0  0  0  0  0
   41.3494   35.2584   42.5473 H   0  0  0  0  0  0  0  0  0  0  0  0
   39.1959   35.2270   41.3234 H   0  0  0  0  0  0  0  0  0  0  0  0
   39.1952   35.1338   38.8225 H   0  0  0  0  0  0  0  0  0  0  0  0
   41.3613   35.0800   37.6277 H   0  0  0  0  0  0  0  0  0  0  0  0
   43.4916   35.1127   38.8222 H   0  0  0  0  0  0  0  0  0  0  0  0
   49.7850   33.3984   40.2034 H   0  0  0  0  0  0  0  0  0  0  0  0
   47.1847   30.0557   39.6373 H   0  0  0  0  0  0  0  0  0  0  0  0
   48.1430   33.8696   43.2924 H   0  0  0  0  0  0  0  0  0  0  0  0
   50.3701   35.2405   43.3685 H   0  0  0  0  0  0  0  0  0  0  0  0
   50.9349   34.4416   42.1318 H   0  0  0  0  0  0  0  0  0  0  0  0
   48.5513   36.6071   42.0940 H   0  0  0  0  0  0  0  0  0  0  0  0
   48.7881   36.0704   40.6748 H   0  0  0  0  0  0  0  0  0  0  0  0
  1  2  1  0
  2  3  2  0
  3 14  1  0
  3  4  1  0
  5  4  2  0
  6  5  1  0
  7  2  1  0
  7  6  2  0
  8  9  2  0
  8  7  1  0
 10  9  1  0
 11 10  2  0
 12 11  1  0
 12 13  2  0
 13  8  1  0
 14 15  2  0
 16 14  1  0
 17 16  1  0
 17 22  1  0
 18 17  2  0
 19 20  2  0
 19 18  1  0
 20 21  1  0
 21 16  2  0
 23 22  1  0
 24 23  1  0
 24 22  1  0
  4 25  1  0
  5 26  1  0
  6 27  1  0
  9 28  1  0
 10 29  1  0
 11 30  1  0
 12 31  1  0
 13 32  1  0
 18 33  1  0
 20 34  1  0
 22 35  1  0
 23 36  1  0
 23 37  1  0
 24 38  1  0
 24 39  1  0
M  ISO  8  25  14  26  14  27  14  28  14  29  14  30  14  31  14  32  14
M  ISO  7  33  14  34  14  35  13  36  13  37  13  38  13  39  13
M  END
>  <minimizedAffinity>  (1) 
-6.0508728

>  <minimizedRMSD>  (1) 
2.19152021

$$$$
