
     RDKit          3D

 36 39  0  0  0  0  0  0  0  0999 V2000
   46.3140   33.5350   44.6990 C   0  0  0  0  0  0  0  0  0  0  0  0
   45.7350   33.9090   45.6880 O   0  0  0  0  0  0  0  0  0  0  0  0
   44.5280   31.7900   42.8910 Cl  0  0  0  0  0  0  0  0  0  0  0  0
   44.5730   33.5510   42.7880 C   0  0  0  0  0  0  0  0  0  0  0  0
   45.4460   34.1910   43.6880 C   0  0  0  0  0  0  0  0  0  0  0  0
   45.4030   35.5650   43.5020 C   0  0  0  0  0  0  0  0  0  0  0  0
   44.6910   36.2970   42.6370 C   0  0  0  0  0  0  0  0  0  0  0  0
   43.8690   35.5970   41.8000 C   0  0  0  0  0  0  0  0  0  0  0  0
   43.7910   34.2470   41.8560 C   0  0  0  0  0  0  0  0  0  0  0  0
   42.9390   33.4060   41.0030 C   0  0  0  0  0  0  0  0  0  0  0  0
   41.6150   33.0830   41.2530 C   0  0  0  0  0  0  0  0  0  0  0  0
   41.1010   32.2970   40.2910 N   0  0  0  0  0  0  0  0  0  0  0  0
   42.1260   32.1160   39.4080 C   0  0  0  0  0  0  0  0  0  0  0  0
   43.2270   32.7880   39.8440 N   0  0  0  0  0  0  0  0  0  0  0  0
   47.3800   32.8040   43.9990 C   0  0  0  0  0  0  0  0  0  0  0  0
   48.2410   33.3110   43.1050 C   0  0  0  0  0  0  0  0  0  0  0  0
   49.0770   32.3800   42.5240 C   0  0  0  0  0  0  0  0  0  0  0  0
   48.9630   31.0310   42.9070 N   0  0  0  0  0  0  0  0  0  0  0  0
   48.0920   30.6110   43.7970 C   0  0  0  0  0  0  0  0  0  0  0  0
   47.2360   31.5110   44.3980 N   0  0  0  0  0  0  0  0  0  0  0  0
   48.4350   34.6840   42.8070 C   0  0  0  0  0  0  0  0  0  0  0  0
   49.4760   35.2720   42.1550 C   0  0  0  0  0  0  0  0  0  0  0  0
   48.2540   35.1180   41.2900 C   0  0  0  0  0  0  0  0  0  0  0  0
   46.0570   36.1439   44.1707 H   0  0  0  0  0  0  0  0  0  0  0  0
   44.7632   37.3941   42.6021 H   0  0  0  0  0  0  0  0  0  0  0  0
   43.2579   36.1418   41.0654 H   0  0  0  0  0  0  0  0  0  0  0  0
   41.0521   33.4282   42.1328 H   0  0  0  0  0  0  0  0  0  0  0  0
   40.1458   31.9160   40.2331 H   0  0  0  0  0  0  0  0  0  0  0  0
   42.0710   31.5189   38.4858 H   0  0  0  0  0  0  0  0  0  0  0  0
   49.8204   32.6873   41.7737 H   0  0  0  0  0  0  0  0  0  0  0  0
   48.0455   29.5445   44.0622 H   0  0  0  0  0  0  0  0  0  0  0  0
   48.0174   34.8978   43.8019 H   0  0  0  0  0  0  0  0  0  0  0  0
   49.7867   36.2830   42.4572 H   0  0  0  0  0  0  0  0  0  0  0  0
   50.5212   34.9610   42.0106 H   0  0  0  0  0  0  0  0  0  0  0  0
   47.6369   35.9860   41.0147 H   0  0  0  0  0  0  0  0  0  0  0  0
   47.9804   34.6546   40.3306 H   0  0  0  0  0  0  0  0  0  0  0  0
  1  2  2  0
  4  3  1  0
  4  5  2  0
  5  1  1  0
  6  5  1  0
  7  6  2  0
  8  9  2  0
  8  7  1  0
  9  4  1  0
 10 11  2  0
 10  9  1  0
 12 11  1  0
 13 14  2  0
 13 12  1  0
 14 10  1  0
 15 20  1  0
 15  1  1  0
 16 15  2  0
 17 18  2  0
 17 16  1  0
 18 19  1  0
 19 20  2  0
 21 16  1  0
 22 21  1  0
 23 22  1  0
 23 21  1  0
  6 24  1  0
  7 25  1  0
  8 26  1  0
 11 27  1  0
 12 28  1  0
 13 29  1  0
 17 30  1  0
 19 31  1  0
 21 32  1  0
 22 33  1  0
 22 34  1  0
 23 35  1  0
 23 36  1  0
M  ISO  8  24  14  25  14  26  14  27  14  28   9  29  14  30  14  31  14
M  ISO  5  32  13  33  13  34  13  35  13  36  13
M  END
>  <minimizedAffinity>  (1) 
-5.36449051

>  <minimizedRMSD>  (1) 
0.396373183

$$$$
