
     RDKit          3D

 32 34  0  0  0  0  0  0  0  0999 V2000
   47.5130   32.8350   43.9260 C   0  0  0  0  0  0  0  0  0  0  0  0
   48.3490   33.3810   43.0300 C   0  0  0  0  0  0  0  0  0  0  0  0
   49.2070   32.4900   42.4260 C   0  0  0  0  0  0  0  0  0  0  0  0
   49.1420   31.1320   42.7920 N   0  0  0  0  0  0  0  0  0  0  0  0
   48.2960   30.6710   43.6830 C   0  0  0  0  0  0  0  0  0  0  0  0
   47.4200   31.5300   44.3050 N   0  0  0  0  0  0  0  0  0  0  0  0
   48.4900   34.7670   42.7480 C   0  0  0  0  0  0  0  0  0  0  0  0
   49.5100   35.4030   42.1140 C   0  0  0  0  0  0  0  0  0  0  0  0
   48.3060   35.2080   41.2330 C   0  0  0  0  0  0  0  0  0  0  0  0
   46.4300   33.5200   44.6470 C   0  0  0  0  0  0  0  0  0  0  0  0
   45.8590   33.8740   45.6450 O   0  0  0  0  0  0  0  0  0  0  0  0
   44.6180   31.6910   42.9470 Cl  0  0  0  0  0  0  0  0  0  0  0  0
   44.6210   33.4480   42.7860 C   0  0  0  0  0  0  0  0  0  0  0  0
   45.5060   34.1290   43.6470 C   0  0  0  0  0  0  0  0  0  0  0  0
   45.4300   35.4970   43.4400 C   0  0  0  0  0  0  0  0  0  0  0  0
   44.6750   36.1960   42.5810 C   0  0  0  0  0  0  0  0  0  0  0  0
   43.8450   35.4610   41.7820 C   0  0  0  0  0  0  0  0  0  0  0  0
   43.8050   34.1130   41.8690 C   0  0  0  0  0  0  0  0  0  0  0  0
   42.9360   33.1860   41.0510 C   0  0  0  0  0  0  0  0  0  0  0  0
   49.9301   32.8327   41.6713 H   0  0  0  0  0  0  0  0  0  0  0  0
   48.2874   29.5996   43.9320 H   0  0  0  0  0  0  0  0  0  0  0  0
   48.0548   34.9535   43.7409 H   0  0  0  0  0  0  0  0  0  0  0  0
   49.7751   36.4229   42.4295 H   0  0  0  0  0  0  0  0  0  0  0  0
   50.5686   35.1366   41.9784 H   0  0  0  0  0  0  0  0  0  0  0  0
   47.6563   36.0524   40.9593 H   0  0  0  0  0  0  0  0  0  0  0  0
   48.0621   34.7437   40.2661 H   0  0  0  0  0  0  0  0  0  0  0  0
   46.0905   36.1020   44.0785 H   0  0  0  0  0  0  0  0  0  0  0  0
   44.7207   37.2935   42.5228 H   0  0  0  0  0  0  0  0  0  0  0  0
   43.1985   35.9753   41.0557 H   0  0  0  0  0  0  0  0  0  0  0  0
   42.3412   32.5515   41.7245 H   0  0  0  0  0  0  0  0  0  0  0  0
   42.2619   33.7801   40.4165 H   0  0  0  0  0  0  0  0  0  0  0  0
   43.5724   32.5516   40.4165 H   0  0  0  0  0  0  0  0  0  0  0  0
  1  6  1  0
  1 10  1  0
  2  1  2  0
  3  4  2  0
  3  2  1  0
  4  5  1  0
  5  6  2  0
  7  2  1  0
  8  7  1  0
  9  8  1  0
  9  7  1  0
 10 11  2  0
 13 12  1  0
 13 14  2  0
 14 10  1  0
 15 14  1  0
 16 15  2  0
 17 18  2  0
 17 16  1  0
 18 13  1  0
 19 18  1  0
  3 20  1  0
  5 21  1  0
  7 22  1  0
  8 23  1  0
  8 24  1  0
  9 25  1  0
  9 26  1  0
 15 27  1  0
 16 28  1  0
 17 29  1  0
 19 30  1  0
 19 31  1  0
 19 32  1  0
M  ISO  8  20  14  21  14  22  13  23  13  24  13  25  13  26  13  27  14
M  ISO  5  28  14  29  14  30   8  31   8  32   8
M  END
>  <minimizedAffinity>  (1) 
-5.02285767

>  <minimizedRMSD>  (1) 
0.0451968126

$$$$
