
     RDKit          3D

 30 32  0  0  0  0  0  0  0  0999 V2000
   47.5270   32.8420   43.9090 C   0  0  0  0  0  0  0  0  0  0  0  0
   48.3630   33.3880   43.0140 C   0  0  0  0  0  0  0  0  0  0  0  0
   49.2190   32.4990   42.4040 C   0  0  0  0  0  0  0  0  0  0  0  0
   49.1500   31.1390   42.7630 N   0  0  0  0  0  0  0  0  0  0  0  0
   48.3010   30.6770   43.6550 C   0  0  0  0  0  0  0  0  0  0  0  0
   47.4320   31.5350   44.2800 N   0  0  0  0  0  0  0  0  0  0  0  0
   48.5110   34.7750   42.7420 C   0  0  0  0  0  0  0  0  0  0  0  0
   49.5400   35.4190   42.1280 C   0  0  0  0  0  0  0  0  0  0  0  0
   48.3450   35.2270   41.2300 C   0  0  0  0  0  0  0  0  0  0  0  0
   46.4440   33.5250   44.6320 C   0  0  0  0  0  0  0  0  0  0  0  0
   45.8770   33.8770   45.6310 O   0  0  0  0  0  0  0  0  0  0  0  0
   44.6190   31.6780   42.9660 Cl  0  0  0  0  0  0  0  0  0  0  0  0
   44.6220   33.4320   42.7850 C   0  0  0  0  0  0  0  0  0  0  0  0
   45.5150   34.1230   43.6340 C   0  0  0  0  0  0  0  0  0  0  0  0
   45.4340   35.4890   43.4100 C   0  0  0  0  0  0  0  0  0  0  0  0
   44.6750   36.1810   42.5510 C   0  0  0  0  0  0  0  0  0  0  0  0
   43.8390   35.4340   41.7650 C   0  0  0  0  0  0  0  0  0  0  0  0
   43.8010   34.0850   41.8680 C   0  0  0  0  0  0  0  0  0  0  0  0
   42.9870   33.2110   41.1190 O   0  0  0  0  0  0  0  0  0  0  0  0
   49.9427   32.8442   41.6509 H   0  0  0  0  0  0  0  0  0  0  0  0
   48.2878   29.6046   43.8994 H   0  0  0  0  0  0  0  0  0  0  0  0
   48.0642   34.9526   43.7314 H   0  0  0  0  0  0  0  0  0  0  0  0
   49.7985   36.4369   42.4553 H   0  0  0  0  0  0  0  0  0  0  0  0
   50.6012   35.1570   42.0044 H   0  0  0  0  0  0  0  0  0  0  0  0
   47.6964   36.0718   40.9549 H   0  0  0  0  0  0  0  0  0  0  0  0
   48.1142   34.7694   40.2567 H   0  0  0  0  0  0  0  0  0  0  0  0
   46.0986   36.1011   44.0374 H   0  0  0  0  0  0  0  0  0  0  0  0
   44.7201   37.2779   42.4813 H   0  0  0  0  0  0  0  0  0  0  0  0
   43.1869   35.9390   41.0372 H   0  0  0  0  0  0  0  0  0  0  0  0
   43.0365   32.2343   41.2732 H   0  0  0  0  0  0  0  0  0  0  0  0
  1  6  1  0
  1 10  1  0
  2  1  2  0
  3  4  2  0
  3  2  1  0
  4  5  1  0
  5  6  2  0
  7  2  1  0
  8  7  1  0
  9  8  1  0
  9  7  1  0
 10 11  2  0
 13 12  1  0
 13 14  2  0
 14 10  1  0
 15 14  1  0
 16 15  2  0
 17 18  2  0
 17 16  1  0
 18 13  1  0
 19 18  1  0
  3 20  1  0
  5 21  1  0
  7 22  1  0
  8 23  1  0
  8 24  1  0
  9 25  1  0
  9 26  1  0
 15 27  1  0
 16 28  1  0
 17 29  1  0
 19 30  1  0
M  ISO  8  20  14  21  14  22  13  23  13  24  13  25  13  26  13  27  14
M  ISO  3  28  14  29  14  30   3
M  END
>  <minimizedAffinity>  (1) 
-4.98988771

>  <minimizedRMSD>  (1) 
0.0391454995

$$$$
