
     RDKit          3D

 21 22  0  0  0  0  0  0  0  0999 V2000
   44.7610   33.1620   41.1510 Cl  0  0  0  0  0  0  0  0  0  0  0  0
   46.2860   33.9610   40.9420 C   0  0  0  0  0  0  0  0  0  0  0  0
   46.8240   34.7170   41.9590 C   0  0  0  0  0  0  0  0  0  0  0  0
   48.0480   35.3710   41.8220 C   0  0  0  0  0  0  0  0  0  0  0  0
   48.6840   35.2130   40.6090 C   0  0  0  0  0  0  0  0  0  0  0  0
   48.1530   34.4610   39.5970 C   0  0  0  0  0  0  0  0  0  0  0  0
   46.9500   33.8250   39.7450 C   0  0  0  0  0  0  0  0  0  0  0  0
   45.5840   34.0430   45.3560 C   0  0  0  0  0  0  0  0  0  0  0  0
   44.7020   35.1020   45.5800 C   0  0  0  0  0  0  0  0  0  0  0  0
   44.5390   36.0450   44.5610 C   0  0  0  0  0  0  0  0  0  0  0  0
   45.2400   35.8800   43.4170 N   0  0  0  0  0  0  0  0  0  0  0  0
   46.0930   34.8410   43.2190 C   0  0  0  0  0  0  0  0  0  0  0  0
   46.2640   33.9160   44.1980 N   0  0  0  0  0  0  0  0  0  0  0  0
   46.3270   32.8630   38.3730 S   0  0  0  0  0  0  0  0  0  0  0  0
   48.4799   35.9763   42.6326 H   0  0  0  0  0  0  0  0  0  0  0  0
   49.6527   35.7091   40.4493 H   0  0  0  0  0  0  0  0  0  0  0  0
   48.7020   34.3659   38.6485 H   0  0  0  0  0  0  0  0  0  0  0  0
   45.7284   33.2913   46.1460 H   0  0  0  0  0  0  0  0  0  0  0  0
   44.1525   35.1915   46.5287 H   0  0  0  0  0  0  0  0  0  0  0  0
   43.8577   36.8994   44.6869 H   0  0  0  0  0  0  0  0  0  0  0  0
   45.6290   31.7852   38.8506 H   0  0  0  0  0  0  0  0  0  0  0  0
  2  1  1  0
  2  3  2  0
  3 12  1  0
  4  3  1  0
  5  4  2  0
  6  7  2  0
  6  5  1  0
  7  2  1  0
  8  9  2  0
 10  9  1  0
 11 10  2  0
 12 11  1  0
 12 13  2  0
 13  8  1  0
 14  7  1  0
  4 15  1  0
  5 16  1  0
  6 17  1  0
  8 18  1  0
  9 19  1  0
 10 20  1  0
 14 21  1  0
M  ISO  7  15  14  16  14  17  14  18  14  19  14  20  14  21  11
M  END
>  <minimizedAffinity>  (1) 
-5.06145859

>  <minimizedRMSD>  (1) 
0.0325061008

$$$$
