
     RDKit          3D

 38 40  0  0  1  0  0  0  0  0999 V2000
   46.3070   33.2680   44.8610 C   0  0  0  0  0  0  0  0  0  0  0  0
   45.8120   33.7910   45.8180 O   0  0  0  0  0  0  0  0  0  0  0  0
   44.3370   31.6770   43.0920 Cl  0  0  0  0  0  0  0  0  0  0  0  0
   44.5900   33.4130   42.9080 C   0  0  0  0  0  0  0  0  0  0  0  0
   45.5160   33.9900   43.8110 C   0  0  0  0  0  0  0  0  0  0  0  0
   45.6150   35.3450   43.5840 C   0  0  0  0  0  0  0  0  0  0  0  0
   45.0090   36.1220   42.6960 C   0  0  0  0  0  0  0  0  0  0  0  0
   44.1290   35.4900   41.8560 C   0  0  0  0  0  0  0  0  0  0  0  0
   43.9090   34.1480   41.9490 C   0  0  0  0  0  0  0  0  0  0  0  0
   43.0060   33.6350   41.0580 O   0  0  0  0  0  0  0  0  0  0  0  0
   40.7130   33.2420   39.8510 O   0  0  0  0  0  0  0  0  0  0  0  0
   41.3360   33.4150   41.2130 P   0  0  0  0  0  0  0  0  0  0  0  0
   41.0440   32.0630   42.1930 O   0  0  0  0  0  0  0  0  0  0  0  0
   40.6110   34.7230   42.0150 O   0  0  0  0  0  0  0  0  0  0  0  0
   47.2350   32.3350   44.1850 C   0  0  0  0  0  0  0  0  0  0  0  0
   48.1930   32.6750   43.3280 C   0  0  0  0  0  0  0  0  0  0  0  0
   48.8610   31.6010   42.7710 C   0  0  0  0  0  0  0  0  0  0  0  0
   48.4860   30.2950   43.1510 N   0  0  0  0  0  0  0  0  0  0  0  0
   47.5270   30.0480   44.0110 C   0  0  0  0  0  0  0  0  0  0  0  0
   46.8370   31.0930   44.5850 N   0  0  0  0  0  0  0  0  0  0  0  0
   48.6640   33.9890   43.0230 C   0  0  1  0  0  0  0  0  0  0  0  0
   49.9180   34.3270   42.6200 C   0  0  0  0  0  0  0  0  0  0  0  0
   48.9280   34.2990   41.5030 C   0  0  2  0  0  0  0  0  0  0  0  0
   48.6010   35.6360   40.9590 C   0  0  0  0  0  0  0  0  0  0  0  0
   46.3139   35.8710   44.2510 H   0  0  0  0  0  0  0  0  0  0  0  0
   45.2002   37.2037   42.6374 H   0  0  0  0  0  0  0  0  0  0  0  0
   43.5920   36.0751   41.0949 H   0  0  0  0  0  0  0  0  0  0  0  0
   41.1011   32.3272   43.1454 H   0  0  0  0  0  0  0  0  0  0  0  0
   40.6839   34.5915   42.9935 H   0  0  0  0  0  0  0  0  0  0  0  0
   49.6709   31.7616   42.0441 H   0  0  0  0  0  0  0  0  0  0  0  0
   47.2746   29.0099   44.2730 H   0  0  0  0  0  0  0  0  0  0  0  0
   48.0577   34.3671   43.8594 H   0  0  0  0  0  0  0  0  0  0  0  0
   50.3337   35.2952   42.9361 H   0  0  0  0  0  0  0  0  0  0  0  0
   50.8917   33.8328   42.7527 H   0  0  0  0  0  0  0  0  0  0  0  0
   48.7337   33.7857   40.5497 H   0  0  0  0  0  0  0  0  0  0  0  0
   48.4294   36.3375   41.7887 H   0  0  0  0  0  0  0  0  0  0  0  0
   49.4377   35.9955   40.3420 H   0  0  0  0  0  0  0  0  0  0  0  0
   47.6928   35.5687   40.3420 H   0  0  0  0  0  0  0  0  0  0  0  0
  1  2  2  0
  4  3  1  0
  4  5  2  0
  5  1  1  0
  6  5  1  0
  7  6  2  0
  8  9  2  0
  8  7  1  0
  9  4  1  0
 10 12  1  0
 10  9  1  0
 11 12  2  0
 12 14  1  0
 12 13  1  0
 15 20  1  0
 15  1  1  0
 16 15  2  0
 17 18  2  0
 17 16  1  0
 18 19  1  0
 19 20  2  0
 21 16  1  0
 22 21  1  0
 23 22  1  0
 23 21  1  0
 24 23  1  0
  6 25  1  0
  7 26  1  0
  8 27  1  0
 13 28  1  0
 14 29  1  0
 17 30  1  0
 19 31  1  0
 21 32  1  1
 22 33  1  0
 22 34  1  0
 23 35  1  6
 24 36  1  0
 24 37  1  0
 24 38  1  0
M  ISO  8  25  14  26  14  27  14  28   3  29   3  30  14  31  14  32  13
M  ISO  6  33  13  34  13  35  13  36   8  37   8  38   8
M  END
>  <minimizedAffinity>  (1) 
-5.63614273

>  <minimizedRMSD>  (1) 
0.599239171

$$$$
