
     RDKit          3D

 36 38  0  0  1  0  0  0  0  0999 V2000
   46.3600   33.4530   44.6750 C   0  0  0  0  0  0  0  0  0  0  0  0
   45.8280   33.8370   45.6780 O   0  0  0  0  0  0  0  0  0  0  0  0
   44.4740   31.7690   42.9000 Cl  0  0  0  0  0  0  0  0  0  0  0  0
   44.5550   33.5180   42.8050 C   0  0  0  0  0  0  0  0  0  0  0  0
   45.4620   34.1480   43.6960 C   0  0  0  0  0  0  0  0  0  0  0  0
   45.4260   35.5140   43.5320 C   0  0  0  0  0  0  0  0  0  0  0  0
   44.7150   36.2720   42.7110 C   0  0  0  0  0  0  0  0  0  0  0  0
   43.8560   35.5990   41.8710 C   0  0  0  0  0  0  0  0  0  0  0  0
   43.7660   34.2380   41.9090 C   0  0  0  0  0  0  0  0  0  0  0  0
   42.8750   33.6890   41.0310 O   0  0  0  0  0  0  0  0  0  0  0  0
   40.5920   33.1060   39.8780 O   0  0  0  0  0  0  0  0  0  0  0  0
   41.2300   33.3450   41.2250 P   0  0  0  0  0  0  0  0  0  0  0  0
   41.0580   31.9920   42.2320 O   0  0  0  0  0  0  0  0  0  0  0  0
   40.4250   34.6090   42.0230 O   0  0  0  0  0  0  0  0  0  0  0  0
   47.3810   32.6960   43.9170 C   0  0  0  0  0  0  0  0  0  0  0  0
   48.3070   33.2200   43.1190 C   0  0  0  0  0  0  0  0  0  0  0  0
   49.0820   32.2900   42.4590 C   0  0  0  0  0  0  0  0  0  0  0  0
   48.8330   30.9180   42.6840 N   0  0  0  0  0  0  0  0  0  0  0  0
   47.8980   30.4830   43.4920 C   0  0  0  0  0  0  0  0  0  0  0  0
   47.1020   31.3850   44.1690 N   0  0  0  0  0  0  0  0  0  0  0  0
   48.6530   34.5960   42.9750 C   0  0  1  0  0  0  0  0  0  0  0  0
   49.5630   35.1400   42.1190 C   0  0  0  0  0  0  0  0  0  0  0  0
   48.1570   35.3060   41.6510 C   0  0  1  0  0  0  0  0  0  0  0  0
   47.7460   34.4720   40.6420 O   0  0  0  0  0  0  0  0  0  0  0  0
   46.1032   36.0712   44.1960 H   0  0  0  0  0  0  0  0  0  0  0  0
   44.8048   37.3683   42.7008 H   0  0  0  0  0  0  0  0  0  0  0  0
   43.2352   36.1652   41.1611 H   0  0  0  0  0  0  0  0  0  0  0  0
   41.0944   32.2786   43.1789 H   0  0  0  0  0  0  0  0  0  0  0  0
   40.5042   34.4846   43.0020 H   0  0  0  0  0  0  0  0  0  0  0  0
   49.8783   32.6102   41.7710 H   0  0  0  0  0  0  0  0  0  0  0  0
   47.7477   29.4022   43.6305 H   0  0  0  0  0  0  0  0  0  0  0  0
   48.5635   34.6896   44.0674 H   0  0  0  0  0  0  0  0  0  0  0  0
   50.1230   36.0313   42.4385 H   0  0  0  0  0  0  0  0  0  0  0  0
   50.4534   34.7178   41.6302 H   0  0  0  0  0  0  0  0  0  0  0  0
   47.4848   36.1264   41.3593 H   0  0  0  0  0  0  0  0  0  0  0  0
   47.3437   33.6557   41.0318 H   0  0  0  0  0  0  0  0  0  0  0  0
  1  2  2  0
  4  3  1  0
  4  5  2  0
  5  1  1  0
  6  5  1  0
  7  6  2  0
  8  9  2  0
  8  7  1  0
  9  4  1  0
 10 12  1  0
 10  9  1  0
 11 12  2  0
 12 14  1  0
 12 13  1  0
 15 20  1  0
 15  1  1  0
 16 15  2  0
 17 18  2  0
 17 16  1  0
 18 19  1  0
 19 20  2  0
 21 16  1  0
 22 21  1  0
 23 22  1  0
 23 21  1  0
 24 23  1  0
  6 25  1  0
  7 26  1  0
  8 27  1  0
 13 28  1  0
 14 29  1  0
 17 30  1  0
 19 31  1  0
 21 32  1  1
 22 33  1  0
 22 34  1  0
 23 35  1  1
 24 36  1  0
M  ISO  8  25  14  26  14  27  14  28   3  29   3  30  14  31  14  32  13
M  ISO  4  33  13  34  13  35  13  36   3
M  END
>  <minimizedAffinity>  (1) 
-5.571805

>  <minimizedRMSD>  (1) 
0.181608707

$$$$
