
     RDKit          3D

 40 42  0  0  1  0  0  0  0  0999 V2000
   46.3130   33.5320   44.7910 C   0  0  0  0  0  0  0  0  0  0  0  0
   45.7820   33.9670   45.7660 O   0  0  0  0  0  0  0  0  0  0  0  0
   44.4810   31.7980   42.9940 Cl  0  0  0  0  0  0  0  0  0  0  0  0
   44.5550   33.5500   42.8740 C   0  0  0  0  0  0  0  0  0  0  0  0
   45.4280   34.2110   43.7700 C   0  0  0  0  0  0  0  0  0  0  0  0
   45.3800   35.5650   43.5730 C   0  0  0  0  0  0  0  0  0  0  0  0
   44.6850   36.2910   42.7240 C   0  0  0  0  0  0  0  0  0  0  0  0
   43.8520   35.5930   41.8730 C   0  0  0  0  0  0  0  0  0  0  0  0
   43.7800   34.2440   41.9400 C   0  0  0  0  0  0  0  0  0  0  0  0
   42.9170   33.6560   41.0470 O   0  0  0  0  0  0  0  0  0  0  0  0
   40.6550   33.0590   39.8610 O   0  0  0  0  0  0  0  0  0  0  0  0
   41.2680   33.3030   41.2140 P   0  0  0  0  0  0  0  0  0  0  0  0
   41.0970   31.9440   42.2220 O   0  0  0  0  0  0  0  0  0  0  0  0
   40.4340   34.5540   42.0000 O   0  0  0  0  0  0  0  0  0  0  0  0
   47.3240   32.7220   44.0550 C   0  0  0  0  0  0  0  0  0  0  0  0
   48.1970   33.1920   43.1850 C   0  0  0  0  0  0  0  0  0  0  0  0
   48.9870   32.2320   42.5720 C   0  0  0  0  0  0  0  0  0  0  0  0
   48.7770   30.8810   42.9430 N   0  0  0  0  0  0  0  0  0  0  0  0
   47.8900   30.4910   43.8200 C   0  0  0  0  0  0  0  0  0  0  0  0
   47.0900   31.4400   44.4410 N   0  0  0  0  0  0  0  0  0  0  0  0
   48.5000   34.5730   42.8920 C   0  0  1  0  0  0  0  0  0  0  0  0
   49.3540   35.0460   41.9550 C   0  0  0  0  0  0  0  0  0  0  0  0
   47.9280   35.0900   41.4850 C   0  0  1  0  0  0  0  0  0  0  0  0
   47.4960   34.0690   40.6040 N   0  0  0  0  0  0  0  0  0  0  0  0
   48.1010   34.3350   39.3000 C   0  0  0  0  0  0  0  0  0  0  0  0
   46.0351   36.1457   44.2391 H   0  0  0  0  0  0  0  0  0  0  0  0
   44.7630   37.3878   42.6941 H   0  0  0  0  0  0  0  0  0  0  0  0
   43.2431   36.1371   41.1360 H   0  0  0  0  0  0  0  0  0  0  0  0
   41.1329   32.2292   43.1694 H   0  0  0  0  0  0  0  0  0  0  0  0
   40.5116   34.4375   42.9801 H   0  0  0  0  0  0  0  0  0  0  0  0
   49.7473   32.5084   41.8266 H   0  0  0  0  0  0  0  0  0  0  0  0
   47.7789   29.4239   44.0629 H   0  0  0  0  0  0  0  0  0  0  0  0
   48.4490   34.7971   43.9677 H   0  0  0  0  0  0  0  0  0  0  0  0
   49.8737   35.9960   42.1485 H   0  0  0  0  0  0  0  0  0  0  0  0
   50.2546   34.6043   41.5035 H   0  0  0  0  0  0  0  0  0  0  0  0
   47.2281   35.8400   41.0880 H   0  0  0  0  0  0  0  0  0  0  0  0
   47.8016   33.1495   40.9533 H   0  0  0  0  0  0  0  0  0  0  0  0
   49.0996   34.7740   39.4418 H   0  0  0  0  0  0  0  0  0  0  0  0
   48.1908   33.3934   38.7385 H   0  0  0  0  0  0  0  0  0  0  0  0
   47.4678   35.0377   38.7385 H   0  0  0  0  0  0  0  0  0  0  0  0
  1  2  2  0
  4  3  1  0
  4  5  2  0
  5  1  1  0
  6  5  1  0
  7  6  2  0
  8  9  2  0
  8  7  1  0
  9  4  1  0
 10 12  1  0
 10  9  1  0
 11 12  2  0
 12 14  1  0
 12 13  1  0
 15 20  1  0
 15  1  1  0
 16 15  2  0
 17 18  2  0
 17 16  1  0
 18 19  1  0
 19 20  2  0
 21 16  1  0
 22 21  1  0
 23 22  1  0
 23 21  1  0
 24 23  1  0
 25 24  1  0
  6 26  1  0
  7 27  1  0
  8 28  1  0
 13 29  1  0
 14 30  1  0
 17 31  1  0
 19 32  1  0
 21 33  1  1
 22 34  1  0
 22 35  1  0
 23 36  1  1
 24 37  1  0
 25 38  1  0
 25 39  1  0
 25 40  1  0
M  ISO  8  26  14  27  14  28  14  29   3  30   3  31  14  32  14  33  13
M  ISO  7  34  13  35  13  36  13  37   5  38   8  39   8  40   8
M  END
>  <minimizedAffinity>  (1) 
-5.57720375

>  <minimizedRMSD>  (1) 
0.319581568

$$$$
