
     RDKit          3D

 28 29  0  0  0  0  0  0  0  0999 V2000
   46.0060   32.7190   45.4960 C   0  0  0  0  0  0  0  0  0  0  0  0
   44.5790   36.0340   44.6010 C   0  0  0  0  0  0  0  0  0  0  0  0
   45.1560   36.2680   43.3500 C   0  0  0  0  0  0  0  0  0  0  0  0
   46.0170   35.2900   42.8420 C   0  0  0  0  0  0  0  0  0  0  0  0
   46.2560   34.1660   43.5760 N   0  0  0  0  0  0  0  0  0  0  0  0
   45.6690   33.9800   44.7950 C   0  0  0  0  0  0  0  0  0  0  0  0
   44.8470   34.9190   45.2730 N   0  0  0  0  0  0  0  0  0  0  0  0
   46.2230   32.8690   46.9140 N   0  0  0  0  0  0  0  0  0  0  0  0
   47.2440   31.9160   47.2450 C   0  0  0  0  0  0  0  0  0  0  0  0
   47.3690   31.6190   48.7040 C   0  0  0  0  0  0  0  0  0  0  0  0
   46.0430   31.3720   49.3770 C   0  0  0  0  0  0  0  0  0  0  0  0
   44.9620   31.4190   48.3100 C   0  0  0  0  0  0  0  0  0  0  0  0
   45.0430   32.8130   47.7070 C   0  0  0  0  0  0  0  0  0  0  0  0
   46.9239   32.3104   45.0482 H   0  0  0  0  0  0  0  0  0  0  0  0
   45.1397   32.0514   45.3783 H   0  0  0  0  0  0  0  0  0  0  0  0
   43.8962   36.7799   45.0339 H   0  0  0  0  0  0  0  0  0  0  0  0
   44.9410   37.1874   42.7857 H   0  0  0  0  0  0  0  0  0  0  0  0
   46.4961   35.4260   41.8612 H   0  0  0  0  0  0  0  0  0  0  0  0
   47.0178   30.9753   46.7216 H   0  0  0  0  0  0  0  0  0  0  0  0
   48.1999   32.3634   46.9352 H   0  0  0  0  0  0  0  0  0  0  0  0
   47.9948   30.7226   48.8256 H   0  0  0  0  0  0  0  0  0  0  0  0
   47.8165   32.5040   49.1799 H   0  0  0  0  0  0  0  0  0  0  0  0
   46.0477   30.3842   49.8610 H   0  0  0  0  0  0  0  0  0  0  0  0
   45.8556   32.1355   50.1464 H   0  0  0  0  0  0  0  0  0  0  0  0
   45.1491   30.6561   47.5400 H   0  0  0  0  0  0  0  0  0  0  0  0
   43.9662   31.2144   48.7301 H   0  0  0  0  0  0  0  0  0  0  0  0
   45.0925   33.5659   48.5074 H   0  0  0  0  0  0  0  0  0  0  0  0
   44.1541   33.0216   47.0935 H   0  0  0  0  0  0  0  0  0  0  0  0
  1  8  1  0
  2  7  2  0
  3  2  1  0
  4  3  2  0
  4  5  1  0
  5  6  2  0
  6  7  1  0
  6  1  1  0
  8  9  1  0
  8 13  1  0
  9 10  1  0
 10 11  1  0
 12 11  1  0
 13 12  1  0
  1 14  1  0
  1 15  1  0
  2 16  1  0
  3 17  1  0
  4 18  1  0
  9 19  1  0
  9 20  1  0
 10 21  1  0
 10 22  1  0
 11 23  1  0
 11 24  1  0
 12 25  1  0
 12 26  1  0
 13 27  1  0
 13 28  1  0
M  ISO  8  14   8  15   8  16  14  17  14  18  14  19  13  20  13  21  13
M  ISO  7  22  13  23  13  24  13  25  13  26  13  27  13  28  13
M  END
>  <minimizedAffinity>  (1) 
-4.57315779

>  <minimizedRMSD>  (1) 
1.39445889

$$$$
