
     RDKit          3D

 22 23  0  0  0  0  0  0  0  0999 V2000
   46.7100   32.9140   46.4160 C   0  0  0  0  0  0  0  0  0  0  0  0
   46.1240   34.7590   43.2280 C   0  0  0  0  0  0  0  0  0  0  0  0
   45.0360   35.5610   43.5670 C   0  0  0  0  0  0  0  0  0  0  0  0
   44.5200   35.4650   44.8650 C   0  0  0  0  0  0  0  0  0  0  0  0
   45.1070   34.5870   45.7410 N   0  0  0  0  0  0  0  0  0  0  0  0
   46.1630   33.8320   45.3590 C   0  0  0  0  0  0  0  0  0  0  0  0
   46.6550   33.9230   44.1250 N   0  0  0  0  0  0  0  0  0  0  0  0
   46.0290   31.6030   46.4100 C   0  0  0  0  0  0  0  0  0  0  0  0
   45.5210   31.1340   47.5950 C   0  0  0  0  0  0  0  0  0  0  0  0
   44.8680   29.9450   47.7600 C   0  0  0  0  0  0  0  0  0  0  0  0
   44.6880   29.1300   46.6680 C   0  0  0  0  0  0  0  0  0  0  0  0
   45.2050   29.6090   45.4720 C   0  0  0  0  0  0  0  0  0  0  0  0
   45.8480   30.7980   45.3540 N   0  0  0  0  0  0  0  0  0  0  0  0
   47.7833   32.7586   46.2319 H   0  0  0  0  0  0  0  0  0  0  0  0
   46.5409   33.3826   47.3967 H   0  0  0  0  0  0  0  0  0  0  0  0
   46.5487   34.8145   42.2148 H   0  0  0  0  0  0  0  0  0  0  0  0
   44.5940   36.2516   42.8338 H   0  0  0  0  0  0  0  0  0  0  0  0
   43.6626   36.0801   45.1758 H   0  0  0  0  0  0  0  0  0  0  0  0
   45.6499   31.7670   48.4853 H   0  0  0  0  0  0  0  0  0  0  0  0
   44.4929   29.6453   48.7497 H   0  0  0  0  0  0  0  0  0  0  0  0
   44.1689   28.1627   46.7371 H   0  0  0  0  0  0  0  0  0  0  0  0
   45.0869   28.9904   44.5701 H   0  0  0  0  0  0  0  0  0  0  0  0
  2  3  2  0
  2  7  1  0
  3  4  1  0
  4  5  2  0
  6  5  1  0
  6  1  1  0
  7  6  2  0
  8  1  1  0
  8  9  2  0
  9 10  1  0
 11 10  2  0
 12 11  1  0
 13 12  2  0
 13  8  1  0
  1 14  1  0
  1 15  1  0
  2 16  1  0
  3 17  1  0
  4 18  1  0
  9 19  1  0
 10 20  1  0
 11 21  1  0
 12 22  1  0
M  ISO  8  14   8  15   8  16  14  17  14  18  14  19  14  20  14  21  14
M  ISO  1  22  14
M  END
>  <minimizedAffinity>  (1) 
-3.98637986

>  <minimizedRMSD>  (1) 
3.76365447

$$$$
