
     RDKit          3D

 17 17  0  0  0  0  0  0  0  0999 V2000
   44.6800   35.7510   44.5630 C   0  0  0  0  0  0  0  0  0  0  0  0
   45.5180   35.1910   43.6140 C   0  0  0  0  0  0  0  0  0  0  0  0
   46.2150   34.0430   43.9600 C   0  0  0  0  0  0  0  0  0  0  0  0
   46.0770   33.4910   45.1910 N   0  0  0  0  0  0  0  0  0  0  0  0
   45.2380   34.0780   46.0980 C   0  0  0  0  0  0  0  0  0  0  0  0
   44.5540   35.1860   45.7860 N   0  0  0  0  0  0  0  0  0  0  0  0
   45.1290   33.4310   47.4230 C   0  0  0  0  0  0  0  0  0  0  0  0
   46.1100   31.9070   47.3540 S   0  0  0  0  0  0  0  0  0  0  0  0
   45.9560   31.0850   48.9810 C   0  0  0  0  0  0  0  0  0  0  0  0
   45.2930   31.9000   49.8810 F   0  0  0  0  0  0  0  0  0  0  0  0
   45.2440   29.9050   48.9010 F   0  0  0  0  0  0  0  0  0  0  0  0
   47.2030   30.7980   49.4960 F   0  0  0  0  0  0  0  0  0  0  0  0
   44.1125   36.6618   44.3211 H   0  0  0  0  0  0  0  0  0  0  0  0
   45.6276   35.6424   42.6169 H   0  0  0  0  0  0  0  0  0  0  0  0
   46.8881   33.5744   43.2269 H   0  0  0  0  0  0  0  0  0  0  0  0
   45.5237   34.0989   48.2028 H   0  0  0  0  0  0  0  0  0  0  0  0
   44.0791   33.2104   47.6660 H   0  0  0  0  0  0  0  0  0  0  0  0
  1  6  2  0
  2  3  2  0
  2  1  1  0
  3  4  1  0
  4  5  2  0
  5  7  1  0
  6  5  1  0
  8  7  1  0
  8  9  1  0
  9 12  1  0
  9 10  1  0
 11  9  1  0
  1 13  1  0
  2 14  1  0
  3 15  1  0
  7 16  1  0
  7 17  1  0
M  ISO  5  13  14  14  14  15  14  16   8  17   8
M  END
>  <minimizedAffinity>  (1) 
-3.90967488

>  <minimizedRMSD>  (1) 
1.70110857

$$$$
