
     RDKit          3D

 42 46  0  0  0  0  0  0  0  0999 V2000
   44.4200   36.1730   44.5060 C   0  0  0  0  0  0  0  0  0  0  0  0
   45.2180   36.0670   43.3490 C   0  0  0  0  0  0  0  0  0  0  0  0
   46.1290   35.0110   43.2370 C   0  0  0  0  0  0  0  0  0  0  0  0
   46.2290   34.0960   44.2610 N   0  0  0  0  0  0  0  0  0  0  0  0
   45.4370   34.2440   45.3550 C   0  0  0  0  0  0  0  0  0  0  0  0
   44.5560   35.2630   45.4680 N   0  0  0  0  0  0  0  0  0  0  0  0
   46.9680   34.8380   42.1010 N   0  0  0  0  0  0  0  0  0  0  0  0
   48.2600   35.2630   42.0200 C   0  0  0  0  0  0  0  0  0  0  0  0
   48.7380   34.9230   40.7910 N   0  0  0  0  0  0  0  0  0  0  0  0
   47.7480   34.2870   40.1100 C   0  0  0  0  0  0  0  0  0  0  0  0
   47.6850   33.7330   38.8310 C   0  0  0  0  0  0  0  0  0  0  0  0
   46.5590   33.1630   38.4210 N   0  0  0  0  0  0  0  0  0  0  0  0
   45.4720   33.1090   39.2230 C   0  0  0  0  0  0  0  0  0  0  0  0
   45.5350   33.6480   40.4660 N   0  0  0  0  0  0  0  0  0  0  0  0
   46.6470   34.2400   40.9380 C   0  0  0  0  0  0  0  0  0  0  0  0
   48.8510   33.8080   38.0130 N   0  0  0  0  0  0  0  0  0  0  0  0
   45.6030   33.2140   46.4140 C   0  0  0  0  0  0  0  0  0  0  0  0
   46.7390   31.9720   45.7850 S   0  0  0  0  0  0  0  0  0  0  0  0
   47.6830   31.2410   47.1080 C   0  0  0  0  0  0  0  0  0  0  0  0
   47.9090   32.0060   48.2310 C   0  0  0  0  0  0  0  0  0  0  0  0
   48.6320   31.4470   49.2430 C   0  0  0  0  0  0  0  0  0  0  0  0
   49.1410   30.1430   49.1700 C   0  0  0  0  0  0  0  0  0  0  0  0
   49.8510   29.6510   50.2100 N   0  0  0  0  0  0  0  0  0  0  0  0
   50.3510   28.3980   50.1640 C   0  0  0  0  0  0  0  0  0  0  0  0
   50.1280   27.6300   49.0430 C   0  0  0  0  0  0  0  0  0  0  0  0
   49.4060   28.1420   47.9940 C   0  0  0  0  0  0  0  0  0  0  0  0
   48.8780   29.4350   48.0160 C   0  0  0  0  0  0  0  0  0  0  0  0
   48.1540   29.9610   46.9770 C   0  0  0  0  0  0  0  0  0  0  0  0
   43.6964   36.9946   44.6123 H   0  0  0  0  0  0  0  0  0  0  0  0
   45.1254   36.8079   42.5413 H   0  0  0  0  0  0  0  0  0  0  0  0
   48.8187   35.7883   42.8086 H   0  0  0  0  0  0  0  0  0  0  0  0
   44.5453   32.6324   38.8708 H   0  0  0  0  0  0  0  0  0  0  0  0
   48.8403   33.4095   37.0633 H   0  0  0  0  0  0  0  0  0  0  0  0
   49.7037   34.2607   38.3720 H   0  0  0  0  0  0  0  0  0  0  0  0
   46.0156   33.6740   47.3241 H   0  0  0  0  0  0  0  0  0  0  0  0
   44.6340   32.7598   46.6684 H   0  0  0  0  0  0  0  0  0  0  0  0
   47.5199   33.0319   48.3087 H   0  0  0  0  0  0  0  0  0  0  0  0
   48.8227   32.0407   50.1492 H   0  0  0  0  0  0  0  0  0  0  0  0
   50.9283   27.9962   51.0098 H   0  0  0  0  0  0  0  0  0  0  0  0
   50.5282   26.6069   48.9883 H   0  0  0  0  0  0  0  0  0  0  0  0
   49.2377   27.5136   47.1070 H   0  0  0  0  0  0  0  0  0  0  0  0
   47.9576   29.3742   46.0676 H   0  0  0  0  0  0  0  0  0  0  0  0
  1  6  2  0
  2  1  1  0
  3  2  2  0
  3  4  1  0
  4  5  2  0
  5  6  1  0
  5 17  1  0
  7  3  1  0
  8  7  1  0
  9  8  2  0
 10  9  1  0
 10 15  2  0
 11 10  1  0
 12 11  2  0
 12 13  1  0
 13 14  2  0
 14 15  1  0
 15  7  1  0
 16 11  1  0
 18 17  1  0
 18 19  1  0
 19 20  2  0
 20 21  1  0
 22 21  2  0
 22 23  1  0
 24 23  2  0
 25 24  1  0
 26 27  1  0
 26 25  2  0
 27 22  1  0
 28 19  1  0
 28 27  2  0
  1 29  1  0
  2 30  1  0
  8 31  1  0
 13 32  1  0
 16 33  1  0
 16 34  1  0
 17 35  1  0
 17 36  1  0
 20 37  1  0
 21 38  1  0
 24 39  1  0
 25 40  1  0
 26 41  1  0
 28 42  1  0
M  ISO  8  29  14  30  14  31  14  32  14  35   8  36   8  37  14  38  14
M  ISO  4  39  14  40  14  41  14  42  14
M  END
>  <minimizedAffinity>  (1) 
-6.820961

>  <minimizedRMSD>  (1) 
0.468300343

$$$$
