
     RDKit          3D

 45 48  0  0  0  0  0  0  0  0999 V2000
   46.7570   31.5730   46.2990 S   0  0  0  0  0  0  0  0  0  0  0  0
   47.8110   30.9370   47.5860 C   0  0  0  0  0  0  0  0  0  0  0  0
   48.1720   31.7970   48.6050 C   0  0  0  0  0  0  0  0  0  0  0  0
   48.9790   31.2900   49.5780 C   0  0  0  0  0  0  0  0  0  0  0  0
   49.4450   29.9870   49.6010 C   0  0  0  0  0  0  0  0  0  0  0  0
   50.2410   29.5490   50.5940 N   0  0  0  0  0  0  0  0  0  0  0  0
   50.6900   28.2770   50.6030 C   0  0  0  0  0  0  0  0  0  0  0  0
   50.3300   27.4290   49.5900 C   0  0  0  0  0  0  0  0  0  0  0  0
   49.5200   27.8580   48.5740 C   0  0  0  0  0  0  0  0  0  0  0  0
   49.0390   29.1820   48.5430 C   0  0  0  0  0  0  0  0  0  0  0  0
   48.2220   29.6170   47.5140 C   0  0  0  0  0  0  0  0  0  0  0  0
   45.7120   32.9050   46.9160 C   0  0  0  0  0  0  0  0  0  0  0  0
   44.5390   35.7700   44.8530 C   0  0  0  0  0  0  0  0  0  0  0  0
   45.2740   35.5660   43.6900 C   0  0  0  0  0  0  0  0  0  0  0  0
   46.1500   34.4800   43.6050 C   0  0  0  0  0  0  0  0  0  0  0  0
   46.2640   33.6330   44.6840 N   0  0  0  0  0  0  0  0  0  0  0  0
   45.5240   33.8690   45.8100 C   0  0  0  0  0  0  0  0  0  0  0  0
   44.6820   34.9210   45.8810 N   0  0  0  0  0  0  0  0  0  0  0  0
   46.9970   34.1340   42.4330 C   0  0  0  0  0  0  0  0  0  0  0  0
   46.3380   34.5460   41.1170 C   0  0  0  0  0  0  0  0  0  0  0  0
   47.2440   33.9440   40.0400 C   0  0  0  0  0  0  0  0  0  0  0  0
   48.4730   34.8080   39.9990 C   0  0  0  0  0  0  0  0  0  0  0  0
   48.7210   35.5530   41.2890 C   0  0  0  0  0  0  0  0  0  0  0  0
   48.3810   34.7300   42.5090 C   0  0  0  0  0  0  0  0  0  0  0  0
   47.8246   32.8404   48.6294 H   0  0  0  0  0  0  0  0  0  0  0  0
   49.2796   31.9589   50.3979 H   0  0  0  0  0  0  0  0  0  0  0  0
   51.3399   27.9240   51.4173 H   0  0  0  0  0  0  0  0  0  0  0  0
   50.6959   26.3916   49.5930 H   0  0  0  0  0  0  0  0  0  0  0  0
   49.2407   27.1601   47.7709 H   0  0  0  0  0  0  0  0  0  0  0  0
   47.9180   28.9548   46.6899 H   0  0  0  0  0  0  0  0  0  0  0  0
   44.7387   32.5028   47.2335 H   0  0  0  0  0  0  0  0  0  0  0  0
   46.1793   33.3951   47.7829 H   0  0  0  0  0  0  0  0  0  0  0  0
   43.8460   36.6209   44.9289 H   0  0  0  0  0  0  0  0  0  0  0  0
   45.1664   36.2565   42.8405 H   0  0  0  0  0  0  0  0  0  0  0  0
   47.0990   33.0391   42.4604 H   0  0  0  0  0  0  0  0  0  0  0  0
   45.3200   34.1354   41.0449 H   0  0  0  0  0  0  0  0  0  0  0  0
   46.2352   35.6369   41.0202 H   0  0  0  0  0  0  0  0  0  0  0  0
   47.5128   32.9099   40.3015 H   0  0  0  0  0  0  0  0  0  0  0  0
   46.7409   33.9140   39.0622 H   0  0  0  0  0  0  0  0  0  0  0  0
   49.3434   34.1679   39.7923 H   0  0  0  0  0  0  0  0  0  0  0  0
   48.3168   35.5607   39.2122 H   0  0  0  0  0  0  0  0  0  0  0  0
   49.7842   35.8310   41.3366 H   0  0  0  0  0  0  0  0  0  0  0  0
   48.0696   36.4394   41.2926 H   0  0  0  0  0  0  0  0  0  0  0  0
   48.4395   35.3752   43.3980 H   0  0  0  0  0  0  0  0  0  0  0  0
   49.1010   33.9003   42.5653 H   0  0  0  0  0  0  0  0  0  0  0  0
  1 12  1  0
  1  2  1  0
  2  3  2  0
  3  4  1  0
  4  5  2  0
  5  6  1  0
  6  7  2  0
  8  7  1  0
  9  8  2  0
 10  9  1  0
 10  5  1  0
 11  2  1  0
 11 10  2  0
 13 18  2  0
 14 13  1  0
 15 14  2  0
 15 16  1  0
 16 17  2  0
 17 18  1  0
 17 12  1  0
 19 24  1  0
 19 15  1  0
 20 19  1  0
 21 20  1  0
 22 21  1  0
 22 23  1  0
 23 24  1  0
  3 25  1  0
  4 26  1  0
  7 27  1  0
  8 28  1  0
  9 29  1  0
 11 30  1  0
 12 31  1  0
 12 32  1  0
 13 33  1  0
 14 34  1  0
 19 35  1  0
 20 36  1  0
 20 37  1  0
 21 38  1  0
 21 39  1  0
 22 40  1  0
 22 41  1  0
 23 42  1  0
 23 43  1  0
 24 44  1  0
 24 45  1  0
M  ISO  8  25  14  26  14  27  14  28  14  29  14  30  14  31   8  32   8
M  ISO  8  33  14  34  14  35  13  36  13  37  13  38  13  39  13  40  13
M  ISO  5  41  13  42  13  43  13  44  13  45  13
M  END
>  <minimizedAffinity>  (1) 
-6.76275921

>  <minimizedRMSD>  (1) 
0.587512016

$$$$
