
     RDKit          3D

 43 46  0  0  0  0  0  0  0  0999 V2000
   45.6680   33.0350   46.8000 C   0  0  0  0  0  0  0  0  0  0  0  0
   44.5370   35.8200   44.6020 C   0  0  0  0  0  0  0  0  0  0  0  0
   45.3870   35.6640   43.5110 C   0  0  0  0  0  0  0  0  0  0  0  0
   46.3270   34.6280   43.5310 C   0  0  0  0  0  0  0  0  0  0  0  0
   46.3930   33.7910   44.6120 N   0  0  0  0  0  0  0  0  0  0  0  0
   45.5420   33.9800   45.6570 C   0  0  0  0  0  0  0  0  0  0  0  0
   44.6310   34.9820   45.6460 N   0  0  0  0  0  0  0  0  0  0  0  0
   47.2690   34.3160   42.5170 N   0  0  0  0  0  0  0  0  0  0  0  0
   47.0540   33.4540   41.3880 C   0  0  0  0  0  0  0  0  0  0  0  0
   47.2220   34.1310   40.0580 C   0  0  0  0  0  0  0  0  0  0  0  0
   48.6190   34.5440   39.9810 N   0  0  0  0  0  0  0  0  0  0  0  0
   48.8080   35.4890   41.0620 C   0  0  0  0  0  0  0  0  0  0  0  0
   48.6280   34.8020   42.4140 C   0  0  0  0  0  0  0  0  0  0  0  0
   46.5950   31.6140   46.2040 S   0  0  0  0  0  0  0  0  0  0  0  0
   47.6690   30.9730   47.4660 C   0  0  0  0  0  0  0  0  0  0  0  0
   48.0430   31.8260   48.4820 C   0  0  0  0  0  0  0  0  0  0  0  0
   48.8690   31.3390   49.4560 C   0  0  0  0  0  0  0  0  0  0  0  0
   49.3380   30.0290   49.4530 C   0  0  0  0  0  0  0  0  0  0  0  0
   50.1530   29.5900   50.4350 N   0  0  0  0  0  0  0  0  0  0  0  0
   50.6150   28.3220   50.4460 C   0  0  0  0  0  0  0  0  0  0  0  0
   50.2470   27.4670   49.4380 C   0  0  0  0  0  0  0  0  0  0  0  0
   49.4080   27.9130   48.4240 C   0  0  0  0  0  0  0  0  0  0  0  0
   48.9230   29.2270   48.4030 C   0  0  0  0  0  0  0  0  0  0  0  0
   48.0960   29.6670   47.4040 C   0  0  0  0  0  0  0  0  0  0  0  0
   46.2054   33.5158   47.6307 H   0  0  0  0  0  0  0  0  0  0  0  0
   44.6778   32.7315   47.1707 H   0  0  0  0  0  0  0  0  0  0  0  0
   43.7904   36.6278   44.6085 H   0  0  0  0  0  0  0  0  0  0  0  0
   45.3209   36.3432   42.6483 H   0  0  0  0  0  0  0  0  0  0  0  0
   47.7728   32.6234   41.4459 H   0  0  0  0  0  0  0  0  0  0  0  0
   46.0085   33.1162   41.4418 H   0  0  0  0  0  0  0  0  0  0  0  0
   46.9863   33.4316   39.2424 H   0  0  0  0  0  0  0  0  0  0  0  0
   46.5450   34.9924   39.9601 H   0  0  0  0  0  0  0  0  0  0  0  0
   49.2408   33.7317   40.1011 H   0  0  0  0  0  0  0  0  0  0  0  0
   49.8230   35.9087   41.0020 H   0  0  0  0  0  0  0  0  0  0  0  0
   48.0592   36.2894   40.9684 H   0  0  0  0  0  0  0  0  0  0  0  0
   49.3288   33.9581   42.4953 H   0  0  0  0  0  0  0  0  0  0  0  0
   48.8298   35.5175   43.2248 H   0  0  0  0  0  0  0  0  0  0  0  0
   47.6876   32.8667   48.5082 H   0  0  0  0  0  0  0  0  0  0  0  0
   49.1747   32.0084   50.2736 H   0  0  0  0  0  0  0  0  0  0  0  0
   51.2785   27.9782   51.2532 H   0  0  0  0  0  0  0  0  0  0  0  0
   50.6154   26.4305   49.4325 H   0  0  0  0  0  0  0  0  0  0  0  0
   49.1186   27.2195   47.6207 H   0  0  0  0  0  0  0  0  0  0  0  0
   47.7855   29.0022   46.5844 H   0  0  0  0  0  0  0  0  0  0  0  0
  2  7  2  0
  3  4  2  0
  3  2  1  0
  4  5  1  0
  5  6  2  0
  6  1  1  0
  7  6  1  0
  8  4  1  0
  9  8  1  0
 10  9  1  0
 11 10  1  0
 11 12  1  0
 12 13  1  0
 13  8  1  0
 14  1  1  0
 14 15  1  0
 15 16  2  0
 16 17  1  0
 18 17  2  0
 18 19  1  0
 19 20  2  0
 21 20  1  0
 22 21  2  0
 23 22  1  0
 23 18  1  0
 24 15  1  0
 24 23  2  0
  1 25  1  0
  1 26  1  0
  2 27  1  0
  3 28  1  0
  9 29  1  0
  9 30  1  0
 10 31  1  0
 10 32  1  0
 11 33  1  0
 12 34  1  0
 12 35  1  0
 13 36  1  0
 13 37  1  0
 16 38  1  0
 17 39  1  0
 20 40  1  0
 21 41  1  0
 22 42  1  0
 24 43  1  0
M  ISO  8  25   8  26   8  27  14  28  14  29  13  30  13  31  13  32  13
M  ISO  8  33   5  34  13  35  13  36  13  37  13  38  14  39  14  40  14
M  ISO  3  41  14  42  14  43  14
M  END
>  <minimizedAffinity>  (1) 
-6.22491884

>  <minimizedRMSD>  (1) 
0.34319073

$$$$
