
     RDKit          3D

 15 15  0  0  0  0  0  0  0  0999 V2000
   44.8190   35.7360   44.2800 C   0  0  0  0  0  0  0  0  0  0  0  0
   45.7890   35.0410   43.5200 C   0  0  0  0  0  0  0  0  0  0  0  0
   46.4020   33.9220   44.1400 C   0  0  0  0  0  0  0  0  0  0  0  0
   46.0250   33.6000   45.3950 N   0  0  0  0  0  0  0  0  0  0  0  0
   45.0890   34.2950   46.0900 C   0  0  0  0  0  0  0  0  0  0  0  0
   44.4910   35.3570   45.5300 N   0  0  0  0  0  0  0  0  0  0  0  0
   45.2430   32.4940   47.9650 C   0  0  0  0  0  0  0  0  0  0  0  0
   45.8560   31.8370   47.0650 O   0  0  0  0  0  0  0  0  0  0  0  0
   44.8800   33.7450   47.3870 N   0  0  0  0  0  0  0  0  0  0  0  0
   47.6330   32.9980   43.2400 S   0  0  0  0  0  0  0  0  0  0  0  0
   44.3188   36.6102   43.8377 H   0  0  0  0  0  0  0  0  0  0  0  0
   46.0546   35.3528   42.4991 H   0  0  0  0  0  0  0  0  0  0  0  0
   45.0333   32.1607   48.9921 H   0  0  0  0  0  0  0  0  0  0  0  0
   44.3702   34.3693   48.0283 H   0  0  0  0  0  0  0  0  0  0  0  0
   48.4697   32.3700   44.1245 H   0  0  0  0  0  0  0  0  0  0  0  0
  1  6  2  0
  2  3  2  0
  2  1  1  0
  3  4  1  0
  4  5  2  0
  5  9  1  0
  6  5  1  0
  8  7  2  0
  9  7  1  0
 10  3  1  0
  1 11  1  0
  2 12  1  0
  7 13  1  0
  9 14  1  0
 10 15  1  0
M  ISO  4  11  14  12  14  13   6  15  11
M  END
>  <minimizedAffinity>  (1) 
-4.18848562

>  <minimizedRMSD>  (1) 
1.51803923

$$$$
