
     RDKit          3D

 14 14  0  0  0  0  0  0  0  0999 V2000
   44.5350   35.9740   44.5330 C   0  0  0  0  0  0  0  0  0  0  0  0
   45.2410   35.8750   43.3080 C   0  0  0  0  0  0  0  0  0  0  0  0
   46.1600   34.8080   43.1740 C   0  0  0  0  0  0  0  0  0  0  0  0
   46.3120   33.9440   44.2240 N   0  0  0  0  0  0  0  0  0  0  0  0
   45.6140   34.0890   45.3620 C   0  0  0  0  0  0  0  0  0  0  0  0
   44.7310   35.0900   45.5280 N   0  0  0  0  0  0  0  0  0  0  0  0
   47.0730   34.6390   41.6550 S   0  0  0  0  0  0  0  0  0  0  0  0
   45.8150   33.1130   46.4890 C   0  0  0  0  0  0  0  0  0  0  0  0
   43.8116   36.7908   44.6731 H   0  0  0  0  0  0  0  0  0  0  0  0
   45.0809   36.5982   42.4948 H   0  0  0  0  0  0  0  0  0  0  0  0
   48.3908   34.3951   41.9390 H   0  0  0  0  0  0  0  0  0  0  0  0
   45.7073   33.6361   47.4507 H   0  0  0  0  0  0  0  0  0  0  0  0
   45.0627   32.3135   46.4202 H   0  0  0  0  0  0  0  0  0  0  0  0
   46.8220   32.6758   46.4202 H   0  0  0  0  0  0  0  0  0  0  0  0
  1  6  2  0
  2  1  1  0
  3  2  2  0
  3  4  1  0
  4  5  2  0
  5  6  1  0
  5  8  1  0
  7  3  1  0
  1  9  1  0
  2 10  1  0
  7 11  1  0
  8 12  1  0
  8 13  1  0
  8 14  1  0
M  ISO  6   9  14  10  14  11  11  12   8  13   8  14   8
M  END
>  <minimizedAffinity>  (1) 
-3.30637693

>  <minimizedRMSD>  (1) 
0.0843366757

$$$$
