
     RDKit          3D

 36 39  0  0  0  0  0  0  0  0999 V2000
   46.7439   32.5785   45.0631 C   0  0  2  0  0  0  0  0  0  0  0  0
   47.3616   31.4683   44.9358 N   0  0  0  0  0  0  0  0  0  0  0  0
   47.3720   30.2351   44.7015 C   0  0  0  0  0  0  0  0  0  0  0  0
   47.8389   30.1116   45.9836 N   0  0  0  0  0  0  0  0  0  0  0  0
   47.1002   30.8657   46.8660 C   0  0  0  0  0  0  0  0  0  0  0  0
   46.9752   30.3221   48.1780 C   0  0  0  0  0  0  0  0  0  0  0  0
   46.2105   31.0074   49.0409 C   0  0  0  0  0  0  0  0  0  0  0  0
   45.5620   32.1611   48.7484 C   0  0  0  0  0  0  0  0  0  0  0  0
   45.7762   32.5735   47.4349 C   0  0  0  0  0  0  0  0  0  0  0  0
   46.5110   32.0507   46.3725 C   0  0  0  0  0  0  0  0  0  0  0  0
   44.3690   35.4114   45.2447 C   0  0  0  0  0  0  0  0  0  0  0  0
   44.1626   35.5299   43.8567 C   0  0  0  0  0  0  0  0  0  0  0  0
   44.8283   34.6349   43.0398 C   0  0  0  0  0  0  0  0  0  0  0  0
   45.6214   33.7226   43.6477 N   0  0  0  0  0  0  0  0  0  0  0  0
   45.8111   33.6228   44.9939 C   0  0  0  0  0  0  0  0  0  0  0  0
   45.1666   34.4756   45.6613 N   0  0  0  0  0  0  0  0  0  0  0  0
   44.5734   34.7737   41.3030 S   0  0  0  0  0  0  0  0  0  0  0  0
   47.6359   33.3320   45.3745 H   0  0  0  0  0  0  0  0  0  0  0  0
   48.1636   31.7394   44.2174 H   0  0  0  0  0  0  0  0  0  0  0  0
   48.0542   29.6604   43.9970 H   0  0  0  0  0  0  0  0  0  0  0  0
   46.4083   29.7036   44.5458 H   0  0  0  0  0  0  0  0  0  0  0  0
   48.6753   29.4968   46.2532 H   0  0  0  0  0  0  0  0  0  0  0  0
   47.4606   29.4176   48.4826 H   0  0  0  0  0  0  0  0  0  0  0  0
   46.1235   30.5737   50.0551 H   0  0  0  0  0  0  0  0  0  0  0  0
   44.9837   32.6322   49.4792 H   0  0  0  0  0  0  0  0  0  0  0  0
   45.2025   33.4963   47.3563 H   0  0  0  0  0  0  0  0  0  0  0  0
   43.8932   36.0630   45.9620 H   0  0  0  0  0  0  0  0  0  0  0  0
   43.5027   36.3053   43.5109 H   0  0  0  0  0  0  0  0  0  0  0  0
   43.4437   36.1267   41.0078 C   0  0  0  0  0  0  0  0  0  0  0  0
   42.7125   37.0914   41.7092 C   0  0  0  0  0  0  0  0  0  0  0  0
   42.8655   37.0107   42.7773 H   0  0  0  0  0  0  0  0  0  0  0  0
   42.0509   37.8108   40.8037 N   0  0  0  0  0  0  0  0  0  0  0  0
   41.4528   38.5802   41.1787 H   0  0  0  0  0  0  0  0  0  0  0  0
   42.3136   37.3655   39.5613 C   0  0  0  0  0  0  0  0  0  0  0  0
   41.8762   37.8125   38.6746 H   0  0  0  0  0  0  0  0  0  0  0  0
   43.1798   36.3176   39.6817 N   0  0  0  0  0  0  0  0  0  0  0  0
  1 15  1  0
  1 10  1  0
  2  1  1  0
  3  2  1  0
  3  4  1  0
  4  5  1  0
  5  6  2  0
  6  7  1  0
  8  7  2  0
  9  8  1  0
 10  5  1  0
 10  9  2  0
 11 16  2  0
 12 11  1  0
 13 14  1  0
 13 12  2  0
 14 15  2  0
 15 16  1  0
 17 13  1  0
  1 18  1  1
  2 19  1  0
  3 20  1  0
  3 21  1  0
  4 22  1  0
  6 23  1  0
  7 24  1  0
  8 25  1  0
  9 26  1  0
 11 27  1  0
 12 28  1  0
 29 30  2  0
 30 31  1  0
 30 32  1  0
 32 33  1  0
 32 34  1  0
 34 35  1  0
 34 36  2  0
 36 29  1  0
 17 29  1  0
M  END
>  <DihAtoms>  (1) 
12,16,28,29

>  <DihDeg>  (1) 
89.9998022618416

$$$$
