
     RDKit          3D

 38 41  0  0  0  0  0  0  0  0999 V2000
   44.7650   33.2940   41.1360 Cl  0  0  0  0  0  0  0  0  0  0  0  0
   46.3180   34.0530   40.9560 C   0  0  0  0  0  0  0  0  0  0  0  0
   46.8610   34.7450   42.0150 C   0  0  0  0  0  0  0  0  0  0  0  0
   48.1020   35.3710   41.9190 C   0  0  0  0  0  0  0  0  0  0  0  0
   48.7380   35.2510   40.7090 C   0  0  0  0  0  0  0  0  0  0  0  0
   48.1990   34.5680   39.6660 C   0  0  0  0  0  0  0  0  0  0  0  0
   46.9690   33.9500   39.7670 C   0  0  0  0  0  0  0  0  0  0  0  0
   46.5290   33.2570   38.5560 C   0  0  0  0  0  0  0  0  0  0  0  0
   47.3110   33.3580   37.4080 C   0  0  0  0  0  0  0  0  0  0  0  0
   46.3570   32.3350   36.1860 S   0  0  0  0  0  0  0  0  0  0  0  0
   45.0500   31.9610   37.5030 C   0  0  0  0  0  0  0  0  0  0  0  0
   45.4720   32.5240   38.3680 N   0  0  0  0  0  0  0  0  0  0  0  0
   43.9640   31.1340   37.0970 N   0  0  0  0  0  0  0  0  0  0  0  0
   43.9320   29.9120   36.3380 C   0  0  0  0  0  0  0  0  0  0  0  0
   42.5510   29.9920   35.6820 C   0  0  0  0  0  0  0  0  0  0  0  0
   41.7120   30.4390   36.8810 C   0  0  0  0  0  0  0  0  0  0  0  0
   42.6380   31.5060   37.4630 C   0  0  0  0  0  0  0  0  0  0  0  0
   45.6010   33.9780   45.4010 C   0  0  0  0  0  0  0  0  0  0  0  0
   44.7040   35.0340   45.6290 C   0  0  0  0  0  0  0  0  0  0  0  0
   44.5410   35.9800   44.6400 C   0  0  0  0  0  0  0  0  0  0  0  0
   45.2450   35.8640   43.4910 N   0  0  0  0  0  0  0  0  0  0  0  0
   46.1210   34.8290   43.2760 C   0  0  0  0  0  0  0  0  0  0  0  0
   46.2880   33.8970   44.2370 N   0  0  0  0  0  0  0  0  0  0  0  0
   48.5438   35.9261   42.7596 H   0  0  0  0  0  0  0  0  0  0  0  0
   49.7216   35.7259   40.5788 H   0  0  0  0  0  0  0  0  0  0  0  0
   48.7555   34.5060   38.7192 H   0  0  0  0  0  0  0  0  0  0  0  0
   48.2542   33.9048   37.2620 H   0  0  0  0  0  0  0  0  0  0  0  0
   44.7332   29.8865   35.5847 H   0  0  0  0  0  0  0  0  0  0  0  0
   44.0882   29.0062   36.9422 H   0  0  0  0  0  0  0  0  0  0  0  0
   42.5277   30.7324   34.8688 H   0  0  0  0  0  0  0  0  0  0  0  0
   42.2125   29.0626   35.2007 H   0  0  0  0  0  0  0  0  0  0  0  0
   40.7456   30.8619   36.5692 H   0  0  0  0  0  0  0  0  0  0  0  0
   41.4317   29.6356   37.5782 H   0  0  0  0  0  0  0  0  0  0  0  0
   42.5407   31.5373   38.5582 H   0  0  0  0  0  0  0  0  0  0  0  0
   42.3847   32.5051   37.0788 H   0  0  0  0  0  0  0  0  0  0  0  0
   45.7469   33.2099   46.1748 H   0  0  0  0  0  0  0  0  0  0  0  0
   44.1451   35.1045   46.5738 H   0  0  0  0  0  0  0  0  0  0  0  0
   43.8458   36.8203   44.7836 H   0  0  0  0  0  0  0  0  0  0  0  0
  2  1  1  0
  2  3  2  0
  3 22  1  0
  4  3  1  0
  5  4  2  0
  6  7  2  0
  6  5  1  0
  7  2  1  0
  8  7  1  0
  9  8  2  0
 10  9  1  0
 10 11  1  0
 11 12  2  0
 12  8  1  0
 13 17  1  0
 13 11  1  0
 14 13  1  0
 15 14  1  0
 15 16  1  0
 16 17  1  0
 18 19  2  0
 20 19  1  0
 21 20  2  0
 22 21  1  0
 22 23  2  0
 23 18  1  0
  4 24  1  0
  5 25  1  0
  6 26  1  0
  9 27  1  0
 14 28  1  0
 14 29  1  0
 15 30  1  0
 15 31  1  0
 16 32  1  0
 16 33  1  0
 17 34  1  0
 17 35  1  0
 18 36  1  0
 19 37  1  0
 20 38  1  0
M  ISO  8  24  14  25  14  26  14  27  14  28  13  29  13  30  13  31  13
M  ISO  7  32  13  33  13  34  13  35  13  36  14  37  14  38  14
M  END
>  <minimizedAffinity>  (1) 
-6.17806292

>  <minimizedRMSD>  (1) 
1.07941711

$$$$
