
     RDKit          3D

 36 39  0  0  0  0  0  0  0  0999 V2000
   46.7386   32.5739   45.0613 C   0  0  2  0  0  0  0  0  0  0  0  0
   47.3555   31.4650   44.9335 N   0  0  0  0  0  0  0  0  0  0  0  0
   47.3721   30.2326   44.7002 C   0  0  0  0  0  0  0  0  0  0  0  0
   47.8402   30.1127   45.9845 N   0  0  0  0  0  0  0  0  0  0  0  0
   47.1027   30.8670   46.8649 C   0  0  0  0  0  0  0  0  0  0  0  0
   46.9806   30.3283   48.1804 C   0  0  0  0  0  0  0  0  0  0  0  0
   46.2157   31.0129   49.0417 C   0  0  0  0  0  0  0  0  0  0  0  0
   45.5640   32.1576   48.7540 C   0  0  0  0  0  0  0  0  0  0  0  0
   45.7732   32.5709   47.4345 C   0  0  0  0  0  0  0  0  0  0  0  0
   46.5081   32.0485   46.3699 C   0  0  0  0  0  0  0  0  0  0  0  0
   44.3673   35.4108   45.2472 C   0  0  0  0  0  0  0  0  0  0  0  0
   44.1634   35.5315   43.8568 C   0  0  0  0  0  0  0  0  0  0  0  0
   44.8281   34.6378   43.0384 C   0  0  0  0  0  0  0  0  0  0  0  0
   45.6189   33.7237   43.6488 N   0  0  0  0  0  0  0  0  0  0  0  0
   45.8067   33.6211   44.9938 C   0  0  0  0  0  0  0  0  0  0  0  0
   45.1628   34.4733   45.6622 N   0  0  0  0  0  0  0  0  0  0  0  0
   44.5860   34.7775   41.2998 S   0  0  0  0  0  0  0  0  0  0  0  0
   47.6311   33.3287   45.3708 H   0  0  0  0  0  0  0  0  0  0  0  0
   48.1641   31.7391   44.2234 H   0  0  0  0  0  0  0  0  0  0  0  0
   48.0599   29.6588   44.0022 H   0  0  0  0  0  0  0  0  0  0  0  0
   46.4129   29.6924   44.5481 H   0  0  0  0  0  0  0  0  0  0  0  0
   48.6776   29.4994   46.2554 H   0  0  0  0  0  0  0  0  0  0  0  0
   47.4703   29.4252   48.4857 H   0  0  0  0  0  0  0  0  0  0  0  0
   46.1325   30.5816   50.0574 H   0  0  0  0  0  0  0  0  0  0  0  0
   44.9844   32.6332   49.4782 H   0  0  0  0  0  0  0  0  0  0  0  0
   45.1946   33.4923   47.3536 H   0  0  0  0  0  0  0  0  0  0  0  0
   43.8954   36.0595   45.9889 H   0  0  0  0  0  0  0  0  0  0  0  0
   43.5008   36.3150   43.5236 H   0  0  0  0  0  0  0  0  0  0  0  0
   45.7633   35.8463   40.4680 C   0  0  0  0  0  0  0  0  0  0  0  0
   47.1907   35.4377   40.4143 C   0  0  0  0  0  0  0  0  0  0  0  0
   46.7701   36.5119   41.3993 C   0  0  0  0  0  0  0  0  0  0  0  0
   45.3431   36.4096   39.6287 H   0  0  0  0  0  0  0  0  0  0  0  0
   47.7481   35.7631   39.5114 H   0  0  0  0  0  0  0  0  0  0  0  0
   47.4788   34.4350   40.8099 H   0  0  0  0  0  0  0  0  0  0  0  0
   46.7718   36.2405   42.4718 H   0  0  0  0  0  0  0  0  0  0  0  0
   47.0075   37.5599   41.1208 H   0  0  0  0  0  0  0  0  0  0  0  0
  1 15  1  0
  1 10  1  0
  2  1  1  0
  3  2  1  0
  3  4  1  0
  4  5  1  0
  5  6  2  0
  6  7  1  0
  8  7  2  0
  9  8  1  0
 10  5  1  0
 10  9  2  0
 11 16  2  0
 12 11  1  0
 13 14  1  0
 13 12  2  0
 14 15  2  0
 15 16  1  0
 17 13  1  0
  1 18  1  1
  2 19  1  0
  3 20  1  0
  3 21  1  0
  4 22  1  0
  6 23  1  0
  7 24  1  0
  8 25  1  0
  9 26  1  0
 11 27  1  0
 12 28  1  0
 29 30  1  0
 30 31  1  0
 31 29  1  0
 29 32  1  0
 30 33  1  0
 30 34  1  0
 31 35  1  0
 31 36  1  0
 17 29  1  0
M  END
>  <DihAtoms>  (1) 
12,16,28,29

>  <DihDeg>  (1) 
66.42345060724536

$$$$
