
     RDKit          3D

 32 34  0  0  0  0  0  0  0  0999 V2000
   46.5839   32.4169   44.9836 C   0  0  2  0  0  0  0  0  0  0  0  0
   46.8711   31.1712   44.8951 N   0  0  0  0  0  0  0  0  0  0  0  0
   47.9281   30.5023   44.7222 C   0  0  0  0  0  0  0  0  0  0  0  0
   47.9550   30.2036   46.0272 N   0  0  0  0  0  0  0  0  0  0  0  0
   47.1300   30.8841   46.8687 C   0  0  0  0  0  0  0  0  0  0  0  0
   47.0598   30.3920   48.2055 C   0  0  0  0  0  0  0  0  0  0  0  0
   46.2213   31.0288   49.0534 C   0  0  0  0  0  0  0  0  0  0  0  0
   45.4389   32.1029   48.7261 C   0  0  0  0  0  0  0  0  0  0  0  0
   45.5963   32.4850   47.4034 C   0  0  0  0  0  0  0  0  0  0  0  0
   46.3867   31.9926   46.3646 C   0  0  0  0  0  0  0  0  0  0  0  0
   44.6098   35.5469   45.2538 C   0  0  0  0  0  0  0  0  0  0  0  0
   44.3127   35.6365   43.8909 C   0  0  0  0  0  0  0  0  0  0  0  0
   44.8013   34.6364   43.0626 C   0  0  0  0  0  0  0  0  0  0  0  0
   45.5220   33.6635   43.6533 N   0  0  0  0  0  0  0  0  0  0  0  0
   45.7993   33.5974   44.9850 C   0  0  0  0  0  0  0  0  0  0  0  0
   45.3202   34.5429   45.6693 N   0  0  0  0  0  0  0  0  0  0  0  0
   44.4476   34.7420   41.3072 S   0  0  0  0  0  0  0  0  0  0  0  0
   47.6438   32.9204   45.0423 H   0  0  0  0  0  0  0  0  0  0  0  0
   46.0416   30.6659   44.4756 H   0  0  0  0  0  0  0  0  0  0  0  0
   47.8791   29.5851   44.0656 H   0  0  0  0  0  0  0  0  0  0  0  0
   48.8599   31.0071   44.3771 H   0  0  0  0  0  0  0  0  0  0  0  0
   48.6397   29.4412   46.2812 H   0  0  0  0  0  0  0  0  0  0  0  0
   47.6351   29.5591   48.5450 H   0  0  0  0  0  0  0  0  0  0  0  0
   46.1769   30.6393   50.0857 H   0  0  0  0  0  0  0  0  0  0  0  0
   44.7966   32.5743   49.4114 H   0  0  0  0  0  0  0  0  0  0  0  0
   44.9278   33.3141   47.2103 H   0  0  0  0  0  0  0  0  0  0  0  0
   44.2603   36.2933   45.9590 H   0  0  0  0  0  0  0  0  0  0  0  0
   43.7199   36.4783   43.5581 H   0  0  0  0  0  0  0  0  0  0  0  0
   42.8929   33.8913   40.8959 C   0  0  0  0  0  0  0  0  0  0  0  0
   42.5086   34.2885   39.6349 F   0  0  0  0  0  0  0  0  0  0  0  0
   43.1351   32.5146   40.9104 F   0  0  0  0  0  0  0  0  0  0  0  0
   41.9215   34.2525   41.7843 F   0  0  0  0  0  0  0  0  0  0  0  0
  1 15  1  0
  1 10  1  0
  2  1  1  0
  3  2  1  0
  3  4  1  0
  4  5  1  0
  5  6  2  0
  6  7  1  0
  8  7  2  0
  9  8  1  0
 10  5  1  0
 10  9  2  0
 11 16  2  0
 12 11  1  0
 13 14  1  0
 13 12  2  0
 14 15  2  0
 15 16  1  0
 17 13  1  0
  1 18  1  1
  2 19  1  0
  3 20  1  0
  3 21  1  0
  4 22  1  0
  6 23  1  0
  7 24  1  0
  8 25  1  0
  9 26  1  0
 11 27  1  0
 12 28  1  0
 29 30  1  0
 29 31  1  0
 29 32  1  0
 17 29  1  0
M  END
>  <DihAtoms>  (1) 
12,16,28,29

>  <DihDeg>  (1) 
-179.9996461976108

$$$$
