
     RDKit          3D

 32 34  0  0  0  0  0  0  0  0999 V2000
   46.5681   32.4085   44.9859 C   0  0  2  0  0  0  0  0  0  0  0  0
   46.8673   31.1660   44.8893 N   0  0  0  0  0  0  0  0  0  0  0  0
   47.9411   30.5178   44.7256 C   0  0  0  0  0  0  0  0  0  0  0  0
   47.9528   30.2023   46.0230 N   0  0  0  0  0  0  0  0  0  0  0  0
   47.1311   30.8776   46.8724 C   0  0  0  0  0  0  0  0  0  0  0  0
   47.0660   30.3953   48.2079 C   0  0  0  0  0  0  0  0  0  0  0  0
   46.2292   31.0347   49.0569 C   0  0  0  0  0  0  0  0  0  0  0  0
   45.4416   32.1068   48.7289 C   0  0  0  0  0  0  0  0  0  0  0  0
   45.5920   32.4830   47.4048 C   0  0  0  0  0  0  0  0  0  0  0  0
   46.3812   31.9841   46.3670 C   0  0  0  0  0  0  0  0  0  0  0  0
   44.6148   35.5459   45.2556 C   0  0  0  0  0  0  0  0  0  0  0  0
   44.3191   35.6434   43.8828 C   0  0  0  0  0  0  0  0  0  0  0  0
   44.8051   34.6392   43.0585 C   0  0  0  0  0  0  0  0  0  0  0  0
   45.5167   33.6605   43.6504 N   0  0  0  0  0  0  0  0  0  0  0  0
   45.7886   33.5916   44.9849 C   0  0  0  0  0  0  0  0  0  0  0  0
   45.3166   34.5354   45.6697 N   0  0  0  0  0  0  0  0  0  0  0  0
   44.4525   34.7529   41.3083 S   0  0  0  0  0  0  0  0  0  0  0  0
   47.6314   32.9132   45.0389 H   0  0  0  0  0  0  0  0  0  0  0  0
   46.0674   30.6649   44.4080 H   0  0  0  0  0  0  0  0  0  0  0  0
   47.9469   29.6456   44.0189 H   0  0  0  0  0  0  0  0  0  0  0  0
   48.8646   31.0953   44.4235 H   0  0  0  0  0  0  0  0  0  0  0  0
   48.6231   29.4323   46.2680 H   0  0  0  0  0  0  0  0  0  0  0  0
   47.6386   29.5725   48.5486 H   0  0  0  0  0  0  0  0  0  0  0  0
   46.1892   30.6505   50.0923 H   0  0  0  0  0  0  0  0  0  0  0  0
   44.8086   32.5687   49.4206 H   0  0  0  0  0  0  0  0  0  0  0  0
   44.9199   33.3089   47.2142 H   0  0  0  0  0  0  0  0  0  0  0  0
   44.2616   36.3041   45.9599 H   0  0  0  0  0  0  0  0  0  0  0  0
   43.7336   36.4905   43.5514 H   0  0  0  0  0  0  0  0  0  0  0  0
   42.8784   33.8886   40.9835 C   0  0  0  0  0  0  0  0  0  0  0  0
   42.0321   34.6151   40.9416 H   0  0  0  0  0  0  0  0  0  0  0  0
   42.9151   33.3498   40.0065 H   0  0  0  0  0  0  0  0  0  0  0  0
   42.7198   33.1274   41.7928 H   0  0  0  0  0  0  0  0  0  0  0  0
  1 15  1  0
  1 10  1  0
  2  1  1  0
  3  2  1  0
  3  4  1  0
  4  5  1  0
  5  6  2  0
  6  7  1  0
  8  7  2  0
  9  8  1  0
 10  5  1  0
 10  9  2  0
 11 16  2  0
 12 11  1  0
 13 14  1  0
 13 12  2  0
 14 15  2  0
 15 16  1  0
 17 13  1  0
  1 18  1  1
  2 19  1  0
  3 20  1  0
  3 21  1  0
  4 22  1  0
  6 23  1  0
  7 24  1  0
  8 25  1  0
  9 26  1  0
 11 27  1  0
 12 28  1  0
 29 30  1  0
 29 31  1  0
 29 32  1  0
 17 29  1  0
M  END
>  <DihAtoms>  (1) 
12,16,28,29

>  <DihDeg>  (1) 
97.55957053943015

$$$$
