
     RDKit          3D

 36 39  0  0  0  0  0  0  0  0999 V2000
   46.5829   32.4155   44.9842 C   0  0  2  0  0  0  0  0  0  0  0  0
   46.8663   31.1680   44.9014 N   0  0  0  0  0  0  0  0  0  0  0  0
   47.9241   30.5017   44.7184 C   0  0  0  0  0  0  0  0  0  0  0  0
   47.9588   30.2083   46.0279 N   0  0  0  0  0  0  0  0  0  0  0  0
   47.1297   30.8853   46.8709 C   0  0  0  0  0  0  0  0  0  0  0  0
   47.0611   30.3893   48.2052 C   0  0  0  0  0  0  0  0  0  0  0  0
   46.2251   31.0230   49.0545 C   0  0  0  0  0  0  0  0  0  0  0  0
   45.4385   32.1069   48.7238 C   0  0  0  0  0  0  0  0  0  0  0  0
   45.5981   32.4874   47.4039 C   0  0  0  0  0  0  0  0  0  0  0  0
   46.3877   31.9948   46.3669 C   0  0  0  0  0  0  0  0  0  0  0  0
   44.6076   35.5449   45.2474 C   0  0  0  0  0  0  0  0  0  0  0  0
   44.3127   35.6379   43.8923 C   0  0  0  0  0  0  0  0  0  0  0  0
   44.8025   34.6379   43.0650 C   0  0  0  0  0  0  0  0  0  0  0  0
   45.5225   33.6624   43.6523 N   0  0  0  0  0  0  0  0  0  0  0  0
   45.7977   33.5951   44.9839 C   0  0  0  0  0  0  0  0  0  0  0  0
   45.3178   34.5398   45.6659 N   0  0  0  0  0  0  0  0  0  0  0  0
   44.4508   34.7467   41.3080 S   0  0  0  0  0  0  0  0  0  0  0  0
   47.6448   32.9133   45.0396 H   0  0  0  0  0  0  0  0  0  0  0  0
   46.0377   30.6552   44.4851 H   0  0  0  0  0  0  0  0  0  0  0  0
   47.8741   29.5701   44.0814 H   0  0  0  0  0  0  0  0  0  0  0  0
   48.8336   31.0244   44.3449 H   0  0  0  0  0  0  0  0  0  0  0  0
   48.6525   29.4510   46.2917 H   0  0  0  0  0  0  0  0  0  0  0  0
   47.6362   29.5555   48.5418 H   0  0  0  0  0  0  0  0  0  0  0  0
   46.1783   30.6340   50.0861 H   0  0  0  0  0  0  0  0  0  0  0  0
   44.8036   32.5669   49.4162 H   0  0  0  0  0  0  0  0  0  0  0  0
   44.9303   33.3169   47.2166 H   0  0  0  0  0  0  0  0  0  0  0  0
   44.2476   36.3046   45.9466 H   0  0  0  0  0  0  0  0  0  0  0  0
   43.7261   36.4664   43.5400 H   0  0  0  0  0  0  0  0  0  0  0  0
   45.8221   35.6888   40.6048 C   0  0  0  0  0  0  0  0  0  0  0  0
   46.4077   35.6517   39.3522 C   0  0  0  0  0  0  0  0  0  0  0  0
   46.0261   34.9557   38.6079 H   0  0  0  0  0  0  0  0  0  0  0  0
   47.4131   36.5941   39.3820 C   0  0  0  0  0  0  0  0  0  0  0  0
   48.0130   36.7348   38.4861 H   0  0  0  0  0  0  0  0  0  0  0  0
   47.4333   37.1739   40.5981 N   0  0  0  0  0  0  0  0  0  0  0  0
   48.1214   37.9234   40.8452 H   0  0  0  0  0  0  0  0  0  0  0  0
   46.4643   36.6215   41.3403 N   0  0  0  0  0  0  0  0  0  0  0  0
  1 15  1  0
  1 10  1  0
  2  1  1  0
  3  2  1  0
  3  4  1  0
  4  5  1  0
  5  6  2  0
  6  7  1  0
  8  7  2  0
  9  8  1  0
 10  5  1  0
 10  9  2  0
 11 16  2  0
 12 11  1  0
 13 14  1  0
 13 12  2  0
 14 15  2  0
 15 16  1  0
 17 13  1  0
  1 18  1  1
  2 19  1  0
  3 20  1  0
  3 21  1  0
  4 22  1  0
  6 23  1  0
  7 24  1  0
  8 25  1  0
  9 26  1  0
 11 27  1  0
 12 28  1  0
 29 30  1  0
 30 31  1  0
 30 32  2  0
 32 33  1  0
 32 34  1  0
 34 35  1  0
 34 36  1  0
 36 29  2  0
 17 29  1  0
M  END
>  <DihAtoms>  (1) 
12,16,28,29

>  <DihDeg>  (1) 
90.00128399409478

$$$$
