
     RDKit          3D

 45 48  0  0  0  0  0  0  0  0999 V2000
   46.5952   32.4137   44.9831 C   0  0  2  0  0  0  0  0  0  0  0  0
   46.8946   31.1730   44.8991 N   0  0  0  0  0  0  0  0  0  0  0  0
   47.9698   30.5240   44.7411 C   0  0  0  0  0  0  0  0  0  0  0  0
   47.9787   30.2191   46.0441 N   0  0  0  0  0  0  0  0  0  0  0  0
   47.1318   30.8882   46.8743 C   0  0  0  0  0  0  0  0  0  0  0  0
   47.0475   30.3969   48.2076 C   0  0  0  0  0  0  0  0  0  0  0  0
   46.1881   31.0143   49.0425 C   0  0  0  0  0  0  0  0  0  0  0  0
   45.3892   32.0769   48.7051 C   0  0  0  0  0  0  0  0  0  0  0  0
   45.5606   32.4652   47.3789 C   0  0  0  0  0  0  0  0  0  0  0  0
   46.3759   31.9864   46.3566 C   0  0  0  0  0  0  0  0  0  0  0  0
   44.6792   35.5750   45.2498 C   0  0  0  0  0  0  0  0  0  0  0  0
   44.3393   35.6534   43.8801 C   0  0  0  0  0  0  0  0  0  0  0  0
   44.7809   34.6354   43.0511 C   0  0  0  0  0  0  0  0  0  0  0  0
   45.5074   33.6485   43.6396 N   0  0  0  0  0  0  0  0  0  0  0  0
   45.8205   33.6038   44.9757 C   0  0  0  0  0  0  0  0  0  0  0  0
   45.3852   34.5650   45.6781 N   0  0  0  0  0  0  0  0  0  0  0  0
   44.3400   34.7062   41.3653 S   0  0  0  0  0  0  0  0  0  0  0  0
   47.6601   32.9122   45.0648 H   0  0  0  0  0  0  0  0  0  0  0  0
   46.0976   30.6658   44.3995 H   0  0  0  0  0  0  0  0  0  0  0  0
   48.8809   31.1070   44.4240 H   0  0  0  0  0  0  0  0  0  0  0  0
   47.9817   29.6283   44.0641 H   0  0  0  0  0  0  0  0  0  0  0  0
   48.6651   29.4626   46.3145 H   0  0  0  0  0  0  0  0  0  0  0  0
   47.6288   29.5769   48.5588 H   0  0  0  0  0  0  0  0  0  0  0  0
   46.1254   30.6332   50.0749 H   0  0  0  0  0  0  0  0  0  0  0  0
   44.7192   32.5512   49.3694 H   0  0  0  0  0  0  0  0  0  0  0  0
   44.8809   33.2807   47.1645 H   0  0  0  0  0  0  0  0  0  0  0  0
   44.3629   36.3408   45.9517 H   0  0  0  0  0  0  0  0  0  0  0  0
   43.7633   36.4709   43.5085 H   0  0  0  0  0  0  0  0  0  0  0  0
   45.4567   35.5641   40.2785 C   0  0  0  0  0  0  0  0  0  0  0  0
   46.8593   35.3989   40.8781 C   0  0  0  0  0  0  0  0  0  0  0  0
   47.0736   33.8818   40.9603 C   0  0  0  0  0  0  0  0  0  0  0  0
   47.2885   33.4086   39.5381 C   0  0  0  0  0  0  0  0  0  0  0  0
   46.0321   33.6484   38.7667 C   0  0  0  0  0  0  0  0  0  0  0  0
   45.5062   35.0516   38.8674 C   0  0  0  0  0  0  0  0  0  0  0  0
   45.2737   36.6589   40.2367 H   0  0  0  0  0  0  0  0  0  0  0  0
   46.7885   35.7454   41.9266 H   0  0  0  0  0  0  0  0  0  0  0  0
   47.6343   35.8864   40.2735 H   0  0  0  0  0  0  0  0  0  0  0  0
   46.1203   33.4429   41.3272 H   0  0  0  0  0  0  0  0  0  0  0  0
   47.8867   33.6090   41.6477 H   0  0  0  0  0  0  0  0  0  0  0  0
   48.1503   33.9216   39.0718 H   0  0  0  0  0  0  0  0  0  0  0  0
   47.4794   32.3111   39.5142 H   0  0  0  0  0  0  0  0  0  0  0  0
   45.2523   32.9248   39.0270 H   0  0  0  0  0  0  0  0  0  0  0  0
   46.2688   33.4970   37.6726 H   0  0  0  0  0  0  0  0  0  0  0  0
   46.2321   35.7088   38.3310 H   0  0  0  0  0  0  0  0  0  0  0  0
   44.5488   35.1132   38.3502 H   0  0  0  0  0  0  0  0  0  0  0  0
  1 15  1  0
  1 10  1  0
  2  1  1  0
  3  2  1  0
  3  4  1  0
  4  5  1  0
  5  6  2  0
  6  7  1  0
  8  7  2  0
  9  8  1  0
 10  5  1  0
 10  9  2  0
 11 16  2  0
 12 11  1  0
 13 14  1  0
 13 12  2  0
 14 15  2  0
 15 16  1  0
 17 13  1  0
  1 18  1  1
  2 19  1  0
  3 20  1  0
  3 21  1  0
  4 22  1  0
  6 23  1  0
  7 24  1  0
  8 25  1  0
  9 26  1  0
 11 27  1  0
 12 28  1  0
 29 30  1  0
 30 31  1  0
 31 32  1  0
 32 33  1  0
 33 34  1  0
 34 29  1  0
 29 35  1  0
 30 36  1  0
 30 37  1  0
 31 38  1  0
 31 39  1  0
 32 40  1  0
 32 41  1  0
 33 42  1  0
 33 43  1  0
 34 44  1  0
 34 45  1  0
 17 29  1  0
M  END
>  <DihAtoms>  (1) 
12,16,28,29

>  <DihDeg>  (1) 
-179.99998963426947

$$$$
