
     RDKit          3D

 18 18  0  0  1  0  0  0  0  0999 V2000
   45.1790   35.2640   44.0720 C   0  0  0  0  0  0  0  0  0  0  0  0
   46.2260   34.6970   43.3460 C   0  0  0  0  0  0  0  0  0  0  0  0
   46.9330   33.6740   43.9620 C   0  0  0  0  0  0  0  0  0  0  0  0
   46.5850   33.2700   45.2230 N   0  0  0  0  0  0  0  0  0  0  0  0
   45.5560   33.8500   45.8930 C   0  0  0  0  0  0  0  0  0  0  0  0
   44.8480   34.8570   45.3120 N   0  0  0  0  0  0  0  0  0  0  0  0
   46.5570   35.1070   42.0190 C   0  0  1  0  0  0  0  0  0  0  0  0
   48.1030   35.1690   41.9000 C   0  0  0  0  0  0  0  0  0  0  0  0
   46.1740   34.0290   41.0750 N   0  0  0  0  0  0  0  0  0  0  0  0
   44.5992   36.0779   43.6123 H   0  0  0  0  0  0  0  0  0  0  0  0
   47.7704   33.1892   43.4388 H   0  0  0  0  0  0  0  0  0  0  0  0
   45.2948   33.5062   46.9047 H   0  0  0  0  0  0  0  0  0  0  0  0
   46.0593   36.0646   41.8064 H   0  0  0  0  0  0  0  0  0  0  0  0
   48.5478   35.1868   42.9059 H   0  0  0  0  0  0  0  0  0  0  0  0
   48.4646   34.2846   41.3549 H   0  0  0  0  0  0  0  0  0  0  0  0
   48.3926   36.0795   41.3549 H   0  0  0  0  0  0  0  0  0  0  0  0
   45.8784   33.1971   41.6055 H   0  0  0  0  0  0  0  0  0  0  0  0
   45.3963   34.3522   40.4820 H   0  0  0  0  0  0  0  0  0  0  0  0
  1  6  2  0
  2  3  2  0
  2  1  1  0
  3  4  1  0
  4  5  2  0
  6  5  1  0
  7  2  1  0
  8  7  1  0
  9  7  1  0
  1 10  1  0
  3 11  1  0
  5 12  1  0
  7 13  1  6
  8 14  1  0
  8 15  1  0
  8 16  1  0
  9 17  1  0
  9 18  1  0
M  ISO  8  10  14  11  14  12  14  13   8  14   8  15   8  16   8  17   5
M  ISO  1  18   5
M  END
>  <minimizedAffinity>  (1) 
-3.15521836

>  <minimizedRMSD>  (1) 
0.170131922

$$$$
