
     RDKit          3D

 29 30  0  0  1  0  0  0  0  0999 V2000
   46.5670   34.4360   43.6990 C   0  0  2  0  0  0  0  0  0  0  0  0
   44.6250   35.5270   42.6840 C   0  0  0  0  0  0  0  0  0  0  0  0
   45.3560   34.3310   42.8620 C   0  0  0  0  0  0  0  0  0  0  0  0
   44.9070   33.1390   42.2710 C   0  0  0  0  0  0  0  0  0  0  0  0
   43.7710   33.2420   41.5540 N   0  0  0  0  0  0  0  0  0  0  0  0
   43.0880   34.3740   41.3900 C   0  0  0  0  0  0  0  0  0  0  0  0
   43.4980   35.5150   41.9440 N   0  0  0  0  0  0  0  0  0  0  0  0
   47.7630   34.3840   42.8000 C   0  0  0  0  0  0  0  0  0  0  0  0
   48.1060   35.1890   41.7450 C   0  0  0  0  0  0  0  0  0  0  0  0
   49.2820   34.7790   41.2190 N   0  0  0  0  0  0  0  0  0  0  0  0
   49.6730   33.7020   41.9610 C   0  0  0  0  0  0  0  0  0  0  0  0
   48.7530   33.4670   42.9140 N   0  0  0  0  0  0  0  0  0  0  0  0
   46.5970   33.2750   44.6380 C   0  0  0  0  0  0  0  0  0  0  0  0
   46.0960   33.6380   45.9090 O   0  0  0  0  0  0  0  0  0  0  0  0
   47.3790   32.5560   47.9560 O   0  0  0  0  0  0  0  0  0  0  0  0
   46.2630   32.3390   46.9550 P   0  0  0  0  0  0  0  0  0  0  0  0
   44.7970   32.0810   47.7850 O   0  0  0  0  0  0  0  0  0  0  0  0
   46.5900   30.9560   46.0470 O   0  0  0  0  0  0  0  0  0  0  0  0
   46.5687   35.3750   44.2719 H   0  0  0  0  0  0  0  0  0  0  0  0
   44.9733   36.4623   43.1464 H   0  0  0  0  0  0  0  0  0  0  0  0
   45.4456   32.1868   42.3855 H   0  0  0  0  0  0  0  0  0  0  0  0
   42.1686   34.3670   40.7862 H   0  0  0  0  0  0  0  0  0  0  0  0
   47.5132   36.0410   41.3808 H   0  0  0  0  0  0  0  0  0  0  0  0
   49.7817   35.1950   40.4202 H   0  0  0  0  0  0  0  0  0  0  0  0
   50.5930   33.1196   41.8047 H   0  0  0  0  0  0  0  0  0  0  0  0
   45.9792   32.4634   44.2263 H   0  0  0  0  0  0  0  0  0  0  0  0
   47.6399   32.9449   44.7537 H   0  0  0  0  0  0  0  0  0  0  0  0
   44.9608   32.1098   48.7609 H   0  0  0  0  0  0  0  0  0  0  0  0
   46.7696   30.1963   46.6559 H   0  0  0  0  0  0  0  0  0  0  0  0
  1 13  1  0
  2  3  2  0
  3  1  1  0
  4  3  1  0
  5  4  2  0
  6  5  1  0
  6  7  2  0
  7  2  1  0
  8 12  1  0
  8  1  1  0
  9  8  2  0
 10  9  1  0
 10 11  1  0
 11 12  2  0
 13 14  1  0
 14 16  1  0
 16 17  1  0
 16 15  2  0
 18 16  1  0
  1 19  1  1
  2 20  1  0
  4 21  1  0
  6 22  1  0
  9 23  1  0
 10 24  1  0
 11 25  1  0
 13 26  1  0
 13 27  1  0
 17 28  1  0
 18 29  1  0
M  ISO  8  19   8  20  14  21  14  22  14  23  14  24   9  25  14  26   8
M  ISO  3  27   8  28   3  29   3
M  END
>  <minimizedAffinity>  (1) 
-4.4815464

>  <minimizedRMSD>  (1) 
5.53451395

$$$$
