
     RDKit          3D

 21 22  0  0  0  0  0  0  0  0999 V2000
   44.8390   35.0980   44.0260 C   0  0  0  0  0  0  0  0  0  0  0  0
   45.3230   35.1280   42.6920 C   0  0  0  0  0  0  0  0  0  0  0  0
   46.4500   34.3500   42.4130 C   0  0  0  0  0  0  0  0  0  0  0  0
   47.0130   33.6230   43.4000 N   0  0  0  0  0  0  0  0  0  0  0  0
   46.5160   33.6270   44.6570 C   0  0  0  0  0  0  0  0  0  0  0  0
   45.4410   34.3570   44.9620 N   0  0  0  0  0  0  0  0  0  0  0  0
   47.0120   34.3110   41.1060 N   0  0  0  0  0  0  0  0  0  0  0  0
   46.4890   33.5830   40.1060 C   0  0  0  0  0  0  0  0  0  0  0  0
   47.0780   33.5860   38.8590 C   0  0  0  0  0  0  0  0  0  0  0  0
   48.2280   34.3300   38.5730 C   0  0  0  0  0  0  0  0  0  0  0  0
   48.7810   34.3480   37.4450 O   0  0  0  0  0  0  0  0  0  0  0  0
   48.6890   35.0330   39.6300 N   0  0  0  0  0  0  0  0  0  0  0  0
   48.1190   35.0350   40.8500 C   0  0  0  0  0  0  0  0  0  0  0  0
   48.6150   35.7260   41.7990 O   0  0  0  0  0  0  0  0  0  0  0  0
   43.7350   35.8610   44.2970 O   0  0  0  0  0  0  0  0  0  0  0  0
   44.8345   35.7345   41.9151 H   0  0  0  0  0  0  0  0  0  0  0  0
   47.0025   33.0224   45.4366 H   0  0  0  0  0  0  0  0  0  0  0  0
   45.5856   32.9808   40.2826 H   0  0  0  0  0  0  0  0  0  0  0  0
   46.6267   32.9807   38.0591 H   0  0  0  0  0  0  0  0  0  0  0  0
   49.5337   35.6064   39.4937 H   0  0  0  0  0  0  0  0  0  0  0  0
   43.3154   36.3973   43.5784 H   0  0  0  0  0  0  0  0  0  0  0  0
  1 15  1  0
  1  6  2  0
  2  1  1  0
  3  2  2  0
  3  4  1  0
  4  5  2  0
  5  6  1  0
  7  3  1  0
  8  7  1  0
  9  8  2  0
 10  9  1  0
 10 12  1  0
 11 10  2  0
 12 13  1  0
 13  7  1  0
 13 14  2  0
  2 16  1  0
  5 17  1  0
  8 18  1  0
  9 19  1  0
 12 20  1  0
 15 21  1  0
M  ISO  6  16  14  17  14  18  14  19  14  20   9  21   3
M  END
>  <minimizedAffinity>  (1) 
-5.31942606

>  <minimizedRMSD>  (1) 
2.90102077

$$$$
