
     RDKit          3D

 22 24  0  0  0  0  0  0  0  0999 V2000
   46.8380   32.7570   45.1720 N   0  0  0  0  0  0  0  0  0  0  0  0
   47.5340   32.5450   44.0350 C   0  0  0  0  0  0  0  0  0  0  0  0
   47.1760   33.4940   43.1280 N   0  0  0  0  0  0  0  0  0  0  0  0
   46.2600   34.3070   43.6750 C   0  0  0  0  0  0  0  0  0  0  0  0
   45.5520   35.4150   43.2460 C   0  0  0  0  0  0  0  0  0  0  0  0
   44.6620   36.0430   44.0680 N   0  0  0  0  0  0  0  0  0  0  0  0
   44.4960   35.5480   45.3070 C   0  0  0  0  0  0  0  0  0  0  0  0
   45.1640   34.4740   45.7600 N   0  0  0  0  0  0  0  0  0  0  0  0
   46.0430   33.8440   44.9710 C   0  0  0  0  0  0  0  0  0  0  0  0
   46.1980   31.7550   48.7020 C   0  0  0  0  0  0  0  0  0  0  0  0
   46.1270   32.5230   47.5260 C   0  0  0  0  0  0  0  0  0  0  0  0
   46.8480   32.0460   46.4100 C   0  0  0  0  0  0  0  0  0  0  0  0
   47.5520   30.9010   46.5330 N   0  0  0  0  0  0  0  0  0  0  0  0
   47.5910   30.2000   47.6750 C   0  0  0  0  0  0  0  0  0  0  0  0
   46.9130   30.6300   48.7640 N   0  0  0  0  0  0  0  0  0  0  0  0
   45.5020   32.2150   49.7840 O   0  0  0  0  0  0  0  0  0  0  0  0
   48.2665   31.7412   43.8697 H   0  0  0  0  0  0  0  0  0  0  0  0
   45.7088   35.7960   42.2261 H   0  0  0  0  0  0  0  0  0  0  0  0
   43.7813   36.0446   45.9798 H   0  0  0  0  0  0  0  0  0  0  0  0
   45.5380   33.4508   47.4781 H   0  0  0  0  0  0  0  0  0  0  0  0
   48.1771   29.2706   47.7269 H   0  0  0  0  0  0  0  0  0  0  0  0
   44.9779   33.0521   49.7160 H   0  0  0  0  0  0  0  0  0  0  0  0
  1 12  1  0
  2  1  1  0
  3  4  1  0
  3  2  2  0
  4  9  2  0
  5  4  1  0
  5  6  2  0
  6  7  1  0
  7  8  2  0
  9  1  1  0
  9  8  1  0
 10 15  2  0
 10 16  1  0
 11 10  1  0
 12 13  1  0
 12 11  2  0
 13 14  2  0
 14 15  1  0
  2 17  1  0
  5 18  1  0
  7 19  1  0
 11 20  1  0
 14 21  1  0
 16 22  1  0
M  ISO  6  17  14  18  14  19  14  20  14  21  14  22   3
M  END
>  <minimizedAffinity>  (1) 
-5.29267883

>  <minimizedRMSD>  (1) 
4.92013836

$$$$
