
     RDKit          3D

 17 17  0  0  0  0  0  0  0  0999 V2000
   44.7630   35.1710   44.4370 C   0  0  0  0  0  0  0  0  0  0  0  0
   45.4690   35.3130   43.2250 C   0  0  0  0  0  0  0  0  0  0  0  0
   46.6410   34.5380   43.0650 C   0  0  0  0  0  0  0  0  0  0  0  0
   47.0200   33.7110   44.0650 N   0  0  0  0  0  0  0  0  0  0  0  0
   46.3120   33.6080   45.2080 C   0  0  0  0  0  0  0  0  0  0  0  0
   45.1890   34.3310   45.3990 N   0  0  0  0  0  0  0  0  0  0  0  0
   43.6330   35.9060   44.6160 O   0  0  0  0  0  0  0  0  0  0  0  0
   47.2730   34.7280   41.8640 O   0  0  0  0  0  0  0  0  0  0  0  0
   49.3210   36.3270   41.2790 O   0  0  0  0  0  0  0  0  0  0  0  0
   48.9550   34.9590   41.8200 P   0  0  0  0  0  0  0  0  0  0  0  0
   49.6120   34.7430   43.3550 O   0  0  0  0  0  0  0  0  0  0  0  0
   49.6440   33.7290   40.8490 O   0  0  0  0  0  0  0  0  0  0  0  0
   45.1228   35.9979   42.4369 H   0  0  0  0  0  0  0  0  0  0  0  0
   46.6556   32.9234   45.9975 H   0  0  0  0  0  0  0  0  0  0  0  0
   43.3252   36.5219   43.9046 H   0  0  0  0  0  0  0  0  0  0  0  0
   48.9323   34.9664   44.0393 H   0  0  0  0  0  0  0  0  0  0  0  0
   50.0356   33.0300   41.4305 H   0  0  0  0  0  0  0  0  0  0  0  0
  1  7  1  0
  1  6  2  0
  2  1  1  0
  3  2  2  0
  3  4  1  0
  4  5  2  0
  5  6  1  0
  8  3  1  0
  9 10  2  0
 10  8  1  0
 10 11  1  0
 12 10  1  0
  2 13  1  0
  5 14  1  0
  7 15  1  0
 11 16  1  0
 12 17  1  0
M  ISO  5  13  14  14  14  15   3  16   3  17   3
M  END
>  <minimizedAffinity>  (1) 
-4.89734507

>  <minimizedRMSD>  (1) 
1.37758946

$$$$
