
     RDKit          3D

 21 22  0  0  0  0  0  0  0  0999 V2000
   45.0690   35.7790   44.0230 C   0  0  0  0  0  0  0  0  0  0  0  0
   45.5090   35.5980   42.7000 C   0  0  0  0  0  0  0  0  0  0  0  0
   45.9810   34.3330   42.3300 C   0  0  0  0  0  0  0  0  0  0  0  0
   45.9860   33.3620   43.2670 N   0  0  0  0  0  0  0  0  0  0  0  0
   45.5570   33.5710   44.5180 C   0  0  0  0  0  0  0  0  0  0  0  0
   45.0960   34.7800   44.9050 N   0  0  0  0  0  0  0  0  0  0  0  0
   48.6570   35.4460   41.7760 Cl  0  0  0  0  0  0  0  0  0  0  0  0
   47.6900   34.5490   40.6080 C   0  0  0  0  0  0  0  0  0  0  0  0
   46.4500   34.0770   40.9860 C   0  0  0  0  0  0  0  0  0  0  0  0
   45.7630   33.3870   40.0080 C   0  0  0  0  0  0  0  0  0  0  0  0
   46.2620   33.1730   38.7390 C   0  0  0  0  0  0  0  0  0  0  0  0
   47.5140   33.6710   38.4180 C   0  0  0  0  0  0  0  0  0  0  0  0
   48.2450   34.3710   39.3590 C   0  0  0  0  0  0  0  0  0  0  0  0
   44.6120   37.0170   44.3630 O   0  0  0  0  0  0  0  0  0  0  0  0
   45.4831   36.4263   41.9766 H   0  0  0  0  0  0  0  0  0  0  0  0
   45.5804   32.7439   45.2429 H   0  0  0  0  0  0  0  0  0  0  0  0
   44.7676   32.9874   40.2521 H   0  0  0  0  0  0  0  0  0  0  0  0
   45.6747   32.6158   37.9944 H   0  0  0  0  0  0  0  0  0  0  0  0
   47.9274   33.5089   37.4116 H   0  0  0  0  0  0  0  0  0  0  0  0
   49.2399   34.7740   39.1184 H   0  0  0  0  0  0  0  0  0  0  0  0
   44.6019   37.7430   43.6900 H   0  0  0  0  0  0  0  0  0  0  0  0
  1 14  1  0
  1  6  2  0
  2  1  1  0
  3  2  2  0
  3  4  1  0
  4  5  2  0
  5  6  1  0
  8  9  2  0
  8  7  1  0
  9  3  1  0
 10  9  1  0
 11 10  2  0
 12 11  1  0
 12 13  2  0
 13  8  1  0
  2 15  1  0
  5 16  1  0
 10 17  1  0
 11 18  1  0
 12 19  1  0
 13 20  1  0
 14 21  1  0
M  ISO  7  15  14  16  14  17  14  18  14  19  14  20  14  21   3
M  END
>  <minimizedAffinity>  (1) 
-4.76829624

>  <minimizedRMSD>  (1) 
2.88199091

$$$$
