
     RDKit          3D

 18 19  0  0  0  0  0  0  0  0999 V2000
   44.8480   35.1760   44.1170 C   0  0  0  0  0  0  0  0  0  0  0  0
   45.6000   35.4560   42.9470 C   0  0  0  0  0  0  0  0  0  0  0  0
   46.8060   34.7580   42.7860 C   0  0  0  0  0  0  0  0  0  0  0  0
   47.1830   33.8620   43.7460 N   0  0  0  0  0  0  0  0  0  0  0  0
   46.4330   33.6350   44.8330 C   0  0  0  0  0  0  0  0  0  0  0  0
   45.2750   34.2900   45.0130 N   0  0  0  0  0  0  0  0  0  0  0  0
   47.6660   34.9840   41.5910 C   0  0  0  0  0  0  0  0  0  0  0  0
   48.9110   35.7790   41.6920 C   0  0  0  0  0  0  0  0  0  0  0  0
   48.9470   34.2700   41.4850 C   0  0  0  0  0  0  0  0  0  0  0  0
   43.6700   35.8650   44.2640 O   0  0  0  0  0  0  0  0  0  0  0  0
   45.2535   36.1863   42.2010 H   0  0  0  0  0  0  0  0  0  0  0  0
   46.7691   32.9055   45.5845 H   0  0  0  0  0  0  0  0  0  0  0  0
   46.7687   35.0634   40.9597 H   0  0  0  0  0  0  0  0  0  0  0  0
   49.2029   36.4571   40.8765 H   0  0  0  0  0  0  0  0  0  0  0  0
   49.3373   36.4826   42.4222 H   0  0  0  0  0  0  0  0  0  0  0  0
   49.2795   33.6089   42.2988 H   0  0  0  0  0  0  0  0  0  0  0  0
   49.4061   33.5919   40.7505 H   0  0  0  0  0  0  0  0  0  0  0  0
   43.3880   36.5162   43.5737 H   0  0  0  0  0  0  0  0  0  0  0  0
  1 10  1  0
  1  6  2  0
  2  1  1  0
  3  2  2  0
  3  4  1  0
  4  5  2  0
  5  6  1  0
  7  8  1  0
  7  3  1  0
  9  7  1  0
  9  8  1  0
  2 11  1  0
  5 12  1  0
  7 13  1  0
  8 14  1  0
  8 15  1  0
  9 16  1  0
  9 17  1  0
 10 18  1  0
M  ISO  8  11  14  12  14  13  13  14  13  15  13  16  13  17  13  18   3
M  END
>  <minimizedAffinity>  (1) 
-4.481143

>  <minimizedRMSD>  (1) 
1.9914428

$$$$
