
     RDKit          3D

 15 15  0  0  0  0  0  0  0  0999 V2000
   44.7780   35.1750   44.1870 C   0  0  0  0  0  0  0  0  0  0  0  0
   45.5330   35.4690   43.0420 C   0  0  0  0  0  0  0  0  0  0  0  0
   46.7460   34.7760   42.8720 C   0  0  0  0  0  0  0  0  0  0  0  0
   47.1180   33.8700   43.8100 N   0  0  0  0  0  0  0  0  0  0  0  0
   46.3620   33.6220   44.8880 C   0  0  0  0  0  0  0  0  0  0  0  0
   45.2070   34.2670   45.0740 N   0  0  0  0  0  0  0  0  0  0  0  0
   48.8250   35.4650   41.4220 C   0  0  0  0  0  0  0  0  0  0  0  0
   49.7320   35.5650   42.2870 O   0  0  0  0  0  0  0  0  0  0  0  0
   47.4770   35.1070   41.6970 N   0  0  0  0  0  0  0  0  0  0  0  0
   43.6030   35.8490   44.3500 O   0  0  0  0  0  0  0  0  0  0  0  0
   45.1906   36.2116   42.3063 H   0  0  0  0  0  0  0  0  0  0  0  0
   46.6959   32.8795   45.6277 H   0  0  0  0  0  0  0  0  0  0  0  0
   49.0944   35.6696   40.3753 H   0  0  0  0  0  0  0  0  0  0  0  0
   46.8939   35.0812   40.8483 H   0  0  0  0  0  0  0  0  0  0  0  0
   43.3159   36.5137   43.6749 H   0  0  0  0  0  0  0  0  0  0  0  0
  1 10  1  0
  1  6  2  0
  2  1  1  0
  3  2  2  0
  3  4  1  0
  4  5  2  0
  5  6  1  0
  7  9  1  0
  7  8  2  0
  9  3  1  0
  2 11  1  0
  5 12  1  0
  7 13  1  0
  9 14  1  0
 10 15  1  0
M  ISO  4  11  14  12  14  13   6  15   3
M  END
>  <minimizedAffinity>  (1) 
-4.17082262

>  <minimizedRMSD>  (1) 
1.37832344

$$$$
