
     RDKit          3D

 28 30  0  0  0  0  0  0  0  0999 V2000
   44.0940   34.5140   41.8150 C   0  0  0  0  0  0  0  0  0  0  0  0
   45.3850   34.1800   41.3640 C   0  0  0  0  0  0  0  0  0  0  0  0
   46.4640   34.8340   41.9560 C   0  0  0  0  0  0  0  0  0  0  0  0
   46.2330   35.7660   42.9430 N   0  0  0  0  0  0  0  0  0  0  0  0
   44.9760   36.0500   43.3390 C   0  0  0  0  0  0  0  0  0  0  0  0
   43.9200   35.4240   42.7740 N   0  0  0  0  0  0  0  0  0  0  0  0
   47.8660   34.5170   41.5470 C   0  0  0  0  0  0  0  0  0  0  0  0
   48.2620   34.7410   40.1200 C   0  0  0  0  0  0  0  0  0  0  0  0
   48.7970   35.5980   41.2680 C   0  0  0  0  0  0  0  0  0  0  0  0
   43.0430   33.8750   41.2320 O   0  0  0  0  0  0  0  0  0  0  0  0
   40.3400   34.2990   41.9240 F   0  0  0  0  0  0  0  0  0  0  0  0
   40.8870   34.5850   40.7170 C   0  0  0  0  0  0  0  0  0  0  0  0
   42.2060   34.4190   40.2760 C   0  0  0  0  0  0  0  0  0  0  0  0
   42.5230   34.7990   38.9890 C   0  0  0  0  0  0  0  0  0  0  0  0
   41.5760   35.3330   38.1410 C   0  0  0  0  0  0  0  0  0  0  0  0
   40.2870   35.4980   38.5640 C   0  0  0  0  0  0  0  0  0  0  0  0
   39.9400   35.1260   39.8470 C   0  0  0  0  0  0  0  0  0  0  0  0
   45.5366   33.4304   40.5734 H   0  0  0  0  0  0  0  0  0  0  0  0
   44.8086   36.7974   44.1285 H   0  0  0  0  0  0  0  0  0  0  0  0
   47.8920   33.6533   42.2276 H   0  0  0  0  0  0  0  0  0  0  0  0
   47.5421   35.1593   39.4012 H   0  0  0  0  0  0  0  0  0  0  0  0
   48.6990   34.1335   39.3138 H   0  0  0  0  0  0  0  0  0  0  0  0
   49.8495   35.5097   41.5753 H   0  0  0  0  0  0  0  0  0  0  0  0
   48.8231   36.6760   41.4856 H   0  0  0  0  0  0  0  0  0  0  0  0
   43.5553   34.6732   38.6305 H   0  0  0  0  0  0  0  0  0  0  0  0
   41.8592   35.6275   37.1197 H   0  0  0  0  0  0  0  0  0  0  0  0
   39.5318   35.9240   37.8871 H   0  0  0  0  0  0  0  0  0  0  0  0
   38.9026   35.2579   40.1883 H   0  0  0  0  0  0  0  0  0  0  0  0
  1  6  1  0
  2  1  2  0
  2  3  1  0
  3  4  2  0
  4  5  1  0
  6  5  2  0
  7  3  1  0
  8  9  1  0
  8  7  1  0
  9  7  1  0
 10  1  1  0
 12 11  1  0
 13 12  2  0
 13 10  1  0
 14 13  1  0
 15 16  1  0
 15 14  2  0
 16 17  2  0
 17 12  1  0
  2 18  1  0
  5 19  1  0
  7 20  1  0
  8 21  1  0
  8 22  1  0
  9 23  1  0
  9 24  1  0
 14 25  1  0
 15 26  1  0
 16 27  1  0
 17 28  1  0
M  ISO  8  18  14  19  14  20  13  21  13  22  13  23  13  24  13  25  14
M  ISO  3  26  14  27  14  28  14
M  END
>  <minimizedAffinity>  (1) 
-5.35858774

>  <minimizedRMSD>  (1) 
3.68257523

$$$$
