
     RDKit          3D

 22 23  0  0  0  0  0  0  0  0999 V2000
   46.1650   33.9900   45.1190 C   0  0  0  0  0  0  0  0  0  0  0  0
   46.9620   33.9500   43.9540 C   0  0  0  0  0  0  0  0  0  0  0  0
   46.5560   34.7300   42.8720 C   0  0  0  0  0  0  0  0  0  0  0  0
   45.4190   35.4860   42.9970 N   0  0  0  0  0  0  0  0  0  0  0  0
   44.6950   35.4870   44.1370 C   0  0  0  0  0  0  0  0  0  0  0  0
   45.0670   34.7480   45.1830 N   0  0  0  0  0  0  0  0  0  0  0  0
   47.3380   34.7780   41.6040 C   0  0  0  0  0  0  0  0  0  0  0  0
   48.6230   35.5460   41.5710 C   0  0  0  0  0  0  0  0  0  0  0  0
   48.5670   34.0170   41.4750 C   0  0  0  0  0  0  0  0  0  0  0  0
   46.6180   33.1940   46.1530 O   0  0  0  0  0  0  0  0  0  0  0  0
   45.6700   32.5690   46.9820 C   0  0  0  0  0  0  0  0  0  0  0  0
   45.4870   31.3130   47.1110 O   0  0  0  0  0  0  0  0  0  0  0  0
   44.8290   33.4040   47.7550 N   0  0  0  0  0  0  0  0  0  0  0  0
   47.8677   33.3278   43.9022 H   0  0  0  0  0  0  0  0  0  0  0  0
   43.7874   36.1049   44.2036 H   0  0  0  0  0  0  0  0  0  0  0  0
   46.4064   34.8125   41.0201 H   0  0  0  0  0  0  0  0  0  0  0  0
   48.8888   36.1505   40.6913 H   0  0  0  0  0  0  0  0  0  0  0  0
   49.1240   36.2831   42.2157 H   0  0  0  0  0  0  0  0  0  0  0  0
   48.8066   33.5169   40.5250 H   0  0  0  0  0  0  0  0  0  0  0  0
   49.0283   33.1864   42.0293 H   0  0  0  0  0  0  0  0  0  0  0  0
   44.1204   32.9880   48.3761 H   0  0  0  0  0  0  0  0  0  0  0  0
   44.9254   34.4278   47.6966 H   0  0  0  0  0  0  0  0  0  0  0  0
  1  6  2  0
  1 10  1  0
  2  1  1  0
  3  4  1  0
  3  2  2  0
  4  5  2  0
  5  6  1  0
  7  3  1  0
  8  7  1  0
  9  8  1  0
  9  7  1  0
 10 11  1  0
 11 12  2  0
 11 13  1  0
  2 14  1  0
  5 15  1  0
  7 16  1  0
  8 17  1  0
  8 18  1  0
  9 19  1  0
  9 20  1  0
 13 21  1  0
 13 22  1  0
M  ISO  7  14  14  15  14  16  13  17  13  18  13  19  13  20  13
M  END
>  <minimizedAffinity>  (1) 
-4.73946619

>  <minimizedRMSD>  (1) 
3.3755393

$$$$
