
     RDKit          3D

 51 54  0  0  1  0  0  0  0  0999 V2000
   42.8000   34.4960   38.7590 C   0  0  1  0  0  0  0  0  0  0  0  0
   43.0080   35.2210   40.0930 C   0  0  1  0  0  0  0  0  0  0  0  0
   41.7530   35.6050   40.6010 O   0  0  0  0  0  0  0  0  0  0  0  0
   40.8460   35.9600   39.6020 C   0  0  0  0  0  0  0  0  0  0  0  0
   40.4140   34.7490   38.8040 C   0  0  2  0  0  0  0  0  0  0  0  0
   41.5240   33.6890   38.9460 C   0  0  1  0  0  0  0  0  0  0  0  0
   42.6360   35.4140   37.7240 O   0  0  0  0  0  0  0  0  0  0  0  0
   40.4390   35.0830   37.4420 O   0  0  0  0  0  0  0  0  0  0  0  0
   43.4630   34.2440   40.9870 O   0  0  0  0  0  0  0  0  0  0  0  0
   44.5740   34.3280   41.7240 C   0  0  0  0  0  0  0  0  0  0  0  0
   45.8250   34.4590   41.1250 C   0  0  0  0  0  0  0  0  0  0  0  0
   46.9460   34.5440   41.9360 C   0  0  0  0  0  0  0  0  0  0  0  0
   46.8010   34.4960   43.3110 N   0  0  0  0  0  0  0  0  0  0  0  0
   45.5720   34.3680   43.8540 C   0  0  0  0  0  0  0  0  0  0  0  0
   44.4670   34.2840   43.0730 N   0  0  0  0  0  0  0  0  0  0  0  0
   48.3210   34.6740   41.3350 C   0  0  0  0  0  0  0  0  0  0  0  0
   49.0360   35.9920   41.5140 C   0  0  0  0  0  0  0  0  0  0  0  0
   49.4780   34.6820   42.1920 C   0  0  0  0  0  0  0  0  0  0  0  0
   41.3700   32.6810   38.0140 O   0  0  0  0  0  0  0  0  0  0  0  0
   41.1470   31.4410   38.5680 C   0  0  0  0  0  0  0  0  0  0  0  0
   40.2520   31.4410   39.7640 C   0  0  0  0  0  0  0  0  0  0  0  0
   38.7850   31.4530   39.4260 C   0  0  0  0  0  0  0  0  0  0  0  0
   38.4170   30.3440   38.4560 C   0  0  0  0  0  0  0  0  0  0  0  0
   39.1990   30.6530   37.1860 C   0  0  0  0  0  0  0  0  0  0  0  0
   40.6590   30.4270   37.5630 C   0  0  0  0  0  0  0  0  0  0  0  0
   43.6615   33.8646   38.4961 H   0  0  0  0  0  0  0  0  0  0  0  0
   43.6815   36.0819   39.9694 H   0  0  0  0  0  0  0  0  0  0  0  0
   39.9608   36.4186   40.0668 H   0  0  0  0  0  0  0  0  0  0  0  0
   41.3366   36.6708   38.9208 H   0  0  0  0  0  0  0  0  0  0  0  0
   39.4244   34.4099   39.1440 H   0  0  0  0  0  0  0  0  0  0  0  0
   41.5163   33.1596   39.9102 H   0  0  0  0  0  0  0  0  0  0  0  0
   42.4752   36.3141   38.1036 H   0  0  0  0  0  0  0  0  0  0  0  0
   40.5125   36.0654   37.3444 H   0  0  0  0  0  0  0  0  0  0  0  0
   45.9213   34.4943   40.0298 H   0  0  0  0  0  0  0  0  0  0  0  0
   45.4652   34.3312   44.9482 H   0  0  0  0  0  0  0  0  0  0  0  0
   48.0376   34.0577   40.4691 H   0  0  0  0  0  0  0  0  0  0  0  0
   49.6267   36.4245   40.6930 H   0  0  0  0  0  0  0  0  0  0  0  0
   48.7682   37.0084   41.8384 H   0  0  0  0  0  0  0  0  0  0  0  0
   49.3559   34.5591   43.2783 H   0  0  0  0  0  0  0  0  0  0  0  0
   50.4164   34.1092   42.2295 H   0  0  0  0  0  0  0  0  0  0  0  0
   42.1451   31.1406   38.9197 H   0  0  0  0  0  0  0  0  0  0  0  0
   40.4641   30.5383   40.3557 H   0  0  0  0  0  0  0  0  0  0  0  0
   40.4601   32.3674   40.3194 H   0  0  0  0  0  0  0  0  0  0  0  0
   38.2059   31.3219   40.3520 H   0  0  0  0  0  0  0  0  0  0  0  0
   38.5542   32.4155   38.9460 H   0  0  0  0  0  0  0  0  0  0  0  0
   38.7094   29.3639   38.8609 H   0  0  0  0  0  0  0  0  0  0  0  0
   37.3333   30.2993   38.2725 H   0  0  0  0  0  0  0  0  0  0  0  0
   39.0361   31.6953   36.8745 H   0  0  0  0  0  0  0  0  0  0  0  0
   38.8857   30.0217   36.3415 H   0  0  0  0  0  0  0  0  0  0  0  0
   40.7625   29.4207   37.9950 H   0  0  0  0  0  0  0  0  0  0  0  0
   41.2655   30.5332   36.6515 H   0  0  0  0  0  0  0  0  0  0  0  0
  1  6  1  0
  1  2  1  0
  2  3  1  0
  2  9  1  0
  4  3  1  0
  5  6  1  0
  5  4  1  0
  7  1  1  0
  8  5  1  0
  9 10  1  0
 10 15  1  0
 11 10  2  0
 11 12  1  0
 12 13  2  0
 13 14  1  0
 15 14  2  0
 16 17  1  0
 16 12  1  0
 16 18  1  0
 17 18  1  0
 19 20  1  0
 19  6  1  0
 20 21  1  0
 22 21  1  0
 23 22  1  0
 24 25  1  0
 24 23  1  0
 25 20  1  0
  1 26  1  6
  2 27  1  6
  4 28  1  0
  4 29  1  0
  5 30  1  1
  6 31  1  1
  7 32  1  0
  8 33  1  0
 11 34  1  0
 14 35  1  0
 16 36  1  0
 17 37  1  0
 17 38  1  0
 18 39  1  0
 18 40  1  0
 20 41  1  0
 21 42  1  0
 21 43  1  0
 22 44  1  0
 22 45  1  0
 23 46  1  0
 23 47  1  0
 24 48  1  0
 24 49  1  0
 25 50  1  0
 25 51  1  0
M  ISO  8  26  13  27  13  28  13  29  13  30  13  31  13  32   3  33   3
M  ISO  8  34  14  35  14  36  13  37  13  38  13  39  13  40  13  41  13
M  ISO  8  42  13  43  13  44  13  45  13  46  13  47  13  48  13  49  13
M  ISO  2  50  13  51  13
M  END
>  <minimizedAffinity>  (1) 
-6.29356575

>  <minimizedRMSD>  (1) 
1.07397854

$$$$
