
     RDKit          3D

 41 43  0  0  1  0  0  0  0  0999 V2000
   42.8300   34.4810   38.7350 C   0  0  1  0  0  0  0  0  0  0  0  0
   42.9720   35.1610   40.0990 C   0  0  1  0  0  0  0  0  0  0  0  0
   41.6920   35.4310   40.6180 O   0  0  0  0  0  0  0  0  0  0  0  0
   40.7650   35.7460   39.6320 C   0  0  0  0  0  0  0  0  0  0  0  0
   40.4330   34.5250   38.7870 C   0  0  2  0  0  0  0  0  0  0  0  0
   41.6200   33.5560   38.8880 C   0  0  1  0  0  0  0  0  0  0  0  0
   42.5930   35.4390   37.7450 O   0  0  0  0  0  0  0  0  0  0  0  0
   40.4320   34.9370   37.4320 O   0  0  0  0  0  0  0  0  0  0  0  0
   43.5020   34.1930   40.9590 O   0  0  0  0  0  0  0  0  0  0  0  0
   44.6050   34.3340   41.7010 C   0  0  0  0  0  0  0  0  0  0  0  0
   45.8580   34.4470   41.1040 C   0  0  0  0  0  0  0  0  0  0  0  0
   46.9750   34.5940   41.9230 C   0  0  0  0  0  0  0  0  0  0  0  0
   46.8160   34.6230   43.2970 N   0  0  0  0  0  0  0  0  0  0  0  0
   45.5930   34.5120   43.8270 C   0  0  0  0  0  0  0  0  0  0  0  0
   44.4880   34.3680   43.0500 N   0  0  0  0  0  0  0  0  0  0  0  0
   48.3530   34.7090   41.3150 C   0  0  0  0  0  0  0  0  0  0  0  0
   49.0740   36.0230   41.5050 C   0  0  0  0  0  0  0  0  0  0  0  0
   49.5100   34.7090   42.1730 C   0  0  0  0  0  0  0  0  0  0  0  0
   41.5510   32.6000   37.9080 O   0  0  0  0  0  0  0  0  0  0  0  0
   40.9380   31.4510   38.3780 C   0  0  0  0  0  0  0  0  0  0  0  0
   39.7480   31.1000   37.5480 C   0  0  0  0  0  0  0  0  0  0  0  0
   43.7363   33.9321   38.4394 H   0  0  0  0  0  0  0  0  0  0  0  0
   43.5761   36.0759   40.0095 H   0  0  0  0  0  0  0  0  0  0  0  0
   39.8447   36.1153   40.1081 H   0  0  0  0  0  0  0  0  0  0  0  0
   41.1967   36.5182   38.9783 H   0  0  0  0  0  0  0  0  0  0  0  0
   39.4802   34.0802   39.1099 H   0  0  0  0  0  0  0  0  0  0  0  0
   41.6550   32.9829   39.8263 H   0  0  0  0  0  0  0  0  0  0  0  0
   42.3783   36.3069   38.1702 H   0  0  0  0  0  0  0  0  0  0  0  0
   40.4296   35.9260   37.3878 H   0  0  0  0  0  0  0  0  0  0  0  0
   45.9633   34.4207   40.0094 H   0  0  0  0  0  0  0  0  0  0  0  0
   45.4789   34.5380   44.9208 H   0  0  0  0  0  0  0  0  0  0  0  0
   48.0686   34.0961   40.4470 H   0  0  0  0  0  0  0  0  0  0  0  0
   49.6672   36.4592   40.6878 H   0  0  0  0  0  0  0  0  0  0  0  0
   48.8098   37.0379   41.8368 H   0  0  0  0  0  0  0  0  0  0  0  0
   49.3868   34.5793   43.2584 H   0  0  0  0  0  0  0  0  0  0  0  0
   50.4467   34.1332   42.2070 H   0  0  0  0  0  0  0  0  0  0  0  0
   41.6578   30.6199   38.3439 H   0  0  0  0  0  0  0  0  0  0  0  0
   40.6038   31.6302   39.4106 H   0  0  0  0  0  0  0  0  0  0  0  0
   38.9026   30.8506   38.2061 H   0  0  0  0  0  0  0  0  0  0  0  0
   39.4781   31.9568   36.9131 H   0  0  0  0  0  0  0  0  0  0  0  0
   39.9863   30.2339   36.9131 H   0  0  0  0  0  0  0  0  0  0  0  0
  1  6  1  0
  1  2  1  0
  2  3  1  0
  2  9  1  0
  4  3  1  0
  5  6  1  0
  5  4  1  0
  7  1  1  0
  8  5  1  0
  9 10  1  0
 10 15  1  0
 11 10  2  0
 11 12  1  0
 12 13  2  0
 13 14  1  0
 15 14  2  0
 16 17  1  0
 16 12  1  0
 16 18  1  0
 17 18  1  0
 19 20  1  0
 19  6  1  0
 21 20  1  0
  1 22  1  6
  2 23  1  6
  4 24  1  0
  4 25  1  0
  5 26  1  1
  6 27  1  1
  7 28  1  0
  8 29  1  0
 11 30  1  0
 14 31  1  0
 16 32  1  0
 17 33  1  0
 17 34  1  0
 18 35  1  0
 18 36  1  0
 20 37  1  0
 20 38  1  0
 21 39  1  0
 21 40  1  0
 21 41  1  0
M  ISO  8  22  13  23  13  24  13  25  13  26  13  27  13  28   3  29   3
M  ISO  8  30  14  31  14  32  13  33  13  34  13  35  13  36  13  37   8
M  ISO  4  38   8  39   8  40   8  41   8
M  END
>  <minimizedAffinity>  (1) 
-5.64171553

>  <minimizedRMSD>  (1) 
0.3097637

$$$$
