
     RDKit          3D

 43 46  0  0  1  0  0  0  0  0999 V2000
   42.8130   34.3170   38.9980 C   0  0  1  0  0  0  0  0  0  0  0  0
   43.0990   35.1940   40.2060 C   0  0  1  0  0  0  0  0  0  0  0  0
   41.8800   35.7380   40.6540 O   0  0  0  0  0  0  0  0  0  0  0  0
   41.0070   36.0400   39.6050 C   0  0  0  0  0  0  0  0  0  0  0  0
   40.4820   34.7890   38.9280 C   0  0  2  0  0  0  0  0  0  0  0  0
   41.5050   33.6480   39.2660 C   0  0  1  0  0  0  0  0  0  0  0  0
   42.7510   35.0910   37.8290 O   0  0  0  0  0  0  0  0  0  0  0  0
   40.5420   34.9390   37.5530 O   0  0  0  0  0  0  0  0  0  0  0  0
   43.4640   34.3050   41.2340 O   0  0  0  0  0  0  0  0  0  0  0  0
   44.6110   34.3550   41.9210 C   0  0  0  0  0  0  0  0  0  0  0  0
   45.8400   34.5070   41.2630 C   0  0  0  0  0  0  0  0  0  0  0  0
   46.9980   34.5560   42.0160 C   0  0  0  0  0  0  0  0  0  0  0  0
   46.9120   34.4550   43.3960 N   0  0  0  0  0  0  0  0  0  0  0  0
   45.7090   34.3090   43.9930 C   0  0  0  0  0  0  0  0  0  0  0  0
   44.5660   34.2600   43.2590 N   0  0  0  0  0  0  0  0  0  0  0  0
   48.3480   34.6870   41.3740 C   0  0  0  0  0  0  0  0  0  0  0  0
   49.0570   36.0290   41.5530 C   0  0  0  0  0  0  0  0  0  0  0  0
   49.5320   34.7040   42.1760 C   0  0  0  0  0  0  0  0  0  0  0  0
   41.1880   32.5840   38.5090 O   0  0  0  0  0  0  0  0  0  0  0  0
   40.1730   31.7160   38.5880 C   0  0  0  0  0  0  0  0  0  0  0  0
   39.9510   30.8210   37.6270 O   0  0  0  0  0  0  0  0  0  0  0  0
   39.1010   31.4760   39.6270 C   0  0  0  0  0  0  0  0  0  0  0  0
   38.5760   30.2610   39.8280 N   0  0  0  0  0  0  0  0  0  0  0  0
   37.6540   30.3200   40.8110 C   0  0  0  0  0  0  0  0  0  0  0  0
   37.6090   31.5920   41.2250 N   0  0  0  0  0  0  0  0  0  0  0  0
   38.4760   32.2690   40.5110 N   0  0  0  0  0  0  0  0  0  0  0  0
   43.6106   33.5753   38.8441 H   0  0  0  0  0  0  0  0  0  0  0  0
   43.8451   35.9663   39.9676 H   0  0  0  0  0  0  0  0  0  0  0  0
   40.1563   36.6121   40.0039 H   0  0  0  0  0  0  0  0  0  0  0  0
   41.5625   36.6247   38.8570 H   0  0  0  0  0  0  0  0  0  0  0  0
   39.4519   34.5849   39.2556 H   0  0  0  0  0  0  0  0  0  0  0  0
   41.5177   33.2395   40.2873 H   0  0  0  0  0  0  0  0  0  0  0  0
   42.6743   36.0480   38.0705 H   0  0  0  0  0  0  0  0  0  0  0  0
   40.9006   35.8355   37.3342 H   0  0  0  0  0  0  0  0  0  0  0  0
   45.8817   34.5859   40.1666 H   0  0  0  0  0  0  0  0  0  0  0  0
   45.6536   34.2286   45.0887 H   0  0  0  0  0  0  0  0  0  0  0  0
   48.0445   34.0659   40.5184 H   0  0  0  0  0  0  0  0  0  0  0  0
   49.6095   36.4881   40.7199 H   0  0  0  0  0  0  0  0  0  0  0  0
   48.7929   37.0352   41.9106 H   0  0  0  0  0  0  0  0  0  0  0  0
   49.4559   34.5549   43.2632 H   0  0  0  0  0  0  0  0  0  0  0  0
   50.4786   34.1439   42.1581 H   0  0  0  0  0  0  0  0  0  0  0  0
   37.0542   29.4831   41.1981 H   0  0  0  0  0  0  0  0  0  0  0  0
   37.0042   31.9699   41.9682 H   0  0  0  0  0  0  0  0  0  0  0  0
  1  6  1  0
  1  2  1  0
  2  3  1  0
  2  9  1  0
  4  3  1  0
  5  6  1  0
  5  4  1  0
  7  1  1  0
  8  5  1  0
  9 10  1  0
 10 15  1  0
 11 10  2  0
 11 12  1  0
 12 13  2  0
 13 14  1  0
 15 14  2  0
 16 17  1  0
 16 12  1  0
 16 18  1  0
 17 18  1  0
 19 20  1  0
 19  6  1  0
 20 22  1  0
 21 20  2  0
 22 23  1  0
 22 26  2  0
 23 24  2  0
 24 25  1  0
 26 25  1  0
  1 27  1  6
  2 28  1  6
  4 29  1  0
  4 30  1  0
  5 31  1  1
  6 32  1  1
  7 33  1  0
  8 34  1  0
 11 35  1  0
 14 36  1  0
 16 37  1  0
 17 38  1  0
 17 39  1  0
 18 40  1  0
 18 41  1  0
 24 42  1  0
 25 43  1  0
M  ISO  8  27  13  28  13  29  13  30  13  31  13  32  13  33   3  34   3
M  ISO  8  35  14  36  14  37  13  38  13  39  13  40  13  41  13  42  14
M  ISO  1  43   9
M  END
>  <minimizedAffinity>  (1) 
-6.31488657

>  <minimizedRMSD>  (1) 
2.09771729

$$$$
