
     RDKit          3D

 29 30  0  0  0  0  0  0  0  0999 V2000
   44.6050   35.5990   44.8110 C   0  0  0  0  0  0  0  0  0  0  0  0
   45.4010   35.4180   43.6620 C   0  0  0  0  0  0  0  0  0  0  0  0
   46.3090   34.3700   43.6810 C   0  0  0  0  0  0  0  0  0  0  0  0
   46.3960   33.5780   44.7790 N   0  0  0  0  0  0  0  0  0  0  0  0
   45.6150   33.7810   45.8630 C   0  0  0  0  0  0  0  0  0  0  0  0
   44.7230   34.7960   45.8660 N   0  0  0  0  0  0  0  0  0  0  0  0
   47.2030   34.1010   42.5010 C   0  0  0  0  0  0  0  0  0  0  0  0
   47.6970   35.3830   41.8960 C   0  0  0  0  0  0  0  0  0  0  0  0
   48.5300   35.0250   40.6880 C   0  0  0  0  0  0  0  0  0  0  0  0
   47.8360   34.0770   39.7420 C   0  0  0  0  0  0  0  0  0  0  0  0
   46.3750   33.9440   40.1650 C   0  0  0  0  0  0  0  0  0  0  0  0
   46.3810   33.2900   41.5240 C   0  0  0  0  0  0  0  0  0  0  0  0
   45.8530   32.8130   46.9630 C   0  0  0  0  0  0  0  0  0  0  0  0
   45.0130   33.0410   48.0270 F   0  0  0  0  0  0  0  0  0  0  0  0
   47.1730   32.8850   47.3830 F   0  0  0  0  0  0  0  0  0  0  0  0
   45.6780   31.5150   46.4820 F   0  0  0  0  0  0  0  0  0  0  0  0
   43.8725   36.4193   44.8363 H   0  0  0  0  0  0  0  0  0  0  0  0
   45.3061   36.0793   42.7881 H   0  0  0  0  0  0  0  0  0  0  0  0
   48.1058   33.5465   42.7966 H   0  0  0  0  0  0  0  0  0  0  0  0
   46.8442   36.0077   41.5921 H   0  0  0  0  0  0  0  0  0  0  0  0
   48.2956   35.9493   42.6247 H   0  0  0  0  0  0  0  0  0  0  0  0
   48.7685   35.9498   40.1423 H   0  0  0  0  0  0  0  0  0  0  0  0
   49.4326   34.5147   41.0553 H   0  0  0  0  0  0  0  0  0  0  0  0
   48.3238   33.0918   39.7815 H   0  0  0  0  0  0  0  0  0  0  0  0
   47.8944   34.4643   38.7141 H   0  0  0  0  0  0  0  0  0  0  0  0
   45.9042   34.9365   40.2229 H   0  0  0  0  0  0  0  0  0  0  0  0
   45.8031   33.3476   39.4388 H   0  0  0  0  0  0  0  0  0  0  0  0
   45.3479   33.2165   41.8945 H   0  0  0  0  0  0  0  0  0  0  0  0
   46.8248   32.2876   41.4334 H   0  0  0  0  0  0  0  0  0  0  0  0
  1  6  2  0
  2  3  2  0
  2  1  1  0
  3  4  1  0
  4  5  2  0
  5  6  1  0
  5 13  1  0
  7  3  1  0
  8  7  1  0
  9  8  1  0
 10 11  1  0
 10  9  1  0
 11 12  1  0
 12  7  1  0
 13 15  1  0
 13 14  1  0
 16 13  1  0
  1 17  1  0
  2 18  1  0
  7 19  1  0
  8 20  1  0
  8 21  1  0
  9 22  1  0
  9 23  1  0
 10 24  1  0
 10 25  1  0
 11 26  1  0
 11 27  1  0
 12 28  1  0
 12 29  1  0
M  ISO  8  17  14  18  14  19  13  20  13  21  13  22  13  23  13  24  13
M  ISO  5  25  13  26  13  27  13  28  13  29  13
M  END
>  <minimizedAffinity>  (1) 
-5.51666355

>  <minimizedRMSD>  (1) 
0.64680618

$$$$
