
     RDKit          3D

 19 19  0  0  0  0  0  0  0  0999 V2000
   44.5470   36.0530   44.5300 C   0  0  0  0  0  0  0  0  0  0  0  0
   45.2390   35.9020   43.2940 C   0  0  0  0  0  0  0  0  0  0  0  0
   46.0820   34.7970   43.1690 C   0  0  0  0  0  0  0  0  0  0  0  0
   46.2020   33.9310   44.2160 N   0  0  0  0  0  0  0  0  0  0  0  0
   45.5290   34.1210   45.3560 C   0  0  0  0  0  0  0  0  0  0  0  0
   44.7010   35.1770   45.5190 N   0  0  0  0  0  0  0  0  0  0  0  0
   45.7990   33.0640   46.3780 C   0  0  0  0  0  0  0  0  0  0  0  0
   44.9720   33.1790   47.4690 F   0  0  0  0  0  0  0  0  0  0  0  0
   47.1310   33.1710   46.8140 F   0  0  0  0  0  0  0  0  0  0  0  0
   45.6950   31.8150   45.8010 F   0  0  0  0  0  0  0  0  0  0  0  0
   46.8400   34.5660   41.9100 C   0  0  0  0  0  0  0  0  0  0  0  0
   48.1350   35.3200   41.9230 C   0  0  0  0  0  0  0  0  0  0  0  0
   43.8723   36.9106   44.6692 H   0  0  0  0  0  0  0  0  0  0  0  0
   45.1143   36.6247   42.4741 H   0  0  0  0  0  0  0  0  0  0  0  0
   46.2340   34.9047   41.0568 H   0  0  0  0  0  0  0  0  0  0  0  0
   47.0583   33.4915   41.8218 H   0  0  0  0  0  0  0  0  0  0  0  0
   48.4441   35.5000   42.9632 H   0  0  0  0  0  0  0  0  0  0  0  0
   48.9077   34.7306   41.4077 H   0  0  0  0  0  0  0  0  0  0  0  0
   48.0038   36.2829   41.4077 H   0  0  0  0  0  0  0  0  0  0  0  0
  1  6  2  0
  2  1  1  0
  3  2  2  0
  3  4  1  0
  4  5  2  0
  5  6  1  0
  5  7  1  0
  7  9  1  0
  7  8  1  0
 10  7  1  0
 11 12  1  0
 11  3  1  0
  1 13  1  0
  2 14  1  0
 11 15  1  0
 11 16  1  0
 12 17  1  0
 12 18  1  0
 12 19  1  0
M  ISO  7  13  14  14  14  15   8  16   8  17   8  18   8  19   8
M  END
>  <minimizedAffinity>  (1) 
-4.45032549

>  <minimizedRMSD>  (1) 
0.175521001

$$$$
