
     RDKit          3D

 42 45  0  0  0  0  0  0  0  0999 V2000
   46.9350   34.9360   42.0580 C   0  0  0  0  0  0  0  0  0  0  0  0
   48.1410   35.6550   42.1360 C   0  0  0  0  0  0  0  0  0  0  0  0
   49.0800   35.7240   41.1250 C   0  0  0  0  0  0  0  0  0  0  0  0
   48.8520   35.0520   39.9440 C   0  0  0  0  0  0  0  0  0  0  0  0
   47.6780   34.3320   39.8230 C   0  0  0  0  0  0  0  0  0  0  0  0
   47.3940   33.6840   38.6620 C   0  0  0  0  0  0  0  0  0  0  0  0
   46.2270   32.9820   38.4730 C   0  0  0  0  0  0  0  0  0  0  0  0
   45.3170   32.9570   39.5490 C   0  0  0  0  0  0  0  0  0  0  0  0
   45.6540   33.6320   40.7100 C   0  0  0  0  0  0  0  0  0  0  0  0
   46.8080   34.3150   40.8630 C   0  0  0  0  0  0  0  0  0  0  0  0
   44.3600   35.9170   44.6190 C   0  0  0  0  0  0  0  0  0  0  0  0
   45.1010   35.9740   43.4360 C   0  0  0  0  0  0  0  0  0  0  0  0
   46.1060   35.0140   43.2030 C   0  0  0  0  0  0  0  0  0  0  0  0
   46.2560   34.1030   44.1910 N   0  0  0  0  0  0  0  0  0  0  0  0
   45.5590   34.0430   45.3100 C   0  0  0  0  0  0  0  0  0  0  0  0
   44.6090   34.9660   45.5060 N   0  0  0  0  0  0  0  0  0  0  0  0
   45.9070   32.9120   46.2070 C   0  0  0  0  0  0  0  0  0  0  0  0
   45.1230   32.8830   47.3280 F   0  0  0  0  0  0  0  0  0  0  0  0
   47.2520   32.9700   46.5310 F   0  0  0  0  0  0  0  0  0  0  0  0
   45.7790   31.7060   45.4800 F   0  0  0  0  0  0  0  0  0  0  0  0
   44.5250   33.3660   41.5280 N   0  0  0  0  0  0  0  0  0  0  0  0
   44.0320   32.4690   42.5470 C   0  0  0  0  0  0  0  0  0  0  0  0
   42.8430   31.6620   42.0570 C   0  0  0  0  0  0  0  0  0  0  0  0
   41.7750   32.5510   41.9600 O   0  0  0  0  0  0  0  0  0  0  0  0
   42.1240   33.4820   40.9860 C   0  0  0  0  0  0  0  0  0  0  0  0
   43.3750   34.2580   41.3070 C   0  0  0  0  0  0  0  0  0  0  0  0
   48.3515   36.2009   43.0675 H   0  0  0  0  0  0  0  0  0  0  0  0
   50.0009   36.3099   41.2616 H   0  0  0  0  0  0  0  0  0  0  0  0
   49.5822   35.0873   39.1220 H   0  0  0  0  0  0  0  0  0  0  0  0
   48.1263   33.7229   37.8421 H   0  0  0  0  0  0  0  0  0  0  0  0
   46.0135   32.4641   37.5263 H   0  0  0  0  0  0  0  0  0  0  0  0
   44.3632   32.4150   39.4685 H   0  0  0  0  0  0  0  0  0  0  0  0
   43.5722   36.6598   44.8129 H   0  0  0  0  0  0  0  0  0  0  0  0
   44.9018   36.7608   42.6935 H   0  0  0  0  0  0  0  0  0  0  0  0
   44.8382   31.7778   42.8339 H   0  0  0  0  0  0  0  0  0  0  0  0
   43.7059   33.0727   43.4068 H   0  0  0  0  0  0  0  0  0  0  0  0
   43.0619   31.2220   41.0729 H   0  0  0  0  0  0  0  0  0  0  0  0
   42.6118   30.8359   42.7455 H   0  0  0  0  0  0  0  0  0  0  0  0
   41.2933   34.1943   40.8736 H   0  0  0  0  0  0  0  0  0  0  0  0
   42.3242   32.9194   40.0622 H   0  0  0  0  0  0  0  0  0  0  0  0
   43.6022   34.9319   40.4678 H   0  0  0  0  0  0  0  0  0  0  0  0
   43.1987   34.8272   42.2316 H   0  0  0  0  0  0  0  0  0  0  0  0
  1  2  2  0
  1 13  1  0
  3  2  1  0
  4  3  2  0
  5  4  1  0
  5 10  2  0
  6  5  1  0
  7  6  2  0
  7  8  1  0
  8  9  2  0
  9 10  1  0
  9 21  1  0
 10  1  1  0
 11 16  2  0
 12 11  1  0
 13 12  2  0
 13 14  1  0
 14 15  2  0
 15 16  1  0
 15 17  1  0
 17 19  1  0
 17 18  1  0
 20 17  1  0
 21 22  1  0
 23 22  1  0
 24 23  1  0
 25 26  1  0
 25 24  1  0
 26 21  1  0
  2 27  1  0
  3 28  1  0
  4 29  1  0
  6 30  1  0
  7 31  1  0
  8 32  1  0
 11 33  1  0
 12 34  1  0
 22 35  1  0
 22 36  1  0
 23 37  1  0
 23 38  1  0
 25 39  1  0
 25 40  1  0
 26 41  1  0
 26 42  1  0
M  ISO  8  27  14  28  14  29  14  30  14  31  14  32  14  33  14  34  14
M  ISO  8  35  13  36  13  37  13  38  13  39  13  40  13  41  13  42  13
M  END
>  <minimizedAffinity>  (1) 
-6.98605776

>  <minimizedRMSD>  (1) 
0.636246383

$$$$
