
     RDKit          3D

 34 36  0  0  0  0  0  0  0  0999 V2000
   46.6670   34.6620   42.2310 C   0  0  0  0  0  0  0  0  0  0  0  0
   47.8780   35.3360   42.1240 C   0  0  0  0  0  0  0  0  0  0  0  0
   48.6740   35.3390   41.0000 C   0  0  0  0  0  0  0  0  0  0  0  0
   48.2820   34.6420   39.8870 C   0  0  0  0  0  0  0  0  0  0  0  0
   47.0970   33.9600   39.9400 C   0  0  0  0  0  0  0  0  0  0  0  0
   46.6480   33.2410   38.8560 C   0  0  0  0  0  0  0  0  0  0  0  0
   45.4640   32.5380   38.8580 C   0  0  0  0  0  0  0  0  0  0  0  0
   44.7160   32.5820   40.0260 C   0  0  0  0  0  0  0  0  0  0  0  0
   45.1950   33.3150   41.0990 C   0  0  0  0  0  0  0  0  0  0  0  0
   46.3530   33.9950   41.0810 C   0  0  0  0  0  0  0  0  0  0  0  0
   44.5090   35.7350   45.1030 C   0  0  0  0  0  0  0  0  0  0  0  0
   45.0950   35.7700   43.8520 C   0  0  0  0  0  0  0  0  0  0  0  0
   45.9820   34.7750   43.4780 C   0  0  0  0  0  0  0  0  0  0  0  0
   46.1950   33.8150   44.4320 N   0  0  0  0  0  0  0  0  0  0  0  0
   45.6300   33.7920   45.6210 C   0  0  0  0  0  0  0  0  0  0  0  0
   44.7890   34.7570   45.9430 N   0  0  0  0  0  0  0  0  0  0  0  0
   46.0320   32.6260   46.4770 C   0  0  0  0  0  0  0  0  0  0  0  0
   45.1430   32.4010   47.4900 F   0  0  0  0  0  0  0  0  0  0  0  0
   47.3120   32.8120   46.9580 F   0  0  0  0  0  0  0  0  0  0  0  0
   46.1390   31.4840   45.6450 F   0  0  0  0  0  0  0  0  0  0  0  0
   44.8290   36.8270   42.8700 C   0  0  0  0  0  0  0  0  0  0  0  0
   44.2980   33.2490   42.2080 N   0  0  0  0  0  0  0  0  0  0  0  0
   48.2248   35.9068   42.9980 H   0  0  0  0  0  0  0  0  0  0  0  0
   49.6209   35.8988   40.9957 H   0  0  0  0  0  0  0  0  0  0  0  0
   48.9016   34.6312   38.9781 H   0  0  0  0  0  0  0  0  0  0  0  0
   47.2641   33.2272   37.9448 H   0  0  0  0  0  0  0  0  0  0  0  0
   45.1280   31.9701   37.9779 H   0  0  0  0  0  0  0  0  0  0  0  0
   43.7593   32.0440   40.0984 H   0  0  0  0  0  0  0  0  0  0  0  0
   43.8054   36.5267   45.4000 H   0  0  0  0  0  0  0  0  0  0  0  0
   44.5931   37.7644   43.3951 H   0  0  0  0  0  0  0  0  0  0  0  0
   45.7182   36.9738   42.2393 H   0  0  0  0  0  0  0  0  0  0  0  0
   43.9762   36.5354   42.2393 H   0  0  0  0  0  0  0  0  0  0  0  0
   44.5214   33.7471   43.0814 H   0  0  0  0  0  0  0  0  0  0  0  0
   43.4276   32.7032   42.1346 H   0  0  0  0  0  0  0  0  0  0  0  0
  1 13  1  0
  2  1  2  0
  3  2  1  0
  4  5  1  0
  4  3  2  0
  5 10  2  0
  6  7  2  0
  6  5  1  0
  7  8  1  0
  8  9  2  0
  9 22  1  0
 10  9  1  0
 10  1  1  0
 11 16  2  0
 12 11  1  0
 13 12  2  0
 13 14  1  0
 14 15  2  0
 15 16  1  0
 15 17  1  0
 17 19  1  0
 17 18  1  0
 20 17  1  0
 21 12  1  0
  2 23  1  0
  3 24  1  0
  4 25  1  0
  6 26  1  0
  7 27  1  0
  8 28  1  0
 11 29  1  0
 21 30  1  0
 21 31  1  0
 21 32  1  0
 22 33  1  0
 22 34  1  0
M  ISO  8  23  14  24  14  25  14  26  14  27  14  28  14  29  14  30   8
M  ISO  2  31   8  32   8
M  END
>  <minimizedAffinity>  (1) 
-6.63747358

>  <minimizedRMSD>  (1) 
0.288752228

$$$$
