
     RDKit          3D

 41 43  0  0  0  0  0  0  0  0999 V2000
   44.6410   35.1920   45.2010 C   0  0  0  0  0  0  0  0  0  0  0  0
   45.2090   35.3170   43.9370 C   0  0  0  0  0  0  0  0  0  0  0  0
   46.2470   34.4740   43.5670 C   0  0  0  0  0  0  0  0  0  0  0  0
   46.6130   33.5760   44.5250 N   0  0  0  0  0  0  0  0  0  0  0  0
   46.0720   33.4650   45.7160 C   0  0  0  0  0  0  0  0  0  0  0  0
   45.0880   34.2790   46.0380 N   0  0  0  0  0  0  0  0  0  0  0  0
   46.9260   34.4730   42.3180 C   0  0  0  0  0  0  0  0  0  0  0  0
   47.9470   35.4030   42.1590 C   0  0  0  0  0  0  0  0  0  0  0  0
   48.7110   35.5440   41.0200 C   0  0  0  0  0  0  0  0  0  0  0  0
   48.4880   34.7430   39.9490 C   0  0  0  0  0  0  0  0  0  0  0  0
   47.4890   33.7930   40.0330 C   0  0  0  0  0  0  0  0  0  0  0  0
   47.2110   32.9550   38.9960 C   0  0  0  0  0  0  0  0  0  0  0  0
   46.2280   32.0020   39.0440 C   0  0  0  0  0  0  0  0  0  0  0  0
   45.4850   31.9050   40.2280 C   0  0  0  0  0  0  0  0  0  0  0  0
   45.8000   32.7810   41.2640 C   0  0  0  0  0  0  0  0  0  0  0  0
   46.7620   33.7060   41.2050 C   0  0  0  0  0  0  0  0  0  0  0  0
   44.9440   32.5470   42.3810 N   0  0  0  0  0  0  0  0  0  0  0  0
   46.6720   32.3850   46.5700 C   0  0  0  0  0  0  0  0  0  0  0  0
   45.7050   31.6280   47.1680 F   0  0  0  0  0  0  0  0  0  0  0  0
   47.5150   32.9320   47.5140 F   0  0  0  0  0  0  0  0  0  0  0  0
   47.5280   31.5960   45.7700 F   0  0  0  0  0  0  0  0  0  0  0  0
   44.7850   36.2980   42.9270 C   0  0  0  0  0  0  0  0  0  0  0  0
   43.8600   35.7640   41.8810 C   0  0  0  0  0  0  0  0  0  0  0  0
   41.3650   35.4510   41.7580 C   0  0  0  0  0  0  0  0  0  0  0  0
   41.4750   35.3870   40.4870 O   0  0  0  0  0  0  0  0  0  0  0  0
   42.5440   35.6430   42.5420 N   0  0  0  0  0  0  0  0  0  0  0  0
   43.8176   35.8566   45.5014 H   0  0  0  0  0  0  0  0  0  0  0  0
   48.1608   36.0751   43.0031 H   0  0  0  0  0  0  0  0  0  0  0  0
   49.5023   36.3071   40.9801 H   0  0  0  0  0  0  0  0  0  0  0  0
   49.0892   34.8474   39.0338 H   0  0  0  0  0  0  0  0  0  0  0  0
   47.8049   33.0479   38.0748 H   0  0  0  0  0  0  0  0  0  0  0  0
   46.0301   31.3400   38.1881 H   0  0  0  0  0  0  0  0  0  0  0  0
   44.6806   31.1625   40.3356 H   0  0  0  0  0  0  0  0  0  0  0  0
   45.0456   33.1134   43.2352 H   0  0  0  0  0  0  0  0  0  0  0  0
   44.2244   31.8116   42.3332 H   0  0  0  0  0  0  0  0  0  0  0  0
   44.2749   37.1234   43.4452 H   0  0  0  0  0  0  0  0  0  0  0  0
   45.6979   36.6129   42.4002 H   0  0  0  0  0  0  0  0  0  0  0  0
   44.2050   34.7808   41.5285 H   0  0  0  0  0  0  0  0  0  0  0  0
   43.8156   36.4225   41.0010 H   0  0  0  0  0  0  0  0  0  0  0  0
   40.3805   35.3600   42.2402 H   0  0  0  0  0  0  0  0  0  0  0  0
   42.4765   35.6971   43.5684 H   0  0  0  0  0  0  0  0  0  0  0  0
  1  6  2  0
  2  1  1  0
  3  2  2  0
  3  4  1  0
  4  5  2  0
  5  6  1  0
  5 18  1  0
  7  3  1  0
  8  7  2  0
  9  8  1  0
 10 11  1  0
 10  9  2  0
 11 16  2  0
 12 13  2  0
 12 11  1  0
 13 14  1  0
 14 15  2  0
 15 17  1  0
 16 15  1  0
 16  7  1  0
 18 19  1  0
 18 20  1  0
 21 18  1  0
 22  2  1  0
 23 26  1  0
 23 22  1  0
 24 26  1  0
 25 24  2  0
  1 27  1  0
  8 28  1  0
  9 29  1  0
 10 30  1  0
 12 31  1  0
 13 32  1  0
 14 33  1  0
 17 34  1  0
 17 35  1  0
 22 36  1  0
 22 37  1  0
 23 38  1  0
 23 39  1  0
 24 40  1  0
 26 41  1  0
M  ISO  8  27  14  28  14  29  14  30  14  31  14  32  14  33  14  36   8
M  ISO  4  37   8  38   8  39   8  40   6
M  END
>  <minimizedAffinity>  (1) 
-6.77108049

>  <minimizedRMSD>  (1) 
0.892490447

$$$$
