
     RDKit          3D

 56 59  0  0  0  0  0  0  0  0999 V2000
   44.6370   35.1390   45.2110 C   0  0  0  0  0  0  0  0  0  0  0  0
   45.2410   35.3030   43.9710 C   0  0  0  0  0  0  0  0  0  0  0  0
   46.3150   34.4820   43.6230 C   0  0  0  0  0  0  0  0  0  0  0  0
   46.6550   33.5810   44.5790 N   0  0  0  0  0  0  0  0  0  0  0  0
   46.0810   33.4340   45.7400 C   0  0  0  0  0  0  0  0  0  0  0  0
   45.0730   34.2200   46.0440 N   0  0  0  0  0  0  0  0  0  0  0  0
   47.0370   34.5220   42.4030 C   0  0  0  0  0  0  0  0  0  0  0  0
   47.9800   35.5430   42.2680 C   0  0  0  0  0  0  0  0  0  0  0  0
   48.7690   35.7360   41.1580 C   0  0  0  0  0  0  0  0  0  0  0  0
   48.6600   34.9030   40.0960 C   0  0  0  0  0  0  0  0  0  0  0  0
   47.7530   33.8780   40.1600 C   0  0  0  0  0  0  0  0  0  0  0  0
   47.5940   33.0050   39.1270 C   0  0  0  0  0  0  0  0  0  0  0  0
   46.6930   31.9650   39.1530 C   0  0  0  0  0  0  0  0  0  0  0  0
   45.9140   31.8170   40.3130 C   0  0  0  0  0  0  0  0  0  0  0  0
   46.1140   32.7280   41.3340 C   0  0  0  0  0  0  0  0  0  0  0  0
   46.9840   33.7300   41.3030 C   0  0  0  0  0  0  0  0  0  0  0  0
   45.2270   32.4310   42.4220 N   0  0  0  0  0  0  0  0  0  0  0  0
   46.6720   32.3480   46.5930 C   0  0  0  0  0  0  0  0  0  0  0  0
   45.6950   31.5830   47.1830 F   0  0  0  0  0  0  0  0  0  0  0  0
   47.5100   32.8770   47.5400 F   0  0  0  0  0  0  0  0  0  0  0  0
   47.5140   31.5430   45.7910 F   0  0  0  0  0  0  0  0  0  0  0  0
   44.8440   36.2810   42.9660 C   0  0  0  0  0  0  0  0  0  0  0  0
   44.5630   35.7740   41.6120 C   0  0  0  0  0  0  0  0  0  0  0  0
   42.7620   34.3620   40.5480 C   0  0  0  0  0  0  0  0  0  0  0  0
   43.5210   34.2360   39.5230 O   0  0  0  0  0  0  0  0  0  0  0  0
   43.2420   35.0850   41.6830 N   0  0  0  0  0  0  0  0  0  0  0  0
   41.4490   33.7900   40.5670 N   0  0  0  0  0  0  0  0  0  0  0  0
   40.8600   32.7990   39.6970 C   0  0  0  0  0  0  0  0  0  0  0  0
   40.5750   31.5600   40.5570 C   0  0  0  0  0  0  0  0  0  0  0  0
   39.7590   31.9250   41.7750 C   0  0  0  0  0  0  0  0  0  0  0  0
   39.3130   33.3580   41.6810 C   0  0  0  0  0  0  0  0  0  0  0  0
   40.5240   34.2370   41.5960 C   0  0  0  0  0  0  0  0  0  0  0  0
   43.7905   35.7806   45.4972 H   0  0  0  0  0  0  0  0  0  0  0  0
   48.1003   36.2422   43.1086 H   0  0  0  0  0  0  0  0  0  0  0  0
   49.4888   36.5674   41.1330 H   0  0  0  0  0  0  0  0  0  0  0  0
   49.2853   35.0459   39.2024 H   0  0  0  0  0  0  0  0  0  0  0  0
   48.2153   33.1374   38.2290 H   0  0  0  0  0  0  0  0  0  0  0  0
   46.5870   31.2778   38.3006 H   0  0  0  0  0  0  0  0  0  0  0  0
   45.1741   31.0083   40.4053 H   0  0  0  0  0  0  0  0  0  0  0  0
   45.2410   33.0133   43.2715 H   0  0  0  0  0  0  0  0  0  0  0  0
   44.5763   31.6355   42.3535 H   0  0  0  0  0  0  0  0  0  0  0  0
   43.9328   36.7787   43.3294 H   0  0  0  0  0  0  0  0  0  0  0  0
   45.7174   36.9393   42.8483 H   0  0  0  0  0  0  0  0  0  0  0  0
   45.3450   35.0653   41.3018 H   0  0  0  0  0  0  0  0  0  0  0  0
   44.5458   36.5920   40.8768 H   0  0  0  0  0  0  0  0  0  0  0  0
   42.6795   35.1301   42.5446 H   0  0  0  0  0  0  0  0  0  0  0  0
   41.5591   32.5440   38.8869 H   0  0  0  0  0  0  0  0  0  0  0  0
   39.9357   33.1793   39.2376 H   0  0  0  0  0  0  0  0  0  0  0  0
   40.0176   30.8256   39.9570 H   0  0  0  0  0  0  0  0  0  0  0  0
   41.5335   31.1357   40.8905 H   0  0  0  0  0  0  0  0  0  0  0  0
   38.8763   31.2712   41.8321 H   0  0  0  0  0  0  0  0  0  0  0  0
   40.3760   31.7959   42.6765 H   0  0  0  0  0  0  0  0  0  0  0  0
   38.6937   33.4941   40.7821 H   0  0  0  0  0  0  0  0  0  0  0  0
   38.7204   33.6236   42.5688 H   0  0  0  0  0  0  0  0  0  0  0  0
   41.0403   34.2255   42.5672 H   0  0  0  0  0  0  0  0  0  0  0  0
   40.1900   35.2522   41.3356 H   0  0  0  0  0  0  0  0  0  0  0  0
  1  6  2  0
  2  1  1  0
  3  2  2  0
  3  4  1  0
  4  5  2  0
  5  6  1  0
  5 18  1  0
  7  3  1  0
  8  7  2  0
  9  8  1  0
 10 11  1  0
 10  9  2  0
 11 16  2  0
 12 13  2  0
 12 11  1  0
 13 14  1  0
 14 15  2  0
 15 17  1  0
 16 15  1  0
 16  7  1  0
 18 19  1  0
 18 20  1  0
 21 18  1  0
 22  2  1  0
 23 26  1  0
 23 22  1  0
 24 27  1  0
 24 26  1  0
 25 24  2  0
 27 32  1  0
 28 29  1  0
 28 27  1  0
 29 30  1  0
 31 30  1  0
 32 31  1  0
  1 33  1  0
  8 34  1  0
  9 35  1  0
 10 36  1  0
 12 37  1  0
 13 38  1  0
 14 39  1  0
 17 40  1  0
 17 41  1  0
 22 42  1  0
 22 43  1  0
 23 44  1  0
 23 45  1  0
 26 46  1  0
 28 47  1  0
 28 48  1  0
 29 49  1  0
 29 50  1  0
 30 51  1  0
 30 52  1  0
 31 53  1  0
 31 54  1  0
 32 55  1  0
 32 56  1  0
M  ISO  8  33  14  34  14  35  14  36  14  37  14  38  14  39  14  42   8
M  ISO  8  43   8  44   8  45   8  47  13  48  13  49  13  50  13  51  13
M  ISO  5  52  13  53  13  54  13  55  13  56  13
M  END
>  <minimizedAffinity>  (1) 
-7.05266857

>  <minimizedRMSD>  (1) 
1.57538128

$$$$
