
     RDKit          3D

 24 25  0  0  0  0  0  0  0  0999 V2000
   45.0110   34.7840   42.6040 C   0  0  0  0  0  0  0  0  0  0  0  0
   46.2710   34.9040   41.9410 C   0  0  0  0  0  0  0  0  0  0  0  0
   47.4030   34.4450   42.6200 C   0  0  0  0  0  0  0  0  0  0  0  0
   47.2520   33.9120   43.8680 N   0  0  0  0  0  0  0  0  0  0  0  0
   46.0400   33.8190   44.4570 C   0  0  0  0  0  0  0  0  0  0  0  0
   44.9360   34.2570   43.8170 N   0  0  0  0  0  0  0  0  0  0  0  0
   43.8410   35.2680   41.8820 C   0  0  0  0  0  0  0  0  0  0  0  0
   43.5560   34.7440   40.6970 C   0  0  0  0  0  0  0  0  0  0  0  0
   42.3700   35.2040   39.9210 C   0  0  0  0  0  0  0  0  0  0  0  0
   41.1050   35.1570   40.7060 C   0  0  0  0  0  0  0  0  0  0  0  0
   40.2170   36.3790   40.6310 C   0  0  0  0  0  0  0  0  0  0  0  0
   39.8290   35.1430   39.8830 C   0  0  0  0  0  0  0  0  0  0  0  0
   46.3471   35.3410   40.9344 H   0  0  0  0  0  0  0  0  0  0  0  0
   48.3986   34.5120   42.1570 H   0  0  0  0  0  0  0  0  0  0  0  0
   45.9527   33.3840   45.4635 H   0  0  0  0  0  0  0  0  0  0  0  0
   43.2046   36.0551   42.3127 H   0  0  0  0  0  0  0  0  0  0  0  0
   44.2045   33.9587   40.2814 H   0  0  0  0  0  0  0  0  0  0  0  0
   42.5435   36.2411   39.5981 H   0  0  0  0  0  0  0  0  0  0  0  0
   42.2518   34.5214   39.0666 H   0  0  0  0  0  0  0  0  0  0  0  0
   41.5267   34.5515   41.5218 H   0  0  0  0  0  0  0  0  0  0  0  0
   39.6378   36.6908   41.5127 H   0  0  0  0  0  0  0  0  0  0  0  0
   40.3721   37.4330   40.3571 H   0  0  0  0  0  0  0  0  0  0  0  0
   38.9667   34.5470   40.2165 H   0  0  0  0  0  0  0  0  0  0  0  0
   39.5831   34.9143   38.8355 H   0  0  0  0  0  0  0  0  0  0  0  0
  1  6  1  0
  2  1  2  0
  2  3  1  0
  3  4  2  0
  4  5  1  0
  6  5  2  0
  7  1  1  0
  8  7  2  0
  9  8  1  0
  9 10  1  0
 11 10  1  0
 12 11  1  0
 12 10  1  0
  2 13  1  0
  3 14  1  0
  5 15  1  0
  7 16  1  0
  8 17  1  0
  9 18  1  0
  9 19  1  0
 10 20  1  0
 11 21  1  0
 11 22  1  0
 12 23  1  0
 12 24  1  0
M  ISO  8  13  14  14  14  15  14  18   8  19   8  20  13  21  13  22  13
M  ISO  2  23  13  24  13
M  END
>  <minimizedAffinity>  (1) 
-3.95664811

>  <minimizedRMSD>  (1) 
5.49466228

$$$$
