
     RDKit          3D

 22 23  0  0  0  0  0  0  0  0999 V2000
   46.8130   32.6380   45.5440 C   0  0  0  0  0  0  0  0  0  0  0  0
   45.7750   33.4040   46.1060 C   0  0  0  0  0  0  0  0  0  0  0  0
   45.2700   34.4710   45.3720 C   0  0  0  0  0  0  0  0  0  0  0  0
   45.7980   34.7320   44.1450 N   0  0  0  0  0  0  0  0  0  0  0  0
   46.8030   33.9780   43.6190 C   0  0  0  0  0  0  0  0  0  0  0  0
   47.2860   32.9500   44.3330 N   0  0  0  0  0  0  0  0  0  0  0  0
   44.2400   35.3590   45.7410 N   0  0  0  0  0  0  0  0  0  0  0  0
   45.5150   32.5310   41.3530 Cl  0  0  0  0  0  0  0  0  0  0  0  0
   46.8070   33.6770   41.1890 C   0  0  0  0  0  0  0  0  0  0  0  0
   47.3420   34.2980   42.2910 C   0  0  0  0  0  0  0  0  0  0  0  0
   48.3790   35.2230   42.1940 C   0  0  0  0  0  0  0  0  0  0  0  0
   48.8440   35.4860   40.9290 C   0  0  0  0  0  0  0  0  0  0  0  0
   48.3160   34.8690   39.8190 C   0  0  0  0  0  0  0  0  0  0  0  0
   47.2990   33.9650   39.9350 C   0  0  0  0  0  0  0  0  0  0  0  0
   47.2335   31.7862   46.0986 H   0  0  0  0  0  0  0  0  0  0  0  0
   45.3731   33.1644   47.1015 H   0  0  0  0  0  0  0  0  0  0  0  0
   43.9574   36.1146   45.1006 H   0  0  0  0  0  0  0  0  0  0  0  0
   43.7697   35.2525   46.6511 H   0  0  0  0  0  0  0  0  0  0  0  0
   48.8021   35.7156   43.0819 H   0  0  0  0  0  0  0  0  0  0  0  0
   49.6616   36.2104   40.7998 H   0  0  0  0  0  0  0  0  0  0  0  0
   48.7187   35.1071   38.8234 H   0  0  0  0  0  0  0  0  0  0  0  0
   46.8803   33.4757   39.0432 H   0  0  0  0  0  0  0  0  0  0  0  0
  1  2  2  0
  3  7  1  0
  3  2  1  0
  4  3  2  0
  5  4  1  0
  5  6  2  0
  6  1  1  0
  9  8  1  0
  9 10  2  0
 10  5  1  0
 11 10  1  0
 12 11  2  0
 13 14  2  0
 13 12  1  0
 14  9  1  0
  1 15  1  0
  2 16  1  0
  7 17  1  0
  7 18  1  0
 11 19  1  0
 12 20  1  0
 13 21  1  0
 14 22  1  0
M  ISO  6  15  14  16  14  19  14  20  14  21  14  22  14
M  END
>  <minimizedAffinity>  (1) 
-5.16694784

>  <minimizedRMSD>  (1) 
1.33428466

$$$$
