
     RDKit          3D

 23 24  0  0  0  0  0  0  0  0999 V2000
   47.5900   33.2270   43.3780 C   0  0  0  0  0  0  0  0  0  0  0  0
   46.6620   34.1230   43.9460 C   0  0  0  0  0  0  0  0  0  0  0  0
   45.9500   34.9490   43.0840 C   0  0  0  0  0  0  0  0  0  0  0  0
   46.1690   34.8640   41.7450 N   0  0  0  0  0  0  0  0  0  0  0  0
   47.0730   33.9870   41.2240 C   0  0  0  0  0  0  0  0  0  0  0  0
   47.7730   33.1780   42.0440 N   0  0  0  0  0  0  0  0  0  0  0  0
   45.1060   32.3030   39.7380 Cl  0  0  0  0  0  0  0  0  0  0  0  0
   46.4120   33.1770   39.0080 C   0  0  0  0  0  0  0  0  0  0  0  0
   47.2760   33.9320   39.7710 C   0  0  0  0  0  0  0  0  0  0  0  0
   48.3350   34.6460   39.2160 C   0  0  0  0  0  0  0  0  0  0  0  0
   48.4700   34.5520   37.8450 C   0  0  0  0  0  0  0  0  0  0  0  0
   47.6140   33.8020   37.0750 C   0  0  0  0  0  0  0  0  0  0  0  0
   46.5910   33.1170   37.6410 C   0  0  0  0  0  0  0  0  0  0  0  0
   44.9320   35.9480   43.5660 C   0  0  0  0  0  0  0  0  0  0  0  0
   45.2650   37.2170   43.1740 F   0  0  0  0  0  0  0  0  0  0  0  0
   43.6970   35.6190   43.0220 F   0  0  0  0  0  0  0  0  0  0  0  0
   44.8870   35.8340   44.9350 F   0  0  0  0  0  0  0  0  0  0  0  0
   48.1716   32.5600   44.0314 H   0  0  0  0  0  0  0  0  0  0  0  0
   46.5065   34.1671   45.0341 H   0  0  0  0  0  0  0  0  0  0  0  0
   49.0208   35.2471   39.8311 H   0  0  0  0  0  0  0  0  0  0  0  0
   49.2900   35.0955   37.3529 H   0  0  0  0  0  0  0  0  0  0  0  0
   47.7610   33.7571   35.9858 H   0  0  0  0  0  0  0  0  0  0  0  0
   45.9102   32.5192   37.0172 H   0  0  0  0  0  0  0  0  0  0  0  0
  1  2  2  0
  3 14  1  0
  3  2  1  0
  4  3  2  0
  5  4  1  0
  5  6  2  0
  6  1  1  0
  8  7  1  0
  8  9  2  0
  9  5  1  0
 10  9  1  0
 11 10  2  0
 12 13  2  0
 12 11  1  0
 13  8  1  0
 14 17  1  0
 15 14  1  0
 16 14  1  0
  1 18  1  0
  2 19  1  0
 10 20  1  0
 11 21  1  0
 12 22  1  0
 13 23  1  0
M  ISO  6  18  14  19  14  20  14  21  14  22  14  23  14
M  END
>  <minimizedAffinity>  (1) 
-4.95162964

>  <minimizedRMSD>  (1) 
2.50458479

$$$$
