
     RDKit          3D

 33 35  0  0  0  0  0  0  0  0999 V2000
   47.5908   33.2271   43.3788 C   0  0  0  0  0  0  0  0  0  0  0  0
   46.6675   34.1201   43.9409 C   0  0  0  0  0  0  0  0  0  0  0  0
   45.9460   34.9539   43.0790 C   0  0  0  0  0  0  0  0  0  0  0  0
   46.1641   34.8681   41.7474 N   0  0  0  0  0  0  0  0  0  0  0  0
   47.0682   33.9916   41.2181 C   0  0  0  0  0  0  0  0  0  0  0  0
   47.7722   33.1793   42.0472 N   0  0  0  0  0  0  0  0  0  0  0  0
   45.1079   32.3102   39.7438 Cl  0  0  0  0  0  0  0  0  0  0  0  0
   46.4142   33.1794   39.0035 C   0  0  0  0  0  0  0  0  0  0  0  0
   47.2718   33.9329   39.7714 C   0  0  0  0  0  0  0  0  0  0  0  0
   48.3317   34.6444   39.2132 C   0  0  0  0  0  0  0  0  0  0  0  0
   48.4765   34.5536   37.8482 C   0  0  0  0  0  0  0  0  0  0  0  0
   47.6161   33.7973   37.0758 C   0  0  0  0  0  0  0  0  0  0  0  0
   46.5886   33.1118   37.6460 C   0  0  0  0  0  0  0  0  0  0  0  0
   44.9364   35.9428   43.5733 C   0  0  0  0  0  0  0  0  0  0  0  0
   45.2676   37.2165   43.1715 F   0  0  0  0  0  0  0  0  0  0  0  0
   43.6967   35.6188   43.0183 F   0  0  0  0  0  0  0  0  0  0  0  0
   44.8858   35.8271   44.9354 F   0  0  0  0  0  0  0  0  0  0  0  0
   48.1645   32.5690   44.0179 H   0  0  0  0  0  0  0  0  0  0  0  0
   46.4961   34.1868   44.9929 H   0  0  0  0  0  0  0  0  0  0  0  0
   48.9733   35.2192   39.8634 H   0  0  0  0  0  0  0  0  0  0  0  0
   49.2991   35.1022   37.3903 H   0  0  0  0  0  0  0  0  0  0  0  0
   47.8281   33.7997   36.0049 H   0  0  0  0  0  0  0  0  0  0  0  0
   45.7313   32.3404   36.7539 C   0  0  0  0  0  0  0  0  0  0  0  0
   44.6643   31.6187   37.2779 C   0  0  0  0  0  0  0  0  0  0  0  0
   44.4828   31.6383   38.3429 H   0  0  0  0  0  0  0  0  0  0  0  0
   43.8516   30.8860   36.4222 C   0  0  0  0  0  0  0  0  0  0  0  0
   44.1093   30.8810   35.0670 C   0  0  0  0  0  0  0  0  0  0  0  0
   43.4853   30.3150   34.3863 H   0  0  0  0  0  0  0  0  0  0  0  0
   45.1576   31.5826   34.5004 C   0  0  0  0  0  0  0  0  0  0  0  0
   45.3753   31.5901   33.4357 H   0  0  0  0  0  0  0  0  0  0  0  0
   45.9521   32.3073   35.3949 C   0  0  0  0  0  0  0  0  0  0  0  0
   43.0227   30.3167   36.7696 H   0  0  0  0  0  0  0  0  0  0  0  0
   46.7665   32.8494   34.9355 H   0  0  0  0  0  0  0  0  0  0  0  0
  1  2  2  0
  3 14  1  0
  3  2  1  0
  4  3  2  0
  5  4  1  0
  5  6  2  0
  6  1  1  0
  8  7  1  0
  8  9  2  0
  9  5  1  0
 10  9  1  0
 11 10  2  0
 12 13  2  0
 12 11  1  0
 13  8  1  0
 14 17  1  0
 15 14  1  0
 16 14  1  0
  1 18  1  0
  2 19  1  0
 10 20  1  0
 11 21  1  0
 12 22  1  0
 23 24  2  0
 24 25  1  0
 24 26  1  0
 26 27  2  0
 27 28  1  0
 27 29  1  0
 29 30  1  0
 29 31  2  0
 31 23  1  0
 26 32  1  0
 31 33  1  0
 13 23  1  0
M  END
>  <DihAtoms>  (1) 
11,12,22,23

>  <DihDeg>  (1) 
45.00332175792368

$$$$
