
     RDKit          3D

 25 26  0  0  0  0  0  0  0  0999 V2000
   45.3240   32.3490   40.5730 Cl  0  0  0  0  0  0  0  0  0  0  0  0
   46.6420   33.3890   40.1690 C   0  0  0  0  0  0  0  0  0  0  0  0
   47.2880   34.1120   41.1380 C   0  0  0  0  0  0  0  0  0  0  0  0
   48.3610   34.9660   40.8530 C   0  0  0  0  0  0  0  0  0  0  0  0
   48.7260   35.0290   39.5200 C   0  0  0  0  0  0  0  0  0  0  0  0
   48.0830   34.3080   38.5450 C   0  0  0  0  0  0  0  0  0  0  0  0
   47.0450   33.4870   38.8570 C   0  0  0  0  0  0  0  0  0  0  0  0
   46.9060   32.9050   44.6020 C   0  0  0  0  0  0  0  0  0  0  0  0
   45.9900   33.8170   45.1400 C   0  0  0  0  0  0  0  0  0  0  0  0
   45.5160   34.8320   44.3110 C   0  0  0  0  0  0  0  0  0  0  0  0
   45.9530   34.9000   43.0280 N   0  0  0  0  0  0  0  0  0  0  0  0
   46.8470   33.9960   42.5280 C   0  0  0  0  0  0  0  0  0  0  0  0
   47.3080   33.0190   43.3180 N   0  0  0  0  0  0  0  0  0  0  0  0
   44.5280   35.8760   44.7700 C   0  0  0  0  0  0  0  0  0  0  0  0
   44.9860   37.1320   44.5350 F   0  0  0  0  0  0  0  0  0  0  0  0
   43.3380   35.6900   44.0640 F   0  0  0  0  0  0  0  0  0  0  0  0
   44.3050   35.6420   46.1070 F   0  0  0  0  0  0  0  0  0  0  0  0
   46.3730   32.7280   37.8070 C   0  0  0  0  0  0  0  0  0  0  0  0
   45.6720   33.3290   36.9340 O   0  0  0  0  0  0  0  0  0  0  0  0
   48.8766   35.5452   41.6332 H   0  0  0  0  0  0  0  0  0  0  0  0
   49.5630   35.6815   39.2307 H   0  0  0  0  0  0  0  0  0  0  0  0
   48.4113   34.3954   37.4988 H   0  0  0  0  0  0  0  0  0  0  0  0
   47.3002   32.0914   45.2286 H   0  0  0  0  0  0  0  0  0  0  0  0
   45.6549   33.7349   46.1845 H   0  0  0  0  0  0  0  0  0  0  0  0
   46.4736   31.6332   37.7713 H   0  0  0  0  0  0  0  0  0  0  0  0
  2  1  1  0
  2  3  2  0
  3 12  1  0
  4  3  1  0
  5  4  2  0
  6  7  2  0
  6  5  1  0
  7  2  1  0
  8  9  2  0
 10 14  1  0
 10  9  1  0
 11 10  2  0
 12 11  1  0
 12 13  2  0
 13  8  1  0
 14 17  1  0
 15 14  1  0
 16 14  1  0
 18  7  1  0
 19 18  2  0
  4 20  1  0
  5 21  1  0
  6 22  1  0
  8 23  1  0
  9 24  1  0
 18 25  1  0
M  ISO  6  20  14  21  14  22  14  23  14  24  14  25   6
M  END
>  <minimizedAffinity>  (1) 
-5.1388607

>  <minimizedRMSD>  (1) 
1.40300477

$$$$
