
     RDKit          3D

 44 47  0  0  0  0  0  0  0  0999 V2000
   45.5720   32.5060   40.2230 Cl  0  0  0  0  0  0  0  0  0  0  0  0
   46.8890   33.6160   39.9910 C   0  0  0  0  0  0  0  0  0  0  0  0
   47.4240   34.2920   41.0430 C   0  0  0  0  0  0  0  0  0  0  0  0
   48.4780   35.1890   40.8900 C   0  0  0  0  0  0  0  0  0  0  0  0
   48.9510   35.3510   39.6070 C   0  0  0  0  0  0  0  0  0  0  0  0
   48.4110   34.6660   38.5330 C   0  0  0  0  0  0  0  0  0  0  0  0
   47.3860   33.8020   38.7170 C   0  0  0  0  0  0  0  0  0  0  0  0
   46.7380   32.7750   44.3390 C   0  0  0  0  0  0  0  0  0  0  0  0
   45.8310   33.7030   44.9110 C   0  0  0  0  0  0  0  0  0  0  0  0
   45.4760   34.8150   44.1720 C   0  0  0  0  0  0  0  0  0  0  0  0
   46.0140   34.9760   42.9140 N   0  0  0  0  0  0  0  0  0  0  0  0
   46.8750   34.0750   42.3940 C   0  0  0  0  0  0  0  0  0  0  0  0
   47.2310   32.9880   43.1010 N   0  0  0  0  0  0  0  0  0  0  0  0
   44.5260   35.8660   44.6730 C   0  0  0  0  0  0  0  0  0  0  0  0
   45.0130   37.1090   44.4380 F   0  0  0  0  0  0  0  0  0  0  0  0
   43.3100   35.6970   44.0170 F   0  0  0  0  0  0  0  0  0  0  0  0
   44.3520   35.6190   46.0160 F   0  0  0  0  0  0  0  0  0  0  0  0
   46.8030   33.0720   37.6050 C   0  0  0  0  0  0  0  0  0  0  0  0
   45.4840   33.2240   37.1610 C   0  0  0  0  0  0  0  0  0  0  0  0
   45.2630   32.3840   36.0920 C   0  0  0  0  0  0  0  0  0  0  0  0
   46.4850   31.7490   35.9360 C   0  0  0  0  0  0  0  0  0  0  0  0
   47.3620   32.1690   36.8320 O   0  0  0  0  0  0  0  0  0  0  0  0
   46.9010   30.7120   34.9420 C   0  0  0  0  0  0  0  0  0  0  0  0
   47.5730   31.4530   33.7890 C   0  0  0  0  0  0  0  0  0  0  0  0
   47.7790   30.5980   32.5780 C   0  0  0  0  0  0  0  0  0  0  0  0
   47.1570   29.3740   32.7160 O   0  0  0  0  0  0  0  0  0  0  0  0
   45.7990   29.6200   32.9760 C   0  0  0  0  0  0  0  0  0  0  0  0
   45.6750   30.0220   34.4290 C   0  0  0  0  0  0  0  0  0  0  0  0
   48.9070   35.7354   41.7429 H   0  0  0  0  0  0  0  0  0  0  0  0
   49.7844   36.0469   39.4304 H   0  0  0  0  0  0  0  0  0  0  0  0
   48.8175   34.8248   37.5233 H   0  0  0  0  0  0  0  0  0  0  0  0
   47.0398   31.8812   44.9047 H   0  0  0  0  0  0  0  0  0  0  0  0
   45.4201   33.5414   45.9185 H   0  0  0  0  0  0  0  0  0  0  0  0
   44.7406   33.9072   37.5975 H   0  0  0  0  0  0  0  0  0  0  0  0
   44.3420   32.2500   35.5056 H   0  0  0  0  0  0  0  0  0  0  0  0
   47.5791   29.9704   35.3894 H   0  0  0  0  0  0  0  0  0  0  0  0
   46.9420   32.3094   33.5089 H   0  0  0  0  0  0  0  0  0  0  0  0
   48.5670   31.7686   34.1388 H   0  0  0  0  0  0  0  0  0  0  0  0
   48.8574   30.4374   32.4322 H   0  0  0  0  0  0  0  0  0  0  0  0
   47.3412   31.1138   31.7106 H   0  0  0  0  0  0  0  0  0  0  0  0
   45.4350   30.4325   32.3300 H   0  0  0  0  0  0  0  0  0  0  0  0
   45.1985   28.7212   32.7721 H   0  0  0  0  0  0  0  0  0  0  0  0
   44.8174   30.7028   34.5343 H   0  0  0  0  0  0  0  0  0  0  0  0
   45.5383   29.1034   35.0184 H   0  0  0  0  0  0  0  0  0  0  0  0
  2  1  1  0
  2  3  2  0
  3 12  1  0
  4  3  1  0
  5  4  2  0
  6  7  2  0
  6  5  1  0
  7  2  1  0
  8  9  2  0
 10 14  1  0
 10  9  1  0
 11 10  2  0
 12 11  1  0
 12 13  2  0
 13  8  1  0
 14 17  1  0
 15 14  1  0
 16 14  1  0
 18  7  1  0
 19 18  2  0
 20 19  1  0
 21 20  2  0
 21 22  1  0
 22 18  1  0
 23 21  1  0
 24 23  1  0
 25 26  1  0
 25 24  1  0
 26 27  1  0
 27 28  1  0
 28 23  1  0
  4 29  1  0
  5 30  1  0
  6 31  1  0
  8 32  1  0
  9 33  1  0
 19 34  1  0
 20 35  1  0
 23 36  1  0
 24 37  1  0
 24 38  1  0
 25 39  1  0
 25 40  1  0
 27 41  1  0
 27 42  1  0
 28 43  1  0
 28 44  1  0
M  ISO  8  29  14  30  14  31  14  32  14  33  14  34  14  35  14  36  13
M  ISO  8  37  13  38  13  39  13  40  13  41  13  42  13  43  13  44  13
M  END
>  <minimizedAffinity>  (1) 
-6.16810322

>  <minimizedRMSD>  (1) 
1.0741725

$$$$
