
     RDKit          3D

 41 44  0  0  1  0  0  0  0  0999 V2000
   45.4980   32.4440   40.2010 Cl  0  0  0  0  0  0  0  0  0  0  0  0
   46.8190   33.5420   39.9410 C   0  0  0  0  0  0  0  0  0  0  0  0
   47.3830   34.2310   40.9820 C   0  0  0  0  0  0  0  0  0  0  0  0
   48.4410   35.1170   40.8030 C   0  0  0  0  0  0  0  0  0  0  0  0
   48.8910   35.2630   39.5130 C   0  0  0  0  0  0  0  0  0  0  0  0
   48.3310   34.5730   38.4520 C   0  0  0  0  0  0  0  0  0  0  0  0
   47.3070   33.7220   38.6600 C   0  0  0  0  0  0  0  0  0  0  0  0
   46.7260   32.7640   44.3010 C   0  0  0  0  0  0  0  0  0  0  0  0
   45.8310   33.6970   44.8820 C   0  0  0  0  0  0  0  0  0  0  0  0
   45.4730   34.8100   44.1200 C   0  0  0  0  0  0  0  0  0  0  0  0
   46.0030   34.9340   42.8660 N   0  0  0  0  0  0  0  0  0  0  0  0
   46.8520   34.0290   42.3410 C   0  0  0  0  0  0  0  0  0  0  0  0
   47.2010   32.9630   43.0600 N   0  0  0  0  0  0  0  0  0  0  0  0
   44.5380   35.8630   44.6210 C   0  0  0  0  0  0  0  0  0  0  0  0
   45.0250   37.1060   44.3700 F   0  0  0  0  0  0  0  0  0  0  0  0
   43.3250   35.7100   43.9780 F   0  0  0  0  0  0  0  0  0  0  0  0
   44.3800   35.6420   45.9660 F   0  0  0  0  0  0  0  0  0  0  0  0
   46.6980   32.9830   37.5570 C   0  0  0  0  0  0  0  0  0  0  0  0
   45.4440   33.2910   37.0110 C   0  0  0  0  0  0  0  0  0  0  0  0
   45.1850   32.3900   35.9900 C   0  0  0  0  0  0  0  0  0  0  0  0
   46.3120   31.5810   35.9790 C   0  0  0  0  0  0  0  0  0  0  0  0
   47.1800   31.9420   36.9010 O   0  0  0  0  0  0  0  0  0  0  0  0
   46.5550   30.4480   35.0760 C   0  0  1  0  0  0  0  0  0  0  0  0
   45.6200   30.4480   33.8590 C   0  0  0  0  0  0  0  0  0  0  0  0
   46.4080   29.4450   33.0050 C   0  0  0  0  0  0  0  0  0  0  0  0
   47.7410   29.7490   33.2060 O   0  0  0  0  0  0  0  0  0  0  0  0
   47.8750   30.4800   34.3670 C   0  0  0  0  0  0  0  0  0  0  0  0
   48.8898   35.6671   41.6432 H   0  0  0  0  0  0  0  0  0  0  0  0
   49.7254   35.9523   39.3167 H   0  0  0  0  0  0  0  0  0  0  0  0
   48.7233   34.7198   37.4349 H   0  0  0  0  0  0  0  0  0  0  0  0
   47.0330   31.8732   44.8686 H   0  0  0  0  0  0  0  0  0  0  0  0
   45.4330   33.5491   45.8968 H   0  0  0  0  0  0  0  0  0  0  0  0
   44.7808   34.1061   37.3363 H   0  0  0  0  0  0  0  0  0  0  0  0
   44.2975   32.3306   35.3428 H   0  0  0  0  0  0  0  0  0  0  0  0
   46.4418   29.6027   35.7707 H   0  0  0  0  0  0  0  0  0  0  0  0
   44.6108   30.0867   34.1057 H   0  0  0  0  0  0  0  0  0  0  0  0
   45.4156   31.4264   33.3997 H   0  0  0  0  0  0  0  0  0  0  0  0
   46.1452   29.5561   31.9426 H   0  0  0  0  0  0  0  0  0  0  0  0
   46.1816   28.4060   33.2865 H   0  0  0  0  0  0  0  0  0  0  0  0
   48.6537   30.0343   35.0034 H   0  0  0  0  0  0  0  0  0  0  0  0
   48.1674   31.5159   34.1403 H   0  0  0  0  0  0  0  0  0  0  0  0
  2  1  1  0
  2  3  2  0
  3 12  1  0
  4  3  1  0
  5  4  2  0
  6  7  2  0
  6  5  1  0
  7  2  1  0
  8  9  2  0
 10 14  1  0
 10  9  1  0
 11 10  2  0
 12 11  1  0
 12 13  2  0
 13  8  1  0
 14 17  1  0
 15 14  1  0
 16 14  1  0
 18  7  1  0
 19 18  2  0
 20 19  1  0
 21 20  2  0
 21 22  1  0
 22 18  1  0
 23 21  1  0
 24 23  1  0
 25 26  1  0
 25 24  1  0
 26 27  1  0
 27 23  1  0
  4 28  1  0
  5 29  1  0
  6 30  1  0
  8 31  1  0
  9 32  1  0
 19 33  1  0
 20 34  1  0
 23 35  1  1
 24 36  1  0
 24 37  1  0
 25 38  1  0
 25 39  1  0
 27 40  1  0
 27 41  1  0
M  ISO  8  28  14  29  14  30  14  31  14  32  14  33  14  34  14  35  13
M  ISO  6  36  13  37  13  38  13  39  13  40  13  41  13
M  END
>  <minimizedAffinity>  (1) 
-5.8788147

>  <minimizedRMSD>  (1) 
0.975181699

$$$$
