
     RDKit          3D

 31 33  0  0  0  0  0  0  0  0999 V2000
   45.4960   32.3230   40.5740 Cl  0  0  0  0  0  0  0  0  0  0  0  0
   46.7750   33.4190   40.2020 C   0  0  0  0  0  0  0  0  0  0  0  0
   47.3550   34.1660   41.1870 C   0  0  0  0  0  0  0  0  0  0  0  0
   48.3930   35.0640   40.9230 C   0  0  0  0  0  0  0  0  0  0  0  0
   48.7970   35.1500   39.6080 C   0  0  0  0  0  0  0  0  0  0  0  0
   48.2080   34.3920   38.6100 C   0  0  0  0  0  0  0  0  0  0  0  0
   47.2090   33.5360   38.9010 C   0  0  0  0  0  0  0  0  0  0  0  0
   46.9130   32.9120   44.6180 C   0  0  0  0  0  0  0  0  0  0  0  0
   45.9730   33.8240   45.1570 C   0  0  0  0  0  0  0  0  0  0  0  0
   45.5100   34.8440   44.3480 C   0  0  0  0  0  0  0  0  0  0  0  0
   45.9840   34.9230   43.0560 N   0  0  0  0  0  0  0  0  0  0  0  0
   46.8820   34.0320   42.5790 C   0  0  0  0  0  0  0  0  0  0  0  0
   47.3330   33.0470   43.3520 N   0  0  0  0  0  0  0  0  0  0  0  0
   44.5230   35.8630   44.8010 C   0  0  0  0  0  0  0  0  0  0  0  0
   44.9750   37.1410   44.5650 F   0  0  0  0  0  0  0  0  0  0  0  0
   43.3340   35.6810   44.0920 F   0  0  0  0  0  0  0  0  0  0  0  0
   44.2970   35.6440   46.1320 F   0  0  0  0  0  0  0  0  0  0  0  0
   46.5720   32.7260   37.8610 C   0  0  0  0  0  0  0  0  0  0  0  0
   45.5750   33.1690   37.0040 C   0  0  0  0  0  0  0  0  0  0  0  0
   45.2180   32.1500   36.1650 C   0  0  0  0  0  0  0  0  0  0  0  0
   46.0370   31.0970   36.5570 C   0  0  0  0  0  0  0  0  0  0  0  0
   46.8140   31.4750   37.5520 O   0  0  0  0  0  0  0  0  0  0  0  0
   46.0570   29.8220   36.0030 O   0  0  0  0  0  0  0  0  0  0  0  0
   48.8594   35.6659   41.7169 H   0  0  0  0  0  0  0  0  0  0  0  0
   49.6111   35.8409   39.3436 H   0  0  0  0  0  0  0  0  0  0  0  0
   48.5583   34.4894   37.5718 H   0  0  0  0  0  0  0  0  0  0  0  0
   47.2994   32.0909   45.2396 H   0  0  0  0  0  0  0  0  0  0  0  0
   45.6202   33.7228   46.1940 H   0  0  0  0  0  0  0  0  0  0  0  0
   45.1406   34.1796   37.0001 H   0  0  0  0  0  0  0  0  0  0  0  0
   44.4607   32.1608   35.3673 H   0  0  0  0  0  0  0  0  0  0  0  0
   46.6809   29.1389   36.3554 H   0  0  0  0  0  0  0  0  0  0  0  0
  2  1  1  0
  2  3  2  0
  3 12  1  0
  4  3  1  0
  5  4  2  0
  6  7  2  0
  6  5  1  0
  7  2  1  0
  8  9  2  0
 10 14  1  0
 10  9  1  0
 11 10  2  0
 12 11  1  0
 12 13  2  0
 13  8  1  0
 14 17  1  0
 15 14  1  0
 16 14  1  0
 18  7  1  0
 19 18  2  0
 20 21  2  0
 20 19  1  0
 21 22  1  0
 22 18  1  0
 23 21  1  0
  4 24  1  0
  5 25  1  0
  6 26  1  0
  8 27  1  0
  9 28  1  0
 19 29  1  0
 20 30  1  0
 23 31  1  0
M  ISO  8  24  14  25  14  26  14  27  14  28  14  29  14  30  14  31   3
M  END
>  <minimizedAffinity>  (1) 
-5.62660837

>  <minimizedRMSD>  (1) 
0.00556277717

$$$$
