
     RDKit          3D

 33 35  0  0  0  0  0  0  0  0999 V2000
   45.4840   32.3550   40.5440 Cl  0  0  0  0  0  0  0  0  0  0  0  0
   46.7750   33.4450   40.1890 C   0  0  0  0  0  0  0  0  0  0  0  0
   47.3650   34.1880   41.1650 C   0  0  0  0  0  0  0  0  0  0  0  0
   48.4020   35.0700   40.9130 C   0  0  0  0  0  0  0  0  0  0  0  0
   48.8120   35.1580   39.5980 C   0  0  0  0  0  0  0  0  0  0  0  0
   48.2240   34.4110   38.5950 C   0  0  0  0  0  0  0  0  0  0  0  0
   47.2110   33.5590   38.8820 C   0  0  0  0  0  0  0  0  0  0  0  0
   46.9010   32.9120   44.6000 C   0  0  0  0  0  0  0  0  0  0  0  0
   45.9590   33.8220   45.1380 C   0  0  0  0  0  0  0  0  0  0  0  0
   45.5020   34.8520   44.3170 C   0  0  0  0  0  0  0  0  0  0  0  0
   45.9860   34.9270   43.0440 N   0  0  0  0  0  0  0  0  0  0  0  0
   46.8820   34.0500   42.5550 C   0  0  0  0  0  0  0  0  0  0  0  0
   47.3290   33.0530   43.3370 N   0  0  0  0  0  0  0  0  0  0  0  0
   44.5090   35.8680   44.7780 C   0  0  0  0  0  0  0  0  0  0  0  0
   44.9830   37.1300   44.5490 F   0  0  0  0  0  0  0  0  0  0  0  0
   43.3300   35.6990   44.0770 F   0  0  0  0  0  0  0  0  0  0  0  0
   44.3090   35.6430   46.1150 F   0  0  0  0  0  0  0  0  0  0  0  0
   46.5750   32.7600   37.8430 C   0  0  0  0  0  0  0  0  0  0  0  0
   45.5830   33.2320   36.9850 C   0  0  0  0  0  0  0  0  0  0  0  0
   45.1990   32.2280   36.1260 C   0  0  0  0  0  0  0  0  0  0  0  0
   46.0070   31.1620   36.5220 C   0  0  0  0  0  0  0  0  0  0  0  0
   46.8070   31.5020   37.5340 O   0  0  0  0  0  0  0  0  0  0  0  0
   46.0850   29.7720   35.9910 C   0  0  0  0  0  0  0  0  0  0  0  0
   45.3230   28.9080   36.7550 F   0  0  0  0  0  0  0  0  0  0  0  0
   45.5590   29.6790   34.6990 F   0  0  0  0  0  0  0  0  0  0  0  0
   47.4020   29.3600   35.8650 F   0  0  0  0  0  0  0  0  0  0  0  0
   48.8703   35.6641   41.7116 H   0  0  0  0  0  0  0  0  0  0  0  0
   49.6323   35.8441   39.3403 H   0  0  0  0  0  0  0  0  0  0  0  0
   48.5803   34.5088   37.5589 H   0  0  0  0  0  0  0  0  0  0  0  0
   47.2827   32.0872   45.2197 H   0  0  0  0  0  0  0  0  0  0  0  0
   45.5987   33.7194   46.1722 H   0  0  0  0  0  0  0  0  0  0  0  0
   45.1701   34.2515   36.9933 H   0  0  0  0  0  0  0  0  0  0  0  0
   44.4437   32.2584   35.3268 H   0  0  0  0  0  0  0  0  0  0  0  0
  2  1  1  0
  2  3  2  0
  3 12  1  0
  4  3  1  0
  5  4  2  0
  6  7  2  0
  6  5  1  0
  7  2  1  0
  8  9  2  0
 10 14  1  0
 10  9  1  0
 11 10  2  0
 12 11  1  0
 12 13  2  0
 13  8  1  0
 14 17  1  0
 15 14  1  0
 16 14  1  0
 18  7  1  0
 19 18  2  0
 20 21  2  0
 20 19  1  0
 21 22  1  0
 22 18  1  0
 23 21  1  0
 23 24  1  0
 25 23  1  0
 26 23  1  0
  4 27  1  0
  5 28  1  0
  6 29  1  0
  8 30  1  0
  9 31  1  0
 19 32  1  0
 20 33  1  0
M  ISO  7  27  14  28  14  29  14  30  14  31  14  32  14  33  14
M  END
>  <minimizedAffinity>  (1) 
-5.56896639

>  <minimizedRMSD>  (1) 
0.0554019585

$$$$
