
     RDKit          3D

 28 30  0  0  0  0  0  0  0  0999 V2000
   44.4470   36.1460   44.8110 C   0  0  0  0  0  0  0  0  0  0  0  0
   45.0850   36.1310   43.5740 C   0  0  0  0  0  0  0  0  0  0  0  0
   45.9080   35.0680   43.2440 C   0  0  0  0  0  0  0  0  0  0  0  0
   46.0200   34.1020   44.1870 N   0  0  0  0  0  0  0  0  0  0  0  0
   45.4070   34.1160   45.3710 C   0  0  0  0  0  0  0  0  0  0  0  0
   44.6150   35.1570   45.6730 N   0  0  0  0  0  0  0  0  0  0  0  0
   45.5770   33.0650   46.3000 N   0  0  0  0  0  0  0  0  0  0  0  0
   46.6070   34.8010   42.0140 C   0  0  0  0  0  0  0  0  0  0  0  0
   47.9020   35.3190   41.8940 C   0  0  0  0  0  0  0  0  0  0  0  0
   48.7100   35.1720   40.7900 C   0  0  0  0  0  0  0  0  0  0  0  0
   48.2600   34.4810   39.7090 C   0  0  0  0  0  0  0  0  0  0  0  0
   46.9930   33.9460   39.7550 C   0  0  0  0  0  0  0  0  0  0  0  0
   46.4990   33.2730   38.6640 C   0  0  0  0  0  0  0  0  0  0  0  0
   45.2160   32.7430   38.6370 C   0  0  0  0  0  0  0  0  0  0  0  0
   44.4590   32.9390   39.7870 C   0  0  0  0  0  0  0  0  0  0  0  0
   44.9790   33.6080   40.8450 C   0  0  0  0  0  0  0  0  0  0  0  0
   46.2370   34.1280   40.8820 C   0  0  0  0  0  0  0  0  0  0  0  0
   43.7946   36.9914   45.0751 H   0  0  0  0  0  0  0  0  0  0  0  0
   44.9363   36.9578   42.8639 H   0  0  0  0  0  0  0  0  0  0  0  0
   45.0932   33.0976   47.2087 H   0  0  0  0  0  0  0  0  0  0  0  0
   46.1848   32.2663   46.0685 H   0  0  0  0  0  0  0  0  0  0  0  0
   48.3039   35.8863   42.7465 H   0  0  0  0  0  0  0  0  0  0  0  0
   49.7179   35.6126   40.7820 H   0  0  0  0  0  0  0  0  0  0  0  0
   48.8935   34.3527   38.8190 H   0  0  0  0  0  0  0  0  0  0  0  0
   47.1427   33.1497   37.7806 H   0  0  0  0  0  0  0  0  0  0  0  0
   44.8237   32.2030   37.7626 H   0  0  0  0  0  0  0  0  0  0  0  0
   43.4319   32.5487   39.8384 H   0  0  0  0  0  0  0  0  0  0  0  0
   44.3426   33.7396   41.7325 H   0  0  0  0  0  0  0  0  0  0  0  0
  1  6  2  0
  2  1  1  0
  3  2  2  0
  3  4  1  0
  4  5  2  0
  5  6  1  0
  5  7  1  0
  8  3  1  0
  9  8  2  0
 10  9  1  0
 11 12  1  0
 11 10  2  0
 12 17  2  0
 13 12  1  0
 14 13  2  0
 14 15  1  0
 15 16  2  0
 16 17  1  0
 17  8  1  0
  1 18  1  0
  2 19  1  0
  7 20  1  0
  7 21  1  0
  9 22  1  0
 10 23  1  0
 11 24  1  0
 13 25  1  0
 14 26  1  0
 15 27  1  0
 16 28  1  0
M  ISO  8  18  14  19  14  22  14  23  14  24  14  25  14  26  14  27  14
M  ISO  1  28  14
M  END
>  <minimizedAffinity>  (1) 
-6.05487347

>  <minimizedRMSD>  (1) 
2.57995391

$$$$
