
     RDKit          3D

 18 18  0  0  0  0  0  0  0  0999 V2000
   44.5840   36.1110   44.3840 C   0  0  0  0  0  0  0  0  0  0  0  0
   45.3720   35.8150   43.2640 C   0  0  0  0  0  0  0  0  0  0  0  0
   46.1770   34.6710   43.3380 C   0  0  0  0  0  0  0  0  0  0  0  0
   46.1620   33.9110   44.4620 N   0  0  0  0  0  0  0  0  0  0  0  0
   45.3890   34.2350   45.5160 C   0  0  0  0  0  0  0  0  0  0  0  0
   44.6000   35.3430   45.4650 N   0  0  0  0  0  0  0  0  0  0  0  0
   45.3500   33.4660   46.7040 N   0  0  0  0  0  0  0  0  0  0  0  0
   47.0710   34.2100   42.2460 C   0  0  0  0  0  0  0  0  0  0  0  0
   48.0480   35.2870   41.8320 C   0  0  0  0  0  0  0  0  0  0  0  0
   43.9373   37.0007   44.3663 H   0  0  0  0  0  0  0  0  0  0  0  0
   45.3591   36.4520   42.3673 H   0  0  0  0  0  0  0  0  0  0  0  0
   44.7424   33.7541   47.4842 H   0  0  0  0  0  0  0  0  0  0  0  0
   45.9292   32.6185   46.7881 H   0  0  0  0  0  0  0  0  0  0  0  0
   47.6346   33.3316   42.5934 H   0  0  0  0  0  0  0  0  0  0  0  0
   46.4477   33.9588   41.3751 H   0  0  0  0  0  0  0  0  0  0  0  0
   48.4757   35.7585   42.7291 H   0  0  0  0  0  0  0  0  0  0  0  0
   48.8548   34.8396   41.2329 H   0  0  0  0  0  0  0  0  0  0  0  0
   47.5243   36.0465   41.2329 H   0  0  0  0  0  0  0  0  0  0  0  0
  1  6  2  0
  2  3  2  0
  2  1  1  0
  3  4  1  0
  4  5  2  0
  5  7  1  0
  6  5  1  0
  8  3  1  0
  9  8  1  0
  1 10  1  0
  2 11  1  0
  7 12  1  0
  7 13  1  0
  8 14  1  0
  8 15  1  0
  9 16  1  0
  9 17  1  0
  9 18  1  0
M  ISO  7  10  14  11  14  14   8  15   8  16   8  17   8  18   8
M  END
>  <minimizedAffinity>  (1) 
-3.92933798

>  <minimizedRMSD>  (1) 
1.14987051

$$$$
