
     RDKit          3D

 20 20  0  0  0  0  0  0  0  0999 V2000
   45.4010   35.7280   43.1420 C   0  0  0  0  0  0  0  0  0  0  0  0
   46.4120   34.7930   42.9950 C   0  0  0  0  0  0  0  0  0  0  0  0
   46.6620   33.9560   44.0830 C   0  0  0  0  0  0  0  0  0  0  0  0
   45.9220   34.0830   45.2250 N   0  0  0  0  0  0  0  0  0  0  0  0
   44.9460   35.0210   45.2990 C   0  0  0  0  0  0  0  0  0  0  0  0
   44.6930   35.8310   44.2640 N   0  0  0  0  0  0  0  0  0  0  0  0
   44.1640   35.1650   46.4680 N   0  0  0  0  0  0  0  0  0  0  0  0
   47.7080   32.9930   43.9570 N   0  0  0  0  0  0  0  0  0  0  0  0
   47.1810   34.7000   41.6980 C   0  0  0  0  0  0  0  0  0  0  0  0
   48.4270   35.5350   41.7120 C   0  0  0  0  0  0  0  0  0  0  0  0
   45.1764   36.4063   42.3057 H   0  0  0  0  0  0  0  0  0  0  0  0
   43.4261   35.8824   46.5088 H   0  0  0  0  0  0  0  0  0  0  0  0
   44.3322   34.5525   47.2788 H   0  0  0  0  0  0  0  0  0  0  0  0
   47.9208   32.3583   44.7398 H   0  0  0  0  0  0  0  0  0  0  0  0
   48.2500   32.9328   43.0832 H   0  0  0  0  0  0  0  0  0  0  0  0
   46.5339   35.0445   40.8779 H   0  0  0  0  0  0  0  0  0  0  0  0
   47.4814   33.6508   41.5602 H   0  0  0  0  0  0  0  0  0  0  0  0
   48.7235   35.7337   42.7525 H   0  0  0  0  0  0  0  0  0  0  0  0
   49.2356   34.9957   41.1969 H   0  0  0  0  0  0  0  0  0  0  0  0
   48.2356   36.4879   41.1969 H   0  0  0  0  0  0  0  0  0  0  0  0
  1  6  2  0
  2  1  1  0
  2  3  2  0
  3  4  1  0
  4  5  2  0
  5  7  1  0
  6  5  1  0
  8  3  1  0
  9 10  1  0
  9  2  1  0
  1 11  1  0
  7 12  1  0
  7 13  1  0
  8 14  1  0
  8 15  1  0
  9 16  1  0
  9 17  1  0
 10 18  1  0
 10 19  1  0
 10 20  1  0
M  ISO  6  11  14  16   8  17   8  18   8  19   8  20   8
M  END
>  <minimizedAffinity>  (1) 
-4.57134151

>  <minimizedRMSD>  (1) 
1.54179275

$$$$
