
     RDKit          3D

 16 16  0  0  0  0  0  0  0  0999 V2000
   45.2270   35.9570   43.3090 C   0  0  0  0  0  0  0  0  0  0  0  0
   46.1490   34.9770   42.9820 C   0  0  0  0  0  0  0  0  0  0  0  0
   46.3880   34.0030   43.9580 C   0  0  0  0  0  0  0  0  0  0  0  0
   45.7240   34.0530   45.1570 N   0  0  0  0  0  0  0  0  0  0  0  0
   44.8400   35.0390   45.4020 C   0  0  0  0  0  0  0  0  0  0  0  0
   44.5900   35.9940   44.4770 N   0  0  0  0  0  0  0  0  0  0  0  0
   44.1380   35.1180   46.6330 N   0  0  0  0  0  0  0  0  0  0  0  0
   47.3260   32.9860   43.6500 N   0  0  0  0  0  0  0  0  0  0  0  0
   46.8290   34.9490   41.7190 C   0  0  0  0  0  0  0  0  0  0  0  0
   46.4590   34.1610   40.8240 O   0  0  0  0  0  0  0  0  0  0  0  0
   45.0110   36.7416   42.5689 H   0  0  0  0  0  0  0  0  0  0  0  0
   43.4671   35.8825   46.7951 H   0  0  0  0  0  0  0  0  0  0  0  0
   44.2995   34.4108   47.3642 H   0  0  0  0  0  0  0  0  0  0  0  0
   47.5319   32.2493   44.3397 H   0  0  0  0  0  0  0  0  0  0  0  0
   47.8017   32.9837   42.7364 H   0  0  0  0  0  0  0  0  0  0  0  0
   47.6788   35.6237   41.5386 H   0  0  0  0  0  0  0  0  0  0  0  0
  1  6  2  0
  2  1  1  0
  2  3  2  0
  3  4  1  0
  4  5  2  0
  5  7  1  0
  6  5  1  0
  8  3  1  0
  9  2  1  0
 10  9  2  0
  1 11  1  0
  7 12  1  0
  7 13  1  0
  8 14  1  0
  8 15  1  0
  9 16  1  0
M  ISO  2  11  14  16   6
M  END
>  <minimizedAffinity>  (1) 
-4.13783503

>  <minimizedRMSD>  (1) 
1.32303071

$$$$
