
     RDKit          3D

 32 33  0  0  1  0  0  0  0  0999 V2000
   46.6250   34.6570   41.7290 C   0  0  1  0  0  0  0  0  0  0  0  0
   46.0660   34.0290   40.4360 C   0  0  0  0  0  0  0  0  0  0  0  0
   44.6240   33.8680   40.2660 C   0  0  0  0  0  0  0  0  0  0  0  0
   43.8020   34.3410   41.4600 C   0  0  0  0  0  0  0  0  0  0  0  0
   44.5030   33.7100   42.6410 C   0  0  0  0  0  0  0  0  0  0  0  0
   45.7280   34.6200   42.8610 C   0  0  2  0  0  0  0  0  0  0  0  0
   48.0430   32.6030   42.1420 C   0  0  0  0  0  0  0  0  0  0  0  0
   47.9490   33.9980   41.9150 C   0  0  0  0  0  0  0  0  0  0  0  0
   49.1530   34.7230   41.9510 C   0  0  0  0  0  0  0  0  0  0  0  0
   50.3340   34.0690   42.1980 N   0  0  0  0  0  0  0  0  0  0  0  0
   50.3370   32.7440   42.4010 C   0  0  0  0  0  0  0  0  0  0  0  0
   49.2070   32.0070   42.3770 N   0  0  0  0  0  0  0  0  0  0  0  0
   51.5420   32.0570   42.6170 N   0  0  0  0  0  0  0  0  0  0  0  0
   49.0780   36.1080   41.6950 N   0  0  0  0  0  0  0  0  0  0  0  0
   44.7070   36.1550   44.5460 C   0  0  0  0  0  0  0  0  0  0  0  0
   44.6800   35.2890   45.4860 O   0  0  0  0  0  0  0  0  0  0  0  0
   45.2030   35.9360   43.2100 N   0  0  0  0  0  0  0  0  0  0  0  0
   46.7434   35.7471   41.6419 H   0  0  0  0  0  0  0  0  0  0  0  0
   46.7532   33.7023   39.6417 H   0  0  0  0  0  0  0  0  0  0  0  0
   44.1716   33.4434   39.3577 H   0  0  0  0  0  0  0  0  0  0  0  0
   43.8137   35.4383   41.5358 H   0  0  0  0  0  0  0  0  0  0  0  0
   42.7412   34.0585   41.3896 H   0  0  0  0  0  0  0  0  0  0  0  0
   43.8523   33.7054   43.5279 H   0  0  0  0  0  0  0  0  0  0  0  0
   44.7761   32.6590   42.4655 H   0  0  0  0  0  0  0  0  0  0  0  0
   46.3570   34.2223   43.6711 H   0  0  0  0  0  0  0  0  0  0  0  0
   47.1260   31.9957   42.1232 H   0  0  0  0  0  0  0  0  0  0  0  0
   51.5337   31.0388   42.7720 H   0  0  0  0  0  0  0  0  0  0  0  0
   52.4345   32.5712   42.6205 H   0  0  0  0  0  0  0  0  0  0  0  0
   49.9334   36.6816   41.7102 H   0  0  0  0  0  0  0  0  0  0  0  0
   48.1679   36.5458   41.4929 H   0  0  0  0  0  0  0  0  0  0  0  0
   44.3168   37.1572   44.7772 H   0  0  0  0  0  0  0  0  0  0  0  0
   45.1870   36.6952   42.5141 H   0  0  0  0  0  0  0  0  0  0  0  0
  1  8  1  0
  1  6  1  0
  2  1  1  0
  3  2  2  0
  3  4  1  0
  4  5  1  0
  5  6  1  0
  6 17  1  0
  7 12  2  0
  8  9  2  0
  8  7  1  0
  9 10  1  0
 10 11  2  0
 11 13  1  0
 12 11  1  0
 14  9  1  0
 15 16  2  0
 17 15  1  0
  1 18  1  6
  2 19  1  0
  3 20  1  0
  4 21  1  0
  4 22  1  0
  5 23  1  0
  5 24  1  0
  6 25  1  1
  7 26  1  0
 13 27  1  0
 13 28  1  0
 14 29  1  0
 14 30  1  0
 15 31  1  0
 17 32  1  0
M  ISO  8  18  13  19  13  20  13  21  13  22  13  23  13  24  13  25  13
M  ISO  2  26  14  31   6
M  END
>  <minimizedAffinity>  (1) 
-5.04477882

>  <minimizedRMSD>  (1) 
3.67827272

$$$$
