
     RDKit          3D

 29 30  0  0  0  0  0  0  0  0999 V2000
   47.4910   31.1580   47.7120 O   0  0  0  0  0  0  0  0  0  0  0  0
   46.3240   31.3100   46.7410 P   0  0  2  0  0  0  0  0  0  0  0  0
   46.8010   30.6620   45.2640 O   0  0  0  0  0  0  0  0  0  0  0  0
   46.0410   32.9980   46.6470 O   0  0  0  0  0  0  0  0  0  0  0  0
   44.9600   35.3100   44.1510 C   0  0  0  0  0  0  0  0  0  0  0  0
   45.8910   35.1350   43.0980 C   0  0  0  0  0  0  0  0  0  0  0  0
   46.9020   34.1850   43.3010 C   0  0  0  0  0  0  0  0  0  0  0  0
   46.9280   33.5010   44.4660 N   0  0  0  0  0  0  0  0  0  0  0  0
   46.0120   33.7020   45.4510 C   0  0  0  0  0  0  0  0  0  0  0  0
   45.0380   34.6090   45.2740 N   0  0  0  0  0  0  0  0  0  0  0  0
   43.9760   36.2410   43.9470 O   0  0  0  0  0  0  0  0  0  0  0  0
   45.0350   30.4900   47.3890 O   0  0  0  0  0  0  0  0  0  0  0  0
   44.1360   28.7600   46.1410 C   0  0  0  0  0  0  0  0  0  0  0  0
   44.7510   29.1600   47.3160 C   0  0  0  0  0  0  0  0  0  0  0  0
   45.0020   28.1870   48.2580 C   0  0  0  0  0  0  0  0  0  0  0  0
   44.6750   26.8570   48.0900 C   0  0  0  0  0  0  0  0  0  0  0  0
   44.0600   26.4780   46.9090 C   0  0  0  0  0  0  0  0  0  0  0  0
   43.7980   27.4310   45.9480 C   0  0  0  0  0  0  0  0  0  0  0  0
   43.7810   29.5440   45.0480 O   0  0  0  0  0  0  0  0  0  0  0  0
   43.1800   26.9060   44.8170 O   0  0  0  0  0  0  0  0  0  0  0  0
   47.3805   29.8748   45.4207 H   0  0  0  0  0  0  0  0  0  0  0  0
   45.8241   35.7161   42.1664 H   0  0  0  0  0  0  0  0  0  0  0  0
   47.6603   33.9999   42.5259 H   0  0  0  0  0  0  0  0  0  0  0  0
   43.9436   36.7490   43.0979 H   0  0  0  0  0  0  0  0  0  0  0  0
   45.4905   28.4870   49.1968 H   0  0  0  0  0  0  0  0  0  0  0  0
   44.8971   26.1176   48.8736 H   0  0  0  0  0  0  0  0  0  0  0  0
   43.7832   25.4270   46.7392 H   0  0  0  0  0  0  0  0  0  0  0  0
   43.3425   29.1295   44.2631 H   0  0  0  0  0  0  0  0  0  0  0  0
   42.9762   25.9384   44.7684 H   0  0  0  0  0  0  0  0  0  0  0  0
  2 12  1  0
  2  1  2  0
  3  2  1  0
  4  2  1  0
  5 10  2  0
  6  7  2  0
  6  5  1  0
  7  8  1  0
  8  9  2  0
  9  4  1  0
 10  9  1  0
 11  5  1  0
 13 14  2  0
 14 12  1  0
 14 15  1  0
 16 15  2  0
 17 16  1  0
 18 13  1  0
 18 17  2  0
 19 13  1  0
 20 18  1  0
  3 21  1  0
  6 22  1  0
  7 23  1  0
 11 24  1  0
 15 25  1  0
 16 26  1  0
 17 27  1  0
 19 28  1  0
 20 29  1  0
M  ISO  8  21   3  22  14  23  14  24   3  25  14  26  14  27  14  28   3
M  ISO  1  29   3
M  END
>  <minimizedAffinity>  (1) 
-4.83781719

>  <minimizedRMSD>  (1) 
2.53028035

$$$$
