
     RDKit          3D

 39 41  0  0  1  0  0  0  0  0999 V2000
   47.0150   30.2460   47.9350 C   0  0  2  0  0  0  0  0  0  0  0  0
   45.6350   30.6290   48.3100 C   0  0  2  0  0  0  0  0  0  0  0  0
   44.7850   29.8000   47.4230 C   0  0  0  0  0  0  0  0  0  0  0  0
   45.4810   28.6320   47.1540 O   0  0  0  0  0  0  0  0  0  0  0  0
   46.7490   28.7600   47.6160 C   0  0  0  0  0  0  0  0  0  0  0  0
   45.3710   31.9760   48.2020 O   0  0  0  0  0  0  0  0  0  0  0  0
   47.3430   32.7480   46.7440 O   0  0  0  0  0  0  0  0  0  0  0  0
   45.8560   32.5220   46.7050 P   0  0  1  0  0  0  0  0  0  0  0  0
   45.5140   31.3400   45.5400 O   0  0  0  0  0  0  0  0  0  0  0  0
   45.1110   34.0050   46.2860 O   0  0  0  0  0  0  0  0  0  0  0  0
   44.9670   36.3210   43.5850 C   0  0  0  0  0  0  0  0  0  0  0  0
   44.9660   35.5060   42.4180 C   0  0  0  0  0  0  0  0  0  0  0  0
   45.0190   34.1150   42.6250 C   0  0  0  0  0  0  0  0  0  0  0  0
   45.0650   33.6590   43.8980 N   0  0  0  0  0  0  0  0  0  0  0  0
   45.0630   34.4740   44.9730 C   0  0  0  0  0  0  0  0  0  0  0  0
   45.0140   35.7920   44.7990 N   0  0  0  0  0  0  0  0  0  0  0  0
   44.9170   37.6880   43.3890 O   0  0  0  0  0  0  0  0  0  0  0  0
   47.9160   30.4010   48.9750 O   0  0  0  0  0  0  0  0  0  0  0  0
   49.2630   30.5610   48.9700 C   0  0  0  0  0  0  0  0  0  0  0  0
   49.6090   31.7480   49.6340 C   0  0  0  0  0  0  0  0  0  0  0  0
   50.9440   32.1480   49.7690 C   0  0  0  0  0  0  0  0  0  0  0  0
   51.9530   31.3690   49.2430 C   0  0  0  0  0  0  0  0  0  0  0  0
   51.6220   30.2010   48.5890 C   0  0  0  0  0  0  0  0  0  0  0  0
   50.3070   29.8170   48.4620 C   0  0  0  0  0  0  0  0  0  0  0  0
   47.4721   30.8426   47.1318 H   0  0  0  0  0  0  0  0  0  0  0  0
   45.4435   30.4451   49.3775 H   0  0  0  0  0  0  0  0  0  0  0  0
   43.8352   29.5643   47.9254 H   0  0  0  0  0  0  0  0  0  0  0  0
   44.5554   30.3382   46.4916 H   0  0  0  0  0  0  0  0  0  0  0  0
   46.8724   28.1583   48.5285 H   0  0  0  0  0  0  0  0  0  0  0  0
   47.4611   28.4081   46.8550 H   0  0  0  0  0  0  0  0  0  0  0  0
   45.2690   30.4934   45.9909 H   0  0  0  0  0  0  0  0  0  0  0  0
   44.9259   35.9403   41.4082 H   0  0  0  0  0  0  0  0  0  0  0  0
   45.0229   33.4172   41.7747 H   0  0  0  0  0  0  0  0  0  0  0  0
   44.8825   38.0554   42.4703 H   0  0  0  0  0  0  0  0  0  0  0  0
   48.8134   32.3783   50.0580 H   0  0  0  0  0  0  0  0  0  0  0  0
   51.1878   33.0832   50.2944 H   0  0  0  0  0  0  0  0  0  0  0  0
   53.0050   31.6744   49.3435 H   0  0  0  0  0  0  0  0  0  0  0  0
   52.4170   29.5702   48.1647 H   0  0  0  0  0  0  0  0  0  0  0  0
   50.0793   28.8791   47.9342 H   0  0  0  0  0  0  0  0  0  0  0  0
  1  2  1  0
  1 18  1  0
  3  2  1  0
  4  3  1  0
  4  5  1  0
  5  1  1  0
  6  2  1  0
  8  7  2  0
  8  6  1  0
  9  8  1  0
 10  8  1  0
 11 16  2  0
 12 13  2  0
 12 11  1  0
 13 14  1  0
 14 15  2  0
 15 10  1  0
 16 15  1  0
 17 11  1  0
 19 18  1  0
 19 20  2  0
 20 21  1  0
 22 21  2  0
 23 22  1  0
 24 23  2  0
 24 19  1  0
  1 25  1  6
  2 26  1  1
  3 27  1  0
  3 28  1  0
  5 29  1  0
  5 30  1  0
  9 31  1  0
 12 32  1  0
 13 33  1  0
 17 34  1  0
 20 35  1  0
 21 36  1  0
 22 37  1  0
 23 38  1  0
 24 39  1  0
M  ISO  8  25  13  26  13  27  13  28  13  29  13  30  13  31   3  32  14
M  ISO  7  33  14  34   3  35  14  36  14  37  14  38  14  39  14
M  END
>  <minimizedAffinity>  (1) 
-5.4315753

>  <minimizedRMSD>  (1) 
1.00045693

$$$$
