
     RDKit          3D

 42 44  0  0  1  0  0  0  0  0999 V2000
   47.0130   29.9020   47.9330 C   0  0  2  0  0  0  0  0  0  0  0  0
   45.5860   30.2140   48.1540 C   0  0  2  0  0  0  0  0  0  0  0  0
   44.8930   29.4600   47.0780 C   0  0  0  0  0  0  0  0  0  0  0  0
   45.6540   28.3430   46.7910 O   0  0  0  0  0  0  0  0  0  0  0  0
   46.8480   28.4480   47.4290 C   0  0  0  0  0  0  0  0  0  0  0  0
   45.3010   31.5610   48.1370 O   0  0  0  0  0  0  0  0  0  0  0  0
   47.4310   32.8670   47.5450 O   0  0  0  0  0  0  0  0  0  0  0  0
   46.1740   32.3120   46.9360 P   0  0  1  0  0  0  0  0  0  0  0  0
   46.6030   31.1780   45.7530 O   0  0  0  0  0  0  0  0  0  0  0  0
   45.3350   33.6250   46.2400 O   0  0  0  0  0  0  0  0  0  0  0  0
   45.1890   35.7530   43.3830 C   0  0  0  0  0  0  0  0  0  0  0  0
   46.2790   35.3160   42.5660 C   0  0  0  0  0  0  0  0  0  0  0  0
   47.0490   34.2530   43.0690 C   0  0  0  0  0  0  0  0  0  0  0  0
   46.7200   33.7220   44.2650 N   0  0  0  0  0  0  0  0  0  0  0  0
   45.6760   34.1710   45.0060 C   0  0  0  0  0  0  0  0  0  0  0  0
   44.9230   35.1840   44.5520 N   0  0  0  0  0  0  0  0  0  0  0  0
   44.4390   36.7920   42.8890 O   0  0  0  0  0  0  0  0  0  0  0  0
   47.7900   29.9590   49.0640 O   0  0  0  0  0  0  0  0  0  0  0  0
   49.1280   31.7270   49.5720 N   0  0  0  0  0  0  0  0  0  0  0  0
   49.0540   30.3820   49.0240 C   0  0  1  0  0  0  0  0  0  0  0  0
   49.8670   29.5370   50.0100 C   0  0  0  0  0  0  0  0  0  0  0  0
   51.2210   29.7220   49.8800 O   0  0  0  0  0  0  0  0  0  0  0  0
   51.4510   30.9600   49.2890 C   0  0  0  0  0  0  0  0  0  0  0  0
   50.5210   32.0260   49.7990 C   0  0  0  0  0  0  0  0  0  0  0  0
   47.5334   30.6072   47.2682 H   0  0  0  0  0  0  0  0  0  0  0  0
   45.2539   29.9193   49.1604 H   0  0  0  0  0  0  0  0  0  0  0  0
   43.8928   29.1545   47.4190 H   0  0  0  0  0  0  0  0  0  0  0  0
   44.7759   30.0872   46.1819 H   0  0  0  0  0  0  0  0  0  0  0  0
   46.8741   27.7548   48.2827 H   0  0  0  0  0  0  0  0  0  0  0  0
   47.6662   28.1946   46.7388 H   0  0  0  0  0  0  0  0  0  0  0  0
   46.9172   30.3474   46.1906 H   0  0  0  0  0  0  0  0  0  0  0  0
   46.5024   35.7862   41.5970 H   0  0  0  0  0  0  0  0  0  0  0  0
   47.9039   33.8613   42.4982 H   0  0  0  0  0  0  0  0  0  0  0  0
   44.6656   37.1933   42.0128 H   0  0  0  0  0  0  0  0  0  0  0  0
   48.6088   31.7740   50.4603 H   0  0  0  0  0  0  0  0  0  0  0  0
   49.4158   30.3266   47.9867 H   0  0  0  0  0  0  0  0  0  0  0  0
   49.5718   29.8106   51.0337 H   0  0  0  0  0  0  0  0  0  0  0  0
   49.6552   28.4797   49.7925 H   0  0  0  0  0  0  0  0  0  0  0  0
   51.3129   30.8626   48.2021 H   0  0  0  0  0  0  0  0  0  0  0  0
   52.4773   31.2644   49.5419 H   0  0  0  0  0  0  0  0  0  0  0  0
   50.7621   32.9714   49.2909 H   0  0  0  0  0  0  0  0  0  0  0  0
   50.6663   32.0904   50.8875 H   0  0  0  0  0  0  0  0  0  0  0  0
  1  2  1  0
  1 18  1  0
  3  2  1  0
  4  3  1  0
  4  5  1  0
  5  1  1  0
  6  2  1  0
  8  7  2  0
  8  6  1  0
  9  8  1  0
 10  8  1  0
 11 16  2  0
 12 13  2  0
 12 11  1  0
 13 14  1  0
 14 15  2  0
 15 10  1  0
 16 15  1  0
 17 11  1  0
 19 24  1  0
 20 18  1  0
 20 19  1  0
 20 21  1  0
 22 21  1  0
 23 24  1  0
 23 22  1  0
  1 25  1  6
  2 26  1  1
  3 27  1  0
  3 28  1  0
  5 29  1  0
  5 30  1  0
  9 31  1  0
 12 32  1  0
 13 33  1  0
 17 34  1  0
 19 35  1  0
 20 36  1  6
 21 37  1  0
 21 38  1  0
 23 39  1  0
 23 40  1  0
 24 41  1  0
 24 42  1  0
M  ISO  8  25  13  26  13  27  13  28  13  29  13  30  13  31   3  32  14
M  ISO  8  33  14  34   3  35   5  36  13  37  13  38  13  39  13  40  13
M  ISO  2  41  13  42  13
M  END
>  <minimizedAffinity>  (1) 
-5.22075319

>  <minimizedRMSD>  (1) 
0.444723964

$$$$
