
     RDKit          3D

 33 34  0  0  1  0  0  0  0  0999 V2000
   46.9380   30.2780   48.1990 C   0  0  2  0  0  0  0  0  0  0  0  0
   45.4790   30.5070   48.2590 C   0  0  2  0  0  0  0  0  0  0  0  0
   44.9360   29.5860   47.2290 C   0  0  0  0  0  0  0  0  0  0  0  0
   45.7840   28.4990   47.1550 O   0  0  0  0  0  0  0  0  0  0  0  0
   46.9010   28.7640   47.8750 C   0  0  0  0  0  0  0  0  0  0  0  0
   45.1170   31.8190   48.0440 O   0  0  0  0  0  0  0  0  0  0  0  0
   47.3460   32.8920   47.3390 O   0  0  0  0  0  0  0  0  0  0  0  0
   46.0100   32.4640   46.7970 P   0  0  1  0  0  0  0  0  0  0  0  0
   46.2590   31.2760   45.6130 O   0  0  0  0  0  0  0  0  0  0  0  0
   45.2700   33.8450   46.1130 O   0  0  0  0  0  0  0  0  0  0  0  0
   45.1940   35.9000   43.2010 C   0  0  0  0  0  0  0  0  0  0  0  0
   46.2670   35.4230   42.4020 C   0  0  0  0  0  0  0  0  0  0  0  0
   47.0160   34.3500   42.9320 C   0  0  0  0  0  0  0  0  0  0  0  0
   46.6680   33.8580   44.1400 N   0  0  0  0  0  0  0  0  0  0  0  0
   45.6370   34.3490   44.8600 C   0  0  0  0  0  0  0  0  0  0  0  0
   44.9020   35.3700   44.3850 N   0  0  0  0  0  0  0  0  0  0  0  0
   44.4700   36.9400   42.6800 O   0  0  0  0  0  0  0  0  0  0  0  0
   47.6070   30.5210   49.3800 O   0  0  0  0  0  0  0  0  0  0  0  0
   48.9200   30.6010   49.6840 C   0  0  0  0  0  0  0  0  0  0  0  0
   49.5130   31.6760   49.4700 O   0  0  0  0  0  0  0  0  0  0  0  0
   49.6950   29.5400   50.2380 N   0  0  0  0  0  0  0  0  0  0  0  0
   47.4733   30.9361   47.4987 H   0  0  0  0  0  0  0  0  0  0  0  0
   45.0749   30.3077   49.2625 H   0  0  0  0  0  0  0  0  0  0  0  0
   43.9265   29.2559   47.5152 H   0  0  0  0  0  0  0  0  0  0  0  0
   44.8686   30.0916   46.2544 H   0  0  0  0  0  0  0  0  0  0  0  0
   46.8836   28.1859   48.8107 H   0  0  0  0  0  0  0  0  0  0  0  0
   47.7938   28.4834   47.2969 H   0  0  0  0  0  0  0  0  0  0  0  0
   46.4412   30.4069   46.0507 H   0  0  0  0  0  0  0  0  0  0  0  0
   46.5018   35.8658   41.4228 H   0  0  0  0  0  0  0  0  0  0  0  0
   47.8632   33.9249   42.3738 H   0  0  0  0  0  0  0  0  0  0  0  0
   44.7092   37.3157   41.7959 H   0  0  0  0  0  0  0  0  0  0  0  0
   50.6944   29.6840   50.4413 H   0  0  0  0  0  0  0  0  0  0  0  0
   49.2554   28.6296   50.4349 H   0  0  0  0  0  0  0  0  0  0  0  0
  1  2  1  0
  1 18  1  0
  3  2  1  0
  4  3  1  0
  4  5  1  0
  5  1  1  0
  6  2  1  0
  8  7  2  0
  8  6  1  0
  9  8  1  0
 10  8  1  0
 11 16  2  0
 12 13  2  0
 12 11  1  0
 13 14  1  0
 14 15  2  0
 15 10  1  0
 16 15  1  0
 17 11  1  0
 18 19  1  0
 19 21  1  0
 20 19  2  0
  1 22  1  6
  2 23  1  1
  3 24  1  0
  3 25  1  0
  5 26  1  0
  5 27  1  0
  9 28  1  0
 12 29  1  0
 13 30  1  0
 17 31  1  0
 21 32  1  0
 21 33  1  0
M  ISO  8  22  13  23  13  24  13  25  13  26  13  27  13  28   3  29  14
M  ISO  2  30  14  31   3
M  END
>  <minimizedAffinity>  (1) 
-4.84753084

>  <minimizedRMSD>  (1) 
0.310514987

$$$$
