
     RDKit          3D

 44 47  0  0  1  0  0  0  0  0999 V2000
   46.8700   33.0310   38.7100 N   0  0  0  0  0  0  0  0  0  0  0  0
   45.9030   33.3090   37.6470 C   0  0  0  0  0  0  0  0  0  0  0  0
   45.1590   32.0920   37.1990 C   0  0  0  0  0  0  0  0  0  0  0  0
   46.0440   31.0840   36.6390 N   0  0  0  0  0  0  0  0  0  0  0  0
   47.4110   31.4050   37.0350 C   0  0  0  0  0  0  0  0  0  0  0  0
   47.4170   31.7050   38.5200 C   0  0  1  0  0  0  0  0  0  0  0  0
   44.9900   32.8800   41.2160 Br  0  0  0  0  0  0  0  0  0  0  0  0
   46.5650   33.9450   40.9780 C   0  0  0  0  0  0  0  0  0  0  0  0
   46.9700   34.7580   41.9910 C   0  0  0  0  0  0  0  0  0  0  0  0
   48.1180   35.5600   41.8360 C   0  0  0  0  0  0  0  0  0  0  0  0
   48.8020   35.4930   40.6420 C   0  0  0  0  0  0  0  0  0  0  0  0
   48.3370   34.6470   39.6530 C   0  0  0  0  0  0  0  0  0  0  0  0
   47.2440   33.8720   39.7820 C   0  0  0  0  0  0  0  0  0  0  0  0
   45.7760   33.9300   45.3350 C   0  0  0  0  0  0  0  0  0  0  0  0
   44.7770   34.9130   45.5840 C   0  0  0  0  0  0  0  0  0  0  0  0
   44.5420   35.8510   44.5690 C   0  0  0  0  0  0  0  0  0  0  0  0
   45.2630   35.7690   43.4340 N   0  0  0  0  0  0  0  0  0  0  0  0
   46.2210   34.8010   43.2320 C   0  0  0  0  0  0  0  0  0  0  0  0
   46.4500   33.9030   44.1980 N   0  0  0  0  0  0  0  0  0  0  0  0
   48.0020   30.9370   41.2470 F   0  0  0  0  0  0  0  0  0  0  0  0
   49.0270   31.0740   40.4040 C   0  0  0  0  0  0  0  0  0  0  0  0
   48.7480   31.4680   39.1190 C   0  0  0  0  0  0  0  0  0  0  0  0
   49.8850   31.6200   38.3130 C   0  0  0  0  0  0  0  0  0  0  0  0
   51.1680   31.3980   38.7500 C   0  0  0  0  0  0  0  0  0  0  0  0
   51.3790   31.0090   40.0320 C   0  0  0  0  0  0  0  0  0  0  0  0
   50.3080   30.8480   40.8560 C   0  0  0  0  0  0  0  0  0  0  0  0
   45.1765   34.0466   38.0186 H   0  0  0  0  0  0  0  0  0  0  0  0
   46.4665   33.6866   36.7811 H   0  0  0  0  0  0  0  0  0  0  0  0
   44.6321   31.6606   38.0629 H   0  0  0  0  0  0  0  0  0  0  0  0
   44.4535   32.3974   36.4122 H   0  0  0  0  0  0  0  0  0  0  0  0
   45.9691   31.0865   35.6117 H   0  0  0  0  0  0  0  0  0  0  0  0
   48.0698   30.5493   36.8256 H   0  0  0  0  0  0  0  0  0  0  0  0
   47.7749   32.2761   36.4705 H   0  0  0  0  0  0  0  0  0  0  0  0
   46.7704   31.0085   39.0738 H   0  0  0  0  0  0  0  0  0  0  0  0
   48.4588   36.2215   42.6461 H   0  0  0  0  0  0  0  0  0  0  0  0
   49.7030   36.1025   40.4786 H   0  0  0  0  0  0  0  0  0  0  0  0
   48.8928   34.6045   38.7047 H   0  0  0  0  0  0  0  0  0  0  0  0
   45.9921   33.1758   46.1060 H   0  0  0  0  0  0  0  0  0  0  0  0
   44.2152   34.9356   46.5294 H   0  0  0  0  0  0  0  0  0  0  0  0
   43.7842   36.6380   44.6968 H   0  0  0  0  0  0  0  0  0  0  0  0
   49.7411   31.9356   37.2691 H   0  0  0  0  0  0  0  0  0  0  0  0
   52.0180   31.5347   38.0653 H   0  0  0  0  0  0  0  0  0  0  0  0
   52.3995   30.8266   40.3998 H   0  0  0  0  0  0  0  0  0  0  0  0
   50.4678   30.5329   41.8977 H   0  0  0  0  0  0  0  0  0  0  0  0
  1 13  1  0
  2  1  1  0
  3  2  1  0
  4  5  1  0
  4  3  1  0
  5  6  1  0
  6  1  1  0
  6 22  1  0
  8  7  1  0
  8  9  2  0
  9 18  1  0
 10  9  1  0
 11 10  2  0
 12 13  2  0
 12 11  1  0
 13  8  1  0
 14 15  2  0
 16 15  1  0
 17 16  2  0
 18 17  1  0
 18 19  2  0
 19 14  1  0
 21 26  2  0
 21 20  1  0
 22 21  1  0
 23 24  1  0
 23 22  2  0
 24 25  2  0
 25 26  1  0
  2 27  1  0
  2 28  1  0
  3 29  1  0
  3 30  1  0
  4 31  1  0
  5 32  1  0
  5 33  1  0
  6 34  1  1
 10 35  1  0
 11 36  1  0
 12 37  1  0
 14 38  1  0
 15 39  1  0
 16 40  1  0
 23 41  1  0
 24 42  1  0
 25 43  1  0
 26 44  1  0
M  ISO  8  27  13  28  13  29  13  30  13  31   5  32  13  33  13  34  13
M  ISO  8  35  14  36  14  37  14  38  14  39  14  40  14  41  14  42  14
M  ISO  2  43  14  44  14
M  END
>  <minimizedAffinity>  (1) 
-5.87759018

>  <minimizedRMSD>  (1) 
0.9056198

$$$$
