
     RDKit          3D

 21 22  0  0  1  0  0  0  0  0999 V2000
   46.0230   33.4770   42.0130 C   0  0  1  0  0  0  0  0  0  0  0  0
   46.4520   34.2190   40.8550 C   0  0  0  0  0  0  0  0  0  0  0  0
   47.5120   33.5980   41.6840 C   0  0  1  0  0  0  0  0  0  0  0  0
   44.9770   35.4190   43.1920 C   0  0  0  0  0  0  0  0  0  0  0  0
   45.5440   34.1090   43.2620 C   0  0  0  0  0  0  0  0  0  0  0  0
   45.6330   33.5070   44.5050 C   0  0  0  0  0  0  0  0  0  0  0  0
   45.1740   34.2080   45.5810 N   0  0  0  0  0  0  0  0  0  0  0  0
   44.6450   35.4430   45.4830 C   0  0  0  0  0  0  0  0  0  0  0  0
   44.5310   36.0860   44.2820 N   0  0  0  0  0  0  0  0  0  0  0  0
   48.3880   34.4130   42.5500 C   0  0  0  0  0  0  0  0  0  0  0  0
   49.0840   35.8100   41.6670 S   0  0  0  0  0  0  0  0  0  0  0  0
   45.2807   32.6768   42.1498 H   0  0  0  0  0  0  0  0  0  0  0  0
   46.3455   35.3138   40.8437 H   0  0  0  0  0  0  0  0  0  0  0  0
   46.1986   34.1706   39.7857 H   0  0  0  0  0  0  0  0  0  0  0  0
   48.3529   32.9136   41.4982 H   0  0  0  0  0  0  0  0  0  0  0  0
   44.8997   35.9066   42.2090 H   0  0  0  0  0  0  0  0  0  0  0  0
   46.0587   32.4993   44.6209 H   0  0  0  0  0  0  0  0  0  0  0  0
   44.2949   35.9484   46.3951 H   0  0  0  0  0  0  0  0  0  0  0  0
   47.7994   34.7869   43.4008 H   0  0  0  0  0  0  0  0  0  0  0  0
   49.2177   33.7771   42.8923 H   0  0  0  0  0  0  0  0  0  0  0  0
   49.5449   36.7350   42.5663 H   0  0  0  0  0  0  0  0  0  0  0  0
  1  5  1  0
  2  3  1  0
  2  1  1  0
  3  1  1  0
  3 10  1  0
  4  5  2  0
  4  9  1  0
  5  6  1  0
  6  7  2  0
  8  7  1  0
  9  8  2  0
 11 10  1  0
  1 12  1  6
  2 13  1  0
  2 14  1  0
  3 15  1  6
  4 16  1  0
  6 17  1  0
  8 18  1  0
 10 19  1  0
 10 20  1  0
 11 21  1  0
M  ISO  8  12  13  13  13  14  13  15  13  16  14  17  14  18  14  19   8
M  ISO  2  20   8  21  11
M  END
>  <minimizedAffinity>  (1) 
-3.43423605

>  <minimizedRMSD>  (1) 
1.33187377

$$$$
