
     RDKit          3D

 48 52  0  0  1  0  0  0  0  0999 V2000
   45.9890   31.5590   47.5620 N   0  0  0  0  0  0  0  0  0  0  0  0
   46.8090   32.4260   48.3400 C   0  0  0  0  0  0  0  0  0  0  0  0
   48.2400   31.9100   48.4220 C   0  0  0  0  0  0  0  0  0  0  0  0
   48.1780   30.6130   49.1980 C   0  0  0  0  0  0  0  0  0  0  0  0
   47.3370   29.6660   48.3500 C   0  0  0  0  0  0  0  0  0  0  0  0
   45.9740   30.2600   48.0350 C   0  0  2  0  0  0  0  0  0  0  0  0
   44.3980   29.3020   46.2620 C   0  0  0  0  0  0  0  0  0  0  0  0
   45.1600   29.2350   47.4050 C   0  0  0  0  0  0  0  0  0  0  0  0
   45.0540   27.9510   47.9680 C   0  0  0  0  0  0  0  0  0  0  0  0
   44.3210   26.9090   47.4880 C   0  0  0  0  0  0  0  0  0  0  0  0
   43.5990   27.0870   46.3440 C   0  0  0  0  0  0  0  0  0  0  0  0
   43.6290   28.3040   45.7060 C   0  0  0  0  0  0  0  0  0  0  0  0
   42.9410   25.9130   46.0470 O   0  0  0  0  0  0  0  0  0  0  0  0
   43.5450   24.8670   46.7890 C   0  0  0  0  0  0  0  0  0  0  0  0
   44.0960   25.6010   47.8930 O   0  0  0  0  0  0  0  0  0  0  0  0
   45.8660   31.8920   46.1960 C   0  0  0  0  0  0  0  0  0  0  0  0
   46.2160   33.9410   44.6200 C   0  0  1  0  0  0  0  0  0  0  0  0
   45.2140   34.2940   45.5550 C   0  0  0  0  0  0  0  0  0  0  0  0
   46.2270   33.3260   46.0340 C   0  0  1  0  0  0  0  0  0  0  0  0
   44.7230   32.8350   42.9610 C   0  0  0  0  0  0  0  0  0  0  0  0
   46.0380   33.0050   43.4800 C   0  0  0  0  0  0  0  0  0  0  0  0
   47.0590   32.2970   42.9010 C   0  0  0  0  0  0  0  0  0  0  0  0
   46.7460   31.4670   41.8570 N   0  0  0  0  0  0  0  0  0  0  0  0
   45.4970   31.3200   41.3790 C   0  0  0  0  0  0  0  0  0  0  0  0
   44.4500   32.0070   41.9260 N   0  0  0  0  0  0  0  0  0  0  0  0
   46.8142   33.4242   47.8779 H   0  0  0  0  0  0  0  0  0  0  0  0
   46.3975   32.4705   49.3591 H   0  0  0  0  0  0  0  0  0  0  0  0
   48.6393   31.7316   47.4127 H   0  0  0  0  0  0  0  0  0  0  0  0
   48.9012   32.6392   48.9130 H   0  0  0  0  0  0  0  0  0  0  0  0
   49.1887   30.2036   49.3425 H   0  0  0  0  0  0  0  0  0  0  0  0
   47.7430   30.7580   50.1979 H   0  0  0  0  0  0  0  0  0  0  0  0
   47.8661   29.4659   47.4066 H   0  0  0  0  0  0  0  0  0  0  0  0
   47.1849   28.7370   48.9190 H   0  0  0  0  0  0  0  0  0  0  0  0
   45.4158   30.5121   48.9487 H   0  0  0  0  0  0  0  0  0  0  0  0
   44.4034   30.2648   45.7300 H   0  0  0  0  0  0  0  0  0  0  0  0
   45.6223   27.7695   48.8922 H   0  0  0  0  0  0  0  0  0  0  0  0
   43.0576   28.4752   44.7818 H   0  0  0  0  0  0  0  0  0  0  0  0
   42.8024   24.1283   47.1248 H   0  0  0  0  0  0  0  0  0  0  0  0
   44.2804   24.2750   46.2244 H   0  0  0  0  0  0  0  0  0  0  0  0
   46.5451   31.2669   45.5975 H   0  0  0  0  0  0  0  0  0  0  0  0
   44.8353   31.7181   45.8533 H   0  0  0  0  0  0  0  0  0  0  0  0
   46.8645   34.5569   43.9796 H   0  0  0  0  0  0  0  0  0  0  0  0
   45.2028   35.3115   45.9727 H   0  0  0  0  0  0  0  0  0  0  0  0
   44.1147   34.2766   45.5211 H   0  0  0  0  0  0  0  0  0  0  0  0
   46.9259   33.2597   46.8808 H   0  0  0  0  0  0  0  0  0  0  0  0
   43.8969   33.3986   43.4192 H   0  0  0  0  0  0  0  0  0  0  0  0
   48.0937   32.3920   43.2621 H   0  0  0  0  0  0  0  0  0  0  0  0
   45.3160   30.6371   40.5359 H   0  0  0  0  0  0  0  0  0  0  0  0
  1  6  1  0
  1  2  1  0
  2  3  1  0
  3  4  1  0
  5  4  1  0
  6  5  1  0
  7  8  2  0
  8  9  1  0
  8  6  1  0
 10 15  1  0
 10  9  2  0
 11 10  1  0
 12  7  1  0
 12 11  2  0
 13 11  1  0
 13 14  1  0
 14 15  1  0
 16  1  1  0
 17 18  1  0
 17 19  1  0
 18 19  1  0
 19 16  1  0
 20 21  2  0
 21 17  1  0
 22 21  1  0
 23 22  2  0
 24 23  1  0
 24 25  2  0
 25 20  1  0
  2 26  1  0
  2 27  1  0
  3 28  1  0
  3 29  1  0
  4 30  1  0
  4 31  1  0
  5 32  1  0
  5 33  1  0
  6 34  1  1
  7 35  1  0
  9 36  1  0
 12 37  1  0
 14 38  1  0
 14 39  1  0
 16 40  1  0
 16 41  1  0
 17 42  1  6
 18 43  1  0
 18 44  1  0
 19 45  1  1
 20 46  1  0
 22 47  1  0
 24 48  1  0
M  ISO  8  26  13  27  13  28  13  29  13  30  13  31  13  32  13  33  13
M  ISO  8  34  13  35  14  36  14  37  14  38  13  39  13  40   8  41   8
M  ISO  7  42  13  43  13  44  13  45  13  46  14  47  14  48  14
M  END
>  <minimizedAffinity>  (1) 
-4.73294306

>  <minimizedRMSD>  (1) 
1.23156178

$$$$
