
     RDKit          3D

 43 46  0  0  1  0  0  0  0  0999 V2000
   45.8460   31.7490   47.1290 N   0  0  0  0  0  0  0  0  0  0  0  0
   46.5270   32.5670   48.0660 C   0  0  0  0  0  0  0  0  0  0  0  0
   47.9480   32.0820   48.3430 C   0  0  0  0  0  0  0  0  0  0  0  0
   47.7830   30.7210   49.0190 C   0  0  0  0  0  0  0  0  0  0  0  0
   47.1970   29.8300   47.9510 C   0  0  0  0  0  0  0  0  0  0  0  0
   45.8880   30.3890   47.4590 C   0  0  2  0  0  0  0  0  0  0  0  0
   45.2130   29.4940   46.5030 C   0  0  0  0  0  0  0  0  0  0  0  0
   44.6130   28.3560   47.0110 C   0  0  0  0  0  0  0  0  0  0  0  0
   43.9750   27.5170   46.1090 C   0  0  0  0  0  0  0  0  0  0  0  0
   43.9310   27.7880   44.7720 N   0  0  0  0  0  0  0  0  0  0  0  0
   44.5240   28.9050   44.3030 C   0  0  0  0  0  0  0  0  0  0  0  0
   45.1520   29.7380   45.1620 N   0  0  0  0  0  0  0  0  0  0  0  0
   45.9400   32.1530   45.7670 C   0  0  0  0  0  0  0  0  0  0  0  0
   46.0510   34.3790   44.4050 C   0  0  1  0  0  0  0  0  0  0  0  0
   45.0370   34.5210   45.3840 C   0  0  0  0  0  0  0  0  0  0  0  0
   46.1600   33.6180   45.7440 C   0  0  1  0  0  0  0  0  0  0  0  0
   44.6440   33.2690   42.6680 C   0  0  0  0  0  0  0  0  0  0  0  0
   45.9490   33.5500   43.1710 C   0  0  0  0  0  0  0  0  0  0  0  0
   47.0450   33.0510   42.5170 C   0  0  0  0  0  0  0  0  0  0  0  0
   46.8210   32.2990   41.3960 N   0  0  0  0  0  0  0  0  0  0  0  0
   45.5660   32.0420   40.9320 C   0  0  0  0  0  0  0  0  0  0  0  0
   44.4500   32.5230   41.5580 N   0  0  0  0  0  0  0  0  0  0  0  0
   46.5753   33.5920   47.6697 H   0  0  0  0  0  0  0  0  0  0  0  0
   45.9693   32.5249   49.0132 H   0  0  0  0  0  0  0  0  0  0  0  0
   48.5108   31.9802   47.4034 H   0  0  0  0  0  0  0  0  0  0  0  0
   48.5078   32.7887   48.9733 H   0  0  0  0  0  0  0  0  0  0  0  0
   48.7564   30.3345   49.3552 H   0  0  0  0  0  0  0  0  0  0  0  0
   47.1433   30.7753   49.9122 H   0  0  0  0  0  0  0  0  0  0  0  0
   47.9014   29.7626   47.1089 H   0  0  0  0  0  0  0  0  0  0  0  0
   47.0201   28.8316   48.3776 H   0  0  0  0  0  0  0  0  0  0  0  0
   45.2676   30.4009   48.3673 H   0  0  0  0  0  0  0  0  0  0  0  0
   44.6406   28.1256   48.0863 H   0  0  0  0  0  0  0  0  0  0  0  0
   43.4889   26.6040   46.4833 H   0  0  0  0  0  0  0  0  0  0  0  0
   44.4966   29.1364   43.2280 H   0  0  0  0  0  0  0  0  0  0  0  0
   46.7835   31.6401   45.2818 H   0  0  0  0  0  0  0  0  0  0  0  0
   45.0187   31.8940   45.2246 H   0  0  0  0  0  0  0  0  0  0  0  0
   46.6142   35.1279   43.8288 H   0  0  0  0  0  0  0  0  0  0  0  0
   44.9284   35.4806   45.9106 H   0  0  0  0  0  0  0  0  0  0  0  0
   43.9450   34.3904   45.3601 H   0  0  0  0  0  0  0  0  0  0  0  0
   46.8898   33.5342   46.5628 H   0  0  0  0  0  0  0  0  0  0  0  0
   43.7693   33.6717   43.1997 H   0  0  0  0  0  0  0  0  0  0  0  0
   48.0650   33.2473   42.8791 H   0  0  0  0  0  0  0  0  0  0  0  0
   45.4472   31.4290   40.0264 H   0  0  0  0  0  0  0  0  0  0  0  0
  1  6  1  0
  1  2  1  0
  2  3  1  0
  3  4  1  0
  5  4  1  0
  6  5  1  0
  7  8  2  0
  7  6  1  0
  9  8  1  0
 10  9  2  0
 11 10  1  0
 11 12  2  0
 12  7  1  0
 13  1  1  0
 14 15  1  0
 14 16  1  0
 15 16  1  0
 16 13  1  0
 17 18  2  0
 18 14  1  0
 19 18  1  0
 20 19  2  0
 21 20  1  0
 21 22  2  0
 22 17  1  0
  2 23  1  0
  2 24  1  0
  3 25  1  0
  3 26  1  0
  4 27  1  0
  4 28  1  0
  5 29  1  0
  5 30  1  0
  6 31  1  1
  8 32  1  0
  9 33  1  0
 11 34  1  0
 13 35  1  0
 13 36  1  0
 14 37  1  6
 15 38  1  0
 15 39  1  0
 16 40  1  1
 17 41  1  0
 19 42  1  0
 21 43  1  0
M  ISO  8  23  13  24  13  25  13  26  13  27  13  28  13  29  13  30  13
M  ISO  8  31  13  32  14  33  14  34  14  35   8  36   8  37  13  38  13
M  ISO  5  39  13  40  13  41  14  42  14  43  14
M  END
>  <minimizedAffinity>  (1) 
-4.10218096

>  <minimizedRMSD>  (1) 
0.418831795

$$$$
