
     RDKit          3D

 44 46  0  0  1  0  0  0  0  0999 V2000
   46.6410   33.0900   44.3280 C   0  0  0  0  0  0  0  0  0  0  0  0
   46.1150   32.2200   45.3160 N   0  0  0  0  0  0  0  0  0  0  0  0
   45.9530   32.7130   46.6150 C   0  0  0  0  0  0  0  0  0  0  0  0
   47.2100   32.4740   47.4770 C   0  0  0  0  0  0  0  0  0  0  0  0
   47.2980   30.9830   47.6770 C   0  0  0  0  0  0  0  0  0  0  0  0
   47.4600   30.3790   46.2930 C   0  0  0  0  0  0  0  0  0  0  0  0
   46.4550   30.8610   45.2850 C   0  0  2  0  0  0  0  0  0  0  0  0
   46.9750   30.4330   43.9200 C   0  0  0  0  0  0  0  0  0  0  0  0
   45.8140   35.3450   43.2700 C   0  0  1  0  0  0  0  0  0  0  0  0
   44.7040   34.6910   43.8090 C   0  0  0  0  0  0  0  0  0  0  0  0
   45.9740   34.4050   44.5010 C   0  0  1  0  0  0  0  0  0  0  0  0
   45.8670   34.2060   41.0490 C   0  0  0  0  0  0  0  0  0  0  0  0
   46.5740   34.9570   42.0410 C   0  0  0  0  0  0  0  0  0  0  0  0
   47.8790   35.2810   41.8430 C   0  0  0  0  0  0  0  0  0  0  0  0
   48.4660   34.8650   40.6800 N   0  0  0  0  0  0  0  0  0  0  0  0
   47.7820   34.1500   39.7420 C   0  0  0  0  0  0  0  0  0  0  0  0
   46.4610   33.8010   39.9030 N   0  0  0  0  0  0  0  0  0  0  0  0
   48.3610   33.7250   38.5660 O   0  0  0  0  0  0  0  0  0  0  0  0
   47.1990   31.7230   37.2680 O   0  0  0  0  0  0  0  0  0  0  0  0
   47.4960   33.2030   37.2060 P   0  0  0  0  0  0  0  0  0  0  0  0
   46.0440   34.0830   37.0050 O   0  0  0  0  0  0  0  0  0  0  0  0
   48.4330   33.5110   35.8330 O   0  0  0  0  0  0  0  0  0  0  0  0
   46.4323   32.6907   43.3245 H   0  0  0  0  0  0  0  0  0  0  0  0
   47.7314   33.1882   44.4347 H   0  0  0  0  0  0  0  0  0  0  0  0
   45.7560   33.7940   46.5640 H   0  0  0  0  0  0  0  0  0  0  0  0
   45.1111   32.1804   47.0814 H   0  0  0  0  0  0  0  0  0  0  0  0
   48.1061   32.8436   46.9571 H   0  0  0  0  0  0  0  0  0  0  0  0
   47.1477   33.0067   48.4374 H   0  0  0  0  0  0  0  0  0  0  0  0
   48.1651   30.7331   48.3061 H   0  0  0  0  0  0  0  0  0  0  0  0
   46.4024   30.5927   48.1825 H   0  0  0  0  0  0  0  0  0  0  0  0
   48.4654   30.6295   45.9236 H   0  0  0  0  0  0  0  0  0  0  0  0
   47.3014   29.2960   46.4020 H   0  0  0  0  0  0  0  0  0  0  0  0
   45.4903   30.3987   45.5412 H   0  0  0  0  0  0  0  0  0  0  0  0
   47.8184   29.7389   44.0501 H   0  0  0  0  0  0  0  0  0  0  0  0
   46.1705   29.9320   43.3617 H   0  0  0  0  0  0  0  0  0  0  0  0
   47.3120   31.3189   43.3617 H   0  0  0  0  0  0  0  0  0  0  0  0
   45.9597   36.3985   42.9890 H   0  0  0  0  0  0  0  0  0  0  0  0
   43.9353   35.2830   44.3273 H   0  0  0  0  0  0  0  0  0  0  0  0
   43.9368   34.0399   43.3646 H   0  0  0  0  0  0  0  0  0  0  0  0
   46.3587   34.4708   45.5294 H   0  0  0  0  0  0  0  0  0  0  0  0
   44.8112   33.9510   41.2231 H   0  0  0  0  0  0  0  0  0  0  0  0
   48.4428   35.8572   42.5914 H   0  0  0  0  0  0  0  0  0  0  0  0
   45.6699   34.3097   37.8931 H   0  0  0  0  0  0  0  0  0  0  0  0
   49.3361   33.8078   36.1096 H   0  0  0  0  0  0  0  0  0  0  0  0
  1 11  1  0
  1  2  1  0
  2  3  1  0
  3  4  1  0
  4  5  1  0
  6  5  1  0
  7  2  1  0
  7  6  1  0
  8  7  1  0
  9 10  1  0
  9 11  1  0
 10 11  1  0
 12 13  2  0
 13  9  1  0
 14 13  1  0
 15 14  2  0
 16 17  2  0
 16 15  1  0
 17 12  1  0
 18 16  1  0
 20 19  2  0
 20 18  1  0
 21 20  1  0
 22 20  1  0
  1 23  1  0
  1 24  1  0
  3 25  1  0
  3 26  1  0
  4 27  1  0
  4 28  1  0
  5 29  1  0
  5 30  1  0
  6 31  1  0
  6 32  1  0
  7 33  1  1
  8 34  1  0
  8 35  1  0
  8 36  1  0
  9 37  1  1
 10 38  1  0
 10 39  1  0
 11 40  1  1
 12 41  1  0
 14 42  1  0
 21 43  1  0
 22 44  1  0
M  ISO  8  23   8  24   8  25  13  26  13  27  13  28  13  29  13  30  13
M  ISO  8  31  13  32  13  33  13  34   8  35   8  36   8  37  13  38  13
M  ISO  6  39  13  40  13  41  14  42  14  43   3  44   3
M  END
>  <minimizedAffinity>  (1) 
-5.21384907

>  <minimizedRMSD>  (1) 
3.16101885

$$$$
