
     RDKit          3D

 44 46  0  0  1  0  0  0  0  0999 V2000
   49.0720   33.3990   42.6570 C   0  0  0  0  0  0  0  0  0  0  0  0
   47.8710   32.9910   43.0090 C   0  0  0  0  0  0  0  0  0  0  0  0
   49.7440   32.7390   41.5320 C   0  0  0  0  0  0  0  0  0  0  0  0
   51.0610   32.3070   41.7560 C   0  0  0  0  0  0  0  0  0  0  0  0
   51.7310   31.6720   40.7020 C   0  0  0  0  0  0  0  0  0  0  0  0
   51.0810   31.5090   39.5290 N   0  0  0  0  0  0  0  0  0  0  0  0
   49.8090   31.9430   39.3590 C   0  0  0  0  0  0  0  0  0  0  0  0
   49.1780   32.5420   40.3560 N   0  0  0  0  0  0  0  0  0  0  0  0
   49.0900   31.7890   38.1400 N   0  0  0  0  0  0  0  0  0  0  0  0
   48.0690   32.6890   37.6740 C   0  0  0  0  0  0  0  0  0  0  0  0
   48.3580   33.2270   36.2920 C   0  0  0  0  0  0  0  0  0  0  0  0
   48.7510   32.1600   35.3220 C   0  0  0  0  0  0  0  0  0  0  0  0
   49.8440   31.2990   35.9290 C   0  0  0  0  0  0  0  0  0  0  0  0
   49.2950   30.7000   37.2040 C   0  0  0  0  0  0  0  0  0  0  0  0
   47.1380   33.6090   44.1280 C   0  0  0  0  0  0  0  0  0  0  0  0
   44.7250   36.2310   43.4650 C   0  0  1  0  0  0  0  0  0  0  0  0
   45.9010   35.4350   42.8900 C   0  0  0  0  0  0  0  0  0  0  0  0
   45.7920   34.1760   43.6730 C   0  0  2  0  0  0  0  0  0  0  0  0
   44.9360   34.3600   44.7330 O   0  0  0  0  0  0  0  0  0  0  0  0
   44.6890   35.6980   44.8690 C   0  0  0  0  0  0  0  0  0  0  0  0
   45.0090   37.5960   43.3990 O   0  0  0  0  0  0  0  0  0  0  0  0
   49.5638   34.2213   43.1974 H   0  0  0  0  0  0  0  0  0  0  0  0
   47.4018   32.1662   42.4526 H   0  0  0  0  0  0  0  0  0  0  0  0
   51.5513   32.4622   42.7284 H   0  0  0  0  0  0  0  0  0  0  0  0
   52.7636   31.3140   40.8269 H   0  0  0  0  0  0  0  0  0  0  0  0
   47.1095   32.1516   37.6497 H   0  0  0  0  0  0  0  0  0  0  0  0
   48.0366   33.5441   38.3653 H   0  0  0  0  0  0  0  0  0  0  0  0
   47.4546   33.7286   35.9148 H   0  0  0  0  0  0  0  0  0  0  0  0
   49.2063   33.9218   36.3794 H   0  0  0  0  0  0  0  0  0  0  0  0
   49.1223   32.6248   34.3967 H   0  0  0  0  0  0  0  0  0  0  0  0
   47.8763   31.5334   35.0933 H   0  0  0  0  0  0  0  0  0  0  0  0
   50.1243   30.4987   35.2283 H   0  0  0  0  0  0  0  0  0  0  0  0
   50.7403   31.9013   36.1384 H   0  0  0  0  0  0  0  0  0  0  0  0
   48.3399   30.1936   37.0010 H   0  0  0  0  0  0  0  0  0  0  0  0
   49.9938   29.9579   37.6176 H   0  0  0  0  0  0  0  0  0  0  0  0
   46.9617   32.8485   44.9029 H   0  0  0  0  0  0  0  0  0  0  0  0
   47.7453   34.4371   44.5222 H   0  0  0  0  0  0  0  0  0  0  0  0
   43.7618   36.1257   42.9443 H   0  0  0  0  0  0  0  0  0  0  0  0
   45.7789   35.2535   41.8120 H   0  0  0  0  0  0  0  0  0  0  0  0
   46.8755   35.9390   42.9699 H   0  0  0  0  0  0  0  0  0  0  0  0
   45.3789   33.4137   42.9961 H   0  0  0  0  0  0  0  0  0  0  0  0
   45.4640   36.1758   45.4864 H   0  0  0  0  0  0  0  0  0  0  0  0
   43.7293   35.8979   45.3681 H   0  0  0  0  0  0  0  0  0  0  0  0
   45.0851   37.9619   44.3157 H   0  0  0  0  0  0  0  0  0  0  0  0
  1  2  2  0
  2 15  1  0
  3  4  2  0
  3  1  1  0
  5  4  1  0
  6  5  2  0
  7  6  1  0
  7  8  2  0
  8  3  1  0
  9  7  1  0
 10  9  1  0
 11 10  1  0
 12 13  1  0
 12 11  1  0
 13 14  1  0
 14  9  1  0
 16 20  1  0
 17 16  1  0
 17 18  1  0
 18 15  1  0
 18 19  1  0
 19 20  1  0
 21 16  1  0
  1 22  1  0
  2 23  1  0
  4 24  1  0
  5 25  1  0
 10 26  1  0
 10 27  1  0
 11 28  1  0
 11 29  1  0
 12 30  1  0
 12 31  1  0
 13 32  1  0
 13 33  1  0
 14 34  1  0
 14 35  1  0
 15 36  1  0
 15 37  1  0
 16 38  1  6
 17 39  1  0
 17 40  1  0
 18 41  1  6
 20 42  1  0
 20 43  1  0
 21 44  1  0
M  ISO  8  24  14  25  14  26  13  27  13  28  13  29  13  30  13  31  13
M  ISO  8  32  13  33  13  34  13  35  13  36   8  37   8  38  13  39  13
M  ISO  5  40  13  41  13  42  13  43  13  44   3
M  END
>  <minimizedAffinity>  (1) 
-5.30740309

>  <minimizedRMSD>  (1) 
0.471312761

$$$$
