
     RDKit          3D

 39 41  0  0  1  0  0  0  0  0999 V2000
   46.0680   32.1950   45.4600 C   0  0  0  0  0  0  0  0  0  0  0  0
   45.8080   31.8510   46.8110 N   0  0  0  0  0  0  0  0  0  0  0  0
   46.4100   32.6130   47.8190 C   0  0  0  0  0  0  0  0  0  0  0  0
   47.7750   32.0290   48.2260 C   0  0  0  0  0  0  0  0  0  0  0  0
   47.4900   30.7150   48.9040 C   0  0  0  0  0  0  0  0  0  0  0  0
   46.7920   29.8450   47.8870 C   0  0  0  0  0  0  0  0  0  0  0  0
   45.6530   30.5040   47.1620 C   0  0  2  0  0  0  0  0  0  0  0  0
   45.3440   29.6320   45.9530 C   0  0  0  0  0  0  0  0  0  0  0  0
   46.0020   34.4110   44.0600 C   0  0  1  0  0  0  0  0  0  0  0  0
   45.0800   34.5320   45.1010 C   0  0  0  0  0  0  0  0  0  0  0  0
   46.2340   33.6690   45.4080 C   0  0  1  0  0  0  0  0  0  0  0  0
   44.5560   33.1840   42.4360 C   0  0  0  0  0  0  0  0  0  0  0  0
   45.8780   33.5490   42.8460 C   0  0  0  0  0  0  0  0  0  0  0  0
   46.9500   33.1070   42.1380 C   0  0  0  0  0  0  0  0  0  0  0  0
   46.7040   32.3210   41.0480 N   0  0  0  0  0  0  0  0  0  0  0  0
   45.4430   31.9790   40.6640 C   0  0  0  0  0  0  0  0  0  0  0  0
   44.3300   32.4060   41.3540 N   0  0  0  0  0  0  0  0  0  0  0  0
   45.3450   30.9480   39.2140 S   0  0  0  0  0  0  0  0  0  0  0  0
   46.9875   31.6995   45.1149 H   0  0  0  0  0  0  0  0  0  0  0  0
   45.2431   31.8711   44.8083 H   0  0  0  0  0  0  0  0  0  0  0  0
   46.5551   33.6400   47.4528 H   0  0  0  0  0  0  0  0  0  0  0  0
   45.7522   32.6019   48.7006 H   0  0  0  0  0  0  0  0  0  0  0  0
   48.4014   31.8699   47.3359 H   0  0  0  0  0  0  0  0  0  0  0  0
   48.3182   32.7132   48.8945 H   0  0  0  0  0  0  0  0  0  0  0  0
   48.4299   30.2427   49.2258 H   0  0  0  0  0  0  0  0  0  0  0  0
   46.8651   30.8582   49.7979 H   0  0  0  0  0  0  0  0  0  0  0  0
   47.5354   29.5301   47.1399 H   0  0  0  0  0  0  0  0  0  0  0  0
   46.3546   29.0064   48.4486 H   0  0  0  0  0  0  0  0  0  0  0  0
   44.8139   30.5666   47.8705 H   0  0  0  0  0  0  0  0  0  0  0  0
   44.9945   28.6457   46.2920 H   0  0  0  0  0  0  0  0  0  0  0  0
   44.5606   30.1101   45.3467 H   0  0  0  0  0  0  0  0  0  0  0  0
   46.2537   29.5101   45.3467 H   0  0  0  0  0  0  0  0  0  0  0  0
   46.4729   35.1772   43.4266 H   0  0  0  0  0  0  0  0  0  0  0  0
   44.9831   35.4978   45.6186 H   0  0  0  0  0  0  0  0  0  0  0  0
   43.9937   34.3673   45.1546 H   0  0  0  0  0  0  0  0  0  0  0  0
   47.0127   33.6172   46.1832 H   0  0  0  0  0  0  0  0  0  0  0  0
   43.6975   33.5479   43.0195 H   0  0  0  0  0  0  0  0  0  0  0  0
   47.9766   33.3718   42.4311 H   0  0  0  0  0  0  0  0  0  0  0  0
   45.2204   29.6374   39.5931 H   0  0  0  0  0  0  0  0  0  0  0  0
  1  2  1  0
  2  7  1  0
  2  3  1  0
  3  4  1  0
  4  5  1  0
  6  5  1  0
  7  6  1  0
  8  7  1  0
  9 10  1  0
  9 11  1  0
 10 11  1  0
 11  1  1  0
 12 13  2  0
 13  9  1  0
 14 13  1  0
 15 14  2  0
 16 15  1  0
 16 17  2  0
 17 12  1  0
 18 16  1  0
  1 19  1  0
  1 20  1  0
  3 21  1  0
  3 22  1  0
  4 23  1  0
  4 24  1  0
  5 25  1  0
  5 26  1  0
  6 27  1  0
  6 28  1  0
  7 29  1  1
  8 30  1  0
  8 31  1  0
  8 32  1  0
  9 33  1  6
 10 34  1  0
 10 35  1  0
 11 36  1  1
 12 37  1  0
 14 38  1  0
 18 39  1  0
M  ISO  8  19   8  20   8  21  13  22  13  23  13  24  13  25  13  26  13
M  ISO  8  27  13  28  13  29  13  30   8  31   8  32   8  33  13  34  13
M  ISO  5  35  13  36  13  37  14  38  14  39  11
M  END
>  <minimizedAffinity>  (1) 
-3.71118355

>  <minimizedRMSD>  (1) 
0.0324133597

$$$$
