
     RDKit          3D

 28 29  0  0  0  0  0  0  0  0999 V2000
   45.4680   34.6740   42.7540 C   0  0  0  0  0  0  0  0  0  0  0  0
   45.0050   33.9010   41.7080 C   0  0  0  0  0  0  0  0  0  0  0  0
   45.7890   33.7040   40.5900 C   0  0  0  0  0  0  0  0  0  0  0  0
   47.0550   34.2840   40.5080 C   0  0  0  0  0  0  0  0  0  0  0  0
   47.4930   35.0600   41.5840 C   0  0  0  0  0  0  0  0  0  0  0  0
   46.7190   35.2700   42.7180 C   0  0  0  0  0  0  0  0  0  0  0  0
   43.7840   35.8150   44.1630 N   0  0  0  0  0  0  0  0  0  0  0  0
   44.7120   34.9490   43.9940 C   0  0  0  0  0  0  0  0  0  0  0  0
   44.8310   34.3310   45.2690 N   0  0  0  0  0  0  0  0  0  0  0  0
   43.4850   36.4320   43.3570 H   0  0  0  0  0  0  0  0  0  0  0  0
   43.6550   33.3040   41.8370 C   0  0  0  0  0  0  0  0  0  0  0  0
   42.6930   34.1620   41.0600 C   0  0  0  0  0  0  0  0  0  0  0  0
   42.5510   33.8760   39.7050 C   0  0  0  0  0  0  0  0  0  0  0  0
   41.6640   34.6520   38.9450 C   0  0  0  0  0  0  0  0  0  0  0  0
   40.9950   35.6470   39.6010 N   0  0  0  0  0  0  0  0  0  0  0  0
   41.1640   35.8910   40.9240 C   0  0  0  0  0  0  0  0  0  0  0  0
   42.0180   35.1470   41.6630 N   0  0  0  0  0  0  0  0  0  0  0  0
   45.4143   33.0871   39.7599 H   0  0  0  0  0  0  0  0  0  0  0  0
   47.6898   34.1348   39.6221 H   0  0  0  0  0  0  0  0  0  0  0  0
   48.4896   35.5227   41.5310 H   0  0  0  0  0  0  0  0  0  0  0  0
   47.0841   35.8846   43.5540 H   0  0  0  0  0  0  0  0  0  0  0  0
   44.2271   34.6339   46.0465 H   0  0  0  0  0  0  0  0  0  0  0  0
   45.5211   33.5804   45.4151 H   0  0  0  0  0  0  0  0  0  0  0  0
   43.6577   32.2824   41.4293 H   0  0  0  0  0  0  0  0  0  0  0  0
   43.3570   33.2560   42.8948 H   0  0  0  0  0  0  0  0  0  0  0  0
   43.1223   33.0588   39.2404 H   0  0  0  0  0  0  0  0  0  0  0  0
   41.5137   34.4684   37.8709 H   0  0  0  0  0  0  0  0  0  0  0  0
   40.5992   36.7047   41.4024 H   0  0  0  0  0  0  0  0  0  0  0  0
  1  8  1  0
  2 11  1  0
  2  1  2  0
  3  2  1  0
  4  3  2  0
  4  5  1  0
  5  6  2  0
  6  1  1  0
  8  7  2  0
  8  9  1  0
 10  7  1  0
 12 17  1  0
 12 11  1  0
 13 12  2  0
 14 15  2  0
 14 13  1  0
 15 16  1  0
 16 17  2  0
  3 18  1  0
  4 19  1  0
  5 20  1  0
  6 21  1  0
  9 22  1  0
  9 23  1  0
 11 24  1  0
 11 25  1  0
 13 26  1  0
 14 27  1  0
 16 28  1  0
M  ISO  8  18  14  19  14  20  14  21  14  24   8  25   8  26  14  27  14
M  ISO  1  28  14
M  END
>  <minimizedAffinity>  (1) 
-4.89867258

>  <minimizedRMSD>  (1) 
5.12202215

$$$$
