
     RDKit          3D

 27 28  0  0  0  0  0  0  0  0999 V2000
   44.3400   34.7470   41.3160 C   0  0  0  0  0  0  0  0  0  0  0  0
   42.9430   35.0660   40.8910 C   0  0  0  0  0  0  0  0  0  0  0  0
   42.6780   35.0350   39.5140 C   0  0  0  0  0  0  0  0  0  0  0  0
   41.3770   35.3310   39.0990 C   0  0  0  0  0  0  0  0  0  0  0  0
   40.4590   35.6280   40.0490 N   0  0  0  0  0  0  0  0  0  0  0  0
   40.7530   35.6460   41.3680 C   0  0  0  0  0  0  0  0  0  0  0  0
   41.9950   35.3660   41.7940 N   0  0  0  0  0  0  0  0  0  0  0  0
   44.4750   34.9220   42.7290 N   0  0  0  0  0  0  0  0  0  0  0  0
   45.1390   36.1770   43.0380 C   0  0  0  0  0  0  0  0  0  0  0  0
   44.7170   36.5570   44.4410 C   0  0  0  0  0  0  0  0  0  0  0  0
   44.3440   35.3690   45.1740 N   0  0  0  0  0  0  0  0  0  0  0  0
   45.1930   34.2460   44.8830 C   0  0  0  0  0  0  0  0  0  0  0  0
   45.1880   33.8780   43.3990 C   0  0  0  0  0  0  0  0  0  0  0  0
   45.0404   35.4182   40.7975 H   0  0  0  0  0  0  0  0  0  0  0  0
   44.5649   33.7013   41.0592 H   0  0  0  0  0  0  0  0  0  0  0  0
   43.4656   34.7867   38.7873 H   0  0  0  0  0  0  0  0  0  0  0  0
   41.1067   35.3230   38.0327 H   0  0  0  0  0  0  0  0  0  0  0  0
   39.9683   35.8921   42.0985 H   0  0  0  0  0  0  0  0  0  0  0  0
   46.2307   36.0500   42.9915 H   0  0  0  0  0  0  0  0  0  0  0  0
   44.8632   36.9595   42.3157 H   0  0  0  0  0  0  0  0  0  0  0  0
   45.5538   37.0551   44.9526 H   0  0  0  0  0  0  0  0  0  0  0  0
   43.8565   37.2403   44.3909 H   0  0  0  0  0  0  0  0  0  0  0  0
   44.4014   35.5726   46.1820 H   0  0  0  0  0  0  0  0  0  0  0  0
   46.2221   34.4950   45.1814 H   0  0  0  0  0  0  0  0  0  0  0  0
   44.8077   33.3814   45.4433 H   0  0  0  0  0  0  0  0  0  0  0  0
   44.6820   32.9131   43.2475 H   0  0  0  0  0  0  0  0  0  0  0  0
   46.2114   33.7781   43.0083 H   0  0  0  0  0  0  0  0  0  0  0  0
  1  8  1  0
  2  1  1  0
  2  7  1  0
  3  2  2  0
  4  3  1  0
  4  5  2  0
  5  6  1  0
  6  7  2  0
  8  9  1  0
  8 13  1  0
  9 10  1  0
 10 11  1  0
 12 11  1  0
 13 12  1  0
  1 14  1  0
  1 15  1  0
  3 16  1  0
  4 17  1  0
  6 18  1  0
  9 19  1  0
  9 20  1  0
 10 21  1  0
 10 22  1  0
 11 23  1  0
 12 24  1  0
 12 25  1  0
 13 26  1  0
 13 27  1  0
M  ISO  8  14   8  15   8  16  14  17  14  18  14  19  13  20  13  21  13
M  ISO  6  22  13  23   5  24  13  25  13  26  13  27  13
M  END
>  <minimizedAffinity>  (1) 
-4.26244688

>  <minimizedRMSD>  (1) 
5.23153114

$$$$
