
     RDKit          3D

 19 19  0  0  0  0  0  0  0  0999 V2000
   46.3500   35.0020   41.8890 C   0  0  0  0  0  0  0  0  0  0  0  0
   45.7640   35.0130   43.2750 C   0  0  0  0  0  0  0  0  0  0  0  0
   46.1020   33.9300   44.1100 C   0  0  0  0  0  0  0  0  0  0  0  0
   45.5630   33.9330   45.4000 C   0  0  0  0  0  0  0  0  0  0  0  0
   44.7620   34.9560   45.7620 N   0  0  0  0  0  0  0  0  0  0  0  0
   44.4590   35.9870   44.9210 C   0  0  0  0  0  0  0  0  0  0  0  0
   44.9700   36.0030   43.6730 N   0  0  0  0  0  0  0  0  0  0  0  0
   47.2760   34.0000   41.7250 O   0  0  0  0  0  0  0  0  0  0  0  0
   48.9370   36.0350   41.7230 O   0  0  0  0  0  0  0  0  0  0  0  0
   48.6900   34.6830   41.0990 P   0  0  0  0  0  0  0  0  0  0  0  0
   49.9980   33.6820   41.4530 O   0  0  0  0  0  0  0  0  0  0  0  0
   48.5640   34.8990   39.4280 O   0  0  0  0  0  0  0  0  0  0  0  0
   45.5375   34.8560   41.1620 H   0  0  0  0  0  0  0  0  0  0  0  0
   46.8609   35.9632   41.7307 H   0  0  0  0  0  0  0  0  0  0  0  0
   46.7597   33.1194   43.7631 H   0  0  0  0  0  0  0  0  0  0  0  0
   45.7873   33.1186   46.1046 H   0  0  0  0  0  0  0  0  0  0  0  0
   43.8012   36.8011   45.2593 H   0  0  0  0  0  0  0  0  0  0  0  0
   50.0985   33.6051   42.4349 H   0  0  0  0  0  0  0  0  0  0  0  0
   48.0743   35.7385   39.2398 H   0  0  0  0  0  0  0  0  0  0  0  0
  1  2  1  0
  2  7  2  0
  2  3  1  0
  3  4  2  0
  4  5  1  0
  6  5  2  0
  7  6  1  0
  8  1  1  0
 10 11  1  0
 10  9  2  0
 10  8  1  0
 12 10  1  0
  1 13  1  0
  1 14  1  0
  3 15  1  0
  4 16  1  0
  6 17  1  0
 11 18  1  0
 12 19  1  0
M  ISO  7  13   8  14   8  15  14  16  14  17  14  18   3  19   3
M  END
>  <minimizedAffinity>  (1) 
-4.02554703

>  <minimizedRMSD>  (1) 
2.24793983

$$$$
