
     RDKit          3D

 30 32  0  0  1  0  0  0  0  0999 V2000
   47.6550   34.0180   41.6210 C   0  0  1  0  0  0  0  0  0  0  0  0
   48.9700   34.7110   41.3850 C   0  0  0  0  0  0  0  0  0  0  0  0
   48.7310   33.3260   40.8560 C   0  0  2  0  0  0  0  0  0  0  0  0
   48.7130   33.2440   39.4130 N   0  0  0  0  0  0  0  0  0  0  0  0
   48.1230   34.2380   38.7290 C   0  0  0  0  0  0  0  0  0  0  0  0
   48.0570   34.2470   37.3320 C   0  0  0  0  0  0  0  0  0  0  0  0
   48.6190   33.1880   36.6270 C   0  0  0  0  0  0  0  0  0  0  0  0
   48.6090   33.1070   35.3780 O   0  0  0  0  0  0  0  0  0  0  0  0
   49.2030   32.2080   37.3700 N   0  0  0  0  0  0  0  0  0  0  0  0
   49.2450   32.2400   38.7250 C   0  0  0  0  0  0  0  0  0  0  0  0
   49.8010   31.2980   39.3170 O   0  0  0  0  0  0  0  0  0  0  0  0
   47.4240   33.5640   43.0190 C   0  0  0  0  0  0  0  0  0  0  0  0
   46.3820   34.3320   43.7130 C   0  0  0  0  0  0  0  0  0  0  0  0
   45.8630   35.3940   43.0040 C   0  0  0  0  0  0  0  0  0  0  0  0
   44.8320   36.1540   43.6200 C   0  0  0  0  0  0  0  0  0  0  0  0
   44.4280   35.7850   44.8640 N   0  0  0  0  0  0  0  0  0  0  0  0
   44.9820   34.7250   45.5110 C   0  0  0  0  0  0  0  0  0  0  0  0
   45.9520   34.0080   44.9340 N   0  0  0  0  0  0  0  0  0  0  0  0
   46.5970   34.2449   41.4230 H   0  0  0  0  0  0  0  0  0  0  0  0
   49.0276   35.5636   40.6924 H   0  0  0  0  0  0  0  0  0  0  0  0
   49.7305   35.1823   42.0250 H   0  0  0  0  0  0  0  0  0  0  0  0
   49.1659   32.3206   40.9564 H   0  0  0  0  0  0  0  0  0  0  0  0
   47.6762   35.0741   39.2870 H   0  0  0  0  0  0  0  0  0  0  0  0
   47.5691   35.0771   36.8001 H   0  0  0  0  0  0  0  0  0  0  0  0
   49.6311   31.4083   36.8821 H   0  0  0  0  0  0  0  0  0  0  0  0
   47.1227   32.5063   42.9976 H   0  0  0  0  0  0  0  0  0  0  0  0
   48.3634   33.7155   43.5709 H   0  0  0  0  0  0  0  0  0  0  0  0
   46.2330   35.6440   41.9987 H   0  0  0  0  0  0  0  0  0  0  0  0
   44.3758   37.0131   43.1064 H   0  0  0  0  0  0  0  0  0  0  0  0
   44.6293   34.4552   46.5174 H   0  0  0  0  0  0  0  0  0  0  0  0
  1 12  1  0
  2  1  1  0
  3  2  1  0
  3  1  1  0
  4  3  1  0
  5  4  1  0
  6  5  2  0
  7  6  1  0
  7  9  1  0
  8  7  2  0
  9 10  1  0
 10 11  2  0
 10  4  1  0
 12 13  1  0
 13 18  2  0
 14 15  2  0
 14 13  1  0
 15 16  1  0
 16 17  2  0
 18 17  1  0
  1 19  1  6
  2 20  1  0
  2 21  1  0
  3 22  1  1
  5 23  1  0
  6 24  1  0
  9 25  1  0
 12 26  1  0
 12 27  1  0
 14 28  1  0
 15 29  1  0
 17 30  1  0
M  ISO  8  19  13  20  13  21  13  22  13  23  14  24  14  25   9  26   8
M  ISO  4  27   8  28  14  29  14  30  14
M  END
>  <minimizedAffinity>  (1) 
-4.92904997

>  <minimizedRMSD>  (1) 
2.61412311

$$$$
