
     RDKit          3D

 30 32  0  0  1  0  0  0  0  0999 V2000
   48.2510   33.8620   42.1880 C   0  0  1  0  0  0  0  0  0  0  0  0
   49.7060   33.4720   41.9760 C   0  0  0  0  0  0  0  0  0  0  0  0
   48.6090   32.8320   41.1680 C   0  0  2  0  0  0  0  0  0  0  0  0
   49.7870   31.0390   39.4560 F   0  0  0  0  0  0  0  0  0  0  0  0
   49.2740   32.1800   38.9380 C   0  0  0  0  0  0  0  0  0  0  0  0
   48.6590   33.1430   39.7370 C   0  0  0  0  0  0  0  0  0  0  0  0
   48.1570   34.2810   39.1500 C   0  0  0  0  0  0  0  0  0  0  0  0
   48.2700   34.4520   37.7870 C   0  0  0  0  0  0  0  0  0  0  0  0
   48.8820   33.4890   37.0030 C   0  0  0  0  0  0  0  0  0  0  0  0
   49.3970   32.3330   37.5670 C   0  0  0  0  0  0  0  0  0  0  0  0
   47.6100   33.3520   43.4350 C   0  0  0  0  0  0  0  0  0  0  0  0
   46.4910   34.1980   43.8850 C   0  0  0  0  0  0  0  0  0  0  0  0
   46.0830   35.1610   42.9860 C   0  0  0  0  0  0  0  0  0  0  0  0
   45.0360   36.0290   43.2940 C   0  0  0  0  0  0  0  0  0  0  0  0
   44.4570   35.8560   44.5210 N   0  0  0  0  0  0  0  0  0  0  0  0
   44.8680   34.9020   45.3960 C   0  0  0  0  0  0  0  0  0  0  0  0
   45.8740   34.0830   45.0790 N   0  0  0  0  0  0  0  0  0  0  0  0
   47.6884   34.8072   42.1782 H   0  0  0  0  0  0  0  0  0  0  0  0
   50.4032   34.1772   41.5000 H   0  0  0  0  0  0  0  0  0  0  0  0
   50.5202   33.1063   42.6189 H   0  0  0  0  0  0  0  0  0  0  0  0
   48.2114   31.8232   40.9831 H   0  0  0  0  0  0  0  0  0  0  0  0
   47.6679   35.0507   39.7651 H   0  0  0  0  0  0  0  0  0  0  0  0
   47.8699   35.3628   37.3175 H   0  0  0  0  0  0  0  0  0  0  0  0
   48.9605   33.6438   35.9168 H   0  0  0  0  0  0  0  0  0  0  0  0
   49.8854   31.5653   36.9489 H   0  0  0  0  0  0  0  0  0  0  0  0
   47.2302   32.3371   43.2459 H   0  0  0  0  0  0  0  0  0  0  0  0
   48.3724   33.3594   44.2279 H   0  0  0  0  0  0  0  0  0  0  0  0
   46.5900   35.2455   42.0135 H   0  0  0  0  0  0  0  0  0  0  0  0
   44.6964   36.8056   42.5928 H   0  0  0  0  0  0  0  0  0  0  0  0
   44.3693   34.8034   46.3715 H   0  0  0  0  0  0  0  0  0  0  0  0
  1 11  1  0
  2  1  1  0
  3  2  1  0
  3  1  1  0
  5  4  1  0
  5  6  2  0
  6  3  1  0
  7  6  1  0
  8  7  2  0
  9 10  2  0
  9  8  1  0
 10  5  1  0
 11 12  1  0
 12 17  2  0
 13 14  2  0
 13 12  1  0
 14 15  1  0
 15 16  2  0
 17 16  1  0
  1 18  1  6
  2 19  1  0
  2 20  1  0
  3 21  1  6
  7 22  1  0
  8 23  1  0
  9 24  1  0
 10 25  1  0
 11 26  1  0
 11 27  1  0
 13 28  1  0
 14 29  1  0
 16 30  1  0
M  ISO  8  18  13  19  13  20  13  21  13  22  14  23  14  24  14  25  14
M  ISO  5  26   8  27   8  28  14  29  14  30  14
M  END
>  <minimizedAffinity>  (1) 
-4.78747272

>  <minimizedRMSD>  (1) 
2.3842237

$$$$
