
     RDKit          3D

 36 38  0  0  1  0  0  0  0  0999 V2000
   47.3940   34.5890   41.1910 C   0  0  1  0  0  0  0  0  0  0  0  0
   48.5640   35.1890   40.4600 C   0  0  0  0  0  0  0  0  0  0  0  0
   47.9570   33.8960   39.9930 C   0  0  2  0  0  0  0  0  0  0  0  0
   47.3340   33.9880   38.6440 C   0  0  0  0  0  0  0  0  0  0  0  0
   48.4340   34.2300   37.6330 C   0  0  0  0  0  0  0  0  0  0  0  0
   49.2700   32.9970   37.3870 C   0  0  0  0  0  0  0  0  0  0  0  0
   48.3300   31.9440   36.7830 C   0  0  0  0  0  0  0  0  0  0  0  0
   47.4080   31.5630   37.9440 C   0  0  0  0  0  0  0  0  0  0  0  0
   46.5670   32.7600   38.2450 C   0  0  0  0  0  0  0  0  0  0  0  0
   47.7080   33.9560   42.5000 C   0  0  0  0  0  0  0  0  0  0  0  0
   46.7090   34.2500   43.5420 C   0  0  0  0  0  0  0  0  0  0  0  0
   45.8270   35.2670   43.2480 C   0  0  0  0  0  0  0  0  0  0  0  0
   44.8300   35.5920   44.2010 C   0  0  0  0  0  0  0  0  0  0  0  0
   44.8130   34.8660   45.3560 N   0  0  0  0  0  0  0  0  0  0  0  0
   45.7130   33.8720   45.5910 C   0  0  0  0  0  0  0  0  0  0  0  0
   46.6590   33.5650   44.6850 N   0  0  0  0  0  0  0  0  0  0  0  0
   46.3974   34.9470   41.4886 H   0  0  0  0  0  0  0  0  0  0  0  0
   48.4319   36.1059   39.8668 H   0  0  0  0  0  0  0  0  0  0  0  0
   49.5744   35.5194   40.7426 H   0  0  0  0  0  0  0  0  0  0  0  0
   48.2529   32.8481   39.8369 H   0  0  0  0  0  0  0  0  0  0  0  0
   46.6068   34.8127   38.6756 H   0  0  0  0  0  0  0  0  0  0  0  0
   47.9776   34.5430   36.6823 H   0  0  0  0  0  0  0  0  0  0  0  0
   49.0963   35.0095   38.0376 H   0  0  0  0  0  0  0  0  0  0  0  0
   50.0856   33.2251   36.6851 H   0  0  0  0  0  0  0  0  0  0  0  0
   49.7259   32.6338   38.3199 H   0  0  0  0  0  0  0  0  0  0  0  0
   47.7529   32.3678   35.9479 H   0  0  0  0  0  0  0  0  0  0  0  0
   48.8710   31.0798   36.3702 H   0  0  0  0  0  0  0  0  0  0  0  0
   46.7690   30.7151   37.6563 H   0  0  0  0  0  0  0  0  0  0  0  0
   47.9919   31.2617   38.8262 H   0  0  0  0  0  0  0  0  0  0  0  0
   45.9808   33.0005   37.3458 H   0  0  0  0  0  0  0  0  0  0  0  0
   45.9451   32.4899   39.1112 H   0  0  0  0  0  0  0  0  0  0  0  0
   47.7553   32.8661   42.3588 H   0  0  0  0  0  0  0  0  0  0  0  0
   48.6679   34.3708   42.8415 H   0  0  0  0  0  0  0  0  0  0  0  0
   45.8953   35.8137   42.2959 H   0  0  0  0  0  0  0  0  0  0  0  0
   44.1011   36.3951   44.0175 H   0  0  0  0  0  0  0  0  0  0  0  0
   45.6660   33.3112   46.5362 H   0  0  0  0  0  0  0  0  0  0  0  0
  1 10  1  0
  2  1  1  0
  3  2  1  0
  3  1  1  0
  4  3  1  0
  5  4  1  0
  6  5  1  0
  7  6  1  0
  7  8  1  0
  8  9  1  0
  9  4  1  0
 10 11  1  0
 11 16  1  0
 12 11  2  0
 12 13  1  0
 13 14  2  0
 14 15  1  0
 16 15  2  0
  1 17  1  6
  2 18  1  0
  2 19  1  0
  3 20  1  1
  4 21  1  0
  5 22  1  0
  5 23  1  0
  6 24  1  0
  6 25  1  0
  7 26  1  0
  7 27  1  0
  8 28  1  0
  8 29  1  0
  9 30  1  0
  9 31  1  0
 10 32  1  0
 10 33  1  0
 12 34  1  0
 13 35  1  0
 15 36  1  0
M  ISO  8  17  13  18  13  19  13  20  13  21  13  22  13  23  13  24  13
M  ISO  8  25  13  26  13  27  13  28  13  29  13  30  13  31  13  32   8
M  ISO  4  33   8  34  14  35  14  36  14
M  END
>  <minimizedAffinity>  (1) 
-4.53778839

>  <minimizedRMSD>  (1) 
1.3176645

$$$$
