
     RDKit          3D

 37 40  0  0  1  0  0  0  0  0999 V2000
   47.7010   35.1520   41.7690 C   0  0  1  0  0  0  0  0  0  0  0  0
   49.1890   34.9210   41.5020 C   0  0  0  0  0  0  0  0  0  0  0  0
   48.1960   34.8960   40.3770 C   0  0  1  0  0  0  0  0  0  0  0  0
   46.9670   34.0320   42.3950 C   0  0  0  0  0  0  0  0  0  0  0  0
   46.1470   34.4120   43.5560 C   0  0  0  0  0  0  0  0  0  0  0  0
   45.4280   35.5620   43.3710 C   0  0  0  0  0  0  0  0  0  0  0  0
   44.6090   36.0560   44.3940 C   0  0  0  0  0  0  0  0  0  0  0  0
   44.5910   35.3100   45.5540 N   0  0  0  0  0  0  0  0  0  0  0  0
   45.3060   34.1800   45.7140 C   0  0  0  0  0  0  0  0  0  0  0  0
   46.0690   33.7480   44.7200 N   0  0  0  0  0  0  0  0  0  0  0  0
   47.8710   33.6840   39.8160 O   0  0  0  0  0  0  0  0  0  0  0  0
   48.6430   34.8420   37.5380 O   0  0  0  0  0  0  0  0  0  0  0  0
   48.4400   33.5120   38.2420 P   0  0  1  0  0  0  0  0  0  0  0  0
   49.9540   32.7330   38.2940 O   0  0  0  0  0  0  0  0  0  0  0  0
   47.3420   32.5330   37.3810 O   0  0  0  0  0  0  0  0  0  0  0  0
   48.2560   33.1750   35.2220 N   0  0  0  0  0  0  0  0  0  0  0  0
   47.6000   32.3090   36.0350 C   0  0  0  0  0  0  0  0  0  0  0  0
   47.2510   31.2140   35.3200 N   0  0  0  0  0  0  0  0  0  0  0  0
   47.6620   31.3330   34.0450 C   0  0  0  0  0  0  0  0  0  0  0  0
   47.6440   30.6390   32.8510 C   0  0  0  0  0  0  0  0  0  0  0  0
   48.1930   31.1170   31.7230 N   0  0  0  0  0  0  0  0  0  0  0  0
   48.8010   32.3320   31.7140 C   0  0  0  0  0  0  0  0  0  0  0  0
   48.8250   33.0170   32.8710 N   0  0  0  0  0  0  0  0  0  0  0  0
   48.2850   32.5680   34.0200 C   0  0  0  0  0  0  0  0  0  0  0  0
   47.1131   35.9388   42.2643 H   0  0  0  0  0  0  0  0  0  0  0  0
   49.9015   35.7543   41.5908 H   0  0  0  0  0  0  0  0  0  0  0  0
   49.9540   34.2296   41.8851 H   0  0  0  0  0  0  0  0  0  0  0  0
   48.1239   35.4226   39.4139 H   0  0  0  0  0  0  0  0  0  0  0  0
   46.3044   33.5892   41.6368 H   0  0  0  0  0  0  0  0  0  0  0  0
   47.7272   33.3288   42.7661 H   0  0  0  0  0  0  0  0  0  0  0  0
   45.4938   36.1007   42.4142 H   0  0  0  0  0  0  0  0  0  0  0  0
   44.0193   36.9776   44.2800 H   0  0  0  0  0  0  0  0  0  0  0  0
   45.2573   33.6211   46.6602 H   0  0  0  0  0  0  0  0  0  0  0  0
   50.2220   32.5951   39.2370 H   0  0  0  0  0  0  0  0  0  0  0  0
   48.6464   34.0953   35.4699 H   0  0  0  0  0  0  0  0  0  0  0  0
   47.1589   29.6521   32.8231 H   0  0  0  0  0  0  0  0  0  0  0  0
   49.2549   32.7386   30.7982 H   0  0  0  0  0  0  0  0  0  0  0  0
  1  4  1  0
  2  1  1  0
  3  2  1  0
  3  1  1  0
  4  5  1  0
  5 10  1  0
  6  5  2  0
  6  7  1  0
  7  8  2  0
  8  9  1  0
 10  9  2  0
 11  3  1  0
 13 12  2  0
 13 14  1  0
 13 11  1  0
 15 13  1  0
 16 17  1  0
 17 15  1  0
 18 17  2  0
 19 18  1  0
 20 19  2  0
 21 20  1  0
 22 21  2  0
 22 23  1  0
 23 24  2  0
 24 19  1  0
 24 16  1  0
  1 25  1  6
  2 26  1  0
  2 27  1  0
  3 28  1  6
  4 29  1  0
  4 30  1  0
  6 31  1  0
  7 32  1  0
  9 33  1  0
 14 34  1  0
 16 35  1  0
 20 36  1  0
 22 37  1  0
M  ISO  8  25  13  26  13  27  13  28  13  29   8  30   8  31  14  32  14
M  ISO  5  33  14  34   3  35   9  36  14  37  14
M  END
>  <minimizedAffinity>  (1) 
-6.07327509

>  <minimizedRMSD>  (1) 
3.69989777

$$$$
