
     RDKit          3D

 36 38  0  0  1  0  0  0  0  0999 V2000
   47.6380   35.2890   41.8630 C   0  0  1  0  0  0  0  0  0  0  0  0
   49.1160   35.6360   41.7210 C   0  0  0  0  0  0  0  0  0  0  0  0
   48.3500   35.0280   40.5670 C   0  0  1  0  0  0  0  0  0  0  0  0
   47.3090   34.0910   42.6550 C   0  0  0  0  0  0  0  0  0  0  0  0
   46.3960   34.3310   43.7830 C   0  0  0  0  0  0  0  0  0  0  0  0
   45.5330   35.3750   43.5850 C   0  0  0  0  0  0  0  0  0  0  0  0
   44.6090   35.7280   44.5780 C   0  0  0  0  0  0  0  0  0  0  0  0
   44.6480   34.9610   45.7230 N   0  0  0  0  0  0  0  0  0  0  0  0
   45.5080   33.9360   45.8940 C   0  0  0  0  0  0  0  0  0  0  0  0
   46.3630   33.6380   44.9280 N   0  0  0  0  0  0  0  0  0  0  0  0
   48.6090   33.7200   40.2490 O   0  0  0  0  0  0  0  0  0  0  0  0
   48.3820   34.6480   37.7530 O   0  0  0  0  0  0  0  0  0  0  0  0
   48.3760   33.4090   38.5970 P   0  0  1  0  0  0  0  0  0  0  0  0
   49.6980   32.4390   38.0830 O   0  0  0  0  0  0  0  0  0  0  0  0
   46.9570   32.5180   38.4010 O   0  0  0  0  0  0  0  0  0  0  0  0
   43.8040   33.6250   39.9560 N   0  0  0  0  0  0  0  0  0  0  0  0
   45.0650   33.1620   39.8960 C   0  0  0  0  0  0  0  0  0  0  0  0
   45.6930   32.9740   38.6820 C   0  0  0  0  0  0  0  0  0  0  0  0
   44.9720   33.2810   37.5230 C   0  0  0  0  0  0  0  0  0  0  0  0
   45.4210   33.1580   36.3410 O   0  0  0  0  0  0  0  0  0  0  0  0
   43.7090   33.7440   37.5950 N   0  0  0  0  0  0  0  0  0  0  0  0
   43.1560   33.9060   38.7880 C   0  0  0  0  0  0  0  0  0  0  0  0
   41.9830   34.3330   38.9340 O   0  0  0  0  0  0  0  0  0  0  0  0
   46.7414   35.8470   42.1707 H   0  0  0  0  0  0  0  0  0  0  0  0
   49.4345   36.6880   41.6789 H   0  0  0  0  0  0  0  0  0  0  0  0
   50.0351   35.3827   42.2696 H   0  0  0  0  0  0  0  0  0  0  0  0
   48.1835   35.3129   39.5177 H   0  0  0  0  0  0  0  0  0  0  0  0
   46.8397   33.3556   41.9849 H   0  0  0  0  0  0  0  0  0  0  0  0
   48.2550   33.7377   43.0911 H   0  0  0  0  0  0  0  0  0  0  0  0
   45.5649   35.9398   42.6416 H   0  0  0  0  0  0  0  0  0  0  0  0
   43.9009   36.5603   44.4523 H   0  0  0  0  0  0  0  0  0  0  0  0
   45.4991   33.3533   46.8270 H   0  0  0  0  0  0  0  0  0  0  0  0
   50.1770   32.0876   38.8749 H   0  0  0  0  0  0  0  0  0  0  0  0
   43.3373   33.7646   40.8635 H   0  0  0  0  0  0  0  0  0  0  0  0
   45.6029   32.9301   40.8270 H   0  0  0  0  0  0  0  0  0  0  0  0
   43.1829   33.9680   36.7383 H   0  0  0  0  0  0  0  0  0  0  0  0
  1  4  1  0
  2  1  1  0
  3  2  1  0
  3  1  1  0
  4  5  1  0
  5 10  1  0
  6  5  2  0
  6  7  1  0
  7  8  2  0
  8  9  1  0
 10  9  2  0
 11  3  1  0
 13 12  2  0
 13 11  1  0
 14 13  1  0
 15 13  1  0
 15 18  1  0
 17 16  1  0
 18 17  2  0
 19 21  1  0
 19 18  1  0
 20 19  2  0
 21 22  1  0
 22 23  2  0
 22 16  1  0
  1 24  1  6
  2 25  1  0
  2 26  1  0
  3 27  1  6
  4 28  1  0
  4 29  1  0
  6 30  1  0
  7 31  1  0
  9 32  1  0
 14 33  1  0
 16 34  1  0
 17 35  1  0
 21 36  1  0
M  ISO  8  24  13  25  13  26  13  27  13  28   8  29   8  30  14  31  14
M  ISO  5  32  14  33   3  34   9  35  14  36   9
M  END
>  <minimizedAffinity>  (1) 
-5.60394955

>  <minimizedRMSD>  (1) 
2.73141742

$$$$
