
     RDKit          3D

 31 33  0  0  0  0  0  0  0  0999 V2000
   44.9470   34.8450   44.7480 C   0  0  0  0  0  0  0  0  0  0  0  0
   45.6210   34.4710   43.5830 C   0  0  0  0  0  0  0  0  0  0  0  0
   46.5430   33.4060   43.6220 C   0  0  0  0  0  0  0  0  0  0  0  0
   46.7290   32.7830   44.8320 N   0  0  0  0  0  0  0  0  0  0  0  0
   46.0630   33.1670   45.9360 C   0  0  0  0  0  0  0  0  0  0  0  0
   45.1790   34.1860   45.9050 N   0  0  0  0  0  0  0  0  0  0  0  0
   46.2900   32.4790   47.2020 C   0  0  0  0  0  0  0  0  0  0  0  0
   47.5270   32.0600   47.5790 C   0  0  0  0  0  0  0  0  0  0  0  0
   47.8020   31.4090   48.7550 C   0  0  0  0  0  0  0  0  0  0  0  0
   46.7350   31.1930   49.5590 N   0  0  0  0  0  0  0  0  0  0  0  0
   45.5120   31.5980   49.2030 C   0  0  0  0  0  0  0  0  0  0  0  0
   45.2420   32.2420   48.0400 N   0  0  0  0  0  0  0  0  0  0  0  0
   45.3440   35.2160   42.3190 C   0  0  0  0  0  0  0  0  0  0  0  0
   45.6160   34.4130   41.0860 C   0  0  0  0  0  0  0  0  0  0  0  0
   44.2740   34.1790   40.4170 C   0  0  0  0  0  0  0  0  0  0  0  0
   43.4990   35.4130   40.7810 C   0  0  0  0  0  0  0  0  0  0  0  0
   43.8790   35.6100   42.2340 C   0  0  0  0  0  0  0  0  0  0  0  0
   44.2270   35.6763   44.7237 H   0  0  0  0  0  0  0  0  0  0  0  0
   47.0901   33.0874   42.7224 H   0  0  0  0  0  0  0  0  0  0  0  0
   48.3651   32.2564   46.8942 H   0  0  0  0  0  0  0  0  0  0  0  0
   48.8180   31.0855   49.0253 H   0  0  0  0  0  0  0  0  0  0  0  0
   44.6778   31.3979   49.8916 H   0  0  0  0  0  0  0  0  0  0  0  0
   46.0141   36.0875   42.3565 H   0  0  0  0  0  0  0  0  0  0  0  0
   46.2849   34.9677   40.4115 H   0  0  0  0  0  0  0  0  0  0  0  0
   46.1079   33.4606   41.3330 H   0  0  0  0  0  0  0  0  0  0  0  0
   43.7872   33.2750   40.8116 H   0  0  0  0  0  0  0  0  0  0  0  0
   44.3514   34.0186   39.3315 H   0  0  0  0  0  0  0  0  0  0  0  0
   43.8066   36.2729   40.1678 H   0  0  0  0  0  0  0  0  0  0  0  0
   42.4155   35.3196   40.6159 H   0  0  0  0  0  0  0  0  0  0  0  0
   43.7444   36.6612   42.5289 H   0  0  0  0  0  0  0  0  0  0  0  0
   43.2515   35.0088   42.9084 H   0  0  0  0  0  0  0  0  0  0  0  0
  1  6  2  0
  2  3  2  0
  2  1  1  0
  3  4  1  0
  4  5  2  0
  5  7  1  0
  6  5  1  0
  7  8  2  0
  7 12  1  0
  8  9  1  0
  9 10  2  0
 11 10  1  0
 12 11  2  0
 13  2  1  0
 14 13  1  0
 15 16  1  0
 15 14  1  0
 16 17  1  0
 17 13  1  0
  1 18  1  0
  3 19  1  0
  8 20  1  0
  9 21  1  0
 11 22  1  0
 13 23  1  0
 14 24  1  0
 14 25  1  0
 15 26  1  0
 15 27  1  0
 16 28  1  0
 16 29  1  0
 17 30  1  0
 17 31  1  0
M  ISO  8  18  14  19  14  20  14  21  14  22  14  23  13  24  13  25  13
M  ISO  6  26  13  27  13  28  13  29  13  30  13  31  13
M  END
>  <minimizedAffinity>  (1) 
-5.22229099

>  <minimizedRMSD>  (1) 
1.62074471

$$$$
