
     RDKit          3D

 24 25  0  0  0  0  0  0  0  0999 V2000
   44.5650   35.4040   45.1580 C   0  0  0  0  0  0  0  0  0  0  0  0
   45.2190   35.2500   43.9240 C   0  0  0  0  0  0  0  0  0  0  0  0
   46.1560   34.2240   43.7720 C   0  0  0  0  0  0  0  0  0  0  0  0
   46.3940   33.4090   44.8510 N   0  0  0  0  0  0  0  0  0  0  0  0
   45.7460   33.5930   46.0140 C   0  0  0  0  0  0  0  0  0  0  0  0
   44.8360   34.5780   46.1810 N   0  0  0  0  0  0  0  0  0  0  0  0
   46.0070   32.7150   47.1670 C   0  0  0  0  0  0  0  0  0  0  0  0
   47.2760   32.2940   47.4360 C   0  0  0  0  0  0  0  0  0  0  0  0
   47.5720   31.4750   48.5000 C   0  0  0  0  0  0  0  0  0  0  0  0
   46.5280   31.0880   49.2910 N   0  0  0  0  0  0  0  0  0  0  0  0
   45.2920   31.5100   49.0110 C   0  0  0  0  0  0  0  0  0  0  0  0
   44.9850   32.3190   47.9660 N   0  0  0  0  0  0  0  0  0  0  0  0
   44.9200   36.1660   42.7840 C   0  0  0  0  0  0  0  0  0  0  0  0
   43.8910   35.5490   41.8500 C   0  0  0  0  0  0  0  0  0  0  0  0
   43.8251   36.2077   45.2869 H   0  0  0  0  0  0  0  0  0  0  0  0
   46.6852   34.0745   42.8194 H   0  0  0  0  0  0  0  0  0  0  0  0
   48.0934   32.6220   46.7770 H   0  0  0  0  0  0  0  0  0  0  0  0
   48.6017   31.1467   48.7046 H   0  0  0  0  0  0  0  0  0  0  0  0
   44.4730   31.1816   49.6678 H   0  0  0  0  0  0  0  0  0  0  0  0
   44.5265   37.1148   43.1776 H   0  0  0  0  0  0  0  0  0  0  0  0
   45.8480   36.3406   42.2197 H   0  0  0  0  0  0  0  0  0  0  0  0
   43.0965   35.0726   42.4431 H   0  0  0  0  0  0  0  0  0  0  0  0
   43.4542   36.3343   41.2156 H   0  0  0  0  0  0  0  0  0  0  0  0
   44.3779   34.7937   41.2156 H   0  0  0  0  0  0  0  0  0  0  0  0
  1  6  2  0
  2  1  1  0
  3  2  2  0
  3  4  1  0
  4  5  2  0
  5  6  1  0
  5  7  1  0
  7  8  2  0
  7 12  1  0
  8  9  1  0
  9 10  2  0
 11 10  1  0
 12 11  2  0
 13  2  1  0
 14 13  1  0
  1 15  1  0
  3 16  1  0
  8 17  1  0
  9 18  1  0
 11 19  1  0
 13 20  1  0
 13 21  1  0
 14 22  1  0
 14 23  1  0
 14 24  1  0
M  ISO  8  15  14  16  14  17  14  18  14  19  14  20   8  21   8  22   8
M  ISO  2  23   8  24   8
M  END
>  <minimizedAffinity>  (1) 
-4.79845238

>  <minimizedRMSD>  (1) 
0.78399384

$$$$
