
     RDKit          3D

 20 21  0  0  0  0  0  0  0  0999 V2000
   44.4560   35.6350   45.1670 C   0  0  0  0  0  0  0  0  0  0  0  0
   45.0500   35.5610   43.9050 C   0  0  0  0  0  0  0  0  0  0  0  0
   45.9640   34.5510   43.6240 C   0  0  0  0  0  0  0  0  0  0  0  0
   46.2440   33.6550   44.6160 N   0  0  0  0  0  0  0  0  0  0  0  0
   45.6550   33.7480   45.8320 C   0  0  0  0  0  0  0  0  0  0  0  0
   44.7760   34.7240   46.0960 N   0  0  0  0  0  0  0  0  0  0  0  0
   45.9890   32.7660   46.8620 C   0  0  0  0  0  0  0  0  0  0  0  0
   47.0680   31.9530   46.7850 C   0  0  0  0  0  0  0  0  0  0  0  0
   47.4090   31.0220   47.7330 C   0  0  0  0  0  0  0  0  0  0  0  0
   46.5790   30.9450   48.8050 N   0  0  0  0  0  0  0  0  0  0  0  0
   45.5020   31.7520   48.8880 C   0  0  0  0  0  0  0  0  0  0  0  0
   45.1590   32.6740   47.9540 N   0  0  0  0  0  0  0  0  0  0  0  0
   44.7340   36.5120   42.8940 N   0  0  0  0  0  0  0  0  0  0  0  0
   43.7335   36.4323   45.3957 H   0  0  0  0  0  0  0  0  0  0  0  0
   46.4445   34.4765   42.6373 H   0  0  0  0  0  0  0  0  0  0  0  0
   47.7164   32.0450   45.9012 H   0  0  0  0  0  0  0  0  0  0  0  0
   48.2964   30.3800   47.6315 H   0  0  0  0  0  0  0  0  0  0  0  0
   44.8572   31.6561   49.7740 H   0  0  0  0  0  0  0  0  0  0  0  0
   45.1793   36.4459   41.9676 H   0  0  0  0  0  0  0  0  0  0  0  0
   44.0601   37.2662   43.0889 H   0  0  0  0  0  0  0  0  0  0  0  0
  1  6  2  0
  2  1  1  0
  3  2  2  0
  3  4  1  0
  4  5  2  0
  5  6  1  0
  5  7  1  0
  7 12  1  0
  8  7  2  0
  8  9  1  0
  9 10  2  0
 10 11  1  0
 12 11  2  0
 13  2  1  0
  1 14  1  0
  3 15  1  0
  8 16  1  0
  9 17  1  0
 11 18  1  0
 13 19  1  0
 13 20  1  0
M  ISO  5  14  14  15  14  16  14  17  14  18  14
M  END
>  <minimizedAffinity>  (1) 
-4.6459856

>  <minimizedRMSD>  (1) 
0.427922636

$$$$
