
     RDKit          3D

 20 21  0  0  0  0  0  0  0  0999 V2000
   44.5640   35.4310   45.1430 C   0  0  0  0  0  0  0  0  0  0  0  0
   45.2470   35.2720   43.9340 C   0  0  0  0  0  0  0  0  0  0  0  0
   46.1960   34.2650   43.7800 C   0  0  0  0  0  0  0  0  0  0  0  0
   46.4170   33.4510   44.8680 N   0  0  0  0  0  0  0  0  0  0  0  0
   45.7560   33.6130   46.0210 C   0  0  0  0  0  0  0  0  0  0  0  0
   44.8440   34.5900   46.1510 N   0  0  0  0  0  0  0  0  0  0  0  0
   46.0270   32.7230   47.1450 C   0  0  0  0  0  0  0  0  0  0  0  0
   47.2610   32.2690   47.4460 C   0  0  0  0  0  0  0  0  0  0  0  0
   47.5620   31.4330   48.4880 C   0  0  0  0  0  0  0  0  0  0  0  0
   46.5100   31.0580   49.2540 N   0  0  0  0  0  0  0  0  0  0  0  0
   45.2790   31.5030   48.9640 C   0  0  0  0  0  0  0  0  0  0  0  0
   44.9730   32.3300   47.9330 N   0  0  0  0  0  0  0  0  0  0  0  0
   44.9470   36.1820   42.8370 C   0  0  0  0  0  0  0  0  0  0  0  0
   44.1240   35.7810   41.9690 O   0  0  0  0  0  0  0  0  0  0  0  0
   43.8145   36.2268   45.2656 H   0  0  0  0  0  0  0  0  0  0  0  0
   46.7424   34.1266   42.8354 H   0  0  0  0  0  0  0  0  0  0  0  0
   48.0916   32.5963   46.8034 H   0  0  0  0  0  0  0  0  0  0  0  0
   48.5876   31.0897   48.6890 H   0  0  0  0  0  0  0  0  0  0  0  0
   44.4538   31.1722   49.6117 H   0  0  0  0  0  0  0  0  0  0  0  0
   45.4169   37.1742   42.7685 H   0  0  0  0  0  0  0  0  0  0  0  0
  1  6  2  0
  2  1  1  0
  3  2  2  0
  3  4  1  0
  4  5  2  0
  5  6  1  0
  5  7  1  0
  7  8  2  0
  7 12  1  0
  8  9  1  0
  9 10  2  0
 11 10  1  0
 12 11  2  0
 13  2  1  0
 14 13  2  0
  1 15  1  0
  3 16  1  0
  8 17  1  0
  9 18  1  0
 11 19  1  0
 13 20  1  0
M  ISO  6  15  14  16  14  17  14  18  14  19  14  20   6
M  END
>  <minimizedAffinity>  (1) 
-4.61470509

>  <minimizedRMSD>  (1) 
0.72795409

$$$$
