
     RDKit          3D

 32 33  0  0  1  0  0  0  0  0999 V2000
   47.1480   33.6030   44.1350 C   0  0  0  0  0  0  0  0  0  0  0  0
   44.7440   36.2060   43.4340 C   0  0  1  0  0  0  0  0  0  0  0  0
   45.9240   35.4050   42.8780 C   0  0  0  0  0  0  0  0  0  0  0  0
   45.8000   34.1490   43.6650 C   0  0  2  0  0  0  0  0  0  0  0  0
   44.9270   34.3370   44.6980 O   0  0  0  0  0  0  0  0  0  0  0  0
   44.7000   35.6890   44.8600 C   0  0  0  0  0  0  0  0  0  0  0  0
   45.0340   37.5780   43.3810 O   0  0  0  0  0  0  0  0  0  0  0  0
   48.6480   32.1520   42.8240 C   0  0  0  0  0  0  0  0  0  0  0  0
   48.0510   33.3290   43.0010 C   0  0  0  0  0  0  0  0  0  0  0  0
   49.5170   31.9770   41.6820 C   0  0  0  0  0  0  0  0  0  0  0  0
   50.8900   31.8610   41.9250 C   0  0  0  0  0  0  0  0  0  0  0  0
   51.7670   31.6890   40.8300 C   0  0  0  0  0  0  0  0  0  0  0  0
   51.2220   31.6440   39.5720 N   0  0  0  0  0  0  0  0  0  0  0  0
   49.9000   31.7610   39.3910 C   0  0  0  0  0  0  0  0  0  0  0  0
   49.0880   31.9220   40.4300 N   0  0  0  0  0  0  0  0  0  0  0  0
   49.3860   31.7030   37.9960 C   0  0  0  0  0  0  0  0  0  0  0  0
   47.6213   34.3433   44.7968 H   0  0  0  0  0  0  0  0  0  0  0  0
   46.9683   32.6569   44.6666 H   0  0  0  0  0  0  0  0  0  0  0  0
   43.7927   36.0920   42.8937 H   0  0  0  0  0  0  0  0  0  0  0  0
   45.8156   35.2197   41.7992 H   0  0  0  0  0  0  0  0  0  0  0  0
   46.8990   35.9061   42.9685 H   0  0  0  0  0  0  0  0  0  0  0  0
   45.3947   33.3721   43.0000 H   0  0  0  0  0  0  0  0  0  0  0  0
   45.4856   36.1526   45.4747 H   0  0  0  0  0  0  0  0  0  0  0  0
   43.7563   35.9149   45.3780 H   0  0  0  0  0  0  0  0  0  0  0  0
   45.1095   37.9351   44.3013 H   0  0  0  0  0  0  0  0  0  0  0  0
   48.4830   31.3279   43.5337 H   0  0  0  0  0  0  0  0  0  0  0  0
   48.2389   34.1304   42.2713 H   0  0  0  0  0  0  0  0  0  0  0  0
   51.2809   31.9030   42.9524 H   0  0  0  0  0  0  0  0  0  0  0  0
   52.8523   31.5942   40.9818 H   0  0  0  0  0  0  0  0  0  0  0  0
   48.2931   31.5797   38.0128 H   0  0  0  0  0  0  0  0  0  0  0  0
   49.6417   32.6357   37.4719 H   0  0  0  0  0  0  0  0  0  0  0  0
   49.8432   30.8507   37.4719 H   0  0  0  0  0  0  0  0  0  0  0  0
  2  6  1  0
  3  2  1  0
  3  4  1  0
  4  1  1  0
  4  5  1  0
  5  6  1  0
  7  2  1  0
  8  9  2  0
  9  1  1  0
 10 11  2  0
 10  8  1  0
 12 11  1  0
 13 12  2  0
 14 13  1  0
 14 15  2  0
 15 10  1  0
 16 14  1  0
  1 17  1  0
  1 18  1  0
  2 19  1  6
  3 20  1  0
  3 21  1  0
  4 22  1  6
  6 23  1  0
  6 24  1  0
  7 25  1  0
  8 26  1  0
  9 27  1  0
 11 28  1  0
 12 29  1  0
 16 30  1  0
 16 31  1  0
 16 32  1  0
M  ISO  8  17   8  18   8  19  13  20  13  21  13  22  13  23  13  24  13
M  ISO  6  25   3  28  14  29  14  30   8  31   8  32   8
M  END
>  <minimizedAffinity>  (1) 
-4.27109098

>  <minimizedRMSD>  (1) 
0.0421951488

$$$$
