
     RDKit          3D

 21 22  0  0  0  0  0  0  0  0999 V2000
   44.5670   35.3360   45.4320 C   0  0  0  0  0  0  0  0  0  0  0  0
   45.2030   35.1990   44.1980 C   0  0  0  0  0  0  0  0  0  0  0  0
   46.1190   34.1690   43.9690 C   0  0  0  0  0  0  0  0  0  0  0  0
   46.3500   33.3160   45.0240 N   0  0  0  0  0  0  0  0  0  0  0  0
   45.7380   33.4570   46.1950 C   0  0  0  0  0  0  0  0  0  0  0  0
   44.8530   34.4580   46.4030 N   0  0  0  0  0  0  0  0  0  0  0  0
   46.0100   32.5310   47.2900 C   0  0  0  0  0  0  0  0  0  0  0  0
   47.2590   32.0840   47.5770 C   0  0  0  0  0  0  0  0  0  0  0  0
   47.5510   31.2150   48.5950 C   0  0  0  0  0  0  0  0  0  0  0  0
   46.5000   30.7970   49.3420 N   0  0  0  0  0  0  0  0  0  0  0  0
   45.2700   31.2360   49.0590 C   0  0  0  0  0  0  0  0  0  0  0  0
   44.9660   32.0890   48.0630 N   0  0  0  0  0  0  0  0  0  0  0  0
   44.8720   36.1680   43.1590 C   0  0  0  0  0  0  0  0  0  0  0  0
   44.4560   35.7120   42.0660 O   0  0  0  0  0  0  0  0  0  0  0  0
   44.9160   37.5560   43.1040 O   0  0  0  0  0  0  0  0  0  0  0  0
   43.8455   36.1482   45.6044 H   0  0  0  0  0  0  0  0  0  0  0  0
   46.6265   34.0469   43.0007 H   0  0  0  0  0  0  0  0  0  0  0  0
   48.0902   32.4425   46.9520 H   0  0  0  0  0  0  0  0  0  0  0  0
   48.5783   30.8762   48.7945 H   0  0  0  0  0  0  0  0  0  0  0  0
   44.4434   30.8729   49.6874 H   0  0  0  0  0  0  0  0  0  0  0  0
   44.6394   38.0277   42.2787 H   0  0  0  0  0  0  0  0  0  0  0  0
  1  6  2  0
  2  1  1  0
  3  2  2  0
  3  4  1  0
  4  5  2  0
  5  6  1  0
  5  7  1  0
  7  8  2  0
  7 12  1  0
  8  9  1  0
  9 10  2  0
 11 10  1  0
 12 11  2  0
 13  2  1  0
 14 13  2  0
 15 13  1  0
  1 16  1  0
  3 17  1  0
  8 18  1  0
  9 19  1  0
 11 20  1  0
 15 21  1  0
M  ISO  6  16  14  17  14  18  14  19  14  20  14  21   3
M  END
>  <minimizedAffinity>  (1) 
-4.9961524

>  <minimizedRMSD>  (1) 
0.30681023

$$$$
