
     RDKit          3D

 31 32  0  0  1  0  0  0  0  0999 V2000
   47.1240   33.5740   44.1500 C   0  0  0  0  0  0  0  0  0  0  0  0
   44.7510   36.2040   43.4350 C   0  0  1  0  0  0  0  0  0  0  0  0
   45.9430   35.4030   42.8970 C   0  0  0  0  0  0  0  0  0  0  0  0
   45.7960   34.1520   43.6750 C   0  0  2  0  0  0  0  0  0  0  0  0
   44.9340   34.3560   44.7310 O   0  0  0  0  0  0  0  0  0  0  0  0
   44.6990   35.6980   44.8440 C   0  0  0  0  0  0  0  0  0  0  0  0
   45.0390   37.5710   43.3530 O   0  0  0  0  0  0  0  0  0  0  0  0
   48.6310   32.1300   42.8410 C   0  0  0  0  0  0  0  0  0  0  0  0
   48.0490   33.3150   43.0210 C   0  0  0  0  0  0  0  0  0  0  0  0
   49.5300   31.9570   41.7050 C   0  0  0  0  0  0  0  0  0  0  0  0
   50.9150   31.8720   41.9400 C   0  0  0  0  0  0  0  0  0  0  0  0
   51.7680   31.7070   40.8410 C   0  0  0  0  0  0  0  0  0  0  0  0
   51.2110   31.6370   39.6110 N   0  0  0  0  0  0  0  0  0  0  0  0
   49.8870   31.7210   39.4150 C   0  0  0  0  0  0  0  0  0  0  0  0
   49.0730   31.8800   40.4680 N   0  0  0  0  0  0  0  0  0  0  0  0
   49.2430   31.6550   38.1490 N   0  0  0  0  0  0  0  0  0  0  0  0
   47.5964   34.2885   44.8402 H   0  0  0  0  0  0  0  0  0  0  0  0
   46.9196   32.6159   44.6502 H   0  0  0  0  0  0  0  0  0  0  0  0
   43.7968   36.0865   42.9005 H   0  0  0  0  0  0  0  0  0  0  0  0
   45.8564   35.2219   41.8155 H   0  0  0  0  0  0  0  0  0  0  0  0
   46.9180   35.9004   43.0061 H   0  0  0  0  0  0  0  0  0  0  0  0
   45.3717   33.3976   42.9962 H   0  0  0  0  0  0  0  0  0  0  0  0
   45.4739   36.1786   45.4593 H   0  0  0  0  0  0  0  0  0  0  0  0
   43.7382   35.9162   45.3332 H   0  0  0  0  0  0  0  0  0  0  0  0
   45.1182   37.9469   44.2654 H   0  0  0  0  0  0  0  0  0  0  0  0
   48.4375   31.2988   43.5350 H   0  0  0  0  0  0  0  0  0  0  0  0
   48.2616   34.1265   42.3095 H   0  0  0  0  0  0  0  0  0  0  0  0
   51.3179   31.9336   42.9617 H   0  0  0  0  0  0  0  0  0  0  0  0
   52.8576   31.6366   40.9747 H   0  0  0  0  0  0  0  0  0  0  0  0
   48.2174   31.7284   38.0885 H   0  0  0  0  0  0  0  0  0  0  0  0
   49.8021   31.5338   37.2925 H   0  0  0  0  0  0  0  0  0  0  0  0
  2  6  1  0
  3  2  1  0
  3  4  1  0
  4  1  1  0
  4  5  1  0
  5  6  1  0
  7  2  1  0
  8  9  2  0
  9  1  1  0
 10 11  2  0
 10  8  1  0
 12 11  1  0
 13 12  2  0
 14 13  1  0
 14 15  2  0
 15 10  1  0
 16 14  1  0
  1 17  1  0
  1 18  1  0
  2 19  1  6
  3 20  1  0
  3 21  1  0
  4 22  1  6
  6 23  1  0
  6 24  1  0
  7 25  1  0
  8 26  1  0
  9 27  1  0
 11 28  1  0
 12 29  1  0
 16 30  1  0
 16 31  1  0
M  ISO  8  17   8  18   8  19  13  20  13  21  13  22  13  23  13  24  13
M  ISO  3  25   3  28  14  29  14
M  END
>  <minimizedAffinity>  (1) 
-4.2652688

>  <minimizedRMSD>  (1) 
0.0340154618

$$$$
