
     RDKit          3D

 37 39  0  0  0  0  0  0  0  0999 V2000
   44.5220   34.9070   42.0900 C   0  0  0  0  0  0  0  0  0  0  0  0
   45.3040   34.8390   41.1220 O   0  0  0  0  0  0  0  0  0  0  0  0
   44.8770   35.0320   44.5140 C   0  0  0  0  0  0  0  0  0  0  0  0
   44.9230   34.2980   43.3540 C   0  0  0  0  0  0  0  0  0  0  0  0
   45.3510   32.9580   43.3650 C   0  0  0  0  0  0  0  0  0  0  0  0
   45.7190   32.4120   44.5700 N   0  0  0  0  0  0  0  0  0  0  0  0
   45.6650   33.1520   45.6920 C   0  0  0  0  0  0  0  0  0  0  0  0
   45.2500   34.4390   45.6590 N   0  0  0  0  0  0  0  0  0  0  0  0
   46.0560   32.5660   46.9640 C   0  0  0  0  0  0  0  0  0  0  0  0
   47.3370   32.2540   47.2720 C   0  0  0  0  0  0  0  0  0  0  0  0
   47.7250   31.7050   48.4580 C   0  0  0  0  0  0  0  0  0  0  0  0
   46.7390   31.4680   49.3660 N   0  0  0  0  0  0  0  0  0  0  0  0
   45.4820   31.7720   49.0690 C   0  0  0  0  0  0  0  0  0  0  0  0
   45.0860   32.3140   47.9040 N   0  0  0  0  0  0  0  0  0  0  0  0
   43.3970   35.5830   41.7010 O   0  0  0  0  0  0  0  0  0  0  0  0
   42.1840   34.9700   41.4770 C   0  0  0  0  0  0  0  0  0  0  0  0
   41.1600   35.8830   40.8160 C   0  0  0  0  0  0  0  0  0  0  0  0
   42.0120   36.0700   38.0010 Cl  0  0  0  0  0  0  0  0  0  0  0  0
   40.6040   35.2060   38.5670 C   0  0  0  0  0  0  0  0  0  0  0  0
   40.2540   35.1560   39.9110 C   0  0  0  0  0  0  0  0  0  0  0  0
   39.1260   34.4540   40.2890 C   0  0  0  0  0  0  0  0  0  0  0  0
   38.3880   33.8290   39.3140 C   0  0  0  0  0  0  0  0  0  0  0  0
   38.6880   33.8450   37.9490 C   0  0  0  0  0  0  0  0  0  0  0  0
   37.6990   33.0240   36.7650 Cl  0  0  0  0  0  0  0  0  0  0  0  0
   39.8280   34.5610   37.6190 C   0  0  0  0  0  0  0  0  0  0  0  0
   44.5427   36.0799   44.5049 H   0  0  0  0  0  0  0  0  0  0  0  0
   45.3896   32.3667   42.4383 H   0  0  0  0  0  0  0  0  0  0  0  0
   48.1127   32.4560   46.5187 H   0  0  0  0  0  0  0  0  0  0  0  0
   48.7778   31.4665   48.6697 H   0  0  0  0  0  0  0  0  0  0  0  0
   44.7119   31.5667   49.8271 H   0  0  0  0  0  0  0  0  0  0  0  0
   42.3480   34.0995   40.8248 H   0  0  0  0  0  0  0  0  0  0  0  0
   41.7784   34.6825   42.4582 H   0  0  0  0  0  0  0  0  0  0  0  0
   40.5603   36.3665   41.6012 H   0  0  0  0  0  0  0  0  0  0  0  0
   41.7108   36.6208   40.2141 H   0  0  0  0  0  0  0  0  0  0  0  0
   38.8260   34.3970   41.3458 H   0  0  0  0  0  0  0  0  0  0  0  0
   37.4930   33.2738   39.6313 H   0  0  0  0  0  0  0  0  0  0  0  0
   40.1280   34.6191   36.5623 H   0  0  0  0  0  0  0  0  0  0  0  0
  1  4  1  0
  2  1  2  0
  3  8  2  0
  4  5  2  0
  4  3  1  0
  5  6  1  0
  6  7  2  0
  7  9  1  0
  8  7  1  0
  9 10  2  0
  9 14  1  0
 10 11  1  0
 11 12  2  0
 13 12  1  0
 14 13  2  0
 15  1  1  0
 16 15  1  0
 17 16  1  0
 18 19  1  0
 19 20  2  0
 20 21  1  0
 20 17  1  0
 22 21  2  0
 23 22  1  0
 24 23  1  0
 25 23  2  0
 25 19  1  0
  3 26  1  0
  5 27  1  0
 10 28  1  0
 11 29  1  0
 13 30  1  0
 16 31  1  0
 16 32  1  0
 17 33  1  0
 17 34  1  0
 21 35  1  0
 22 36  1  0
 25 37  1  0
M  ISO  8  26  14  27  14  28  14  29  14  30  14  31   8  32   8  33   8
M  ISO  4  34   8  35  14  36  14  37  14
M  END
>  <minimizedAffinity>  (1) 
-6.80004835

>  <minimizedRMSD>  (1) 
0.780599594

$$$$
