
     RDKit          3D

 28 29  0  0  0  0  0  0  0  0999 V2000
   44.9510   34.9180   44.5820 C   0  0  0  0  0  0  0  0  0  0  0  0
   45.2990   34.2980   43.4100 C   0  0  0  0  0  0  0  0  0  0  0  0
   45.9490   33.0440   43.4110 C   0  0  0  0  0  0  0  0  0  0  0  0
   46.2120   32.4780   44.6360 N   0  0  0  0  0  0  0  0  0  0  0  0
   45.8670   33.0920   45.7600 C   0  0  0  0  0  0  0  0  0  0  0  0
   45.2440   34.3010   45.7370 N   0  0  0  0  0  0  0  0  0  0  0  0
   46.1480   32.4890   47.0550 C   0  0  0  0  0  0  0  0  0  0  0  0
   47.4060   32.1650   47.4500 C   0  0  0  0  0  0  0  0  0  0  0  0
   47.6940   31.5970   48.6640 C   0  0  0  0  0  0  0  0  0  0  0  0
   46.6350   31.3610   49.4890 N   0  0  0  0  0  0  0  0  0  0  0  0
   45.4100   31.6770   49.1010 C   0  0  0  0  0  0  0  0  0  0  0  0
   45.0970   32.2350   47.9180 N   0  0  0  0  0  0  0  0  0  0  0  0
   44.9910   34.9470   42.1420 C   0  0  0  0  0  0  0  0  0  0  0  0
   45.7700   34.7570   41.1810 O   0  0  0  0  0  0  0  0  0  0  0  0
   43.9850   35.7670   41.7300 O   0  0  0  0  0  0  0  0  0  0  0  0
   42.9980   35.3970   40.8480 C   0  0  0  0  0  0  0  0  0  0  0  0
   41.6440   35.1910   41.5160 C   0  0  0  0  0  0  0  0  0  0  0  0
   41.0350   36.4600   41.4790 O   0  0  0  0  0  0  0  0  0  0  0  0
   44.4453   35.8948   44.5758 H   0  0  0  0  0  0  0  0  0  0  0  0
   46.2321   32.5427   42.4737 H   0  0  0  0  0  0  0  0  0  0  0  0
   48.2378   32.3690   46.7597 H   0  0  0  0  0  0  0  0  0  0  0  0
   48.7241   31.3453   48.9565 H   0  0  0  0  0  0  0  0  0  0  0  0
   44.5856   31.4675   49.7985 H   0  0  0  0  0  0  0  0  0  0  0  0
   43.2963   34.4552   40.3642 H   0  0  0  0  0  0  0  0  0  0  0  0
   42.8838   36.2156   40.1222 H   0  0  0  0  0  0  0  0  0  0  0  0
   41.0441   34.4556   40.9598 H   0  0  0  0  0  0  0  0  0  0  0  0
   41.7383   34.8024   42.5407 H   0  0  0  0  0  0  0  0  0  0  0  0
   40.8817   36.7795   42.4034 H   0  0  0  0  0  0  0  0  0  0  0  0
  1  6  2  0
  2  3  2  0
  2  1  1  0
  3  4  1  0
  4  5  2  0
  5  7  1  0
  6  5  1  0
  7  8  2  0
  7 12  1  0
  8  9  1  0
  9 10  2  0
 11 10  1  0
 12 11  2  0
 13  2  1  0
 14 13  2  0
 15 13  1  0
 16 17  1  0
 16 15  1  0
 18 17  1  0
  1 19  1  0
  3 20  1  0
  8 21  1  0
  9 22  1  0
 11 23  1  0
 16 24  1  0
 16 25  1  0
 17 26  1  0
 17 27  1  0
 18 28  1  0
M  ISO  8  19  14  20  14  21  14  22  14  23  14  24   8  25   8  26   8
M  ISO  2  27   8  28   3
M  END
>  <minimizedAffinity>  (1) 
-4.65692186

>  <minimizedRMSD>  (1) 
0.353970319

$$$$
