
     RDKit          3D

 26 27  0  0  0  0  0  0  0  0999 V2000
   48.0900   33.4740   42.1060 C   0  0  0  0  0  0  0  0  0  0  0  0
   47.2290   33.8190   41.0780 C   0  0  0  0  0  0  0  0  0  0  0  0
   46.0060   34.4390   41.4360 C   0  0  0  0  0  0  0  0  0  0  0  0
   45.7550   34.6540   42.7670 N   0  0  0  0  0  0  0  0  0  0  0  0
   46.6280   34.2970   43.7200 C   0  0  0  0  0  0  0  0  0  0  0  0
   47.7790   33.7150   43.3960 N   0  0  0  0  0  0  0  0  0  0  0  0
   48.7530   35.7110   39.8480 F   0  0  0  0  0  0  0  0  0  0  0  0
   48.2530   34.6520   39.1690 C   0  0  0  0  0  0  0  0  0  0  0  0
   47.4540   33.6080   39.6560 C   0  0  0  0  0  0  0  0  0  0  0  0
   47.0510   32.6200   38.7770 C   0  0  0  0  0  0  0  0  0  0  0  0
   47.4360   32.6750   37.4550 C   0  0  0  0  0  0  0  0  0  0  0  0
   48.2210   33.6930   36.9580 C   0  0  0  0  0  0  0  0  0  0  0  0
   48.6310   34.6880   37.8210 C   0  0  0  0  0  0  0  0  0  0  0  0
   49.3450   32.8070   41.7950 C   0  0  0  0  0  0  0  0  0  0  0  0
   50.4980   33.6140   42.3220 C   0  0  0  0  0  0  0  0  0  0  0  0
   45.2783   34.7394   40.6677 H   0  0  0  0  0  0  0  0  0  0  0  0
   46.3905   34.4868   44.7771 H   0  0  0  0  0  0  0  0  0  0  0  0
   46.4230   31.7900   39.1329 H   0  0  0  0  0  0  0  0  0  0  0  0
   47.1052   31.8784   36.7724 H   0  0  0  0  0  0  0  0  0  0  0  0
   48.5138   33.7116   35.8978 H   0  0  0  0  0  0  0  0  0  0  0  0
   49.2570   35.5125   37.4491 H   0  0  0  0  0  0  0  0  0  0  0  0
   49.3538   31.8108   42.2614 H   0  0  0  0  0  0  0  0  0  0  0  0
   49.4414   32.7078   40.7037 H   0  0  0  0  0  0  0  0  0  0  0  0
   50.4814   33.6024   43.4218 H   0  0  0  0  0  0  0  0  0  0  0  0
   51.4433   33.1794   41.9650 H   0  0  0  0  0  0  0  0  0  0  0  0
   50.4133   34.6510   41.9650 H   0  0  0  0  0  0  0  0  0  0  0  0
  1  6  2  0
  2  3  2  0
  2  1  1  0
  3  4  1  0
  4  5  2  0
  6  5  1  0
  8  9  2  0
  8  7  1  0
  9  2  1  0
 10  9  1  0
 11 10  2  0
 12 11  1  0
 12 13  2  0
 13  8  1  0
 14  1  1  0
 14 15  1  0
  3 16  1  0
  5 17  1  0
 10 18  1  0
 11 19  1  0
 12 20  1  0
 13 21  1  0
 14 22  1  0
 14 23  1  0
 15 24  1  0
 15 25  1  0
 15 26  1  0
M  ISO  8  16  14  17  14  18  14  19  14  20  14  21  14  22   8  23   8
M  ISO  3  24   8  25   8  26   8
M  END
>  <minimizedAffinity>  (1) 
-4.17093134

>  <minimizedRMSD>  (1) 
2.72071505

$$$$
