
     RDKit          3D

 31 32  0  0  0  0  0  0  0  0999 V2000
   45.8550   31.2210   45.0540 C   0  0  0  0  0  0  0  0  0  0  0  0
   46.3700   32.4970   45.2110 C   0  0  0  0  0  0  0  0  0  0  0  0
   46.7110   32.9570   46.4900 C   0  0  0  0  0  0  0  0  0  0  0  0
   46.5010   32.0870   47.5010 N   0  0  0  0  0  0  0  0  0  0  0  0
   46.0030   30.8560   47.3420 C   0  0  0  0  0  0  0  0  0  0  0  0
   45.6800   30.4200   46.1300 N   0  0  0  0  0  0  0  0  0  0  0  0
   46.6140   33.4710   44.2020 N   0  0  0  0  0  0  0  0  0  0  0  0
   45.6790   34.5280   43.8870 C   0  0  0  0  0  0  0  0  0  0  0  0
   45.8800   35.1220   42.5130 C   0  0  0  0  0  0  0  0  0  0  0  0
   47.3560   35.1820   42.1580 C   0  0  0  0  0  0  0  0  0  0  0  0
   47.8620   33.7560   42.1610 C   0  0  0  0  0  0  0  0  0  0  0  0
   47.8990   33.2610   43.5790 C   0  0  0  0  0  0  0  0  0  0  0  0
   45.5060   30.7030   43.7320 C   0  0  0  0  0  0  0  0  0  0  0  0
   46.6170   29.7790   43.2730 C   0  0  0  0  0  0  0  0  0  0  0  0
   47.1234   33.9626   46.6595 H   0  0  0  0  0  0  0  0  0  0  0  0
   45.8608   30.2038   48.2163 H   0  0  0  0  0  0  0  0  0  0  0  0
   44.6594   34.1190   43.9435 H   0  0  0  0  0  0  0  0  0  0  0  0
   45.8463   35.3350   44.6155 H   0  0  0  0  0  0  0  0  0  0  0  0
   45.3565   34.5002   41.7719 H   0  0  0  0  0  0  0  0  0  0  0  0
   45.4764   36.1453   42.5104 H   0  0  0  0  0  0  0  0  0  0  0  0
   47.9013   35.7794   42.9035 H   0  0  0  0  0  0  0  0  0  0  0  0
   47.5080   35.6538   41.1760 H   0  0  0  0  0  0  0  0  0  0  0  0
   47.1880   33.1228   41.5654 H   0  0  0  0  0  0  0  0  0  0  0  0
   48.8704   33.7152   41.7234 H   0  0  0  0  0  0  0  0  0  0  0  0
   48.1371   32.1871   43.5852 H   0  0  0  0  0  0  0  0  0  0  0  0
   48.6689   33.8136   44.1375 H   0  0  0  0  0  0  0  0  0  0  0  0
   44.5591   30.1461   43.7890 H   0  0  0  0  0  0  0  0  0  0  0  0
   45.3854   31.5328   43.0200 H   0  0  0  0  0  0  0  0  0  0  0  0
   47.1271   29.3548   44.1504 H   0  0  0  0  0  0  0  0  0  0  0  0
   46.1907   28.9654   42.6678 H   0  0  0  0  0  0  0  0  0  0  0  0
   47.3393   30.3465   42.6678 H   0  0  0  0  0  0  0  0  0  0  0  0
  1  2  2  0
  1  6  1  0
  2  3  1  0
  3  4  2  0
  5  4  1  0
  6  5  2  0
  7  2  1  0
  8  7  1  0
  9  8  1  0
 10 11  1  0
 10  9  1  0
 11 12  1  0
 12  7  1  0
 13  1  1  0
 14 13  1  0
  3 15  1  0
  5 16  1  0
  8 17  1  0
  8 18  1  0
  9 19  1  0
  9 20  1  0
 10 21  1  0
 10 22  1  0
 11 23  1  0
 11 24  1  0
 12 25  1  0
 12 26  1  0
 13 27  1  0
 13 28  1  0
 14 29  1  0
 14 30  1  0
 14 31  1  0
M  ISO  8  15  14  16  14  17  13  18  13  19  13  20  13  21  13  22  13
M  ISO  8  23  13  24  13  25  13  26  13  27   8  28   8  29   8  30   8
M  ISO  1  31   8
M  END
>  <minimizedAffinity>  (1) 
-3.27234411

>  <minimizedRMSD>  (1) 
4.21030855

$$$$
