
     RDKit          3D

 44 47  0  0  1  0  0  0  0  0999 V2000
   46.8660   33.0080   38.7160 N   0  0  0  0  0  0  0  0  0  0  0  0
   45.8680   33.2930   37.6760 C   0  0  0  0  0  0  0  0  0  0  0  0
   45.1510   32.0270   37.2520 C   0  0  0  0  0  0  0  0  0  0  0  0
   46.0630   31.1060   36.6110 N   0  0  0  0  0  0  0  0  0  0  0  0
   47.4130   31.4580   37.0030 C   0  0  0  0  0  0  0  0  0  0  0  0
   47.4350   31.6900   38.5280 C   0  0  1  0  0  0  0  0  0  0  0  0
   44.9970   32.8610   41.2360 Br  0  0  0  0  0  0  0  0  0  0  0  0
   46.5650   33.9340   40.9900 C   0  0  0  0  0  0  0  0  0  0  0  0
   46.9820   34.7610   42.0020 C   0  0  0  0  0  0  0  0  0  0  0  0
   48.1150   35.5600   41.8380 C   0  0  0  0  0  0  0  0  0  0  0  0
   48.7860   35.4900   40.6480 C   0  0  0  0  0  0  0  0  0  0  0  0
   48.3320   34.6450   39.6590 C   0  0  0  0  0  0  0  0  0  0  0  0
   47.2450   33.8650   39.7950 C   0  0  0  0  0  0  0  0  0  0  0  0
   45.7700   33.9380   45.3460 C   0  0  0  0  0  0  0  0  0  0  0  0
   44.7690   34.9170   45.5880 C   0  0  0  0  0  0  0  0  0  0  0  0
   44.5430   35.8410   44.5800 C   0  0  0  0  0  0  0  0  0  0  0  0
   45.2670   35.7630   43.4470 N   0  0  0  0  0  0  0  0  0  0  0  0
   46.2280   34.8000   43.2450 C   0  0  0  0  0  0  0  0  0  0  0  0
   46.4600   33.9020   44.2090 N   0  0  0  0  0  0  0  0  0  0  0  0
   48.7420   31.4390   39.0920 C   0  0  0  0  0  0  0  0  0  0  0  0
   49.1090   31.0230   40.3260 C   0  0  0  0  0  0  0  0  0  0  0  0
   50.3860   30.7840   40.7880 C   0  0  0  0  0  0  0  0  0  0  0  0
   51.4230   30.9880   39.9030 C   0  0  0  0  0  0  0  0  0  0  0  0
   51.1720   31.4130   38.6140 C   0  0  0  0  0  0  0  0  0  0  0  0
   49.8570   31.6230   38.2550 C   0  0  0  0  0  0  0  0  0  0  0  0
   45.1317   34.0089   38.0701 H   0  0  0  0  0  0  0  0  0  0  0  0
   46.3837   33.7144   36.8005 H   0  0  0  0  0  0  0  0  0  0  0  0
   44.7173   31.5444   38.1402 H   0  0  0  0  0  0  0  0  0  0  0  0
   44.3609   32.2946   36.5349 H   0  0  0  0  0  0  0  0  0  0  0  0
   45.9676   31.1764   35.5878 H   0  0  0  0  0  0  0  0  0  0  0  0
   48.1004   30.6398   36.7422 H   0  0  0  0  0  0  0  0  0  0  0  0
   47.7321   32.3706   36.4782 H   0  0  0  0  0  0  0  0  0  0  0  0
   46.8277   30.9735   39.1005 H   0  0  0  0  0  0  0  0  0  0  0  0
   48.4583   36.2268   42.6427 H   0  0  0  0  0  0  0  0  0  0  0  0
   49.6829   36.1048   40.4817 H   0  0  0  0  0  0  0  0  0  0  0  0
   48.8868   34.6064   38.7100 H   0  0  0  0  0  0  0  0  0  0  0  0
   45.9808   33.1874   46.1220 H   0  0  0  0  0  0  0  0  0  0  0  0
   44.2010   34.9404   46.5297 H   0  0  0  0  0  0  0  0  0  0  0  0
   43.7832   36.6268   44.7036 H   0  0  0  0  0  0  0  0  0  0  0  0
   48.2933   30.8559   41.0448 H   0  0  0  0  0  0  0  0  0  0  0  0
   50.5693   30.4452   41.8183 H   0  0  0  0  0  0  0  0  0  0  0  0
   52.4592   30.8106   40.2268 H   0  0  0  0  0  0  0  0  0  0  0  0
   51.9913   31.5783   37.8988 H   0  0  0  0  0  0  0  0  0  0  0  0
   49.6640   31.9632   37.2269 H   0  0  0  0  0  0  0  0  0  0  0  0
  1 13  1  0
  2  1  1  0
  3  2  1  0
  4  5  1  0
  4  3  1  0
  5  6  1  0
  6  1  1  0
  6 20  1  0
  8  7  1  0
  8  9  2  0
  9 18  1  0
 10  9  1  0
 11 10  2  0
 12 13  2  0
 12 11  1  0
 13  8  1  0
 14 15  2  0
 16 15  1  0
 17 16  2  0
 18 17  1  0
 18 19  2  0
 19 14  1  0
 20 21  2  0
 21 22  1  0
 23 22  2  0
 24 23  1  0
 25 24  2  0
 25 20  1  0
  2 26  1  0
  2 27  1  0
  3 28  1  0
  3 29  1  0
  4 30  1  0
  5 31  1  0
  5 32  1  0
  6 33  1  1
 10 34  1  0
 11 35  1  0
 12 36  1  0
 14 37  1  0
 15 38  1  0
 16 39  1  0
 21 40  1  0
 22 41  1  0
 23 42  1  0
 24 43  1  0
 25 44  1  0
M  ISO  8  26  13  27  13  28  13  29  13  30   5  31  13  32  13  33  13
M  ISO  8  34  14  35  14  36  14  37  14  38  14  39  14  40  14  41  14
M  ISO  3  42  14  43  14  44  14
M  END
>  <minimizedAffinity>  (1) 
-5.79406357

>  <minimizedRMSD>  (1) 
0.788039804

$$$$
