
     RDKit          3D

 36 37  0  0  1  0  0  0  0  0999 V2000
   46.8410   34.2290   42.6440 C   0  0  0  0  0  0  0  0  0  0  0  0
   45.5430   34.5070   43.0210 C   0  0  0  0  0  0  0  0  0  0  0  0
   45.1290   34.1170   44.3210 C   0  0  0  0  0  0  0  0  0  0  0  0
   46.0460   33.4960   45.1000 N   0  0  0  0  0  0  0  0  0  0  0  0
   47.3050   33.2390   44.7020 C   0  0  0  0  0  0  0  0  0  0  0  0
   47.6740   33.6110   43.4840 N   0  0  0  0  0  0  0  0  0  0  0  0
   47.3290   34.6050   41.3180 C   0  0  0  0  0  0  0  0  0  0  0  0
   48.5950   35.4240   41.4810 C   0  0  0  0  0  0  0  0  0  0  0  0
   44.7310   35.1520   42.0980 O   0  0  0  0  0  0  0  0  0  0  0  0
   44.1400   33.9170   39.8570 O   0  0  0  0  0  0  0  0  0  0  0  0
   43.5420   34.4800   41.1330 P   0  0  1  0  0  0  0  0  0  0  0  0
   42.8600   33.1740   42.0030 O   0  0  0  0  0  0  0  0  0  0  0  0
   42.2790   35.5480   40.7880 O   0  0  0  0  0  0  0  0  0  0  0  0
   41.4970   34.9730   38.6390 N   0  0  0  0  0  0  0  0  0  0  0  0
   41.2630   35.0130   40.0530 C   0  0  2  0  0  0  0  0  0  0  0  0
   39.9330   35.7060   40.2590 C   0  0  0  0  0  0  0  0  0  0  0  0
   38.9260   34.7460   39.8020 N   0  0  0  0  0  0  0  0  0  0  0  0
   39.0870   34.4680   38.4010 C   0  0  0  0  0  0  0  0  0  0  0  0
   40.4930   34.1970   37.9700 C   0  0  0  0  0  0  0  0  0  0  0  0
   44.1075   34.3107   44.6803 H   0  0  0  0  0  0  0  0  0  0  0  0
   48.0134   32.7310   45.3728 H   0  0  0  0  0  0  0  0  0  0  0  0
   46.5657   35.2026   40.7982 H   0  0  0  0  0  0  0  0  0  0  0  0
   47.5398   33.7022   40.7259 H   0  0  0  0  0  0  0  0  0  0  0  0
   48.8075   35.5615   42.5515 H   0  0  0  0  0  0  0  0  0  0  0  0
   49.4357   34.8982   41.0049 H   0  0  0  0  0  0  0  0  0  0  0  0
   48.4600   36.4064   41.0049 H   0  0  0  0  0  0  0  0  0  0  0  0
   42.9482   33.3428   42.9745 H   0  0  0  0  0  0  0  0  0  0  0  0
   41.4816   35.9339   38.2684 H   0  0  0  0  0  0  0  0  0  0  0  0
   41.2257   33.9847   40.4419 H   0  0  0  0  0  0  0  0  0  0  0  0
   39.7833   35.9456   41.3221 H   0  0  0  0  0  0  0  0  0  0  0  0
   39.8748   36.6567   39.7088 H   0  0  0  0  0  0  0  0  0  0  0  0
   39.0279   33.8701   40.3343 H   0  0  0  0  0  0  0  0  0  0  0  0
   38.4783   33.5852   38.1557 H   0  0  0  0  0  0  0  0  0  0  0  0
   38.7709   35.3768   37.8680 H   0  0  0  0  0  0  0  0  0  0  0  0
   40.7063   33.1336   38.1536 H   0  0  0  0  0  0  0  0  0  0  0  0
   40.5465   34.4788   36.9081 H   0  0  0  0  0  0  0  0  0  0  0  0
  1  2  2  0
  1  6  1  0
  2  3  1  0
  3  4  2  0
  5  4  1  0
  6  5  2  0
  7  8  1  0
  7  1  1  0
  9  2  1  0
 11 10  2  0
 11 12  1  0
 11  9  1  0
 13 11  1  0
 14 15  1  0
 15 16  1  0
 15 13  1  0
 17 16  1  0
 18 17  1  0
 19 18  1  0
 19 14  1  0
  3 20  1  0
  5 21  1  0
  7 22  1  0
  7 23  1  0
  8 24  1  0
  8 25  1  0
  8 26  1  0
 12 27  1  0
 14 28  1  0
 15 29  1  1
 16 30  1  0
 16 31  1  0
 17 32  1  0
 18 33  1  0
 18 34  1  0
 19 35  1  0
 19 36  1  0
M  ISO  8  20  14  21  14  22   8  23   8  24   8  25   8  26   8  27   3
M  ISO  8  28   5  29  13  30  13  31  13  32   5  33  13  34  13  35  13
M  ISO  1  36  13
M  END
>  <minimizedAffinity>  (1) 
-4.77918053

>  <minimizedRMSD>  (1) 
1.93373978

$$$$
