
     RDKit          3D

 30 31  0  0  0  0  0  0  0  0999 V2000
   46.5200   34.3700   43.0020 C   0  0  0  0  0  0  0  0  0  0  0  0
   45.2790   34.7440   43.4740 C   0  0  0  0  0  0  0  0  0  0  0  0
   44.9500   34.4120   44.8030 C   0  0  0  0  0  0  0  0  0  0  0  0
   45.8810   33.7470   45.5220 N   0  0  0  0  0  0  0  0  0  0  0  0
   47.0750   33.3970   45.0410 C   0  0  0  0  0  0  0  0  0  0  0  0
   47.3940   33.7110   43.7760 N   0  0  0  0  0  0  0  0  0  0  0  0
   46.9260   34.6830   41.6310 C   0  0  0  0  0  0  0  0  0  0  0  0
   48.2830   35.3310   41.6520 C   0  0  0  0  0  0  0  0  0  0  0  0
   44.4540   35.4230   42.5850 O   0  0  0  0  0  0  0  0  0  0  0  0
   43.6930   34.8570   40.1330 O   0  0  0  0  0  0  0  0  0  0  0  0
   43.2640   34.7400   41.5930 P   0  0  1  0  0  0  0  0  0  0  0  0
   43.1540   33.0890   41.9770 O   0  0  0  0  0  0  0  0  0  0  0  0
   41.7350   35.4200   41.8160 O   0  0  0  0  0  0  0  0  0  0  0  0
   40.6300   34.7540   41.3010 C   0  0  0  0  0  0  0  0  0  0  0  0
   39.9930   35.3410   40.2100 C   0  0  0  0  0  0  0  0  0  0  0  0
   38.8780   34.7540   39.6210 C   0  0  0  0  0  0  0  0  0  0  0  0
   38.4210   33.5790   40.1410 N   0  0  0  0  0  0  0  0  0  0  0  0
   39.0400   33.0250   41.1890 C   0  0  0  0  0  0  0  0  0  0  0  0
   40.1110   33.5960   41.7490 N   0  0  0  0  0  0  0  0  0  0  0  0
   43.9762   34.6827   45.2371 H   0  0  0  0  0  0  0  0  0  0  0  0
   47.7919   32.8557   45.6759 H   0  0  0  0  0  0  0  0  0  0  0  0
   46.1966   35.3716   41.1796 H   0  0  0  0  0  0  0  0  0  0  0  0
   46.9679   33.7575   41.0379 H   0  0  0  0  0  0  0  0  0  0  0  0
   48.6008   35.4827   42.6941 H   0  0  0  0  0  0  0  0  0  0  0  0
   49.0074   34.6816   41.1386 H   0  0  0  0  0  0  0  0  0  0  0  0
   48.2334   36.3026   41.1386 H   0  0  0  0  0  0  0  0  0  0  0  0
   43.1467   32.9788   42.9608 H   0  0  0  0  0  0  0  0  0  0  0  0
   40.3797   36.2882   39.8060 H   0  0  0  0  0  0  0  0  0  0  0  0
   38.3792   35.2240   38.7606 H   0  0  0  0  0  0  0  0  0  0  0  0
   38.6592   32.0781   41.5994 H   0  0  0  0  0  0  0  0  0  0  0  0
  1  2  2  0
  1  6  1  0
  2  3  1  0
  3  4  2  0
  5  4  1  0
  6  5  2  0
  7  8  1  0
  7  1  1  0
  9  2  1  0
 11 10  2  0
 11 13  1  0
 11 12  1  0
 11  9  1  0
 14 19  1  0
 14 13  1  0
 15 14  2  0
 16 17  2  0
 16 15  1  0
 17 18  1  0
 18 19  2  0
  3 20  1  0
  5 21  1  0
  7 22  1  0
  7 23  1  0
  8 24  1  0
  8 25  1  0
  8 26  1  0
 12 27  1  0
 15 28  1  0
 16 29  1  0
 18 30  1  0
M  ISO  8  20  14  21  14  22   8  23   8  24   8  25   8  26   8  27   3
M  ISO  3  28  14  29  14  30  14
M  END
>  <minimizedAffinity>  (1) 
-4.98677015

>  <minimizedRMSD>  (1) 
1.14474559

$$$$
