
     RDKit          3D

 40 42  0  0  0  0  0  0  0  0999 V2000
   43.5740   35.5360   40.0420 O   0  0  0  0  0  0  0  0  0  0  0  0
   43.3450   35.0050   41.4510 P   0  0  1  0  0  0  0  0  0  0  0  0
   43.5120   33.3130   41.3840 O   0  0  0  0  0  0  0  0  0  0  0  0
   44.5480   35.5990   42.4750 O   0  0  0  0  0  0  0  0  0  0  0  0
   46.5410   34.4340   42.9210 C   0  0  0  0  0  0  0  0  0  0  0  0
   45.3080   34.8660   43.3790 C   0  0  0  0  0  0  0  0  0  0  0  0
   44.9330   34.5360   44.6890 C   0  0  0  0  0  0  0  0  0  0  0  0
   45.8020   33.8180   45.4180 N   0  0  0  0  0  0  0  0  0  0  0  0
   46.9880   33.4070   44.9640 C   0  0  0  0  0  0  0  0  0  0  0  0
   47.3550   33.7180   43.7120 N   0  0  0  0  0  0  0  0  0  0  0  0
   47.0020   34.7330   41.5770 C   0  0  0  0  0  0  0  0  0  0  0  0
   48.3730   35.3400   41.6320 C   0  0  0  0  0  0  0  0  0  0  0  0
   41.7770   35.3420   41.9550 O   0  0  0  0  0  0  0  0  0  0  0  0
   40.7150   34.6680   41.3690 C   0  0  0  0  0  0  0  0  0  0  0  0
   39.9980   35.3290   40.3880 C   0  0  0  0  0  0  0  0  0  0  0  0
   38.9190   34.7370   39.7420 C   0  0  0  0  0  0  0  0  0  0  0  0
   38.5810   33.4700   40.1080 N   0  0  0  0  0  0  0  0  0  0  0  0
   39.2740   32.8410   41.0500 C   0  0  0  0  0  0  0  0  0  0  0  0
   40.3150   33.4120   41.6730 N   0  0  0  0  0  0  0  0  0  0  0  0
   41.3040   31.0850   42.4880 Cl  0  0  0  0  0  0  0  0  0  0  0  0
   39.6830   30.5820   42.0520 C   0  0  0  0  0  0  0  0  0  0  0  0
   38.8660   31.4820   41.4010 C   0  0  0  0  0  0  0  0  0  0  0  0
   37.5990   31.0410   41.0780 C   0  0  0  0  0  0  0  0  0  0  0  0
   37.1190   29.7790   41.3650 C   0  0  0  0  0  0  0  0  0  0  0  0
   38.0120   28.9350   42.0250 C   0  0  0  0  0  0  0  0  0  0  0  0
   39.2990   29.3000   42.3820 C   0  0  0  0  0  0  0  0  0  0  0  0
   43.5480   32.9483   42.3037 H   0  0  0  0  0  0  0  0  0  0  0  0
   43.9646   34.8530   45.1033 H   0  0  0  0  0  0  0  0  0  0  0  0
   47.6572   32.8195   45.6098 H   0  0  0  0  0  0  0  0  0  0  0  0
   46.3077   35.4420   41.1023 H   0  0  0  0  0  0  0  0  0  0  0  0
   47.0405   33.8026   40.9914 H   0  0  0  0  0  0  0  0  0  0  0  0
   48.6733   35.4729   42.6818 H   0  0  0  0  0  0  0  0  0  0  0  0
   49.0890   34.6748   41.1272 H   0  0  0  0  0  0  0  0  0  0  0  0
   48.3618   36.3173   41.1272 H   0  0  0  0  0  0  0  0  0  0  0  0
   40.2902   36.3527   40.1111 H   0  0  0  0  0  0  0  0  0  0  0  0
   38.3580   35.2733   38.9625 H   0  0  0  0  0  0  0  0  0  0  0  0
   36.9279   31.7405   40.5581 H   0  0  0  0  0  0  0  0  0  0  0  0
   36.1020   29.4608   41.0919 H   0  0  0  0  0  0  0  0  0  0  0  0
   37.6737   27.9191   42.2768 H   0  0  0  0  0  0  0  0  0  0  0  0
   39.9771   28.6058   42.9000 H   0  0  0  0  0  0  0  0  0  0  0  0
  2  1  2  0
  2 13  1  0
  2  4  1  0
  3  2  1  0
  4  6  1  0
  5  6  2  0
  5 10  1  0
  6  7  1  0
  7  8  2  0
  9  8  1  0
 10  9  2  0
 11 12  1  0
 11  5  1  0
 14 19  1  0
 14 13  1  0
 15 14  2  0
 16 17  2  0
 16 15  1  0
 17 18  1  0
 18 22  1  0
 18 19  2  0
 21 26  2  0
 21 20  1  0
 22 21  1  0
 23 24  1  0
 23 22  2  0
 24 25  2  0
 25 26  1  0
  3 27  1  0
  7 28  1  0
  9 29  1  0
 11 30  1  0
 11 31  1  0
 12 32  1  0
 12 33  1  0
 12 34  1  0
 15 35  1  0
 16 36  1  0
 23 37  1  0
 24 38  1  0
 25 39  1  0
 26 40  1  0
M  ISO  8  27   3  28  14  29  14  30   8  31   8  32   8  33   8  34   8
M  ISO  6  35  14  36  14  37  14  38  14  39  14  40  14
M  END
>  <minimizedAffinity>  (1) 
-6.17032766

>  <minimizedRMSD>  (1) 
0.490882486

$$$$
