
     RDKit          3D

 37 39  0  0  0  0  0  0  0  0999 V2000
   43.7050   34.8730   40.1320 O   0  0  0  0  0  0  0  0  0  0  0  0
   43.2780   34.7060   41.5840 P   0  0  1  0  0  0  0  0  0  0  0  0
   43.2030   33.0530   41.9440 O   0  0  0  0  0  0  0  0  0  0  0  0
   44.4370   35.4180   42.6030 O   0  0  0  0  0  0  0  0  0  0  0  0
   46.5070   34.3740   43.0140 C   0  0  0  0  0  0  0  0  0  0  0  0
   45.2640   34.7460   43.4860 C   0  0  0  0  0  0  0  0  0  0  0  0
   44.9380   34.4140   44.8190 C   0  0  0  0  0  0  0  0  0  0  0  0
   45.8720   33.7550   45.5340 N   0  0  0  0  0  0  0  0  0  0  0  0
   47.0620   33.4050   45.0640 C   0  0  0  0  0  0  0  0  0  0  0  0
   47.3810   33.7140   43.8030 N   0  0  0  0  0  0  0  0  0  0  0  0
   46.9140   34.6810   41.6470 C   0  0  0  0  0  0  0  0  0  0  0  0
   48.2670   35.3270   41.6620 C   0  0  0  0  0  0  0  0  0  0  0  0
   41.7220   35.3340   41.8120 O   0  0  0  0  0  0  0  0  0  0  0  0
   40.6400   34.6470   41.2840 C   0  0  0  0  0  0  0  0  0  0  0  0
   39.8730   35.3150   40.3340 C   0  0  0  0  0  0  0  0  0  0  0  0
   38.7640   34.6980   39.7480 C   0  0  0  0  0  0  0  0  0  0  0  0
   38.4550   33.4340   40.1300 N   0  0  0  0  0  0  0  0  0  0  0  0
   39.1980   32.8060   41.0400 C   0  0  0  0  0  0  0  0  0  0  0  0
   40.2640   33.4040   41.6000 N   0  0  0  0  0  0  0  0  0  0  0  0
   38.8100   31.4450   41.4060 C   0  0  0  0  0  0  0  0  0  0  0  0
   39.5590   30.4330   41.9640 C   0  0  0  0  0  0  0  0  0  0  0  0
   38.7190   29.3850   42.0950 N   0  0  0  0  0  0  0  0  0  0  0  0
   37.4880   29.6940   41.6480 C   0  0  0  0  0  0  0  0  0  0  0  0
   37.5460   30.9870   41.2160 N   0  0  0  0  0  0  0  0  0  0  0  0
   43.1974   32.9291   42.9262 H   0  0  0  0  0  0  0  0  0  0  0  0
   43.9643   34.6814   45.2553 H   0  0  0  0  0  0  0  0  0  0  0  0
   47.7773   32.8673   45.7037 H   0  0  0  0  0  0  0  0  0  0  0  0
   46.1847   35.3678   41.1927 H   0  0  0  0  0  0  0  0  0  0  0  0
   46.9576   33.7519   41.0598 H   0  0  0  0  0  0  0  0  0  0  0  0
   48.5885   35.4805   42.7027 H   0  0  0  0  0  0  0  0  0  0  0  0
   48.9895   34.6767   41.1471 H   0  0  0  0  0  0  0  0  0  0  0  0
   48.2156   36.2977   41.1471 H   0  0  0  0  0  0  0  0  0  0  0  0
   40.1426   36.3404   40.0409 H   0  0  0  0  0  0  0  0  0  0  0  0
   38.1575   35.2243   38.9962 H   0  0  0  0  0  0  0  0  0  0  0  0
   40.6219   30.4710   42.2448 H   0  0  0  0  0  0  0  0  0  0  0  0
   38.9849   28.4697   42.4855 H   0  0  0  0  0  0  0  0  0  0  0  0
   36.6081   29.0341   41.6337 H   0  0  0  0  0  0  0  0  0  0  0  0
  2  1  2  0
  2 13  1  0
  2  3  1  0
  2  4  1  0
  4  6  1  0
  5  6  2  0
  5 10  1  0
  6  7  1  0
  7  8  2  0
  9  8  1  0
 10  9  2  0
 11 12  1  0
 11  5  1  0
 14 19  1  0
 14 13  1  0
 15 14  2  0
 16 17  2  0
 16 15  1  0
 17 18  1  0
 18 20  1  0
 18 19  2  0
 20 21  2  0
 21 22  1  0
 23 22  1  0
 24 20  1  0
 24 23  2  0
  3 25  1  0
  7 26  1  0
  9 27  1  0
 11 28  1  0
 11 29  1  0
 12 30  1  0
 12 31  1  0
 12 32  1  0
 15 33  1  0
 16 34  1  0
 21 35  1  0
 22 36  1  0
 23 37  1  0
M  ISO  8  25   3  26  14  27  14  28   8  29   8  30   8  31   8  32   8
M  ISO  5  33  14  34  14  35  14  36   9  37  14
M  END
>  <minimizedAffinity>  (1) 
-5.72695351

>  <minimizedRMSD>  (1) 
0.341188729

$$$$
