
     RDKit          3D

 36 37  0  0  0  0  0  0  0  0999 V2000
   44.3920   35.5140   42.6400 O   0  0  0  0  0  0  0  0  0  0  0  0
   46.4230   34.4040   43.0840 C   0  0  0  0  0  0  0  0  0  0  0  0
   45.2040   34.8300   43.5390 C   0  0  0  0  0  0  0  0  0  0  0  0
   44.8690   34.5430   44.8750 C   0  0  0  0  0  0  0  0  0  0  0  0
   45.7670   33.8670   45.6230 N   0  0  0  0  0  0  0  0  0  0  0  0
   46.9530   33.4620   45.1500 C   0  0  0  0  0  0  0  0  0  0  0  0
   47.2820   33.7320   43.8780 N   0  0  0  0  0  0  0  0  0  0  0  0
   46.8450   34.6630   41.7050 C   0  0  0  0  0  0  0  0  0  0  0  0
   48.1970   35.3020   41.7180 C   0  0  0  0  0  0  0  0  0  0  0  0
   43.7040   35.0460   40.1460 O   0  0  0  0  0  0  0  0  0  0  0  0
   43.2610   34.8390   41.5880 P   0  0  1  0  0  0  0  0  0  0  0  0
   43.2190   33.1580   41.8880 O   0  0  0  0  0  0  0  0  0  0  0  0
   41.6930   35.4200   41.8220 O   0  0  0  0  0  0  0  0  0  0  0  0
   40.6270   34.6960   41.3020 C   0  0  0  0  0  0  0  0  0  0  0  0
   39.8380   35.3120   40.3410 C   0  0  0  0  0  0  0  0  0  0  0  0
   38.7520   34.6610   39.7670 C   0  0  0  0  0  0  0  0  0  0  0  0
   38.4710   33.3910   40.1710 N   0  0  0  0  0  0  0  0  0  0  0  0
   39.2390   32.7960   41.1040 C   0  0  0  0  0  0  0  0  0  0  0  0
   40.2760   33.4510   41.6360 N   0  0  0  0  0  0  0  0  0  0  0  0
   38.9550   31.4110   41.5640 C   0  0  0  0  0  0  0  0  0  0  0  0
   37.6400   30.8980   40.9760 C   0  0  0  0  0  0  0  0  0  0  0  0
   43.9041   34.8600   45.2976 H   0  0  0  0  0  0  0  0  0  0  0  0
   47.6510   32.9128   45.7990 H   0  0  0  0  0  0  0  0  0  0  0  0
   46.1238   35.3371   41.2197 H   0  0  0  0  0  0  0  0  0  0  0  0
   46.8884   33.7160   41.1470 H   0  0  0  0  0  0  0  0  0  0  0  0
   48.5203   35.4548   42.7582 H   0  0  0  0  0  0  0  0  0  0  0  0
   48.9164   34.6486   41.2027 H   0  0  0  0  0  0  0  0  0  0  0  0
   48.1488   36.2726   41.2027 H   0  0  0  0  0  0  0  0  0  0  0  0
   43.2150   32.9971   42.8648 H   0  0  0  0  0  0  0  0  0  0  0  0
   40.0772   36.3385   40.0263 H   0  0  0  0  0  0  0  0  0  0  0  0
   38.1347   35.1594   39.0051 H   0  0  0  0  0  0  0  0  0  0  0  0
   39.7743   30.7504   41.2440 H   0  0  0  0  0  0  0  0  0  0  0  0
   38.8706   31.4160   42.6607 H   0  0  0  0  0  0  0  0  0  0  0  0
   36.9531   30.6300   41.7924 H   0  0  0  0  0  0  0  0  0  0  0  0
   37.1840   31.6842   40.3563 H   0  0  0  0  0  0  0  0  0  0  0  0
   37.8369   30.0107   40.3563 H   0  0  0  0  0  0  0  0  0  0  0  0
  1  3  1  0
  2  3  2  0
  2  7  1  0
  3  4  1  0
  4  5  2  0
  6  5  1  0
  7  6  2  0
  8  9  1  0
  8  2  1  0
 11 10  2  0
 11 13  1  0
 11 12  1  0
 11  1  1  0
 14 19  1  0
 14 13  1  0
 15 14  2  0
 16 17  2  0
 16 15  1  0
 17 18  1  0
 18 20  1  0
 18 19  2  0
 21 20  1  0
  4 22  1  0
  6 23  1  0
  8 24  1  0
  8 25  1  0
  9 26  1  0
  9 27  1  0
  9 28  1  0
 12 29  1  0
 15 30  1  0
 16 31  1  0
 20 32  1  0
 20 33  1  0
 21 34  1  0
 21 35  1  0
 21 36  1  0
M  ISO  8  22  14  23  14  24   8  25   8  26   8  27   8  28   8  29   3
M  ISO  7  30  14  31  14  32   8  33   8  34   8  35   8  36   8
M  END
>  <minimizedAffinity>  (1) 
-5.20679331

>  <minimizedRMSD>  (1) 
0.310980976

$$$$
