
     RDKit          3D

 36 38  0  0  1  0  0  0  0  0999 V2000
   47.0710   33.5800   44.1710 C   0  0  0  0  0  0  0  0  0  0  0  0
   44.7260   36.2320   43.4630 C   0  0  1  0  0  0  0  0  0  0  0  0
   45.8800   35.3920   42.9050 C   0  0  0  0  0  0  0  0  0  0  0  0
   45.7340   34.1530   43.7200 C   0  0  2  0  0  0  0  0  0  0  0  0
   44.9140   34.4160   44.7850 O   0  0  0  0  0  0  0  0  0  0  0  0
   44.7020   35.7570   44.8980 C   0  0  0  0  0  0  0  0  0  0  0  0
   45.0260   37.5880   43.3490 O   0  0  0  0  0  0  0  0  0  0  0  0
   48.6100   32.1510   42.9050 C   0  0  0  0  0  0  0  0  0  0  0  0
   47.9570   33.2970   43.0220 C   0  0  0  0  0  0  0  0  0  0  0  0
   49.4620   31.9630   41.7340 C   0  0  0  0  0  0  0  0  0  0  0  0
   50.8530   31.9010   41.9480 C   0  0  0  0  0  0  0  0  0  0  0  0
   51.7260   31.7240   40.8750 C   0  0  0  0  0  0  0  0  0  0  0  0
   51.1520   31.6190   39.6560 N   0  0  0  0  0  0  0  0  0  0  0  0
   49.8260   31.6800   39.4620 C   0  0  0  0  0  0  0  0  0  0  0  0
   49.0020   31.8500   40.4890 N   0  0  0  0  0  0  0  0  0  0  0  0
   49.2440   31.5580   38.0840 C   0  0  0  0  0  0  0  0  0  0  0  0
   50.0970   31.6370   36.8820 C   0  0  0  0  0  0  0  0  0  0  0  0
   49.2130   32.7840   37.1950 C   0  0  0  0  0  0  0  0  0  0  0  0
   47.5656   34.3062   44.8328 H   0  0  0  0  0  0  0  0  0  0  0  0
   46.8795   32.6342   44.6990 H   0  0  0  0  0  0  0  0  0  0  0  0
   43.7586   36.1194   42.9517 H   0  0  0  0  0  0  0  0  0  0  0  0
   45.7523   35.1891   41.8314 H   0  0  0  0  0  0  0  0  0  0  0  0
   46.8684   35.8701   42.9714 H   0  0  0  0  0  0  0  0  0  0  0  0
   45.2810   33.3756   43.0872 H   0  0  0  0  0  0  0  0  0  0  0  0
   45.5003   36.2346   45.4851 H   0  0  0  0  0  0  0  0  0  0  0  0
   43.7649   36.0035   45.4186 H   0  0  0  0  0  0  0  0  0  0  0  0
   45.1135   37.9837   44.2523 H   0  0  0  0  0  0  0  0  0  0  0  0
   48.5135   31.3639   43.6673 H   0  0  0  0  0  0  0  0  0  0  0  0
   48.0775   34.0616   42.2405 H   0  0  0  0  0  0  0  0  0  0  0  0
   51.2533   31.9928   42.9685 H   0  0  0  0  0  0  0  0  0  0  0  0
   52.8162   31.6729   41.0125 H   0  0  0  0  0  0  0  0  0  0  0  0
   48.5121   30.8269   38.4581 H   0  0  0  0  0  0  0  0  0  0  0  0
   49.8761   30.9992   36.0135 H   0  0  0  0  0  0  0  0  0  0  0  0
   51.1757   31.5266   36.6969 H   0  0  0  0  0  0  0  0  0  0  0  0
   49.6430   33.7332   37.5473 H   0  0  0  0  0  0  0  0  0  0  0  0
   48.4328   33.3418   36.6564 H   0  0  0  0  0  0  0  0  0  0  0  0
  2  6  1  0
  3  2  1  0
  3  4  1  0
  4  1  1  0
  4  5  1  0
  5  6  1  0
  7  2  1  0
  8  9  2  0
  9  1  1  0
 10 11  2  0
 10  8  1  0
 12 11  1  0
 13 12  2  0
 14 13  1  0
 14 15  2  0
 15 10  1  0
 16 14  1  0
 17 18  1  0
 17 16  1  0
 18 16  1  0
  1 19  1  0
  1 20  1  0
  2 21  1  6
  3 22  1  0
  3 23  1  0
  4 24  1  6
  6 25  1  0
  6 26  1  0
  7 27  1  0
  8 28  1  0
  9 29  1  0
 11 30  1  0
 12 31  1  0
 16 32  1  0
 17 33  1  0
 17 34  1  0
 18 35  1  0
 18 36  1  0
M  ISO  8  19   8  20   8  21  13  22  13  23  13  24  13  25  13  26  13
M  ISO  8  27   3  30  14  31  14  32  13  33  13  34  13  35  13  36  13
M  END
>  <minimizedAffinity>  (1) 
-4.37479734

>  <minimizedRMSD>  (1) 
0.436606556

$$$$
