
     RDKit          3D

 29 31  0  0  1  0  0  0  0  0999 V2000
   47.1030   34.8760   41.7030 C   0  0  1  0  0  0  0  0  0  0  0  0
   48.4680   35.5070   41.8690 C   0  0  0  0  0  0  0  0  0  0  0  0
   48.2620   33.9920   41.7000 C   0  0  2  0  0  0  0  0  0  0  0  0
   44.6060   35.9130   44.3300 C   0  0  0  0  0  0  0  0  0  0  0  0
   45.3220   35.9570   43.1210 C   0  0  0  0  0  0  0  0  0  0  0  0
   46.2700   34.9620   42.9570 C   0  0  0  0  0  0  0  0  0  0  0  0
   46.4540   34.0200   43.9430 N   0  0  0  0  0  0  0  0  0  0  0  0
   45.7380   34.0220   45.0890 C   0  0  0  0  0  0  0  0  0  0  0  0
   44.8080   34.9870   45.2650 N   0  0  0  0  0  0  0  0  0  0  0  0
   48.0110   33.7620   39.2690 C   0  0  2  0  0  0  0  0  0  0  0  0
   48.7750   33.2970   40.4900 C   0  0  2  0  0  0  0  0  0  0  0  0
   48.5590   31.8100   40.4370 C   0  0  0  0  0  0  0  0  0  0  0  0
   48.5100   31.4680   39.0880 O   0  0  0  0  0  0  0  0  0  0  0  0
   48.0490   32.5620   38.3850 C   0  0  0  0  0  0  0  0  0  0  0  0
   48.6190   34.8500   38.6670 O   0  0  0  0  0  0  0  0  0  0  0  0
   46.2559   34.9739   41.0081 H   0  0  0  0  0  0  0  0  0  0  0  0
   48.9091   36.1041   41.0573 H   0  0  0  0  0  0  0  0  0  0  0  0
   48.9550   36.1657   42.6031 H   0  0  0  0  0  0  0  0  0  0  0  0
   48.5173   33.0845   42.2668 H   0  0  0  0  0  0  0  0  0  0  0  0
   43.8408   36.6819   44.5126 H   0  0  0  0  0  0  0  0  0  0  0  0
   45.1413   36.7287   42.3582 H   0  0  0  0  0  0  0  0  0  0  0  0
   45.9079   33.2565   45.8604 H   0  0  0  0  0  0  0  0  0  0  0  0
   46.9919   34.1047   39.5014 H   0  0  0  0  0  0  0  0  0  0  0  0
   49.8499   33.5288   40.5204 H   0  0  0  0  0  0  0  0  0  0  0  0
   49.3903   31.2869   40.9322 H   0  0  0  0  0  0  0  0  0  0  0  0
   47.6322   31.5228   40.9553 H   0  0  0  0  0  0  0  0  0  0  0  0
   48.7200   32.7573   37.5355 H   0  0  0  0  0  0  0  0  0  0  0  0
   47.0328   32.3523   38.0198 H   0  0  0  0  0  0  0  0  0  0  0  0
   48.9620   35.4638   39.3640 H   0  0  0  0  0  0  0  0  0  0  0  0
  1  2  1  0
  1  6  1  0
  3  1  1  0
  3  2  1  0
  4  9  2  0
  5  4  1  0
  6  5  2  0
  6  7  1  0
  7  8  2  0
  8  9  1  0
 10 15  1  0
 10 11  1  0
 11 12  1  0
 11  3  1  0
 13 12  1  0
 14 13  1  0
 14 10  1  0
  1 16  1  6
  2 17  1  0
  2 18  1  0
  3 19  1  1
  4 20  1  0
  5 21  1  0
  8 22  1  0
 10 23  1  1
 11 24  1  6
 12 25  1  0
 12 26  1  0
 14 27  1  0
 14 28  1  0
 15 29  1  0
M  ISO  8  16  13  17  13  18  13  19  13  20  14  21  14  22  14  23  13
M  ISO  6  24  13  25  13  26  13  27  13  28  13  29   3
M  END
>  <minimizedAffinity>  (1) 
-4.80041122

>  <minimizedRMSD>  (1) 
0.320026517

$$$$
