
     RDKit          3D

 18 19  0  0  1  0  0  0  0  0999 V2000
   44.6230   36.1060   44.2940 C   0  0  0  0  0  0  0  0  0  0  0  0
   45.3790   35.9130   43.1250 C   0  0  0  0  0  0  0  0  0  0  0  0
   46.1860   34.7850   43.1010 C   0  0  0  0  0  0  0  0  0  0  0  0
   46.2040   33.9390   44.1880 N   0  0  0  0  0  0  0  0  0  0  0  0
   45.4630   34.1620   45.2930 C   0  0  0  0  0  0  0  0  0  0  0  0
   44.6810   35.2550   45.3150 N   0  0  0  0  0  0  0  0  0  0  0  0
   47.0320   34.4590   41.9010 C   0  0  1  0  0  0  0  0  0  0  0  0
   48.1170   35.4850   41.6630 C   0  0  0  0  0  0  0  0  0  0  0  0
   48.4080   34.0350   42.1310 C   0  0  1  0  0  0  0  0  0  0  0  0
   48.9520   34.0020   43.4310 O   0  0  0  0  0  0  0  0  0  0  0  0
   43.9653   36.9847   44.3667 H   0  0  0  0  0  0  0  0  0  0  0  0
   45.3334   36.6148   42.2792 H   0  0  0  0  0  0  0  0  0  0  0  0
   45.4976   33.4715   46.1486 H   0  0  0  0  0  0  0  0  0  0  0  0
   46.2190   34.0117   41.3103 H   0  0  0  0  0  0  0  0  0  0  0  0
   48.3701   35.8035   40.6410 H   0  0  0  0  0  0  0  0  0  0  0  0
   48.3466   36.4988   42.0229 H   0  0  0  0  0  0  0  0  0  0  0  0
   48.9589   33.1465   41.7889 H   0  0  0  0  0  0  0  0  0  0  0  0
   48.2201   34.0464   44.0962 H   0  0  0  0  0  0  0  0  0  0  0  0
  1  6  2  0
  2  1  1  0
  3  2  2  0
  3  4  1  0
  4  5  2  0
  5  6  1  0
  7  9  1  0
  7  3  1  0
  8  7  1  0
  8  9  1  0
  9 10  1  0
  1 11  1  0
  2 12  1  0
  5 13  1  0
  7 14  1  6
  8 15  1  0
  8 16  1  0
  9 17  1  6
 10 18  1  0
M  ISO  8  11  14  12  14  13  14  14  13  15  13  16  13  17  13  18   3
M  END
>  <minimizedAffinity>  (1) 
-3.96002483

>  <minimizedRMSD>  (1) 
0.334797204

$$$$
