
     RDKit          3D

 24 26  0  0  1  0  0  0  0  0999 V2000
   48.0310   35.6160   42.0360 C   0  0  1  0  0  0  0  0  0  0  0  0
   49.4570   35.1110   42.1050 C   0  0  0  0  0  0  0  0  0  0  0  0
   48.6590   35.2350   40.7770 C   0  0  1  0  0  0  0  0  0  0  0  0
   46.4000   32.9700   44.1700 C   0  0  0  0  0  0  0  0  0  0  0  0
   47.4350   33.7570   43.6360 C   0  0  0  0  0  0  0  0  0  0  0  0
   47.0530   34.6990   42.6830 C   0  0  0  0  0  0  0  0  0  0  0  0
   45.7300   34.7930   42.3390 N   0  0  0  0  0  0  0  0  0  0  0  0
   44.7660   34.0290   42.8670 C   0  0  0  0  0  0  0  0  0  0  0  0
   45.1110   33.1100   43.7900 N   0  0  0  0  0  0  0  0  0  0  0  0
   48.4260   33.9290   40.1280 C   0  0  0  0  0  0  0  0  0  0  0  0
   47.6970   33.9480   38.9400 C   0  0  0  0  0  0  0  0  0  0  0  0
   47.5640   32.6570   38.4280 C   0  0  0  0  0  0  0  0  0  0  0  0
   48.2080   31.8840   39.3070 N   0  0  0  0  0  0  0  0  0  0  0  0
   48.6850   32.6280   40.2580 N   0  0  0  0  0  0  0  0  0  0  0  0
   47.4911   36.5297   42.3254 H   0  0  0  0  0  0  0  0  0  0  0  0
   50.2843   35.8013   42.3265 H   0  0  0  0  0  0  0  0  0  0  0  0
   49.9951   34.3144   42.6397 H   0  0  0  0  0  0  0  0  0  0  0  0
   48.7156   35.7641   39.8143 H   0  0  0  0  0  0  0  0  0  0  0  0
   46.6490   32.2110   44.9263 H   0  0  0  0  0  0  0  0  0  0  0  0
   48.4820   33.6366   43.9510 H   0  0  0  0  0  0  0  0  0  0  0  0
   43.7179   34.1485   42.5551 H   0  0  0  0  0  0  0  0  0  0  0  0
   47.2844   34.8539   38.4718 H   0  0  0  0  0  0  0  0  0  0  0  0
   47.0461   32.3460   37.5087 H   0  0  0  0  0  0  0  0  0  0  0  0
   48.3098   30.8612   39.2408 H   0  0  0  0  0  0  0  0  0  0  0  0
  1  2  1  0
  1  6  1  0
  3  1  1  0
  3  2  1  0
  5  4  2  0
  6  5  1  0
  7  6  2  0
  7  8  1  0
  8  9  2  0
  9  4  1  0
 10 14  2  0
 10  3  1  0
 11 10  1  0
 12 11  2  0
 12 13  1  0
 13 14  1  0
  1 15  1  6
  2 16  1  0
  2 17  1  0
  3 18  1  6
  4 19  1  0
  5 20  1  0
  8 21  1  0
 11 22  1  0
 12 23  1  0
 13 24  1  0
M  ISO  8  15  13  16  13  17  13  18  13  19  14  20  14  21  14  22  14
M  ISO  2  23  14  24   9
M  END
>  <minimizedAffinity>  (1) 
-3.89366031

>  <minimizedRMSD>  (1) 
3.52271533

$$$$
