
     RDKit          3D

 36 39  0  0  1  0  0  0  0  0999 V2000
   48.8240   32.2630   38.2860 O   0  0  0  0  0  0  0  0  0  0  0  0
   48.2370   33.4990   38.9290 P   0  0  2  0  0  0  0  0  0  0  0  0
   48.7380   34.8130   37.9890 O   0  0  0  0  0  0  0  0  0  0  0  0
   48.5540   33.6570   40.5290 O   0  0  0  0  0  0  0  0  0  0  0  0
   48.0860   35.5080   42.0000 C   0  0  1  0  0  0  0  0  0  0  0  0
   49.4310   35.0540   42.4340 C   0  0  0  0  0  0  0  0  0  0  0  0
   48.9510   34.8470   41.0050 C   0  0  1  0  0  0  0  0  0  0  0  0
   46.0010   33.1890   44.1150 C   0  0  0  0  0  0  0  0  0  0  0  0
   47.1160   33.9120   43.6650 C   0  0  0  0  0  0  0  0  0  0  0  0
   46.9390   34.7200   42.5340 C   0  0  0  0  0  0  0  0  0  0  0  0
   45.7260   34.7800   41.9180 N   0  0  0  0  0  0  0  0  0  0  0  0
   44.6680   34.0700   42.3760 C   0  0  0  0  0  0  0  0  0  0  0  0
   44.8070   33.2750   43.4750 N   0  0  0  0  0  0  0  0  0  0  0  0
   46.5620   33.3650   38.7090 O   0  0  0  0  0  0  0  0  0  0  0  0
   45.7260   31.1300   37.8420 N   0  0  0  0  0  0  0  0  0  0  0  0
   46.0680   32.4310   37.8080 C   0  0  0  0  0  0  0  0  0  0  0  0
   45.8500   32.8880   36.5410 N   0  0  0  0  0  0  0  0  0  0  0  0
   45.3760   31.8680   35.8030 C   0  0  0  0  0  0  0  0  0  0  0  0
   44.9840   31.7340   34.4820 C   0  0  0  0  0  0  0  0  0  0  0  0
   44.5490   30.5410   34.0590 N   0  0  0  0  0  0  0  0  0  0  0  0
   44.4790   29.4720   34.8720 C   0  0  0  0  0  0  0  0  0  0  0  0
   44.8530   29.5510   36.1800 N   0  0  0  0  0  0  0  0  0  0  0  0
   45.2970   30.7560   36.6260 C   0  0  0  0  0  0  0  0  0  0  0  0
   45.0930   32.9170   33.7010 N   0  0  0  0  0  0  0  0  0  0  0  0
   49.0205   35.5540   38.5816 H   0  0  0  0  0  0  0  0  0  0  0  0
   47.5459   36.4661   42.0179 H   0  0  0  0  0  0  0  0  0  0  0  0
   50.2197   35.7892   42.6519 H   0  0  0  0  0  0  0  0  0  0  0  0
   49.8210   34.4061   43.2328 H   0  0  0  0  0  0  0  0  0  0  0  0
   49.3922   35.0825   40.0253 H   0  0  0  0  0  0  0  0  0  0  0  0
   46.0958   32.5426   45.0000 H   0  0  0  0  0  0  0  0  0  0  0  0
   48.0870   33.8473   44.1778 H   0  0  0  0  0  0  0  0  0  0  0  0
   43.6975   34.1345   41.8621 H   0  0  0  0  0  0  0  0  0  0  0  0
   45.7841   30.5187   38.6689 H   0  0  0  0  0  0  0  0  0  0  0  0
   44.1125   28.5146   34.4731 H   0  0  0  0  0  0  0  0  0  0  0  0
   44.8221   32.9049   32.7073 H   0  0  0  0  0  0  0  0  0  0  0  0
   45.4429   33.7862   34.1288 H   0  0  0  0  0  0  0  0  0  0  0  0
  2  1  2  0
  2  4  1  0
  3  2  1  0
  4  7  1  0
  5  6  1  0
  5 10  1  0
  7  5  1  0
  7  6  1  0
  9  8  2  0
 10  9  1  0
 11 12  1  0
 11 10  2  0
 12 13  2  0
 13  8  1  0
 14  2  1  0
 16 15  1  0
 16 14  1  0
 17 16  2  0
 18 17  1  0
 18 23  2  0
 19 18  1  0
 20 19  2  0
 20 21  1  0
 21 22  2  0
 22 23  1  0
 23 15  1  0
 24 19  1  0
  3 25  1  0
  5 26  1  6
  6 27  1  0
  6 28  1  0
  7 29  1  6
  8 30  1  0
  9 31  1  0
 12 32  1  0
 15 33  1  0
 21 34  1  0
 24 35  1  0
 24 36  1  0
M  ISO  8  25   3  26  13  27  13  28  13  29  13  30  14  31  14  32  14
M  ISO  2  33   9  34  14
M  END
>  <minimizedAffinity>  (1) 
-5.6518712

>  <minimizedRMSD>  (1) 
1.4004389

$$$$
