
     RDKit          3D

 36 38  0  0  1  0  0  0  0  0999 V2000
   47.9300   35.1330   41.6990 C   0  0  1  0  0  0  0  0  0  0  0  0
   48.9690   34.0750   41.6840 C   0  0  0  0  0  0  0  0  0  0  0  0
   47.9140   34.1630   40.5890 C   0  0  1  0  0  0  0  0  0  0  0  0
   45.9350   33.8310   44.6250 C   0  0  0  0  0  0  0  0  0  0  0  0
   46.9580   33.9290   43.6680 C   0  0  0  0  0  0  0  0  0  0  0  0
   46.8800   34.9770   42.7460 C   0  0  0  0  0  0  0  0  0  0  0  0
   45.8360   35.8480   42.8060 N   0  0  0  0  0  0  0  0  0  0  0  0
   44.8660   35.7260   43.7410 C   0  0  0  0  0  0  0  0  0  0  0  0
   44.9180   34.7140   44.6530 N   0  0  0  0  0  0  0  0  0  0  0  0
   46.8770   33.3140   40.5110 O   0  0  0  0  0  0  0  0  0  0  0  0
   46.1410   31.6060   38.6170 O   0  0  0  0  0  0  0  0  0  0  0  0
   46.1650   33.0520   39.0560 P   0  0  2  0  0  0  0  0  0  0  0  0
   46.8510   33.9230   37.7790 O   0  0  0  0  0  0  0  0  0  0  0  0
   44.5380   33.5110   39.1450 O   0  0  0  0  0  0  0  0  0  0  0  0
   43.3270   32.9020   41.0510 C   0  0  2  0  0  0  0  0  0  0  0  0
   44.1670   33.9840   40.3850 C   0  0  2  0  0  0  0  0  0  0  0  0
   43.1960   34.9610   40.1860 O   0  0  0  0  0  0  0  0  0  0  0  0
   42.0860   34.3210   39.6600 C   0  0  0  0  0  0  0  0  0  0  0  0
   42.1360   32.8800   40.1100 C   0  0  1  0  0  0  0  0  0  0  0  0
   42.9640   33.3970   42.3020 O   0  0  0  0  0  0  0  0  0  0  0  0
   42.4560   32.0000   39.0780 O   0  0  0  0  0  0  0  0  0  0  0  0
   47.9408   36.2320   41.7443 H   0  0  0  0  0  0  0  0  0  0  0  0
   50.0163   34.3307   41.4654 H   0  0  0  0  0  0  0  0  0  0  0  0
   49.3100   33.2993   42.3854 H   0  0  0  0  0  0  0  0  0  0  0  0
   47.9675   34.1880   39.4906 H   0  0  0  0  0  0  0  0  0  0  0  0
   45.9646   33.0181   45.3655 H   0  0  0  0  0  0  0  0  0  0  0  0
   47.7890   33.2087   43.6447 H   0  0  0  0  0  0  0  0  0  0  0  0
   44.0337   36.4448   43.7655 H   0  0  0  0  0  0  0  0  0  0  0  0
   47.4210   34.6467   38.1417 H   0  0  0  0  0  0  0  0  0  0  0  0
   43.7902   31.9156   41.2006 H   0  0  0  0  0  0  0  0  0  0  0  0
   45.0620   34.3051   40.9381 H   0  0  0  0  0  0  0  0  0  0  0  0
   42.1086   34.3722   38.5614 H   0  0  0  0  0  0  0  0  0  0  0  0
   41.1604   34.8031   40.0075 H   0  0  0  0  0  0  0  0  0  0  0  0
   41.1713   32.5486   40.5217 H   0  0  0  0  0  0  0  0  0  0  0  0
   43.3736   32.8385   43.0094 H   0  0  0  0  0  0  0  0  0  0  0  0
   42.7680   31.1420   39.4608 H   0  0  0  0  0  0  0  0  0  0  0  0
  1  6  1  0
  2  1  1  0
  3  2  1  0
  3  1  1  0
  4  9  2  0
  5  4  1  0
  6  7  1  0
  6  5  2  0
  7  8  2  0
  8  9  1  0
 10  3  1  0
 12 11  2  0
 12 14  1  0
 12 10  1  0
 13 12  1  0
 15 20  1  0
 16 14  1  0
 16 15  1  0
 17 16  1  0
 18 19  1  0
 18 17  1  0
 19 21  1  0
 19 15  1  0
  1 22  1  6
  2 23  1  0
  2 24  1  0
  3 25  1  6
  4 26  1  0
  5 27  1  0
  8 28  1  0
 13 29  1  0
 15 30  1  1
 16 31  1  1
 18 32  1  0
 18 33  1  0
 19 34  1  1
 20 35  1  0
 21 36  1  0
M  ISO  8  22  13  23  13  24  13  25  13  26  14  27  14  28  14  29   3
M  ISO  7  30  13  31  13  32  13  33  13  34  13  35   3  36   3
M  END
>  <minimizedAffinity>  (1) 
-4.7413106

>  <minimizedRMSD>  (1) 
2.22328901

$$$$
