
     RDKit          3D

 30 32  0  0  1  0  0  0  0  0999 V2000
   48.0130   35.6080   41.9290 C   0  0  1  0  0  0  0  0  0  0  0  0
   49.3720   35.0170   41.9670 C   0  0  0  0  0  0  0  0  0  0  0  0
   48.5840   35.1150   40.6660 C   0  0  1  0  0  0  0  0  0  0  0  0
   46.2060   33.0980   44.0960 C   0  0  0  0  0  0  0  0  0  0  0  0
   47.2500   33.8590   43.5540 C   0  0  0  0  0  0  0  0  0  0  0  0
   46.9370   34.7770   42.5440 C   0  0  0  0  0  0  0  0  0  0  0  0
   45.6440   34.8960   42.1330 N   0  0  0  0  0  0  0  0  0  0  0  0
   44.6500   34.1490   42.6720 C   0  0  0  0  0  0  0  0  0  0  0  0
   44.9410   33.2530   43.6530 N   0  0  0  0  0  0  0  0  0  0  0  0
   48.0080   34.0580   40.0790 O   0  0  0  0  0  0  0  0  0  0  0  0
   49.0020   32.4690   38.2000 O   0  0  0  0  0  0  0  0  0  0  0  0
   48.2890   33.7720   38.4870 P   0  0  2  0  0  0  0  0  0  0  0  0
   49.1830   34.9830   37.7170 O   0  0  0  0  0  0  0  0  0  0  0  0
   46.8160   33.6550   37.6700 O   0  0  0  0  0  0  0  0  0  0  0  0
   45.7100   32.9660   38.1520 C   0  0  0  0  0  0  0  0  0  0  0  0
   44.8730   32.4440   37.1700 C   0  0  0  0  0  0  0  0  0  0  0  0
   43.8570   31.8110   37.8070 N   0  0  0  0  0  0  0  0  0  0  0  0
   44.0420   31.9280   39.1370 C   0  0  0  0  0  0  0  0  0  0  0  0
   45.1760   32.6350   39.3410 N   0  0  0  0  0  0  0  0  0  0  0  0
   47.5784   36.5688   42.2422 H   0  0  0  0  0  0  0  0  0  0  0  0
   50.2504   35.6581   42.1322 H   0  0  0  0  0  0  0  0  0  0  0  0
   49.8625   34.2093   42.5300 H   0  0  0  0  0  0  0  0  0  0  0  0
   48.8194   35.5201   39.6707 H   0  0  0  0  0  0  0  0  0  0  0  0
   46.4196   32.3674   44.8901 H   0  0  0  0  0  0  0  0  0  0  0  0
   48.2836   33.7391   43.9108 H   0  0  0  0  0  0  0  0  0  0  0  0
   43.6150   34.2665   42.3185 H   0  0  0  0  0  0  0  0  0  0  0  0
   49.6100   35.5613   38.3977 H   0  0  0  0  0  0  0  0  0  0  0  0
   45.0100   32.5290   36.0819 H   0  0  0  0  0  0  0  0  0  0  0  0
   43.0739   31.3220   37.3504 H   0  0  0  0  0  0  0  0  0  0  0  0
   43.3853   31.5197   39.9193 H   0  0  0  0  0  0  0  0  0  0  0  0
  1  2  1  0
  1  6  1  0
  3  1  1  0
  3  2  1  0
  5  4  2  0
  6  5  1  0
  7  6  2  0
  7  8  1  0
  8  9  2  0
  9  4  1  0
 10  3  1  0
 12 11  2  0
 12 10  1  0
 13 12  1  0
 14 15  1  0
 14 12  1  0
 15 19  1  0
 16 17  1  0
 16 15  2  0
 17 18  1  0
 18 19  2  0
  1 20  1  6
  2 21  1  0
  2 22  1  0
  3 23  1  6
  4 24  1  0
  5 25  1  0
  8 26  1  0
 13 27  1  0
 16 28  1  0
 17 29  1  0
 18 30  1  0
M  ISO  8  20  13  21  13  22  13  23  13  24  14  25  14  26  14  27   3
M  ISO  3  28  14  29   9  30  14
M  END
>  <minimizedAffinity>  (1) 
-4.16985798

>  <minimizedRMSD>  (1) 
0.707862318

$$$$
