
     RDKit          3D

 45 48  0  0  1  0  0  0  0  0999 V2000
   48.7050   32.4760   38.5320 O   0  0  0  0  0  0  0  0  0  0  0  0
   48.0180   33.8410   38.5550 P   0  0  2  0  0  0  0  0  0  0  0  0
   49.0150   34.8710   37.6600 O   0  0  0  0  0  0  0  0  0  0  0  0
   47.6880   34.3450   40.0750 O   0  0  0  0  0  0  0  0  0  0  0  0
   48.3090   35.5770   42.0660 C   0  0  1  0  0  0  0  0  0  0  0  0
   49.4480   34.6880   41.8210 C   0  0  0  0  0  0  0  0  0  0  0  0
   48.5520   35.1870   40.6750 C   0  0  1  0  0  0  0  0  0  0  0  0
   46.1410   33.0430   43.8650 C   0  0  0  0  0  0  0  0  0  0  0  0
   47.2520   33.6230   43.2560 C   0  0  0  0  0  0  0  0  0  0  0  0
   47.1320   34.9280   42.7400 C   0  0  0  0  0  0  0  0  0  0  0  0
   45.9440   35.5880   42.8470 N   0  0  0  0  0  0  0  0  0  0  0  0
   44.8780   34.9910   43.4470 C   0  0  0  0  0  0  0  0  0  0  0  0
   44.9780   33.7240   43.9540 N   0  0  0  0  0  0  0  0  0  0  0  0
   46.6100   33.6240   37.6680 O   0  0  0  0  0  0  0  0  0  0  0  0
   45.5640   32.7960   38.0490 C   0  0  0  0  0  0  0  0  0  0  0  0
   45.4600   31.4310   37.8830 C   0  0  0  0  0  0  0  0  0  0  0  0
   44.3600   30.7500   38.3130 C   0  0  0  0  0  0  0  0  0  0  0  0
   43.3290   31.4190   38.9220 C   0  0  0  0  0  0  0  0  0  0  0  0
   43.4680   32.8010   39.0730 C   0  0  0  0  0  0  0  0  0  0  0  0
   44.5600   33.4650   38.6440 N   0  0  0  0  0  0  0  0  0  0  0  0
   42.5790   33.8400   41.1750 C   0  0  1  0  0  0  0  0  0  0  0  0
   42.3260   33.4780   39.7280 C   0  0  1  0  0  0  0  0  0  0  0  0
   41.9780   34.6910   39.1950 O   0  0  0  0  0  0  0  0  0  0  0  0
   40.9760   35.1300   40.0560 C   0  0  0  0  0  0  0  0  0  0  0  0
   41.3060   34.6610   41.4480 C   0  0  2  0  0  0  0  0  0  0  0  0
   42.6410   32.7300   41.9910 O   0  0  0  0  0  0  0  0  0  0  0  0
   41.5140   35.6640   42.3610 O   0  0  0  0  0  0  0  0  0  0  0  0
   49.5535   35.4273   38.2770 H   0  0  0  0  0  0  0  0  0  0  0  0
   48.1894   36.5502   42.5647 H   0  0  0  0  0  0  0  0  0  0  0  0
   50.4768   35.0634   41.9243 H   0  0  0  0  0  0  0  0  0  0  0  0
   49.7755   33.7065   42.1944 H   0  0  0  0  0  0  0  0  0  0  0  0
   48.7233   35.7083   39.7216 H   0  0  0  0  0  0  0  0  0  0  0  0
   46.2115   32.0249   44.2755 H   0  0  0  0  0  0  0  0  0  0  0  0
   48.2020   33.0737   43.1799 H   0  0  0  0  0  0  0  0  0  0  0  0
   43.9244   35.5337   43.5253 H   0  0  0  0  0  0  0  0  0  0  0  0
   46.2789   30.8820   37.3951 H   0  0  0  0  0  0  0  0  0  0  0  0
   44.2991   29.6609   38.1711 H   0  0  0  0  0  0  0  0  0  0  0  0
   42.4317   30.8904   39.2761 H   0  0  0  0  0  0  0  0  0  0  0  0
   43.5334   34.3535   41.3634 H   0  0  0  0  0  0  0  0  0  0  0  0
   41.5450   32.7166   39.5855 H   0  0  0  0  0  0  0  0  0  0  0  0
   40.9246   36.2286   40.0366 H   0  0  0  0  0  0  0  0  0  0  0  0
   40.0031   34.7245   39.7414 H   0  0  0  0  0  0  0  0  0  0  0  0
   40.4815   34.1083   41.9220 H   0  0  0  0  0  0  0  0  0  0  0  0
   42.6250   33.0158   42.9387 H   0  0  0  0  0  0  0  0  0  0  0  0
   41.4379   35.2971   43.2774 H   0  0  0  0  0  0  0  0  0  0  0  0
  2  1  2  0
  2  4  1  0
  3  2  1  0
  4  7  1  0
  5 10  1  0
  6  5  1  0
  7  6  1  0
  7  5  1  0
  8 13  2  0
  9  8  1  0
 10 11  1  0
 10  9  2  0
 11 12  2  0
 12 13  1  0
 14 15  1  0
 14  2  1  0
 15 20  1  0
 16 15  2  0
 16 17  1  0
 17 18  2  0
 18 19  1  0
 20 19  2  0
 21 25  1  0
 21 26  1  0
 22 19  1  0
 22 21  1  0
 23 22  1  0
 23 24  1  0
 24 25  1  0
 25 27  1  0
  3 28  1  0
  5 29  1  6
  6 30  1  0
  6 31  1  0
  7 32  1  6
  8 33  1  0
  9 34  1  0
 12 35  1  0
 16 36  1  0
 17 37  1  0
 18 38  1  0
 21 39  1  6
 22 40  1  1
 24 41  1  0
 24 42  1  0
 25 43  1  1
 26 44  1  0
 27 45  1  0
M  ISO  8  28   3  29  13  30  13  31  13  32  13  33  14  34  14  35  14
M  ISO  8  36  14  37  14  38  14  39  13  40  13  41  13  42  13  43  13
M  ISO  2  44   3  45   3
M  END
>  <minimizedAffinity>  (1) 
-5.7709341

>  <minimizedRMSD>  (1) 
2.36927605

$$$$
