
     RDKit          3D

 41 44  0  0  1  0  0  0  0  0999 V2000
   47.5050   31.5250   39.1310 O   0  0  0  0  0  0  0  0  0  0  0  0
   47.6050   33.0170   38.8170 P   0  0  2  0  0  0  0  0  0  0  0  0
   49.1220   33.2250   38.0980 O   0  0  0  0  0  0  0  0  0  0  0  0
   47.3310   33.9510   40.1310 O   0  0  0  0  0  0  0  0  0  0  0  0
   48.1870   35.4480   41.8290 C   0  0  1  0  0  0  0  0  0  0  0  0
   49.2720   34.4780   41.6250 C   0  0  0  0  0  0  0  0  0  0  0  0
   48.2780   34.8330   40.5060 C   0  0  1  0  0  0  0  0  0  0  0  0
   46.2030   33.4430   44.3610 C   0  0  0  0  0  0  0  0  0  0  0  0
   47.2630   33.8730   43.5690 C   0  0  0  0  0  0  0  0  0  0  0  0
   47.0650   34.9700   42.7090 C   0  0  0  0  0  0  0  0  0  0  0  0
   45.8490   35.5730   42.6790 N   0  0  0  0  0  0  0  0  0  0  0  0
   44.8370   35.1240   43.4680 C   0  0  0  0  0  0  0  0  0  0  0  0
   45.0150   34.0670   44.3020 N   0  0  0  0  0  0  0  0  0  0  0  0
   46.4430   33.2820   37.6320 O   0  0  0  0  0  0  0  0  0  0  0  0
   45.1390   32.8340   37.7050 C   0  0  0  0  0  0  0  0  0  0  0  0
   44.5970   31.6980   37.1310 C   0  0  0  0  0  0  0  0  0  0  0  0
   43.2670   31.3950   37.3030 C   0  0  0  0  0  0  0  0  0  0  0  0
   42.4560   32.2160   38.0450 C   0  0  0  0  0  0  0  0  0  0  0  0
   43.0410   33.3540   38.6060 C   0  0  0  0  0  0  0  0  0  0  0  0
   44.3470   33.6470   38.4360 N   0  0  0  0  0  0  0  0  0  0  0  0
   42.1720   34.2210   39.3870 C   0  0  0  0  0  0  0  0  0  0  0  0
   40.9010   34.5380   39.0130 C   0  0  0  0  0  0  0  0  0  0  0  0
   40.0330   35.3620   39.7230 C   0  0  0  0  0  0  0  0  0  0  0  0
   40.4990   35.9080   40.9130 C   0  0  0  0  0  0  0  0  0  0  0  0
   41.8060   35.5690   41.2760 C   0  0  0  0  0  0  0  0  0  0  0  0
   42.5770   34.7660   40.5320 N   0  0  0  0  0  0  0  0  0  0  0  0
   49.8110   33.3195   38.8026 H   0  0  0  0  0  0  0  0  0  0  0  0
   48.1463   36.4925   42.1716 H   0  0  0  0  0  0  0  0  0  0  0  0
   50.3167   34.8175   41.5679 H   0  0  0  0  0  0  0  0  0  0  0  0
   49.6070   33.5538   42.1186 H   0  0  0  0  0  0  0  0  0  0  0  0
   48.3691   35.1888   39.4691 H   0  0  0  0  0  0  0  0  0  0  0  0
   46.3386   32.5875   45.0391 H   0  0  0  0  0  0  0  0  0  0  0  0
   48.2378   33.3652   43.6139 H   0  0  0  0  0  0  0  0  0  0  0  0
   43.8584   35.6248   43.4303 H   0  0  0  0  0  0  0  0  0  0  0  0
   45.2353   31.0317   36.5321 H   0  0  0  0  0  0  0  0  0  0  0  0
   42.8500   30.4874   36.8422 H   0  0  0  0  0  0  0  0  0  0  0  0
   41.3900   31.9879   38.1920 H   0  0  0  0  0  0  0  0  0  0  0  0
   40.5300   34.1068   38.0715 H   0  0  0  0  0  0  0  0  0  0  0  0
   39.0175   35.5730   39.3566 H   0  0  0  0  0  0  0  0  0  0  0  0
   39.8756   36.5687   41.5334 H   0  0  0  0  0  0  0  0  0  0  0  0
   42.2174   35.9785   42.2104 H   0  0  0  0  0  0  0  0  0  0  0  0
  2  1  2  0
  2  4  1  0
  3  2  1  0
  4  7  1  0
  5 10  1  0
  6  5  1  0
  7  6  1  0
  7  5  1  0
  9  8  2  0
 10  9  1  0
 11 10  2  0
 11 12  1  0
 12 13  2  0
 13  8  1  0
 14 15  1  0
 14  2  1  0
 15 20  2  0
 16 17  2  0
 16 15  1  0
 17 18  1  0
 18 19  2  0
 19 21  1  0
 20 19  1  0
 21 26  1  0
 22 21  2  0
 22 23  1  0
 23 24  2  0
 24 25  1  0
 26 25  2  0
  3 27  1  0
  5 28  1  6
  6 29  1  0
  6 30  1  0
  7 31  1  6
  8 32  1  0
  9 33  1  0
 12 34  1  0
 16 35  1  0
 17 36  1  0
 18 37  1  0
 22 38  1  0
 23 39  1  0
 24 40  1  0
 25 41  1  0
M  ISO  8  27   3  28  13  29  13  30  13  31  13  32  14  33  14  34  14
M  ISO  7  35  14  36  14  37  14  38  14  39  14  40  14  41  14
M  END
>  <minimizedAffinity>  (1) 
-5.67232227

>  <minimizedRMSD>  (1) 
1.9945724

$$$$
