
     RDKit          3D

 39 42  0  0  1  0  0  0  0  0999 V2000
   48.9300   32.5060   38.4240 O   0  0  0  0  0  0  0  0  0  0  0  0
   48.1060   33.7910   38.5150 P   0  0  2  0  0  0  0  0  0  0  0  0
   48.9850   34.9440   37.6330 O   0  0  0  0  0  0  0  0  0  0  0  0
   47.7740   34.2160   40.0570 O   0  0  0  0  0  0  0  0  0  0  0  0
   48.2190   35.5550   42.0210 C   0  0  1  0  0  0  0  0  0  0  0  0
   49.4380   34.7530   41.8470 C   0  0  0  0  0  0  0  0  0  0  0  0
   48.5440   35.1450   40.6570 C   0  0  1  0  0  0  0  0  0  0  0  0
   46.2620   33.0390   44.0700 C   0  0  0  0  0  0  0  0  0  0  0  0
   47.3360   33.6990   43.4810 C   0  0  0  0  0  0  0  0  0  0  0  0
   47.0800   34.8300   42.6810 C   0  0  0  0  0  0  0  0  0  0  0  0
   45.7960   35.2440   42.5100 N   0  0  0  0  0  0  0  0  0  0  0  0
   44.7660   34.5830   43.0950 C   0  0  0  0  0  0  0  0  0  0  0  0
   45.0000   33.4820   43.8740 N   0  0  0  0  0  0  0  0  0  0  0  0
   46.7000   33.4670   37.6570 O   0  0  0  0  0  0  0  0  0  0  0  0
   45.6050   32.7990   38.1870 C   0  0  0  0  0  0  0  0  0  0  0  0
   45.5300   31.5090   38.6640 C   0  0  0  0  0  0  0  0  0  0  0  0
   44.3780   30.9890   39.1560 C   0  0  0  0  0  0  0  0  0  0  0  0
   43.2420   31.7530   39.1890 C   0  0  0  0  0  0  0  0  0  0  0  0
   43.3330   33.0540   38.7030 C   0  0  0  0  0  0  0  0  0  0  0  0
   44.4990   33.5580   38.2130 N   0  0  0  0  0  0  0  0  0  0  0  0
   42.1350   33.9230   38.7150 C   0  0  0  0  0  0  0  0  0  0  0  0
   40.9120   33.5890   38.2040 C   0  0  0  0  0  0  0  0  0  0  0  0
   40.0780   34.6660   38.4150 C   0  0  0  0  0  0  0  0  0  0  0  0
   40.8490   35.6180   39.0550 C   0  0  0  0  0  0  0  0  0  0  0  0
   42.0400   35.1460   39.2110 O   0  0  0  0  0  0  0  0  0  0  0  0
   49.4500   35.5540   38.2589 H   0  0  0  0  0  0  0  0  0  0  0  0
   47.9996   36.5312   42.4781 H   0  0  0  0  0  0  0  0  0  0  0  0
   50.4288   35.2140   41.9728 H   0  0  0  0  0  0  0  0  0  0  0  0
   49.8306   33.8135   42.2632 H   0  0  0  0  0  0  0  0  0  0  0  0
   48.7066   35.6514   39.6941 H   0  0  0  0  0  0  0  0  0  0  0  0
   46.4405   32.1534   44.6975 H   0  0  0  0  0  0  0  0  0  0  0  0
   48.3655   33.3444   43.6371 H   0  0  0  0  0  0  0  0  0  0  0  0
   43.7349   34.9344   42.9422 H   0  0  0  0  0  0  0  0  0  0  0  0
   46.4328   30.8808   38.6453 H   0  0  0  0  0  0  0  0  0  0  0  0
   44.3562   29.9542   39.5283 H   0  0  0  0  0  0  0  0  0  0  0  0
   42.2957   31.3545   39.5837 H   0  0  0  0  0  0  0  0  0  0  0  0
   40.6440   32.6400   37.7165 H   0  0  0  0  0  0  0  0  0  0  0  0
   39.0182   34.7503   38.1325 H   0  0  0  0  0  0  0  0  0  0  0  0
   40.5050   36.6118   39.3775 H   0  0  0  0  0  0  0  0  0  0  0  0
  2  1  2  0
  2  4  1  0
  3  2  1  0
  4  7  1  0
  5 10  1  0
  6  5  1  0
  7  6  1  0
  7  5  1  0
  9  8  2  0
 10  9  1  0
 11 10  2  0
 11 12  1  0
 12 13  2  0
 13  8  1  0
 14 15  1  0
 14  2  1  0
 15 20  1  0
 15 16  2  0
 16 17  1  0
 17 18  2  0
 19 21  1  0
 19 18  1  0
 20 19  2  0
 21 25  1  0
 22 23  1  0
 22 21  2  0
 23 24  2  0
 24 25  1  0
  3 26  1  0
  5 27  1  6
  6 28  1  0
  6 29  1  0
  7 30  1  6
  8 31  1  0
  9 32  1  0
 12 33  1  0
 16 34  1  0
 17 35  1  0
 18 36  1  0
 22 37  1  0
 23 38  1  0
 24 39  1  0
M  ISO  8  26   3  27  13  28  13  29  13  30  13  31  14  32  14  33  14
M  ISO  6  34  14  35  14  36  14  37  14  38  14  39  14
M  END
>  <minimizedAffinity>  (1) 
-5.3241024

>  <minimizedRMSD>  (1) 
1.88275492

$$$$
