
     RDKit          3D

 38 41  0  0  1  0  0  0  0  0999 V2000
   48.5670   32.3460   38.1170 O   0  0  0  0  0  0  0  0  0  0  0  0
   48.0330   33.7630   38.3160 P   0  0  2  0  0  0  0  0  0  0  0  0
   49.1600   34.7800   37.5630 O   0  0  0  0  0  0  0  0  0  0  0  0
   47.7440   34.1070   39.8880 O   0  0  0  0  0  0  0  0  0  0  0  0
   48.1250   35.4910   41.8400 C   0  0  1  0  0  0  0  0  0  0  0  0
   49.3450   34.6800   41.7270 C   0  0  0  0  0  0  0  0  0  0  0  0
   48.4990   35.0380   40.4940 C   0  0  1  0  0  0  0  0  0  0  0  0
   46.0720   33.0980   43.9430 C   0  0  0  0  0  0  0  0  0  0  0  0
   47.1700   33.7410   43.3800 C   0  0  0  0  0  0  0  0  0  0  0  0
   46.9500   34.7940   42.4690 C   0  0  0  0  0  0  0  0  0  0  0  0
   45.6810   35.1570   42.1620 N   0  0  0  0  0  0  0  0  0  0  0  0
   44.6240   34.5090   42.7280 C   0  0  0  0  0  0  0  0  0  0  0  0
   44.8210   33.4830   43.6170 N   0  0  0  0  0  0  0  0  0  0  0  0
   46.6190   33.8150   37.4110 O   0  0  0  0  0  0  0  0  0  0  0  0
   45.5440   32.9660   37.5910 C   0  0  0  0  0  0  0  0  0  0  0  0
   45.2520   31.8010   36.8940 C   0  0  0  0  0  0  0  0  0  0  0  0
   44.1330   31.0650   37.1990 C   0  0  0  0  0  0  0  0  0  0  0  0
   43.2780   31.4700   38.2040 C   0  0  0  0  0  0  0  0  0  0  0  0
   43.6170   32.6480   38.8740 C   0  0  0  0  0  0  0  0  0  0  0  0
   44.7260   33.3630   38.5610 N   0  0  0  0  0  0  0  0  0  0  0  0
   42.6840   33.0350   39.9270 C   0  0  0  0  0  0  0  0  0  0  0  0
   42.0510   34.2360   40.0080 N   0  0  0  0  0  0  0  0  0  0  0  0
   41.2700   34.2440   41.1040 C   0  0  0  0  0  0  0  0  0  0  0  0
   41.4080   33.0410   41.7230 N   0  0  0  0  0  0  0  0  0  0  0  0
   42.2590   32.3380   40.9970 N   0  0  0  0  0  0  0  0  0  0  0  0
   49.6874   35.2559   38.2525 H   0  0  0  0  0  0  0  0  0  0  0  0
   47.8985   36.4783   42.2690 H   0  0  0  0  0  0  0  0  0  0  0  0
   50.3328   35.1411   41.8744 H   0  0  0  0  0  0  0  0  0  0  0  0
   49.7174   33.7509   42.1831 H   0  0  0  0  0  0  0  0  0  0  0  0
   48.7034   35.5115   39.5224 H   0  0  0  0  0  0  0  0  0  0  0  0
   46.2245   32.2739   44.6555 H   0  0  0  0  0  0  0  0  0  0  0  0
   48.1930   33.4327   43.6415 H   0  0  0  0  0  0  0  0  0  0  0  0
   43.5991   34.8128   42.4685 H   0  0  0  0  0  0  0  0  0  0  0  0
   45.9231   31.4644   36.0901 H   0  0  0  0  0  0  0  0  0  0  0  0
   43.9163   30.1445   36.6372 H   0  0  0  0  0  0  0  0  0  0  0  0
   42.3768   30.8952   38.4638 H   0  0  0  0  0  0  0  0  0  0  0  0
   40.6332   35.0758   41.4395 H   0  0  0  0  0  0  0  0  0  0  0  0
   40.9403   32.7372   42.5889 H   0  0  0  0  0  0  0  0  0  0  0  0
  2  1  2  0
  2  4  1  0
  3  2  1  0
  4  7  1  0
  5 10  1  0
  6  5  1  0
  7  6  1  0
  7  5  1  0
  9  8  2  0
 10  9  1  0
 11 10  2  0
 11 12  1  0
 12 13  2  0
 13  8  1  0
 14 15  1  0
 14  2  1  0
 15 20  2  0
 16 17  2  0
 16 15  1  0
 17 18  1  0
 18 19  2  0
 19 21  1  0
 20 19  1  0
 21 22  1  0
 21 25  2  0
 22 23  2  0
 23 24  1  0
 25 24  1  0
  3 26  1  0
  5 27  1  6
  6 28  1  0
  6 29  1  0
  7 30  1  6
  8 31  1  0
  9 32  1  0
 12 33  1  0
 16 34  1  0
 17 35  1  0
 18 36  1  0
 23 37  1  0
 24 38  1  0
M  ISO  8  26   3  27  13  28  13  29  13  30  13  31  14  32  14  33  14
M  ISO  5  34  14  35  14  36  14  37  14  38   9
M  END
>  <minimizedAffinity>  (1) 
-4.98880672

>  <minimizedRMSD>  (1) 
1.05682182

$$$$
