
     RDKit          3D

 38 40  0  0  1  0  0  0  0  0999 V2000
   47.7070   34.1770   39.7930 O   0  0  0  0  0  0  0  0  0  0  0  0
   48.0840   35.4540   41.8130 C   0  0  1  0  0  0  0  0  0  0  0  0
   49.3050   34.6530   41.6580 C   0  0  0  0  0  0  0  0  0  0  0  0
   48.4550   35.0860   40.4490 C   0  0  1  0  0  0  0  0  0  0  0  0
   46.0360   32.9380   43.7730 C   0  0  0  0  0  0  0  0  0  0  0  0
   47.1330   33.6130   43.2470 C   0  0  0  0  0  0  0  0  0  0  0  0
   46.9150   34.7200   42.4050 C   0  0  0  0  0  0  0  0  0  0  0  0
   45.6390   35.0940   42.1310 N   0  0  0  0  0  0  0  0  0  0  0  0
   44.5840   34.4240   42.6530 C   0  0  0  0  0  0  0  0  0  0  0  0
   44.7810   33.3470   43.4730 N   0  0  0  0  0  0  0  0  0  0  0  0
   48.5650   32.3750   38.0870 O   0  0  0  0  0  0  0  0  0  0  0  0
   48.0880   33.8190   38.2440 P   0  0  2  0  0  0  0  0  0  0  0  0
   49.3220   34.7720   37.5740 O   0  0  0  0  0  0  0  0  0  0  0  0
   46.7550   33.9450   37.2350 O   0  0  0  0  0  0  0  0  0  0  0  0
   45.7340   33.0110   37.1790 C   0  0  0  0  0  0  0  0  0  0  0  0
   45.6390   31.8740   36.4020 C   0  0  0  0  0  0  0  0  0  0  0  0
   44.5600   31.0450   36.4590 C   0  0  0  0  0  0  0  0  0  0  0  0
   43.5180   31.3310   37.3100 C   0  0  0  0  0  0  0  0  0  0  0  0
   43.6440   32.4910   38.0820 C   0  0  0  0  0  0  0  0  0  0  0  0
   44.7240   33.2950   38.0080 N   0  0  0  0  0  0  0  0  0  0  0  0
   42.5130   32.8220   39.0210 C   0  0  0  0  0  0  0  0  0  0  0  0
   41.2420   33.0770   38.2870 C   0  0  0  0  0  0  0  0  0  0  0  0
   47.8544   36.4155   42.2954 H   0  0  0  0  0  0  0  0  0  0  0  0
   50.2921   35.1056   41.8335 H   0  0  0  0  0  0  0  0  0  0  0  0
   49.6794   33.6994   42.0585 H   0  0  0  0  0  0  0  0  0  0  0  0
   48.6511   35.6228   39.5091 H   0  0  0  0  0  0  0  0  0  0  0  0
   46.1886   32.0714   44.4331 H   0  0  0  0  0  0  0  0  0  0  0  0
   48.1559   33.2864   43.4856 H   0  0  0  0  0  0  0  0  0  0  0  0
   43.5602   34.7486   42.4156 H   0  0  0  0  0  0  0  0  0  0  0  0
   49.8536   35.1826   38.3013 H   0  0  0  0  0  0  0  0  0  0  0  0
   46.4619   31.6295   35.7142 H   0  0  0  0  0  0  0  0  0  0  0  0
   44.5219   30.1471   35.8247 H   0  0  0  0  0  0  0  0  0  0  0  0
   42.6325   30.6821   37.3799 H   0  0  0  0  0  0  0  0  0  0  0  0
   42.3632   31.9776   39.7098 H   0  0  0  0  0  0  0  0  0  0  0  0
   42.7806   33.7369   39.5699 H   0  0  0  0  0  0  0  0  0  0  0  0
   40.4282   33.2403   39.0088 H   0  0  0  0  0  0  0  0  0  0  0  0
   41.3563   33.9701   37.6551 H   0  0  0  0  0  0  0  0  0  0  0  0
   41.0030   32.2089   37.6551 H   0  0  0  0  0  0  0  0  0  0  0  0
  1  4  1  0
  2  7  1  0
  3  2  1  0
  4  3  1  0
  4  2  1  0
  6  5  2  0
  7  6  1  0
  8  7  2  0
  8  9  1  0
  9 10  2  0
 10  5  1  0
 12 11  2  0
 12  1  1  0
 13 12  1  0
 14 12  1  0
 15 14  1  0
 15 20  2  0
 16 17  2  0
 16 15  1  0
 17 18  1  0
 18 19  2  0
 19 21  1  0
 20 19  1  0
 22 21  1  0
  2 23  1  6
  3 24  1  0
  3 25  1  0
  4 26  1  6
  5 27  1  0
  6 28  1  0
  9 29  1  0
 13 30  1  0
 16 31  1  0
 17 32  1  0
 18 33  1  0
 21 34  1  0
 21 35  1  0
 22 36  1  0
 22 37  1  0
 22 38  1  0
M  ISO  8  23  13  24  13  25  13  26  13  27  14  28  14  29  14  30   3
M  ISO  8  31  14  32  14  33  14  34   8  35   8  36   8  37   8  38   8
M  END
>  <minimizedAffinity>  (1) 
-4.48219681

>  <minimizedRMSD>  (1) 
0.571003318

$$$$
