
     RDKit          3D

 33 35  0  0  1  0  0  0  0  0999 V2000
   47.7610   34.1000   39.7720 O   0  0  0  0  0  0  0  0  0  0  0  0
   48.0370   35.4350   41.7710 C   0  0  1  0  0  0  0  0  0  0  0  0
   49.2910   34.6780   41.6640 C   0  0  0  0  0  0  0  0  0  0  0  0
   48.4570   35.0530   40.4240 C   0  0  1  0  0  0  0  0  0  0  0  0
   46.0360   32.9300   43.7910 C   0  0  0  0  0  0  0  0  0  0  0  0
   47.1200   33.6340   43.2750 C   0  0  0  0  0  0  0  0  0  0  0  0
   46.8810   34.6710   42.3520 C   0  0  0  0  0  0  0  0  0  0  0  0
   45.6050   34.9550   41.9910 N   0  0  0  0  0  0  0  0  0  0  0  0
   44.5650   34.2510   42.5120 C   0  0  0  0  0  0  0  0  0  0  0  0
   44.7810   33.2430   43.4080 N   0  0  0  0  0  0  0  0  0  0  0  0
   48.5790   32.3630   37.9770 O   0  0  0  0  0  0  0  0  0  0  0  0
   48.1140   33.8010   38.2060 P   0  0  2  0  0  0  0  0  0  0  0  0
   49.3480   34.7670   37.5580 O   0  0  0  0  0  0  0  0  0  0  0  0
   46.7630   33.9780   37.2250 O   0  0  0  0  0  0  0  0  0  0  0  0
   45.7140   33.0730   37.1800 C   0  0  0  0  0  0  0  0  0  0  0  0
   45.4980   32.0600   36.2600 C   0  0  0  0  0  0  0  0  0  0  0  0
   44.4150   31.2400   36.3380 C   0  0  0  0  0  0  0  0  0  0  0  0
   43.5020   31.4090   37.3530 C   0  0  0  0  0  0  0  0  0  0  0  0
   43.7510   32.4440   38.2650 C   0  0  0  0  0  0  0  0  0  0  0  0
   44.8320   33.2420   38.1650 N   0  0  0  0  0  0  0  0  0  0  0  0
   42.5370   32.6430   39.5850 S   0  0  0  0  0  0  0  0  0  0  0  0
   47.7587   36.3971   42.2259 H   0  0  0  0  0  0  0  0  0  0  0  0
   50.2555   35.1714   41.8545 H   0  0  0  0  0  0  0  0  0  0  0  0
   49.6903   33.7478   42.0945 H   0  0  0  0  0  0  0  0  0  0  0  0
   48.6566   35.5775   39.4779 H   0  0  0  0  0  0  0  0  0  0  0  0
   46.2029   32.1167   44.5126 H   0  0  0  0  0  0  0  0  0  0  0  0
   48.1463   33.3848   43.5828 H   0  0  0  0  0  0  0  0  0  0  0  0
   43.5367   34.4963   42.2081 H   0  0  0  0  0  0  0  0  0  0  0  0
   49.8690   35.1748   38.2945 H   0  0  0  0  0  0  0  0  0  0  0  0
   46.2216   31.9146   35.4444 H   0  0  0  0  0  0  0  0  0  0  0  0
   44.2700   30.4447   35.5920 H   0  0  0  0  0  0  0  0  0  0  0  0
   42.6173   30.7618   37.4447 H   0  0  0  0  0  0  0  0  0  0  0  0
   43.1622   32.5405   40.7997 H   0  0  0  0  0  0  0  0  0  0  0  0
  1  4  1  0
  2  7  1  0
  3  2  1  0
  4  3  1  0
  4  2  1  0
  6  5  2  0
  7  6  1  0
  8  7  2  0
  8  9  1  0
  9 10  2  0
 10  5  1  0
 12 11  2  0
 12  1  1  0
 13 12  1  0
 14 12  1  0
 15 14  1  0
 15 20  2  0
 16 17  2  0
 16 15  1  0
 17 18  1  0
 18 19  2  0
 19 21  1  0
 20 19  1  0
  2 22  1  6
  3 23  1  0
  3 24  1  0
  4 25  1  6
  5 26  1  0
  6 27  1  0
  9 28  1  0
 13 29  1  0
 16 30  1  0
 17 31  1  0
 18 32  1  0
 21 33  1  0
M  ISO  8  22  13  23  13  24  13  25  13  26  14  27  14  28  14  29   3
M  ISO  4  30  14  31  14  32  14  33  11
M  END
>  <minimizedAffinity>  (1) 
-4.42586756

>  <minimizedRMSD>  (1) 
0.333822161

$$$$
