
     RDKit          3D

 26 28  0  0  0  0  0  0  0  0999 V2000
   46.2610   33.7200   40.2890 C   0  0  0  0  0  0  0  0  0  0  0  0
   47.3710   34.4790   40.6150 C   0  0  0  0  0  0  0  0  0  0  0  0
   48.3530   34.6460   39.6540 C   0  0  0  0  0  0  0  0  0  0  0  0
   48.1420   34.0350   38.4360 C   0  0  0  0  0  0  0  0  0  0  0  0
   48.9550   34.0550   37.3470 N   0  0  0  0  0  0  0  0  0  0  0  0
   48.3900   33.3300   36.3420 C   0  0  0  0  0  0  0  0  0  0  0  0
   47.1690   32.8280   36.8060 C   0  0  0  0  0  0  0  0  0  0  0  0
   47.0430   33.2800   38.1030 C   0  0  0  0  0  0  0  0  0  0  0  0
   46.0480   33.1050   39.0640 C   0  0  0  0  0  0  0  0  0  0  0  0
   47.5120   35.0940   41.9330 C   0  0  0  0  0  0  0  0  0  0  0  0
   48.5600   35.8180   41.9910 O   0  0  0  0  0  0  0  0  0  0  0  0
   44.6780   35.7650   44.2250 C   0  0  0  0  0  0  0  0  0  0  0  0
   45.5860   35.8580   43.1640 C   0  0  0  0  0  0  0  0  0  0  0  0
   46.6220   34.9360   43.0420 C   0  0  0  0  0  0  0  0  0  0  0  0
   46.6990   33.9680   43.9900 N   0  0  0  0  0  0  0  0  0  0  0  0
   45.8060   33.9010   45.0100 C   0  0  0  0  0  0  0  0  0  0  0  0
   44.7960   34.7910   45.1370 N   0  0  0  0  0  0  0  0  0  0  0  0
   45.4875   33.5946   41.0610 H   0  0  0  0  0  0  0  0  0  0  0  0
   49.2586   35.2380   39.8525 H   0  0  0  0  0  0  0  0  0  0  0  0
   49.8599   34.5437   37.2904 H   0  0  0  0  0  0  0  0  0  0  0  0
   48.8181   33.1677   35.3418 H   0  0  0  0  0  0  0  0  0  0  0  0
   46.4559   32.2014   36.2503 H   0  0  0  0  0  0  0  0  0  0  0  0
   45.1439   32.5119   38.8619 H   0  0  0  0  0  0  0  0  0  0  0  0
   43.8615   36.4971   44.3106 H   0  0  0  0  0  0  0  0  0  0  0  0
   45.4805   36.6638   42.4226 H   0  0  0  0  0  0  0  0  0  0  0  0
   45.9070   33.0986   45.7557 H   0  0  0  0  0  0  0  0  0  0  0  0
  1  2  2  0
  2 10  1  0
  3  2  1  0
  4  3  2  0
  5  4  1  0
  6  7  2  0
  6  5  1  0
  7  8  1  0
  8  4  1  0
  8  9  2  0
  9  1  1  0
 10 11  2  0
 10 14  1  0
 12 17  2  0
 13 12  1  0
 14 13  2  0
 14 15  1  0
 15 16  2  0
 16 17  1  0
  1 18  1  0
  3 19  1  0
  5 20  1  0
  6 21  1  0
  7 22  1  0
  9 23  1  0
 12 24  1  0
 13 25  1  0
 16 26  1  0
M  ISO  8  18  14  19  14  20   9  21  14  22  14  23  14  24  14  25  14
M  ISO  1  26  14
M  END
>  <minimizedAffinity>  (1) 
-5.26347065

>  <minimizedRMSD>  (1) 
1.09299314

$$$$
