
     RDKit          3D

 50 53  0  0  1  0  0  0  0  0999 V2000
   49.5000   31.9370   41.7400 C   0  0  0  0  0  0  0  0  0  0  0  0
   50.8900   31.8950   41.9560 C   0  0  0  0  0  0  0  0  0  0  0  0
   51.7760   31.7250   40.8870 C   0  0  0  0  0  0  0  0  0  0  0  0
   51.2050   31.6090   39.6680 N   0  0  0  0  0  0  0  0  0  0  0  0
   49.8670   31.6500   39.4740 C   0  0  0  0  0  0  0  0  0  0  0  0
   49.0440   31.8110   40.4890 N   0  0  0  0  0  0  0  0  0  0  0  0
   49.2850   31.5290   38.0880 C   0  0  2  0  0  0  0  0  0  0  0  0
   50.0960   31.6690   36.8880 C   0  0  0  0  0  0  0  0  0  0  0  0
   49.1930   32.8030   37.2430 C   0  0  1  0  0  0  0  0  0  0  0  0
   47.8910   33.0120   36.5580 C   0  0  0  0  0  0  0  0  0  0  0  0
   47.6000   31.8520   35.6030 C   0  0  0  0  0  0  0  0  0  0  0  0
   46.2880   32.1520   34.9100 C   0  0  0  0  0  0  0  0  0  0  0  0
   45.2700   32.1070   35.8730 O   0  0  0  0  0  0  0  0  0  0  0  0
   45.4630   33.2480   36.6820 C   0  0  0  0  0  0  0  0  0  0  0  0
   46.7150   33.0570   37.5120 C   0  0  0  0  0  0  0  0  0  0  0  0
   48.6330   32.1220   42.8990 C   0  0  0  0  0  0  0  0  0  0  0  0
   47.9980   33.2900   43.0130 C   0  0  0  0  0  0  0  0  0  0  0  0
   47.0960   33.5770   44.1500 C   0  0  0  0  0  0  0  0  0  0  0  0
   44.7450   36.2210   43.4390 C   0  0  1  0  0  0  0  0  0  0  0  0
   45.9160   35.3950   42.8930 C   0  0  0  0  0  0  0  0  0  0  0  0
   45.7620   34.1510   43.6880 C   0  0  2  0  0  0  0  0  0  0  0  0
   44.9280   34.3990   44.7480 O   0  0  0  0  0  0  0  0  0  0  0  0
   44.7080   35.7380   44.8680 C   0  0  0  0  0  0  0  0  0  0  0  0
   45.0240   37.5710   43.3350 O   0  0  0  0  0  0  0  0  0  0  0  0
   51.2845   31.9971   42.9777 H   0  0  0  0  0  0  0  0  0  0  0  0
   52.8661   31.6882   41.0295 H   0  0  0  0  0  0  0  0  0  0  0  0
   48.5990   30.7459   38.4432 H   0  0  0  0  0  0  0  0  0  0  0  0
   49.8709   31.0517   36.0058 H   0  0  0  0  0  0  0  0  0  0  0  0
   51.1736   31.5882   36.6826 H   0  0  0  0  0  0  0  0  0  0  0  0
   49.3506   33.8861   37.3528 H   0  0  0  0  0  0  0  0  0  0  0  0
   47.9912   33.9770   36.0397 H   0  0  0  0  0  0  0  0  0  0  0  0
   48.4063   31.7660   34.8598 H   0  0  0  0  0  0  0  0  0  0  0  0
   47.5389   30.9021   36.1543 H   0  0  0  0  0  0  0  0  0  0  0  0
   46.3267   33.1523   34.4540 H   0  0  0  0  0  0  0  0  0  0  0  0
   46.0970   31.4142   34.1168 H   0  0  0  0  0  0  0  0  0  0  0  0
   45.5751   34.1375   36.0446 H   0  0  0  0  0  0  0  0  0  0  0  0
   44.5953   33.3856   37.3440 H   0  0  0  0  0  0  0  0  0  0  0  0
   46.6520   32.1143   38.0753 H   0  0  0  0  0  0  0  0  0  0  0  0
   46.8317   33.8800   38.2324 H   0  0  0  0  0  0  0  0  0  0  0  0
   48.5076   31.3285   43.6504 H   0  0  0  0  0  0  0  0  0  0  0  0
   48.1491   34.0595   42.2416 H   0  0  0  0  0  0  0  0  0  0  0  0
   46.9095   32.6429   44.7002 H   0  0  0  0  0  0  0  0  0  0  0  0
   47.5845   34.3252   44.7915 H   0  0  0  0  0  0  0  0  0  0  0  0
   43.7862   36.1010   42.9134 H   0  0  0  0  0  0  0  0  0  0  0  0
   45.8105   35.2038   41.8149 H   0  0  0  0  0  0  0  0  0  0  0  0
   46.9000   35.8784   42.9834 H   0  0  0  0  0  0  0  0  0  0  0  0
   45.3174   33.3812   43.0402 H   0  0  0  0  0  0  0  0  0  0  0  0
   45.4975   36.2157   45.4667 H   0  0  0  0  0  0  0  0  0  0  0  0
   43.7644   35.9766   45.3805 H   0  0  0  0  0  0  0  0  0  0  0  0
   45.1048   37.9620   44.2409 H   0  0  0  0  0  0  0  0  0  0  0  0
  1  2  2  0
  1 16  1  0
  3  2  1  0
  4  3  2  0
  5  4  1  0
  5  6  2  0
  6  1  1  0
  7  5  1  0
  8  9  1  0
  8  7  1  0
  9  7  1  0
 10  9  1  0
 10 15  1  0
 11 10  1  0
 12 11  1  0
 12 13  1  0
 13 14  1  0
 14 15  1  0
 16 17  2  0
 17 18  1  0
 19 23  1  0
 20 19  1  0
 20 21  1  0
 21 18  1  0
 21 22  1  0
 22 23  1  0
 24 19  1  0
  2 25  1  0
  3 26  1  0
  7 27  1  1
  8 28  1  0
  8 29  1  0
  9 30  1  1
 10 31  1  0
 11 32  1  0
 11 33  1  0
 12 34  1  0
 12 35  1  0
 14 36  1  0
 14 37  1  0
 15 38  1  0
 15 39  1  0
 16 40  1  0
 17 41  1  0
 18 42  1  0
 18 43  1  0
 19 44  1  6
 20 45  1  0
 20 46  1  0
 21 47  1  6
 23 48  1  0
 23 49  1  0
 24 50  1  0
M  ISO  8  25  14  26  14  27  13  28  13  29  13  30  13  31  13  32  13
M  ISO  8  33  13  34  13  35  13  36  13  37  13  38  13  39  13  42   8
M  ISO  8  43   8  44  13  45  13  46  13  47  13  48  13  49  13  50   3
M  END
>  <minimizedAffinity>  (1) 
-5.19608259

>  <minimizedRMSD>  (1) 
0.15279682

$$$$
