
     RDKit          3D

 19 20  0  0  0  0  0  0  0  0999 V2000
   44.6000   35.8670   44.3450 C   0  0  0  0  0  0  0  0  0  0  0  0
   45.4360   35.8770   43.2270 C   0  0  0  0  0  0  0  0  0  0  0  0
   46.4250   34.9120   43.1150 C   0  0  0  0  0  0  0  0  0  0  0  0
   46.5420   33.9890   44.1050 N   0  0  0  0  0  0  0  0  0  0  0  0
   45.7160   33.9990   45.1850 C   0  0  0  0  0  0  0  0  0  0  0  0
   44.7460   34.9400   45.3010 N   0  0  0  0  0  0  0  0  0  0  0  0
   47.2490   34.9870   41.9320 C   0  0  0  0  0  0  0  0  0  0  0  0
   48.3070   35.6780   41.8480 O   0  0  0  0  0  0  0  0  0  0  0  0
   46.8780   34.2190   40.6990 C   0  0  0  0  0  0  0  0  0  0  0  0
   47.8170   34.1290   39.5690 C   0  0  0  0  0  0  0  0  0  0  0  0
   47.7210   32.9790   40.5080 C   0  0  0  0  0  0  0  0  0  0  0  0
   43.8125   36.6289   44.4420 H   0  0  0  0  0  0  0  0  0  0  0  0
   45.3116   36.6407   42.4451 H   0  0  0  0  0  0  0  0  0  0  0  0
   45.8353   33.2383   45.9705 H   0  0  0  0  0  0  0  0  0  0  0  0
   45.8136   34.4914   40.7518 H   0  0  0  0  0  0  0  0  0  0  0  0
   48.7228   34.7530   39.5607 H   0  0  0  0  0  0  0  0  0  0  0  0
   47.7222   34.2422   38.4790 H   0  0  0  0  0  0  0  0  0  0  0  0
   47.2544   32.0372   40.1836 H   0  0  0  0  0  0  0  0  0  0  0  0
   48.4302   32.4091   41.1262 H   0  0  0  0  0  0  0  0  0  0  0  0
  1  6  2  0
  2  1  1  0
  3  2  2  0
  3  4  1  0
  4  5  2  0
  5  6  1  0
  7  3  1  0
  8  7  2  0
  9  7  1  0
 10 11  1  0
 10  9  1  0
 11  9  1  0
  1 12  1  0
  2 13  1  0
  5 14  1  0
  9 15  1  0
 10 16  1  0
 10 17  1  0
 11 18  1  0
 11 19  1  0
M  ISO  8  12  14  13  14  14  14  15  13  16  13  17  13  18  13  19  13
M  END
>  <minimizedAffinity>  (1) 
-3.77483606

>  <minimizedRMSD>  (1) 
0.459880054

$$$$
