
     RDKit          3D

 14 14  0  0  0  0  0  0  0  0999 V2000
   44.5510   36.0120   44.5160 C   0  0  0  0  0  0  0  0  0  0  0  0
   45.2940   35.9660   43.3070 C   0  0  0  0  0  0  0  0  0  0  0  0
   46.1870   34.9170   43.1680 C   0  0  0  0  0  0  0  0  0  0  0  0
   46.3280   33.9960   44.1480 N   0  0  0  0  0  0  0  0  0  0  0  0
   45.5950   34.0710   45.3000 C   0  0  0  0  0  0  0  0  0  0  0  0
   44.6970   35.0850   45.4910 N   0  0  0  0  0  0  0  0  0  0  0  0
   46.9200   34.8850   41.9430 C   0  0  0  0  0  0  0  0  0  0  0  0
   48.0580   35.3630   41.7550 O   0  0  0  0  0  0  0  0  0  0  0  0
   46.1760   34.2210   40.9210 N   0  0  0  0  0  0  0  0  0  0  0  0
   43.8311   36.8302   44.6654 H   0  0  0  0  0  0  0  0  0  0  0  0
   45.1667   36.7249   42.5210 H   0  0  0  0  0  0  0  0  0  0  0  0
   45.7289   33.3081   46.0811 H   0  0  0  0  0  0  0  0  0  0  0  0
   46.5755   34.1186   39.9772 H   0  0  0  0  0  0  0  0  0  0  0  0
   45.2399   33.8444   41.1276 H   0  0  0  0  0  0  0  0  0  0  0  0
  1  6  2  0
  2  1  1  0
  3  2  2  0
  3  4  1  0
  4  5  2  0
  5  6  1  0
  7  3  1  0
  8  7  2  0
  9  7  1  0
  1 10  1  0
  2 11  1  0
  5 12  1  0
  9 13  1  0
  9 14  1  0
M  ISO  3  10  14  11  14  12  14
M  END
>  <minimizedAffinity>  (1) 
-3.40062189

>  <minimizedRMSD>  (1) 
0.122819513

$$$$
