
     RDKit          3D

 38 41  0  0  1  0  0  0  0  0999 V2000
   48.8400   31.8410   38.9180 C   0  0  2  0  0  0  0  0  0  0  0  0
   49.9590   31.6390   39.8670 C   0  0  0  0  0  0  0  0  0  0  0  0
   49.8110   32.4590   41.0130 N   0  0  0  0  0  0  0  0  0  0  0  0
   49.9210   33.3790   42.0950 C   0  0  0  0  0  0  0  0  0  0  0  0
   50.9530   34.0230   42.4450 O   0  0  0  0  0  0  0  0  0  0  0  0
   48.5320   33.2350   42.5120 C   0  0  2  0  0  0  0  0  0  0  0  0
   48.5320   32.1110   41.5020 C   0  0  1  0  0  0  0  0  0  0  0  0
   47.4960   32.3840   40.0380 S   0  0  0  0  0  0  0  0  0  0  0  0
   48.4040   30.4920   38.3730 C   0  0  0  0  0  0  0  0  0  0  0  0
   49.1010   32.8450   37.8330 C   0  0  0  0  0  0  0  0  0  0  0  0
   48.1200   32.7100   36.7300 C   0  0  0  0  0  0  0  0  0  0  0  0
   46.7830   32.8410   36.4940 C   0  0  0  0  0  0  0  0  0  0  0  0
   46.5190   32.5590   35.2040 N   0  0  0  0  0  0  0  0  0  0  0  0
   47.7090   32.2440   34.6170 C   0  0  0  0  0  0  0  0  0  0  0  0
   48.6920   32.3350   35.5500 N   0  0  0  0  0  0  0  0  0  0  0  0
   47.7390   34.4330   42.2000 C   0  0  0  0  0  0  0  0  0  0  0  0
   47.8960   35.2070   41.2270 O   0  0  0  0  0  0  0  0  0  0  0  0
   44.8020   35.7950   43.9540 C   0  0  0  0  0  0  0  0  0  0  0  0
   45.8080   35.6100   42.9940 C   0  0  0  0  0  0  0  0  0  0  0  0
   46.7360   34.5840   43.2110 C   0  0  0  0  0  0  0  0  0  0  0  0
   46.6310   33.8140   44.3300 N   0  0  0  0  0  0  0  0  0  0  0  0
   45.6340   34.0400   45.2310 C   0  0  0  0  0  0  0  0  0  0  0  0
   44.7130   35.0250   45.0570 N   0  0  0  0  0  0  0  0  0  0  0  0
   49.9786   30.5846   40.1799 H   0  0  0  0  0  0  0  0  0  0  0  0
   50.8980   31.9104   39.3624 H   0  0  0  0  0  0  0  0  0  0  0  0
   48.1678   33.0855   43.5391 H   0  0  0  0  0  0  0  0  0  0  0  0
   48.2456   31.1335   41.9174 H   0  0  0  0  0  0  0  0  0  0  0  0
   48.1843   29.8122   39.2095 H   0  0  0  0  0  0  0  0  0  0  0  0
   47.5014   30.6196   37.7574 H   0  0  0  0  0  0  0  0  0  0  0  0
   49.2106   30.0672   37.7574 H   0  0  0  0  0  0  0  0  0  0  0  0
   49.0279   33.8577   38.2562 H   0  0  0  0  0  0  0  0  0  0  0  0
   50.1077   32.6656   37.4275 H   0  0  0  0  0  0  0  0  0  0  0  0
   46.0335   33.1330   37.2443 H   0  0  0  0  0  0  0  0  0  0  0  0
   45.5956   32.5776   34.7481 H   0  0  0  0  0  0  0  0  0  0  0  0
   47.8495   31.9629   33.5629 H   0  0  0  0  0  0  0  0  0  0  0  0
   44.0617   36.5943   43.8018 H   0  0  0  0  0  0  0  0  0  0  0  0
   45.8659   36.2494   42.1008 H   0  0  0  0  0  0  0  0  0  0  0  0
   45.5723   33.4055   46.1274 H   0  0  0  0  0  0  0  0  0  0  0  0
  1 10  1  6
  1  2  1  0
  1  8  1  0
  2  3  1  0
  3  7  1  0
  3  4  1  0
  4  5  2  0
  4  6  1  0
  7  6  1  0
  8  7  1  0
  9  1  1  0
 11 10  1  0
 12 11  2  0
 13 12  1  0
 14 13  1  0
 14 15  2  0
 15 11  1  0
 16  6  1  0
 16 20  1  0
 17 16  2  0
 18 23  2  0
 19 20  2  0
 19 18  1  0
 20 21  1  0
 21 22  2  0
 23 22  1  0
  2 24  1  0
  2 25  1  0
  6 26  1  1
  7 27  1  1
  9 28  1  0
  9 29  1  0
  9 30  1  0
 10 31  1  0
 10 32  1  0
 12 33  1  0
 13 34  1  0
 14 35  1  0
 18 36  1  0
 19 37  1  0
 22 38  1  0
M  ISO  8  24  13  25  13  26  13  27  13  28   8  29   8  30   8  31   8
M  ISO  7  32   8  33  14  34   9  35  14  36  14  37  14  38  14
M  END
>  <minimizedAffinity>  (1) 
-5.1713891

>  <minimizedRMSD>  (1) 
2.06357598

$$$$
