
     RDKit          3D

 18 19  0  0  0  0  0  0  0  0999 V2000
   44.8810   35.1770   44.0710 C   0  0  0  0  0  0  0  0  0  0  0  0
   45.5950   35.4370   42.8890 C   0  0  0  0  0  0  0  0  0  0  0  0
   46.7800   34.7310   42.7360 C   0  0  0  0  0  0  0  0  0  0  0  0
   47.1780   33.8470   43.7100 N   0  0  0  0  0  0  0  0  0  0  0  0
   46.4500   33.6330   44.8340 C   0  0  0  0  0  0  0  0  0  0  0  0
   45.2920   34.3100   45.0050 N   0  0  0  0  0  0  0  0  0  0  0  0
   47.6230   34.9000   41.5040 C   0  0  0  0  0  0  0  0  0  0  0  0
   48.8540   35.7480   41.7490 C   0  0  0  0  0  0  0  0  0  0  0  0
   48.9130   34.2250   41.4500 C   0  0  0  0  0  0  0  0  0  0  0  0
   43.6800   35.8570   44.2840 O   0  0  0  0  0  0  0  0  0  0  0  0
   45.2380   36.1533   42.1343 H   0  0  0  0  0  0  0  0  0  0  0  0
   46.7965   32.9190   45.5956 H   0  0  0  0  0  0  0  0  0  0  0  0
   46.7770   34.9119   40.8010 H   0  0  0  0  0  0  0  0  0  0  0  0
   49.1881   36.4785   40.9975 H   0  0  0  0  0  0  0  0  0  0  0  0
   49.2144   36.4186   42.5429 H   0  0  0  0  0  0  0  0  0  0  0  0
   49.1975   33.5200   42.2450 H   0  0  0  0  0  0  0  0  0  0  0  0
   49.4309   33.5994   40.7081 H   0  0  0  0  0  0  0  0  0  0  0  0
   43.3513   36.5040   43.6106 H   0  0  0  0  0  0  0  0  0  0  0  0
  1 10  1  0
  1  6  2  0
  2  1  1  0
  3  2  2  0
  3  4  1  0
  4  5  2  0
  5  6  1  0
  7  8  1  0
  7  3  1  0
  9  7  1  0
  9  8  1  0
  2 11  1  0
  5 12  1  0
  7 13  1  0
  8 14  1  0
  8 15  1  0
  9 16  1  0
  9 17  1  0
 10 18  1  0
M  ISO  8  11  14  12  14  13  13  14  13  15  13  16  13  17  13  18   3
M  END
>  <minimizedAffinity>  (1) 
-4.41369247

>  <minimizedRMSD>  (1) 
0.786274672

$$$$
