
     RDKit          3D

 20 21  0  0  0  0  0  0  0  0999 V2000
   45.4720   34.8990   43.9330 C   0  0  0  0  0  0  0  0  0  0  0  0
   46.4480   35.1150   42.9410 C   0  0  0  0  0  0  0  0  0  0  0  0
   47.5240   34.2380   42.9680 C   0  0  0  0  0  0  0  0  0  0  0  0
   47.5880   33.2440   43.9150 N   0  0  0  0  0  0  0  0  0  0  0  0
   46.6100   33.0850   44.8520 C   0  0  0  0  0  0  0  0  0  0  0  0
   45.5620   33.9240   44.8400 N   0  0  0  0  0  0  0  0  0  0  0  0
   48.6270   34.3360   41.9530 C   0  0  0  0  0  0  0  0  0  0  0  0
   48.9470   35.7690   41.5840 C   0  0  0  0  0  0  0  0  0  0  0  0
   49.9210   34.8520   42.3790 C   0  0  0  0  0  0  0  0  0  0  0  0
   44.2850   35.7950   43.9750 C   0  0  0  0  0  0  0  0  0  0  0  0
   46.3638   35.9213   42.1975 H   0  0  0  0  0  0  0  0  0  0  0  0
   46.6785   32.2845   45.6034 H   0  0  0  0  0  0  0  0  0  0  0  0
   48.3551   33.4165   41.4139 H   0  0  0  0  0  0  0  0  0  0  0  0
   49.1630   36.0428   40.5408 H   0  0  0  0  0  0  0  0  0  0  0  0
   48.4796   36.7536   41.7323 H   0  0  0  0  0  0  0  0  0  0  0  0
   50.1113   35.0459   43.4449 H   0  0  0  0  0  0  0  0  0  0  0  0
   50.9654   34.5317   42.2500 H   0  0  0  0  0  0  0  0  0  0  0  0
   44.0158   35.9982   45.0220 H   0  0  0  0  0  0  0  0  0  0  0  0
   44.5219   36.7415   43.4670 H   0  0  0  0  0  0  0  0  0  0  0  0
   43.4397   35.3078   43.4670 H   0  0  0  0  0  0  0  0  0  0  0  0
  1 10  1  0
  1  6  2  0
  2  3  2  0
  2  1  1  0
  3  4  1  0
  4  5  2  0
  6  5  1  0
  7  9  1  0
  7  3  1  0
  8  7  1  0
  8  9  1  0
  2 11  1  0
  5 12  1  0
  7 13  1  0
  8 14  1  0
  8 15  1  0
  9 16  1  0
  9 17  1  0
 10 18  1  0
 10 19  1  0
 10 20  1  0
M  ISO  8  11  14  12  14  13  13  14  13  15  13  16  13  17  13  18   8
M  ISO  2  19   8  20   8
M  END
>  <minimizedAffinity>  (1) 
-3.94768119

>  <minimizedRMSD>  (1) 
1.43257034

$$$$
