
     RDKit          3D

 22 23  0  0  1  0  0  0  0  0999 V2000
   45.6790   34.8270   44.1770 C   0  0  0  0  0  0  0  0  0  0  0  0
   46.4600   34.9810   43.0330 C   0  0  0  0  0  0  0  0  0  0  0  0
   47.4620   34.0340   42.8650 C   0  0  0  0  0  0  0  0  0  0  0  0
   47.6230   33.0460   43.7880 N   0  0  0  0  0  0  0  0  0  0  0  0
   46.8380   32.9420   44.8810 C   0  0  0  0  0  0  0  0  0  0  0  0
   45.8580   33.8490   45.0670 N   0  0  0  0  0  0  0  0  0  0  0  0
   48.3740   34.0940   41.6750 C   0  0  1  0  0  0  0  0  0  0  0  0
   48.6040   35.4630   41.1430 C   0  0  0  0  0  0  0  0  0  0  0  0
   49.7280   34.6380   41.8500 C   0  0  1  0  0  0  0  0  0  0  0  0
   50.0880   34.9980   43.1940 N   0  0  0  0  0  0  0  0  0  0  0  0
   44.5710   35.8100   44.3940 C   0  0  0  0  0  0  0  0  0  0  0  0
   44.1040   35.6310   45.6900 F   0  0  0  0  0  0  0  0  0  0  0  0
   43.5560   35.5050   43.5280 F   0  0  0  0  0  0  0  0  0  0  0  0
   45.0250   37.0990   44.2840 F   0  0  0  0  0  0  0  0  0  0  0  0
   46.2943   35.7960   42.3131 H   0  0  0  0  0  0  0  0  0  0  0  0
   46.9951   32.1312   45.6075 H   0  0  0  0  0  0  0  0  0  0  0  0
   48.0179   33.1425   41.2534 H   0  0  0  0  0  0  0  0  0  0  0  0
   48.6418   35.6395   40.0579 H   0  0  0  0  0  0  0  0  0  0  0  0
   48.1439   36.4529   41.2785 H   0  0  0  0  0  0  0  0  0  0  0  0
   50.7516   34.3374   41.5820 H   0  0  0  0  0  0  0  0  0  0  0  0
   49.5319   34.4419   43.8591 H   0  0  0  0  0  0  0  0  0  0  0  0
   51.0897   34.8104   43.3431 H   0  0  0  0  0  0  0  0  0  0  0  0
  1 11  1  0
  1  6  2  0
  2  1  1  0
  3  2  2  0
  3  4  1  0
  4  5  2  0
  5  6  1  0
  7  9  1  0
  7  3  1  0
  8  7  1  0
  8  9  1  0
  9 10  1  0
 11 12  1  0
 13 11  1  0
 14 11  1  0
  2 15  1  0
  5 16  1  0
  7 17  1  6
  8 18  1  0
  8 19  1  0
  9 20  1  6
 10 21  1  0
 10 22  1  0
M  ISO  8  15  14  16  14  17  13  18  13  19  13  20  13  21   5  22   5
M  END
>  <minimizedAffinity>  (1) 
-5.29108667

>  <minimizedRMSD>  (1) 
0.341092259

$$$$
