
     RDKit          3D

 23 24  0  0  1  0  0  0  0  0999 V2000
   45.6070   34.8680   44.2420 C   0  0  0  0  0  0  0  0  0  0  0  0
   46.6070   34.5210   43.3350 C   0  0  0  0  0  0  0  0  0  0  0  0
   47.3670   33.4100   43.6320 C   0  0  0  0  0  0  0  0  0  0  0  0
   47.1110   32.7140   44.7810 N   0  0  0  0  0  0  0  0  0  0  0  0
   46.1330   33.0800   45.6370 C   0  0  0  0  0  0  0  0  0  0  0  0
   45.3710   34.1710   45.3640 N   0  0  0  0  0  0  0  0  0  0  0  0
   48.4790   32.9520   42.7350 C   0  0  1  0  0  0  0  0  0  0  0  0
   48.6120   33.7620   41.4870 C   0  0  0  0  0  0  0  0  0  0  0  0
   49.6820   33.7860   42.6320 C   0  0  2  0  0  0  0  0  0  0  0  0
   51.0130   33.2200   42.2390 C   0  0  0  0  0  0  0  0  0  0  0  0
   44.7650   36.0580   43.9470 C   0  0  0  0  0  0  0  0  0  0  0  0
   44.6200   36.7660   45.1320 F   0  0  0  0  0  0  0  0  0  0  0  0
   43.5290   35.6250   43.5530 F   0  0  0  0  0  0  0  0  0  0  0  0
   45.3730   36.8830   43.0350 F   0  0  0  0  0  0  0  0  0  0  0  0
   46.7821   35.1084   42.4216 H   0  0  0  0  0  0  0  0  0  0  0  0
   45.9539   32.4967   46.5523 H   0  0  0  0  0  0  0  0  0  0  0  0
   48.3526   31.8842   42.9671 H   0  0  0  0  0  0  0  0  0  0  0  0
   47.9605   34.6313   41.3145 H   0  0  0  0  0  0  0  0  0  0  0  0
   48.6110   33.5599   40.4057 H   0  0  0  0  0  0  0  0  0  0  0  0
   50.1427   34.5067   43.3237 H   0  0  0  0  0  0  0  0  0  0  0  0
   51.5889   32.9751   43.1437 H   0  0  0  0  0  0  0  0  0  0  0  0
   50.8620   32.3082   41.6425 H   0  0  0  0  0  0  0  0  0  0  0  0
   51.5650   33.9613   41.6425 H   0  0  0  0  0  0  0  0  0  0  0  0
  1  6  2  0
  2  3  2  0
  2  1  1  0
  3  4  1  0
  4  5  2  0
  6  5  1  0
  7  3  1  0
  8  9  1  0
  8  7  1  0
  9  7  1  0
 10  9  1  0
 11  1  1  0
 11 12  1  0
 13 11  1  0
 14 11  1  0
  2 15  1  0
  5 16  1  0
  7 17  1  6
  8 18  1  0
  8 19  1  0
  9 20  1  1
 10 21  1  0
 10 22  1  0
 10 23  1  0
M  ISO  8  15  14  16  14  17  13  18  13  19  13  20  13  21   8  22   8
M  ISO  1  23   8
M  END
>  <minimizedAffinity>  (1) 
-4.58352613

>  <minimizedRMSD>  (1) 
1.13328111

$$$$
