
     RDKit          3D

 40 44  0  0  1  0  0  0  0  0999 V2000
   46.7610   32.2790   44.0380 C   0  0  1  0  0  0  0  0  0  0  0  0
   45.7620   33.3700   43.9690 C   0  0  0  0  0  0  0  0  0  0  0  0
   47.3170   33.6220   43.8860 C   0  0  2  0  0  0  0  0  0  0  0  0
   46.2470   31.2620   47.6180 C   0  0  0  0  0  0  0  0  0  0  0  0
   46.0740   31.9670   46.4390 C   0  0  0  0  0  0  0  0  0  0  0  0
   46.8580   31.5840   45.3570 C   0  0  0  0  0  0  0  0  0  0  0  0
   47.7370   30.5640   45.4910 N   0  0  0  0  0  0  0  0  0  0  0  0
   47.8710   29.9000   46.6720 C   0  0  0  0  0  0  0  0  0  0  0  0
   47.1200   30.2580   47.7320 N   0  0  0  0  0  0  0  0  0  0  0  0
   45.4060   31.6510   48.7960 C   0  0  0  0  0  0  0  0  0  0  0  0
   45.8840   32.8530   49.2660 F   0  0  0  0  0  0  0  0  0  0  0  0
   45.6070   30.7000   49.7730 F   0  0  0  0  0  0  0  0  0  0  0  0
   44.0950   31.7790   48.4440 F   0  0  0  0  0  0  0  0  0  0  0  0
   47.7490   34.0010   42.5130 C   0  0  0  0  0  0  0  0  0  0  0  0
   47.9800   35.2830   42.0230 C   0  0  0  0  0  0  0  0  0  0  0  0
   48.3570   35.0430   40.7170 C   0  0  0  0  0  0  0  0  0  0  0  0
   48.3430   33.6580   40.4530 C   0  0  0  0  0  0  0  0  0  0  0  0
   47.9690   33.1240   41.5820 O   0  0  0  0  0  0  0  0  0  0  0  0
   49.4870   31.9070   39.1410 C   0  0  0  0  0  0  0  0  0  0  0  0
   48.6840   33.0270   39.1810 C   0  0  0  0  0  0  0  0  0  0  0  0
   48.1580   33.6150   38.0460 C   0  0  0  0  0  0  0  0  0  0  0  0
   48.4290   33.0870   36.8120 C   0  0  0  0  0  0  0  0  0  0  0  0
   48.0730   33.4250   35.5680 N   0  0  0  0  0  0  0  0  0  0  0  0
   48.6340   32.5440   34.7430 C   0  0  0  0  0  0  0  0  0  0  0  0
   49.3560   31.6320   35.4570 N   0  0  0  0  0  0  0  0  0  0  0  0
   49.2310   31.9680   36.7700 C   0  0  0  0  0  0  0  0  0  0  0  0
   49.7770   31.3500   37.8920 C   0  0  0  0  0  0  0  0  0  0  0  0
   46.9390   31.3544   43.4693 H   0  0  0  0  0  0  0  0  0  0  0  0
   45.1286   33.4913   43.0779 H   0  0  0  0  0  0  0  0  0  0  0  0
   44.9308   33.7277   44.5945 H   0  0  0  0  0  0  0  0  0  0  0  0
   48.0773   34.2043   44.4272 H   0  0  0  0  0  0  0  0  0  0  0  0
   45.3500   32.7916   46.3622 H   0  0  0  0  0  0  0  0  0  0  0  0
   48.5908   29.0730   46.7607 H   0  0  0  0  0  0  0  0  0  0  0  0
   47.8857   36.2463   42.5456 H   0  0  0  0  0  0  0  0  0  0  0  0
   48.6291   35.8201   39.9875 H   0  0  0  0  0  0  0  0  0  0  0  0
   49.8878   31.4646   40.0649 H   0  0  0  0  0  0  0  0  0  0  0  0
   47.5213   34.5077   38.1341 H   0  0  0  0  0  0  0  0  0  0  0  0
   47.4756   34.2196   35.2984 H   0  0  0  0  0  0  0  0  0  0  0  0
   48.5310   32.5500   33.6478 H   0  0  0  0  0  0  0  0  0  0  0  0
   50.4126   30.4571   37.7991 H   0  0  0  0  0  0  0  0  0  0  0  0
  1  6  1  0
  2  1  1  0
  3  2  1  0
  3  1  1  0
  4  9  2  0
  4 10  1  0
  5  4  1  0
  6  7  1  0
  6  5  2  0
  7  8  2  0
  8  9  1  0
 10 11  1  0
 10 12  1  0
 13 10  1  0
 14  3  1  0
 15 14  2  0
 16 15  1  0
 17 16  2  0
 17 18  1  0
 18 14  1  0
 19 20  2  0
 20 17  1  0
 21 20  1  0
 22 21  2  0
 23 22  1  0
 24 25  2  0
 24 23  1  0
 25 26  1  0
 26 22  1  0
 26 27  2  0
 27 19  1  0
  1 28  1  6
  2 29  1  0
  2 30  1  0
  3 31  1  1
  5 32  1  0
  8 33  1  0
 15 34  1  0
 16 35  1  0
 19 36  1  0
 21 37  1  0
 23 38  1  0
 24 39  1  0
 27 40  1  0
M  ISO  8  28  13  29  13  30  13  31  13  32  14  33  14  34  14  35  14
M  ISO  5  36  14  37  14  38   9  39  14  40  14
M  END
>  <minimizedAffinity>  (1) 
-6.43174219

>  <minimizedRMSD>  (1) 
4.16270828

$$$$
