
     RDKit          3D

 34 37  0  0  1  0  0  0  0  0999 V2000
   46.2870   32.9010   43.6970 C   0  0  1  0  0  0  0  0  0  0  0  0
   45.9360   34.3200   43.9130 C   0  0  0  0  0  0  0  0  0  0  0  0
   47.4030   33.8380   43.5860 C   0  0  2  0  0  0  0  0  0  0  0  0
   46.4230   31.5690   47.2080 C   0  0  0  0  0  0  0  0  0  0  0  0
   46.5710   32.4620   46.1610 C   0  0  0  0  0  0  0  0  0  0  0  0
   46.1660   32.0260   44.9060 C   0  0  0  0  0  0  0  0  0  0  0  0
   45.6580   30.7820   44.7550 N   0  0  0  0  0  0  0  0  0  0  0  0
   45.5320   29.9370   45.8130 C   0  0  0  0  0  0  0  0  0  0  0  0
   45.9220   30.3470   47.0440 N   0  0  0  0  0  0  0  0  0  0  0  0
   46.8420   32.0140   48.5760 C   0  0  0  0  0  0  0  0  0  0  0  0
   47.9990   32.7440   48.4420 F   0  0  0  0  0  0  0  0  0  0  0  0
   47.1220   30.8830   49.3130 F   0  0  0  0  0  0  0  0  0  0  0  0
   45.8750   32.7910   49.1640 F   0  0  0  0  0  0  0  0  0  0  0  0
   47.8330   34.1990   42.2040 C   0  0  0  0  0  0  0  0  0  0  0  0
   48.3890   35.4060   41.7930 C   0  0  0  0  0  0  0  0  0  0  0  0
   48.5950   35.2100   40.4500 C   0  0  0  0  0  0  0  0  0  0  0  0
   48.1760   33.9370   40.0870 C   0  0  0  0  0  0  0  0  0  0  0  0
   47.7310   33.3950   41.1990 O   0  0  0  0  0  0  0  0  0  0  0  0
   48.2480   33.3970   38.7410 C   0  0  0  0  0  0  0  0  0  0  0  0
   48.2460   32.1450   38.2720 C   0  0  0  0  0  0  0  0  0  0  0  0
   48.3230   31.8730   36.9540 C   0  0  0  0  0  0  0  0  0  0  0  0
   48.4060   33.0710   36.1170 C   0  0  0  0  0  0  0  0  0  0  0  0
   48.3620   34.4270   37.3490 S   0  0  0  0  0  0  0  0  0  0  0  0
   45.9409   32.1105   43.0149 H   0  0  0  0  0  0  0  0  0  0  0  0
   45.3491   34.8702   43.1628 H   0  0  0  0  0  0  0  0  0  0  0  0
   45.4505   34.9068   44.7067 H   0  0  0  0  0  0  0  0  0  0  0  0
   48.4013   33.9046   44.0432 H   0  0  0  0  0  0  0  0  0  0  0  0
   46.9889   33.4678   46.3152 H   0  0  0  0  0  0  0  0  0  0  0  0
   45.1167   28.9284   45.6705 H   0  0  0  0  0  0  0  0  0  0  0  0
   48.6096   36.2989   42.3964 H   0  0  0  0  0  0  0  0  0  0  0  0
   49.0281   35.9519   39.7629 H   0  0  0  0  0  0  0  0  0  0  0  0
   48.1794   31.3098   38.9848 H   0  0  0  0  0  0  0  0  0  0  0  0
   48.3234   30.8509   36.5473 H   0  0  0  0  0  0  0  0  0  0  0  0
   48.4771   33.1401   35.0215 H   0  0  0  0  0  0  0  0  0  0  0  0
  1  2  1  0
  1  6  1  0
  3  1  1  0
  3  2  1  0
  4 10  1  0
  5  4  2  0
  6  5  1  0
  7  6  2  0
  7  8  1  0
  8  9  2  0
  9  4  1  0
 10 13  1  0
 10 12  1  0
 11 10  1  0
 14  3  1  0
 15 14  2  0
 16 15  1  0
 17 16  2  0
 17 18  1  0
 18 14  1  0
 19 17  1  0
 20 19  2  0
 21 20  1  0
 22 21  2  0
 22 23  1  0
 23 19  1  0
  1 24  1  6
  2 25  1  0
  2 26  1  0
  3 27  1  1
  5 28  1  0
  8 29  1  0
 15 30  1  0
 16 31  1  0
 20 32  1  0
 21 33  1  0
 22 34  1  0
M  ISO  8  24  13  25  13  26  13  27  13  28  14  29  14  30  14  31  14
M  ISO  3  32  14  33  14  34  14
M  END
>  <minimizedAffinity>  (1) 
-5.73219347

>  <minimizedRMSD>  (1) 
2.94984078

$$$$
