
     RDKit          3D

 48 50  0  0  0  0  0  0  0  0999 V2000
   47.0598   33.5720   44.1648 C   0  0  0  0  0  0  0  0  0  0  0  0
   44.7429   36.2423   43.4711 C   0  0  1  0  0  0  0  0  0  0  0  0
   45.8790   35.3892   42.8998 C   0  0  0  0  0  0  0  0  0  0  0  0
   45.7285   34.1545   43.7096 C   0  0  2  0  0  0  0  0  0  0  0  0
   44.8982   34.4135   44.7692 O   0  0  0  0  0  0  0  0  0  0  0  0
   44.7102   35.7584   44.8980 C   0  0  0  0  0  0  0  0  0  0  0  0
   45.0495   37.5868   43.3653 O   0  0  0  0  0  0  0  0  0  0  0  0
   48.6019   32.1294   42.9031 C   0  0  0  0  0  0  0  0  0  0  0  0
   47.9520   33.2869   43.0230 C   0  0  0  0  0  0  0  0  0  0  0  0
   49.4587   31.9549   41.7323 C   0  0  0  0  0  0  0  0  0  0  0  0
   50.8609   31.9247   41.9484 C   0  0  0  0  0  0  0  0  0  0  0  0
   51.7402   31.7655   40.8724 C   0  0  0  0  0  0  0  0  0  0  0  0
   51.1647   31.6471   39.6551 N   0  0  0  0  0  0  0  0  0  0  0  0
   49.8242   31.6781   39.4710 C   0  0  0  0  0  0  0  0  0  0  0  0
   48.9811   31.8285   40.4832 N   0  0  0  0  0  0  0  0  0  0  0  0
   49.2398   31.5529   38.0882 C   0  0  2  0  0  0  0  0  0  0  0  0
   50.0695   31.6016   36.8914 C   0  0  0  0  0  0  0  0  0  0  0  0
   49.2339   32.7957   37.1972 C   0  0  2  0  0  0  0  0  0  0  0  0
   47.5612   34.2579   44.8802 H   0  0  0  0  0  0  0  0  0  0  0  0
   46.8381   32.6123   44.6650 H   0  0  0  0  0  0  0  0  0  0  0  0
   43.7935   36.0549   42.9475 H   0  0  0  0  0  0  0  0  0  0  0  0
   46.8590   35.8824   43.0309 H   0  0  0  0  0  0  0  0  0  0  0  0
   45.6152   35.2313   41.8290 H   0  0  0  0  0  0  0  0  0  0  0  0
   45.2516   33.3680   43.0754 H   0  0  0  0  0  0  0  0  0  0  0  0
   43.6876   35.9865   45.2841 H   0  0  0  0  0  0  0  0  0  0  0  0
   45.4990   36.2182   45.5010 H   0  0  0  0  0  0  0  0  0  0  0  0
   44.2348   38.1184   43.4687 H   0  0  0  0  0  0  0  0  0  0  0  0
   48.5137   31.3328   43.6341 H   0  0  0  0  0  0  0  0  0  0  0  0
   48.0804   34.0501   42.2560 H   0  0  0  0  0  0  0  0  0  0  0  0
   51.2646   32.0222   42.9270 H   0  0  0  0  0  0  0  0  0  0  0  0
   52.7978   31.7375   40.9905 H   0  0  0  0  0  0  0  0  0  0  0  0
   48.3024   30.9518   38.0899 H   0  0  0  0  0  0  0  0  0  0  0  0
   49.8185   30.9586   36.0197 H   0  0  0  0  0  0  0  0  0  0  0  0
   51.1632   31.7437   37.0195 H   0  0  0  0  0  0  0  0  0  0  0  0
   48.3135   32.8856   36.5892 H   0  0  0  0  0  0  0  0  0  0  0  0
   49.8053   34.0774   37.7131 C   0  0  0  0  0  0  0  0  0  0  0  0
   50.8992   34.4681   36.8365 N   0  0  0  0  0  4  0  0  0  0  0  0
   51.8161   33.3819   36.6787 C   0  0  0  0  0  0  0  0  0  0  0  0
   51.5328   32.4576   37.2342 H   0  0  0  0  0  0  0  0  0  0  0  0
   51.5122   35.7071   37.2786 C   0  0  0  0  0  0  0  0  0  0  0  0
   50.6581   36.4146   37.4325 H   0  0  0  0  0  0  0  0  0  0  0  0
   49.0024   34.8452   37.5969 H   0  0  0  0  0  0  0  0  0  0  0  0
   50.0893   34.0575   38.7640 H   0  0  0  0  0  0  0  0  0  0  0  0
   50.4538   34.6878   35.9118 H   0  0  0  0  0  0  0  0  0  0  0  0
   52.8405   33.7196   36.9875 H   0  0  0  0  0  0  0  0  0  0  0  0
   51.9237   33.0821   35.6035 H   0  0  0  0  0  0  0  0  0  0  0  0
   52.1486   35.6112   38.1589 H   0  0  0  0  0  0  0  0  0  0  0  0
   52.1123   36.0932   36.4369 H   0  0  0  0  0  0  0  0  0  0  0  0
  2  6  1  0
  3  2  1  0
  3  4  1  0
  4  1  1  0
  4  5  1  0
  5  6  1  0
  7  2  1  0
  8  9  2  0
  9  1  1  0
 10 11  2  0
 10  8  1  0
 12 11  1  0
 13 12  2  0
 14 13  1  0
 14 15  2  0
 15 10  1  0
 16 14  1  0
 17 18  1  0
 17 16  1  0
 18 16  1  0
  1 19  1  0
  1 20  1  0
  2 21  1  6
  3 22  1  0
  3 23  1  0
  4 24  1  6
  6 25  1  0
  6 26  1  0
  7 27  1  0
  8 28  1  0
  9 29  1  0
 11 30  1  0
 12 31  1  0
 16 32  1  1
 17 33  1  0
 17 34  1  0
 18 35  1  6
 36 37  1  0
 37 38  1  0
 38 39  1  0
 37 40  1  0
 40 41  1  0
 36 42  1  0
 36 43  1  0
 37 44  1  0
 38 45  1  0
 38 46  1  0
 40 47  1  0
 40 48  1  0
 18 36  1  0
M  CHG  1  37   1
M  END
>  <DihAtoms>  (1) 
16,17,35,36

>  <DihDeg>  (1) 
111.335989823032

$$$$
