
     RDKit          3D

 16 16  0  0  0  0  0  0  0  0999 V2000
   45.3650   34.1150   45.1860 C   0  0  0  0  0  0  0  0  0  0  0  0
   45.6240   34.6770   43.8970 C   0  0  0  0  0  0  0  0  0  0  0  0
   46.7160   34.1100   43.2420 C   0  0  0  0  0  0  0  0  0  0  0  0
   47.4330   33.1040   43.8430 N   0  0  0  0  0  0  0  0  0  0  0  0
   47.1260   32.6280   45.0620 C   0  0  0  0  0  0  0  0  0  0  0  0
   46.0870   33.1400   45.7300 N   0  0  0  0  0  0  0  0  0  0  0  0
   47.0040   34.6720   41.9190 C   0  0  0  0  0  0  0  0  0  0  0  0
   47.9810   33.8880   41.2930 F   0  0  0  0  0  0  0  0  0  0  0  0
   47.6340   35.8870   42.1290 F   0  0  0  0  0  0  0  0  0  0  0  0
   45.9340   34.7230   41.0980 F   0  0  0  0  0  0  0  0  0  0  0  0
   44.7260   35.7590   43.4300 C   0  0  0  0  0  0  0  0  0  0  0  0
   43.9070   35.4250   42.3950 F   0  0  0  0  0  0  0  0  0  0  0  0
   45.4520   36.9210   43.1570 F   0  0  0  0  0  0  0  0  0  0  0  0
   43.8800   36.1100   44.4770 F   0  0  0  0  0  0  0  0  0  0  0  0
   44.5171   34.5134   45.7625 H   0  0  0  0  0  0  0  0  0  0  0  0
   47.7265   31.8213   45.5078 H   0  0  0  0  0  0  0  0  0  0  0  0
  1  6  2  0
  2  1  1  0
  3  4  1  0
  3  2  2  0
  4  5  2  0
  5  6  1  0
  7  9  1  0
  7  3  1  0
  8  7  1  0
 10  7  1  0
 11  2  1  0
 11 14  1  0
 12 11  1  0
 13 11  1  0
  1 15  1  0
  5 16  1  0
M  ISO  2  15  14  16  14
M  END
>  <minimizedAffinity>  (1) 
-4.40695429

>  <minimizedRMSD>  (1) 
1.67841876

$$$$
