
     RDKit          3D

 20 21  0  0  0  0  0  0  0  0999 V2000
   45.0970   34.5410   45.3360 C   0  0  0  0  0  0  0  0  0  0  0  0
   45.9390   34.4010   44.2070 C   0  0  0  0  0  0  0  0  0  0  0  0
   46.9250   33.4140   44.2700 C   0  0  0  0  0  0  0  0  0  0  0  0
   47.0290   32.6450   45.3970 N   0  0  0  0  0  0  0  0  0  0  0  0
   46.1950   32.8180   46.4570 C   0  0  0  0  0  0  0  0  0  0  0  0
   45.2460   33.7530   46.4190 N   0  0  0  0  0  0  0  0  0  0  0  0
   47.7860   33.2890   43.0880 C   0  0  0  0  0  0  0  0  0  0  0  0
   48.6610   32.2310   43.2600 F   0  0  0  0  0  0  0  0  0  0  0  0
   48.5960   34.4200   43.0810 F   0  0  0  0  0  0  0  0  0  0  0  0
   47.1020   33.1220   41.9350 F   0  0  0  0  0  0  0  0  0  0  0  0
   45.7860   35.2530   43.0210 C   0  0  0  0  0  0  0  0  0  0  0  0
   44.4090   35.4290   42.5200 C   0  0  0  0  0  0  0  0  0  0  0  0
   45.1140   36.5750   43.1840 C   0  0  0  0  0  0  0  0  0  0  0  0
   44.3071   35.3065   45.3293 H   0  0  0  0  0  0  0  0  0  0  0  0
   46.3040   32.1839   47.3492 H   0  0  0  0  0  0  0  0  0  0  0  0
   46.7455   34.9341   42.5878 H   0  0  0  0  0  0  0  0  0  0  0  0
   44.2173   35.4548   41.4371 H   0  0  0  0  0  0  0  0  0  0  0  0
   43.4526   34.9090   42.6776 H   0  0  0  0  0  0  0  0  0  0  0  0
   44.7980   36.9149   44.1813 H   0  0  0  0  0  0  0  0  0  0  0  0
   45.3515   37.6133   42.9092 H   0  0  0  0  0  0  0  0  0  0  0  0
  1  6  2  0
  2  3  2  0
  2  1  1  0
  3  4  1  0
  4  5  2  0
  6  5  1  0
  7  8  1  0
  7  3  1  0
  9  7  1  0
 10  7  1  0
 11 13  1  0
 11  2  1  0
 12 11  1  0
 12 13  1  0
  1 14  1  0
  5 15  1  0
 11 16  1  0
 12 17  1  0
 12 18  1  0
 13 19  1  0
 13 20  1  0
M  ISO  7  14  14  15  14  16  13  17  13  18  13  19  13  20  13
M  END
>  <minimizedAffinity>  (1) 
-3.88094783

>  <minimizedRMSD>  (1) 
1.93704689

$$$$
