
     RDKit          3D

 22 22  0  0  0  0  0  0  0  0999 V2000
   45.0550   35.6730   43.7590 C   0  0  0  0  0  0  0  0  0  0  0  0
   45.8580   34.5280   43.5860 C   0  0  0  0  0  0  0  0  0  0  0  0
   45.9890   33.6770   44.6980 C   0  0  0  0  0  0  0  0  0  0  0  0
   45.3410   33.9980   45.8670 N   0  0  0  0  0  0  0  0  0  0  0  0
   44.5870   35.1140   45.9630 C   0  0  0  0  0  0  0  0  0  0  0  0
   44.4470   35.9390   44.9210 N   0  0  0  0  0  0  0  0  0  0  0  0
   46.8290   32.4900   44.5150 C   0  0  0  0  0  0  0  0  0  0  0  0
   47.0290   31.8750   45.7350 F   0  0  0  0  0  0  0  0  0  0  0  0
   48.0890   32.9710   44.1200 F   0  0  0  0  0  0  0  0  0  0  0  0
   46.3320   31.5940   43.6530 F   0  0  0  0  0  0  0  0  0  0  0  0
   46.5350   34.2120   42.3050 C   0  0  0  0  0  0  0  0  0  0  0  0
   47.1870   35.3900   41.9120 O   0  0  0  0  0  0  0  0  0  0  0  0
   49.7640   35.3300   42.4820 O   0  0  0  0  0  0  0  0  0  0  0  0
   48.7470   34.9910   41.4150 P   0  0  0  0  0  0  0  0  0  0  0  0
   49.0790   35.8300   39.9780 O   0  0  0  0  0  0  0  0  0  0  0  0
   48.8120   33.3490   41.0650 O   0  0  0  0  0  0  0  0  0  0  0  0
   44.9244   36.3672   42.9157 H   0  0  0  0  0  0  0  0  0  0  0  0
   44.0812   35.3472   46.9116 H   0  0  0  0  0  0  0  0  0  0  0  0
   47.2642   33.4009   42.4479 H   0  0  0  0  0  0  0  0  0  0  0  0
   45.8176   33.8747   41.5424 H   0  0  0  0  0  0  0  0  0  0  0  0
   49.4344   36.7282   40.1949 H   0  0  0  0  0  0  0  0  0  0  0  0
   48.8325   32.8322   41.9092 H   0  0  0  0  0  0  0  0  0  0  0  0
  1  6  2  0
  2  1  1  0
  2  3  2  0
  3  4  1  0
  4  5  2  0
  6  5  1  0
  7  3  1  0
  7  8  1  0
  9  7  1  0
 10  7  1  0
 11  2  1  0
 12 11  1  0
 14 12  1  0
 14 13  2  0
 15 14  1  0
 16 14  1  0
  1 17  1  0
  5 18  1  0
 11 19  1  0
 11 20  1  0
 15 21  1  0
 16 22  1  0
M  ISO  6  17  14  18  14  19   8  20   8  21   3  22   3
M  END
>  <minimizedAffinity>  (1) 
-4.43714809

>  <minimizedRMSD>  (1) 
4.2534709

$$$$
