
     RDKit          3D

 25 26  0  0  0  0  0  0  0  0999 V2000
   45.0830   34.7910   45.1590 C   0  0  0  0  0  0  0  0  0  0  0  0
   45.5480   35.1390   43.8860 C   0  0  0  0  0  0  0  0  0  0  0  0
   46.5590   34.3410   43.3640 C   0  0  0  0  0  0  0  0  0  0  0  0
   47.0360   33.2910   44.0980 N   0  0  0  0  0  0  0  0  0  0  0  0
   46.5580   33.0000   45.3120 C   0  0  0  0  0  0  0  0  0  0  0  0
   45.5710   33.7600   45.8440 N   0  0  0  0  0  0  0  0  0  0  0  0
   47.0260   34.7020   42.0230 C   0  0  0  0  0  0  0  0  0  0  0  0
   47.9640   33.7640   41.5920 F   0  0  0  0  0  0  0  0  0  0  0  0
   47.7050   35.8830   42.1410 F   0  0  0  0  0  0  0  0  0  0  0  0
   46.0280   34.7000   41.1030 F   0  0  0  0  0  0  0  0  0  0  0  0
   45.0080   36.2770   43.1550 C   0  0  0  0  0  0  0  0  0  0  0  0
   44.8090   37.4090   44.0360 N   0  0  0  0  0  0  0  0  0  0  0  0
   45.6860   38.4940   43.9020 C   0  0  0  0  0  0  0  0  0  0  0  0
   45.3630   39.6340   44.8730 C   0  0  0  0  0  0  0  0  0  0  0  0
   45.3550   39.8140   43.3760 C   0  0  0  0  0  0  0  0  0  0  0  0
   44.2819   35.3939   45.6116 H   0  0  0  0  0  0  0  0  0  0  0  0
   46.9642   32.1475   45.8762 H   0  0  0  0  0  0  0  0  0  0  0  0
   45.7115   36.5600   42.3581 H   0  0  0  0  0  0  0  0  0  0  0  0
   44.0366   35.9904   42.7256 H   0  0  0  0  0  0  0  0  0  0  0  0
   43.8548   37.7616   43.8748 H   0  0  0  0  0  0  0  0  0  0  0  0
   46.5066   37.8190   43.6173 H   0  0  0  0  0  0  0  0  0  0  0  0
   44.4199   39.6333   45.4391 H   0  0  0  0  0  0  0  0  0  0  0  0
   45.8635   40.1142   45.7268 H   0  0  0  0  0  0  0  0  0  0  0  0
   46.1376   40.4206   42.8969 H   0  0  0  0  0  0  0  0  0  0  0  0
   44.6128   40.1858   42.6542 H   0  0  0  0  0  0  0  0  0  0  0  0
  1  6  2  0
  2  1  1  0
  3  2  2  0
  3  4  1  0
  4  5  2  0
  5  6  1  0
  7  9  1  0
  7  3  1  0
  8  7  1  0
 10  7  1  0
 11  2  1  0
 11 12  1  0
 13 12  1  0
 13 14  1  0
 15 13  1  0
 15 14  1  0
  1 16  1  0
  5 17  1  0
 11 18  1  0
 11 19  1  0
 12 20  1  0
 13 21  1  0
 14 22  1  0
 14 23  1  0
 15 24  1  0
 15 25  1  0
M  ISO  8  16  14  17  14  18   8  19   8  20   5  21  13  22  13  23  13
M  ISO  2  24  13  25  13
M  END
>  <minimizedAffinity>  (1) 
-4.03120232

>  <minimizedRMSD>  (1) 
0.564565122

$$$$
