
     RDKit          3D

 24 24  0  0  0  0  0  0  0  0999 V2000
   45.0920   34.7890   45.2450 C   0  0  0  0  0  0  0  0  0  0  0  0
   45.5150   35.1560   43.9610 C   0  0  0  0  0  0  0  0  0  0  0  0
   46.4260   34.3010   43.3490 C   0  0  0  0  0  0  0  0  0  0  0  0
   46.8620   33.1730   44.0000 N   0  0  0  0  0  0  0  0  0  0  0  0
   46.4210   32.8730   45.2350 C   0  0  0  0  0  0  0  0  0  0  0  0
   45.5280   33.6870   45.8640 N   0  0  0  0  0  0  0  0  0  0  0  0
   46.8550   34.6950   42.0000 C   0  0  0  0  0  0  0  0  0  0  0  0
   47.6890   33.7090   41.4820 F   0  0  0  0  0  0  0  0  0  0  0  0
   47.6100   35.8280   42.1400 F   0  0  0  0  0  0  0  0  0  0  0  0
   45.8100   34.8030   41.1420 F   0  0  0  0  0  0  0  0  0  0  0  0
   45.0170   36.3710   43.3250 C   0  0  0  0  0  0  0  0  0  0  0  0
   44.8930   37.4280   44.3420 N   0  0  0  0  0  0  0  0  0  0  0  0
   45.3850   38.6220   43.7040 C   0  0  0  0  0  0  0  0  0  0  0  0
   45.3600   39.8350   44.6030 C   0  0  0  0  0  0  0  0  0  0  0  0
   44.3703   35.4351   45.7663 H   0  0  0  0  0  0  0  0  0  0  0  0
   46.7835   31.9653   45.7397 H   0  0  0  0  0  0  0  0  0  0  0  0
   45.7202   36.6926   42.5427 H   0  0  0  0  0  0  0  0  0  0  0  0
   44.0348   36.1763   42.8696 H   0  0  0  0  0  0  0  0  0  0  0  0
   43.9089   37.5468   44.6219 H   0  0  0  0  0  0  0  0  0  0  0  0
   46.4230   38.4450   43.3857 H   0  0  0  0  0  0  0  0  0  0  0  0
   44.7202   38.8338   42.8536 H   0  0  0  0  0  0  0  0  0  0  0  0
   45.3667   39.5122   45.6546 H   0  0  0  0  0  0  0  0  0  0  0  0
   46.2455   40.4567   44.4047 H   0  0  0  0  0  0  0  0  0  0  0  0
   44.4496   40.4197   44.4047 H   0  0  0  0  0  0  0  0  0  0  0  0
  1  6  2  0
  2  1  1  0
  3  2  2  0
  3  4  1  0
  4  5  2  0
  5  6  1  0
  7  9  1  0
  7  3  1  0
  8  7  1  0
 10  7  1  0
 11  2  1  0
 11 12  1  0
 13 12  1  0
 13 14  1  0
  1 15  1  0
  5 16  1  0
 11 17  1  0
 11 18  1  0
 12 19  1  0
 13 20  1  0
 13 21  1  0
 14 22  1  0
 14 23  1  0
 14 24  1  0
M  ISO  8  15  14  16  14  17   8  18   8  19   5  20   8  21   8  22   8
M  ISO  2  23   8  24   8
M  END
>  <minimizedAffinity>  (1) 
-4.00524139

>  <minimizedRMSD>  (1) 
0.687822104

$$$$
