
     RDKit          3D

 42 44  0  0  1  0  0  0  0  0999 V2000
   46.8570   33.0260   38.7230 N   0  0  0  0  0  0  0  0  0  0  0  0
   46.1010   33.4050   37.5310 C   0  0  0  0  0  0  0  0  0  0  0  0
   45.2260   32.2540   37.0630 C   0  0  0  0  0  0  0  0  0  0  0  0
   46.0100   31.1160   36.6380 N   0  0  0  0  0  0  0  0  0  0  0  0
   47.3520   31.2660   37.2020 C   0  0  0  0  0  0  0  0  0  0  0  0
   47.2260   31.6150   38.6820 C   0  0  1  0  0  0  0  0  0  0  0  0
   44.9620   32.9030   41.2100 Br  0  0  0  0  0  0  0  0  0  0  0  0
   46.5430   33.9500   40.9880 C   0  0  0  0  0  0  0  0  0  0  0  0
   46.9540   34.7670   42.0010 C   0  0  0  0  0  0  0  0  0  0  0  0
   48.1240   35.5520   41.8570 C   0  0  0  0  0  0  0  0  0  0  0  0
   48.8260   35.4690   40.6800 C   0  0  0  0  0  0  0  0  0  0  0  0
   48.3510   34.6190   39.6940 C   0  0  0  0  0  0  0  0  0  0  0  0
   47.2260   33.8520   39.8120 C   0  0  0  0  0  0  0  0  0  0  0  0
   45.7510   33.9430   45.3430 C   0  0  0  0  0  0  0  0  0  0  0  0
   44.7600   34.9180   45.5950 C   0  0  0  0  0  0  0  0  0  0  0  0
   44.5290   35.8540   44.5760 C   0  0  0  0  0  0  0  0  0  0  0  0
   45.2460   35.7870   43.4290 N   0  0  0  0  0  0  0  0  0  0  0  0
   46.1910   34.8320   43.2300 C   0  0  0  0  0  0  0  0  0  0  0  0
   46.4300   33.9150   44.2040 N   0  0  0  0  0  0  0  0  0  0  0  0
   48.4000   31.3010   39.4320 N   0  0  0  0  0  0  0  0  0  0  0  0
   49.7740   31.4660   38.4000 S   0  0  0  0  0  0  0  0  0  0  0  0
   49.4800   32.4050   37.2510 O   0  0  0  0  0  0  0  0  0  0  0  0
   50.1180   30.1370   37.7880 O   0  0  0  0  0  0  0  0  0  0  0  0
   51.1280   31.9820   39.2510 O   0  0  0  0  0  0  0  0  0  0  0  0
   45.4641   34.2703   37.7670 H   0  0  0  0  0  0  0  0  0  0  0  0
   46.8090   33.6606   36.7289 H   0  0  0  0  0  0  0  0  0  0  0  0
   44.5721   31.9452   37.8918 H   0  0  0  0  0  0  0  0  0  0  0  0
   44.6381   32.6026   36.2011 H   0  0  0  0  0  0  0  0  0  0  0  0
   45.5801   30.2455   36.9819 H   0  0  0  0  0  0  0  0  0  0  0  0
   47.9077   30.3233   37.0903 H   0  0  0  0  0  0  0  0  0  0  0  0
   47.8927   32.0652   36.6738 H   0  0  0  0  0  0  0  0  0  0  0  0
   46.4561   31.0026   39.1742 H   0  0  0  0  0  0  0  0  0  0  0  0
   48.4623   36.2126   42.6689 H   0  0  0  0  0  0  0  0  0  0  0  0
   49.7401   36.0608   40.5240 H   0  0  0  0  0  0  0  0  0  0  0  0
   48.9175   34.5575   38.7531 H   0  0  0  0  0  0  0  0  0  0  0  0
   45.9652   33.1866   46.1124 H   0  0  0  0  0  0  0  0  0  0  0  0
   44.1989   34.9419   46.5408 H   0  0  0  0  0  0  0  0  0  0  0  0
   43.7693   36.6385   44.7079 H   0  0  0  0  0  0  0  0  0  0  0  0
   48.4854   31.9473   40.2294 H   0  0  0  0  0  0  0  0  0  0  0  0
   49.2040   33.2864   37.6075 H   0  0  0  0  0  0  0  0  0  0  0  0
   50.2888   29.4773   38.5061 H   0  0  0  0  0  0  0  0  0  0  0  0
   50.9522   31.9150   40.2230 H   0  0  0  0  0  0  0  0  0  0  0  0
  1 13  1  0
  2  1  1  0
  3  2  1  0
  4  3  1  0
  4  5  1  0
  5  6  1  0
  6  1  1  0
  6 20  1  0
  8  7  1  0
  8  9  2  0
  9 18  1  0
 10  9  1  0
 11 10  2  0
 12 13  2  0
 12 11  1  0
 13  8  1  0
 14 15  2  0
 16 15  1  0
 17 16  2  0
 18 17  1  0
 18 19  2  0
 19 14  1  0
 21 24  1  0
 21 20  1  0
 22 21  1  0
 23 21  1  0
  2 25  1  0
  2 26  1  0
  3 27  1  0
  3 28  1  0
  4 29  1  0
  5 30  1  0
  5 31  1  0
  6 32  1  1
 10 33  1  0
 11 34  1  0
 12 35  1  0
 14 36  1  0
 15 37  1  0
 16 38  1  0
 20 39  1  0
 22 40  1  0
 23 41  1  0
 24 42  1  0
M  ISO  8  25  13  26  13  27  13  28  13  29   5  30  13  31  13  32  13
M  ISO  8  33  14  34  14  35  14  36  14  37  14  38  14  39   5  40   3
M  ISO  2  41   3  42   3
M  END
>  <minimizedAffinity>  (1) 
-5.62280464

>  <minimizedRMSD>  (1) 
0.641391158

$$$$
