
     RDKit          3D

 36 37  0  0  0  0  0  0  0  0999 V2000
   45.0040   36.3560   43.3330 C   0  0  0  0  0  0  0  0  0  0  0  0
   45.0980   34.7850   45.2340 C   0  0  0  0  0  0  0  0  0  0  0  0
   45.5130   35.1430   43.9610 C   0  0  0  0  0  0  0  0  0  0  0  0
   46.4250   34.2900   43.3340 C   0  0  0  0  0  0  0  0  0  0  0  0
   46.8540   33.1600   44.0020 N   0  0  0  0  0  0  0  0  0  0  0  0
   46.4210   32.8620   45.2310 C   0  0  0  0  0  0  0  0  0  0  0  0
   45.5280   33.6850   45.8600 N   0  0  0  0  0  0  0  0  0  0  0  0
   46.8490   34.6900   41.9860 C   0  0  0  0  0  0  0  0  0  0  0  0
   47.6950   33.6980   41.4770 F   0  0  0  0  0  0  0  0  0  0  0  0
   47.6110   35.8110   42.1350 F   0  0  0  0  0  0  0  0  0  0  0  0
   45.8100   34.7970   41.1360 F   0  0  0  0  0  0  0  0  0  0  0  0
   44.9160   37.4190   44.3340 N   0  0  0  0  0  0  0  0  0  0  0  0
   45.0010   38.6630   43.6010 C   0  0  0  0  0  0  0  0  0  0  0  0
   45.9430   39.6600   44.2210 C   0  0  0  0  0  0  0  0  0  0  0  0
   45.3840   40.5570   45.1310 N   0  0  0  0  0  0  0  0  0  0  0  0
   44.9790   40.1420   46.4030 C   0  0  0  0  0  0  0  0  0  0  0  0
   44.3920   41.4060   47.0020 C   0  0  0  0  0  0  0  0  0  0  0  0
   43.6710   41.9750   45.7960 C   0  0  0  0  0  0  0  0  0  0  0  0
   44.6920   41.6910   44.6920 C   0  0  0  0  0  0  0  0  0  0  0  0
   45.6853   36.6660   42.5269 H   0  0  0  0  0  0  0  0  0  0  0  0
   44.0060   36.1622   42.9129 H   0  0  0  0  0  0  0  0  0  0  0  0
   44.3807   35.4371   45.7539 H   0  0  0  0  0  0  0  0  0  0  0  0
   46.7830   31.9546   45.7366 H   0  0  0  0  0  0  0  0  0  0  0  0
   44.0204   37.3617   44.8395 H   0  0  0  0  0  0  0  0  0  0  0  0
   43.9975   39.1116   43.5582 H   0  0  0  0  0  0  0  0  0  0  0  0
   45.3932   38.4243   42.6014 H   0  0  0  0  0  0  0  0  0  0  0  0
   46.7289   39.0968   44.7456 H   0  0  0  0  0  0  0  0  0  0  0  0
   46.3061   40.2778   43.3865 H   0  0  0  0  0  0  0  0  0  0  0  0
   44.2218   39.3468   46.3372 H   0  0  0  0  0  0  0  0  0  0  0  0
   45.7980   39.7175   47.0022 H   0  0  0  0  0  0  0  0  0  0  0  0
   43.6951   41.1807   47.8227 H   0  0  0  0  0  0  0  0  0  0  0  0
   45.1302   42.0834   47.4562 H   0  0  0  0  0  0  0  0  0  0  0  0
   42.7193   41.4554   45.6108 H   0  0  0  0  0  0  0  0  0  0  0  0
   43.3867   43.0332   45.8925 H   0  0  0  0  0  0  0  0  0  0  0  0
   45.3788   42.5417   44.5707 H   0  0  0  0  0  0  0  0  0  0  0  0
   44.2142   41.5340   43.7137 H   0  0  0  0  0  0  0  0  0  0  0  0
  1  3  1  0
  1 12  1  0
  2  7  2  0
  3  2  1  0
  4  3  2  0
  4  5  1  0
  5  6  2  0
  6  7  1  0
  8 10  1  0
  8  4  1  0
  9  8  1  0
 11  8  1  0
 13 14  1  0
 13 12  1  0
 14 15  1  0
 15 16  1  0
 16 17  1  0
 18 17  1  0
 19 15  1  0
 19 18  1  0
  1 20  1  0
  1 21  1  0
  2 22  1  0
  6 23  1  0
 12 24  1  0
 13 25  1  0
 13 26  1  0
 14 27  1  0
 14 28  1  0
 16 29  1  0
 16 30  1  0
 17 31  1  0
 17 32  1  0
 18 33  1  0
 18 34  1  0
 19 35  1  0
 19 36  1  0
M  ISO  8  20   8  21   8  22  14  23  14  24   5  25   8  26   8  27   8
M  ISO  8  28   8  29  13  30  13  31  13  32  13  33  13  34  13  35  13
M  ISO  1  36  13
M  END
>  <minimizedAffinity>  (1) 
-3.54462385

>  <minimizedRMSD>  (1) 
1.7134366

$$$$
