
     RDKit          3D

 25 25  0  0  0  0  0  0  0  0999 V2000
   44.9000   36.1890   43.1880 C   0  0  0  0  0  0  0  0  0  0  0  0
   45.0930   34.7440   45.1680 C   0  0  0  0  0  0  0  0  0  0  0  0
   45.5280   35.0790   43.8930 C   0  0  0  0  0  0  0  0  0  0  0  0
   46.5490   34.3260   43.3570 C   0  0  0  0  0  0  0  0  0  0  0  0
   47.0850   33.2920   44.0930 N   0  0  0  0  0  0  0  0  0  0  0  0
   46.6400   32.9970   45.3190 C   0  0  0  0  0  0  0  0  0  0  0  0
   45.6220   33.7370   45.8720 N   0  0  0  0  0  0  0  0  0  0  0  0
   46.9890   34.7030   42.0070 C   0  0  0  0  0  0  0  0  0  0  0  0
   47.8930   33.7570   41.5420 F   0  0  0  0  0  0  0  0  0  0  0  0
   47.6780   35.8820   42.1450 F   0  0  0  0  0  0  0  0  0  0  0  0
   45.9640   34.7120   41.1290 F   0  0  0  0  0  0  0  0  0  0  0  0
   44.8110   37.3590   44.0660 N   0  0  0  0  0  0  0  0  0  0  0  0
   45.7170   38.3320   43.5040 C   0  0  0  0  0  0  0  0  0  0  0  0
   45.3580   39.7470   43.8730 C   0  0  0  0  0  0  0  0  0  0  0  0
   45.3140   39.9050   45.6850 S   0  0  0  0  0  0  0  0  0  0  0  0
   45.5008   36.4438   42.3025 H   0  0  0  0  0  0  0  0  0  0  0  0
   43.8864   35.8923   42.8806 H   0  0  0  0  0  0  0  0  0  0  0  0
   44.2791   35.3312   45.6183 H   0  0  0  0  0  0  0  0  0  0  0  0
   47.0870   32.1651   45.8830 H   0  0  0  0  0  0  0  0  0  0  0  0
   43.8493   37.7275   44.0784 H   0  0  0  0  0  0  0  0  0  0  0  0
   45.6967   38.2389   42.4081 H   0  0  0  0  0  0  0  0  0  0  0  0
   46.7173   38.1273   43.9132 H   0  0  0  0  0  0  0  0  0  0  0  0
   46.1110   40.4358   43.4625 H   0  0  0  0  0  0  0  0  0  0  0  0
   44.3703   39.9961   43.4579 H   0  0  0  0  0  0  0  0  0  0  0  0
   45.6481   38.7054   46.2562 H   0  0  0  0  0  0  0  0  0  0  0  0
  1  3  1  0
  1 12  1  0
  2  7  2  0
  3  2  1  0
  4  3  2  0
  4  5  1  0
  5  6  2  0
  6  7  1  0
  8 10  1  0
  8  4  1  0
  9  8  1  0
 11  8  1  0
 13 14  1  0
 13 12  1  0
 14 15  1  0
  1 16  1  0
  1 17  1  0
  2 18  1  0
  6 19  1  0
 12 20  1  0
 13 21  1  0
 13 22  1  0
 14 23  1  0
 14 24  1  0
 15 25  1  0
M  ISO  8  16   8  17   8  18  14  19  14  20   5  21   8  22   8  23   8
M  ISO  2  24   8  25  11
M  END
>  <minimizedAffinity>  (1) 
-3.62295175

>  <minimizedRMSD>  (1) 
0.421603769

$$$$
