
     RDKit          3D

 52 55  0  0  1  0  0  0  0  0999 V2000
   48.2400   33.6920   40.8630 C   0  0  0  0  0  0  0  0  0  0  0  0
   48.3500   33.3810   39.4930 C   0  0  0  0  0  0  0  0  0  0  0  0
   49.1820   32.3450   39.0620 C   0  0  0  0  0  0  0  0  0  0  0  0
   49.8510   31.6830   40.0120 N   0  0  0  0  0  0  0  0  0  0  0  0
   49.7390   31.9890   41.3220 C   0  0  0  0  0  0  0  0  0  0  0  0
   48.9470   32.9770   41.7400 N   0  0  0  0  0  0  0  0  0  0  0  0
   50.4990   31.2050   42.3580 C   0  0  2  0  0  0  0  0  0  0  0  0
   50.6690   29.7610   42.2490 C   0  0  0  0  0  0  0  0  0  0  0  0
   49.7740   30.3040   43.3090 C   0  0  2  0  0  0  0  0  0  0  0  0
   48.3270   30.1050   43.3900 C   0  0  0  0  0  0  0  0  0  0  0  0
   47.7690   28.7570   43.5580 C   0  0  0  0  0  0  0  0  0  0  0  0
   46.4240   28.8610   44.2520 C   0  0  0  0  0  0  0  0  0  0  0  0
   45.6490   30.1010   43.8030 C   0  0  0  0  0  0  0  0  0  0  0  0
   46.3810   31.3620   44.1940 C   0  0  0  0  0  0  0  0  0  0  0  0
   47.7830   30.9750   44.5280 C   0  0  0  0  0  0  0  0  0  0  0  0
   47.3500   34.7820   41.2380 C   0  0  0  0  0  0  0  0  0  0  0  0
   46.6110   34.6330   42.3360 C   0  0  0  0  0  0  0  0  0  0  0  0
   45.6790   35.6800   42.8000 C   0  0  0  0  0  0  0  0  0  0  0  0
   43.0020   33.8000   41.2740 C   0  0  1  0  0  0  0  0  0  0  0  0
   44.0700   33.7990   42.3730 C   0  0  0  0  0  0  0  0  0  0  0  0
   44.2250   35.2560   42.6020 C   0  0  2  0  0  0  0  0  0  0  0  0
   43.6380   35.9360   41.5670 O   0  0  0  0  0  0  0  0  0  0  0  0
   43.3440   35.0760   40.5480 C   0  0  0  0  0  0  0  0  0  0  0  0
   43.1310   32.6770   40.4780 O   0  0  0  0  0  0  0  0  0  0  0  0
   47.7748   33.9600   38.7554 H   0  0  0  0  0  0  0  0  0  0  0  0
   49.2816   32.0873   37.9973 H   0  0  0  0  0  0  0  0  0  0  0  0
   51.1907   32.0543   42.4594 H   0  0  0  0  0  0  0  0  0  0  0  0
   50.2381   29.2225   41.3921 H   0  0  0  0  0  0  0  0  0  0  0  0
   51.5363   29.0844   42.2433 H   0  0  0  0  0  0  0  0  0  0  0  0
   49.6929   30.2183   44.4026 H   0  0  0  0  0  0  0  0  0  0  0  0
   48.0048   30.3764   42.3738 H   0  0  0  0  0  0  0  0  0  0  0  0
   47.6398   28.2861   42.5723 H   0  0  0  0  0  0  0  0  0  0  0  0
   48.4531   28.1450   44.1642 H   0  0  0  0  0  0  0  0  0  0  0  0
   45.8309   27.9652   44.0157 H   0  0  0  0  0  0  0  0  0  0  0  0
   46.6025   28.9420   45.3344 H   0  0  0  0  0  0  0  0  0  0  0  0
   44.6570   30.0979   44.2783 H   0  0  0  0  0  0  0  0  0  0  0  0
   45.5492   30.0767   42.7078 H   0  0  0  0  0  0  0  0  0  0  0  0
   46.3766   32.0751   43.3564 H   0  0  0  0  0  0  0  0  0  0  0  0
   45.8943   31.8443   45.0545 H   0  0  0  0  0  0  0  0  0  0  0  0
   47.7976   30.4069   45.4699 H   0  0  0  0  0  0  0  0  0  0  0  0
   48.4055   31.8739   44.6482 H   0  0  0  0  0  0  0  0  0  0  0  0
   47.2900   35.6992   40.6337 H   0  0  0  0  0  0  0  0  0  0  0  0
   46.6976   33.7016   42.9148 H   0  0  0  0  0  0  0  0  0  0  0  0
   45.8550   35.8680   43.8694 H   0  0  0  0  0  0  0  0  0  0  0  0
   45.8585   36.5909   42.2100 H   0  0  0  0  0  0  0  0  0  0  0  0
   41.9593   33.7656   41.6228 H   0  0  0  0  0  0  0  0  0  0  0  0
   43.7206   33.2807   43.2781 H   0  0  0  0  0  0  0  0  0  0  0  0
   45.0003   33.2757   42.1071 H   0  0  0  0  0  0  0  0  0  0  0  0
   43.7183   35.5083   43.5452 H   0  0  0  0  0  0  0  0  0  0  0  0
   44.2113   34.9348   39.8863 H   0  0  0  0  0  0  0  0  0  0  0  0
   42.5347   35.4354   39.8955 H   0  0  0  0  0  0  0  0  0  0  0  0
   43.2231   31.8751   41.0512 H   0  0  0  0  0  0  0  0  0  0  0  0
  1 16  1  0
  1  6  1  0
  2  1  2  0
  3  2  1  0
  3  4  2  0
  4  5  1  0
  5  6  2  0
  5  7  1  0
  7  9  1  0
  8  7  1  0
  8  9  1  0
  9 10  1  0
 10 11  1  0
 10 15  1  0
 11 12  1  0
 13 14  1  0
 13 12  1  0
 14 15  1  0
 16 17  2  0
 17 18  1  0
 19 20  1  0
 20 21  1  0
 21 18  1  0
 22 21  1  0
 23 19  1  0
 23 22  1  0
 24 19  1  0
  2 25  1  0
  3 26  1  0
  7 27  1  1
  8 28  1  0
  8 29  1  0
  9 30  1  1
 10 31  1  0
 11 32  1  0
 11 33  1  0
 12 34  1  0
 12 35  1  0
 13 36  1  0
 13 37  1  0
 14 38  1  0
 14 39  1  0
 15 40  1  0
 15 41  1  0
 16 42  1  0
 17 43  1  0
 18 44  1  0
 18 45  1  0
 19 46  1  1
 20 47  1  0
 20 48  1  0
 21 49  1  1
 23 50  1  0
 23 51  1  0
 24 52  1  0
M  ISO  8  25  14  26  14  27  13  28  13  29  13  30  13  31  13  32  13
M  ISO  8  33  13  34  13  35  13  36  13  37  13  38  13  39  13  40  13
M  ISO  8  41  13  44   8  45   8  46  13  47  13  48  13  49  13  50  13
M  ISO  2  51  13  52   3
M  END
>  <minimizedAffinity>  (1) 
-4.02225685

>  <minimizedRMSD>  (1) 
5.64553833

$$$$
