
     RDKit          3D

 37 40  0  0  0  0  0  0  0  0999 V2000
   42.8120   32.2440   41.9610 F   0  0  0  0  0  0  0  0  0  0  0  0
   43.3600   33.4570   41.9540 C   0  0  0  0  0  0  0  0  0  0  0  0
   44.5170   33.6720   42.6520 C   0  0  0  0  0  0  0  0  0  0  0  0
   45.1090   34.9430   42.6560 C   0  0  0  0  0  0  0  0  0  0  0  0
   44.5630   36.0000   41.9750 C   0  0  0  0  0  0  0  0  0  0  0  0
   43.4120   35.7590   41.2900 C   0  0  0  0  0  0  0  0  0  0  0  0
   42.8000   34.5110   41.2650 C   0  0  0  0  0  0  0  0  0  0  0  0
   43.4230   33.7000   38.5110 Cl  0  0  0  0  0  0  0  0  0  0  0  0
   41.8230   33.9650   39.1900 C   0  0  0  0  0  0  0  0  0  0  0  0
   41.5690   34.3500   40.5020 C   0  0  0  0  0  0  0  0  0  0  0  0
   40.2660   34.5250   40.9140 C   0  0  0  0  0  0  0  0  0  0  0  0
   39.2430   34.3140   40.0090 C   0  0  0  0  0  0  0  0  0  0  0  0
   39.4910   33.9330   38.7070 C   0  0  0  0  0  0  0  0  0  0  0  0
   38.1570   33.6770   37.5980 Cl  0  0  0  0  0  0  0  0  0  0  0  0
   40.7980   33.7520   38.2810 C   0  0  0  0  0  0  0  0  0  0  0  0
   46.0910   31.7710   45.1660 C   0  0  0  0  0  0  0  0  0  0  0  0
   46.2470   30.9280   44.0780 C   0  0  0  0  0  0  0  0  0  0  0  0
   45.6860   31.5110   42.9860 C   0  0  0  0  0  0  0  0  0  0  0  0
   45.1920   32.6940   43.3930 N   0  0  0  0  0  0  0  0  0  0  0  0
   45.4380   32.8470   44.7100 N   0  0  0  0  0  0  0  0  0  0  0  0
   48.0100   30.4090   47.9700 C   0  0  0  0  0  0  0  0  0  0  0  0
   47.4080   31.0280   49.0770 C   0  0  0  0  0  0  0  0  0  0  0  0
   46.3480   31.9100   48.8620 C   0  0  0  0  0  0  0  0  0  0  0  0
   45.9870   32.0930   47.5740 N   0  0  0  0  0  0  0  0  0  0  0  0
   46.5580   31.5050   46.5210 C   0  0  0  0  0  0  0  0  0  0  0  0
   47.5900   30.6440   46.6990 N   0  0  0  0  0  0  0  0  0  0  0  0
   46.0393   35.0965   43.2225 H   0  0  0  0  0  0  0  0  0  0  0  0
   45.0324   36.9948   41.9819 H   0  0  0  0  0  0  0  0  0  0  0  0
   42.9468   36.5857   40.7332 H   0  0  0  0  0  0  0  0  0  0  0  0
   40.0433   34.8281   41.9477 H   0  0  0  0  0  0  0  0  0  0  0  0
   38.2022   34.4538   40.3363 H   0  0  0  0  0  0  0  0  0  0  0  0
   41.0164   33.4468   37.2470 H   0  0  0  0  0  0  0  0  0  0  0  0
   46.7439   29.9468   44.0951 H   0  0  0  0  0  0  0  0  0  0  0  0
   45.6441   31.0963   41.9680 H   0  0  0  0  0  0  0  0  0  0  0  0
   48.8459   29.7136   48.1362 H   0  0  0  0  0  0  0  0  0  0  0  0
   47.7657   30.8213   50.0965 H   0  0  0  0  0  0  0  0  0  0  0  0
   45.8384   32.4240   49.6903 H   0  0  0  0  0  0  0  0  0  0  0  0
  2  1  1  0
  2  3  2  0
  3  4  1  0
  3 19  1  0
  5  4  2  0
  6  5  1  0
  7  6  2  0
  7  2  1  0
  8  9  1  0
  9 10  2  0
 10 11  1  0
 10  7  1  0
 12 11  2  0
 13 12  1  0
 14 13  1  0
 15 13  2  0
 15  9  1  0
 16 25  1  0
 17 16  1  0
 18 19  1  0
 18 17  2  0
 19 20  1  0
 20 16  2  0
 21 22  2  0
 23 22  1  0
 24 23  2  0
 25 26  2  0
 25 24  1  0
 26 21  1  0
  4 27  1  0
  5 28  1  0
  6 29  1  0
 11 30  1  0
 12 31  1  0
 15 32  1  0
 17 33  1  0
 18 34  1  0
 21 35  1  0
 22 36  1  0
 23 37  1  0
M  ISO  8  27  14  28  14  29  14  30  14  31  14  32  14  33  14  34  14
M  ISO  3  35  14  36  14  37  14
M  END
>  <minimizedAffinity>  (1) 
-6.26909447

>  <minimizedRMSD>  (1) 
2.98076987

$$$$
