
     RDKit          3D

 34 37  0  0  0  0  0  0  0  0999 V2000
   44.8900   32.0360   40.8270 F   0  0  0  0  0  0  0  0  0  0  0  0
   44.2640   33.2050   40.9320 C   0  0  0  0  0  0  0  0  0  0  0  0
   44.5720   34.0560   41.9740 C   0  0  0  0  0  0  0  0  0  0  0  0
   43.9230   35.2840   42.0940 C   0  0  0  0  0  0  0  0  0  0  0  0
   42.9670   35.6930   41.1990 C   0  0  0  0  0  0  0  0  0  0  0  0
   42.6720   34.8300   40.1650 C   0  0  0  0  0  0  0  0  0  0  0  0
   43.3070   33.6020   40.0260 C   0  0  0  0  0  0  0  0  0  0  0  0
   42.9170   32.7750   38.8980 C   0  0  0  0  0  0  0  0  0  0  0  0
   41.7640   32.0690   38.6310 C   0  0  0  0  0  0  0  0  0  0  0  0
   41.8700   31.4210   37.3980 C   0  0  0  0  0  0  0  0  0  0  0  0
   43.0950   31.7590   36.9560 N   0  0  0  0  0  0  0  0  0  0  0  0
   43.6910   32.5370   37.8220 N   0  0  0  0  0  0  0  0  0  0  0  0
   46.2640   33.0440   44.8940 C   0  0  0  0  0  0  0  0  0  0  0  0
   47.3220   33.5600   44.1430 C   0  0  0  0  0  0  0  0  0  0  0  0
   46.8480   34.0090   42.9530 C   0  0  0  0  0  0  0  0  0  0  0  0
   45.5240   33.7780   42.9640 N   0  0  0  0  0  0  0  0  0  0  0  0
   45.1930   33.2060   44.1230 N   0  0  0  0  0  0  0  0  0  0  0  0
   47.4110   31.0200   47.7200 C   0  0  0  0  0  0  0  0  0  0  0  0
   46.5430   31.4200   48.7540 C   0  0  0  0  0  0  0  0  0  0  0  0
   45.5690   32.3860   48.4640 C   0  0  0  0  0  0  0  0  0  0  0  0
   45.5530   32.8500   47.2010 N   0  0  0  0  0  0  0  0  0  0  0  0
   46.3750   32.4740   46.2160 C   0  0  0  0  0  0  0  0  0  0  0  0
   47.3210   31.5470   46.4670 N   0  0  0  0  0  0  0  0  0  0  0  0
   44.1856   35.9457   42.9325 H   0  0  0  0  0  0  0  0  0  0  0  0
   42.4598   36.6637   41.3015 H   0  0  0  0  0  0  0  0  0  0  0  0
   41.9104   35.1227   39.4273 H   0  0  0  0  0  0  0  0  0  0  0  0
   40.8869   32.0224   39.2932 H   0  0  0  0  0  0  0  0  0  0  0  0
   41.1241   30.7819   36.9028 H   0  0  0  0  0  0  0  0  0  0  0  0
   43.5048   31.4493   36.0632 H   0  0  0  0  0  0  0  0  0  0  0  0
   48.3732   33.5968   44.4648 H   0  0  0  0  0  0  0  0  0  0  0  0
   47.4309   34.4698   42.1419 H   0  0  0  0  0  0  0  0  0  0  0  0
   48.1811   30.2630   47.9292 H   0  0  0  0  0  0  0  0  0  0  0  0
   46.6267   30.9866   49.7615 H   0  0  0  0  0  0  0  0  0  0  0  0
   44.8594   32.7437   49.2246 H   0  0  0  0  0  0  0  0  0  0  0  0
  1  2  1  0
  2  3  2  0
  3  4  1  0
  3 16  1  0
  5  4  2  0
  6  5  1  0
  7  6  2  0
  7  2  1  0
  8  7  1  0
  9  8  1  0
 10  9  2  0
 11 10  1  0
 11 12  1  0
 12  8  2  0
 13 22  1  0
 14 13  1  0
 15 16  1  0
 15 14  2  0
 16 17  1  0
 17 13  2  0
 18 19  2  0
 20 19  1  0
 21 20  2  0
 22 23  2  0
 22 21  1  0
 23 18  1  0
  4 24  1  0
  5 25  1  0
  6 26  1  0
  9 27  1  0
 10 28  1  0
 11 29  1  0
 14 30  1  0
 15 31  1  0
 18 32  1  0
 19 33  1  0
 20 34  1  0
M  ISO  8  24  14  25  14  26  14  27  14  28  14  29   9  30  14  31  14
M  ISO  3  32  14  33  14  34  14
M  END
>  <minimizedAffinity>  (1) 
-5.15990257

>  <minimizedRMSD>  (1) 
0.798348367

$$$$
