
     RDKit          3D

 28 30  0  0  0  0  0  0  0  0999 V2000
   46.2230   33.1630   44.7650 C   0  0  0  0  0  0  0  0  0  0  0  0
   47.2750   33.7130   44.0280 C   0  0  0  0  0  0  0  0  0  0  0  0
   46.7920   34.1570   42.8310 C   0  0  0  0  0  0  0  0  0  0  0  0
   45.4710   33.8870   42.8300 N   0  0  0  0  0  0  0  0  0  0  0  0
   45.1440   33.2920   43.9940 N   0  0  0  0  0  0  0  0  0  0  0  0
   45.2220   32.3790   40.4490 F   0  0  0  0  0  0  0  0  0  0  0  0
   44.4010   33.4070   40.6700 C   0  0  0  0  0  0  0  0  0  0  0  0
   44.5240   34.1440   41.8360 C   0  0  0  0  0  0  0  0  0  0  0  0
   43.6770   35.2140   42.0780 C   0  0  0  0  0  0  0  0  0  0  0  0
   42.6990   35.5850   41.1940 C   0  0  0  0  0  0  0  0  0  0  0  0
   42.5820   34.8570   40.0500 C   0  0  0  0  0  0  0  0  0  0  0  0
   43.4080   33.7870   39.7790 C   0  0  0  0  0  0  0  0  0  0  0  0
   43.2020   32.8650   38.2440 S   0  0  0  0  0  0  0  0  0  0  0  0
   47.4110   31.1480   47.5740 C   0  0  0  0  0  0  0  0  0  0  0  0
   46.5420   31.5240   48.6060 C   0  0  0  0  0  0  0  0  0  0  0  0
   45.5550   32.4680   48.3250 C   0  0  0  0  0  0  0  0  0  0  0  0
   45.5180   32.9470   47.0670 N   0  0  0  0  0  0  0  0  0  0  0  0
   46.3450   32.5900   46.0830 C   0  0  0  0  0  0  0  0  0  0  0  0
   47.3160   31.6760   46.3210 N   0  0  0  0  0  0  0  0  0  0  0  0
   48.3221   33.7777   44.3586 H   0  0  0  0  0  0  0  0  0  0  0  0
   47.3666   34.6395   42.0266 H   0  0  0  0  0  0  0  0  0  0  0  0
   43.7942   35.7843   43.0113 H   0  0  0  0  0  0  0  0  0  0  0  0
   42.0347   36.4371   41.4003 H   0  0  0  0  0  0  0  0  0  0  0  0
   41.8056   35.1304   39.3203 H   0  0  0  0  0  0  0  0  0  0  0  0
   42.9100   31.5579   38.5321 H   0  0  0  0  0  0  0  0  0  0  0  0
   48.1941   30.4038   47.7810 H   0  0  0  0  0  0  0  0  0  0  0  0
   46.6356   31.0865   49.6109 H   0  0  0  0  0  0  0  0  0  0  0  0
   44.8424   32.8045   49.0924 H   0  0  0  0  0  0  0  0  0  0  0  0
  1 18  1  0
  2  1  1  0
  3  2  2  0
  4  3  1  0
  4  5  1  0
  5  1  2  0
  6  7  1  0
  7  8  2  0
  8  9  1  0
  8  4  1  0
 10  9  2  0
 11 10  1  0
 12 11  2  0
 12  7  1  0
 13 12  1  0
 14 15  2  0
 16 15  1  0
 17 16  2  0
 18 19  2  0
 18 17  1  0
 19 14  1  0
  2 20  1  0
  3 21  1  0
  9 22  1  0
 10 23  1  0
 11 24  1  0
 13 25  1  0
 14 26  1  0
 15 27  1  0
 16 28  1  0
M  ISO  8  20  14  21  14  22  14  23  14  24  14  25  11  26  14  27  14
M  ISO  1  28  14
M  END
>  <minimizedAffinity>  (1) 
-4.61750889

>  <minimizedRMSD>  (1) 
0.281468898

$$$$
