
     RDKit          3D

 40 43  0  0  0  0  0  0  0  0999 V2000
   44.8950   33.8330   42.9320 C   0  0  0  0  0  0  0  0  0  0  0  0
   45.1560   35.1800   42.6710 C   0  0  0  0  0  0  0  0  0  0  0  0
   44.1100   35.7020   41.9780 C   0  0  0  0  0  0  0  0  0  0  0  0
   43.2280   34.6950   41.8180 N   0  0  0  0  0  0  0  0  0  0  0  0
   43.7050   33.5830   42.3910 N   0  0  0  0  0  0  0  0  0  0  0  0
   42.0760   32.4810   40.4790 F   0  0  0  0  0  0  0  0  0  0  0  0
   41.4240   33.6440   40.5160 C   0  0  0  0  0  0  0  0  0  0  0  0
   41.9870   34.7220   41.1690 C   0  0  0  0  0  0  0  0  0  0  0  0
   41.3170   35.9430   41.2150 C   0  0  0  0  0  0  0  0  0  0  0  0
   40.0920   36.1230   40.6240 C   0  0  0  0  0  0  0  0  0  0  0  0
   39.5460   35.0360   39.9770 C   0  0  0  0  0  0  0  0  0  0  0  0
   40.1990   33.8040   39.9180 C   0  0  0  0  0  0  0  0  0  0  0  0
   39.5280   32.7280   39.2080 C   0  0  0  0  0  0  0  0  0  0  0  0
   39.4490   32.4210   37.8760 C   0  0  0  0  0  0  0  0  0  0  0  0
   38.7010   31.3090   37.6930 N   0  0  0  0  0  0  0  0  0  0  0  0
   38.3050   30.9090   38.9190 C   0  0  0  0  0  0  0  0  0  0  0  0
   38.8020   31.7610   39.8230 N   0  0  0  0  0  0  0  0  0  0  0  0
   47.3420   31.2080   43.6450 C   0  0  0  0  0  0  0  0  0  0  0  0
   47.4470   31.2440   45.0480 C   0  0  0  0  0  0  0  0  0  0  0  0
   46.6600   32.1860   45.7160 C   0  0  0  0  0  0  0  0  0  0  0  0
   45.8690   32.9800   44.9740 N   0  0  0  0  0  0  0  0  0  0  0  0
   45.7700   32.9430   43.6440 C   0  0  0  0  0  0  0  0  0  0  0  0
   46.5250   32.0360   42.9550 N   0  0  0  0  0  0  0  0  0  0  0  0
   46.7580   32.2290   47.1000 O   0  0  0  0  0  0  0  0  0  0  0  0
   45.2340   30.1550   47.3680 O   0  0  0  0  0  0  0  0  0  0  0  0
   45.6380   31.4270   48.1180 P   0  0  0  0  0  0  0  0  0  0  0  0
   46.3170   30.9320   49.5740 O   0  0  0  0  0  0  0  0  0  0  0  0
   44.2160   32.3110   48.3140 O   0  0  0  0  0  0  0  0  0  0  0  0
   46.0595   35.7282   42.9762 H   0  0  0  0  0  0  0  0  0  0  0  0
   44.0044   36.7368   41.6201 H   0  0  0  0  0  0  0  0  0  0  0  0
   41.7845   36.7883   41.7412 H   0  0  0  0  0  0  0  0  0  0  0  0
   39.5699   37.0904   40.6648 H   0  0  0  0  0  0  0  0  0  0  0  0
   38.5646   35.1426   39.4917 H   0  0  0  0  0  0  0  0  0  0  0  0
   39.9261   32.9969   37.0693 H   0  0  0  0  0  0  0  0  0  0  0  0
   38.4778   30.8569   36.7949 H   0  0  0  0  0  0  0  0  0  0  0  0
   37.6795   30.0311   39.1383 H   0  0  0  0  0  0  0  0  0  0  0  0
   47.9479   30.4781   43.0880 H   0  0  0  0  0  0  0  0  0  0  0  0
   48.1170   30.5628   45.5931 H   0  0  0  0  0  0  0  0  0  0  0  0
   45.7970   31.3111   50.3264 H   0  0  0  0  0  0  0  0  0  0  0  0
   44.0298   32.4267   49.2794 H   0  0  0  0  0  0  0  0  0  0  0  0
  1 22  1  0
  2  1  1  0
  3  2  2  0
  4  3  1  0
  4  5  1  0
  5  1  2  0
  6  7  1  0
  7  8  2  0
  8  9  1  0
  8  4  1  0
 10  9  2  0
 11 10  1  0
 12 11  2  0
 12  7  1  0
 13 17  1  0
 13 12  1  0
 14 13  2  0
 15 14  1  0
 15 16  1  0
 16 17  2  0
 18 19  2  0
 19 20  1  0
 20 24  1  0
 21 20  2  0
 22 21  1  0
 23 22  2  0
 23 18  1  0
 24 26  1  0
 25 26  2  0
 26 28  1  0
 26 27  1  0
  2 29  1  0
  3 30  1  0
  9 31  1  0
 10 32  1  0
 11 33  1  0
 14 34  1  0
 15 35  1  0
 16 36  1  0
 18 37  1  0
 19 38  1  0
 27 39  1  0
 28 40  1  0
M  ISO  8  29  14  30  14  31  14  32  14  33  14  34  14  35   9  36  14
M  ISO  4  37  14  38  14  39   3  40   3
M  END
>  <minimizedAffinity>  (1) 
-6.57603407

>  <minimizedRMSD>  (1) 
3.34939957

$$$$
