
     RDKit          3D

 35 38  0  0  0  0  0  0  0  0999 V2000
   44.7260   32.0910   41.0060 F   0  0  0  0  0  0  0  0  0  0  0  0
   44.2320   33.3010   41.1870 C   0  0  0  0  0  0  0  0  0  0  0  0
   44.6850   34.0870   42.2190 C   0  0  0  0  0  0  0  0  0  0  0  0
   44.1770   35.3740   42.4300 C   0  0  0  0  0  0  0  0  0  0  0  0
   43.2100   35.8950   41.6140 C   0  0  0  0  0  0  0  0  0  0  0  0
   42.7630   35.1030   40.5850 C   0  0  0  0  0  0  0  0  0  0  0  0
   43.2540   33.8260   40.3590 C   0  0  0  0  0  0  0  0  0  0  0  0
   42.7070   33.0760   39.2360 C   0  0  0  0  0  0  0  0  0  0  0  0
   43.3030   32.5890   38.0900 C   0  0  0  0  0  0  0  0  0  0  0  0
   42.3960   31.9550   37.3350 N   0  0  0  0  0  0  0  0  0  0  0  0
   41.2280   32.0320   37.9900 C   0  0  0  0  0  0  0  0  0  0  0  0
   41.4240   32.7100   39.1360 N   0  0  0  0  0  0  0  0  0  0  0  0
   46.4990   32.7690   44.9410 C   0  0  0  0  0  0  0  0  0  0  0  0
   47.5380   33.3310   44.1880 C   0  0  0  0  0  0  0  0  0  0  0  0
   47.0110   33.8990   43.0710 C   0  0  0  0  0  0  0  0  0  0  0  0
   45.6720   33.6900   43.1370 N   0  0  0  0  0  0  0  0  0  0  0  0
   45.3910   33.0230   44.2470 N   0  0  0  0  0  0  0  0  0  0  0  0
   47.5830   30.3330   47.4320 C   0  0  0  0  0  0  0  0  0  0  0  0
   46.9490   30.7870   48.6050 C   0  0  0  0  0  0  0  0  0  0  0  0
   46.1450   31.9400   48.5240 C   0  0  0  0  0  0  0  0  0  0  0  0
   46.0670   32.5030   47.2980 N   0  0  0  0  0  0  0  0  0  0  0  0
   46.6630   32.0770   46.1940 C   0  0  0  0  0  0  0  0  0  0  0  0
   47.4460   30.9610   46.2550 N   0  0  0  0  0  0  0  0  0  0  0  0
   45.5210   32.3950   49.6560 O   0  0  0  0  0  0  0  0  0  0  0  0
   44.5616   35.9768   43.2659 H   0  0  0  0  0  0  0  0  0  0  0  0
   42.8075   36.9059   41.7755 H   0  0  0  0  0  0  0  0  0  0  0  0
   41.9854   35.4969   39.9141 H   0  0  0  0  0  0  0  0  0  0  0  0
   44.3666   32.7046   37.8343 H   0  0  0  0  0  0  0  0  0  0  0  0
   42.5631   31.4972   36.4276 H   0  0  0  0  0  0  0  0  0  0  0  0
   40.2708   31.6116   37.6480 H   0  0  0  0  0  0  0  0  0  0  0  0
   48.6046   33.3153   44.4564 H   0  0  0  0  0  0  0  0  0  0  0  0
   47.5596   34.4226   42.2742 H   0  0  0  0  0  0  0  0  0  0  0  0
   48.2122   29.4322   47.4831 H   0  0  0  0  0  0  0  0  0  0  0  0
   47.0786   30.2549   49.5590 H   0  0  0  0  0  0  0  0  0  0  0  0
   44.9521   33.2043   49.6164 H   0  0  0  0  0  0  0  0  0  0  0  0
  1  2  1  0
  2  3  2  0
  3  4  1  0
  3 16  1  0
  5  4  2  0
  6  5  1  0
  7  6  2  0
  7  2  1  0
  8  7  1  0
  9  8  2  0
 10 11  1  0
 10  9  1  0
 11 12  2  0
 12  8  1  0
 13 22  1  0
 14 13  1  0
 15 16  1  0
 15 14  2  0
 16 17  1  0
 17 13  2  0
 18 19  2  0
 20 19  1  0
 20 24  1  0
 21 20  2  0
 22 23  2  0
 22 21  1  0
 23 18  1  0
  4 25  1  0
  5 26  1  0
  6 27  1  0
  9 28  1  0
 10 29  1  0
 11 30  1  0
 14 31  1  0
 15 32  1  0
 18 33  1  0
 19 34  1  0
 24 35  1  0
M  ISO  8  25  14  26  14  27  14  28  14  29   9  30  14  31  14  32  14
M  ISO  3  33  14  34  14  35   3
M  END
>  <minimizedAffinity>  (1) 
-5.52067518

>  <minimizedRMSD>  (1) 
0.399940252

$$$$
