
     RDKit          3D

 35 38  0  0  0  0  0  0  0  0999 V2000
   44.5210   32.0110   40.8780 F   0  0  0  0  0  0  0  0  0  0  0  0
   44.1680   33.2690   41.0790 C   0  0  0  0  0  0  0  0  0  0  0  0
   44.7860   33.9960   42.0650 C   0  0  0  0  0  0  0  0  0  0  0  0
   44.4360   35.3350   42.3050 C   0  0  0  0  0  0  0  0  0  0  0  0
   43.4620   35.9570   41.5590 C   0  0  0  0  0  0  0  0  0  0  0  0
   42.8510   35.2140   40.5740 C   0  0  0  0  0  0  0  0  0  0  0  0
   43.1890   33.9000   40.3310 C   0  0  0  0  0  0  0  0  0  0  0  0
   42.4820   33.2010   39.2640 C   0  0  0  0  0  0  0  0  0  0  0  0
   42.9190   32.5120   38.1620 C   0  0  0  0  0  0  0  0  0  0  0  0
   41.8840   32.0310   37.4530 N   0  0  0  0  0  0  0  0  0  0  0  0
   40.7680   32.4160   38.1100 C   0  0  0  0  0  0  0  0  0  0  0  0
   41.1310   33.1180   39.1950 N   0  0  0  0  0  0  0  0  0  0  0  0
   46.6790   32.3620   44.5520 C   0  0  0  0  0  0  0  0  0  0  0  0
   47.6750   33.0360   43.8690 C   0  0  0  0  0  0  0  0  0  0  0  0
   47.1260   33.7400   42.8470 C   0  0  0  0  0  0  0  0  0  0  0  0
   45.7970   33.4980   42.9070 N   0  0  0  0  0  0  0  0  0  0  0  0
   45.5470   32.6830   43.9180 N   0  0  0  0  0  0  0  0  0  0  0  0
   47.9610   29.7120   46.7100 C   0  0  0  0  0  0  0  0  0  0  0  0
   47.2250   29.8950   47.8990 C   0  0  0  0  0  0  0  0  0  0  0  0
   46.2800   30.9490   47.9410 C   0  0  0  0  0  0  0  0  0  0  0  0
   46.1790   31.6810   46.8230 N   0  0  0  0  0  0  0  0  0  0  0  0
   46.8740   31.5100   45.6950 C   0  0  0  0  0  0  0  0  0  0  0  0
   47.7780   30.5060   45.6460 N   0  0  0  0  0  0  0  0  0  0  0  0
   45.2800   31.3030   49.3670 S   0  0  0  0  0  0  0  0  0  0  0  0
   44.9485   35.8945   43.1014 H   0  0  0  0  0  0  0  0  0  0  0  0
   43.1827   37.0051   41.7419 H   0  0  0  0  0  0  0  0  0  0  0  0
   42.0678   35.6842   39.9612 H   0  0  0  0  0  0  0  0  0  0  0  0
   43.9766   32.3717   37.8940 H   0  0  0  0  0  0  0  0  0  0  0  0
   41.9317   31.4800   36.5841 H   0  0  0  0  0  0  0  0  0  0  0  0
   39.7347   32.1917   37.8065 H   0  0  0  0  0  0  0  0  0  0  0  0
   48.7465   33.0060   44.1160 H   0  0  0  0  0  0  0  0  0  0  0  0
   47.6529   34.3758   42.1203 H   0  0  0  0  0  0  0  0  0  0  0  0
   48.7011   28.9001   46.6547 H   0  0  0  0  0  0  0  0  0  0  0  0
   47.3803   29.2386   48.7679 H   0  0  0  0  0  0  0  0  0  0  0  0
   46.0000   31.0481   50.5043 H   0  0  0  0  0  0  0  0  0  0  0  0
  1  2  1  0
  2  3  2  0
  3  4  1  0
  3 16  1  0
  5  4  2  0
  6  5  1  0
  7  6  2  0
  7  2  1  0
  8  7  1  0
  9  8  2  0
 10 11  1  0
 10  9  1  0
 11 12  2  0
 12  8  1  0
 13 22  1  0
 14 13  1  0
 15 16  1  0
 15 14  2  0
 16 17  1  0
 17 13  2  0
 18 19  2  0
 19 20  1  0
 20 24  1  0
 21 20  2  0
 22 21  1  0
 23 22  2  0
 23 18  1  0
  4 25  1  0
  5 26  1  0
  6 27  1  0
  9 28  1  0
 10 29  1  0
 11 30  1  0
 14 31  1  0
 15 32  1  0
 18 33  1  0
 19 34  1  0
 24 35  1  0
M  ISO  8  25  14  26  14  27  14  28  14  29   9  30  14  31  14  32  14
M  ISO  3  33  14  34  14  35  11
M  END
>  <minimizedAffinity>  (1) 
-4.99117041

>  <minimizedRMSD>  (1) 
0.970610321

$$$$
