
     RDKit          3D

 43 45  0  0  0  0  0  0  0  0999 V2000
   46.3750   30.9020   46.9080 C   0  0  0  0  0  0  0  0  0  0  0  0
   45.0860   30.4470   46.8890 C   0  0  0  0  0  0  0  0  0  0  0  0
   44.7350   29.1610   47.1580 C   0  0  0  0  0  0  0  0  0  0  0  0
   45.7220   28.2720   47.4640 C   0  0  0  0  0  0  0  0  0  0  0  0
   47.0340   28.7110   47.4900 C   0  0  0  0  0  0  0  0  0  0  0  0
   47.3640   30.0240   47.2130 C   0  0  0  0  0  0  0  0  0  0  0  0
   49.2680   30.3450   48.6710 C   0  0  0  0  0  0  0  0  0  0  0  0
   48.8340   30.6060   49.8530 O   0  0  0  0  0  0  0  0  0  0  0  0
   48.7880   30.1110   47.3410 N   0  0  0  0  0  0  0  0  0  0  0  0
   45.2540   26.8700   47.7490 C   0  0  0  0  0  0  0  0  0  0  0  0
   44.4660   26.7860   49.0370 C   0  0  0  0  0  0  0  0  0  0  0  0
   44.7380   25.3770   49.5680 C   0  0  0  0  0  0  0  0  0  0  0  0
   45.6840   24.7420   48.5710 C   0  0  0  0  0  0  0  0  0  0  0  0
   46.4180   25.9850   48.0490 C   0  0  0  0  0  0  0  0  0  0  0  0
   46.8900   32.2530   46.6320 C   0  0  0  0  0  0  0  0  0  0  0  0
   46.9720   32.5270   45.1540 C   0  0  0  0  0  0  0  0  0  0  0  0
   44.6120   35.3140   45.4560 C   0  0  0  0  0  0  0  0  0  0  0  0
   44.7240   35.9570   44.1990 C   0  0  0  0  0  0  0  0  0  0  0  0
   45.6250   35.3890   43.2910 C   0  0  0  0  0  0  0  0  0  0  0  0
   46.3230   34.2960   43.6340 N   0  0  0  0  0  0  0  0  0  0  0  0
   46.1670   33.7310   44.8540 C   0  0  0  0  0  0  0  0  0  0  0  0
   45.3390   34.2170   45.7490 N   0  0  0  0  0  0  0  0  0  0  0  0
   44.2872   31.1618   46.6421 H   0  0  0  0  0  0  0  0  0  0  0  0
   43.6814   28.8462   47.1294 H   0  0  0  0  0  0  0  0  0  0  0  0
   47.8338   27.9974   47.7372 H   0  0  0  0  0  0  0  0  0  0  0  0
   50.3660   30.2802   48.6854 H   0  0  0  0  0  0  0  0  0  0  0  0
   49.4216   30.0125   46.5349 H   0  0  0  0  0  0  0  0  0  0  0  0
   44.6697   26.5797   46.8634 H   0  0  0  0  0  0  0  0  0  0  0  0
   44.8130   27.5444   49.7542 H   0  0  0  0  0  0  0  0  0  0  0  0
   43.3931   26.9720   48.8812 H   0  0  0  0  0  0  0  0  0  0  0  0
   45.2044   25.4250   50.5631 H   0  0  0  0  0  0  0  0  0  0  0  0
   43.8100   24.7963   49.6755 H   0  0  0  0  0  0  0  0  0  0  0  0
   46.3743   24.0377   49.0582 H   0  0  0  0  0  0  0  0  0  0  0  0
   45.1924   24.1400   47.7926 H   0  0  0  0  0  0  0  0  0  0  0  0
   47.0047   25.7627   47.1455 H   0  0  0  0  0  0  0  0  0  0  0  0
   47.1561   26.4118   48.7440 H   0  0  0  0  0  0  0  0  0  0  0  0
   46.2189   32.9916   47.0947 H   0  0  0  0  0  0  0  0  0  0  0  0
   47.9046   32.3251   47.0507 H   0  0  0  0  0  0  0  0  0  0  0  0
   48.0195   32.7000   44.8664 H   0  0  0  0  0  0  0  0  0  0  0  0
   46.5861   31.6655   44.5892 H   0  0  0  0  0  0  0  0  0  0  0  0
   43.9181   35.7176   46.2081 H   0  0  0  0  0  0  0  0  0  0  0  0
   44.1358   36.8526   43.9503 H   0  0  0  0  0  0  0  0  0  0  0  0
   45.7607   35.8387   42.2964 H   0  0  0  0  0  0  0  0  0  0  0  0
  1  6  1  0
  2  1  2  0
  2  3  1  0
  3  4  2  0
  4  5  1  0
  4 10  1  0
  6  9  1  0
  6  5  2  0
  7  8  2  0
  9  7  1  0
 10 14  1  0
 10 11  1  0
 11 12  1  0
 13 12  1  0
 14 13  1  0
 15  1  1  0
 16 15  1  0
 17 22  2  0
 18 17  1  0
 19 20  1  0
 19 18  2  0
 20 21  2  0
 21 16  1  0
 21 22  1  0
  2 23  1  0
  3 24  1  0
  5 25  1  0
  7 26  1  0
  9 27  1  0
 10 28  1  0
 11 29  1  0
 11 30  1  0
 12 31  1  0
 12 32  1  0
 13 33  1  0
 13 34  1  0
 14 35  1  0
 14 36  1  0
 15 37  1  0
 15 38  1  0
 16 39  1  0
 16 40  1  0
 17 41  1  0
 18 42  1  0
 19 43  1  0
M  ISO  8  23  14  24  14  25  14  26   6  28  13  29  13  30  13  31  13
M  ISO  8  32  13  33  13  34  13  35  13  36  13  37   8  38   8  39   8
M  ISO  4  40   8  41  14  42  14  43  14
M  END
>  <minimizedAffinity>  (1) 
-4.93694687

>  <minimizedRMSD>  (1) 
2.36350393

$$$$
