
     RDKit          3D

 44 46  0  0  0  0  0  0  0  0999 V2000
   46.4680   30.9930   46.7590 C   0  0  0  0  0  0  0  0  0  0  0  0
   45.3110   30.8700   47.4830 C   0  0  0  0  0  0  0  0  0  0  0  0
   44.8010   29.6810   47.9020 C   0  0  0  0  0  0  0  0  0  0  0  0
   45.4720   28.5500   47.5890 C   0  0  0  0  0  0  0  0  0  0  0  0
   46.6600   28.6380   46.8510 C   0  0  0  0  0  0  0  0  0  0  0  0
   47.1480   29.8570   46.4430 C   0  0  0  0  0  0  0  0  0  0  0  0
   44.8870   27.2360   48.0630 C   0  0  0  0  0  0  0  0  0  0  0  0
   44.3480   27.4350   49.4480 C   0  0  0  0  0  0  0  0  0  0  0  0
   43.9960   26.0460   49.9690 C   0  0  0  0  0  0  0  0  0  0  0  0
   45.1730   25.3550   50.1350 O   0  0  0  0  0  0  0  0  0  0  0  0
   45.6680   25.0020   48.8880 C   0  0  0  0  0  0  0  0  0  0  0  0
   45.9800   26.1940   48.0240 C   0  0  0  0  0  0  0  0  0  0  0  0
   49.5100   29.3340   46.5620 C   0  0  0  0  0  0  0  0  0  0  0  0
   49.8430   29.3180   47.8030 O   0  0  0  0  0  0  0  0  0  0  0  0
   48.3610   29.5650   45.7380 N   0  0  0  0  0  0  0  0  0  0  0  0
   47.1150   32.2020   46.2330 C   0  0  0  0  0  0  0  0  0  0  0  0
   46.7930   32.4180   44.7780 C   0  0  0  0  0  0  0  0  0  0  0  0
   44.6460   35.2970   45.5000 C   0  0  0  0  0  0  0  0  0  0  0  0
   44.7000   36.0420   44.3050 C   0  0  0  0  0  0  0  0  0  0  0  0
   45.4940   35.5070   43.2780 C   0  0  0  0  0  0  0  0  0  0  0  0
   46.1490   34.3490   43.4690 N   0  0  0  0  0  0  0  0  0  0  0  0
   46.0500   33.6890   44.6430 C   0  0  0  0  0  0  0  0  0  0  0  0
   45.3260   34.1350   45.6390 N   0  0  0  0  0  0  0  0  0  0  0  0
   44.7621   31.7878   47.7406 H   0  0  0  0  0  0  0  0  0  0  0  0
   43.8664   29.6406   48.4808 H   0  0  0  0  0  0  0  0  0  0  0  0
   47.2092   27.7200   46.5948 H   0  0  0  0  0  0  0  0  0  0  0  0
   44.0622   26.8946   47.4202 H   0  0  0  0  0  0  0  0  0  0  0  0
   45.1092   27.9020   50.0903 H   0  0  0  0  0  0  0  0  0  0  0  0
   43.4699   28.0976   49.4459 H   0  0  0  0  0  0  0  0  0  0  0  0
   43.4701   26.1284   50.9316 H   0  0  0  0  0  0  0  0  0  0  0  0
   43.3368   25.5227   49.2607 H   0  0  0  0  0  0  0  0  0  0  0  0
   46.5902   24.4190   49.0284 H   0  0  0  0  0  0  0  0  0  0  0  0
   44.8889   24.4178   48.3764 H   0  0  0  0  0  0  0  0  0  0  0  0
   46.1069   25.8540   46.9856 H   0  0  0  0  0  0  0  0  0  0  0  0
   46.8991   26.6576   48.4117 H   0  0  0  0  0  0  0  0  0  0  0  0
   50.3816   29.0951   45.9349 H   0  0  0  0  0  0  0  0  0  0  0  0
   48.4038   29.5240   44.7097 H   0  0  0  0  0  0  0  0  0  0  0  0
   46.7659   33.0721   46.8083 H   0  0  0  0  0  0  0  0  0  0  0  0
   48.2037   32.0773   46.3284 H   0  0  0  0  0  0  0  0  0  0  0  0
   47.7249   32.4699   44.1959 H   0  0  0  0  0  0  0  0  0  0  0  0
   46.1830   31.5842   44.4003 H   0  0  0  0  0  0  0  0  0  0  0  0
   44.0379   35.6680   46.3382 H   0  0  0  0  0  0  0  0  0  0  0  0
   44.1518   36.9879   44.1838 H   0  0  0  0  0  0  0  0  0  0  0  0
   45.5800   36.0356   42.3171 H   0  0  0  0  0  0  0  0  0  0  0  0
  1  2  2  0
  2  3  1  0
  4  3  2  0
  4  7  1  0
  5  4  1  0
  6  1  1  0
  6  5  2  0
  7  8  1  0
  8  9  1  0
  9 10  1  0
 11 10  1  0
 12  7  1  0
 12 11  1  0
 13 14  2  0
 15  6  1  0
 15 13  1  0
 16  1  1  0
 17 16  1  0
 18 23  2  0
 19 18  1  0
 20 21  1  0
 20 19  2  0
 21 22  2  0
 22 17  1  0
 22 23  1  0
  2 24  1  0
  3 25  1  0
  5 26  1  0
  7 27  1  0
  8 28  1  0
  8 29  1  0
  9 30  1  0
  9 31  1  0
 11 32  1  0
 11 33  1  0
 12 34  1  0
 12 35  1  0
 13 36  1  0
 15 37  1  0
 16 38  1  0
 16 39  1  0
 17 40  1  0
 17 41  1  0
 18 42  1  0
 19 43  1  0
 20 44  1  0
M  ISO  8  24  14  25  14  26  14  27  13  28  13  29  13  30  13  31  13
M  ISO  8  32  13  33  13  34  13  35  13  36   6  38   8  39   8  40   8
M  ISO  4  41   8  42  14  43  14  44  14
M  END
>  <minimizedAffinity>  (1) 
-4.79051161

>  <minimizedRMSD>  (1) 
1.85761046

$$$$
