
     RDKit          3D

 45 48  0  0  0  0  0  0  0  0999 V2000
   49.8670   30.3220   43.3440 C   0  0  0  0  0  0  0  0  0  0  0  0
   48.5980   30.4090   43.8560 C   0  0  0  0  0  0  0  0  0  0  0  0
   48.0950   29.5370   44.7830 C   0  0  0  0  0  0  0  0  0  0  0  0
   48.8730   28.5410   45.2220 C   0  0  0  0  0  0  0  0  0  0  0  0
   50.1810   28.4170   44.7260 C   0  0  0  0  0  0  0  0  0  0  0  0
   50.6710   29.3050   43.7940 C   0  0  0  0  0  0  0  0  0  0  0  0
   48.2650   27.6360   46.2200 C   0  0  0  0  0  0  0  0  0  0  0  0
   48.9730   26.6310   46.7810 C   0  0  0  0  0  0  0  0  0  0  0  0
   48.3700   25.8030   47.7110 C   0  0  0  0  0  0  0  0  0  0  0  0
   47.0440   25.9690   48.0930 C   0  0  0  0  0  0  0  0  0  0  0  0
   46.4910   25.1600   48.9870 N   0  0  0  0  0  0  0  0  0  0  0  0
   45.1910   25.3670   49.3250 C   0  0  0  0  0  0  0  0  0  0  0  0
   44.4050   26.3760   48.7890 C   0  0  0  0  0  0  0  0  0  0  0  0
   45.0240   27.1840   47.8710 C   0  0  0  0  0  0  0  0  0  0  0  0
   46.3410   27.0060   47.5030 C   0  0  0  0  0  0  0  0  0  0  0  0
   46.9260   27.8420   46.5730 C   0  0  0  0  0  0  0  0  0  0  0  0
   53.0070   29.5400   44.3660 C   0  0  0  0  0  0  0  0  0  0  0  0
   53.1000   30.4360   45.2850 O   0  0  0  0  0  0  0  0  0  0  0  0
   52.0180   28.8970   43.5470 N   0  0  0  0  0  0  0  0  0  0  0  0
   50.5230   31.1600   42.3320 C   0  0  0  0  0  0  0  0  0  0  0  0
   49.5420   31.6240   41.2790 C   0  0  0  0  0  0  0  0  0  0  0  0
   49.8420   35.0770   42.4650 C   0  0  0  0  0  0  0  0  0  0  0  0
   48.9780   35.7780   41.5870 C   0  0  0  0  0  0  0  0  0  0  0  0
   48.3250   35.0170   40.6100 C   0  0  0  0  0  0  0  0  0  0  0  0
   48.5310   33.6950   40.5390 N   0  0  0  0  0  0  0  0  0  0  0  0
   49.3690   33.0810   41.4060 C   0  0  0  0  0  0  0  0  0  0  0  0
   50.0090   33.7340   42.3410 N   0  0  0  0  0  0  0  0  0  0  0  0
   47.9491   31.2239   43.5025 H   0  0  0  0  0  0  0  0  0  0  0  0
   47.0684   29.6530   45.1608 H   0  0  0  0  0  0  0  0  0  0  0  0
   50.8228   27.5997   45.0866 H   0  0  0  0  0  0  0  0  0  0  0  0
   50.0244   26.4719   46.4994 H   0  0  0  0  0  0  0  0  0  0  0  0
   48.9574   24.9893   48.1614 H   0  0  0  0  0  0  0  0  0  0  0  0
   44.7356   24.6948   50.0672 H   0  0  0  0  0  0  0  0  0  0  0  0
   43.3542   26.5185   49.0813 H   0  0  0  0  0  0  0  0  0  0  0  0
   44.4504   28.0027   47.4120 H   0  0  0  0  0  0  0  0  0  0  0  0
   46.3480   28.6586   46.1157 H   0  0  0  0  0  0  0  0  0  0  0  0
   54.0041   29.1380   44.1333 H   0  0  0  0  0  0  0  0  0  0  0  0
   52.2615   28.1941   42.8346 H   0  0  0  0  0  0  0  0  0  0  0  0
   50.9611   32.0401   42.8255 H   0  0  0  0  0  0  0  0  0  0  0  0
   51.3023   30.5605   41.8387 H   0  0  0  0  0  0  0  0  0  0  0  0
   48.5746   31.1218   41.4271 H   0  0  0  0  0  0  0  0  0  0  0  0
   49.9224   31.3771   40.2768 H   0  0  0  0  0  0  0  0  0  0  0  0
   50.3813   35.6239   43.2525 H   0  0  0  0  0  0  0  0  0  0  0  0
   48.8281   36.8647   41.6690 H   0  0  0  0  0  0  0  0  0  0  0  0
   47.6417   35.5052   39.8995 H   0  0  0  0  0  0  0  0  0  0  0  0
  1  6  1  0
  1  2  2  0
  2  3  1  0
  3  4  2  0
  4  7  1  0
  5  4  1  0
  6  5  2  0
  7 16  1  0
  7  8  2  0
  8  9  1  0
  9 10  2  0
 10 11  1  0
 11 12  2  0
 13 12  1  0
 14 13  2  0
 15 14  1  0
 15 10  1  0
 16 15  2  0
 17 18  2  0
 19  6  1  0
 19 17  1  0
 20  1  1  0
 21 26  1  0
 21 20  1  0
 23 22  2  0
 24 23  1  0
 25 24  2  0
 25 26  1  0
 26 27  2  0
 27 22  1  0
  2 28  1  0
  3 29  1  0
  5 30  1  0
  8 31  1  0
  9 32  1  0
 12 33  1  0
 13 34  1  0
 14 35  1  0
 16 36  1  0
 17 37  1  0
 19 38  1  0
 20 39  1  0
 20 40  1  0
 21 41  1  0
 21 42  1  0
 22 43  1  0
 23 44  1  0
 24 45  1  0
M  ISO  8  28  14  29  14  30  14  31  14  32  14  33  14  34  14  35  14
M  ISO  8  36  14  37   6  39   8  40   8  41   8  42   8  43  14  44  14
M  ISO  1  45  14
M  END
>  <minimizedAffinity>  (1) 
-4.4297266

>  <minimizedRMSD>  (1) 
5.4805069

$$$$
