
     RDKit          3D

 18 18  0  0  0  0  0  0  0  0999 V2000
   46.2070   34.8570   43.3480 C   0  0  0  0  0  0  0  0  0  0  0  0
   46.4430   33.9770   44.3970 C   0  0  0  0  0  0  0  0  0  0  0  0
   45.6620   34.0710   45.5410 C   0  0  0  0  0  0  0  0  0  0  0  0
   44.6920   35.0380   45.5640 N   0  0  0  0  0  0  0  0  0  0  0  0
   44.4940   35.8720   44.5290 C   0  0  0  0  0  0  0  0  0  0  0  0
   45.2470   35.8020   43.3940 N   0  0  0  0  0  0  0  0  0  0  0  0
   47.4880   33.0400   44.1860 N   0  0  0  0  0  0  0  0  0  0  0  0
   47.0000   34.8740   42.0690 C   0  0  0  0  0  0  0  0  0  0  0  0
   46.0690   34.2960   41.0030 C   0  0  0  0  0  0  0  0  0  0  0  0
   45.8161   33.3955   46.3954 H   0  0  0  0  0  0  0  0  0  0  0  0
   43.7023   36.6325   44.5992 H   0  0  0  0  0  0  0  0  0  0  0  0
   47.7214   32.3552   44.9191 H   0  0  0  0  0  0  0  0  0  0  0  0
   48.0129   33.0449   43.2998 H   0  0  0  0  0  0  0  0  0  0  0  0
   47.2892   35.9031   41.8097 H   0  0  0  0  0  0  0  0  0  0  0  0
   47.9295   34.2925   42.1576 H   0  0  0  0  0  0  0  0  0  0  0  0
   45.2313   33.7759   41.4907 H   0  0  0  0  0  0  0  0  0  0  0  0
   45.6792   35.1111   40.3756 H   0  0  0  0  0  0  0  0  0  0  0  0
   46.6266   33.5850   40.3756 H   0  0  0  0  0  0  0  0  0  0  0  0
  1  6  2  0
  1  2  1  0
  2  3  2  0
  3  4  1  0
  5  4  2  0
  6  5  1  0
  7  2  1  0
  8  1  1  0
  9  8  1  0
  3 10  1  0
  5 11  1  0
  7 12  1  0
  7 13  1  0
  8 14  1  0
  8 15  1  0
  9 16  1  0
  9 17  1  0
  9 18  1  0
M  ISO  7  10  14  11  14  14   8  15   8  16   8  17   8  18   8
M  END
>  <minimizedAffinity>  (1) 
-3.4368279

>  <minimizedRMSD>  (1) 
3.68711376

$$$$
