
     RDKit          3D

 14 14  0  0  0  0  0  0  0  0999 V2000
   44.7840   35.5750   44.1630 C   0  0  0  0  0  0  0  0  0  0  0  0
   44.3720   35.1260   42.8910 C   0  0  0  0  0  0  0  0  0  0  0  0
   44.5520   33.7840   42.5980 C   0  0  0  0  0  0  0  0  0  0  0  0
   45.1060   32.9790   43.5310 N   0  0  0  0  0  0  0  0  0  0  0  0
   45.4920   33.4430   44.7470 C   0  0  0  0  0  0  0  0  0  0  0  0
   45.3280   34.7410   45.0570 N   0  0  0  0  0  0  0  0  0  0  0  0
   44.6770   36.9200   44.6360 N   0  0  0  0  0  0  0  0  0  0  0  0
   43.8090   36.1170   42.0350 N   0  0  0  0  0  0  0  0  0  0  0  0
   44.2486   33.3801   41.6209 H   0  0  0  0  0  0  0  0  0  0  0  0
   45.9397   32.7558   45.4800 H   0  0  0  0  0  0  0  0  0  0  0  0
   44.2724   37.6483   44.0303 H   0  0  0  0  0  0  0  0  0  0  0  0
   45.0045   37.1607   45.5824 H   0  0  0  0  0  0  0  0  0  0  0  0
   43.4866   35.8594   41.0913 H   0  0  0  0  0  0  0  0  0  0  0  0
   43.7245   37.0907   42.3602 H   0  0  0  0  0  0  0  0  0  0  0  0
  1  7  1  0
  1  6  2  0
  2  1  1  0
  3  2  2  0
  3  4  1  0
  4  5  2  0
  5  6  1  0
  8  2  1  0
  3  9  1  0
  5 10  1  0
  7 11  1  0
  7 12  1  0
  8 13  1  0
  8 14  1  0
M  ISO  2   9  14  10  14
M  END
>  <minimizedAffinity>  (1) 
-3.08373523

>  <minimizedRMSD>  (1) 
0.806979835

$$$$
