
     RDKit          3D

 13 13  0  0  0  0  0  0  0  0999 V2000
   44.8950   35.2700   43.1780 C   0  0  0  0  0  0  0  0  0  0  0  0
   43.8780   35.1230   42.2370 C   0  0  0  0  0  0  0  0  0  0  0  0
   44.1990   34.6380   40.9600 C   0  0  0  0  0  0  0  0  0  0  0  0
   45.5040   34.3420   40.7300 N   0  0  0  0  0  0  0  0  0  0  0  0
   46.4650   34.4950   41.6570 C   0  0  0  0  0  0  0  0  0  0  0  0
   46.1820   34.9620   42.9030 N   0  0  0  0  0  0  0  0  0  0  0  0
   42.5680   35.4970   42.6990 N   0  0  0  0  0  0  0  0  0  0  0  0
   44.5620   35.8820   44.8270 S   0  0  0  0  0  0  0  0  0  0  0  0
   43.4313   34.5042   40.1836 H   0  0  0  0  0  0  0  0  0  0  0  0
   47.5036   34.2369   41.4025 H   0  0  0  0  0  0  0  0  0  0  0  0
   41.7578   35.4197   42.0677 H   0  0  0  0  0  0  0  0  0  0  0  0
   42.4403   35.8420   43.6610 H   0  0  0  0  0  0  0  0  0  0  0  0
   45.0457   34.9930   45.7504 H   0  0  0  0  0  0  0  0  0  0  0  0
  1  8  1  0
  2  7  1  0
  2  1  2  0
  3  2  1  0
  4  3  2  0
  4  5  1  0
  5  6  2  0
  6  1  1  0
  3  9  1  0
  5 10  1  0
  7 11  1  0
  7 12  1  0
  8 13  1  0
M  ISO  3   9  14  10  14  13  11
M  END
>  <minimizedAffinity>  (1) 
-3.07360983

>  <minimizedRMSD>  (1) 
2.63744783

$$$$
