
     RDKit          3D

 26 27  0  0  0  0  0  0  0  0999 V2000
   46.7360   32.7760   45.3940 C   0  0  0  0  0  0  0  0  0  0  0  0
   44.5430   35.6720   44.7790 C   0  0  0  0  0  0  0  0  0  0  0  0
   44.9390   36.0980   43.4920 C   0  0  0  0  0  0  0  0  0  0  0  0
   45.9500   35.3550   42.9040 C   0  0  0  0  0  0  0  0  0  0  0  0
   46.4860   34.2970   43.5690 N   0  0  0  0  0  0  0  0  0  0  0  0
   46.0590   33.9440   44.8030 C   0  0  0  0  0  0  0  0  0  0  0  0
   45.0920   34.6240   45.4130 N   0  0  0  0  0  0  0  0  0  0  0  0
   46.1710   32.6220   46.7850 C   0  0  0  0  0  0  0  0  0  0  0  0
   45.4200   31.6900   49.5610 Cl  0  0  0  0  0  0  0  0  0  0  0  0
   45.4090   30.6560   48.1300 C   0  0  0  0  0  0  0  0  0  0  0  0
   45.7710   31.1740   46.9090 C   0  0  0  0  0  0  0  0  0  0  0  0
   45.7530   30.3310   45.7960 C   0  0  0  0  0  0  0  0  0  0  0  0
   45.3640   29.0250   46.0210 C   0  0  0  0  0  0  0  0  0  0  0  0
   45.0010   28.4920   47.2370 C   0  0  0  0  0  0  0  0  0  0  0  0
   45.0240   29.3470   48.3420 C   0  0  0  0  0  0  0  0  0  0  0  0
   47.8216   32.9473   45.4400 H   0  0  0  0  0  0  0  0  0  0  0  0
   46.5720   31.8702   44.7919 H   0  0  0  0  0  0  0  0  0  0  0  0
   43.7425   36.2283   45.2886 H   0  0  0  0  0  0  0  0  0  0  0  0
   44.4763   36.9609   42.9906 H   0  0  0  0  0  0  0  0  0  0  0  0
   46.3180   35.6203   41.9019 H   0  0  0  0  0  0  0  0  0  0  0  0
   46.9324   32.8747   47.5376 H   0  0  0  0  0  0  0  0  0  0  0  0
   45.3156   33.2935   46.9507 H   0  0  0  0  0  0  0  0  0  0  0  0
   46.0335   30.6878   44.7940 H   0  0  0  0  0  0  0  0  0  0  0  0
   45.3424   28.3514   45.1517 H   0  0  0  0  0  0  0  0  0  0  0  0
   44.7052   27.4371   47.3348 H   0  0  0  0  0  0  0  0  0  0  0  0
   44.7455   28.9902   49.3445 H   0  0  0  0  0  0  0  0  0  0  0  0
  1  8  1  0
  2  7  2  0
  3  2  1  0
  4  3  2  0
  4  5  1  0
  5  6  2  0
  6  1  1  0
  6  7  1  0
  8 11  1  0
 10 15  2  0
 10  9  1  0
 11 10  1  0
 12 13  1  0
 12 11  2  0
 13 14  2  0
 14 15  1  0
  1 16  1  0
  1 17  1  0
  2 18  1  0
  3 19  1  0
  4 20  1  0
  8 21  1  0
  8 22  1  0
 12 23  1  0
 13 24  1  0
 14 25  1  0
 15 26  1  0
M  ISO  8  16   8  17   8  18  14  19  14  20  14  21   8  22   8  23  14
M  ISO  3  24  14  25  14  26  14
M  END
>  <minimizedAffinity>  (1) 
-4.65944052

>  <minimizedRMSD>  (1) 
1.99666405

$$$$
