
     RDKit          3D

 27 28  0  0  0  0  0  0  0  0999 V2000
   44.3100   35.1300   42.4960 C   0  0  0  0  0  0  0  0  0  0  0  0
   44.2220   33.8640   42.5920 O   0  0  0  0  0  0  0  0  0  0  0  0
   45.1830   35.7040   43.4730 N   0  0  0  0  0  0  0  0  0  0  0  0
   45.7000   34.6310   44.3120 C   0  0  0  0  0  0  0  0  0  0  0  0
   45.2820   34.3770   45.5940 C   0  0  0  0  0  0  0  0  0  0  0  0
   45.8970   33.3020   46.2340 C   0  0  0  0  0  0  0  0  0  0  0  0
   46.8330   32.6130   45.5530 N   0  0  0  0  0  0  0  0  0  0  0  0
   47.2110   32.8960   44.3010 C   0  0  0  0  0  0  0  0  0  0  0  0
   46.6340   33.9350   43.6500 N   0  0  0  0  0  0  0  0  0  0  0  0
   44.2860   35.2110   46.1370 N   0  0  0  0  0  0  0  0  0  0  0  0
   43.6480   35.9400   41.5510 O   0  0  0  0  0  0  0  0  0  0  0  0
   42.4310   35.5090   41.0320 C   0  0  0  0  0  0  0  0  0  0  0  0
   41.2000   35.4340   41.6620 C   0  0  0  0  0  0  0  0  0  0  0  0
   40.1170   34.9660   40.9280 C   0  0  0  0  0  0  0  0  0  0  0  0
   40.2530   34.5850   39.6070 C   0  0  0  0  0  0  0  0  0  0  0  0
   41.4810   34.6610   38.9780 C   0  0  0  0  0  0  0  0  0  0  0  0
   42.5620   35.1240   39.7010 C   0  0  0  0  0  0  0  0  0  0  0  0
   45.4077   36.7048   43.5672 H   0  0  0  0  0  0  0  0  0  0  0  0
   45.6262   33.0249   47.2635 H   0  0  0  0  0  0  0  0  0  0  0  0
   47.9835   32.2904   43.8045 H   0  0  0  0  0  0  0  0  0  0  0  0
   43.9470   35.0510   47.0964 H   0  0  0  0  0  0  0  0  0  0  0  0
   43.8964   35.9811   45.5749 H   0  0  0  0  0  0  0  0  0  0  0  0
   41.0830   35.7362   42.7132 H   0  0  0  0  0  0  0  0  0  0  0  0
   39.1301   34.8974   41.4090 H   0  0  0  0  0  0  0  0  0  0  0  0
   39.3771   34.2184   39.0517 H   0  0  0  0  0  0  0  0  0  0  0  0
   41.5945   34.3597   37.9262 H   0  0  0  0  0  0  0  0  0  0  0  0
   43.5468   35.1900   39.2153 H   0  0  0  0  0  0  0  0  0  0  0  0
  1  2  2  0
  1  3  1  0
  3  4  1  0
  4  5  2  0
  5 10  1  0
  5  6  1  0
  7  6  2  0
  8  7  1  0
  9  8  2  0
  9  4  1  0
 11  1  1  0
 12 11  1  0
 12 13  2  0
 14 13  1  0
 15 14  2  0
 16 15  1  0
 16 17  2  0
 17 12  1  0
  3 18  1  0
  6 19  1  0
  8 20  1  0
 10 21  1  0
 10 22  1  0
 13 23  1  0
 14 24  1  0
 15 25  1  0
 16 26  1  0
 17 27  1  0
M  ISO  7  19  14  20  14  23  14  24  14  25  14  26  14  27  14
M  END
>  <minimizedAffinity>  (1) 
-5.4986124

>  <minimizedRMSD>  (1) 
0.606373608

$$$$
