
     RDKit          3D

 32 33  0  0  0  0  0  0  0  0999 V2000
   46.4590   32.7260   45.0750 C   0  0  0  0  0  0  0  0  0  0  0  0
   44.5750   35.8750   44.5150 C   0  0  0  0  0  0  0  0  0  0  0  0
   45.0590   36.2840   43.2440 C   0  0  0  0  0  0  0  0  0  0  0  0
   46.0060   35.4690   42.6350 C   0  0  0  0  0  0  0  0  0  0  0  0
   46.3990   34.3540   43.2830 N   0  0  0  0  0  0  0  0  0  0  0  0
   45.9180   33.9900   44.4960 C   0  0  0  0  0  0  0  0  0  0  0  0
   45.0050   34.7490   45.1170 N   0  0  0  0  0  0  0  0  0  0  0  0
   46.7380   33.0380   46.5480 C   0  0  0  0  0  0  0  0  0  0  0  0
   45.8080   32.1450   47.3540 C   0  0  0  0  0  0  0  0  0  0  0  0
   45.6740   30.7800   46.7700 C   0  0  0  0  0  0  0  0  0  0  0  0
   45.8370   29.6620   47.7500 C   0  0  0  0  0  0  0  0  0  0  0  0
   45.0520   29.8740   49.0220 C   0  0  0  0  0  0  0  0  0  0  0  0
   45.1900   31.2850   49.5470 C   0  0  0  0  0  0  0  0  0  0  0  0
   46.3010   31.9900   48.7790 C   0  0  0  0  0  0  0  0  0  0  0  0
   47.3868   32.4340   44.5614 H   0  0  0  0  0  0  0  0  0  0  0  0
   45.7533   31.8899   44.9613 H   0  0  0  0  0  0  0  0  0  0  0  0
   43.8248   36.4977   45.0244 H   0  0  0  0  0  0  0  0  0  0  0  0
   44.7001   37.2056   42.7625 H   0  0  0  0  0  0  0  0  0  0  0  0
   46.4237   35.7269   41.6506 H   0  0  0  0  0  0  0  0  0  0  0  0
   47.7871   32.8157   46.7928 H   0  0  0  0  0  0  0  0  0  0  0  0
   46.5668   34.1012   46.7720 H   0  0  0  0  0  0  0  0  0  0  0  0
   44.8276   32.6434   47.3329 H   0  0  0  0  0  0  0  0  0  0  0  0
   44.6742   30.6970   46.3188 H   0  0  0  0  0  0  0  0  0  0  0  0
   46.4890   30.6735   46.0390 H   0  0  0  0  0  0  0  0  0  0  0  0
   45.4946   28.7293   47.2780 H   0  0  0  0  0  0  0  0  0  0  0  0
   46.9014   29.6167   48.0237 H   0  0  0  0  0  0  0  0  0  0  0  0
   43.9895   29.6728   48.8208 H   0  0  0  0  0  0  0  0  0  0  0  0
   45.4507   29.1885   49.7843 H   0  0  0  0  0  0  0  0  0  0  0  0
   44.2426   31.8259   49.4059 H   0  0  0  0  0  0  0  0  0  0  0  0
   45.4344   31.2618   50.6193 H   0  0  0  0  0  0  0  0  0  0  0  0
   47.2198   31.3856   48.7996 H   0  0  0  0  0  0  0  0  0  0  0  0
   46.5362   32.9667   49.2269 H   0  0  0  0  0  0  0  0  0  0  0  0
  1  8  1  0
  2  7  2  0
  3  2  1  0
  4  3  2  0
  4  5  1  0
  5  6  2  0
  6  1  1  0
  6  7  1  0
  8  9  1  0
  9 14  1  0
 10  9  1  0
 10 11  1  0
 11 12  1  0
 12 13  1  0
 14 13  1  0
  1 15  1  0
  1 16  1  0
  2 17  1  0
  3 18  1  0
  4 19  1  0
  8 20  1  0
  8 21  1  0
  9 22  1  0
 10 23  1  0
 10 24  1  0
 11 25  1  0
 11 26  1  0
 12 27  1  0
 12 28  1  0
 13 29  1  0
 13 30  1  0
 14 31  1  0
 14 32  1  0
M  ISO  8  15   8  16   8  17  14  18  14  19  14  20   8  21   8  22  13
M  ISO  8  23  13  24  13  25  13  26  13  27  13  28  13  29  13  30  13
M  ISO  2  31  13  32  13
M  END
>  <minimizedAffinity>  (1) 
-4.63955879

>  <minimizedRMSD>  (1) 
1.70536375

$$$$
