
     RDKit          3D

 20 20  0  0  0  0  0  0  0  0999 V2000
   45.1000   35.2730   42.8730 C   0  0  0  0  0  0  0  0  0  0  0  0
   45.0070   34.9940   44.2140 C   0  0  0  0  0  0  0  0  0  0  0  0
   46.0210   34.2050   44.7460 C   0  0  0  0  0  0  0  0  0  0  0  0
   46.9950   33.7840   43.9280 N   0  0  0  0  0  0  0  0  0  0  0  0
   47.0510   34.0780   42.6200 C   0  0  0  0  0  0  0  0  0  0  0  0
   46.0790   34.8470   42.0600 N   0  0  0  0  0  0  0  0  0  0  0  0
   43.2280   35.1970   41.4700 C   0  0  0  0  0  0  0  0  0  0  0  0
   43.4820   33.9640   41.6830 O   0  0  0  0  0  0  0  0  0  0  0  0
   44.1400   36.0790   42.1310 N   0  0  0  0  0  0  0  0  0  0  0  0
   42.1790   35.6830   40.6770 O   0  0  0  0  0  0  0  0  0  0  0  0
   40.8500   35.6020   41.1670 C   0  0  0  0  0  0  0  0  0  0  0  0
   40.1440   36.7650   40.8500 F   0  0  0  0  0  0  0  0  0  0  0  0
   40.2270   34.4760   40.6750 F   0  0  0  0  0  0  0  0  0  0  0  0
   40.9650   35.6110   42.5440 F   0  0  0  0  0  0  0  0  0  0  0  0
   43.9090   35.5220   44.9200 N   0  0  0  0  0  0  0  0  0  0  0  0
   46.0234   33.9333   45.8119 H   0  0  0  0  0  0  0  0  0  0  0  0
   47.8793   33.6988   42.0034 H   0  0  0  0  0  0  0  0  0  0  0  0
   44.1210   37.1080   42.0894 H   0  0  0  0  0  0  0  0  0  0  0  0
   43.8058   35.3338   45.9274 H   0  0  0  0  0  0  0  0  0  0  0  0
   43.2090   36.0964   44.4290 H   0  0  0  0  0  0  0  0  0  0  0  0
  1  2  2  0
  2  3  1  0
  2 15  1  0
  4  3  2  0
  5  4  1  0
  6  5  2  0
  6  1  1  0
  7  8  2  0
  7  9  1  0
  9  1  1  0
 10 11  1  0
 10  7  1  0
 11 14  1  0
 12 11  1  0
 13 11  1  0
  3 16  1  0
  5 17  1  0
  9 18  1  0
 15 19  1  0
 15 20  1  0
M  ISO  2  16  14  17  14
M  END
>  <minimizedAffinity>  (1) 
-4.6827693

>  <minimizedRMSD>  (1) 
1.83662391

$$$$
