
     RDKit          3D

 23 23  0  0  0  0  0  0  0  0999 V2000
   45.6640   34.6310   44.3080 C   0  0  0  0  0  0  0  0  0  0  0  0
   45.2810   34.3760   45.5990 C   0  0  0  0  0  0  0  0  0  0  0  0
   45.9350   33.3160   46.2240 C   0  0  0  0  0  0  0  0  0  0  0  0
   46.8630   32.6480   45.5310 N   0  0  0  0  0  0  0  0  0  0  0  0
   47.2110   32.9260   44.2700 C   0  0  0  0  0  0  0  0  0  0  0  0
   46.6080   33.9440   43.6160 N   0  0  0  0  0  0  0  0  0  0  0  0
   44.2130   35.0960   42.5140 C   0  0  0  0  0  0  0  0  0  0  0  0
   44.1560   33.8440   42.6330 O   0  0  0  0  0  0  0  0  0  0  0  0
   45.1160   35.6820   43.4560 N   0  0  0  0  0  0  0  0  0  0  0  0
   43.5140   35.8850   41.6030 O   0  0  0  0  0  0  0  0  0  0  0  0
   42.4740   35.2670   40.8240 C   0  0  0  0  0  0  0  0  0  0  0  0
   41.1580   35.6040   41.4350 C   0  0  0  0  0  0  0  0  0  0  0  0
   44.2820   35.1970   46.1580 N   0  0  0  0  0  0  0  0  0  0  0  0
   45.6941   33.0362   47.2602 H   0  0  0  0  0  0  0  0  0  0  0  0
   47.9853   32.3284   43.7666 H   0  0  0  0  0  0  0  0  0  0  0  0
   45.3431   36.6845   43.5224 H   0  0  0  0  0  0  0  0  0  0  0  0
   42.6124   34.1757   40.8207 H   0  0  0  0  0  0  0  0  0  0  0  0
   42.5121   35.6344   39.7879 H   0  0  0  0  0  0  0  0  0  0  0  0
   41.2462   35.5814   42.5312 H   0  0  0  0  0  0  0  0  0  0  0  0
   40.8508   36.6098   41.1125 H   0  0  0  0  0  0  0  0  0  0  0  0
   40.4052   34.8697   41.1125 H   0  0  0  0  0  0  0  0  0  0  0  0
   43.9664   35.0379   47.1255 H   0  0  0  0  0  0  0  0  0  0  0  0
   43.8672   35.9564   45.5993 H   0  0  0  0  0  0  0  0  0  0  0  0
  1  2  2  0
  2 13  1  0
  2  3  1  0
  4  3  2  0
  5  4  1  0
  6  5  2  0
  6  1  1  0
  7  8  2  0
  7  9  1  0
  9  1  1  0
 10  7  1  0
 11 12  1  0
 11 10  1  0
  3 14  1  0
  5 15  1  0
  9 16  1  0
 11 17  1  0
 11 18  1  0
 12 19  1  0
 12 20  1  0
 12 21  1  0
 13 22  1  0
 13 23  1  0
M  ISO  7  14  14  15  14  17   8  18   8  19   8  20   8  21   8
M  END
>  <minimizedAffinity>  (1) 
-4.17459726

>  <minimizedRMSD>  (1) 
0.26120761

$$$$
