
     RDKit          3D

 23 24  0  0  0  0  0  0  0  0999 V2000
   46.0900   32.8600   45.6680 C   0  0  0  0  0  0  0  0  0  0  0  0
   44.5280   36.0230   44.5290 C   0  0  0  0  0  0  0  0  0  0  0  0
   45.1070   36.1910   43.2430 C   0  0  0  0  0  0  0  0  0  0  0  0
   46.0040   35.2140   42.8300 C   0  0  0  0  0  0  0  0  0  0  0  0
   46.2820   34.1730   43.6420 N   0  0  0  0  0  0  0  0  0  0  0  0
   45.6990   34.0500   44.8770 C   0  0  0  0  0  0  0  0  0  0  0  0
   44.8340   34.9650   45.3080 N   0  0  0  0  0  0  0  0  0  0  0  0
   45.4900   33.0650   47.0530 C   0  0  0  0  0  0  0  0  0  0  0  0
   46.2750   32.2000   47.9800 C   0  0  0  0  0  0  0  0  0  0  0  0
   47.6460   31.9950   48.0680 C   0  0  0  0  0  0  0  0  0  0  0  0
   47.8460   31.0990   49.0970 C   0  0  0  0  0  0  0  0  0  0  0  0
   46.6510   30.7680   49.6180 N   0  0  0  0  0  0  0  0  0  0  0  0
   45.7350   31.4360   48.9380 N   0  0  0  0  0  0  0  0  0  0  0  0
   47.1856   32.7864   45.7325 H   0  0  0  0  0  0  0  0  0  0  0  0
   45.7289   31.9300   45.2046 H   0  0  0  0  0  0  0  0  0  0  0  0
   43.8133   36.7732   44.8984 H   0  0  0  0  0  0  0  0  0  0  0  0
   44.8575   37.0521   42.6056 H   0  0  0  0  0  0  0  0  0  0  0  0
   46.4861   35.2888   41.8441 H   0  0  0  0  0  0  0  0  0  0  0  0
   45.5747   34.1200   47.3527 H   0  0  0  0  0  0  0  0  0  0  0  0
   44.4217   32.8031   47.0693 H   0  0  0  0  0  0  0  0  0  0  0  0
   48.4212   32.4573   47.4393 H   0  0  0  0  0  0  0  0  0  0  0  0
   48.8209   30.7182   49.4355 H   0  0  0  0  0  0  0  0  0  0  0  0
   46.4817   30.1176   50.3985 H   0  0  0  0  0  0  0  0  0  0  0  0
  1  8  1  0
  2  7  2  0
  3  2  1  0
  4  3  2  0
  4  5  1  0
  5  6  2  0
  6  7  1  0
  6  1  1  0
  8  9  1  0
  9 10  1  0
  9 13  2  0
 10 11  2  0
 11 12  1  0
 13 12  1  0
  1 14  1  0
  1 15  1  0
  2 16  1  0
  3 17  1  0
  4 18  1  0
  8 19  1  0
  8 20  1  0
 10 21  1  0
 11 22  1  0
 12 23  1  0
M  ISO  8  14   8  15   8  16  14  17  14  18  14  19   8  20   8  21  14
M  ISO  2  22  14  23   9
M  END
>  <minimizedAffinity>  (1) 
-4.60404396

>  <minimizedRMSD>  (1) 
0.950077295

$$$$
