
     RDKit          3D

 39 41  0  0  0  0  0  0  0  0999 V2000
   42.7190   31.7320   39.5710 Cl  0  0  0  0  0  0  0  0  0  0  0  0
   41.8850   33.2210   39.9190 C   0  0  0  0  0  0  0  0  0  0  0  0
   42.5330   34.3790   40.3620 C   0  0  0  0  0  0  0  0  0  0  0  0
   41.8070   35.5090   40.6120 C   0  0  0  0  0  0  0  0  0  0  0  0
   40.4470   35.6020   40.4610 C   0  0  0  0  0  0  0  0  0  0  0  0
   39.7750   34.4640   40.0210 C   0  0  0  0  0  0  0  0  0  0  0  0
   38.0280   34.4580   39.7870 Cl  0  0  0  0  0  0  0  0  0  0  0  0
   40.5250   33.3220   39.7700 C   0  0  0  0  0  0  0  0  0  0  0  0
   39.3050   31.1070   40.0920 C   0  0  0  0  0  0  0  0  0  0  0  0
   39.8220   32.1210   39.3070 C   0  0  0  0  0  0  0  0  0  0  0  0
   39.7140   32.0890   37.9130 C   0  0  0  0  0  0  0  0  0  0  0  0
   39.0690   31.0060   37.3150 C   0  0  0  0  0  0  0  0  0  0  0  0
   38.5590   30.0060   38.0900 C   0  0  0  0  0  0  0  0  0  0  0  0
   38.6750   30.0550   39.4620 C   0  0  0  0  0  0  0  0  0  0  0  0
   39.4860   31.2710   41.4590 O   0  0  0  0  0  0  0  0  0  0  0  0
   38.1720   29.0600   40.2960 O   0  0  0  0  0  0  0  0  0  0  0  0
   43.9180   34.2620   40.5090 O   0  0  0  0  0  0  0  0  0  0  0  0
   44.4230   33.9690   41.7800 C   0  0  0  0  0  0  0  0  0  0  0  0
   44.0610   33.0020   42.5260 O   0  0  0  0  0  0  0  0  0  0  0  0
   45.4400   34.7730   42.3740 N   0  0  0  0  0  0  0  0  0  0  0  0
   45.7490   34.2300   43.6910 C   0  0  0  0  0  0  0  0  0  0  0  0
   45.1020   34.5760   44.8550 C   0  0  0  0  0  0  0  0  0  0  0  0
   45.5360   33.9550   46.0060 C   0  0  0  0  0  0  0  0  0  0  0  0
   46.5400   33.0710   45.9100 N   0  0  0  0  0  0  0  0  0  0  0  0
   47.1520   32.7570   44.7530 C   0  0  0  0  0  0  0  0  0  0  0  0
   46.7480   33.3530   43.5980 N   0  0  0  0  0  0  0  0  0  0  0  0
   44.0600   35.5300   44.7590 N   0  0  0  0  0  0  0  0  0  0  0  0
   42.3484   36.4023   40.9568 H   0  0  0  0  0  0  0  0  0  0  0  0
   39.9092   36.5366   40.6784 H   0  0  0  0  0  0  0  0  0  0  0  0
   40.1296   32.9021   37.2998 H   0  0  0  0  0  0  0  0  0  0  0  0
   38.9719   30.9586   36.2203 H   0  0  0  0  0  0  0  0  0  0  0  0
   38.0509   29.1534   37.6157 H   0  0  0  0  0  0  0  0  0  0  0  0
   39.1444   30.5880   42.0890 H   0  0  0  0  0  0  0  0  0  0  0  0
   38.2780   29.1363   41.2773 H   0  0  0  0  0  0  0  0  0  0  0  0
   45.8818   35.5985   41.9447 H   0  0  0  0  0  0  0  0  0  0  0  0
   45.0713   34.1784   46.9777 H   0  0  0  0  0  0  0  0  0  0  0  0
   47.9724   32.0243   44.7410 H   0  0  0  0  0  0  0  0  0  0  0  0
   43.5474   35.8196   45.6042 H   0  0  0  0  0  0  0  0  0  0  0  0
   43.8146   35.9343   43.8440 H   0  0  0  0  0  0  0  0  0  0  0  0
  1  2  1  0
  2  3  2  0
  3 17  1  0
  3  4  1  0
  5  4  2  0
  6  5  1  0
  7  6  1  0
  8  2  1  0
  8  6  2  0
  9 15  1  0
 10  8  1  0
 10  9  2  0
 11 10  1  0
 12 11  2  0
 12 13  1  0
 13 14  2  0
 14  9  1  0
 14 16  1  0
 17 18  1  0
 18 20  1  0
 18 19  2  0
 20 21  1  0
 21 22  2  0
 22 23  1  0
 24 23  2  0
 25 24  1  0
 26 21  1  0
 26 25  2  0
 27 22  1  0
  4 28  1  0
  5 29  1  0
 11 30  1  0
 12 31  1  0
 13 32  1  0
 15 33  1  0
 16 34  1  0
 20 35  1  0
 23 36  1  0
 25 37  1  0
 27 38  1  0
 27 39  1  0
M  ISO  8  28  14  29  14  30  14  31  14  32  14  33   3  34   3  36  14
M  ISO  1  37  14
M  END
>  <minimizedAffinity>  (1) 
-6.13111734

>  <minimizedRMSD>  (1) 
1.84424913

$$$$
