
     RDKit          3D

 29 30  0  0  0  0  0  0  0  0999 V2000
   44.3770   34.9200   41.9840 C   0  0  0  0  0  0  0  0  0  0  0  0
   44.1320   33.7170   42.3350 O   0  0  0  0  0  0  0  0  0  0  0  0
   45.3450   35.5470   42.8200 N   0  0  0  0  0  0  0  0  0  0  0  0
   45.7450   34.6100   43.8590 C   0  0  0  0  0  0  0  0  0  0  0  0
   45.2040   34.5620   45.1160 C   0  0  0  0  0  0  0  0  0  0  0  0
   45.7090   33.6040   45.9710 C   0  0  0  0  0  0  0  0  0  0  0  0
   46.6830   32.8010   45.5080 N   0  0  0  0  0  0  0  0  0  0  0  0
   47.1920   32.8780   44.2590 C   0  0  0  0  0  0  0  0  0  0  0  0
   46.7150   33.8100   43.3960 N   0  0  0  0  0  0  0  0  0  0  0  0
   44.1840   35.4890   45.4310 N   0  0  0  0  0  0  0  0  0  0  0  0
   43.7890   35.6040   40.9000 O   0  0  0  0  0  0  0  0  0  0  0  0
   43.8580   33.7640   38.5790 Cl  0  0  0  0  0  0  0  0  0  0  0  0
   42.4370   34.3590   39.4060 C   0  0  0  0  0  0  0  0  0  0  0  0
   42.5080   35.2300   40.5000 C   0  0  0  0  0  0  0  0  0  0  0  0
   41.3620   35.6550   41.0990 C   0  0  0  0  0  0  0  0  0  0  0  0
   40.0900   35.2760   40.6900 C   0  0  0  0  0  0  0  0  0  0  0  0
   40.0050   34.4110   39.6060 C   0  0  0  0  0  0  0  0  0  0  0  0
   38.4450   33.8580   38.9940 Cl  0  0  0  0  0  0  0  0  0  0  0  0
   41.1670   33.9880   39.0090 C   0  0  0  0  0  0  0  0  0  0  0  0
   41.0880   33.1040   37.8980 N   0  0  0  0  0  0  0  0  0  0  0  0
   45.7031   36.5062   42.7075 H   0  0  0  0  0  0  0  0  0  0  0  0
   45.3274   33.5006   46.9975 H   0  0  0  0  0  0  0  0  0  0  0  0
   47.9890   32.1887   43.9433 H   0  0  0  0  0  0  0  0  0  0  0  0
   43.7535   35.4828   46.3667 H   0  0  0  0  0  0  0  0  0  0  0  0
   43.8714   36.1705   44.7248 H   0  0  0  0  0  0  0  0  0  0  0  0
   41.4483   36.3382   41.9567 H   0  0  0  0  0  0  0  0  0  0  0  0
   39.1889   35.6446   41.2020 H   0  0  0  0  0  0  0  0  0  0  0  0
   40.1693   32.7904   37.5537 H   0  0  0  0  0  0  0  0  0  0  0  0
   41.9495   32.7773   37.4375 H   0  0  0  0  0  0  0  0  0  0  0  0
  1  2  2  0
  1  3  1  0
  3  4  1  0
  4  5  2  0
  5 10  1  0
  5  6  1  0
  7  6  2  0
  8  7  1  0
  9  4  1  0
  9  8  2  0
 11  1  1  0
 12 13  1  0
 13 14  2  0
 14 11  1  0
 14 15  1  0
 16 15  2  0
 17 16  1  0
 18 17  1  0
 19 13  1  0
 19 17  2  0
 20 19  1  0
  3 21  1  0
  6 22  1  0
  8 23  1  0
 10 24  1  0
 10 25  1  0
 15 26  1  0
 16 27  1  0
 20 28  1  0
 20 29  1  0
M  ISO  4  22  14  23  14  26  14  27  14
M  END
>  <minimizedAffinity>  (1) 
-6.07717419

>  <minimizedRMSD>  (1) 
0.157337889

$$$$
