
     RDKit          3D

 36 38  0  0  0  0  0  0  0  0999 V2000
   43.2200   32.3290   39.4720 Cl  0  0  0  0  0  0  0  0  0  0  0  0
   42.0860   33.5810   39.9610 C   0  0  0  0  0  0  0  0  0  0  0  0
   42.4910   34.7670   40.5670 C   0  0  0  0  0  0  0  0  0  0  0  0
   41.5690   35.7000   40.9230 C   0  0  0  0  0  0  0  0  0  0  0  0
   40.2120   35.5530   40.7230 C   0  0  0  0  0  0  0  0  0  0  0  0
   39.7740   34.3700   40.1160 C   0  0  0  0  0  0  0  0  0  0  0  0
   38.0680   34.0740   39.8120 Cl  0  0  0  0  0  0  0  0  0  0  0  0
   40.7260   33.4470   39.7670 C   0  0  0  0  0  0  0  0  0  0  0  0
   40.3080   32.1810   39.1230 C   0  0  0  0  0  0  0  0  0  0  0  0
   40.1460   31.9710   37.7820 C   0  0  0  0  0  0  0  0  0  0  0  0
   39.7460   30.7050   37.4000 C   0  0  0  0  0  0  0  0  0  0  0  0
   39.5240   29.7030   38.3460 C   0  0  0  0  0  0  0  0  0  0  0  0
   39.7020   29.9670   39.7030 C   0  0  0  0  0  0  0  0  0  0  0  0
   40.0960   31.2180   40.0640 N   0  0  0  0  0  0  0  0  0  0  0  0
   43.8680   34.9050   40.7640 O   0  0  0  0  0  0  0  0  0  0  0  0
   44.4160   34.4150   41.9610 C   0  0  0  0  0  0  0  0  0  0  0  0
   44.0780   33.3300   42.5580 O   0  0  0  0  0  0  0  0  0  0  0  0
   45.4480   35.1150   42.6500 N   0  0  0  0  0  0  0  0  0  0  0  0
   45.8020   34.3780   43.8460 C   0  0  0  0  0  0  0  0  0  0  0  0
   45.1790   34.5520   45.0680 C   0  0  0  0  0  0  0  0  0  0  0  0
   45.6540   33.7590   46.0930 C   0  0  0  0  0  0  0  0  0  0  0  0
   46.6640   32.8940   45.8390 N   0  0  0  0  0  0  0  0  0  0  0  0
   47.2320   32.7660   44.6320 C   0  0  0  0  0  0  0  0  0  0  0  0
   46.7970   33.5250   43.6000 N   0  0  0  0  0  0  0  0  0  0  0  0
   44.1500   35.4970   45.1430 N   0  0  0  0  0  0  0  0  0  0  0  0
   41.9255   36.6259   41.3981 H   0  0  0  0  0  0  0  0  0  0  0  0
   39.5015   36.3352   41.0287 H   0  0  0  0  0  0  0  0  0  0  0  0
   40.3248   32.7683   37.0456 H   0  0  0  0  0  0  0  0  0  0  0  0
   39.6000   30.4830   36.3326 H   0  0  0  0  0  0  0  0  0  0  0  0
   39.2074   28.7014   38.0195 H   0  0  0  0  0  0  0  0  0  0  0  0
   39.5291   29.1872   40.4593 H   0  0  0  0  0  0  0  0  0  0  0  0
   45.8739   36.0024   42.3466 H   0  0  0  0  0  0  0  0  0  0  0  0
   45.2186   33.8288   47.1008 H   0  0  0  0  0  0  0  0  0  0  0  0
   48.0496   32.0458   44.4808 H   0  0  0  0  0  0  0  0  0  0  0  0
   43.6610   35.6562   46.0354 H   0  0  0  0  0  0  0  0  0  0  0  0
   43.8815   36.0335   44.3058 H   0  0  0  0  0  0  0  0  0  0  0  0
  1  2  1  0
  2  3  2  0
  3 15  1  0
  3  4  1  0
  5  4  2  0
  6  5  1  0
  7  6  1  0
  8  2  1  0
  8  6  2  0
  9  8  1  0
  9 14  1  0
 10  9  2  0
 11 10  1  0
 11 12  2  0
 12 13  1  0
 13 14  2  0
 15 16  1  0
 16 17  2  0
 16 18  1  0
 18 19  1  0
 19 20  2  0
 20 25  1  0
 20 21  1  0
 22 21  2  0
 23 22  1  0
 24 19  1  0
 24 23  2  0
  4 26  1  0
  5 27  1  0
 10 28  1  0
 11 29  1  0
 12 30  1  0
 13 31  1  0
 18 32  1  0
 21 33  1  0
 23 34  1  0
 25 35  1  0
 25 36  1  0
M  ISO  8  26  14  27  14  28  14  29  14  30  14  31  14  33  14  34  14
M  END
>  <minimizedAffinity>  (1) 
-5.98799038

>  <minimizedRMSD>  (1) 
1.28271508

$$$$
