
     RDKit          3D

 33 35  0  0  0  0  0  0  0  0999 V2000
   43.3920   32.7160   39.3300 Cl  0  0  0  0  0  0  0  0  0  0  0  0
   42.1800   33.8340   39.8870 C   0  0  0  0  0  0  0  0  0  0  0  0
   42.4820   35.0000   40.5900 C   0  0  0  0  0  0  0  0  0  0  0  0
   41.4860   35.8300   40.9930 C   0  0  0  0  0  0  0  0  0  0  0  0
   40.1550   35.6020   40.7550 C   0  0  0  0  0  0  0  0  0  0  0  0
   39.8080   34.4380   40.0500 C   0  0  0  0  0  0  0  0  0  0  0  0
   38.1390   34.0380   39.6840 Cl  0  0  0  0  0  0  0  0  0  0  0  0
   40.8440   33.6180   39.6550 C   0  0  0  0  0  0  0  0  0  0  0  0
   40.4930   32.4030   38.9210 C   0  0  0  0  0  0  0  0  0  0  0  0
   40.2990   31.3400   39.8950 C   0  0  0  0  0  0  0  0  0  0  0  0
   39.8540   29.8330   38.8520 S   0  0  0  0  0  0  0  0  0  0  0  0
   40.0160   30.9250   37.3050 C   0  0  0  0  0  0  0  0  0  0  0  0
   40.2940   31.9370   37.7110 N   0  0  0  0  0  0  0  0  0  0  0  0
   43.8330   35.2320   40.8330 O   0  0  0  0  0  0  0  0  0  0  0  0
   44.4150   34.6490   41.9730 C   0  0  0  0  0  0  0  0  0  0  0  0
   44.1000   33.5310   42.4930 O   0  0  0  0  0  0  0  0  0  0  0  0
   45.4730   35.3120   42.6830 N   0  0  0  0  0  0  0  0  0  0  0  0
   45.8520   34.4840   43.8150 C   0  0  0  0  0  0  0  0  0  0  0  0
   45.2510   34.5360   45.0510 C   0  0  0  0  0  0  0  0  0  0  0  0
   45.7470   33.6700   46.0100 C   0  0  0  0  0  0  0  0  0  0  0  0
   46.7630   32.8550   45.6710 N   0  0  0  0  0  0  0  0  0  0  0  0
   47.3260   32.8350   44.4450 C   0  0  0  0  0  0  0  0  0  0  0  0
   46.8640   33.6730   43.4780 N   0  0  0  0  0  0  0  0  0  0  0  0
   44.1970   35.4520   45.2310 N   0  0  0  0  0  0  0  0  0  0  0  0
   41.7637   36.7407   41.5439 H   0  0  0  0  0  0  0  0  0  0  0  0
   39.3857   36.3064   41.1042 H   0  0  0  0  0  0  0  0  0  0  0  0
   40.3908   31.4012   40.9895 H   0  0  0  0  0  0  0  0  0  0  0  0
   39.8712   30.6345   36.2540 H   0  0  0  0  0  0  0  0  0  0  0  0
   45.8914   36.2192   42.4325 H   0  0  0  0  0  0  0  0  0  0  0  0
   45.3214   33.6484   47.0241 H   0  0  0  0  0  0  0  0  0  0  0  0
   48.1545   32.1445   44.2284 H   0  0  0  0  0  0  0  0  0  0  0  0
   43.7230   35.5190   46.1430 H   0  0  0  0  0  0  0  0  0  0  0  0
   43.8999   36.0551   44.4507 H   0  0  0  0  0  0  0  0  0  0  0  0
  1  2  1  0
  2  3  2  0
  3 14  1  0
  3  4  1  0
  5  4  2  0
  6  5  1  0
  7  6  1  0
  8  2  1  0
  8  6  2  0
  9  8  1  0
  9 10  2  0
 11 10  1  0
 12 13  2  0
 12 11  1  0
 13  9  1  0
 14 15  1  0
 15 16  2  0
 15 17  1  0
 17 18  1  0
 18 19  2  0
 19 24  1  0
 19 20  1  0
 21 20  2  0
 22 21  1  0
 23 18  1  0
 23 22  2  0
  4 25  1  0
  5 26  1  0
 10 27  1  0
 12 28  1  0
 17 29  1  0
 20 30  1  0
 22 31  1  0
 24 32  1  0
 24 33  1  0
M  ISO  6  25  14  26  14  27  14  28  14  30  14  31  14
M  END
>  <minimizedAffinity>  (1) 
-5.94210577

>  <minimizedRMSD>  (1) 
0.849272311

$$$$
