
     RDKit          3D

 41 43  0  0  0  0  0  0  0  0999 V2000
   42.7630   32.1280   38.4020 Cl  0  0  0  0  0  0  0  0  0  0  0  0
   43.0420   33.4340   39.5380 C   0  0  0  0  0  0  0  0  0  0  0  0
   44.2800   33.6710   40.1240 C   0  0  0  0  0  0  0  0  0  0  0  0
   44.4410   34.7000   40.9990 C   0  0  0  0  0  0  0  0  0  0  0  0
   43.4220   35.5590   41.3600 C   0  0  0  0  0  0  0  0  0  0  0  0
   42.1570   35.3400   40.7810 C   0  0  0  0  0  0  0  0  0  0  0  0
   40.7980   36.3770   41.1730 Cl  0  0  0  0  0  0  0  0  0  0  0  0
   42.0290   34.2870   39.8960 C   0  0  0  0  0  0  0  0  0  0  0  0
   40.2060   32.7110   41.1600 F   0  0  0  0  0  0  0  0  0  0  0  0
   39.8190   33.2490   39.9550 C   0  0  0  0  0  0  0  0  0  0  0  0
   40.7190   34.0520   39.2880 C   0  0  0  0  0  0  0  0  0  0  0  0
   40.2920   34.5820   38.0650 C   0  0  0  0  0  0  0  0  0  0  0  0
   39.0240   34.2820   37.6010 C   0  0  0  0  0  0  0  0  0  0  0  0
   38.1580   33.4580   38.3280 C   0  0  0  0  0  0  0  0  0  0  0  0
   38.5510   32.9140   39.5480 C   0  0  0  0  0  0  0  0  0  0  0  0
   45.3220   32.7990   39.7600 O   0  0  0  0  0  0  0  0  0  0  0  0
   46.5190   32.8880   40.4770 C   0  0  0  0  0  0  0  0  0  0  0  0
   46.7130   32.5970   41.7160 O   0  0  0  0  0  0  0  0  0  0  0  0
   47.7100   33.3470   39.8320 N   0  0  0  0  0  0  0  0  0  0  0  0
   48.7830   33.3880   40.8040 C   0  0  0  0  0  0  0  0  0  0  0  0
   49.0830   34.4210   41.6360 C   0  0  0  0  0  0  0  0  0  0  0  0
   50.1420   34.2720   42.4910 C   0  0  0  0  0  0  0  0  0  0  0  0
   50.8190   33.1100   42.4540 N   0  0  0  0  0  0  0  0  0  0  0  0
   50.5030   32.0910   41.6180 C   0  0  0  0  0  0  0  0  0  0  0  0
   49.4630   32.2280   40.7700 N   0  0  0  0  0  0  0  0  0  0  0  0
   52.4210   30.7710   40.7760 C   0  0  0  0  0  0  0  0  0  0  0  0
   52.7630   31.6890   40.0160 O   0  0  0  0  0  0  0  0  0  0  0  0
   51.2790   30.8730   41.6380 N   0  0  0  0  0  0  0  0  0  0  0  0
   48.2670   35.5760   41.5460 N   0  0  0  0  0  0  0  0  0  0  0  0
   45.4355   34.8560   41.4424 H   0  0  0  0  0  0  0  0  0  0  0  0
   43.5914   36.3811   42.0710 H   0  0  0  0  0  0  0  0  0  0  0  0
   40.9586   35.2311   37.4783 H   0  0  0  0  0  0  0  0  0  0  0  0
   38.6894   34.7001   36.6401 H   0  0  0  0  0  0  0  0  0  0  0  0
   37.1559   33.2375   37.9315 H   0  0  0  0  0  0  0  0  0  0  0  0
   37.8933   32.2630   40.1427 H   0  0  0  0  0  0  0  0  0  0  0  0
   47.7914   33.6061   38.8385 H   0  0  0  0  0  0  0  0  0  0  0  0
   50.4296   35.0755   43.1850 H   0  0  0  0  0  0  0  0  0  0  0  0
   53.0147   29.8451   40.7897 H   0  0  0  0  0  0  0  0  0  0  0  0
   51.0177   30.0936   42.2586 H   0  0  0  0  0  0  0  0  0  0  0  0
   48.4524   36.3862   42.1543 H   0  0  0  0  0  0  0  0  0  0  0  0
   47.4885   35.6053   40.8722 H   0  0  0  0  0  0  0  0  0  0  0  0
  1  2  1  0
  2  8  2  0
  2  3  1  0
  3  4  2  0
  4  5  1  0
  6  7  1  0
  6  5  2  0
  8  6  1  0
 10  9  1  0
 11  8  1  0
 11 10  2  0
 12 11  1  0
 13 12  2  0
 13 14  1  0
 14 15  2  0
 15 10  1  0
 16  3  1  0
 16 17  1  0
 17 18  2  0
 19 17  1  0
 19 20  1  0
 20 21  2  0
 21 22  1  0
 23 22  2  0
 24 28  1  0
 24 23  1  0
 25 20  1  0
 25 24  2  0
 26 28  1  0
 27 26  2  0
 29 21  1  0
  4 30  1  0
  5 31  1  0
 12 32  1  0
 13 33  1  0
 14 34  1  0
 15 35  1  0
 19 36  1  0
 22 37  1  0
 26 38  1  0
 28 39  1  0
 29 40  1  0
 29 41  1  0
M  ISO  8  30  14  31  14  32  14  33  14  34  14  35  14  37  14  38   6
M  END
>  <minimizedAffinity>  (1) 
-6.87872696

>  <minimizedRMSD>  (1) 
3.64413667

$$$$
