
     RDKit          3D

 44 47  0  0  0  0  0  0  0  0999 V2000
   43.7590   34.8480   40.6580 O   0  0  0  0  0  0  0  0  0  0  0  0
   42.9530   32.2770   39.3990 Cl  0  0  0  0  0  0  0  0  0  0  0  0
   41.8990   33.5860   39.9030 C   0  0  0  0  0  0  0  0  0  0  0  0
   42.3650   34.7590   40.4860 C   0  0  0  0  0  0  0  0  0  0  0  0
   41.5020   35.7440   40.8580 C   0  0  0  0  0  0  0  0  0  0  0  0
   40.1330   35.6460   40.6840 C   0  0  0  0  0  0  0  0  0  0  0  0
   39.6280   34.4720   40.0970 C   0  0  0  0  0  0  0  0  0  0  0  0
   37.9050   34.2580   39.8360 Cl  0  0  0  0  0  0  0  0  0  0  0  0
   40.5330   33.4970   39.7330 C   0  0  0  0  0  0  0  0  0  0  0  0
   39.8680   31.3710   41.2990 F   0  0  0  0  0  0  0  0  0  0  0  0
   39.6960   31.2060   39.9450 C   0  0  0  0  0  0  0  0  0  0  0  0
   40.0240   32.2680   39.1200 C   0  0  0  0  0  0  0  0  0  0  0  0
   39.8380   32.0710   37.7480 C   0  0  0  0  0  0  0  0  0  0  0  0
   39.3480   30.8550   37.3010 C   0  0  0  0  0  0  0  0  0  0  0  0
   39.0360   29.8250   38.1850 C   0  0  0  0  0  0  0  0  0  0  0  0
   39.2090   29.9870   39.5570 C   0  0  0  0  0  0  0  0  0  0  0  0
   44.3060   34.3150   41.8270 C   0  0  0  0  0  0  0  0  0  0  0  0
   44.0250   33.1820   42.3710 O   0  0  0  0  0  0  0  0  0  0  0  0
   45.2910   35.0360   42.5640 N   0  0  0  0  0  0  0  0  0  0  0  0
   45.6410   34.2910   43.7530 C   0  0  0  0  0  0  0  0  0  0  0  0
   45.1830   34.5120   45.0150 C   0  0  0  0  0  0  0  0  0  0  0  0
   45.6440   33.6850   46.0070 C   0  0  0  0  0  0  0  0  0  0  0  0
   46.5230   32.7090   45.6520 N   0  0  0  0  0  0  0  0  0  0  0  0
   46.9560   32.5160   44.4020 C   0  0  0  0  0  0  0  0  0  0  0  0
   46.5110   33.3260   43.4010 N   0  0  0  0  0  0  0  0  0  0  0  0
   47.8980   31.4240   44.1970 C   0  0  0  0  0  0  0  0  0  0  0  0
   48.7250   31.4610   43.0820 C   0  0  0  0  0  0  0  0  0  0  0  0
   49.5080   30.3180   43.1320 C   0  0  0  0  0  0  0  0  0  0  0  0
   49.1540   29.6340   44.2330 N   0  0  0  0  0  0  0  0  0  0  0  0
   48.1870   30.2830   44.8840 N   0  0  0  0  0  0  0  0  0  0  0  0
   44.2760   35.5690   45.1940 N   0  0  0  0  0  0  0  0  0  0  0  0
   41.9106   36.6566   41.3164 H   0  0  0  0  0  0  0  0  0  0  0  0
   39.4614   36.4599   40.9947 H   0  0  0  0  0  0  0  0  0  0  0  0
   40.0778   32.8716   37.0328 H   0  0  0  0  0  0  0  0  0  0  0  0
   39.2018   30.6991   36.2220 H   0  0  0  0  0  0  0  0  0  0  0  0
   38.6484   28.8724   37.7947 H   0  0  0  0  0  0  0  0  0  0  0  0
   38.9711   29.1914   40.2784 H   0  0  0  0  0  0  0  0  0  0  0  0
   45.6908   35.9454   42.2920 H   0  0  0  0  0  0  0  0  0  0  0  0
   45.3157   33.8061   47.0499 H   0  0  0  0  0  0  0  0  0  0  0  0
   48.7533   32.2441   42.3100 H   0  0  0  0  0  0  0  0  0  0  0  0
   50.2782   30.0247   42.4035 H   0  0  0  0  0  0  0  0  0  0  0  0
   49.5686   28.7394   44.5309 H   0  0  0  0  0  0  0  0  0  0  0  0
   43.9024   35.7738   46.1317 H   0  0  0  0  0  0  0  0  0  0  0  0
   43.9844   36.1395   44.3875 H   0  0  0  0  0  0  0  0  0  0  0  0
  1 17  1  0
  2  3  1  0
  3  4  2  0
  4  1  1  0
  4  5  1  0
  6  5  2  0
  7  6  1  0
  8  7  1  0
  9  3  1  0
  9  7  2  0
 11 10  1  0
 12  9  1  0
 12 11  2  0
 13 12  1  0
 14 13  2  0
 14 15  1  0
 15 16  2  0
 16 11  1  0
 17 18  2  0
 17 19  1  0
 19 20  1  0
 20 21  2  0
 21 31  1  0
 21 22  1  0
 23 22  2  0
 24 23  1  0
 25 20  1  0
 25 24  2  0
 26 24  1  0
 26 30  2  0
 27 28  2  0
 27 26  1  0
 28 29  1  0
 29 30  1  0
  5 32  1  0
  6 33  1  0
 13 34  1  0
 14 35  1  0
 15 36  1  0
 16 37  1  0
 19 38  1  0
 22 39  1  0
 27 40  1  0
 28 41  1  0
 29 42  1  0
 31 43  1  0
 31 44  1  0
M  ISO  8  32  14  33  14  34  14  35  14  36  14  37  14  39  14  40  14
M  ISO  2  41  14  42   9
M  END
>  <minimizedAffinity>  (1) 
-6.27919817

>  <minimizedRMSD>  (1) 
0.479485393

$$$$
