
     RDKit          3D

 38 40  0  0  0  0  0  0  0  0999 V2000
   42.7990   31.9930   39.4890 Cl  0  0  0  0  0  0  0  0  0  0  0  0
   41.9390   33.4290   40.0400 C   0  0  0  0  0  0  0  0  0  0  0  0
   42.5840   34.5000   40.6500 C   0  0  0  0  0  0  0  0  0  0  0  0
   41.8730   35.5860   41.0560 C   0  0  0  0  0  0  0  0  0  0  0  0
   40.5060   35.6980   40.8960 C   0  0  0  0  0  0  0  0  0  0  0  0
   39.8320   34.6250   40.2810 C   0  0  0  0  0  0  0  0  0  0  0  0
   38.0960   34.6770   40.0340 Cl  0  0  0  0  0  0  0  0  0  0  0  0
   40.5800   33.5400   39.8810 C   0  0  0  0  0  0  0  0  0  0  0  0
   39.5510   31.5330   41.3980 F   0  0  0  0  0  0  0  0  0  0  0  0
   39.3840   31.4140   40.0440 C   0  0  0  0  0  0  0  0  0  0  0  0
   39.8960   32.4200   39.2410 C   0  0  0  0  0  0  0  0  0  0  0  0
   39.7100   32.2750   37.8610 C   0  0  0  0  0  0  0  0  0  0  0  0
   39.0410   31.1590   37.3860 C   0  0  0  0  0  0  0  0  0  0  0  0
   38.5480   30.1810   38.2430 C   0  0  0  0  0  0  0  0  0  0  0  0
   38.7150   30.2930   39.6230 C   0  0  0  0  0  0  0  0  0  0  0  0
   43.9770   34.3810   40.8100 O   0  0  0  0  0  0  0  0  0  0  0  0
   44.4490   33.9000   42.0360 C   0  0  0  0  0  0  0  0  0  0  0  0
   44.0920   32.8200   42.6410 O   0  0  0  0  0  0  0  0  0  0  0  0
   45.4370   34.6230   42.7680 N   0  0  0  0  0  0  0  0  0  0  0  0
   45.7000   33.9440   44.0210 C   0  0  0  0  0  0  0  0  0  0  0  0
   45.2320   34.2970   45.2490 C   0  0  0  0  0  0  0  0  0  0  0  0
   45.6050   33.5100   46.3110 C   0  0  0  0  0  0  0  0  0  0  0  0
   46.4040   32.4490   46.0570 N   0  0  0  0  0  0  0  0  0  0  0  0
   46.8510   32.1250   44.8340 C   0  0  0  0  0  0  0  0  0  0  0  0
   46.4960   32.8880   43.7680 N   0  0  0  0  0  0  0  0  0  0  0  0
   44.4100   35.4350   45.3190 N   0  0  0  0  0  0  0  0  0  0  0  0
   47.9070   30.6790   44.6800 S   0  0  0  0  0  0  0  0  0  0  0  0
   42.4133   36.4157   41.5353 H   0  0  0  0  0  0  0  0  0  0  0  0
   39.9634   36.5923   41.2363 H   0  0  0  0  0  0  0  0  0  0  0  0
   40.0897   33.0365   37.1639 H   0  0  0  0  0  0  0  0  0  0  0  0
   38.8958   31.0432   36.3018 H   0  0  0  0  0  0  0  0  0  0  0  0
   38.0206   29.3095   37.8278 H   0  0  0  0  0  0  0  0  0  0  0  0
   38.3366   29.5352   40.3249 H   0  0  0  0  0  0  0  0  0  0  0  0
   45.8925   35.4921   42.4549 H   0  0  0  0  0  0  0  0  0  0  0  0
   45.2655   33.7350   47.3328 H   0  0  0  0  0  0  0  0  0  0  0  0
   44.0315   35.7418   46.2264 H   0  0  0  0  0  0  0  0  0  0  0  0
   44.1862   35.9621   44.4629 H   0  0  0  0  0  0  0  0  0  0  0  0
   48.2406   30.2222   45.9278 H   0  0  0  0  0  0  0  0  0  0  0  0
  1  2  1  0
  2  3  2  0
  3 16  1  0
  3  4  1  0
  5  4  2  0
  6  5  1  0
  7  6  1  0
  8  2  1  0
  8  6  2  0
 10  9  1  0
 11  8  1  0
 11 10  2  0
 12 11  1  0
 13 12  2  0
 13 14  1  0
 14 15  2  0
 15 10  1  0
 16 17  1  0
 17 18  2  0
 17 19  1  0
 19 20  1  0
 20 21  2  0
 21 26  1  0
 21 22  1  0
 23 22  2  0
 24 23  1  0
 25 20  1  0
 25 24  2  0
 27 24  1  0
  4 28  1  0
  5 29  1  0
 12 30  1  0
 13 31  1  0
 14 32  1  0
 15 33  1  0
 19 34  1  0
 22 35  1  0
 26 36  1  0
 26 37  1  0
 27 38  1  0
M  ISO  8  28  14  29  14  30  14  31  14  32  14  33  14  35  14  38  11
M  END
>  <minimizedAffinity>  (1) 
-5.97169304

>  <minimizedRMSD>  (1) 
0.455999345

$$$$
