
     RDKit          3D

 27 28  0  0  0  0  0  0  0  0999 V2000
   44.0040   35.5340   42.8650 C   0  0  0  0  0  0  0  0  0  0  0  0
   43.3420   35.1370   41.7070 C   0  0  0  0  0  0  0  0  0  0  0  0
   44.0810   34.5430   40.7010 C   0  0  0  0  0  0  0  0  0  0  0  0
   45.4350   34.3640   40.8780 N   0  0  0  0  0  0  0  0  0  0  0  0
   46.0470   34.7650   42.0220 C   0  0  0  0  0  0  0  0  0  0  0  0
   45.3310   35.3390   42.9920 N   0  0  0  0  0  0  0  0  0  0  0  0
   46.8980   31.9970   42.9080 Cl  0  0  0  0  0  0  0  0  0  0  0  0
   47.9690   33.3330   42.5830 C   0  0  0  0  0  0  0  0  0  0  0  0
   47.4860   34.5630   42.1820 C   0  0  0  0  0  0  0  0  0  0  0  0
   48.3850   35.6060   41.9320 C   0  0  0  0  0  0  0  0  0  0  0  0
   49.7610   35.3980   42.0890 C   0  0  0  0  0  0  0  0  0  0  0  0
   50.2380   34.1640   42.4910 C   0  0  0  0  0  0  0  0  0  0  0  0
   49.3300   33.1550   42.7300 C   0  0  0  0  0  0  0  0  0  0  0  0
   41.9200   35.3320   41.5330 C   0  0  0  0  0  0  0  0  0  0  0  0
   41.2730   35.4510   40.4000 C   0  0  0  0  0  0  0  0  0  0  0  0
   39.7880   35.6520   40.3390 C   0  0  0  0  0  0  0  0  0  0  0  0
   43.4406   36.0097   43.6812 H   0  0  0  0  0  0  0  0  0  0  0  0
   43.5934   34.2172   39.7703 H   0  0  0  0  0  0  0  0  0  0  0  0
   48.0107   36.5896   41.6120 H   0  0  0  0  0  0  0  0  0  0  0  0
   50.4652   36.2197   41.8917 H   0  0  0  0  0  0  0  0  0  0  0  0
   51.3171   33.9916   42.6171 H   0  0  0  0  0  0  0  0  0  0  0  0
   49.7038   32.1711   43.0498 H   0  0  0  0  0  0  0  0  0  0  0  0
   41.3162   35.3863   42.4509 H   0  0  0  0  0  0  0  0  0  0  0  0
   41.8399   35.4017   39.4586 H   0  0  0  0  0  0  0  0  0  0  0  0
   39.3832   35.7068   41.3603 H   0  0  0  0  0  0  0  0  0  0  0  0
   39.5663   36.5883   39.8060 H   0  0  0  0  0  0  0  0  0  0  0  0
   39.3254   34.8083   39.8060 H   0  0  0  0  0  0  0  0  0  0  0  0
  1  6  2  0
  2  1  1  0
  3  4  1  0
  3  2  2  0
  4  5  2  0
  5  9  1  0
  5  6  1  0
  8 13  2  0
  8  7  1  0
  9  8  1  0
 10 11  1  0
 10  9  2  0
 11 12  2  0
 12 13  1  0
 14  2  1  0
 15 14  2  0
 16 15  1  0
  1 17  1  0
  3 18  1  0
 10 19  1  0
 11 20  1  0
 12 21  1  0
 13 22  1  0
 14 23  1  0
 15 24  1  0
 16 25  1  0
 16 26  1  0
 16 27  1  0
M  ISO  8  17  14  18  14  19  14  20  14  21  14  22  14  25   8  26   8
M  ISO  1  27   8
M  END
>  <minimizedAffinity>  (1) 
-5.14408302

>  <minimizedRMSD>  (1) 
4.88993692

$$$$
