
     RDKit          3D

 20 20  0  0  0  0  0  0  0  0999 V2000
   45.9670   32.8280   46.3170 C   0  0  0  0  0  0  0  0  0  0  0  0
   44.5360   35.8750   44.7500 C   0  0  0  0  0  0  0  0  0  0  0  0
   45.1800   35.8780   43.4770 C   0  0  0  0  0  0  0  0  0  0  0  0
   46.0670   34.8360   43.2310 C   0  0  0  0  0  0  0  0  0  0  0  0
   46.2690   33.8970   44.1830 N   0  0  0  0  0  0  0  0  0  0  0  0
   45.6360   33.9320   45.3800 C   0  0  0  0  0  0  0  0  0  0  0  0
   44.7680   34.9180   45.6710 N   0  0  0  0  0  0  0  0  0  0  0  0
   45.2310   33.1430   47.6120 C   0  0  0  0  0  0  0  0  0  0  0  0
   45.0190   31.0510   49.0150 C   0  0  0  0  0  0  0  0  0  0  0  0
   46.2270   31.1420   49.3990 O   0  0  0  0  0  0  0  0  0  0  0  0
   44.4930   32.0220   48.1310 N   0  0  0  0  0  0  0  0  0  0  0  0
   47.0520   32.7888   46.4937 H   0  0  0  0  0  0  0  0  0  0  0  0
   45.6676   31.8507   45.9105 H   0  0  0  0  0  0  0  0  0  0  0  0
   43.8261   36.6808   44.9882 H   0  0  0  0  0  0  0  0  0  0  0  0
   44.9853   36.6622   42.7306 H   0  0  0  0  0  0  0  0  0  0  0  0
   46.5998   34.7759   42.2705 H   0  0  0  0  0  0  0  0  0  0  0  0
   45.9683   33.4557   48.3661 H   0  0  0  0  0  0  0  0  0  0  0  0
   44.5045   33.9386   47.3902 H   0  0  0  0  0  0  0  0  0  0  0  0
   44.3867   30.2228   49.3676 H   0  0  0  0  0  0  0  0  0  0  0  0
   43.5110   31.9192   47.8377 H   0  0  0  0  0  0  0  0  0  0  0  0
  1  8  1  0
  2  7  2  0
  3  2  1  0
  4  3  2  0
  4  5  1  0
  5  6  2  0
  6  7  1  0
  6  1  1  0
  8 11  1  0
  9 10  2  0
 11  9  1  0
  1 12  1  0
  1 13  1  0
  2 14  1  0
  3 15  1  0
  4 16  1  0
  8 17  1  0
  8 18  1  0
  9 19  1  0
 11 20  1  0
M  ISO  8  12   8  13   8  14  14  15  14  16  14  17   8  18   8  19   6
M  END
>  <minimizedAffinity>  (1) 
-4.11752558

>  <minimizedRMSD>  (1) 
0.918729424

$$$$
