
     RDKit          3D

 24 25  0  0  0  0  0  0  0  0999 V2000
   44.6150   35.7570   42.6570 C   0  0  0  0  0  0  0  0  0  0  0  0
   43.8010   35.1410   41.6810 C   0  0  0  0  0  0  0  0  0  0  0  0
   44.4050   34.3480   40.6990 C   0  0  0  0  0  0  0  0  0  0  0  0
   45.7620   34.2000   40.7210 N   0  0  0  0  0  0  0  0  0  0  0  0
   46.4980   34.8150   41.6810 C   0  0  0  0  0  0  0  0  0  0  0  0
   45.9320   35.5690   42.6180 N   0  0  0  0  0  0  0  0  0  0  0  0
   47.9830   34.6000   41.6340 C   0  0  0  0  0  0  0  0  0  0  0  0
   48.8920   35.7920   41.7660 C   0  0  0  0  0  0  0  0  0  0  0  0
   48.7110   35.2040   40.4150 C   0  0  0  0  0  0  0  0  0  0  0  0
   42.3430   35.3100   41.6730 C   0  0  0  0  0  0  0  0  0  0  0  0
   41.6170   35.5170   40.5970 C   0  0  0  0  0  0  0  0  0  0  0  0
   40.1280   35.6830   40.6590 C   0  0  0  0  0  0  0  0  0  0  0  0
   44.1657   36.3850   43.4404 H   0  0  0  0  0  0  0  0  0  0  0  0
   43.7989   33.8540   39.9253 H   0  0  0  0  0  0  0  0  0  0  0  0
   47.9190   33.6201   42.1296 H   0  0  0  0  0  0  0  0  0  0  0  0
   48.4641   36.7801   41.9910 H   0  0  0  0  0  0  0  0  0  0  0  0
   49.7688   36.0200   42.3899 H   0  0  0  0  0  0  0  0  0  0  0  0
   49.5360   34.6547   39.9379 H   0  0  0  0  0  0  0  0  0  0  0  0
   48.4004   35.5880   39.4321 H   0  0  0  0  0  0  0  0  0  0  0  0
   41.8191   35.2597   42.6389 H   0  0  0  0  0  0  0  0  0  0  0  0
   42.1180   35.5702   39.6192 H   0  0  0  0  0  0  0  0  0  0  0  0
   39.8065   35.7188   41.7104 H   0  0  0  0  0  0  0  0  0  0  0  0
   39.8421   36.6186   40.1561 H   0  0  0  0  0  0  0  0  0  0  0  0
   39.6431   34.8334   40.1561 H   0  0  0  0  0  0  0  0  0  0  0  0
  2  1  2  0
  3  4  2  0
  3  2  1  0
  4  5  1  0
  5  6  2  0
  6  1  1  0
  7  5  1  0
  7  8  1  0
  9  7  1  0
  9  8  1  0
 10  2  1  0
 11 12  1  0
 11 10  2  0
  1 13  1  0
  3 14  1  0
  7 15  1  0
  8 16  1  0
  8 17  1  0
  9 18  1  0
  9 19  1  0
 10 20  1  0
 11 21  1  0
 12 22  1  0
 12 23  1  0
 12 24  1  0
M  ISO  8  13  14  14  14  15  13  16  13  17  13  18  13  19  13  22   8
M  ISO  2  23   8  24   8
M  END
>  <minimizedAffinity>  (1) 
-4.33764839

>  <minimizedRMSD>  (1) 
4.40319538

$$$$
