
     RDKit          3D

 21 21  0  0  0  0  0  0  0  0999 V2000
   44.3350   35.6810   44.2160 C   0  0  0  0  0  0  0  0  0  0  0  0
   44.4780   34.8860   43.0810 C   0  0  0  0  0  0  0  0  0  0  0  0
   45.1040   33.6560   43.2290 C   0  0  0  0  0  0  0  0  0  0  0  0
   45.5440   33.2950   44.4740 N   0  0  0  0  0  0  0  0  0  0  0  0
   45.3890   34.0860   45.5420 C   0  0  0  0  0  0  0  0  0  0  0  0
   44.7910   35.2630   45.4100 N   0  0  0  0  0  0  0  0  0  0  0  0
   46.7760   32.5540   46.9110 C   0  0  0  0  0  0  0  0  0  0  0  0
   47.1140   32.0170   45.8140 O   0  0  0  0  0  0  0  0  0  0  0  0
   45.8700   33.6460   46.8030 N   0  0  0  0  0  0  0  0  0  0  0  0
   43.9910   35.3230   41.7890 C   0  0  0  0  0  0  0  0  0  0  0  0
   43.0730   34.7350   41.0620 C   0  0  0  0  0  0  0  0  0  0  0  0
   42.6240   35.2530   39.7310 C   0  0  0  0  0  0  0  0  0  0  0  0
   43.8435   36.6617   44.1346 H   0  0  0  0  0  0  0  0  0  0  0  0
   45.2432   32.9874   42.3666 H   0  0  0  0  0  0  0  0  0  0  0  0
   47.1569   32.2002   47.8804 H   0  0  0  0  0  0  0  0  0  0  0  0
   45.5566   34.1274   47.6580 H   0  0  0  0  0  0  0  0  0  0  0  0
   44.4363   36.2404   41.3767 H   0  0  0  0  0  0  0  0  0  0  0  0
   42.6094   33.8155   41.4487 H   0  0  0  0  0  0  0  0  0  0  0  0
   41.9101   36.0766   39.8799 H   0  0  0  0  0  0  0  0  0  0  0  0
   43.4947   35.6198   39.1676 H   0  0  0  0  0  0  0  0  0  0  0  0
   42.1373   34.4432   39.1676 H   0  0  0  0  0  0  0  0  0  0  0  0
  1  6  2  0
  2  3  2  0
  2  1  1  0
  3  4  1  0
  4  5  2  0
  5  9  1  0
  6  5  1  0
  8  7  2  0
  9  7  1  0
 10  2  1  0
 11 10  2  0
 12 11  1  0
  1 13  1  0
  3 14  1  0
  7 15  1  0
  9 16  1  0
 10 17  1  0
 11 18  1  0
 12 19  1  0
 12 20  1  0
 12 21  1  0
M  ISO  6  13  14  14  14  15   6  19   8  20   8  21   8
M  END
>  <minimizedAffinity>  (1) 
-4.25217009

>  <minimizedRMSD>  (1) 
0.169701546

$$$$
