
     RDKit          3D

 28 29  0  0  1  0  0  0  0  0999 V2000
   44.4840   35.8160   42.7430 C   0  0  0  0  0  0  0  0  0  0  0  0
   43.6490   34.9640   42.0260 C   0  0  0  0  0  0  0  0  0  0  0  0
   43.8420   33.6000   42.1520 C   0  0  0  0  0  0  0  0  0  0  0  0
   44.8420   33.1350   42.9710 N   0  0  0  0  0  0  0  0  0  0  0  0
   45.6350   33.9970   43.6530 C   0  0  0  0  0  0  0  0  0  0  0  0
   45.4500   35.3230   43.5340 N   0  0  0  0  0  0  0  0  0  0  0  0
   46.7160   33.5490   44.5400 C   0  0  2  0  0  0  0  0  0  0  0  0
   47.2140   32.2120   44.0020 C   0  0  0  0  0  0  0  0  0  0  0  0
   47.1190   31.3340   45.2300 C   0  0  0  0  0  0  0  0  0  0  0  0
   47.0450   32.1890   46.3380 O   0  0  0  0  0  0  0  0  0  0  0  0
   46.2760   33.2810   45.9510 C   0  0  0  0  0  0  0  0  0  0  0  0
   42.5960   35.4630   41.1640 C   0  0  0  0  0  0  0  0  0  0  0  0
   41.3200   35.5790   41.4660 C   0  0  0  0  0  0  0  0  0  0  0  0
   40.3040   36.1090   40.5030 C   0  0  0  0  0  0  0  0  0  0  0  0
   44.3509   36.9048   42.6606 H   0  0  0  0  0  0  0  0  0  0  0  0
   43.2013   32.8950   41.6020 H   0  0  0  0  0  0  0  0  0  0  0  0
   47.4678   34.3518   44.5588 H   0  0  0  0  0  0  0  0  0  0  0  0
   46.5691   31.8402   43.1921 H   0  0  0  0  0  0  0  0  0  0  0  0
   48.2204   32.2550   43.5600 H   0  0  0  0  0  0  0  0  0  0  0  0
   46.2179   30.7054   45.1766 H   0  0  0  0  0  0  0  0  0  0  0  0
   47.9906   30.6672   45.3052 H   0  0  0  0  0  0  0  0  0  0  0  0
   46.4768   34.1495   46.5955 H   0  0  0  0  0  0  0  0  0  0  0  0
   45.1957   33.0892   46.0299 H   0  0  0  0  0  0  0  0  0  0  0  0
   42.8939   35.7773   40.1528 H   0  0  0  0  0  0  0  0  0  0  0  0
   40.9862   35.2735   42.4686 H   0  0  0  0  0  0  0  0  0  0  0  0
   39.4636   36.5474   41.0611 H   0  0  0  0  0  0  0  0  0  0  0  0
   40.7663   36.8808   39.8701 H   0  0  0  0  0  0  0  0  0  0  0  0
   39.9355   35.2882   39.8701 H   0  0  0  0  0  0  0  0  0  0  0  0
  1  6  2  0
  2  3  2  0
  2  1  1  0
  3  4  1  0
  4  5  2  0
  6  5  1  0
  7  5  1  0
  7 11  1  0
  8  7  1  0
  8  9  1  0
  9 10  1  0
 11 10  1  0
 12 13  2  0
 12  2  1  0
 14 13  1  0
  1 15  1  0
  3 16  1  0
  7 17  1  1
  8 18  1  0
  8 19  1  0
  9 20  1  0
  9 21  1  0
 11 22  1  0
 11 23  1  0
 12 24  1  0
 13 25  1  0
 14 26  1  0
 14 27  1  0
 14 28  1  0
M  ISO  8  15  14  16  14  17  13  18  13  19  13  20  13  21  13  22  13
M  ISO  4  23  13  26   8  27   8  28   8
M  END
>  <minimizedAffinity>  (1) 
-4.17909193

>  <minimizedRMSD>  (1) 
2.4132154

$$$$
