
     RDKit          3D

 18 18  0  0  0  0  0  0  0  0999 V2000
   44.3610   35.7150   44.2690 C   0  0  0  0  0  0  0  0  0  0  0  0
   44.5000   34.8980   43.1270 C   0  0  0  0  0  0  0  0  0  0  0  0
   45.1060   33.6450   43.2630 C   0  0  0  0  0  0  0  0  0  0  0  0
   45.5290   33.2850   44.5040 N   0  0  0  0  0  0  0  0  0  0  0  0
   45.3850   34.0820   45.5720 C   0  0  0  0  0  0  0  0  0  0  0  0
   44.8100   35.2730   45.4470 N   0  0  0  0  0  0  0  0  0  0  0  0
   44.0330   35.3090   41.7960 C   0  0  0  0  0  0  0  0  0  0  0  0
   43.0580   34.7030   41.1220 C   0  0  0  0  0  0  0  0  0  0  0  0
   42.6620   35.2150   39.7560 C   0  0  0  0  0  0  0  0  0  0  0  0
   45.8070   33.7340   46.8310 O   0  0  0  0  0  0  0  0  0  0  0  0
   43.8881   36.7050   44.1902 H   0  0  0  0  0  0  0  0  0  0  0  0
   45.2355   32.9764   42.3992 H   0  0  0  0  0  0  0  0  0  0  0  0
   44.5214   36.1749   41.3252 H   0  0  0  0  0  0  0  0  0  0  0  0
   42.5430   33.8338   41.5570 H   0  0  0  0  0  0  0  0  0  0  0  0
   41.9926   36.0805   39.8687 H   0  0  0  0  0  0  0  0  0  0  0  0
   43.5631   35.5180   39.2026 H   0  0  0  0  0  0  0  0  0  0  0  0
   42.1422   34.4190   39.2026 H   0  0  0  0  0  0  0  0  0  0  0  0
   45.6769   34.3596   47.5872 H   0  0  0  0  0  0  0  0  0  0  0  0
  1  6  2  0
  2  3  2  0
  2  1  1  0
  3  4  1  0
  4  5  2  0
  5 10  1  0
  6  5  1  0
  7  2  1  0
  8  7  2  0
  9  8  1  0
  1 11  1  0
  3 12  1  0
  7 13  1  0
  8 14  1  0
  9 15  1  0
  9 16  1  0
  9 17  1  0
 10 18  1  0
M  ISO  6  11  14  12  14  15   8  16   8  17   8  18   3
M  END
>  <minimizedAffinity>  (1) 
-3.6874299

>  <minimizedRMSD>  (1) 
0.133702114

$$$$
