
     RDKit          3D

 29 30  0  0  0  0  0  0  0  0999 V2000
   44.3840   33.6480   40.6180 C   0  0  0  0  0  0  0  0  0  0  0  0
   44.6750   34.7540   41.4630 C   0  0  0  0  0  0  0  0  0  0  0  0
   43.6870   35.7140   41.6770 C   0  0  0  0  0  0  0  0  0  0  0  0
   42.4830   35.5490   41.0650 N   0  0  0  0  0  0  0  0  0  0  0  0
   42.2480   34.4860   40.2700 C   0  0  0  0  0  0  0  0  0  0  0  0
   43.1870   33.5440   40.0470 N   0  0  0  0  0  0  0  0  0  0  0  0
   39.9910   33.8580   41.7650 F   0  0  0  0  0  0  0  0  0  0  0  0
   39.8260   34.0420   40.4230 C   0  0  0  0  0  0  0  0  0  0  0  0
   40.9400   34.3580   39.6390 C   0  0  0  0  0  0  0  0  0  0  0  0
   40.8300   34.5540   38.2890 C   0  0  0  0  0  0  0  0  0  0  0  0
   39.5750   34.4280   37.7080 C   0  0  0  0  0  0  0  0  0  0  0  0
   38.4380   34.1110   38.4700 C   0  0  0  0  0  0  0  0  0  0  0  0
   38.5730   33.9170   39.8440 C   0  0  0  0  0  0  0  0  0  0  0  0
   45.9980   34.8370   42.0760 C   0  0  0  0  0  0  0  0  0  0  0  0
   47.1480   34.7620   41.4290 C   0  0  0  0  0  0  0  0  0  0  0  0
   48.4370   34.8640   42.2090 C   0  0  0  0  0  0  0  0  0  0  0  0
   48.3260   34.1150   43.4620 N   0  0  0  0  0  0  0  0  0  0  0  0
   45.1487   32.8784   40.4365 H   0  0  0  0  0  0  0  0  0  0  0  0
   43.8760   36.5830   42.3243 H   0  0  0  0  0  0  0  0  0  0  0  0
   41.7116   34.8045   37.6807 H   0  0  0  0  0  0  0  0  0  0  0  0
   39.4684   34.5802   36.6238 H   0  0  0  0  0  0  0  0  0  0  0  0
   37.4535   34.0170   37.9885 H   0  0  0  0  0  0  0  0  0  0  0  0
   37.6966   33.6680   40.4604 H   0  0  0  0  0  0  0  0  0  0  0  0
   46.0409   34.9732   43.1667 H   0  0  0  0  0  0  0  0  0  0  0  0
   47.1659   34.6271   40.3374 H   0  0  0  0  0  0  0  0  0  0  0  0
   49.2598   34.4489   41.6084 H   0  0  0  0  0  0  0  0  0  0  0  0
   48.6375   35.9212   42.4374 H   0  0  0  0  0  0  0  0  0  0  0  0
   48.4218   34.7615   44.2581 H   0  0  0  0  0  0  0  0  0  0  0  0
   47.4071   33.6516   43.5047 H   0  0  0  0  0  0  0  0  0  0  0  0
  1  2  2  0
  2  3  1  0
  2 14  1  0
  4  3  2  0
  5  4  1  0
  6  5  2  0
  6  1  1  0
  8  7  1  0
  9  5  1  0
  9  8  2  0
 10  9  1  0
 11 10  2  0
 11 12  1  0
 12 13  2  0
 13  8  1  0
 15 14  2  0
 15 16  1  0
 16 17  1  0
  1 18  1  0
  3 19  1  0
 10 20  1  0
 11 21  1  0
 12 22  1  0
 13 23  1  0
 14 24  1  0
 15 25  1  0
 16 26  1  0
 16 27  1  0
 17 28  1  0
 17 29  1  0
M  ISO  8  18  14  19  14  20  14  21  14  22  14  23  14  26   8  27   8
M  ISO  2  28   5  29   5
M  END
>  <minimizedAffinity>  (1) 
-5.44421053

>  <minimizedRMSD>  (1) 
0.364703745

$$$$
