
     RDKit          3D

 31 32  0  0  0  0  0  0  0  0999 V2000
   46.5070   33.6280   39.8250 C   0  0  0  0  0  0  0  0  0  0  0  0
   47.7770   34.2140   39.5590 C   0  0  0  0  0  0  0  0  0  0  0  0
   48.3930   34.9660   40.5580 C   0  0  0  0  0  0  0  0  0  0  0  0
   47.7410   35.0970   41.7450 N   0  0  0  0  0  0  0  0  0  0  0  0
   46.5380   34.5260   41.9650 C   0  0  0  0  0  0  0  0  0  0  0  0
   45.9440   33.8060   41.0100 N   0  0  0  0  0  0  0  0  0  0  0  0
   47.0280   32.7660   44.0560 F   0  0  0  0  0  0  0  0  0  0  0  0
   46.1760   33.8060   44.2940 C   0  0  0  0  0  0  0  0  0  0  0  0
   45.9080   34.7100   43.2610 C   0  0  0  0  0  0  0  0  0  0  0  0
   45.0640   35.7720   43.4390 C   0  0  0  0  0  0  0  0  0  0  0  0
   44.4730   35.9290   44.6920 C   0  0  0  0  0  0  0  0  0  0  0  0
   44.7320   35.0280   45.7430 C   0  0  0  0  0  0  0  0  0  0  0  0
   45.5910   33.9600   45.5350 C   0  0  0  0  0  0  0  0  0  0  0  0
   48.4100   34.0100   38.2630 C   0  0  0  0  0  0  0  0  0  0  0  0
   47.9080   33.3280   37.2600 C   0  0  0  0  0  0  0  0  0  0  0  0
   48.6100   33.1760   35.9560 C   0  0  0  0  0  0  0  0  0  0  0  0
   48.3130   32.6610   33.5670 C   0  0  0  0  0  0  0  0  0  0  0  0
   49.4960   32.9210   33.2210 O   0  0  0  0  0  0  0  0  0  0  0  0
   47.7400   32.7480   34.8890 N   0  0  0  0  0  0  0  0  0  0  0  0
   45.9980   33.0326   39.0527 H   0  0  0  0  0  0  0  0  0  0  0  0
   49.3729   35.4375   40.3923 H   0  0  0  0  0  0  0  0  0  0  0  0
   44.8586   36.4782   42.6211 H   0  0  0  0  0  0  0  0  0  0  0  0
   43.7902   36.7742   44.8633 H   0  0  0  0  0  0  0  0  0  0  0  0
   44.2551   35.1710   46.7239 H   0  0  0  0  0  0  0  0  0  0  0  0
   45.8030   33.2470   46.3454 H   0  0  0  0  0  0  0  0  0  0  0  0
   49.3981   34.4690   38.1111 H   0  0  0  0  0  0  0  0  0  0  0  0
   46.9265   32.8482   37.3885 H   0  0  0  0  0  0  0  0  0  0  0  0
   49.0499   34.1459   35.6806 H   0  0  0  0  0  0  0  0  0  0  0  0
   49.3756   32.3969   36.0858 H   0  0  0  0  0  0  0  0  0  0  0  0
   47.6361   32.3280   32.7664 H   0  0  0  0  0  0  0  0  0  0  0  0
   46.7520   32.5143   35.0626 H   0  0  0  0  0  0  0  0  0  0  0  0
  1  6  2  0
  2  1  1  0
  2  3  2  0
  3  4  1  0
  4  5  2  0
  5  9  1  0
  6  5  1  0
  7  8  1  0
  8 13  2  0
  9 10  2  0
  9  8  1  0
 10 11  1  0
 11 12  2  0
 13 12  1  0
 14  2  1  0
 15 14  2  0
 16 15  1  0
 17 19  1  0
 18 17  2  0
 19 16  1  0
  1 20  1  0
  3 21  1  0
 10 22  1  0
 11 23  1  0
 12 24  1  0
 13 25  1  0
 14 26  1  0
 15 27  1  0
 16 28  1  0
 16 29  1  0
 17 30  1  0
 19 31  1  0
M  ISO  8  20  14  21  14  22  14  23  14  24  14  25  14  28   8  29   8
M  ISO  1  30   6
M  END
>  <minimizedAffinity>  (1) 
-5.42837811

>  <minimizedRMSD>  (1) 
7.22146416

$$$$
