
     RDKit          3D

 47 50  0  0  1  0  0  0  0  0999 V2000
   48.0620   34.9110   42.1330 C   0  0  0  0  0  0  0  0  0  0  0  0
   49.1650   34.2530   41.5230 N   0  0  0  0  0  0  0  0  0  0  0  0
   50.2520   34.0550   42.4080 C   0  0  0  0  0  0  0  0  0  0  0  0
   50.9250   32.7730   42.0520 C   0  0  0  0  0  0  0  0  0  0  0  0
   49.8120   31.9860   41.4080 C   0  0  0  0  0  0  0  0  0  0  0  0
   48.7910   32.9890   40.9250 C   0  0  2  0  0  0  0  0  0  0  0  0
   48.8350   33.0390   39.4520 C   0  0  0  0  0  0  0  0  0  0  0  0
   49.2660   32.1570   38.4890 C   0  0  0  0  0  0  0  0  0  0  0  0
   49.2610   32.3640   37.1410 C   0  0  0  0  0  0  0  0  0  0  0  0
   48.7740   33.5720   36.7550 N   0  0  0  0  0  0  0  0  0  0  0  0
   48.3390   34.4690   37.6590 C   0  0  0  0  0  0  0  0  0  0  0  0
   48.3680   34.2120   38.9760 N   0  0  0  0  0  0  0  0  0  0  0  0
   45.6130   34.8350   42.1400 C   0  0  0  0  0  0  0  0  0  0  0  0
   46.7460   34.6370   41.4580 C   0  0  0  0  0  0  0  0  0  0  0  0
   43.8720   33.2990   41.0480 C   0  0  0  0  0  0  0  0  0  0  0  0
   44.2960   34.5770   41.5040 C   0  0  0  0  0  0  0  0  0  0  0  0
   43.4330   35.6880   41.3500 C   0  0  0  0  0  0  0  0  0  0  0  0
   42.2250   35.4730   40.7650 N   0  0  0  0  0  0  0  0  0  0  0  0
   41.8590   34.2520   40.3480 C   0  0  0  0  0  0  0  0  0  0  0  0
   42.6780   33.2100   40.4960 N   0  0  0  0  0  0  0  0  0  0  0  0
   39.5920   33.6840   41.8200 F   0  0  0  0  0  0  0  0  0  0  0  0
   39.4370   33.7980   40.4880 C   0  0  0  0  0  0  0  0  0  0  0  0
   40.5510   34.0800   39.7240 C   0  0  0  0  0  0  0  0  0  0  0  0
   40.4840   34.2160   38.3350 C   0  0  0  0  0  0  0  0  0  0  0  0
   39.2420   34.0570   37.7290 C   0  0  0  0  0  0  0  0  0  0  0  0
   38.0890   33.7670   38.4970 C   0  0  0  0  0  0  0  0  0  0  0  0
   38.2040   33.6410   39.8730 C   0  0  0  0  0  0  0  0  0  0  0  0
   47.9925   34.5759   43.1784 H   0  0  0  0  0  0  0  0  0  0  0  0
   48.2468   35.9922   42.0503 H   0  0  0  0  0  0  0  0  0  0  0  0
   50.9648   34.8873   42.3121 H   0  0  0  0  0  0  0  0  0  0  0  0
   49.8902   34.0150   43.4460 H   0  0  0  0  0  0  0  0  0  0  0  0
   51.7522   32.9411   41.3467 H   0  0  0  0  0  0  0  0  0  0  0  0
   51.3797   32.2631   42.9141 H   0  0  0  0  0  0  0  0  0  0  0  0
   50.2015   31.4038   40.5599 H   0  0  0  0  0  0  0  0  0  0  0  0
   49.3639   31.2794   42.1220 H   0  0  0  0  0  0  0  0  0  0  0  0
   47.7607   32.7291   41.2094 H   0  0  0  0  0  0  0  0  0  0  0  0
   49.6529   31.1892   38.8406 H   0  0  0  0  0  0  0  0  0  0  0  0
   49.6225   31.6127   36.4235 H   0  0  0  0  0  0  0  0  0  0  0  0
   47.9500   35.4369   37.3099 H   0  0  0  0  0  0  0  0  0  0  0  0
   45.6568   35.1916   43.1797 H   0  0  0  0  0  0  0  0  0  0  0  0
   46.7161   34.2789   40.4183 H   0  0  0  0  0  0  0  0  0  0  0  0
   44.5179   32.4147   41.1521 H   0  0  0  0  0  0  0  0  0  0  0  0
   43.7295   36.6906   41.6918 H   0  0  0  0  0  0  0  0  0  0  0  0
   41.3823   34.4410   37.7413 H   0  0  0  0  0  0  0  0  0  0  0  0
   39.1547   34.1581   36.6371 H   0  0  0  0  0  0  0  0  0  0  0  0
   37.1119   33.6429   38.0073 H   0  0  0  0  0  0  0  0  0  0  0  0
   37.3140   33.4157   40.4790 H   0  0  0  0  0  0  0  0  0  0  0  0
  2  1  1  0
  2  3  1  0
  4  3  1  0
  5  4  1  0
  6  5  1  0
  6  2  1  0
  7  6  1  0
  8  7  2  0
  9  8  1  0
 10  9  2  0
 10 11  1  0
 11 12  2  0
 12  7  1  0
 14  1  1  0
 14 13  2  0
 15 16  2  0
 16 13  1  0
 17 16  1  0
 18 17  2  0
 19 20  2  0
 19 18  1  0
 20 15  1  0
 22 21  1  0
 23 19  1  0
 23 22  2  0
 24 23  1  0
 25 24  2  0
 25 26  1  0
 26 27  2  0
 27 22  1  0
  1 28  1  0
  1 29  1  0
  3 30  1  0
  3 31  1  0
  4 32  1  0
  4 33  1  0
  5 34  1  0
  5 35  1  0
  6 36  1  6
  8 37  1  0
  9 38  1  0
 11 39  1  0
 13 40  1  0
 14 41  1  0
 15 42  1  0
 17 43  1  0
 24 44  1  0
 25 45  1  0
 26 46  1  0
 27 47  1  0
M  ISO  8  28   8  29   8  30  13  31  13  32  13  33  13  34  13  35  13
M  ISO  8  36  13  37  14  38  14  39  14  42  14  43  14  44  14  45  14
M  ISO  2  46  14  47  14
M  END
>  <minimizedAffinity>  (1) 
-6.77804232

>  <minimizedRMSD>  (1) 
0.365328044

$$$$
