
     RDKit          3D

 45 47  0  0  1  0  0  0  0  0999 V2000
   45.5850   34.9220   42.0930 C   0  0  0  0  0  0  0  0  0  0  0  0
   46.7450   34.6770   41.4730 C   0  0  0  0  0  0  0  0  0  0  0  0
   44.0130   33.5640   40.6400 C   0  0  0  0  0  0  0  0  0  0  0  0
   44.2830   34.7110   41.4370 C   0  0  0  0  0  0  0  0  0  0  0  0
   43.2770   35.6750   41.6040 C   0  0  0  0  0  0  0  0  0  0  0  0
   42.0820   35.4670   40.9930 N   0  0  0  0  0  0  0  0  0  0  0  0
   41.8570   34.3840   40.2540 C   0  0  0  0  0  0  0  0  0  0  0  0
   42.8210   33.4490   40.0860 N   0  0  0  0  0  0  0  0  0  0  0  0
   39.6420   33.5610   41.7150 F   0  0  0  0  0  0  0  0  0  0  0  0
   39.4620   33.7860   40.3790 C   0  0  0  0  0  0  0  0  0  0  0  0
   40.5580   34.2020   39.6150 C   0  0  0  0  0  0  0  0  0  0  0  0
   40.4500   34.4470   38.2660 C   0  0  0  0  0  0  0  0  0  0  0  0
   39.1980   34.2650   37.6850 C   0  0  0  0  0  0  0  0  0  0  0  0
   38.0840   33.8510   38.4210 C   0  0  0  0  0  0  0  0  0  0  0  0
   38.2230   33.6090   39.7890 C   0  0  0  0  0  0  0  0  0  0  0  0
   48.0360   34.9130   42.2020 C   0  0  0  0  0  0  0  0  0  0  0  0
   49.1460   34.2330   41.5880 N   0  0  0  0  0  0  0  0  0  0  0  0
   50.2840   34.2110   42.4670 C   0  0  0  0  0  0  0  0  0  0  0  0
   51.0260   32.9350   42.2080 C   0  0  0  0  0  0  0  0  0  0  0  0
   49.9280   32.0060   41.7780 C   0  0  0  0  0  0  0  0  0  0  0  0
   48.8150   32.8690   41.2510 C   0  0  2  0  0  0  0  0  0  0  0  0
   48.8540   32.7950   39.7360 C   0  0  0  0  0  0  0  0  0  0  0  0
   48.3700   34.0470   39.0630 C   0  0  0  0  0  0  0  0  0  0  0  0
   45.6042   35.2937   43.1281 H   0  0  0  0  0  0  0  0  0  0  0  0
   46.7527   34.3057   40.4376 H   0  0  0  0  0  0  0  0  0  0  0  0
   44.7805   32.7906   40.4890 H   0  0  0  0  0  0  0  0  0  0  0  0
   43.4515   36.5743   42.2130 H   0  0  0  0  0  0  0  0  0  0  0  0
   41.3161   34.7729   37.6713 H   0  0  0  0  0  0  0  0  0  0  0  0
   39.0811   34.4538   36.6076 H   0  0  0  0  0  0  0  0  0  0  0  0
   37.1096   33.7175   37.9283 H   0  0  0  0  0  0  0  0  0  0  0  0
   37.3606   33.2826   40.3887 H   0  0  0  0  0  0  0  0  0  0  0  0
   48.2444   35.9930   42.2104 H   0  0  0  0  0  0  0  0  0  0  0  0
   47.9224   34.5160   43.2216 H   0  0  0  0  0  0  0  0  0  0  0  0
   50.9352   35.0731   42.2605 H   0  0  0  0  0  0  0  0  0  0  0  0
   49.9641   34.2677   43.5179 H   0  0  0  0  0  0  0  0  0  0  0  0
   51.7733   33.0638   41.4112 H   0  0  0  0  0  0  0  0  0  0  0  0
   51.5937   32.5722   43.0775 H   0  0  0  0  0  0  0  0  0  0  0  0
   50.2901   31.3303   40.9891 H   0  0  0  0  0  0  0  0  0  0  0  0
   49.5836   31.3843   42.6176 H   0  0  0  0  0  0  0  0  0  0  0  0
   47.8421   32.5539   41.6563 H   0  0  0  0  0  0  0  0  0  0  0  0
   49.8922   32.6104   39.4229 H   0  0  0  0  0  0  0  0  0  0  0  0
   48.1767   31.9825   39.4340 H   0  0  0  0  0  0  0  0  0  0  0  0
   48.0842   34.7863   39.8258 H   0  0  0  0  0  0  0  0  0  0  0  0
   49.1733   34.4598   38.4351 H   0  0  0  0  0  0  0  0  0  0  0  0
   47.4979   33.8121   38.4351 H   0  0  0  0  0  0  0  0  0  0  0  0
  2  1  2  0
  2 16  1  0
  3  4  2  0
  4  5  1  0
  4  1  1  0
  6  5  2  0
  7  6  1  0
  8  7  2  0
  8  3  1  0
 10  9  1  0
 11  7  1  0
 11 10  2  0
 12 11  1  0
 13 12  2  0
 13 14  1  0
 14 15  2  0
 15 10  1  0
 17 16  1  0
 17 18  1  0
 19 18  1  0
 20 19  1  0
 21 17  1  0
 21 20  1  0
 22 21  1  0
 23 22  1  0
  1 24  1  0
  2 25  1  0
  3 26  1  0
  5 27  1  0
 12 28  1  0
 13 29  1  0
 14 30  1  0
 15 31  1  0
 16 32  1  0
 16 33  1  0
 18 34  1  0
 18 35  1  0
 19 36  1  0
 19 37  1  0
 20 38  1  0
 20 39  1  0
 21 40  1  1
 22 41  1  0
 22 42  1  0
 23 43  1  0
 23 44  1  0
 23 45  1  0
M  ISO  8  26  14  27  14  28  14  29  14  30  14  31  14  32   8  33   8
M  ISO  8  34  13  35  13  36  13  37  13  38  13  39  13  40  13  41   8
M  ISO  4  42   8  43   8  44   8  45   8
M  END
>  <minimizedAffinity>  (1) 
-5.99427986

>  <minimizedRMSD>  (1) 
0.371861845

$$$$
