
     RDKit          3D

 23 24  0  0  0  0  0  0  0  0999 V2000
   44.6260   35.4110   45.1110 C   0  0  0  0  0  0  0  0  0  0  0  0
   45.2700   35.4360   43.8570 C   0  0  0  0  0  0  0  0  0  0  0  0
   46.2520   34.4560   43.6240 C   0  0  0  0  0  0  0  0  0  0  0  0
   46.5060   33.5640   44.6140 N   0  0  0  0  0  0  0  0  0  0  0  0
   45.8750   33.5670   45.7960 C   0  0  0  0  0  0  0  0  0  0  0  0
   44.9140   34.4970   46.0730 N   0  0  0  0  0  0  0  0  0  0  0  0
   44.8700   32.6900   41.4570 Br  0  0  0  0  0  0  0  0  0  0  0  0
   46.4250   33.7810   41.2310 C   0  0  0  0  0  0  0  0  0  0  0  0
   46.8990   34.5080   42.3290 C   0  0  0  0  0  0  0  0  0  0  0  0
   48.0400   35.2980   42.1250 C   0  0  0  0  0  0  0  0  0  0  0  0
   48.7290   35.4070   40.9120 C   0  0  0  0  0  0  0  0  0  0  0  0
   48.1330   34.6340   39.9500 C   0  0  0  0  0  0  0  0  0  0  0  0
   47.0400   33.8200   39.9740 C   0  0  0  0  0  0  0  0  0  0  0  0
   44.8280   36.4990   42.9340 C   0  0  0  0  0  0  0  0  0  0  0  0
   43.8546   36.1669   45.3197 H   0  0  0  0  0  0  0  0  0  0  0  0
   46.1341   32.8114   46.5523 H   0  0  0  0  0  0  0  0  0  0  0  0
   48.4210   35.8740   42.9812 H   0  0  0  0  0  0  0  0  0  0  0  0
   49.6239   36.0265   40.7528 H   0  0  0  0  0  0  0  0  0  0  0  0
   48.6324   34.6791   38.9709 H   0  0  0  0  0  0  0  0  0  0  0  0
   46.6805   33.2554   39.1011 H   0  0  0  0  0  0  0  0  0  0  0  0
   44.4691   37.3622   43.5138 H   0  0  0  0  0  0  0  0  0  0  0  0
   45.6720   36.8085   42.3001 H   0  0  0  0  0  0  0  0  0  0  0  0
   44.0134   36.1188   42.3001 H   0  0  0  0  0  0  0  0  0  0  0  0
  1  6  2  0
  2  1  1  0
  3  2  2  0
  3  4  1  0
  4  5  2  0
  5  6  1  0
  8  7  1  0
  8  9  2  0
  9  3  1  0
 10  9  1  0
 11 10  2  0
 12 13  2  0
 12 11  1  0
 13  8  1  0
 14  2  1  0
  1 15  1  0
  5 16  1  0
 10 17  1  0
 11 18  1  0
 12 19  1  0
 13 20  1  0
 14 21  1  0
 14 22  1  0
 14 23  1  0
M  ISO  8  15  14  16  14  17  14  18  14  19  14  20  14  21   8  22   8
M  ISO  1  23   8
M  END
>  <minimizedAffinity>  (1) 
-5.11115789

>  <minimizedRMSD>  (1) 
2.07988667

$$$$
