
     RDKit          3D

 28 29  0  0  0  0  0  0  0  0999 V2000
   44.6190   35.4540   45.0670 C   0  0  0  0  0  0  0  0  0  0  0  0
   45.4220   35.3970   43.9320 C   0  0  0  0  0  0  0  0  0  0  0  0
   46.3780   34.3970   43.8360 C   0  0  0  0  0  0  0  0  0  0  0  0
   46.4820   33.5150   44.8700 N   0  0  0  0  0  0  0  0  0  0  0  0
   45.6880   33.5960   45.9580 C   0  0  0  0  0  0  0  0  0  0  0  0
   44.7540   34.5640   46.0630 N   0  0  0  0  0  0  0  0  0  0  0  0
   47.1840   34.3640   42.6630 N   0  0  0  0  0  0  0  0  0  0  0  0
   48.5980   34.6090   42.4150 C   0  0  0  0  0  0  0  0  0  0  0  0
   48.7100   35.5830   41.2420 C   0  0  0  0  0  0  0  0  0  0  0  0
   48.3570   34.8410   39.9800 C   0  0  0  0  0  0  0  0  0  0  0  0
   47.4490   33.6970   40.3620 C   0  0  0  0  0  0  0  0  0  0  0  0
   46.4730   34.0210   41.4460 C   0  0  0  0  0  0  0  0  0  0  0  0
   45.1680   36.4350   42.9160 C   0  0  0  0  0  0  0  0  0  0  0  0
   43.8583   36.2442   45.1498 H   0  0  0  0  0  0  0  0  0  0  0  0
   45.8037   32.8631   46.7701 H   0  0  0  0  0  0  0  0  0  0  0  0
   49.0635   35.0474   43.3100 H   0  0  0  0  0  0  0  0  0  0  0  0
   49.1136   33.6663   42.1795 H   0  0  0  0  0  0  0  0  0  0  0  0
   48.0145   36.4227   41.3873 H   0  0  0  0  0  0  0  0  0  0  0  0
   49.7330   35.9818   41.1752 H   0  0  0  0  0  0  0  0  0  0  0  0
   49.2702   34.4527   39.5053 H   0  0  0  0  0  0  0  0  0  0  0  0
   47.8554   35.5104   39.2657 H   0  0  0  0  0  0  0  0  0  0  0  0
   46.8833   33.3934   39.4688 H   0  0  0  0  0  0  0  0  0  0  0  0
   48.0968   32.8974   40.7506 H   0  0  0  0  0  0  0  0  0  0  0  0
   45.8510   34.8730   41.1343 H   0  0  0  0  0  0  0  0  0  0  0  0
   45.8353   33.1446   41.6335 H   0  0  0  0  0  0  0  0  0  0  0  0
   44.9350   37.3872   43.4150 H   0  0  0  0  0  0  0  0  0  0  0  0
   46.0622   36.5595   42.2875 H   0  0  0  0  0  0  0  0  0  0  0  0
   44.3174   36.1326   42.2875 H   0  0  0  0  0  0  0  0  0  0  0  0
  1  6  2  0
  2  1  1  0
  3  2  2  0
  3  4  1  0
  4  5  2  0
  5  6  1  0
  7  3  1  0
  8  7  1  0
  9  8  1  0
 10 11  1  0
 10  9  1  0
 11 12  1  0
 12  7  1  0
 13  2  1  0
  1 14  1  0
  5 15  1  0
  8 16  1  0
  8 17  1  0
  9 18  1  0
  9 19  1  0
 10 20  1  0
 10 21  1  0
 11 22  1  0
 11 23  1  0
 12 24  1  0
 12 25  1  0
 13 26  1  0
 13 27  1  0
 13 28  1  0
M  ISO  8  14  14  15  14  16  13  17  13  18  13  19  13  20  13  21  13
M  ISO  7  22  13  23  13  24  13  25  13  26   8  27   8  28   8
M  END
>  <minimizedAffinity>  (1) 
-4.69242382

>  <minimizedRMSD>  (1) 
2.42329288

$$$$
