
     RDKit          3D

 25 26  0  0  0  0  0  0  0  0999 V2000
   44.9550   34.8740   45.1900 C   0  0  0  0  0  0  0  0  0  0  0  0
   45.5250   35.1360   43.9290 C   0  0  0  0  0  0  0  0  0  0  0  0
   46.5850   34.3170   43.5150 C   0  0  0  0  0  0  0  0  0  0  0  0
   46.9670   33.3390   44.3690 N   0  0  0  0  0  0  0  0  0  0  0  0
   46.4080   33.1120   45.5600 C   0  0  0  0  0  0  0  0  0  0  0  0
   45.3900   33.8820   45.9820 N   0  0  0  0  0  0  0  0  0  0  0  0
   47.2010   34.5230   42.2460 N   0  0  0  0  0  0  0  0  0  0  0  0
   48.5520   35.0930   42.2490 C   0  0  0  0  0  0  0  0  0  0  0  0
   48.7870   35.5440   40.8500 C   0  0  0  0  0  0  0  0  0  0  0  0
   48.1550   34.3750   40.0850 C   0  0  0  0  0  0  0  0  0  0  0  0
   46.8260   34.2990   40.8710 C   0  0  0  0  0  0  0  0  0  0  0  0
   44.9590   36.2500   43.1630 C   0  0  0  0  0  0  0  0  0  0  0  0
   44.1238   35.5049   45.5379 H   0  0  0  0  0  0  0  0  0  0  0  0
   46.7803   32.2952   46.1958 H   0  0  0  0  0  0  0  0  0  0  0  0
   48.6104   35.9438   42.9438 H   0  0  0  0  0  0  0  0  0  0  0  0
   49.3061   34.3630   42.5783 H   0  0  0  0  0  0  0  0  0  0  0  0
   48.2773   36.4951   40.6364 H   0  0  0  0  0  0  0  0  0  0  0  0
   49.8383   35.7482   40.5990 H   0  0  0  0  0  0  0  0  0  0  0  0
   47.9977   34.6090   39.0217 H   0  0  0  0  0  0  0  0  0  0  0  0
   48.7461   33.4482   40.0442 H   0  0  0  0  0  0  0  0  0  0  0  0
   46.1273   35.0762   40.5278 H   0  0  0  0  0  0  0  0  0  0  0  0
   46.3138   33.3357   40.7307 H   0  0  0  0  0  0  0  0  0  0  0  0
   44.5719   37.0119   43.8555 H   0  0  0  0  0  0  0  0  0  0  0  0
   45.7409   36.6939   42.5293 H   0  0  0  0  0  0  0  0  0  0  0  0
   44.1394   35.8803   42.5293 H   0  0  0  0  0  0  0  0  0  0  0  0
  1  6  2  0
  2  1  1  0
  3  2  2  0
  3  4  1  0
  4  5  2  0
  5  6  1  0
  7  8  1  0
  7  3  1  0
  9  8  1  0
 10  9  1  0
 10 11  1  0
 11  7  1  0
 12  2  1  0
  1 13  1  0
  5 14  1  0
  8 15  1  0
  8 16  1  0
  9 17  1  0
  9 18  1  0
 10 19  1  0
 10 20  1  0
 11 21  1  0
 11 22  1  0
 12 23  1  0
 12 24  1  0
 12 25  1  0
M  ISO  8  13  14  14  14  15  13  16  13  17  13  18  13  19  13  20  13
M  ISO  5  21  13  22  13  23   8  24   8  25   8
M  END
>  <minimizedAffinity>  (1) 
-4.4480238

>  <minimizedRMSD>  (1) 
2.3990128

$$$$
