
     RDKit          3D

 21 22  0  0  0  0  0  0  0  0999 V2000
   44.6350   35.3350   45.1140 C   0  0  0  0  0  0  0  0  0  0  0  0
   45.2180   35.3440   43.8490 C   0  0  0  0  0  0  0  0  0  0  0  0
   46.2100   34.4150   43.5710 C   0  0  0  0  0  0  0  0  0  0  0  0
   46.5640   33.5400   44.5440 N   0  0  0  0  0  0  0  0  0  0  0  0
   45.9830   33.5550   45.7540 C   0  0  0  0  0  0  0  0  0  0  0  0
   45.0040   34.4570   46.0610 N   0  0  0  0  0  0  0  0  0  0  0  0
   46.8110   34.4330   42.2500 C   0  0  0  0  0  0  0  0  0  0  0  0
   47.9730   35.2090   42.2090 C   0  0  0  0  0  0  0  0  0  0  0  0
   48.6910   35.3520   41.0410 C   0  0  0  0  0  0  0  0  0  0  0  0
   48.2440   34.7250   39.9390 N   0  0  0  0  0  0  0  0  0  0  0  0
   47.1080   33.9700   39.9870 C   0  0  0  0  0  0  0  0  0  0  0  0
   46.3840   33.8160   41.1320 N   0  0  0  0  0  0  0  0  0  0  0  0
   44.7260   36.3600   42.8950 C   0  0  0  0  0  0  0  0  0  0  0  0
   43.8488   36.0690   45.3443 H   0  0  0  0  0  0  0  0  0  0  0  0
   46.3017   32.8262   46.5138 H   0  0  0  0  0  0  0  0  0  0  0  0
   48.3198   35.7134   43.1230 H   0  0  0  0  0  0  0  0  0  0  0  0
   49.6053   35.9629   41.0114 H   0  0  0  0  0  0  0  0  0  0  0  0
   46.7647   33.4684   39.0702 H   0  0  0  0  0  0  0  0  0  0  0  0
   44.3122   37.2145   43.4504 H   0  0  0  0  0  0  0  0  0  0  0  0
   45.5582   36.7023   42.2623 H   0  0  0  0  0  0  0  0  0  0  0  0
   43.9415   35.9194   42.2623 H   0  0  0  0  0  0  0  0  0  0  0  0
  1  6  2  0
  2  1  1  0
  3  2  2  0
  3  4  1  0
  4  5  2  0
  5  6  1  0
  7  3  1  0
  8  7  2  0
  9  8  1  0
 10 11  1  0
 10  9  2  0
 11 12  2  0
 12  7  1  0
 13  2  1  0
  1 14  1  0
  5 15  1  0
  8 16  1  0
  9 17  1  0
 11 18  1  0
 13 19  1  0
 13 20  1  0
 13 21  1  0
M  ISO  8  14  14  15  14  16  14  17  14  18  14  19   8  20   8  21   8
M  END
>  <minimizedAffinity>  (1) 
-4.40017128

>  <minimizedRMSD>  (1) 
2.2785728

$$$$
