
     RDKit          3D

 15 15  0  0  0  0  0  0  0  0999 V2000
   44.6340   35.3570   45.1460 C   0  0  0  0  0  0  0  0  0  0  0  0
   45.2490   35.4330   43.9010 C   0  0  0  0  0  0  0  0  0  0  0  0
   46.2450   34.5160   43.5980 C   0  0  0  0  0  0  0  0  0  0  0  0
   46.5760   33.5820   44.5400 N   0  0  0  0  0  0  0  0  0  0  0  0
   45.9540   33.5480   45.7320 C   0  0  0  0  0  0  0  0  0  0  0  0
   44.9820   34.4270   46.0510 N   0  0  0  0  0  0  0  0  0  0  0  0
   44.8220   36.4770   42.9530 C   0  0  0  0  0  0  0  0  0  0  0  0
   46.9040   34.5620   42.3230 C   0  0  0  0  0  0  0  0  0  0  0  0
   47.9510   35.2270   42.0670 O   0  0  0  0  0  0  0  0  0  0  0  0
   43.8415   36.0775   45.3965 H   0  0  0  0  0  0  0  0  0  0  0  0
   46.2458   32.7828   46.4664 H   0  0  0  0  0  0  0  0  0  0  0  0
   44.4631   37.3544   43.5110 H   0  0  0  0  0  0  0  0  0  0  0  0
   45.6733   36.7680   42.3201 H   0  0  0  0  0  0  0  0  0  0  0  0
   44.0107   36.0880   42.3201 H   0  0  0  0  0  0  0  0  0  0  0  0
   46.4648   33.9733   41.5041 H   0  0  0  0  0  0  0  0  0  0  0  0
  1  6  2  0
  2  1  1  0
  3  2  2  0
  3  4  1  0
  4  5  2  0
  5  6  1  0
  7  2  1  0
  8  3  1  0
  9  8  2  0
  1 10  1  0
  5 11  1  0
  7 12  1  0
  7 13  1  0
  7 14  1  0
  8 15  1  0
M  ISO  6  10  14  11  14  12   8  13   8  14   8  15   6
M  END
>  <minimizedAffinity>  (1) 
-3.13664699

>  <minimizedRMSD>  (1) 
1.47500992

$$$$
