
     RDKit          3D

 33 35  0  0  0  0  0  0  0  0999 V2000
   44.8500   34.8790   44.9840 C   0  0  0  0  0  0  0  0  0  0  0  0
   45.4500   35.0390   43.7150 C   0  0  0  0  0  0  0  0  0  0  0  0
   46.5820   34.2550   43.4820 C   0  0  0  0  0  0  0  0  0  0  0  0
   47.0330   33.4110   44.4440 N   0  0  0  0  0  0  0  0  0  0  0  0
   46.4060   33.3130   45.6400 C   0  0  0  0  0  0  0  0  0  0  0  0
   45.3000   34.0480   45.9270 N   0  0  0  0  0  0  0  0  0  0  0  0
   47.2380   34.3890   42.1850 C   0  0  0  0  0  0  0  0  0  0  0  0
   48.1210   35.3790   41.7760 C   0  0  0  0  0  0  0  0  0  0  0  0
   48.6490   35.3620   40.5080 C   0  0  0  0  0  0  0  0  0  0  0  0
   48.2980   34.3540   39.6480 C   0  0  0  0  0  0  0  0  0  0  0  0
   47.4240   33.3630   40.0410 C   0  0  0  0  0  0  0  0  0  0  0  0
   46.8870   33.3800   41.3270 C   0  0  0  0  0  0  0  0  0  0  0  0
   44.8690   35.9860   42.7910 C   0  0  0  0  0  0  0  0  0  0  0  0
   43.8890   35.4960   41.8390 C   0  0  0  0  0  0  0  0  0  0  0  0
   43.9530   34.8780   40.6050 C   0  0  0  0  0  0  0  0  0  0  0  0
   42.8280   34.5230   39.9070 C   0  0  0  0  0  0  0  0  0  0  0  0
   41.5660   34.7410   40.3490 C   0  0  0  0  0  0  0  0  0  0  0  0
   41.4370   35.3650   41.5930 C   0  0  0  0  0  0  0  0  0  0  0  0
   42.5830   35.7170   42.2880 C   0  0  0  0  0  0  0  0  0  0  0  0
   43.9549   35.4773   45.2095 H   0  0  0  0  0  0  0  0  0  0  0  0
   46.8019   32.6212   46.3981 H   0  0  0  0  0  0  0  0  0  0  0  0
   48.4000   36.1833   42.4727 H   0  0  0  0  0  0  0  0  0  0  0  0
   49.3464   36.1493   40.1860 H   0  0  0  0  0  0  0  0  0  0  0  0
   48.7189   34.3356   38.6319 H   0  0  0  0  0  0  0  0  0  0  0  0
   47.1508   32.5600   39.3406 H   0  0  0  0  0  0  0  0  0  0  0  0
   46.1897   32.5927   41.6494 H   0  0  0  0  0  0  0  0  0  0  0  0
   44.3805   36.7692   43.3893 H   0  0  0  0  0  0  0  0  0  0  0  0
   45.7140   36.3170   42.1694 H   0  0  0  0  0  0  0  0  0  0  0  0
   44.9395   34.6637   40.1681 H   0  0  0  0  0  0  0  0  0  0  0  0
   42.9574   34.0325   38.9310 H   0  0  0  0  0  0  0  0  0  0  0  0
   40.6873   34.4420   39.7587 H   0  0  0  0  0  0  0  0  0  0  0  0
   40.4421   35.5733   42.0135 H   0  0  0  0  0  0  0  0  0  0  0  0
   42.4562   36.2064   43.2650 H   0  0  0  0  0  0  0  0  0  0  0  0
  1  6  2  0
  2  1  1  0
  3  2  2  0
  3  4  1  0
  4  5  2  0
  5  6  1  0
  7  3  1  0
  8  7  2  0
  9  8  1  0
 10 11  1  0
 10  9  2  0
 11 12  2  0
 12  7  1  0
 13  2  1  0
 14 19  1  0
 14 13  1  0
 15 14  2  0
 16 17  2  0
 16 15  1  0
 17 18  1  0
 18 19  2  0
  1 20  1  0
  5 21  1  0
  8 22  1  0
  9 23  1  0
 10 24  1  0
 11 25  1  0
 12 26  1  0
 13 27  1  0
 13 28  1  0
 15 29  1  0
 16 30  1  0
 17 31  1  0
 18 32  1  0
 19 33  1  0
M  ISO  8  20  14  21  14  22  14  23  14  24  14  25  14  26  14  27   8
M  ISO  6  28   8  29  14  30  14  31  14  32  14  33  14
M  END
>  <minimizedAffinity>  (1) 
-5.65885782

>  <minimizedRMSD>  (1) 
0.684905648

$$$$
