
     RDKit          3D

 24 25  0  0  0  0  0  0  0  0999 V2000
   44.7390   35.2050   45.0980 C   0  0  0  0  0  0  0  0  0  0  0  0
   45.3620   35.3350   43.8530 C   0  0  0  0  0  0  0  0  0  0  0  0
   46.3900   34.4530   43.5730 C   0  0  0  0  0  0  0  0  0  0  0  0
   46.7390   33.5240   44.4940 N   0  0  0  0  0  0  0  0  0  0  0  0
   46.1080   33.4380   45.6820 C   0  0  0  0  0  0  0  0  0  0  0  0
   45.1000   34.2760   45.9990 N   0  0  0  0  0  0  0  0  0  0  0  0
   47.0710   34.5660   42.2720 C   0  0  0  0  0  0  0  0  0  0  0  0
   48.1680   35.3520   41.9760 C   0  0  0  0  0  0  0  0  0  0  0  0
   48.6700   35.3270   40.6800 C   0  0  0  0  0  0  0  0  0  0  0  0
   48.0880   34.5410   39.7180 C   0  0  0  0  0  0  0  0  0  0  0  0
   46.9960   33.7630   40.0230 C   0  0  0  0  0  0  0  0  0  0  0  0
   46.4880   33.7780   41.3090 C   0  0  0  0  0  0  0  0  0  0  0  0
   44.8940   36.3830   42.9400 C   0  0  0  0  0  0  0  0  0  0  0  0
   44.9670   37.6610   43.4960 O   0  0  0  0  0  0  0  0  0  0  0  0
   43.9184   35.8926   45.3505 H   0  0  0  0  0  0  0  0  0  0  0  0
   46.4207   32.6708   46.4056 H   0  0  0  0  0  0  0  0  0  0  0  0
   48.6332   35.9828   42.7478 H   0  0  0  0  0  0  0  0  0  0  0  0
   49.5435   35.9442   40.4230 H   0  0  0  0  0  0  0  0  0  0  0  0
   48.4972   34.5331   38.6970 H   0  0  0  0  0  0  0  0  0  0  0  0
   46.5303   33.1338   39.2502 H   0  0  0  0  0  0  0  0  0  0  0  0
   45.6153   33.1578   41.5617 H   0  0  0  0  0  0  0  0  0  0  0  0
   43.8469   36.1752   42.6746 H   0  0  0  0  0  0  0  0  0  0  0  0
   45.5509   36.3692   42.0578 H   0  0  0  0  0  0  0  0  0  0  0  0
   44.9631   37.5919   44.4836 H   0  0  0  0  0  0  0  0  0  0  0  0
  1  6  2  0
  2  1  1  0
  3  2  2  0
  3  4  1  0
  4  5  2  0
  5  6  1  0
  7  3  1  0
  8  7  2  0
  9  8  1  0
 10 11  1  0
 10  9  2  0
 11 12  2  0
 12  7  1  0
 13 14  1  0
 13  2  1  0
  1 15  1  0
  5 16  1  0
  8 17  1  0
  9 18  1  0
 10 19  1  0
 11 20  1  0
 12 21  1  0
 13 22  1  0
 13 23  1  0
 14 24  1  0
M  ISO  8  15  14  16  14  17  14  18  14  19  14  20  14  21  14  22   8
M  ISO  2  23   8  24   3
M  END
>  <minimizedAffinity>  (1) 
-5.23997498

>  <minimizedRMSD>  (1) 
0.346348584

$$$$
