
     RDKit          3D

 27 28  0  0  0  0  0  0  0  0999 V2000
   44.9550   34.9290   45.1840 C   0  0  0  0  0  0  0  0  0  0  0  0
   45.5630   35.1620   43.9510 C   0  0  0  0  0  0  0  0  0  0  0  0
   46.5850   34.3290   43.5540 C   0  0  0  0  0  0  0  0  0  0  0  0
   46.9480   33.3120   44.4010 N   0  0  0  0  0  0  0  0  0  0  0  0
   46.3330   33.1180   45.5920 C   0  0  0  0  0  0  0  0  0  0  0  0
   45.3330   33.9230   45.9930 N   0  0  0  0  0  0  0  0  0  0  0  0
   47.2300   34.5500   42.2820 C   0  0  0  0  0  0  0  0  0  0  0  0
   48.2740   35.3740   41.9740 C   0  0  0  0  0  0  0  0  0  0  0  0
   48.7580   35.4510   40.6880 C   0  0  0  0  0  0  0  0  0  0  0  0
   48.1830   34.6850   39.6900 C   0  0  0  0  0  0  0  0  0  0  0  0
   47.1300   33.8460   39.9730 C   0  0  0  0  0  0  0  0  0  0  0  0
   46.6630   33.7890   41.2810 C   0  0  0  0  0  0  0  0  0  0  0  0
   45.0720   36.2940   43.1380 C   0  0  0  0  0  0  0  0  0  0  0  0
   44.8350   37.3760   44.0760 N   0  0  0  0  0  0  0  0  0  0  0  0
   45.4100   38.6220   43.6380 C   0  0  0  0  0  0  0  0  0  0  0  0
   45.3040   39.6640   44.3230 O   0  0  0  0  0  0  0  0  0  0  0  0
   44.1377   35.5909   45.5064 H   0  0  0  0  0  0  0  0  0  0  0  0
   46.6560   32.2903   46.2405 H   0  0  0  0  0  0  0  0  0  0  0  0
   48.7346   35.9847   42.7645 H   0  0  0  0  0  0  0  0  0  0  0  0
   49.5996   36.1197   40.4544 H   0  0  0  0  0  0  0  0  0  0  0  0
   48.5706   34.7471   38.6624 H   0  0  0  0  0  0  0  0  0  0  0  0
   46.6687   33.2350   39.1832 H   0  0  0  0  0  0  0  0  0  0  0  0
   45.8224   33.1221   41.5232 H   0  0  0  0  0  0  0  0  0  0  0  0
   45.8275   36.5889   42.3949 H   0  0  0  0  0  0  0  0  0  0  0  0
   44.1598   36.0302   42.5828 H   0  0  0  0  0  0  0  0  0  0  0  0
   44.3134   37.2652   44.9572 H   0  0  0  0  0  0  0  0  0  0  0  0
   45.9532   38.6584   42.6822 H   0  0  0  0  0  0  0  0  0  0  0  0
  1  6  2  0
  2  1  1  0
  3  2  2  0
  3  4  1  0
  4  5  2  0
  5  6  1  0
  7  3  1  0
  8  7  2  0
  9  8  1  0
 10 11  1  0
 10  9  2  0
 11 12  2  0
 12  7  1  0
 13  2  1  0
 13 14  1  0
 15 14  1  0
 15 16  2  0
  1 17  1  0
  5 18  1  0
  8 19  1  0
  9 20  1  0
 10 21  1  0
 11 22  1  0
 12 23  1  0
 13 24  1  0
 13 25  1  0
 14 26  1  0
 15 27  1  0
M  ISO  8  17  14  18  14  19  14  20  14  21  14  22  14  23  14  24   8
M  ISO  2  25   8  27   6
M  END
>  <minimizedAffinity>  (1) 
-5.35966158

>  <minimizedRMSD>  (1) 
0.501910269

$$$$
