MODEL 1
REMARK minimizedAffinity -2.75269651REMARK  Name = 7
REMARK  0 active torsions:
REMARK  status: ('A' for Active; 'I' for Inactive)
REMARK                            x       y       z     vdW  Elec       q    Type
REMARK                         _______ _______ _______ _____ _____    ______ ____
ROOT
ATOM      1  C   UNL     1      64.065  56.900  26.472  0.00  0.00    +0.000 A 
ATOM      2  C   UNL     1      62.838  56.525  27.061  0.00  0.00    +0.000 A 
ATOM      3  C   UNL     1      62.733  56.600  28.458  0.00  0.00    +0.000 A 
ATOM      4  N   UNL     1      63.821  57.026  29.164  0.00  0.00    +0.000 NA
ATOM      5  C   UNL     1      64.981  57.379  28.565  0.00  0.00    +0.000 A 
ATOM      6  N   UNL     1      65.097  57.318  27.225  0.00  0.00    +0.000 NA
ENDROOT
TORSDOF 0
ENDMDL
MODEL 2
REMARK minimizedAffinity -2.72686505REMARK  Name = 7
REMARK  0 active torsions:
REMARK  status: ('A' for Active; 'I' for Inactive)
REMARK                            x       y       z     vdW  Elec       q    Type
REMARK                         _______ _______ _______ _____ _____    ______ ____
ROOT
ATOM      1  C   UNL     1      63.809  57.090  28.342  0.00  0.00    +0.000 A 
ATOM      2  C   UNL     1      62.619  56.335  28.412  0.00  0.00    +0.000 A 
ATOM      3  C   UNL     1      62.161  55.724  27.235  0.00  0.00    +0.000 A 
ATOM      4  N   UNL     1      62.890  55.896  26.094  0.00  0.00    +0.000 NA
ATOM      5  C   UNL     1      64.028  56.626  26.065  0.00  0.00    +0.000 A 
ATOM      6  N   UNL     1      64.484  57.216  27.186  0.00  0.00    +0.000 NA
ENDROOT
TORSDOF 0
ENDMDL
MODEL 3
REMARK minimizedAffinity -2.71910024REMARK  Name = 7
REMARK  0 active torsions:
REMARK  status: ('A' for Active; 'I' for Inactive)
REMARK                            x       y       z     vdW  Elec       q    Type
REMARK                         _______ _______ _______ _____ _____    ______ ____
ROOT
ATOM      1  C   UNL     1      62.811  56.527  28.318  0.00  0.00    +0.000 A 
ATOM      2  C   UNL     1      62.291  55.918  27.156  0.00  0.00    +0.000 A 
ATOM      3  C   UNL     1      63.056  55.991  25.981  0.00  0.00    +0.000 A 
ATOM      4  N   UNL     1      64.252  56.648  26.031  0.00  0.00    +0.000 NA
ATOM      5  C   UNL     1      64.719  57.218  27.164  0.00  0.00    +0.000 A 
ATOM      6  N   UNL     1      64.000  57.154  28.301  0.00  0.00    +0.000 NA
ENDROOT
TORSDOF 0
ENDMDL
MODEL 4
REMARK minimizedAffinity -2.67090464REMARK  Name = 7
REMARK  0 active torsions:
REMARK  status: ('A' for Active; 'I' for Inactive)
REMARK                            x       y       z     vdW  Elec       q    Type
REMARK                         _______ _______ _______ _____ _____    ______ ____
ROOT
ATOM      1  C   UNL     1      65.018  57.239  27.065  0.00  0.00    +0.000 A 
ATOM      2  C   UNL     1      63.830  56.833  26.421  0.00  0.00    +0.000 A 
ATOM      3  C   UNL     1      62.700  56.599  27.220  0.00  0.00    +0.000 A 
ATOM      4  N   UNL     1      62.817  56.773  28.569  0.00  0.00    +0.000 NA
ATOM      5  C   UNL     1      63.974  57.164  29.151  0.00  0.00    +0.000 A 
ATOM      6  N   UNL     1      65.066  57.398  28.399  0.00  0.00    +0.000 NA
ENDROOT
TORSDOF 0
ENDMDL
MODEL 5
REMARK minimizedAffinity -2.6477778REMARK  Name = 7
REMARK  0 active torsions:
REMARK  status: ('A' for Active; 'I' for Inactive)
REMARK                            x       y       z     vdW  Elec       q    Type
REMARK                         _______ _______ _______ _____ _____    ______ ____
ROOT
ATOM      1  C   UNL     1      62.768  56.662  28.480  0.00  0.00    +0.000 A 
ATOM      2  C   UNL     1      63.849  57.110  29.269  0.00  0.00    +0.000 A 
ATOM      3  C   UNL     1      65.045  57.438  28.614  0.00  0.00    +0.000 A 
ATOM      4  N   UNL     1      65.095  57.301  27.256  0.00  0.00    +0.000 NA
ATOM      5  C   UNL     1      64.036  56.870  26.533  0.00  0.00    +0.000 A 
ATOM      6  N   UNL     1      62.879  56.556  27.145  0.00  0.00    +0.000 NA
ENDROOT
TORSDOF 0
ENDMDL
MODEL 6
REMARK minimizedAffinity -2.34541631REMARK  Name = 7
REMARK  0 active torsions:
REMARK  status: ('A' for Active; 'I' for Inactive)
REMARK                            x       y       z     vdW  Elec       q    Type
REMARK                         _______ _______ _______ _____ _____    ______ ____
ROOT
ATOM      1  C   UNL     1      66.451  57.002  30.840  0.00  0.00    +0.000 A 
ATOM      2  C   UNL     1      65.848  57.521  32.006  0.00  0.00    +0.000 A 
ATOM      3  C   UNL     1      64.579  58.107  31.880  0.00  0.00    +0.000 A 
ATOM      4  N   UNL     1      64.006  58.144  30.641  0.00  0.00    +0.000 NA
ATOM      5  C   UNL     1      64.615  57.634  29.546  0.00  0.00    +0.000 A 
ATOM      6  N   UNL     1      65.831  57.064  29.650  0.00  0.00    +0.000 NA
ENDROOT
TORSDOF 0
ENDMDL
MODEL 7
REMARK minimizedAffinity -2.34461594REMARK  Name = 7
REMARK  0 active torsions:
REMARK  status: ('A' for Active; 'I' for Inactive)
REMARK                            x       y       z     vdW  Elec       q    Type
REMARK                         _______ _______ _______ _____ _____    ______ ____
ROOT
ATOM      1  C   UNL     1      64.321  58.223  31.571  0.00  0.00    +0.000 A 
ATOM      2  C   UNL     1      65.466  57.795  32.277  0.00  0.00    +0.000 A 
ATOM      3  C   UNL     1      66.469  57.133  31.554  0.00  0.00    +0.000 A 
ATOM      4  N   UNL     1      66.279  56.939  30.215  0.00  0.00    +0.000 NA
ATOM      5  C   UNL     1      65.168  57.365  29.574  0.00  0.00    +0.000 A 
ATOM      6  N   UNL     1      64.197  58.006  30.251  0.00  0.00    +0.000 NA
ENDROOT
TORSDOF 0
ENDMDL
MODEL 8
REMARK minimizedAffinity -2.33881998REMARK  Name = 7
REMARK  0 active torsions:
REMARK  status: ('A' for Active; 'I' for Inactive)
REMARK                            x       y       z     vdW  Elec       q    Type
REMARK                         _______ _______ _______ _____ _____    ______ ____
ROOT
ATOM      1  C   UNL     1      64.384  58.178  31.710  0.00  0.00    +0.000 A 
ATOM      2  C   UNL     1      64.236  58.010  30.316  0.00  0.00    +0.000 A 
ATOM      3  C   UNL     1      65.263  57.351  29.624  0.00  0.00    +0.000 A 
ATOM      4  N   UNL     1      66.344  56.916  30.336  0.00  0.00    +0.000 NA
ATOM      5  C   UNL     1      66.450  57.094  31.673  0.00  0.00    +0.000 A 
ATOM      6  N   UNL     1      65.472  57.720  32.353  0.00  0.00    +0.000 NA
ENDROOT
TORSDOF 0
ENDMDL
MODEL 9
REMARK minimizedAffinity -2.33527803REMARK  Name = 7
REMARK  0 active torsions:
REMARK  status: ('A' for Active; 'I' for Inactive)
REMARK                            x       y       z     vdW  Elec       q    Type
REMARK                         _______ _______ _______ _____ _____    ______ ____
ROOT
ATOM      1  C   UNL     1      64.908  57.553  29.739  0.00  0.00    +0.000 A 
ATOM      2  C   UNL     1      64.128  58.140  30.758  0.00  0.00    +0.000 A 
ATOM      3  C   UNL     1      64.638  58.124  32.064  0.00  0.00    +0.000 A 
ATOM      4  N   UNL     1      65.854  57.540  32.274  0.00  0.00    +0.000 NA
ATOM      5  C   UNL     1      66.575  56.988  31.272  0.00  0.00    +0.000 A 
ATOM      6  N   UNL     1      66.102  56.998  30.012  0.00  0.00    +0.000 NA
ENDROOT
TORSDOF 0
ENDMDL
