MODEL 1
REMARK minimizedAffinity -2.75269651REMARK  Name = 7
REMARK  0 active torsions:
REMARK  status: ('A' for Active; 'I' for Inactive)
REMARK                            x       y       z     vdW  Elec       q    Type
REMARK                         _______ _______ _______ _____ _____    ______ ____
ROOT
ATOM      1  C   UNL     1      64.065  56.900  26.472  0.00  0.00    +0.000 A 
ATOM      2  C   UNL     1      62.838  56.525  27.061  0.00  0.00    +0.000 A 
ATOM      3  C   UNL     1      62.733  56.600  28.458  0.00  0.00    +0.000 A 
ATOM      4  N   UNL     1      63.821  57.026  29.164  0.00  0.00    +0.000 NA
ATOM      5  C   UNL     1      64.981  57.379  28.565  0.00  0.00    +0.000 A 
ATOM      6  N   UNL     1      65.097  57.318  27.225  0.00  0.00    +0.000 NA
ENDROOT
TORSDOF 0
ENDMDL
