./init_pose/1_0.pdbqt
     RDKit          3D

 10 10  0  0  0  0  0  0  0  0999 V2000
   64.0650   56.9000   26.4720 C   0  0  0  0  0  0  0  0  0  0  0  0
   62.8380   56.5250   27.0610 C   0  0  0  0  0  0  0  0  0  0  0  0
   62.7330   56.6000   28.4580 C   0  0  0  0  0  0  0  0  0  0  0  0
   63.8210   57.0260   29.1640 N   0  0  0  0  0  0  0  0  0  0  0  0
   64.9810   57.3790   28.5650 C   0  0  0  0  0  0  0  0  0  0  0  0
   65.0970   57.3180   27.2250 N   0  0  0  0  0  0  0  0  0  0  0  0
   64.1783   56.8493   25.3790 H   0  0  0  0  0  0  0  0  0  0  0  0
   61.9923   56.1853   26.4450 H   0  0  0  0  0  0  0  0  0  0  0  0
   61.7998   56.3232   28.9703 H   0  0  0  0  0  0  0  0  0  0  0  0
   65.8322   57.7169   29.1743 H   0  0  0  0  0  0  0  0  0  0  0  0
  1  2  2  0
  1  6  1  0
  2  3  1  0
  3  4  2  0
  5  4  1  0
  6  5  2  0
  1  7  1  0
  2  8  1  0
  3  9  1  0
  5 10  1  0
M  END
>  <MODEL>  (1) 
1

>  <REMARK>  (1) 
 minimizedAffinity -2.75269651REMARK  Name = 7
  0 active torsions:
  status: ('A' for Active; 'I' for Inactive)
                            x       y       z     vdW  Elec       q    Type
                         _______ _______ _______ _____ _____    ______ ____

>  <TORSDO>  (1) 
F 0

$$$$
