./init_pose/1_1.pdbqt
 OpenBabel03232520583D

  6  6  0  0  0  0  0  0  0  0999 V2000
   63.8090   57.0900   28.3420 C   0  0  0  0  0  3  0  0  0  0  0  0
   62.6190   56.3350   28.4120 C   0  0  0  0  0  3  0  0  0  0  0  0
   62.1610   55.7240   27.2350 C   0  0  0  0  0  3  0  0  0  0  0  0
   62.8900   55.8960   26.0940 N   0  0  0  0  0  0  0  0  0  0  0  0
   64.0280   56.6260   26.0650 C   0  0  0  0  0  3  0  0  0  0  0  0
   64.4840   57.2160   27.1860 N   0  0  0  0  0  0  0  0  0  0  0  0
  1  2  1  0  0  0  0
  3  2  2  0  0  0  0
  4  3  1  0  0  0  0
  5  4  2  0  0  0  0
  5  6  1  0  0  0  0
  6  1  2  0  0  0  0
M  END
>  <MODEL>
2

>  <REMARK>
 minimizedAffinity -2.72686505REMARK  Name = 7
  0 active torsions:
  status: ('A' for Active; 'I' for Inactive)
                            x       y       z     vdW  Elec       q    Type
                         _______ _______ _______ _____ _____    ______ ____

>  <TORSDO>
F 0

$$$$
