./init_pose/1_1.pdbqt
     RDKit          3D

 10 10  0  0  0  0  0  0  0  0999 V2000
   63.8090   57.0900   28.3420 C   0  0  0  0  0  0  0  0  0  0  0  0
   62.6190   56.3350   28.4120 C   0  0  0  0  0  0  0  0  0  0  0  0
   62.1610   55.7240   27.2350 C   0  0  0  0  0  0  0  0  0  0  0  0
   62.8900   55.8960   26.0940 N   0  0  0  0  0  0  0  0  0  0  0  0
   64.0280   56.6260   26.0650 C   0  0  0  0  0  0  0  0  0  0  0  0
   64.4840   57.2160   27.1860 N   0  0  0  0  0  0  0  0  0  0  0  0
   64.1907   57.5835   29.2479 H   0  0  0  0  0  0  0  0  0  0  0  0
   62.0684   56.2289   29.3584 H   0  0  0  0  0  0  0  0  0  0  0  0
   61.2398   55.1229   27.2318 H   0  0  0  0  0  0  0  0  0  0  0  0
   64.5832   56.7382   25.1220 H   0  0  0  0  0  0  0  0  0  0  0  0
  1  2  2  0
  3  2  1  0
  4  3  2  0
  5  4  1  0
  5  6  2  0
  6  1  1  0
  1  7  1  0
  2  8  1  0
  3  9  1  0
  5 10  1  0
M  END
>  <MODEL>  (1) 
2

>  <REMARK>  (1) 
 minimizedAffinity -2.72686505REMARK  Name = 7
  0 active torsions:
  status: ('A' for Active; 'I' for Inactive)
                            x       y       z     vdW  Elec       q    Type
                         _______ _______ _______ _____ _____    ______ ____

>  <TORSDO>  (1) 
F 0

$$$$
