MODEL 3
REMARK minimizedAffinity -2.71910024REMARK  Name = 7
REMARK  0 active torsions:
REMARK  status: ('A' for Active; 'I' for Inactive)
REMARK                            x       y       z     vdW  Elec       q    Type
REMARK                         _______ _______ _______ _____ _____    ______ ____
ROOT
ATOM      1  C   UNL     1      62.811  56.527  28.318  0.00  0.00    +0.000 A 
ATOM      2  C   UNL     1      62.291  55.918  27.156  0.00  0.00    +0.000 A 
ATOM      3  C   UNL     1      63.056  55.991  25.981  0.00  0.00    +0.000 A 
ATOM      4  N   UNL     1      64.252  56.648  26.031  0.00  0.00    +0.000 NA
ATOM      5  C   UNL     1      64.719  57.218  27.164  0.00  0.00    +0.000 A 
ATOM      6  N   UNL     1      64.000  57.154  28.301  0.00  0.00    +0.000 NA
ENDROOT
TORSDOF 0
ENDMDL
