./init_pose/1_2.pdbqt
     RDKit          3D

 10 10  0  0  0  0  0  0  0  0999 V2000
   62.8110   56.5270   28.3180 C   0  0  0  0  0  0  0  0  0  0  0  0
   62.2910   55.9180   27.1560 C   0  0  0  0  0  0  0  0  0  0  0  0
   63.0560   55.9910   25.9810 C   0  0  0  0  0  0  0  0  0  0  0  0
   64.2520   56.6480   26.0310 N   0  0  0  0  0  0  0  0  0  0  0  0
   64.7190   57.2180   27.1640 C   0  0  0  0  0  0  0  0  0  0  0  0
   64.0000   57.1540   28.3010 N   0  0  0  0  0  0  0  0  0  0  0  0
   62.2336   56.4880   29.2535 H   0  0  0  0  0  0  0  0  0  0  0  0
   61.3189   55.4034   27.1704 H   0  0  0  0  0  0  0  0  0  0  0  0
   62.7018   55.5318   25.0463 H   0  0  0  0  0  0  0  0  0  0  0  0
   65.6895   57.7359   27.1575 H   0  0  0  0  0  0  0  0  0  0  0  0
  2  1  2  0
  3  4  2  0
  3  2  1  0
  4  5  1  0
  5  6  2  0
  6  1  1  0
  1  7  1  0
  2  8  1  0
  3  9  1  0
  5 10  1  0
M  END
>  <MODEL>  (1) 
3

>  <REMARK>  (1) 
 minimizedAffinity -2.71910024REMARK  Name = 7
  0 active torsions:
  status: ('A' for Active; 'I' for Inactive)
                            x       y       z     vdW  Elec       q    Type
                         _______ _______ _______ _____ _____    ______ ____

>  <TORSDO>  (1) 
F 0

$$$$
