./init_pose/1_3.pdbqt
 OpenBabel03232520583D

  6  6  0  0  0  0  0  0  0  0999 V2000
   65.0180   57.2390   27.0650 C   0  0  0  0  0  3  0  0  0  0  0  0
   63.8300   56.8330   26.4210 C   0  0  0  0  0  3  0  0  0  0  0  0
   62.7000   56.5990   27.2200 C   0  0  0  0  0  3  0  0  0  0  0  0
   62.8170   56.7730   28.5690 N   0  0  0  0  0  0  0  0  0  0  0  0
   63.9740   57.1640   29.1510 C   0  0  0  0  0  3  0  0  0  0  0  0
   65.0660   57.3980   28.3990 N   0  0  0  0  0  0  0  0  0  0  0  0
  1  6  1  0  0  0  0
  2  1  2  0  0  0  0
  2  3  1  0  0  0  0
  3  4  2  0  0  0  0
  4  5  1  0  0  0  0
  6  5  2  0  0  0  0
M  END
>  <MODEL>
4

>  <REMARK>
 minimizedAffinity -2.67090464REMARK  Name = 7
  0 active torsions:
  status: ('A' for Active; 'I' for Inactive)
                            x       y       z     vdW  Elec       q    Type
                         _______ _______ _______ _____ _____    ______ ____

>  <TORSDO>
F 0

$$$$
