./init_pose/1_3.pdbqt
     RDKit          3D

 10 10  0  0  0  0  0  0  0  0999 V2000
   65.0180   57.2390   27.0650 C   0  0  0  0  0  0  0  0  0  0  0  0
   63.8300   56.8330   26.4210 C   0  0  0  0  0  0  0  0  0  0  0  0
   62.7000   56.5990   27.2200 C   0  0  0  0  0  0  0  0  0  0  0  0
   62.8170   56.7730   28.5690 N   0  0  0  0  0  0  0  0  0  0  0  0
   63.9740   57.1640   29.1510 C   0  0  0  0  0  0  0  0  0  0  0  0
   65.0660   57.3980   28.3990 N   0  0  0  0  0  0  0  0  0  0  0  0
   65.9204   57.4287   26.4652 H   0  0  0  0  0  0  0  0  0  0  0  0
   63.7907   56.7042   25.3293 H   0  0  0  0  0  0  0  0  0  0  0  0
   61.7462   56.2840   26.7715 H   0  0  0  0  0  0  0  0  0  0  0  0
   64.0227   57.2912   30.2425 H   0  0  0  0  0  0  0  0  0  0  0  0
  1  6  2  0
  2  1  1  0
  2  3  2  0
  3  4  1  0
  4  5  2  0
  6  5  1  0
  1  7  1  0
  2  8  1  0
  3  9  1  0
  5 10  1  0
M  END
>  <MODEL>  (1) 
4

>  <REMARK>  (1) 
 minimizedAffinity -2.67090464REMARK  Name = 7
  0 active torsions:
  status: ('A' for Active; 'I' for Inactive)
                            x       y       z     vdW  Elec       q    Type
                         _______ _______ _______ _____ _____    ______ ____

>  <TORSDO>  (1) 
F 0

$$$$
