MODEL 5
REMARK minimizedAffinity -2.6477778REMARK  Name = 7
REMARK  0 active torsions:
REMARK  status: ('A' for Active; 'I' for Inactive)
REMARK                            x       y       z     vdW  Elec       q    Type
REMARK                         _______ _______ _______ _____ _____    ______ ____
ROOT
ATOM      1  C   UNL     1      62.768  56.662  28.480  0.00  0.00    +0.000 A 
ATOM      2  C   UNL     1      63.849  57.110  29.269  0.00  0.00    +0.000 A 
ATOM      3  C   UNL     1      65.045  57.438  28.614  0.00  0.00    +0.000 A 
ATOM      4  N   UNL     1      65.095  57.301  27.256  0.00  0.00    +0.000 NA
ATOM      5  C   UNL     1      64.036  56.870  26.533  0.00  0.00    +0.000 A 
ATOM      6  N   UNL     1      62.879  56.556  27.145  0.00  0.00    +0.000 NA
ENDROOT
TORSDOF 0
ENDMDL
