./init_pose/1_4.pdbqt
 OpenBabel03232520583D

  6  6  0  0  0  0  0  0  0  0999 V2000
   62.7680   56.6620   28.4800 C   0  0  0  0  0  3  0  0  0  0  0  0
   63.8490   57.1100   29.2690 C   0  0  0  0  0  3  0  0  0  0  0  0
   65.0450   57.4380   28.6140 C   0  0  0  0  0  3  0  0  0  0  0  0
   65.0950   57.3010   27.2560 N   0  0  0  0  0  0  0  0  0  0  0  0
   64.0360   56.8700   26.5330 C   0  0  0  0  0  3  0  0  0  0  0  0
   62.8790   56.5560   27.1450 N   0  0  0  0  0  0  0  0  0  0  0  0
  1  2  1  0  0  0  0
  3  2  2  0  0  0  0
  4  3  1  0  0  0  0
  5  6  1  0  0  0  0
  5  4  2  0  0  0  0
  6  1  2  0  0  0  0
M  END
>  <MODEL>
5

>  <REMARK>
 minimizedAffinity -2.6477778REMARK  Name = 7
  0 active torsions:
  status: ('A' for Active; 'I' for Inactive)
                            x       y       z     vdW  Elec       q    Type
                         _______ _______ _______ _____ _____    ______ ____

>  <TORSDO>
F 0

$$$$
