./init_pose/1_4.pdbqt
     RDKit          3D

 10 10  0  0  0  0  0  0  0  0999 V2000
   62.7680   56.6620   28.4800 C   0  0  0  0  0  0  0  0  0  0  0  0
   63.8490   57.1100   29.2690 C   0  0  0  0  0  0  0  0  0  0  0  0
   65.0450   57.4380   28.6140 C   0  0  0  0  0  0  0  0  0  0  0  0
   65.0950   57.3010   27.2560 N   0  0  0  0  0  0  0  0  0  0  0  0
   64.0360   56.8700   26.5330 C   0  0  0  0  0  0  0  0  0  0  0  0
   62.8790   56.5560   27.1450 N   0  0  0  0  0  0  0  0  0  0  0  0
   61.8181   56.3950   28.9663 H   0  0  0  0  0  0  0  0  0  0  0  0
   63.7566   57.1990   30.3615 H   0  0  0  0  0  0  0  0  0  0  0  0
   65.9187   57.7957   29.1785 H   0  0  0  0  0  0  0  0  0  0  0  0
   64.1208   56.7757   25.4403 H   0  0  0  0  0  0  0  0  0  0  0  0
  1  2  2  0
  3  2  1  0
  4  3  2  0
  5  6  2  0
  5  4  1  0
  6  1  1  0
  1  7  1  0
  2  8  1  0
  3  9  1  0
  5 10  1  0
M  END
>  <MODEL>  (1) 
5

>  <REMARK>  (1) 
 minimizedAffinity -2.6477778REMARK  Name = 7
  0 active torsions:
  status: ('A' for Active; 'I' for Inactive)
                            x       y       z     vdW  Elec       q    Type
                         _______ _______ _______ _____ _____    ______ ____

>  <TORSDO>  (1) 
F 0

$$$$
