MODEL 6
REMARK minimizedAffinity -2.34541631REMARK  Name = 7
REMARK  0 active torsions:
REMARK  status: ('A' for Active; 'I' for Inactive)
REMARK                            x       y       z     vdW  Elec       q    Type
REMARK                         _______ _______ _______ _____ _____    ______ ____
ROOT
ATOM      1  C   UNL     1      66.451  57.002  30.840  0.00  0.00    +0.000 A 
ATOM      2  C   UNL     1      65.848  57.521  32.006  0.00  0.00    +0.000 A 
ATOM      3  C   UNL     1      64.579  58.107  31.880  0.00  0.00    +0.000 A 
ATOM      4  N   UNL     1      64.006  58.144  30.641  0.00  0.00    +0.000 NA
ATOM      5  C   UNL     1      64.615  57.634  29.546  0.00  0.00    +0.000 A 
ATOM      6  N   UNL     1      65.831  57.064  29.650  0.00  0.00    +0.000 NA
ENDROOT
TORSDOF 0
ENDMDL
