./init_pose/1_5.pdbqt
 OpenBabel03232520583D

  6  6  0  0  0  0  0  0  0  0999 V2000
   66.4510   57.0020   30.8400 C   0  0  0  0  0  0  0  0  0  0  0  0
   65.8480   57.5210   32.0060 C   0  0  0  0  0  0  0  0  0  0  0  0
   64.5790   58.1070   31.8800 C   0  0  0  0  0  0  0  0  0  0  0  0
   64.0060   58.1440   30.6410 N   0  0  0  0  0  0  0  0  0  0  0  0
   64.6150   57.6340   29.5460 C   0  0  0  0  0  0  0  0  0  0  0  0
   65.8310   57.0640   29.6500 N   0  0  0  0  0  0  0  0  0  0  0  0
  1  2  1  0  0  0  0
  3  2  2  0  0  0  0
  4  3  1  0  0  0  0
  5  6  1  0  0  0  0
  5  4  2  0  0  0  0
  6  1  2  0  0  0  0
M  END
>  <MODEL>
6

>  <REMARK>
 minimizedAffinity -2.34541631REMARK  Name = 7
  0 active torsions:
  status: ('A' for Active; 'I' for Inactive)
                            x       y       z     vdW  Elec       q    Type
                         _______ _______ _______ _____ _____    ______ ____

>  <TORSDO>
F 0

$$$$
