./init_pose/1_5.pdbqt
     RDKit          3D

 10 10  0  0  0  0  0  0  0  0999 V2000
   66.4510   57.0020   30.8400 C   0  0  0  0  0  0  0  0  0  0  0  0
   65.8480   57.5210   32.0060 C   0  0  0  0  0  0  0  0  0  0  0  0
   64.5790   58.1070   31.8800 C   0  0  0  0  0  0  0  0  0  0  0  0
   64.0060   58.1440   30.6410 N   0  0  0  0  0  0  0  0  0  0  0  0
   64.6150   57.6340   29.5460 C   0  0  0  0  0  0  0  0  0  0  0  0
   65.8310   57.0640   29.6500 N   0  0  0  0  0  0  0  0  0  0  0  0
   67.4463   56.5385   30.9071 H   0  0  0  0  0  0  0  0  0  0  0  0
   66.3556   57.4679   32.9805 H   0  0  0  0  0  0  0  0  0  0  0  0
   64.0602   58.5250   32.7553 H   0  0  0  0  0  0  0  0  0  0  0  0
   64.1154   57.6850   28.5673 H   0  0  0  0  0  0  0  0  0  0  0  0
  1  2  2  0
  3  2  1  0
  4  3  2  0
  5  6  2  0
  5  4  1  0
  6  1  1  0
  1  7  1  0
  2  8  1  0
  3  9  1  0
  5 10  1  0
M  END
>  <MODEL>  (1) 
6

>  <REMARK>  (1) 
 minimizedAffinity -2.34541631REMARK  Name = 7
  0 active torsions:
  status: ('A' for Active; 'I' for Inactive)
                            x       y       z     vdW  Elec       q    Type
                         _______ _______ _______ _____ _____    ______ ____

>  <TORSDO>  (1) 
F 0

$$$$
