MODEL 7
REMARK minimizedAffinity -2.34461594REMARK  Name = 7
REMARK  0 active torsions:
REMARK  status: ('A' for Active; 'I' for Inactive)
REMARK                            x       y       z     vdW  Elec       q    Type
REMARK                         _______ _______ _______ _____ _____    ______ ____
ROOT
ATOM      1  C   UNL     1      64.321  58.223  31.571  0.00  0.00    +0.000 A 
ATOM      2  C   UNL     1      65.466  57.795  32.277  0.00  0.00    +0.000 A 
ATOM      3  C   UNL     1      66.469  57.133  31.554  0.00  0.00    +0.000 A 
ATOM      4  N   UNL     1      66.279  56.939  30.215  0.00  0.00    +0.000 NA
ATOM      5  C   UNL     1      65.168  57.365  29.574  0.00  0.00    +0.000 A 
ATOM      6  N   UNL     1      64.197  58.006  30.251  0.00  0.00    +0.000 NA
ENDROOT
TORSDOF 0
ENDMDL
