./init_pose/1_6.pdbqt
     RDKit          3D

 10 10  0  0  0  0  0  0  0  0999 V2000
   64.3210   58.2230   31.5710 C   0  0  0  0  0  0  0  0  0  0  0  0
   65.4660   57.7950   32.2770 C   0  0  0  0  0  0  0  0  0  0  0  0
   66.4690   57.1330   31.5540 C   0  0  0  0  0  0  0  0  0  0  0  0
   66.2790   56.9390   30.2150 N   0  0  0  0  0  0  0  0  0  0  0  0
   65.1680   57.3650   29.5740 C   0  0  0  0  0  0  0  0  0  0  0  0
   64.1970   58.0060   30.2510 N   0  0  0  0  0  0  0  0  0  0  0  0
   63.5162   58.7433   32.1111 H   0  0  0  0  0  0  0  0  0  0  0  0
   65.5681   57.9746   33.3574 H   0  0  0  0  0  0  0  0  0  0  0  0
   67.3841   56.7795   32.0516 H   0  0  0  0  0  0  0  0  0  0  0  0
   65.0567   57.1871   28.4942 H   0  0  0  0  0  0  0  0  0  0  0  0
  1  2  2  0
  3  2  1  0
  4  3  2  0
  5  4  1  0
  5  6  2  0
  6  1  1  0
  1  7  1  0
  2  8  1  0
  3  9  1  0
  5 10  1  0
M  END
>  <MODEL>  (1) 
7

>  <REMARK>  (1) 
 minimizedAffinity -2.34461594REMARK  Name = 7
  0 active torsions:
  status: ('A' for Active; 'I' for Inactive)
                            x       y       z     vdW  Elec       q    Type
                         _______ _______ _______ _____ _____    ______ ____

>  <TORSDO>  (1) 
F 0

$$$$
