./init_pose/1_6.pdbqt
 OpenBabel03232520583D

  6  6  0  0  0  0  0  0  0  0999 V2000
   64.3210   58.2230   31.5710 C   0  0  0  0  0  0  0  0  0  0  0  0
   65.4660   57.7950   32.2770 C   0  0  0  0  0  0  0  0  0  0  0  0
   66.4690   57.1330   31.5540 C   0  0  0  0  0  0  0  0  0  0  0  0
   66.2790   56.9390   30.2150 N   0  0  0  0  0  0  0  0  0  0  0  0
   65.1680   57.3650   29.5740 C   0  0  0  0  0  0  0  0  0  0  0  0
   64.1970   58.0060   30.2510 N   0  0  0  0  0  0  0  0  0  0  0  0
  1  2  1  0  0  0  0
  3  2  2  0  0  0  0
  4  3  1  0  0  0  0
  5  4  2  0  0  0  0
  5  6  1  0  0  0  0
  6  1  2  0  0  0  0
M  END
>  <MODEL>
7

>  <REMARK>
 minimizedAffinity -2.34461594REMARK  Name = 7
  0 active torsions:
  status: ('A' for Active; 'I' for Inactive)
                            x       y       z     vdW  Elec       q    Type
                         _______ _______ _______ _____ _____    ______ ____

>  <TORSDO>
F 0

$$$$
