MODEL 8
REMARK minimizedAffinity -2.33881998REMARK  Name = 7
REMARK  0 active torsions:
REMARK  status: ('A' for Active; 'I' for Inactive)
REMARK                            x       y       z     vdW  Elec       q    Type
REMARK                         _______ _______ _______ _____ _____    ______ ____
ROOT
ATOM      1  C   UNL     1      64.384  58.178  31.710  0.00  0.00    +0.000 A 
ATOM      2  C   UNL     1      64.236  58.010  30.316  0.00  0.00    +0.000 A 
ATOM      3  C   UNL     1      65.263  57.351  29.624  0.00  0.00    +0.000 A 
ATOM      4  N   UNL     1      66.344  56.916  30.336  0.00  0.00    +0.000 NA
ATOM      5  C   UNL     1      66.450  57.094  31.673  0.00  0.00    +0.000 A 
ATOM      6  N   UNL     1      65.472  57.720  32.353  0.00  0.00    +0.000 NA
ENDROOT
TORSDOF 0
ENDMDL
