./init_pose/1_7.pdbqt
 OpenBabel03232520583D

  6  6  0  0  0  0  0  0  0  0999 V2000
   64.3840   58.1780   31.7100 C   0  0  0  0  0  0  0  0  0  0  0  0
   64.2360   58.0100   30.3160 C   0  0  0  0  0  0  0  0  0  0  0  0
   65.2630   57.3510   29.6240 C   0  0  0  0  0  0  0  0  0  0  0  0
   66.3440   56.9160   30.3360 N   0  0  0  0  0  0  0  0  0  0  0  0
   66.4500   57.0940   31.6730 C   0  0  0  0  0  0  0  0  0  0  0  0
   65.4720   57.7200   32.3530 N   0  0  0  0  0  0  0  0  0  0  0  0
  1  6  1  0  0  0  0
  2  1  2  0  0  0  0
  3  2  1  0  0  0  0
  3  4  2  0  0  0  0
  4  5  1  0  0  0  0
  5  6  2  0  0  0  0
M  END
>  <MODEL>
8

>  <REMARK>
 minimizedAffinity -2.33881998REMARK  Name = 7
  0 active torsions:
  status: ('A' for Active; 'I' for Inactive)
                            x       y       z     vdW  Elec       q    Type
                         _______ _______ _______ _____ _____    ______ ____

>  <TORSDO>
F 0

$$$$
