./init_pose/1_7.pdbqt
     RDKit          3D

 10 10  0  0  0  0  0  0  0  0999 V2000
   64.3840   58.1780   31.7100 C   0  0  0  0  0  0  0  0  0  0  0  0
   64.2360   58.0100   30.3160 C   0  0  0  0  0  0  0  0  0  0  0  0
   65.2630   57.3510   29.6240 C   0  0  0  0  0  0  0  0  0  0  0  0
   66.3440   56.9160   30.3360 N   0  0  0  0  0  0  0  0  0  0  0  0
   66.4500   57.0940   31.6730 C   0  0  0  0  0  0  0  0  0  0  0  0
   65.4720   57.7200   32.3530 N   0  0  0  0  0  0  0  0  0  0  0  0
   63.5958   58.6923   32.2794 H   0  0  0  0  0  0  0  0  0  0  0  0
   63.3450   58.3834   29.7900 H   0  0  0  0  0  0  0  0  0  0  0  0
   65.1993   57.1891   28.5378 H   0  0  0  0  0  0  0  0  0  0  0  0
   67.3389   56.7257   32.2061 H   0  0  0  0  0  0  0  0  0  0  0  0
  1  6  2  0
  2  1  1  0
  3  2  2  0
  3  4  1  0
  4  5  2  0
  5  6  1  0
  1  7  1  0
  2  8  1  0
  3  9  1  0
  5 10  1  0
M  END
>  <MODEL>  (1) 
8

>  <REMARK>  (1) 
 minimizedAffinity -2.33881998REMARK  Name = 7
  0 active torsions:
  status: ('A' for Active; 'I' for Inactive)
                            x       y       z     vdW  Elec       q    Type
                         _______ _______ _______ _____ _____    ______ ____

>  <TORSDO>  (1) 
F 0

$$$$
