./init_pose/1_8.pdbqt
 OpenBabel03232520583D

  6  6  0  0  0  0  0  0  0  0999 V2000
   64.9080   57.5530   29.7390 C   0  0  0  0  0  0  0  0  0  0  0  0
   64.1280   58.1400   30.7580 C   0  0  0  0  0  0  0  0  0  0  0  0
   64.6380   58.1240   32.0640 C   0  0  0  0  0  0  0  0  0  0  0  0
   65.8540   57.5400   32.2740 N   0  0  0  0  0  0  0  0  0  0  0  0
   66.5750   56.9880   31.2720 C   0  0  0  0  0  0  0  0  0  0  0  0
   66.1020   56.9980   30.0120 N   0  0  0  0  0  0  0  0  0  0  0  0
  1  6  2  0  0  0  0
  1  2  1  0  0  0  0
  2  3  2  0  0  0  0
  3  4  1  0  0  0  0
  5  4  2  0  0  0  0
  6  5  1  0  0  0  0
M  END
>  <MODEL>
9

>  <REMARK>
 minimizedAffinity -2.33527803REMARK  Name = 7
  0 active torsions:
  status: ('A' for Active; 'I' for Inactive)
                            x       y       z     vdW  Elec       q    Type
                         _______ _______ _______ _____ _____    ______ ____

>  <TORSDO>
F 0

$$$$
