REMARK  Name = 
REMARK  6 active torsions:
REMARK  status: ('A' for Active; 'I' for Inactive)
REMARK    1  A    between atoms: C_3  and  S_16
REMARK    2  A    between atoms: C_5  and  C_6
REMARK    3  A    between atoms: S_16  and  C_21
REMARK    4  A    between atoms: C_19  and  C_23
REMARK    5  A    between atoms: C_23  and  C_24
REMARK    6  A    between atoms: C_24  and  N_25
REMARK                            x       y       z     vdW  Elec       q    Type
REMARK                         _______ _______ _______ _____ _____    ______ ____
ROOT
ATOM      1  N   UNL     1      37.120  33.417  39.915  0.00  0.00    +0.000 N 
ATOM      2  N   UNL     1      37.437  34.644  39.605  0.00  0.00    +0.000 NA
ATOM      3  C   UNL     1      38.678  34.908  40.103  0.00  0.00    +0.000 A 
ATOM      4  C   UNL     1      39.055  33.724  40.724  0.00  0.00    +0.000 A 
ATOM      5  C   UNL     1      38.019  32.774  40.586  0.00  0.00    +0.000 A 
ATOM      6  H   UNL     1      36.221  32.992  39.645  0.00  0.00    +0.000 HD
ENDROOT
BRANCH   5   7
ATOM      7  C   UNL     1      38.165  31.502  41.184  0.00  0.00    +0.000 A 
ATOM      8  N   UNL     1      39.266  31.242  41.949  0.00  0.00    +0.000 NA
ATOM      9  C   UNL     1      39.516  30.121  42.595  0.00  0.00    +0.000 A 
ATOM     10  N   UNL     1      38.680  29.077  42.569  0.00  0.00    +0.000 NA
ATOM     11  C   UNL     1      37.550  29.210  41.844  0.00  0.00    +0.000 A 
ATOM     12  C   UNL     1      36.654  28.182  41.778  0.00  0.00    +0.000 A 
ATOM     13  C   UNL     1      35.476  28.288  41.036  0.00  0.00    +0.000 A 
ATOM     14  C   UNL     1      35.269  29.499  40.368  0.00  0.00    +0.000 A 
ATOM     15  C   UNL     1      36.219  30.473  40.491  0.00  0.00    +0.000 A 
ATOM     16  C   UNL     1      37.364  30.413  41.197  0.00  0.00    +0.000 A 
ENDBRANCH   5   7
BRANCH   3  17
ATOM     17  S   UNL     1      39.726  36.370  40.130  0.00  0.00    +0.000 S 
BRANCH  17  22
ATOM     18  C   UNL     1      43.217  34.717  41.005  0.00  0.00    +0.000 A 
ATOM     19  C   UNL     1      43.635  35.405  42.165  0.00  0.00    +0.000 A 
ATOM     20  C   UNL     1      42.834  36.379  42.692  0.00  0.00    +0.000 A 
ATOM     21  N   UNL     1      41.663  36.639  42.063  0.00  0.00    +0.000 NA
ATOM     22  C   UNL     1      41.272  35.981  40.958  0.00  0.00    +0.000 A 
ATOM     23  N   UNL     1      42.044  35.035  40.443  0.00  0.00    +0.000 NA
BRANCH  20  24
ATOM     24  C   UNL     1      43.328  37.070  43.885  0.00  0.00    +0.000 C 
BRANCH  24  25
ATOM     25  C   UNL     1      44.736  36.805  44.253  0.00  0.00    +0.000 C 
BRANCH  25  26
ATOM     26  N   UNL     1      44.955  35.733  45.180  0.00  0.00    +0.000 N 
ATOM     27  C   UNL     1      44.720  35.420  46.465  0.00  0.00    +0.000 A 
ATOM     28  N   UNL     1      45.197  34.228  46.787  0.00  0.00    +0.000 NA
ATOM     29  C   UNL     1      45.765  33.729  45.694  0.00  0.00    +0.000 A 
ATOM     30  N   UNL     1      45.612  34.648  44.733  0.00  0.00    +0.000 NA
ENDBRANCH  25  26
ENDBRANCH  24  25
ENDBRANCH  20  24
ENDBRANCH  17  22
ENDBRANCH   3  17
TORSDOF 6
