REMARK  Name = 
REMARK  4 active torsions:
REMARK  status: ('A' for Active; 'I' for Inactive)
REMARK    1  A    between atoms: C_9  and  C_24
REMARK    2  A    between atoms: N_12  and  C_15
REMARK    3  A    between atoms: C_24  and  C_28
REMARK    4  A    between atoms: C_25  and  S_31
REMARK                            x       y       z     vdW  Elec       q    Type
REMARK                         _______ _______ _______ _____ _____    ______ ____
ROOT
ATOM      1  C   UNL     1      37.489  28.508  43.835  0.00  0.00    +0.000 A 
ATOM      2  C   UNL     1      37.119  27.156  43.804  0.00  0.00    +0.000 A 
ATOM      3  C   UNL     1      36.864  26.598  42.550  0.00  0.00    +0.000 A 
ATOM      4  N   UNL     1      36.987  27.383  41.455  0.00  0.00    +0.000 NA
ATOM      5  C   UNL     1      37.344  28.676  41.513  0.00  0.00    +0.000 A 
ATOM      6  N   UNL     1      37.599  29.251  42.713  0.00  0.00    +0.000 NA
ATOM      7  N   UNL     1      37.440  29.398  40.293  0.00  0.00    +0.000 N 
ATOM      8  C   UNL     1      37.211  28.831  39.114  0.00  0.00    +0.000 A 
ATOM      9  C   UNL     1      37.342  29.673  38.038  0.00  0.00    +0.000 A 
ATOM     10  C   UNL     1      37.679  31.001  38.109  0.00  0.00    +0.000 A 
ATOM     11  O   UNL     1      37.795  31.763  37.109  0.00  0.00    +0.000 OA
ATOM     12  N   UNL     1      37.901  31.528  39.327  0.00  0.00    +0.000 N 
ATOM     13  C   UNL     1      37.779  30.716  40.424  0.00  0.00    +0.000 A 
ATOM     14  O   UNL     1      37.998  31.260  41.551  0.00  0.00    +0.000 OA
ENDROOT
BRANCH  12  15
ATOM     15  C   UNL     1      38.266  32.907  39.522  0.00  0.00    +0.000 A 
ATOM     16  C   UNL     1      37.569  34.080  39.662  0.00  0.00    +0.000 A 
ATOM     17  N   UNL     1      38.459  35.084  39.818  0.00  0.00    +0.000 N 
ATOM     18  C   UNL     1      39.721  34.567  39.779  0.00  0.00    +0.000 A 
ATOM     19  C   UNL     1      40.932  35.202  39.892  0.00  0.00    +0.000 A 
ATOM     20  C   UNL     1      42.133  34.484  39.823  0.00  0.00    +0.000 A 
ATOM     21  C   UNL     1      42.047  33.127  39.640  0.00  0.00    +0.000 A 
ATOM     22  C   UNL     1      40.823  32.519  39.530  0.00  0.00    +0.000 A 
ATOM     23  C   UNL     1      39.621  33.213  39.595  0.00  0.00    +0.000 A 
ATOM     24  H   UNL     1      38.223  36.078  39.946  0.00  0.00    +0.000 HD
ENDBRANCH  12  15
BRANCH   9  25
ATOM     25  C   UNL     1      37.096  29.175  36.664  0.00  0.00    +0.000 C 
BRANCH  25  29
ATOM     26  C   UNL     1      32.876  29.114  36.336  0.00  0.00    +0.000 A 
ATOM     27  C   UNL     1      33.573  29.312  35.136  0.00  0.00    +0.000 A 
ATOM     28  C   UNL     1      34.951  29.333  35.168  0.00  0.00    +0.000 A 
ATOM     29  C   UNL     1      35.633  29.164  36.350  0.00  0.00    +0.000 A 
ATOM     30  C   UNL     1      34.909  28.966  37.535  0.00  0.00    +0.000 A 
ATOM     31  C   UNL     1      33.529  28.940  37.536  0.00  0.00    +0.000 A 
BRANCH  26  32
ATOM     32  S   UNL     1      31.139  29.112  36.268  0.00  0.00    +0.000 S 
ATOM     33  O   UNL     1      30.529  29.722  37.504  0.00  0.00    +0.000 OA
ATOM     34  O   UNL     1      30.591  27.749  36.002  0.00  0.00    +0.000 OA
ATOM     35  H   UNL     1      30.785  29.902  35.207  0.00  0.00    +0.000 HD
ENDBRANCH  26  32
ENDBRANCH  25  29
ENDBRANCH   9  25
TORSDOF 4
