REMARK  Name = 
REMARK  1 active torsions:
REMARK  status: ('A' for Active; 'I' for Inactive)
REMARK    1  A    between atoms: C_19  and  C_21
REMARK                            x       y       z     vdW  Elec       q    Type
REMARK                         _______ _______ _______ _____ _____    ______ ____
ROOT
ATOM      1  C   UNL     1      42.111  28.256  43.033  0.00  0.00    +0.000 A 
ATOM      2  C   UNL     1      42.015  27.147  43.912  0.00  0.00    +0.000 A 
ATOM      3  C   UNL     1      40.732  26.638  44.199  0.00  0.00    +0.000 A 
ATOM      4  N   UNL     1      39.661  27.250  43.606  0.00  0.00    +0.000 NA
ATOM      5  C   UNL     1      39.800  28.302  42.776  0.00  0.00    +0.000 A 
ATOM      6  N   UNL     1      41.016  28.826  42.472  0.00  0.00    +0.000 NA
ATOM      7  N   UNL     1      38.578  28.821  42.245  0.00  0.00    +0.000 N 
ATOM      8  C   UNL     1      37.471  28.054  42.285  0.00  0.00    +0.000 A 
ATOM      9  N   UNL     1      36.467  28.758  41.730  0.00  0.00    +0.000 NA
ATOM     10  C   UNL     1      36.902  29.961  41.333  0.00  0.00    +0.000 A 
ATOM     11  C   UNL     1      36.406  31.090  40.730  0.00  0.00    +0.000 A 
ATOM     12  N   UNL     1      37.185  32.165  40.474  0.00  0.00    +0.000 NA
ATOM     13  C   UNL     1      38.494  32.129  40.825  0.00  0.00    +0.000 A 
ATOM     14  N   UNL     1      39.010  31.041  41.416  0.00  0.00    +0.000 NA
ATOM     15  C   UNL     1      38.232  29.981  41.666  0.00  0.00    +0.000 A 
ATOM     16  N   UNL     1      39.378  33.218  40.590  0.00  0.00    +0.000 N 
ATOM     17  C   UNL     1      39.296  34.429  40.006  0.00  0.00    +0.000 A 
ATOM     18  N   UNL     1      40.473  35.055  40.074  0.00  0.00    +0.000 NA
ATOM     19  C   UNL     1      41.308  34.220  40.714  0.00  0.00    +0.000 A 
ATOM     20  N   UNL     1      40.633  33.097  41.028  0.00  0.00    +0.000 NA
ENDROOT
BRANCH  19  21
ATOM     21  C   UNL     1      42.727  34.526  41.004  0.00  0.00    +0.000 A 
ATOM     22  C   UNL     1      43.701  33.960  40.205  0.00  0.00    +0.000 A 
ATOM     23  C   UNL     1      45.014  34.298  40.543  0.00  0.00    +0.000 A 
ATOM     24  C   UNL     1      45.310  35.130  41.593  0.00  0.00    +0.000 A 
ATOM     25  C   UNL     1      44.288  35.668  42.361  0.00  0.00    +0.000 A 
ATOM     26  N   UNL     1      42.999  35.350  42.046  0.00  0.00    +0.000 NA
ENDBRANCH  19  21
TORSDOF 1
