REMARK  Name = 
REMARK  3 active torsions:
REMARK  status: ('A' for Active; 'I' for Inactive)
REMARK    1  A    between atoms: C_3  and  S_16
REMARK    2  A    between atoms: C_5  and  C_6
REMARK    3  A    between atoms: S_16  and  C_21
REMARK                            x       y       z     vdW  Elec       q    Type
REMARK                         _______ _______ _______ _____ _____    ______ ____
ROOT
ATOM      1  N   UNL     1      38.408  33.693  40.949  0.00  0.00    +0.000 N 
ATOM      2  N   UNL     1      39.169  34.535  40.280  0.00  0.00    +0.000 NA
ATOM      3  C   UNL     1      40.209  33.859  39.750  0.00  0.00    +0.000 A 
ATOM      4  C   UNL     1      40.004  32.560  40.154  0.00  0.00    +0.000 A 
ATOM      5  C   UNL     1      38.843  32.454  40.926  0.00  0.00    +0.000 A 
ATOM      6  H   UNL     1      37.551  33.980  41.444  0.00  0.00    +0.000 HD
ENDROOT
BRANCH   5   7
ATOM      7  C   UNL     1      38.451  31.188  41.462  0.00  0.00    +0.000 A 
ATOM      8  N   UNL     1      39.187  30.626  42.446  0.00  0.00    +0.000 NA
ATOM      9  C   UNL     1      38.941  29.471  43.038  0.00  0.00    +0.000 A 
ATOM     10  N   UNL     1      37.891  28.717  42.702  0.00  0.00    +0.000 NA
ATOM     11  C   UNL     1      37.077  29.175  41.725  0.00  0.00    +0.000 A 
ATOM     12  C   UNL     1      35.991  28.437  41.348  0.00  0.00    +0.000 A 
ATOM     13  C   UNL     1      35.129  28.872  40.347  0.00  0.00    +0.000 A 
ATOM     14  C   UNL     1      35.441  30.099  39.756  0.00  0.00    +0.000 A 
ATOM     15  C   UNL     1      36.547  30.779  40.187  0.00  0.00    +0.000 A 
ATOM     16  C   UNL     1      37.401  30.377  41.163  0.00  0.00    +0.000 A 
ENDBRANCH   5   7
BRANCH   3  17
ATOM     17  S   UNL     1      41.620  34.345  38.763  0.00  0.00    +0.000 S 
BRANCH  17  22
ATOM     18  C   UNL     1      45.302  33.822  40.186  0.00  0.00    +0.000 A 
ATOM     19  C   UNL     1      45.293  34.484  41.411  0.00  0.00    +0.000 A 
ATOM     20  C   UNL     1      44.127  35.112  41.825  0.00  0.00    +0.000 A 
ATOM     21  N   UNL     1      43.046  35.046  40.998  0.00  0.00    +0.000 NA
ATOM     22  C   UNL     1      43.092  34.392  39.810  0.00  0.00    +0.000 A 
ATOM     23  N   UNL     1      44.210  33.798  39.432  0.00  0.00    +0.000 NA
ATOM     24  N   UNL     1      43.921  35.834  43.034  0.00  0.00    +0.000 N 
ATOM     25  C   UNL     1      44.710  35.874  44.253  0.00  0.00    +0.000 C 
ATOM     26  C   UNL     1      45.007  37.376  44.342  0.00  0.00    +0.000 C 
ATOM     27  C   UNL     1      43.630  37.946  44.007  0.00  0.00    +0.000 C 
ATOM     28  C   UNL     1      42.866  36.750  43.425  0.00  0.00    +0.000 C 
ENDBRANCH  17  22
ENDBRANCH   3  17
TORSDOF 3
