REMARK  Name = 
REMARK  9 active torsions:
REMARK  status: ('A' for Active; 'I' for Inactive)
REMARK    1  A    between atoms: O_1  and  C_6
REMARK    2  A    between atoms: O_1  and  C_14
REMARK    3  A    between atoms: C_2  and  N_9
REMARK    4  A    between atoms: C_3  and  C_10
REMARK    5  A    between atoms: C_10  and  C_11
REMARK    6  A    between atoms: C_10  and  C_12
REMARK    7  A    between atoms: C_10  and  C_13
REMARK    8  A    between atoms: C_17  and  C_19
REMARK    9  A    between atoms: C_24  and  N_25
REMARK                            x       y       z     vdW  Elec       q    Type
REMARK                         _______ _______ _______ _____ _____    ______ ____
ROOT
ATOM      1  C   UNL     1      37.041  31.128  40.714  0.00  0.00    +0.000 A 
ATOM      2  N   UNL     1      36.728  31.380  39.437  0.00  0.00    +0.000 NA
ATOM      3  O   UNL     1      37.378  32.420  39.009  0.00  0.00    +0.000 OA
ATOM      4  C   UNL     1      38.136  32.888  39.982  0.00  0.00    +0.000 A 
ATOM      5  N   UNL     1      37.942  32.095  41.061  0.00  0.00    +0.000 NA
ENDROOT
BRANCH   4   6
ATOM      6  C   UNL     1      39.028  34.052  39.913  0.00  0.00    +0.000 A 
ATOM      7  C   UNL     1      38.654  35.329  40.226  0.00  0.00    +0.000 A 
ATOM      8  C   UNL     1      39.584  36.376  40.128  0.00  0.00    +0.000 A 
ATOM      9  C   UNL     1      40.872  36.144  39.722  0.00  0.00    +0.000 A 
ATOM     10  C   UNL     1      41.242  34.871  39.412  0.00  0.00    +0.000 A 
ATOM     11  C   UNL     1      40.340  33.821  39.501  0.00  0.00    +0.000 A 
BRANCH  11  12
ATOM     12  N   UNL     1      40.756  32.499  39.170  0.00  0.00    +0.000 N 
ATOM     13  C   UNL     1      40.609  32.122  37.876  0.00  0.00    +0.000 A 
ATOM     14  C   UNL     1      40.997  30.842  37.488  0.00  0.00    +0.000 A 
ATOM     15  C   UNL     1      41.531  29.959  38.428  0.00  0.00    +0.000 A 
ATOM     16  O   UNL     1      41.903  28.784  38.154  0.00  0.00    +0.000 OA
ATOM     17  N   UNL     1      41.651  30.399  39.713  0.00  0.00    +0.000 N 
ATOM     18  C   UNL     1      41.268  31.649  40.065  0.00  0.00    +0.000 A 
ATOM     19  O   UNL     1      41.388  32.039  41.266  0.00  0.00    +0.000 OA
ATOM     20  H   UNL     1      42.040  29.769  40.429  0.00  0.00    +0.000 HD
ENDBRANCH  11  12
ENDBRANCH   4   6
BRANCH   1  21
ATOM     21  O   UNL     1      36.737  30.236  41.717  0.00  0.00    +0.000 OA
BRANCH  21  26
ATOM     22  C   UNL     1      37.276  26.699  41.059  0.00  0.00    +0.000 A 
ATOM     23  C   UNL     1      38.308  26.421  41.977  0.00  0.00    +0.000 A 
ATOM     24  C   UNL     1      38.787  27.453  42.791  0.00  0.00    +0.000 A 
ATOM     25  N   UNL     1      38.213  28.689  42.644  0.00  0.00    +0.000 NA
ATOM     26  C   UNL     1      37.222  28.942  41.759  0.00  0.00    +0.000 A 
ATOM     27  N   UNL     1      36.748  27.948  40.960  0.00  0.00    +0.000 NA
ATOM     28  N   UNL     1      39.801  27.221  43.700  0.00  0.00    +0.000 N 
ATOM     29  H   UNL     1      40.146  27.989  44.294  0.00  0.00    +0.000 HD
ATOM     30  H   UNL     1      40.212  26.280  43.784  0.00  0.00    +0.000 HD
BRANCH  23  31
ATOM     31  C   UNL     1      38.782  25.041  41.984  0.00  0.00    +0.000 C 
ATOM     32  C   UNL     1      37.640  24.038  41.834  0.00  0.00    +0.000 C 
ATOM     33  C   UNL     1      39.594  24.615  43.157  0.00  0.00    +0.000 C 
ATOM     34  C   UNL     1      39.682  24.883  40.763  0.00  0.00    +0.000 C 
ENDBRANCH  23  31
BRANCH  22  35
ATOM     35  N   UNL     1      36.768  25.720  40.222  0.00  0.00    +0.000 N 
ATOM     36  H   UNL     1      36.013  25.950  39.560  0.00  0.00    +0.000 HD
ATOM     37  H   UNL     1      37.145  24.762  40.262  0.00  0.00    +0.000 HD
ENDBRANCH  22  35
ENDBRANCH  21  26
ENDBRANCH   1  21
TORSDOF 6
