REMARK  Name = 
REMARK  4 active torsions:
REMARK  status: ('A' for Active; 'I' for Inactive)
REMARK    1  A    between atoms: C_3  and  S_16
REMARK    2  A    between atoms: C_5  and  C_6
REMARK    3  A    between atoms: S_16  and  C_21
REMARK    4  A    between atoms: C_19  and  C_23
REMARK                            x       y       z     vdW  Elec       q    Type
REMARK                         _______ _______ _______ _____ _____    ______ ____
ROOT
ATOM      1  N   UNL     1      37.363  33.744  40.016  0.00  0.00    +0.000 N 
ATOM      2  N   UNL     1      37.778  34.966  39.746  0.00  0.00    +0.000 NA
ATOM      3  C   UNL     1      39.027  35.120  40.226  0.00  0.00    +0.000 A 
ATOM      4  C   UNL     1      39.321  33.902  40.795  0.00  0.00    +0.000 A 
ATOM      5  C   UNL     1      38.248  33.016  40.660  0.00  0.00    +0.000 A 
ATOM      6  H   UNL     1      36.433  33.393  39.748  0.00  0.00    +0.000 HD
ENDROOT
BRANCH   5   7
ATOM      7  C   UNL     1      38.334  31.697  41.201  0.00  0.00    +0.000 A 
ATOM      8  N   UNL     1      39.396  31.363  41.967  0.00  0.00    +0.000 NA
ATOM      9  C   UNL     1      39.603  30.196  42.544  0.00  0.00    +0.000 A 
ATOM     10  N   UNL     1      38.736  29.183  42.417  0.00  0.00    +0.000 NA
ATOM     11  C   UNL     1      37.629  29.396  41.670  0.00  0.00    +0.000 A 
ATOM     12  C   UNL     1      36.715  28.391  41.510  0.00  0.00    +0.000 A 
ATOM     13  C   UNL     1      35.566  28.571  40.747  0.00  0.00    +0.000 A 
ATOM     14  C   UNL     1      35.404  29.832  40.158  0.00  0.00    +0.000 A 
ATOM     15  C   UNL     1      36.366  30.786  40.367  0.00  0.00    +0.000 A 
ATOM     16  C   UNL     1      37.494  30.635  41.108  0.00  0.00    +0.000 A 
ENDBRANCH   5   7
BRANCH   3  17
ATOM     17  S   UNL     1      40.176  36.491  40.240  0.00  0.00    +0.000 S 
BRANCH  17  22
ATOM     18  C   UNL     1      43.475  34.700  41.559  0.00  0.00    +0.000 A 
ATOM     19  C   UNL     1      43.821  35.402  42.697  0.00  0.00    +0.000 A 
ATOM     20  C   UNL     1      43.021  36.468  43.089  0.00  0.00    +0.000 A 
ATOM     21  N   UNL     1      41.934  36.763  42.325  0.00  0.00    +0.000 NA
ATOM     22  C   UNL     1      41.629  36.042  41.205  0.00  0.00    +0.000 A 
ATOM     23  N   UNL     1      42.402  35.032  40.849  0.00  0.00    +0.000 NA
BRANCH  20  24
ATOM     24  C   UNL     1      43.336  37.260  44.299  0.00  0.00    +0.000 C 
ATOM     25  C   UNL     1      44.341  36.750  45.295  0.00  0.00    +0.000 C 
ATOM     26  C   UNL     1      44.698  37.906  44.402  0.00  0.00    +0.000 C 
ENDBRANCH  20  24
ENDBRANCH  17  22
ENDBRANCH   3  17
TORSDOF 4
