REMARK  Name = 
REMARK  3 active torsions:
REMARK  status: ('A' for Active; 'I' for Inactive)
REMARK    1  A    between atoms: C_1  and  C_19
REMARK    2  A    between atoms: C_9  and  C_10
REMARK    3  A    between atoms: N_16  and  C_21
REMARK                            x       y       z     vdW  Elec       q    Type
REMARK                         _______ _______ _______ _____ _____    ______ ____
ROOT
ATOM      1  C   UNL     1      40.761  33.597  39.651  0.00  0.00    +0.000 A 
ATOM      2  C   UNL     1      41.651  33.216  38.660  0.00  0.00    +0.000 A 
ATOM      3  C   UNL     1      42.982  33.547  38.824  0.00  0.00    +0.000 A 
ATOM      4  N   UNL     1      43.416  34.216  39.904  0.00  0.00    +0.000 NA
ATOM      5  C   UNL     1      42.546  34.579  40.856  0.00  0.00    +0.000 A 
ATOM      6  N   UNL     1      41.229  34.282  40.747  0.00  0.00    +0.000 NA
ATOM      7  N   UNL     1      43.022  35.289  41.996  0.00  0.00    +0.000 N 
ATOM      8  C   UNL     1      44.018  34.655  42.674  0.00  0.00    +0.000 A 
ATOM      9  C   UNL     1      44.553  35.271  43.807  0.00  0.00    +0.000 A 
ATOM     10  C   UNL     1      45.653  34.574  44.559  0.00  0.00    +0.000 C 
ATOM     11  C   UNL     1      44.107  36.506  44.267  0.00  0.00    +0.000 A 
ATOM     12  O   UNL     1      44.586  37.055  45.280  0.00  0.00    +0.000 OA
ATOM     13  N   UNL     1      43.137  37.031  43.531  0.00  0.00    +0.000 N 
ATOM     14  C   UNL     1      42.575  36.501  42.435  0.00  0.00    +0.000 A 
ATOM     15  O   UNL     1      41.665  37.018  41.765  0.00  0.00    +0.000 OA
ATOM     16  H   UNL     1      42.776  37.947  43.834  0.00  0.00    +0.000 HD
ENDROOT
BRANCH   1  20
ATOM     17  N   UNL     1      37.401  32.277  39.641  0.00  0.00    +0.000 N 
ATOM     18  C   UNL     1      37.152  33.596  39.697  0.00  0.00    +0.000 A 
ATOM     19  N   UNL     1      38.330  34.252  39.705  0.00  0.00    +0.000 NA
ATOM     20  C   UNL     1      39.310  33.329  39.657  0.00  0.00    +0.000 A 
ATOM     21  N   UNL     1      38.715  32.102  39.617  0.00  0.00    +0.000 NA
BRANCH  17  22
ATOM     22  C   UNL     1      36.674  31.050  39.605  0.00  0.00    +0.000 A 
ATOM     23  C   UNL     1      36.116  30.442  40.756  0.00  0.00    +0.000 A 
ATOM     24  C   UNL     1      35.429  29.244  40.588  0.00  0.00    +0.000 A 
ATOM     25  N   UNL     1      35.344  28.739  39.314  0.00  0.00    +0.000 NA
ATOM     26  C   UNL     1      35.883  29.339  38.253  0.00  0.00    +0.000 A 
ATOM     27  N   UNL     1      36.559  30.507  38.374  0.00  0.00    +0.000 NA
ENDBRANCH  17  22
ENDBRANCH   1  20
TORSDOF 2
