REMARK  Name = 
REMARK  4 active torsions:
REMARK  status: ('A' for Active; 'I' for Inactive)
REMARK    1  A    between atoms: C_1  and  C_3
REMARK    2  A    between atoms: C_1  and  C_24
REMARK    3  A    between atoms: C_8  and  N_9
REMARK    4  A    between atoms: C_20  and  C_26
REMARK                            x       y       z     vdW  Elec       q    Type
REMARK                         _______ _______ _______ _____ _____    ______ ____
ROOT
ATOM      1  C   UNL     1      40.920  31.713  39.362  0.00  0.00    +0.000 A 
ATOM      2  C   UNL     1      40.931  32.886  40.089  0.00  0.00    +0.000 A 
ATOM      3  C   UNL     1      41.907  33.120  41.070  0.00  0.00    +0.000 A 
ATOM      4  C   UNL     1      42.891  32.186  41.343  0.00  0.00    +0.000 A 
ATOM      5  C   UNL     1      42.873  31.031  40.623  0.00  0.00    +0.000 A 
ATOM      6  C   UNL     1      41.912  30.821  39.670  0.00  0.00    +0.000 A 
ENDROOT
BRANCH   6   7
ATOM      7  N   UNL     1      41.927  29.593  38.933  0.00  0.00    +0.000 N 
ATOM      8  C   UNL     1      41.378  28.370  39.068  0.00  0.00    +0.000 A 
ATOM      9  N   UNL     1      41.744  27.591  38.053  0.00  0.00    +0.000 NA
ATOM     10  C   UNL     1      42.534  28.269  37.233  0.00  0.00    +0.000 A 
ATOM     11  C   UNL     1      43.179  27.955  36.062  0.00  0.00    +0.000 A 
ATOM     12  O   UNL     1      43.090  26.802  35.530  0.00  0.00    +0.000 OA
ATOM     13  N   UNL     1      43.943  28.824  35.395  0.00  0.00    +0.000 N 
ATOM     14  C   UNL     1      44.045  30.057  35.954  0.00  0.00    +0.000 A 
ATOM     15  N   UNL     1      44.800  31.171  35.443  0.00  0.00    +0.000 N 
ATOM     16  N   UNL     1      43.438  30.400  37.085  0.00  0.00    +0.000 NA
ATOM     17  C   UNL     1      42.654  29.529  37.781  0.00  0.00    +0.000 A 
ATOM     18  H   UNL     1      44.422  28.576  34.517  0.00  0.00    +0.000 HD
ATOM     19  H   UNL     1      44.806  32.066  35.953  0.00  0.00    +0.000 HD
ATOM     20  H   UNL     1      45.334  31.073  34.568  0.00  0.00    +0.000 HD
ENDBRANCH   6   7
BRANCH   1  21
ATOM     21  C   UNL     1      39.879  31.534  38.360  0.00  0.00    +0.000 C 
ATOM     22  O   UNL     1      40.140  32.057  37.243  0.00  0.00    +0.000 OA
BRANCH  21  27
ATOM     23  C   UNL     1      37.269  29.344  39.848  0.00  0.00    +0.000 A 
ATOM     24  C   UNL     1      36.265  29.547  38.884  0.00  0.00    +0.000 A 
ATOM     25  C   UNL     1      36.445  30.381  37.774  0.00  0.00    +0.000 A 
ATOM     26  N   UNL     1      37.654  30.989  37.681  0.00  0.00    +0.000 NA
ATOM     27  C   UNL     1      38.619  30.819  38.571  0.00  0.00    +0.000 A 
ATOM     28  N   UNL     1      38.420  30.017  39.622  0.00  0.00    +0.000 NA
BRANCH  23  29
ATOM     29  C   UNL     1      37.270  28.567  41.025  0.00  0.00    +0.000 A 
ATOM     30  C   UNL     1      37.454  29.286  42.222  0.00  0.00    +0.000 A 
ATOM     31  C   UNL     1      37.484  28.703  43.481  0.00  0.00    +0.000 A 
ATOM     32  C   UNL     1      37.321  27.320  43.567  0.00  0.00    +0.000 A 
ATOM     33  C   UNL     1      37.137  26.567  42.424  0.00  0.00    +0.000 A 
ATOM     34  C   UNL     1      36.976  25.210  42.493  0.00  0.00    +0.000 A 
ATOM     35  C   UNL     1      36.792  24.425  41.396  0.00  0.00    +0.000 A 
ATOM     36  C   UNL     1      36.780  25.105  40.206  0.00  0.00    +0.000 A 
ATOM     37  C   UNL     1      36.940  26.458  40.125  0.00  0.00    +0.000 A 
ATOM     38  C   UNL     1      37.122  27.225  41.230  0.00  0.00    +0.000 A 
ENDBRANCH  23  29
ENDBRANCH  21  27
ENDBRANCH   1  21
TORSDOF 4
