REMARK  Name = 
REMARK  9 active torsions:
REMARK  status: ('A' for Active; 'I' for Inactive)
REMARK    1  A    between atoms: C_1  and  N_8
REMARK    2  A    between atoms: C_2  and  C_27
REMARK    3  A    between atoms: C_5  and  O_9
REMARK    4  A    between atoms: O_9  and  C_10
REMARK    5  A    between atoms: C_13  and  C_15
REMARK    6  A    between atoms: C_20  and  N_21
REMARK    7  A    between atoms: C_27  and  C_28
REMARK    8  A    between atoms: C_27  and  C_29
REMARK    9  A    between atoms: C_27  and  C_30
REMARK                            x       y       z     vdW  Elec       q    Type
REMARK                         _______ _______ _______ _____ _____    ______ ____
ROOT
ATOM      1  O   UNL     1      36.754  30.123  41.827  0.00  0.00    +0.000 OA
ENDROOT
BRANCH   1   6
ATOM      2  C   UNL     1      37.323  26.608  41.075  0.00  0.00    +0.000 A 
ATOM      3  C   UNL     1      38.360  26.325  41.985  0.00  0.00    +0.000 A 
ATOM      4  C   UNL     1      38.832  27.339  42.824  0.00  0.00    +0.000 A 
ATOM      5  N   UNL     1      38.244  28.568  42.706  0.00  0.00    +0.000 NA
ATOM      6  C   UNL     1      37.251  28.831  41.832  0.00  0.00    +0.000 A 
ATOM      7  N   UNL     1      36.783  27.858  41.012  0.00  0.00    +0.000 NA
ATOM      8  N   UNL     1      39.851  27.087  43.720  0.00  0.00    +0.000 N 
ATOM      9  H   UNL     1      40.194  27.839  44.335  0.00  0.00    +0.000 HD
ATOM     10  H   UNL     1      40.269  26.147  43.774  0.00  0.00    +0.000 HD
BRANCH   3  11
ATOM     11  C   UNL     1      38.847  24.946  41.947  0.00  0.00    +0.000 C 
ATOM     12  C   UNL     1      37.715  23.938  41.725  0.00  0.00    +0.000 C 
ATOM     13  C   UNL     1      39.614  24.484  43.139  0.00  0.00    +0.000 C 
ATOM     14  C   UNL     1      39.787  24.835  40.754  0.00  0.00    +0.000 C 
ENDBRANCH   3  11
BRANCH   2  15
ATOM     15  N   UNL     1      36.816  25.649  40.212  0.00  0.00    +0.000 N 
ATOM     16  H   UNL     1      36.057  25.893  39.560  0.00  0.00    +0.000 HD
ATOM     17  H   UNL     1      37.198  24.693  40.223  0.00  0.00    +0.000 HD
ENDBRANCH   2  15
ENDBRANCH   1   6
BRANCH   1  18
ATOM     18  C   UNL     1      37.012  31.032  40.822  0.00  0.00    +0.000 A 
ATOM     19  N   UNL     1      36.612  31.317  39.572  0.00  0.00    +0.000 NA
ATOM     20  O   UNL     1      37.263  32.346  39.128  0.00  0.00    +0.000 OA
ATOM     21  C   UNL     1      38.105  32.775  40.047  0.00  0.00    +0.000 A 
ATOM     22  N   UNL     1      37.955  31.962  41.107  0.00  0.00    +0.000 NA
BRANCH  21  23
ATOM     23  C   UNL     1      39.025  33.917  39.937  0.00  0.00    +0.000 A 
ATOM     24  C   UNL     1      38.699  35.211  40.284  0.00  0.00    +0.000 A 
ATOM     25  C   UNL     1      39.641  36.220  40.142  0.00  0.00    +0.000 A 
ATOM     26  C   UNL     1      40.914  35.955  39.657  0.00  0.00    +0.000 A 
ATOM     27  C   UNL     1      41.227  34.677  39.317  0.00  0.00    +0.000 A 
ATOM     28  C   UNL     1      40.295  33.658  39.453  0.00  0.00    +0.000 A 
BRANCH  28  29
ATOM     29  N   UNL     1      40.777  32.367  39.053  0.00  0.00    +0.000 N 
ATOM     30  C   UNL     1      41.384  31.380  39.922  0.00  0.00    +0.000 C 
ATOM     31  C   UNL     1      42.587  30.807  39.224  0.00  0.00    +0.000 C 
ATOM     32  C   UNL     1      43.066  31.668  38.081  0.00  0.00    +0.000 C 
ATOM     33  C   UNL     1      41.993  31.920  37.057  0.00  0.00    +0.000 C 
ATOM     34  C   UNL     1      40.626  32.054  37.653  0.00  0.00    +0.000 C 
ENDBRANCH  28  29
ENDBRANCH  21  23
ENDBRANCH   1  18
TORSDOF 6
