REMARK  Name = 
REMARK  1 active torsions:
REMARK  status: ('A' for Active; 'I' for Inactive)
REMARK    1  A    between atoms: C_19  and  C_21
REMARK                            x       y       z     vdW  Elec       q    Type
REMARK                         _______ _______ _______ _____ _____    ______ ____
ROOT
ATOM      1  C   UNL     1      42.426  28.645  42.948  0.00  0.00    +0.000 A 
ATOM      2  C   UNL     1      42.379  27.537  43.798  0.00  0.00    +0.000 A 
ATOM      3  C   UNL     1      41.131  26.978  44.108  0.00  0.00    +0.000 A 
ATOM      4  N   UNL     1      40.015  27.550  43.558  0.00  0.00    +0.000 NA
ATOM      5  C   UNL     1      40.103  28.623  42.740  0.00  0.00    +0.000 A 
ATOM      6  N   UNL     1      41.295  29.179  42.426  0.00  0.00    +0.000 NA
ATOM      7  N   UNL     1      38.866  29.114  42.238  0.00  0.00    +0.000 N 
ATOM      8  C   UNL     1      37.773  28.308  42.317  0.00  0.00    +0.000 A 
ATOM      9  N   UNL     1      36.735  28.977  41.785  0.00  0.00    +0.000 NA
ATOM     10  C   UNL     1      37.124  30.185  41.368  0.00  0.00    +0.000 A 
ATOM     11  C   UNL     1      36.588  31.295  40.771  0.00  0.00    +0.000 A 
ATOM     12  N   UNL     1      37.324  32.396  40.482  0.00  0.00    +0.000 NA
ATOM     13  C   UNL     1      38.631  32.395  40.797  0.00  0.00    +0.000 A 
ATOM     14  N   UNL     1      39.206  31.325  41.386  0.00  0.00    +0.000 NA
ATOM     15  C   UNL     1      38.471  30.256  41.660  0.00  0.00    +0.000 A 
ATOM     16  N   UNL     1      39.483  33.514  40.536  0.00  0.00    +0.000 N 
ATOM     17  C   UNL     1      39.340  34.731  40.006  0.00  0.00    +0.000 A 
ATOM     18  N   UNL     1      40.506  35.365  40.019  0.00  0.00    +0.000 NA
ATOM     19  C   UNL     1      41.421  34.550  40.565  0.00  0.00    +0.000 A 
ATOM     20  N   UNL     1      40.761  33.407  40.877  0.00  0.00    +0.000 NA
ENDROOT
BRANCH  19  21
ATOM     21  C   UNL     1      42.865  34.552  40.901  0.00  0.00    +0.000 A 
ATOM     22  N   UNL     1      43.804  33.767  40.297  0.00  0.00    +0.000 NA
ATOM     23  C   UNL     1      45.085  33.827  40.657  0.00  0.00    +0.000 A 
ATOM     24  N   UNL     1      45.566  34.636  41.617  0.00  0.00    +0.000 NA
ATOM     25  C   UNL     1      44.696  35.435  42.253  0.00  0.00    +0.000 A 
ATOM     26  C   UNL     1      45.177  36.267  43.238  0.00  0.00    +0.000 A 
ATOM     27  C   UNL     1      44.328  37.105  43.921  0.00  0.00    +0.000 A 
ATOM     28  C   UNL     1      42.986  37.082  43.585  0.00  0.00    +0.000 A 
ATOM     29  C   UNL     1      42.564  36.233  42.596  0.00  0.00    +0.000 A 
ATOM     30  C   UNL     1      43.369  35.376  41.883  0.00  0.00    +0.000 A 
ENDBRANCH  19  21
TORSDOF 1
