REMARK  Name = 
REMARK  9 active torsions:
REMARK  status: ('A' for Active; 'I' for Inactive)
REMARK    1  A    between atoms: O_1  and  C_6
REMARK    2  A    between atoms: O_1  and  C_14
REMARK    3  A    between atoms: C_2  and  N_9
REMARK    4  A    between atoms: C_3  and  C_10
REMARK    5  A    between atoms: C_10  and  C_11
REMARK    6  A    between atoms: C_10  and  C_12
REMARK    7  A    between atoms: C_10  and  C_13
REMARK    8  A    between atoms: C_17  and  C_19
REMARK    9  A    between atoms: C_24  and  C_25
REMARK                            x       y       z     vdW  Elec       q    Type
REMARK                         _______ _______ _______ _____ _____    ______ ____
ROOT
ATOM      1  C   UNL     1      36.929  30.955  40.952  0.00  0.00    +0.000 A 
ATOM      2  N   UNL     1      36.414  31.346  39.772  0.00  0.00    +0.000 NA
ATOM      3  O   UNL     1      37.104  32.328  39.301  0.00  0.00    +0.000 OA
ATOM      4  C   UNL     1      38.084  32.630  40.126  0.00  0.00    +0.000 A 
ATOM      5  N   UNL     1      38.001  31.776  41.182  0.00  0.00    +0.000 NA
ENDROOT
BRANCH   4   6
ATOM      6  C   UNL     1      39.091  33.683  39.958  0.00  0.00    +0.000 A 
ATOM      7  C   UNL     1      38.997  34.930  40.507  0.00  0.00    +0.000 A 
ATOM      8  C   UNL     1      40.019  35.866  40.286  0.00  0.00    +0.000 A 
ATOM      9  C   UNL     1      41.129  35.545  39.515  0.00  0.00    +0.000 A 
ATOM     10  C   UNL     1      41.216  34.293  38.969  0.00  0.00    +0.000 A 
ATOM     11  C   UNL     1      40.207  33.396  39.197  0.00  0.00    +0.000 A 
BRANCH  11  12
ATOM     12  C   UNL     1      40.384  32.063  38.570  0.00  0.00    +0.000 A 
ATOM     13  C   UNL     1      39.523  30.984  38.564  0.00  0.00    +0.000 A 
ATOM     14  N   UNL     1      40.058  29.964  37.881  0.00  0.00    +0.000 N 
ATOM     15  C   UNL     1      41.269  30.356  37.432  0.00  0.00    +0.000 A 
ATOM     16  C   UNL     1      42.246  29.701  36.672  0.00  0.00    +0.000 A 
ATOM     17  C   UNL     1      43.414  30.367  36.355  0.00  0.00    +0.000 A 
ATOM     18  C   UNL     1      43.609  31.658  36.780  0.00  0.00    +0.000 A 
ATOM     19  C   UNL     1      42.666  32.356  37.540  0.00  0.00    +0.000 A 
ATOM     20  C   UNL     1      41.503  31.651  37.839  0.00  0.00    +0.000 A 
ATOM     21  H   UNL     1      39.623  29.044  37.726  0.00  0.00    +0.000 HD
ENDBRANCH  11  12
ENDBRANCH   4   6
BRANCH   1  22
ATOM     22  O   UNL     1      36.711  30.025  41.942  0.00  0.00    +0.000 OA
BRANCH  22  27
ATOM     23  C   UNL     1      37.333  26.542  41.108  0.00  0.00    +0.000 A 
ATOM     24  C   UNL     1      38.381  26.241  41.981  0.00  0.00    +0.000 A 
ATOM     25  C   UNL     1      38.853  27.245  42.842  0.00  0.00    +0.000 A 
ATOM     26  N   UNL     1      38.244  28.475  42.767  0.00  0.00    +0.000 NA
ATOM     27  C   UNL     1      37.233  28.743  41.914  0.00  0.00    +0.000 A 
ATOM     28  N   UNL     1      36.772  27.780  41.080  0.00  0.00    +0.000 NA
ATOM     29  N   UNL     1      39.890  27.004  43.727  0.00  0.00    +0.000 N 
ATOM     30  H   UNL     1      40.221  27.755  44.350  0.00  0.00    +0.000 HD
ATOM     31  H   UNL     1      40.331  26.074  43.763  0.00  0.00    +0.000 HD
BRANCH  24  32
ATOM     32  C   UNL     1      38.896  24.885  41.923  0.00  0.00    +0.000 C 
ATOM     33  C   UNL     1      37.797  23.862  41.608  0.00  0.00    +0.000 C 
ATOM     34  C   UNL     1      39.628  24.375  43.117  0.00  0.00    +0.000 C 
ATOM     35  C   UNL     1      39.882  24.848  40.758  0.00  0.00    +0.000 C 
ENDBRANCH  24  32
BRANCH  23  36
ATOM     36  N   UNL     1      36.833  25.587  40.228  0.00  0.00    +0.000 N 
ATOM     37  H   UNL     1      36.060  25.828  39.592  0.00  0.00    +0.000 HD
ATOM     38  H   UNL     1      37.236  24.639  40.213  0.00  0.00    +0.000 HD
ENDBRANCH  23  36
ENDBRANCH  22  27
ENDBRANCH   1  22
TORSDOF 6
