REMARK  Name = 
REMARK  2 active torsions:
REMARK  status: ('A' for Active; 'I' for Inactive)
REMARK    1  A    between atoms: C_1  and  C_7
REMARK    2  A    between atoms: C_5  and  C_17
REMARK                            x       y       z     vdW  Elec       q    Type
REMARK                         _______ _______ _______ _____ _____    ______ ____
ROOT
ATOM      1  C   UNL     1      37.350  29.387  39.902  0.00  0.00    +0.000 A 
ATOM      2  C   UNL     1      36.482  29.513  38.836  0.00  0.00    +0.000 A 
ATOM      3  C   UNL     1      36.661  30.409  37.796  0.00  0.00    +0.000 A 
ATOM      4  N   UNL     1      37.757  31.173  37.878  0.00  0.00    +0.000 NA
ATOM      5  C   UNL     1      38.637  31.102  38.879  0.00  0.00    +0.000 A 
ATOM      6  N   UNL     1      38.375  30.213  39.824  0.00  0.00    +0.000 NA
ENDROOT
BRANCH   1   7
ATOM      7  C   UNL     1      37.299  28.560  41.063  0.00  0.00    +0.000 A 
ATOM      8  C   UNL     1      37.454  29.217  42.303  0.00  0.00    +0.000 A 
ATOM      9  C   UNL     1      37.439  28.585  43.534  0.00  0.00    +0.000 A 
ATOM     10  C   UNL     1      37.261  27.233  43.567  0.00  0.00    +0.000 A 
ATOM     11  C   UNL     1      37.103  26.531  42.405  0.00  0.00    +0.000 A 
ATOM     12  C   UNL     1      36.932  25.162  42.438  0.00  0.00    +0.000 A 
ATOM     13  C   UNL     1      36.777  24.399  41.290  0.00  0.00    +0.000 A 
ATOM     14  C   UNL     1      36.807  25.126  40.090  0.00  0.00    +0.000 A 
ATOM     15  C   UNL     1      36.978  26.477  40.099  0.00  0.00    +0.000 A 
ATOM     16  C   UNL     1      37.130  27.223  41.225  0.00  0.00    +0.000 A 
ENDBRANCH   1   7
BRANCH   5  17
ATOM     17  C   UNL     1      39.871  31.878  39.087  0.00  0.00    +0.000 A 
ATOM     18  C   UNL     1      41.127  31.338  38.811  0.00  0.00    +0.000 A 
ATOM     19  C   UNL     1      42.299  32.012  38.987  0.00  0.00    +0.000 A 
ATOM     20  C   UNL     1      42.296  33.300  39.462  0.00  0.00    +0.000 A 
ATOM     21  C   UNL     1      41.091  33.885  39.752  0.00  0.00    +0.000 A 
ATOM     22  C   UNL     1      41.086  35.177  40.230  0.00  0.00    +0.000 A 
ATOM     23  C   UNL     1      39.916  35.828  40.542  0.00  0.00    +0.000 A 
ATOM     24  C   UNL     1      38.738  35.098  40.345  0.00  0.00    +0.000 A 
ATOM     25  C   UNL     1      38.780  33.816  39.871  0.00  0.00    +0.000 A 
ATOM     26  C   UNL     1      39.942  33.162  39.557  0.00  0.00    +0.000 A 
ENDBRANCH   5  17
TORSDOF 2
