REMARK  Name = 
REMARK  2 active torsions:
REMARK  status: ('A' for Active; 'I' for Inactive)
REMARK    1  A    between atoms: C_1  and  C_7
REMARK    2  A    between atoms: C_5  and  C_17
REMARK                            x       y       z     vdW  Elec       q    Type
REMARK                         _______ _______ _______ _____ _____    ______ ____
ROOT
ATOM      1  C   UNL     1      37.214  29.413  39.828  0.00  0.00    +0.000 A 
ATOM      2  C   UNL     1      36.587  29.228  38.614  0.00  0.00    +0.000 A 
ATOM      3  C   UNL     1      36.632  30.152  37.582  0.00  0.00    +0.000 A 
ATOM      4  N   UNL     1      37.332  31.261  37.827  0.00  0.00    +0.000 NA
ATOM      5  C   UNL     1      37.965  31.503  38.982  0.00  0.00    +0.000 A 
ATOM      6  N   UNL     1      37.861  30.558  39.906  0.00  0.00    +0.000 NA
ENDROOT
BRANCH   1   7
ATOM      7  C   UNL     1      37.233  28.603  41.000  0.00  0.00    +0.000 A 
ATOM      8  C   UNL     1      37.438  29.274  42.226  0.00  0.00    +0.000 A 
ATOM      9  C   UNL     1      37.494  28.677  43.463  0.00  0.00    +0.000 A 
ATOM     10  C   UNL     1      37.340  27.316  43.528  0.00  0.00    +0.000 A 
ATOM     11  C   UNL     1      37.135  26.583  42.373  0.00  0.00    +0.000 A 
ATOM     12  C   UNL     1      36.989  25.219  42.436  0.00  0.00    +0.000 A 
ATOM     13  C   UNL     1      36.794  24.439  41.312  0.00  0.00    +0.000 A 
ATOM     14  C   UNL     1      36.755  25.147  40.102  0.00  0.00    +0.000 A 
ATOM     15  C   UNL     1      36.902  26.499  40.078  0.00  0.00    +0.000 A 
ATOM     16  C   UNL     1      37.095  27.262  41.190  0.00  0.00    +0.000 A 
ENDBRANCH   1   7
BRANCH   5  17
ATOM     17  C   UNL     1      38.770  32.679  39.387  0.00  0.00    +0.000 A 
ATOM     18  N   UNL     1      38.343  33.512  40.355  0.00  0.00    +0.000 NA
ATOM     19  C   UNL     1      39.056  34.574  40.732  0.00  0.00    +0.000 A 
ATOM     20  N   UNL     1      40.258  34.906  40.178  0.00  0.00    +0.000 NA
ATOM     21  C   UNL     1      40.747  34.100  39.189  0.00  0.00    +0.000 A 
ATOM     22  C   UNL     1      41.954  34.402  38.610  0.00  0.00    +0.000 A 
ATOM     23  C   UNL     1      42.476  33.610  37.609  0.00  0.00    +0.000 A 
ATOM     24  C   UNL     1      41.716  32.499  37.225  0.00  0.00    +0.000 A 
ATOM     25  C   UNL     1      40.513  32.249  37.846  0.00  0.00    +0.000 A 
ATOM     26  C   UNL     1      39.980  33.018  38.835  0.00  0.00    +0.000 A 
ENDBRANCH   5  17
TORSDOF 2
