REMARK  Name = 
REMARK  4 active torsions:
REMARK  status: ('A' for Active; 'I' for Inactive)
REMARK    1  A    between atoms: C_3  and  S_16
REMARK    2  A    between atoms: C_5  and  C_6
REMARK    3  A    between atoms: S_16  and  C_21
REMARK    4  A    between atoms: C_19  and  C_23
REMARK                            x       y       z     vdW  Elec       q    Type
REMARK                         _______ _______ _______ _____ _____    ______ ____
ROOT
ATOM      1  N   UNL     1      37.809  33.662  40.581  0.00  0.00    +0.000 N 
ATOM      2  N   UNL     1      38.450  34.749  40.194  0.00  0.00    +0.000 NA
ATOM      3  C   UNL     1      39.775  34.519  40.246  0.00  0.00    +0.000 A 
ATOM      4  C   UNL     1      39.871  33.223  40.690  0.00  0.00    +0.000 A 
ATOM      5  C   UNL     1      38.603  32.670  40.906  0.00  0.00    +0.000 A 
ATOM      6  H   UNL     1      36.782  33.599  40.624  0.00  0.00    +0.000 HD
ENDROOT
BRANCH   5   7
ATOM      7  C   UNL     1      38.475  31.331  41.390  0.00  0.00    +0.000 A 
ATOM      8  N   UNL     1      39.435  30.825  42.196  0.00  0.00    +0.000 NA
ATOM      9  C   UNL     1      39.453  29.617  42.722  0.00  0.00    +0.000 A 
ATOM     10  N   UNL     1      38.469  28.738  42.495  0.00  0.00    +0.000 NA
ATOM     11  C   UNL     1      37.449  29.132  41.701  0.00  0.00    +0.000 A 
ATOM     12  C   UNL     1      36.407  28.280  41.435  0.00  0.00    +0.000 A 
ATOM     13  C   UNL     1      35.347  28.638  40.641  0.00  0.00    +0.000 A 
ATOM     14  C   UNL     1      35.388  29.926  40.114  0.00  0.00    +0.000 A 
ATOM     15  C   UNL     1      36.453  30.739  40.410  0.00  0.00    +0.000 A 
ATOM     16  C   UNL     1      37.508  30.399  41.196  0.00  0.00    +0.000 A 
ENDBRANCH   5   7
BRANCH   3  17
ATOM     17  S   UNL     1      41.208  35.526  39.891  0.00  0.00    +0.000 S 
BRANCH  17  22
ATOM     18  C   UNL     1      44.092  33.940  42.119  0.00  0.00    +0.000 A 
ATOM     19  C   UNL     1      44.336  34.891  43.102  0.00  0.00    +0.000 A 
ATOM     20  C   UNL     1      43.596  36.060  43.094  0.00  0.00    +0.000 A 
ATOM     21  N   UNL     1      42.663  36.221  42.115  0.00  0.00    +0.000 NA
ATOM     22  C   UNL     1      42.456  35.257  41.165  0.00  0.00    +0.000 A 
ATOM     23  N   UNL     1      43.168  34.139  41.181  0.00  0.00    +0.000 NA
BRANCH  20  24
ATOM     24  C   UNL     1      43.746  37.163  44.078  0.00  0.00    +0.000 C 
ATOM     25  F   UNL     1      43.031  38.256  43.635  0.00  0.00    +0.000 F 
ATOM     26  F   UNL     1      43.178  36.771  45.264  0.00  0.00    +0.000 F 
ATOM     27  F   UNL     1      45.068  37.489  44.202  0.00  0.00    +0.000 F 
ENDBRANCH  20  24
ENDBRANCH  17  22
ENDBRANCH   3  17
TORSDOF 4
