REMARK  Name = 
REMARK  6 active torsions:
REMARK  status: ('A' for Active; 'I' for Inactive)
REMARK    1  A    between atoms: C_3  and  S_16
REMARK    2  A    between atoms: C_5  and  C_6
REMARK    3  A    between atoms: S_16  and  C_21
REMARK    4  A    between atoms: C_19  and  C_23
REMARK    5  A    between atoms: C_23  and  C_24
REMARK    6  A    between atoms: C_23  and  C_25
REMARK                            x       y       z     vdW  Elec       q    Type
REMARK                         _______ _______ _______ _____ _____    ______ ____
ROOT
ATOM      1  N   UNL     1      37.792  33.930  40.114  0.00  0.00    +0.000 N 
ATOM      2  N   UNL     1      38.219  35.172  39.933  0.00  0.00    +0.000 NA
ATOM      3  C   UNL     1      39.429  35.315  40.504  0.00  0.00    +0.000 A 
ATOM      4  C   UNL     1      39.696  34.076  41.036  0.00  0.00    +0.000 A 
ATOM      5  C   UNL     1      38.645  33.188  40.786  0.00  0.00    +0.000 A 
ATOM      6  H   UNL     1      36.887  33.583  39.765  0.00  0.00    +0.000 HD
ENDROOT
BRANCH   5   7
ATOM      7  C   UNL     1      38.720  31.847  41.278  0.00  0.00    +0.000 A 
ATOM      8  N   UNL     1      39.822  31.446  41.954  0.00  0.00    +0.000 NA
ATOM      9  C   UNL     1      40.016  30.244  42.474  0.00  0.00    +0.000 A 
ATOM     10  N   UNL     1      39.105  29.272  42.378  0.00  0.00    +0.000 NA
ATOM     11  C   UNL     1      37.953  29.564  41.717  0.00  0.00    +0.000 A 
ATOM     12  C   UNL     1      36.991  28.594  41.592  0.00  0.00    +0.000 A 
ATOM     13  C   UNL     1      35.800  28.853  40.919  0.00  0.00    +0.000 A 
ATOM     14  C   UNL     1      35.651  30.137  40.385  0.00  0.00    +0.000 A 
ATOM     15  C   UNL     1      36.663  31.035  40.560  0.00  0.00    +0.000 A 
ATOM     16  C   UNL     1      37.835  30.820  41.212  0.00  0.00    +0.000 A 
ENDBRANCH   5   7
BRANCH   3  17
ATOM     17  S   UNL     1      40.547  36.697  40.652  0.00  0.00    +0.000 S 
BRANCH  17  22
ATOM     18  C   UNL     1      43.818  34.822  41.927  0.00  0.00    +0.000 A 
ATOM     19  C   UNL     1      44.135  35.474  43.127  0.00  0.00    +0.000 A 
ATOM     20  C   UNL     1      43.329  36.518  43.564  0.00  0.00    +0.000 A 
ATOM     21  N   UNL     1      42.261  36.861  42.801  0.00  0.00    +0.000 NA
ATOM     22  C   UNL     1      41.979  36.199  41.629  0.00  0.00    +0.000 A 
ATOM     23  N   UNL     1      42.757  35.195  41.212  0.00  0.00    +0.000 NA
BRANCH  20  24
ATOM     24  C   UNL     1      43.667  37.196  44.821  0.00  0.00    +0.000 C 
ATOM     25  C   UNL     1      44.396  36.271  45.781  0.00  0.00    +0.000 C 
ATOM     26  C   UNL     1      44.468  38.436  44.561  0.00  0.00    +0.000 C 
ENDBRANCH  20  24
ENDBRANCH  17  22
ENDBRANCH   3  17
TORSDOF 4
