REMARK  Name = 
REMARK  5 active torsions:
REMARK  status: ('A' for Active; 'I' for Inactive)
REMARK    1  A    between atoms: C_1  and  C_6
REMARK    2  A    between atoms: C_1  and  C_13
REMARK    3  A    between atoms: C_1  and  C_14
REMARK    4  A    between atoms: C_2  and  C_9
REMARK    5  A    between atoms: C_14  and  N_15
REMARK                            x       y       z     vdW  Elec       q    Type
REMARK                         _______ _______ _______ _____ _____    ______ ____
ROOT
ATOM      1  N   UNL     1      37.084  29.109  41.319  0.00  0.00    +0.000 N 
ATOM      2  C   UNL     1      35.905  29.659  40.933  0.00  0.00    +0.000 A 
ATOM      3  C   UNL     1      36.087  30.997  40.736  0.00  0.00    +0.000 A 
ATOM      4  N   UNL     1      37.382  31.211  41.014  0.00  0.00    +0.000 NA
ATOM      5  C   UNL     1      38.000  30.065  41.373  0.00  0.00    +0.000 A 
ATOM      6  N   UNL     1      39.332  30.443  41.640  0.00  0.00    +0.000 N 
ATOM      7  C   UNL     1      40.351  29.789  42.296  0.00  0.00    +0.000 A 
ATOM      8  N   UNL     1      41.467  30.532  42.341  0.00  0.00    +0.000 NA
ATOM      9  C   UNL     1      41.239  31.705  41.721  0.00  0.00    +0.000 A 
ATOM     10  C   UNL     1      42.039  32.803  41.500  0.00  0.00    +0.000 A 
ATOM     11  O   UNL     1      43.224  32.741  41.937  0.00  0.00    +0.000 OA
ATOM     12  N   UNL     1      41.543  33.867  40.844  0.00  0.00    +0.000 N 
ATOM     13  C   UNL     1      40.267  33.816  40.425  0.00  0.00    +0.000 A 
ATOM     14  N   UNL     1      39.762  34.952  39.733  0.00  0.00    +0.000 N 
ATOM     15  N   UNL     1      39.498  32.737  40.648  0.00  0.00    +0.000 NA
ATOM     16  C   UNL     1      39.928  31.620  41.305  0.00  0.00    +0.000 A 
ATOM     17  H   UNL     1      42.125  34.698  40.667  0.00  0.00    +0.000 HD
ATOM     18  H   UNL     1      40.368  35.769  39.573  0.00  0.00    +0.000 HD
ATOM     19  H   UNL     1      38.790  34.958  39.392  0.00  0.00    +0.000 HD
ENDROOT
BRANCH   1  20
ATOM     20  C   UNL     1      37.388  27.729  41.478  0.00  0.00    +0.000 C 
BRANCH  20  21
ATOM     21  C   UNL     1      37.727  27.441  42.856  0.00  0.00    +0.000 C 
ATOM     22  C   UNL     1      36.617  27.762  43.777  0.00  0.00    +0.000 C 
BRANCH  21  27
ATOM     23  C   UNL     1      39.490  25.807  42.174  0.00  0.00    +0.000 C 
ATOM     24  C   UNL     1      39.334  24.371  41.594  0.00  0.00    +0.000 C 
ATOM     25  C   UNL     1      37.975  23.930  41.927  0.00  0.00    +0.000 C 
ATOM     26  C   UNL     1      37.216  25.263  42.161  0.00  0.00    +0.000 C 
ATOM     27  C   UNL     1      38.206  26.021  42.844  0.00  0.00    +0.000 C 
BRANCH  23  30
ATOM     28  C   UNL     1      41.999  26.820  44.765  0.00  0.00    +0.000 A 
ATOM     29  C   UNL     1      40.790  26.729  44.075  0.00  0.00    +0.000 A 
ATOM     30  C   UNL     1      40.700  25.937  42.929  0.00  0.00    +0.000 A 
ATOM     31  N   UNL     1      41.811  25.265  42.512  0.00  0.00    +0.000 NA
ATOM     32  C   UNL     1      42.977  25.355  43.183  0.00  0.00    +0.000 A 
ATOM     33  N   UNL     1      43.078  26.121  44.298  0.00  0.00    +0.000 NA
ENDBRANCH  23  30
ENDBRANCH  21  27
ENDBRANCH  20  21
ENDBRANCH   1  20
TORSDOF 4
