REMARK  Name = 
REMARK  2 active torsions:
REMARK  status: ('A' for Active; 'I' for Inactive)
REMARK    1  A    between atoms: C_19  and  C_21
REMARK    2  A    between atoms: C_23  and  C_24
REMARK                            x       y       z     vdW  Elec       q    Type
REMARK                         _______ _______ _______ _____ _____    ______ ____
ROOT
ATOM      1  C   UNL     1      39.349  27.829  43.444  0.00  0.00    +0.000 A 
ATOM      2  C   UNL     1      38.051  27.299  43.626  0.00  0.00    +0.000 A 
ATOM      3  C   UNL     1      36.991  27.935  43.009  0.00  0.00    +0.000 A 
ATOM      4  N   UNL     1      37.269  29.038  42.260  0.00  0.00    +0.000 NA
ATOM      5  C   UNL     1      38.504  29.532  42.093  0.00  0.00    +0.000 A 
ATOM      6  N   UNL     1      39.581  28.935  42.686  0.00  0.00    +0.000 NA
ATOM      7  N   UNL     1      38.638  30.681  41.278  0.00  0.00    +0.000 N 
ATOM      8  C   UNL     1      37.637  30.985  40.432  0.00  0.00    +0.000 A 
ATOM      9  N   UNL     1      37.988  32.093  39.775  0.00  0.00    +0.000 NA
ATOM     10  C   UNL     1      39.188  32.523  40.166  0.00  0.00    +0.000 A 
ATOM     11  C   UNL     1      40.074  33.540  39.903  0.00  0.00    +0.000 A 
ATOM     12  N   UNL     1      41.266  33.644  40.541  0.00  0.00    +0.000 NA
ATOM     13  C   UNL     1      41.603  32.724  41.465  0.00  0.00    +0.000 A 
ATOM     14  N   UNL     1      40.761  31.711  41.753  0.00  0.00    +0.000 NA
ATOM     15  C   UNL     1      39.586  31.615  41.121  0.00  0.00    +0.000 A 
ATOM     16  N   UNL     1      42.832  32.742  42.161  0.00  0.00    +0.000 N 
ATOM     17  C   UNL     1      43.944  33.514  42.133  0.00  0.00    +0.000 A 
ATOM     18  N   UNL     1      44.838  33.053  43.016  0.00  0.00    +0.000 NA
ATOM     19  C   UNL     1      44.285  31.998  43.591  0.00  0.00    +0.000 A 
ATOM     20  N   UNL     1      43.047  31.787  43.081  0.00  0.00    +0.000 NA
ENDROOT
BRANCH  19  21
ATOM     21  C   UNL     1      44.892  31.111  44.625  0.00  0.00    +0.000 C 
ATOM     22  C   UNL     1      44.897  31.579  46.061  0.00  0.00    +0.000 C 
ATOM     23  C   UNL     1      44.000  30.388  45.606  0.00  0.00    +0.000 C 
BRANCH  23  24
ATOM     24  C   UNL     1      44.500  29.065  46.077  0.00  0.00    +0.000 A 
ATOM     25  C   UNL     1      45.498  28.421  45.340  0.00  0.00    +0.000 A 
ATOM     26  C   UNL     1      46.010  27.183  45.673  0.00  0.00    +0.000 A 
ATOM     27  C   UNL     1      45.537  26.511  46.787  0.00  0.00    +0.000 A 
ATOM     28  C   UNL     1      44.552  27.129  47.528  0.00  0.00    +0.000 A 
ATOM     29  C   UNL     1      44.095  26.462  48.644  0.00  0.00    +0.000 A 
ATOM     30  C   UNL     1      43.135  26.996  49.448  0.00  0.00    +0.000 A 
ATOM     31  C   UNL     1      42.665  28.235  49.061  0.00  0.00    +0.000 A 
ATOM     32  C   UNL     1      43.087  28.955  47.945  0.00  0.00    +0.000 A 
ATOM     33  C   UNL     1      44.057  28.364  47.175  0.00  0.00    +0.000 A 
ENDBRANCH  23  24
ENDBRANCH  19  21
TORSDOF 2
