REMARK  Name = 
REMARK  2 active torsions:
REMARK  status: ('A' for Active; 'I' for Inactive)
REMARK    1  A    between atoms: C_19  and  C_21
REMARK    2  A    between atoms: C_23  and  C_24
REMARK                            x       y       z     vdW  Elec       q    Type
REMARK                         _______ _______ _______ _____ _____    ______ ____
ROOT
ATOM      1  C   UNL     1      41.043  28.211  42.719  0.00  0.00    +0.000 A 
ATOM      2  C   UNL     1      40.443  27.286  43.587  0.00  0.00    +0.000 A 
ATOM      3  C   UNL     1      39.073  27.367  43.759  0.00  0.00    +0.000 A 
ATOM      4  N   UNL     1      38.410  28.336  43.079  0.00  0.00    +0.000 NA
ATOM      5  C   UNL     1      38.998  29.214  42.252  0.00  0.00    +0.000 A 
ATOM      6  N   UNL     1      40.330  29.165  42.059  0.00  0.00    +0.000 NA
ATOM      7  N   UNL     1      38.162  30.166  41.617  0.00  0.00    +0.000 N 
ATOM      8  C   UNL     1      36.833  29.941  41.586  0.00  0.00    +0.000 A 
ATOM      9  N   UNL     1      36.264  30.972  40.939  0.00  0.00    +0.000 NA
ATOM     10  C   UNL     1      37.192  31.847  40.553  0.00  0.00    +0.000 A 
ATOM     11  C   UNL     1      37.268  33.050  39.883  0.00  0.00    +0.000 A 
ATOM     12  N   UNL     1      38.444  33.678  39.664  0.00  0.00    +0.000 NA
ATOM     13  C   UNL     1      39.577  33.124  40.110  0.00  0.00    +0.000 A 
ATOM     14  N   UNL     1      39.532  31.946  40.770  0.00  0.00    +0.000 NA
ATOM     15  C   UNL     1      38.380  31.329  40.986  0.00  0.00    +0.000 A 
ATOM     16  N   UNL     1      40.866  33.698  39.920  0.00  0.00    +0.000 N 
ATOM     17  C   UNL     1      41.339  34.778  39.270  0.00  0.00    +0.000 A 
ATOM     18  N   UNL     1      42.674  34.841  39.409  0.00  0.00    +0.000 NA
ATOM     19  C   UNL     1      43.019  33.800  40.143  0.00  0.00    +0.000 A 
ATOM     20  N   UNL     1      41.912  33.081  40.469  0.00  0.00    +0.000 NA
ENDROOT
BRANCH  19  21
ATOM     21  C   UNL     1      44.394  33.419  40.548  0.00  0.00    +0.000 C 
ATOM     22  C   UNL     1      45.520  34.394  40.343  0.00  0.00    +0.000 C 
ATOM     23  C   UNL     1      45.000  34.034  41.774  0.00  0.00    +0.000 C 
BRANCH  23  24
ATOM     24  C   UNL     1      44.414  35.190  42.452  0.00  0.00    +0.000 A 
ATOM     25  C   UNL     1      45.290  35.990  43.194  0.00  0.00    +0.000 A 
ATOM     26  C   UNL     1      44.879  37.114  43.881  0.00  0.00    +0.000 A 
ATOM     27  N   UNL     1      43.559  37.453  43.830  0.00  0.00    +0.000 NA
ATOM     28  C   UNL     1      42.742  36.651  43.099  0.00  0.00    +0.000 A 
ATOM     29  N   UNL     1      43.123  35.553  42.423  0.00  0.00    +0.000 NA
ENDBRANCH  23  24
ENDBRANCH  19  21
TORSDOF 2
