REMARK  Name = 
REMARK  3 active torsions:
REMARK  status: ('A' for Active; 'I' for Inactive)
REMARK    1  A    between atoms: C_9  and  C_24
REMARK    2  A    between atoms: N_12  and  C_15
REMARK    3  A    between atoms: C_24  and  N_25
REMARK                            x       y       z     vdW  Elec       q    Type
REMARK                         _______ _______ _______ _____ _____    ______ ____
ROOT
ATOM      1  C   UNL     1      37.301  28.544  43.910  0.00  0.00    +0.000 A 
ATOM      2  C   UNL     1      37.127  27.147  43.875  0.00  0.00    +0.000 A 
ATOM      3  C   UNL     1      37.167  26.522  42.636  0.00  0.00    +0.000 A 
ATOM      4  N   UNL     1      37.370  27.291  41.529  0.00  0.00    +0.000 NA
ATOM      5  C   UNL     1      37.533  28.625  41.595  0.00  0.00    +0.000 A 
ATOM      6  N   UNL     1      37.499  29.250  42.776  0.00  0.00    +0.000 NA
ATOM      7  N   UNL     1      37.739  29.313  40.363  0.00  0.00    +0.000 N 
ATOM      8  C   UNL     1      37.797  28.684  39.188  0.00  0.00    +0.000 A 
ATOM      9  C   UNL     1      38.002  29.497  38.098  0.00  0.00    +0.000 A 
ATOM     10  C   UNL     1      38.143  30.859  38.166  0.00  0.00    +0.000 A 
ATOM     11  O   UNL     1      38.330  31.598  37.167  0.00  0.00    +0.000 OA
ATOM     12  N   UNL     1      38.077  31.456  39.375  0.00  0.00    +0.000 N 
ATOM     13  C   UNL     1      37.873  30.665  40.481  0.00  0.00    +0.000 A 
ATOM     14  O   UNL     1      37.818  31.266  41.599  0.00  0.00    +0.000 OA
ENDROOT
BRANCH  12  15
ATOM     15  C   UNL     1      38.213  32.873  39.556  0.00  0.00    +0.000 A 
ATOM     16  C   UNL     1      37.355  33.947  39.491  0.00  0.00    +0.000 A 
ATOM     17  N   UNL     1      38.064  35.068  39.759  0.00  0.00    +0.000 N 
ATOM     18  C   UNL     1      39.366  34.731  39.997  0.00  0.00    +0.000 A 
ATOM     19  C   UNL     1      40.437  35.522  40.307  0.00  0.00    +0.000 A 
ATOM     20  C   UNL     1      41.694  34.981  40.512  0.00  0.00    +0.000 A 
ATOM     21  C   UNL     1      41.822  33.627  40.394  0.00  0.00    +0.000 A 
ATOM     22  C   UNL     1      40.734  32.851  40.083  0.00  0.00    +0.000 A 
ATOM     23  C   UNL     1      39.475  33.364  39.874  0.00  0.00    +0.000 A 
ATOM     24  H   UNL     1      37.682  36.024  39.780  0.00  0.00    +0.000 HD
ENDBRANCH  12  15
BRANCH   9  25
ATOM     25  C   UNL     1      38.087  28.918  36.753  0.00  0.00    +0.000 C 
BRANCH  25  26
ATOM     26  N   UNL     1      36.888  28.989  35.974  0.00  0.00    +0.000 N 
ATOM     27  C   UNL     1      36.635  29.014  34.653  0.00  0.00    +0.000 A 
ATOM     28  N   UNL     1      35.309  29.084  34.407  0.00  0.00    +0.000 NA
ATOM     29  C   UNL     1      34.680  29.107  35.596  0.00  0.00    +0.000 A 
ATOM     30  C   UNL     1      33.323  29.175  35.823  0.00  0.00    +0.000 A 
ATOM     31  O   UNL     1      32.493  29.226  34.885  0.00  0.00    +0.000 OA
ATOM     32  N   UNL     1      32.906  29.186  37.112  0.00  0.00    +0.000 N 
ATOM     33  C   UNL     1      33.854  29.128  38.083  0.00  0.00    +0.000 A 
ATOM     34  N   UNL     1      33.351  29.143  39.412  0.00  0.00    +0.000 N 
ATOM     35  N   UNL     1      35.166  29.063  37.823  0.00  0.00    +0.000 NA
ATOM     36  C   UNL     1      35.661  29.048  36.570  0.00  0.00    +0.000 A 
ATOM     37  H   UNL     1      31.905  29.237  37.347  0.00  0.00    +0.000 HD
ATOM     38  H   UNL     1      34.002  29.102  40.209  0.00  0.00    +0.000 HD
ATOM     39  H   UNL     1      32.336  29.195  39.578  0.00  0.00    +0.000 HD
ENDBRANCH  25  26
ENDBRANCH   9  25
TORSDOF 3
