REMARK  Name = 
REMARK  9 active torsions:
REMARK  status: ('A' for Active; 'I' for Inactive)
REMARK    1  A    between atoms: C_1  and  N_8
REMARK    2  A    between atoms: C_2  and  C_27
REMARK    3  A    between atoms: C_5  and  O_9
REMARK    4  A    between atoms: O_9  and  C_10
REMARK    5  A    between atoms: C_13  and  C_15
REMARK    6  A    between atoms: C_20  and  C_21
REMARK    7  A    between atoms: C_27  and  C_28
REMARK    8  A    between atoms: C_27  and  C_29
REMARK    9  A    between atoms: C_27  and  C_30
REMARK                            x       y       z     vdW  Elec       q    Type
REMARK                         _______ _______ _______ _____ _____    ______ ____
ROOT
ATOM      1  O   UNL     1      36.690  30.303  41.590  0.00  0.00    +0.000 OA
ENDROOT
BRANCH   1   6
ATOM      2  C   UNL     1      37.267  26.741  41.124  0.00  0.00    +0.000 A 
ATOM      3  C   UNL     1      38.367  26.540  41.993  0.00  0.00    +0.000 A 
ATOM      4  C   UNL     1      38.866  27.637  42.703  0.00  0.00    +0.000 A 
ATOM      5  N   UNL     1      38.254  28.847  42.514  0.00  0.00    +0.000 NA
ATOM      6  C   UNL     1      37.205  29.021  41.680  0.00  0.00    +0.000 A 
ATOM      7  N   UNL     1      36.705  27.968  40.981  0.00  0.00    +0.000 NA
ATOM      8  N   UNL     1      39.939  27.480  43.558  0.00  0.00    +0.000 N 
ATOM      9  H   UNL     1      40.305  28.289  44.080  0.00  0.00    +0.000 HD
ATOM     10  H   UNL     1      40.374  26.553  43.674  0.00  0.00    +0.000 HD
BRANCH   3  11
ATOM     11  C   UNL     1      38.867  25.176  42.053  0.00  0.00    +0.000 C 
ATOM     12  C   UNL     1      37.751  24.139  41.954  0.00  0.00    +0.000 C 
ATOM     13  C   UNL     1      39.689  24.820  43.242  0.00  0.00    +0.000 C 
ATOM     14  C   UNL     1      39.762  24.983  40.832  0.00  0.00    +0.000 C 
ENDBRANCH   3  11
BRANCH   2  15
ATOM     15  N   UNL     1      36.728  25.697  40.386  0.00  0.00    +0.000 N 
ATOM     16  H   UNL     1      35.928  25.868  39.761  0.00  0.00    +0.000 HD
ATOM     17  H   UNL     1      37.128  24.751  40.464  0.00  0.00    +0.000 HD
ENDBRANCH   2  15
ENDBRANCH   1   6
BRANCH   1  18
ATOM     18  C   UNL     1      37.030  31.186  40.597  0.00  0.00    +0.000 A 
ATOM     19  N   UNL     1      36.763  31.429  39.301  0.00  0.00    +0.000 NA
ATOM     20  O   UNL     1      37.430  32.463  38.902  0.00  0.00    +0.000 OA
ATOM     21  C   UNL     1      38.145  32.936  39.880  0.00  0.00    +0.000 A 
ATOM     22  N   UNL     1      37.908  32.148  40.957  0.00  0.00    +0.000 NA
BRANCH  21  23
ATOM     23  C   UNL     1      39.045  34.101  39.850  0.00  0.00    +0.000 A 
ATOM     24  C   UNL     1      38.656  35.381  40.192  0.00  0.00    +0.000 A 
ATOM     25  C   UNL     1      39.601  36.412  40.125  0.00  0.00    +0.000 A 
ATOM     26  C   UNL     1      40.906  36.181  39.729  0.00  0.00    +0.000 A 
ATOM     27  C   UNL     1      41.274  34.917  39.395  0.00  0.00    +0.000 A 
ATOM     28  C   UNL     1      40.368  33.883  39.450  0.00  0.00    +0.000 A 
BRANCH  28  29
ATOM     29  C   UNL     1      40.906  32.579  39.065  0.00  0.00    +0.000 A 
ATOM     30  C   UNL     1      41.295  31.525  39.863  0.00  0.00    +0.000 A 
ATOM     31  C   UNL     1      41.779  30.372  39.282  0.00  0.00    +0.000 A 
ATOM     32  C   UNL     1      41.900  30.214  37.917  0.00  0.00    +0.000 A 
ATOM     33  C   UNL     1      41.508  31.280  37.122  0.00  0.00    +0.000 A 
ATOM     34  C   UNL     1      41.019  32.446  37.681  0.00  0.00    +0.000 A 
ENDBRANCH  28  29
ENDBRANCH  21  23
ENDBRANCH   1  18
TORSDOF 6
