REMARK  Name = 
REMARK  6 active torsions:
REMARK  status: ('A' for Active; 'I' for Inactive)
REMARK    1  A    between atoms: S_1  and  C_6
REMARK    2  A    between atoms: S_1  and  C_20
REMARK    3  A    between atoms: C_4  and  C_8
REMARK    4  A    between atoms: C_8  and  C_9
REMARK    5  A    between atoms: C_9  and  N_10
REMARK    6  A    between atoms: C_22  and  C_23
REMARK                            x       y       z     vdW  Elec       q    Type
REMARK                         _______ _______ _______ _____ _____    ______ ____
ROOT
ATOM      1  S   UNL     1      39.881  36.067  40.565  0.00  0.00    +0.000 S 
ENDROOT
BRANCH   1   6
ATOM      2  C   UNL     1      43.178  33.892  40.194  0.00  0.00    +0.000 A 
ATOM      3  C   UNL     1      44.046  34.452  41.162  0.00  0.00    +0.000 A 
ATOM      4  C   UNL     1      43.618  35.480  41.926  0.00  0.00    +0.000 A 
ATOM      5  N   UNL     1      42.362  35.938  41.728  0.00  0.00    +0.000 NA
ATOM      6  C   UNL     1      41.537  35.411  40.810  0.00  0.00    +0.000 A 
ATOM      7  N   UNL     1      41.945  34.403  40.057  0.00  0.00    +0.000 NA
BRANCH   4   8
ATOM      8  C   UNL     1      44.616  35.996  42.847  0.00  0.00    +0.000 C 
BRANCH   8   9
ATOM      9  C   UNL     1      44.525  35.715  44.254  0.00  0.00    +0.000 C 
BRANCH   9  10
ATOM     10  N   UNL     1      45.305  34.928  45.086  0.00  0.00    +0.000 N 
ATOM     11  C   UNL     1      46.199  34.176  44.403  0.00  0.00    +0.000 A 
ATOM     12  C   UNL     1      47.091  33.263  44.970  0.00  0.00    +0.000 A 
ATOM     13  C   UNL     1      47.078  33.094  46.337  0.00  0.00    +0.000 A 
ATOM     14  O   UNL     1      47.794  32.330  47.016  0.00  0.00    +0.000 OA
ATOM     15  N   UNL     1      46.209  33.821  47.028  0.00  0.00    +0.000 N 
ATOM     16  C   UNL     1      45.381  34.680  46.435  0.00  0.00    +0.000 A 
ATOM     17  O   UNL     1      44.536  35.399  47.063  0.00  0.00    +0.000 OA
ATOM     18  H   UNL     1      46.174  33.718  48.052  0.00  0.00    +0.000 HD
ENDBRANCH   9  10
ENDBRANCH   8   9
ENDBRANCH   4   8
ENDBRANCH   1   6
BRANCH   1  21
ATOM     19  N   UNL     1      37.085  33.382  39.844  0.00  0.00    +0.000 N 
ATOM     20  N   UNL     1      37.506  34.608  39.713  0.00  0.00    +0.000 NA
ATOM     21  C   UNL     1      38.734  34.707  40.293  0.00  0.00    +0.000 A 
ATOM     22  C   UNL     1      38.988  33.426  40.768  0.00  0.00    +0.000 A 
ATOM     23  C   UNL     1      37.893  32.587  40.461  0.00  0.00    +0.000 A 
ATOM     24  H   UNL     1      36.173  33.070  39.481  0.00  0.00    +0.000 HD
BRANCH  23  25
ATOM     25  C   UNL     1      37.917  31.242  40.893  0.00  0.00    +0.000 A 
ATOM     26  N   UNL     1      38.702  30.889  41.951  0.00  0.00    +0.000 NA
ATOM     27  C   UNL     1      38.796  29.681  42.474  0.00  0.00    +0.000 A 
ATOM     28  N   UNL     1      38.111  28.637  42.010  0.00  0.00    +0.000 NA
ATOM     29  C   UNL     1      37.293  28.859  40.954  0.00  0.00    +0.000 A 
ATOM     30  C   UNL     1      36.562  27.832  40.428  0.00  0.00    +0.000 A 
ATOM     31  C   UNL     1      35.713  28.028  39.338  0.00  0.00    +0.000 A 
ATOM     32  C   UNL     1      35.655  29.325  38.821  0.00  0.00    +0.000 A 
ATOM     33  C   UNL     1      36.422  30.293  39.411  0.00  0.00    +0.000 A 
ATOM     34  C   UNL     1      37.248  30.139  40.464  0.00  0.00    +0.000 A 
ENDBRANCH  23  25
ENDBRANCH   1  21
TORSDOF 6
