REMARK  Name = 
REMARK  9 active torsions:
REMARK  status: ('A' for Active; 'I' for Inactive)
REMARK    1  A    between atoms: O_1  and  C_6
REMARK    2  A    between atoms: O_1  and  C_14
REMARK    3  A    between atoms: C_2  and  N_9
REMARK    4  A    between atoms: C_3  and  C_10
REMARK    5  A    between atoms: C_10  and  C_11
REMARK    6  A    between atoms: C_10  and  C_12
REMARK    7  A    between atoms: C_10  and  C_13
REMARK    8  A    between atoms: C_17  and  C_19
REMARK    9  A    between atoms: C_24  and  N_25
REMARK                            x       y       z     vdW  Elec       q    Type
REMARK                         _______ _______ _______ _____ _____    ______ ____
ROOT
ATOM      1  C   UNL     1      37.122  31.266  40.554  0.00  0.00    +0.000 A 
ATOM      2  N   UNL     1      37.027  31.512  39.238  0.00  0.00    +0.000 NA
ATOM      3  O   UNL     1      37.701  32.573  38.930  0.00  0.00    +0.000 OA
ATOM      4  C   UNL     1      38.257  33.065  40.010  0.00  0.00    +0.000 A 
ATOM      5  N   UNL     1      37.909  32.262  41.039  0.00  0.00    +0.000 NA
ENDROOT
BRANCH   4   6
ATOM      6  C   UNL     1      39.108  34.267  40.097  0.00  0.00    +0.000 A 
ATOM      7  C   UNL     1      38.633  35.551  40.017  0.00  0.00    +0.000 A 
ATOM      8  C   UNL     1      39.519  36.627  40.111  0.00  0.00    +0.000 A 
ATOM      9  C   UNL     1      40.868  36.428  40.284  0.00  0.00    +0.000 A 
ATOM     10  C   UNL     1      41.343  35.151  40.363  0.00  0.00    +0.000 A 
ATOM     11  C   UNL     1      40.476  34.083  40.271  0.00  0.00    +0.000 A 
BRANCH  11  12
ATOM     12  N   UNL     1      41.041  32.779  40.363  0.00  0.00    +0.000 N 
ATOM     13  C   UNL     1      41.343  31.958  41.390  0.00  0.00    +0.000 A 
ATOM     14  N   UNL     1      41.866  30.827  40.857  0.00  0.00    +0.000 NA
ATOM     15  C   UNL     1      41.901  30.919  39.513  0.00  0.00    +0.000 A 
ATOM     16  C   UNL     1      42.355  29.999  38.562  0.00  0.00    +0.000 A 
ATOM     17  N   UNL     1      42.279  30.336  37.265  0.00  0.00    +0.000 NA
ATOM     18  C   UNL     1      41.765  31.553  36.956  0.00  0.00    +0.000 A 
ATOM     19  N   UNL     1      41.326  32.440  37.874  0.00  0.00    +0.000 NA
ATOM     20  C   UNL     1      41.369  32.174  39.204  0.00  0.00    +0.000 A 
ENDBRANCH  11  12
ENDBRANCH   4   6
BRANCH   1  21
ATOM     21  O   UNL     1      36.682  30.360  41.491  0.00  0.00    +0.000 OA
BRANCH  21  26
ATOM     22  C   UNL     1      37.266  26.786  41.141  0.00  0.00    +0.000 A 
ATOM     23  C   UNL     1      38.367  26.622  42.000  0.00  0.00    +0.000 A 
ATOM     24  C   UNL     1      38.870  27.742  42.669  0.00  0.00    +0.000 A 
ATOM     25  N   UNL     1      38.258  28.940  42.447  0.00  0.00    +0.000 NA
ATOM     26  C   UNL     1      37.203  29.084  41.621  0.00  0.00    +0.000 A 
ATOM     27  N   UNL     1      36.697  28.013  40.961  0.00  0.00    +0.000 NA
ATOM     28  N   UNL     1      39.956  27.616  43.523  0.00  0.00    +0.000 N 
ATOM     29  H   UNL     1      40.324  28.443  44.014  0.00  0.00    +0.000 HD
ATOM     30  H   UNL     1      40.395  26.695  43.666  0.00  0.00    +0.000 HD
BRANCH  23  31
ATOM     31  C   UNL     1      38.883  25.258  42.102  0.00  0.00    +0.000 C 
ATOM     32  C   UNL     1      37.753  24.218  42.091  0.00  0.00    +0.000 C 
ATOM     33  C   UNL     1      39.733  24.970  43.290  0.00  0.00    +0.000 C 
ATOM     34  C   UNL     1      39.730  25.011  40.867  0.00  0.00    +0.000 C 
ENDBRANCH  23  31
BRANCH  22  35
ATOM     35  N   UNL     1      36.716  25.722  40.439  0.00  0.00    +0.000 N 
ATOM     36  H   UNL     1      35.909  25.877  39.818  0.00  0.00    +0.000 HD
ATOM     37  H   UNL     1      37.115  24.778  40.539  0.00  0.00    +0.000 HD
ENDBRANCH  22  35
ENDBRANCH  21  26
ENDBRANCH   1  21
TORSDOF 6
