REMARK  Name = 
REMARK  2 active torsions:
REMARK  status: ('A' for Active; 'I' for Inactive)
REMARK    1  A    between atoms: C_19  and  C_21
REMARK    2  A    between atoms: C_23  and  C_24
REMARK                            x       y       z     vdW  Elec       q    Type
REMARK                         _______ _______ _______ _____ _____    ______ ____
ROOT
ATOM      1  C   UNL     1      40.784  27.889  43.106  0.00  0.00    +0.000 A 
ATOM      2  C   UNL     1      40.089  26.910  43.848  0.00  0.00    +0.000 A 
ATOM      3  C   UNL     1      38.709  26.949  43.850  0.00  0.00    +0.000 A 
ATOM      4  N   UNL     1      38.102  27.932  43.133  0.00  0.00    +0.000 NA
ATOM      5  C   UNL     1      38.780  28.853  42.435  0.00  0.00    +0.000 A 
ATOM      6  N   UNL     1      40.134  28.851  42.406  0.00  0.00    +0.000 NA
ATOM      7  N   UNL     1      37.993  29.822  41.733  0.00  0.00    +0.000 N 
ATOM      8  C   UNL     1      36.688  29.572  41.532  0.00  0.00    +0.000 A 
ATOM      9  N   UNL     1      36.176  30.613  40.863  0.00  0.00    +0.000 NA
ATOM     10  C   UNL     1      37.119  31.526  40.628  0.00  0.00    +0.000 A 
ATOM     11  C   UNL     1      37.245  32.757  40.022  0.00  0.00    +0.000 A 
ATOM     12  N   UNL     1      38.417  33.422  39.974  0.00  0.00    +0.000 NA
ATOM     13  C   UNL     1      39.513  32.863  40.542  0.00  0.00    +0.000 A 
ATOM     14  N   UNL     1      39.426  31.658  41.144  0.00  0.00    +0.000 NA
ATOM     15  C   UNL     1      38.259  31.010  41.184  0.00  0.00    +0.000 A 
ATOM     16  N   UNL     1      40.780  33.501  40.544  0.00  0.00    +0.000 N 
ATOM     17  C   UNL     1      41.287  34.656  40.067  0.00  0.00    +0.000 A 
ATOM     18  N   UNL     1      42.581  34.758  40.392  0.00  0.00    +0.000 NA
ATOM     19  C   UNL     1      42.874  33.662  41.073  0.00  0.00    +0.000 A 
ATOM     20  N   UNL     1      41.776  32.871  41.178  0.00  0.00    +0.000 NA
ENDROOT
BRANCH  19  21
ATOM     21  C   UNL     1      44.190  33.290  41.668  0.00  0.00    +0.000 C 
ATOM     22  C   UNL     1      45.453  33.667  41.027  0.00  0.00    +0.000 C 
ATOM     23  C   UNL     1      45.006  34.313  42.398  0.00  0.00    +0.000 C 
BRANCH  23  24
ATOM     24  C   UNL     1      45.022  35.783  42.277  0.00  0.00    +0.000 C 
ATOM     25  C   UNL     1      44.730  36.671  43.472  0.00  0.00    +0.000 C 
ATOM     26  C   UNL     1      46.093  36.608  42.893  0.00  0.00    +0.000 C 
ENDBRANCH  23  24
ENDBRANCH  19  21
TORSDOF 2
