REMARK  Name = 
REMARK  6 active torsions:
REMARK  status: ('A' for Active; 'I' for Inactive)
REMARK    1  A    between atoms: C_3  and  S_16
REMARK    2  A    between atoms: C_5  and  C_6
REMARK    3  A    between atoms: S_16  and  C_21
REMARK    4  A    between atoms: C_19  and  C_23
REMARK    5  A    between atoms: C_23  and  C_24
REMARK    6  A    between atoms: C_24  and  C_25
REMARK                            x       y       z     vdW  Elec       q    Type
REMARK                         _______ _______ _______ _____ _____    ______ ____
ROOT
ATOM      1  N   UNL     1      37.011  33.332  39.867  0.00  0.00    +0.000 N 
ATOM      2  N   UNL     1      37.326  34.560  39.553  0.00  0.00    +0.000 NA
ATOM      3  C   UNL     1      38.563  34.831  40.054  0.00  0.00    +0.000 A 
ATOM      4  C   UNL     1      38.943  33.651  40.681  0.00  0.00    +0.000 A 
ATOM      5  C   UNL     1      37.912  32.695  40.544  0.00  0.00    +0.000 A 
ATOM      6  H   UNL     1      36.114  32.903  39.597  0.00  0.00    +0.000 HD
ENDROOT
BRANCH   5   7
ATOM      7  C   UNL     1      38.060  31.432  41.158  0.00  0.00    +0.000 A 
ATOM      8  N   UNL     1      39.145  31.193  41.951  0.00  0.00    +0.000 NA
ATOM      9  C   UNL     1      39.385  30.082  42.622  0.00  0.00    +0.000 A 
ATOM     10  N   UNL     1      38.555  29.031  42.595  0.00  0.00    +0.000 NA
ATOM     11  C   UNL     1      37.443  29.149  41.841  0.00  0.00    +0.000 A 
ATOM     12  C   UNL     1      36.555  28.114  41.766  0.00  0.00    +0.000 A 
ATOM     13  C   UNL     1      35.401  28.197  40.994  0.00  0.00    +0.000 A 
ATOM     14  C   UNL     1      35.201  29.397  40.299  0.00  0.00    +0.000 A 
ATOM     15  C   UNL     1      36.140  30.377  40.432  0.00  0.00    +0.000 A 
ATOM     16  C   UNL     1      37.266  30.338  41.170  0.00  0.00    +0.000 A 
ENDBRANCH   5   7
BRANCH   3  17
ATOM     17  S   UNL     1      39.603  36.299  40.079  0.00  0.00    +0.000 S 
BRANCH  17  22
ATOM     18  C   UNL     1      43.109  34.605  40.804  0.00  0.00    +0.000 A 
ATOM     19  C   UNL     1      43.591  35.304  41.938  0.00  0.00    +0.000 A 
ATOM     20  C   UNL     1      42.827  36.296  42.491  0.00  0.00    +0.000 A 
ATOM     21  N   UNL     1      41.629  36.569  41.920  0.00  0.00    +0.000 NA
ATOM     22  C   UNL     1      41.182  35.894  40.833  0.00  0.00    +0.000 A 
ATOM     23  N   UNL     1      41.914  34.931  40.295  0.00  0.00    +0.000 NA
BRANCH  20  24
ATOM     24  C   UNL     1      43.391  36.973  43.651  0.00  0.00    +0.000 C 
BRANCH  24  25
ATOM     25  C   UNL     1      44.831  36.831  43.876  0.00  0.00    +0.000 C 
BRANCH  25  26
ATOM     26  C   UNL     1      45.331  35.659  44.581  0.00  0.00    +0.000 A 
ATOM     27  C   UNL     1      46.142  34.580  44.357  0.00  0.00    +0.000 A 
ATOM     28  C   UNL     1      46.464  33.603  45.244  0.00  0.00    +0.000 A 
ATOM     29  N   UNL     1      45.946  33.666  46.502  0.00  0.00    +0.000 NA
ATOM     30  C   UNL     1      45.144  34.715  46.761  0.00  0.00    +0.000 A 
ATOM     31  N   UNL     1      44.844  35.664  45.862  0.00  0.00    +0.000 NA
ENDBRANCH  25  26
ENDBRANCH  24  25
ENDBRANCH  20  24
ENDBRANCH  17  22
ENDBRANCH   3  17
TORSDOF 6
