REMARK  Name = 
REMARK  1 active torsions:
REMARK  status: ('A' for Active; 'I' for Inactive)
REMARK    1  A    between atoms: C_1  and  C_11
REMARK                            x       y       z     vdW  Elec       q    Type
REMARK                         _______ _______ _______ _____ _____    ______ ____
ROOT
ATOM      1  C   UNL     1      37.256  29.325  39.850  0.00  0.00    +0.000 A 
ATOM      2  C   UNL     1      36.381  29.344  38.753  0.00  0.00    +0.000 A 
ATOM      3  C   UNL     1      36.522  30.239  37.692  0.00  0.00    +0.000 A 
ATOM      4  N   UNL     1      37.570  31.099  37.786  0.00  0.00    +0.000 NA
ATOM      5  C   UNL     1      38.415  31.101  38.811  0.00  0.00    +0.000 A 
ATOM      6  N   UNL     1      38.246  30.234  39.802  0.00  0.00    +0.000 NA
ATOM      7  N   UNL     1      39.454  32.074  38.734  0.00  0.00    +0.000 N 
ATOM      8  C   UNL     1      40.200  31.950  37.617  0.00  0.00    +0.000 A 
ATOM      9  C   UNL     1      41.248  32.851  37.435  0.00  0.00    +0.000 A 
ATOM     10  C   UNL     1      41.553  33.863  38.351  0.00  0.00    +0.000 A 
ATOM     11  O   UNL     1      42.485  34.662  38.187  0.00  0.00    +0.000 OA
ATOM     12  N   UNL     1      40.741  33.895  39.434  0.00  0.00    +0.000 N 
ATOM     13  C   UNL     1      39.722  33.038  39.633  0.00  0.00    +0.000 A 
ATOM     14  O   UNL     1      38.975  33.074  40.638  0.00  0.00    +0.000 OA
ATOM     15  H   UNL     1      40.913  34.617  40.148  0.00  0.00    +0.000 HD
ENDROOT
BRANCH   1  16
ATOM     16  C   UNL     1      37.240  28.519  41.025  0.00  0.00    +0.000 A 
ATOM     17  C   UNL     1      37.408  29.209  42.246  0.00  0.00    +0.000 A 
ATOM     18  C   UNL     1      37.422  28.600  43.489  0.00  0.00    +0.000 A 
ATOM     19  C   UNL     1      37.264  27.235  43.557  0.00  0.00    +0.000 A 
ATOM     20  C   UNL     1      37.095  26.500  42.399  0.00  0.00    +0.000 A 
ATOM     21  C   UNL     1      36.945  25.137  42.454  0.00  0.00    +0.000 A 
ATOM     22  C   UNL     1      36.782  24.356  41.318  0.00  0.00    +0.000 A 
ATOM     23  C   UNL     1      36.782  25.056  40.127  0.00  0.00    +0.000 A 
ATOM     24  C   UNL     1      36.933  26.413  40.097  0.00  0.00    +0.000 A 
ATOM     25  C   UNL     1      37.093  27.181  41.207  0.00  0.00    +0.000 A 
ENDBRANCH   1  16
TORSDOF 1
