REMARK  Name = 
REMARK  4 active torsions:
REMARK  status: ('A' for Active; 'I' for Inactive)
REMARK    1  A    between atoms: C_9  and  C_24
REMARK    2  A    between atoms: N_12  and  C_15
REMARK    3  A    between atoms: C_24  and  N_25
REMARK    4  A    between atoms: C_27  and  C_28
REMARK                            x       y       z     vdW  Elec       q    Type
REMARK                         _______ _______ _______ _____ _____    ______ ____
ROOT
ATOM      1  C   UNL     1      37.459  28.568  43.870  0.00  0.00    +0.000 A 
ATOM      2  C   UNL     1      37.134  27.209  43.810  0.00  0.00    +0.000 A 
ATOM      3  C   UNL     1      36.992  26.632  42.556  0.00  0.00    +0.000 A 
ATOM      4  N   UNL     1      37.178  27.417  41.456  0.00  0.00    +0.000 NA
ATOM      5  C   UNL     1      37.488  28.720  41.546  0.00  0.00    +0.000 A 
ATOM      6  N   UNL     1      37.630  29.300  42.747  0.00  0.00    +0.000 NA
ATOM      7  N   UNL     1      37.655  29.435  40.334  0.00  0.00    +0.000 N 
ATOM      8  C   UNL     1      37.522  28.858  39.130  0.00  0.00    +0.000 A 
ATOM      9  C   UNL     1      37.714  29.693  38.052  0.00  0.00    +0.000 A 
ATOM     10  C   UNL     1      38.022  31.027  38.151  0.00  0.00    +0.000 A 
ATOM     11  O   UNL     1      38.198  31.776  37.163  0.00  0.00    +0.000 OA
ATOM     12  N   UNL     1      38.145  31.561  39.381  0.00  0.00    +0.000 N 
ATOM     13  C   UNL     1      37.961  30.762  40.476  0.00  0.00    +0.000 A 
ATOM     14  O   UNL     1      38.087  31.306  41.610  0.00  0.00    +0.000 OA
ENDROOT
BRANCH  12  15
ATOM     15  C   UNL     1      38.466  32.951  39.586  0.00  0.00    +0.000 A 
ATOM     16  C   UNL     1      37.724  34.105  39.696  0.00  0.00    +0.000 A 
ATOM     17  N   UNL     1      38.583  35.140  39.884  0.00  0.00    +0.000 N 
ATOM     18  C   UNL     1      39.853  34.661  39.895  0.00  0.00    +0.000 A 
ATOM     19  C   UNL     1      41.052  35.320  40.051  0.00  0.00    +0.000 A 
ATOM     20  C   UNL     1      42.262  34.638  40.030  0.00  0.00    +0.000 A 
ATOM     21  C   UNL     1      42.216  33.286  39.847  0.00  0.00    +0.000 A 
ATOM     22  C   UNL     1      41.013  32.645  39.692  0.00  0.00    +0.000 A 
ATOM     23  C   UNL     1      39.796  33.296  39.709  0.00  0.00    +0.000 A 
ATOM     24  H   UNL     1      38.315  36.128  39.999  0.00  0.00    +0.000 HD
ENDBRANCH  12  15
BRANCH   9  25
ATOM     25  C   UNL     1      37.573  29.169  36.685  0.00  0.00    +0.000 C 
BRANCH  25  26
ATOM     26  N   UNL     1      36.182  29.173  36.317  0.00  0.00    +0.000 N 
ATOM     27  C   UNL     1      35.086  29.119  37.063  0.00  0.00    +0.000 A 
ATOM     28  C   UNL     1      33.799  29.148  36.603  0.00  0.00    +0.000 A 
ATOM     29  C   UNL     1      32.651  29.080  37.537  0.00  0.00    +0.000 C 
ATOM     30  C   UNL     1      33.570  29.243  35.247  0.00  0.00    +0.000 A 
ATOM     31  O   UNL     1      32.394  29.271  34.806  0.00  0.00    +0.000 OA
ATOM     32  N   UNL     1      34.665  29.301  34.448  0.00  0.00    +0.000 N 
ATOM     33  C   UNL     1      35.890  29.265  34.996  0.00  0.00    +0.000 A 
ATOM     34  O   UNL     1      36.774  29.331  34.100  0.00  0.00    +0.000 OA
ATOM     35  H   UNL     1      34.557  29.372  33.426  0.00  0.00    +0.000 HD
ENDBRANCH  25  26
ENDBRANCH   9  25
TORSDOF 3
