REMARK  Name = 
REMARK  2 active torsions:
REMARK  status: ('A' for Active; 'I' for Inactive)
REMARK    1  A    between atoms: C_19  and  C_21
REMARK    2  A    between atoms: C_23  and  N_24
REMARK                            x       y       z     vdW  Elec       q    Type
REMARK                         _______ _______ _______ _____ _____    ______ ____
ROOT
ATOM      1  C   UNL     1      40.362  27.969  43.024  0.00  0.00    +0.000 A 
ATOM      2  C   UNL     1      39.495  27.132  43.752  0.00  0.00    +0.000 A 
ATOM      3  C   UNL     1      38.125  27.418  43.735  0.00  0.00    +0.000 A 
ATOM      4  N   UNL     1      37.735  28.498  43.006  0.00  0.00    +0.000 NA
ATOM      5  C   UNL     1      38.566  29.282  42.322  0.00  0.00    +0.000 A 
ATOM      6  N   UNL     1      39.907  29.033  42.317  0.00  0.00    +0.000 NA
ATOM      7  N   UNL     1      37.992  30.379  41.605  0.00  0.00    +0.000 N 
ATOM      8  C   UNL     1      36.672  30.365  41.382  0.00  0.00    +0.000 A 
ATOM      9  N   UNL     1      36.376  31.477  40.698  0.00  0.00    +0.000 NA
ATOM     10  C   UNL     1      37.468  32.202  40.475  0.00  0.00    +0.000 A 
ATOM     11  C   UNL     1      37.824  33.387  39.861  0.00  0.00    +0.000 A 
ATOM     12  N   UNL     1      39.093  33.815  39.838  0.00  0.00    +0.000 NA
ATOM     13  C   UNL     1      40.055  33.086  40.421  0.00  0.00    +0.000 A 
ATOM     14  N   UNL     1      39.746  31.918  41.034  0.00  0.00    +0.000 NA
ATOM     15  C   UNL     1      38.484  31.494  41.055  0.00  0.00    +0.000 A 
ATOM     16  N   UNL     1      41.426  33.462  40.445  0.00  0.00    +0.000 N 
ATOM     17  C   UNL     1      42.168  34.449  39.908  0.00  0.00    +0.000 A 
ATOM     18  N   UNL     1      43.447  34.309  40.256  0.00  0.00    +0.000 NA
ATOM     19  C   UNL     1      43.519  33.232  41.016  0.00  0.00    +0.000 A 
ATOM     20  N   UNL     1      42.273  32.696  41.142  0.00  0.00    +0.000 NA
ENDROOT
BRANCH  19  21
ATOM     21  C   UNL     1      44.734  32.640  41.635  0.00  0.00    +0.000 C 
ATOM     22  C   UNL     1      46.077  33.244  41.330  0.00  0.00    +0.000 C 
ATOM     23  C   UNL     1      45.424  33.392  42.744  0.00  0.00    +0.000 C 
BRANCH  23  24
ATOM     24  N   UNL     1      45.055  34.738  43.049  0.00  0.00    +0.000 N 
ATOM     25  N   UNL     1      43.867  35.245  43.388  0.00  0.00    +0.000 NA
ATOM     26  C   UNL     1      43.948  36.569  43.592  0.00  0.00    +0.000 A 
ATOM     27  C   UNL     1      45.270  36.974  43.377  0.00  0.00    +0.000 A 
ATOM     28  C   UNL     1      45.916  35.797  43.041  0.00  0.00    +0.000 A 
ENDBRANCH  23  24
ENDBRANCH  19  21
TORSDOF 2
