REMARK  Name = 
REMARK  3 active torsions:
REMARK  status: ('A' for Active; 'I' for Inactive)
REMARK    1  A    between atoms: C_12  and  C_13
REMARK    2  A    between atoms: C_17  and  C_19
REMARK    3  A    between atoms: C_19  and  C_20
REMARK                            x       y       z     vdW  Elec       q    Type
REMARK                         _______ _______ _______ _____ _____    ______ ____
ROOT
ATOM      1  C   UNL     1      38.058  31.125  38.858  0.00  0.00    +0.000 A 
ATOM      2  C   UNL     1      37.066  31.980  39.384  0.00  0.00    +0.000 A 
ATOM      3  C   UNL     1      37.345  33.235  39.861  0.00  0.00    +0.000 A 
ATOM      4  N   UNL     1      38.607  33.672  39.830  0.00  0.00    +0.000 NA
ATOM      5  C   UNL     1      39.580  32.890  39.338  0.00  0.00    +0.000 A 
ATOM      6  N   UNL     1      39.279  31.684  38.884  0.00  0.00    +0.000 NA
ENDROOT
BRANCH   1  18
ATOM      7  C   UNL     1      38.689  30.009  42.414  0.00  0.00    +0.000 A 
ATOM      8  C   UNL     1      38.294  28.999  43.316  0.00  0.00    +0.000 A 
ATOM      9  C   UNL     1      37.499  27.987  42.814  0.00  0.00    +0.000 A 
ATOM     10  N   UNL     1      37.146  28.016  41.508  0.00  0.00    +0.000 NA
ATOM     11  C   UNL     1      37.539  29.004  40.659  0.00  0.00    +0.000 A 
ATOM     12  N   UNL     1      38.318  29.998  41.143  0.00  0.00    +0.000 NA
ATOM     13  N   UNL     1      37.107  28.936  39.302  0.00  0.00    +0.000 N 
ATOM     14  C   UNL     1      36.003  28.021  39.010  0.00  0.00    +0.000 C 
ATOM     15  C   UNL     1      35.670  28.040  37.541  0.00  0.00    +0.000 C 
ATOM     16  N   UNL     1      35.728  29.398  37.115  0.00  0.00    +0.000 NA
ATOM     17  C   UNL     1      37.115  29.788  37.006  0.00  0.00    +0.000 C 
ATOM     18  C   UNL     1      37.800  29.773  38.342  0.00  0.00    +0.000 C 
ATOM     19  H   UNL     1      35.267  29.494  36.199  0.00  0.00    +0.000 HD
ENDBRANCH   1  18
BRANCH   5  20
ATOM     20  C   UNL     1      41.033  33.299  39.273  0.00  0.00    +0.000 C 
BRANCH  20  21
ATOM     21  C   UNL     1      41.168  34.566  39.993  0.00  0.00    +0.000 A 
ATOM     22  N   UNL     1      40.349  35.596  39.633  0.00  0.00    +0.000 NA
ATOM     23  C   UNL     1      40.394  36.798  40.228  0.00  0.00    +0.000 A 
ATOM     24  N   UNL     1      41.262  37.055  41.222  0.00  0.00    +0.000 NA
ATOM     25  C   UNL     1      42.109  36.060  41.625  0.00  0.00    +0.000 A 
ATOM     26  C   UNL     1      43.017  36.303  42.663  0.00  0.00    +0.000 A 
ATOM     27  C   UNL     1      43.831  35.253  43.019  0.00  0.00    +0.000 A 
ATOM     28  C   UNL     1      43.811  34.007  42.433  0.00  0.00    +0.000 A 
ATOM     29  C   UNL     1      42.914  33.773  41.407  0.00  0.00    +0.000 A 
ATOM     30  C   UNL     1      42.075  34.797  41.015  0.00  0.00    +0.000 A 
ENDBRANCH  20  21
ENDBRANCH   5  20
TORSDOF 3
