REMARK  Name = 
REMARK  3 active torsions:
REMARK  status: ('A' for Active; 'I' for Inactive)
REMARK    1  A    between atoms: C_1  and  C_16
REMARK    2  A    between atoms: C_5  and  N_17
REMARK    3  A    between atoms: C_21  and  C_22
REMARK                            x       y       z     vdW  Elec       q    Type
REMARK                         _______ _______ _______ _____ _____    ______ ____
ROOT
ATOM      1  C   UNL     1      37.100  29.902  39.234  0.00  0.00    +0.000 C 
ATOM      2  C   UNL     1      35.966  29.673  38.201  0.00  0.00    +0.000 C 
ATOM      3  C   UNL     1      34.802  29.354  39.141  0.00  0.00    +0.000 C 
ATOM      4  C   UNL     1      35.417  28.888  40.443  0.00  0.00    +0.000 C 
ATOM      5  C   UNL     1      36.885  28.731  40.122  0.00  0.00    +0.000 C 
ENDROOT
BRANCH   1  16
ATOM      6  C   UNL     1      40.570  34.098  39.369  0.00  0.00    +0.000 A 
ATOM      7  C   UNL     1      39.689  34.554  40.374  0.00  0.00    +0.000 A 
ATOM      8  C   UNL     1      38.685  33.696  40.773  0.00  0.00    +0.000 A 
ATOM      9  N   UNL     1      38.607  32.479  40.180  0.00  0.00    +0.000 NA
ATOM     10  C   UNL     1      39.422  32.048  39.246  0.00  0.00    +0.000 A 
ATOM     11  N   UNL     1      40.425  32.869  38.828  0.00  0.00    +0.000 NA
ATOM     12  N   UNL     1      39.372  30.787  38.592  0.00  0.00    +0.000 N 
ATOM     13  N   UNL     1      40.437  30.437  37.883  0.00  0.00    +0.000 NA
ATOM     14  C   UNL     1      40.185  29.205  37.323  0.00  0.00    +0.000 A 
ATOM     15  C   UNL     1      38.899  28.846  37.747  0.00  0.00    +0.000 A 
ATOM     16  C   UNL     1      38.408  29.879  38.557  0.00  0.00    +0.000 A 
ENDBRANCH   1  16
BRANCH   5  17
ATOM     17  N   UNL     1      37.598  28.788  41.374  0.00  0.00    +0.000 N 
ATOM     18  N   UNL     1      37.906  29.843  42.110  0.00  0.00    +0.000 NA
ATOM     19  C   UNL     1      38.588  29.506  43.219  0.00  0.00    +0.000 A 
ATOM     20  C   UNL     1      38.712  28.130  43.167  0.00  0.00    +0.000 A 
ATOM     21  C   UNL     1      38.092  27.681  42.009  0.00  0.00    +0.000 A 
BRANCH  21  22
ATOM     22  C   UNL     1      38.035  26.289  41.621  0.00  0.00    +0.000 A 
ATOM     23  C   UNL     1      37.003  25.563  42.222  0.00  0.00    +0.000 A 
ATOM     24  C   UNL     1      36.819  24.211  41.939  0.00  0.00    +0.000 A 
ATOM     25  C   UNL     1      37.661  23.543  41.047  0.00  0.00    +0.000 A 
ATOM     26  C   UNL     1      38.681  24.251  40.449  0.00  0.00    +0.000 A 
ATOM     27  C   UNL     1      39.562  23.686  39.549  0.00  0.00    +0.000 A 
ATOM     28  C   UNL     1      40.588  24.422  38.946  0.00  0.00    +0.000 A 
ATOM     29  C   UNL     1      40.706  25.743  39.272  0.00  0.00    +0.000 A 
ATOM     30  C   UNL     1      39.840  26.320  40.164  0.00  0.00    +0.000 A 
ATOM     31  C   UNL     1      38.835  25.586  40.751  0.00  0.00    +0.000 A 
ENDBRANCH  21  22
ENDBRANCH   5  17
TORSDOF 3
