REMARK  Name = 
REMARK  1 active torsions:
REMARK  status: ('A' for Active; 'I' for Inactive)
REMARK    1  A    between atoms: C_13  and  C_14
REMARK                            x       y       z     vdW  Elec       q    Type
REMARK                         _______ _______ _______ _____ _____    ______ ____
ROOT
ATOM      1  C   UNL     1      37.567  28.621  39.573  0.00  0.00    +0.000 A 
ATOM      2  C   UNL     1      36.550  28.673  38.629  0.00  0.00    +0.000 A 
ATOM      3  C   UNL     1      36.745  28.894  37.289  0.00  0.00    +0.000 A 
ATOM      4  N   UNL     1      38.025  29.062  36.922  0.00  0.00    +0.000 NA
ATOM      5  C   UNL     1      39.045  29.018  37.812  0.00  0.00    +0.000 A 
ATOM      6  N   UNL     1      38.838  28.800  39.139  0.00  0.00    +0.000 NA
ATOM      7  N   UNL     1      40.369  29.209  37.320  0.00  0.00    +0.000 N 
ATOM      8  C   UNL     1      41.102  28.139  36.899  0.00  0.00    +0.000 A 
ATOM      9  N   UNL     1      42.316  28.513  36.473  0.00  0.00    +0.000 NA
ATOM     10  C   UNL     1      42.385  29.836  36.614  0.00  0.00    +0.000 A 
ATOM     11  C   UNL     1      43.326  30.832  36.374  0.00  0.00    +0.000 A 
ATOM     12  O   UNL     1      44.430  30.450  35.895  0.00  0.00    +0.000 OA
ATOM     13  N   UNL     1      43.026  32.114  36.654  0.00  0.00    +0.000 N 
ATOM     14  C   UNL     1      41.832  32.482  37.166  0.00  0.00    +0.000 A 
ATOM     15  N   UNL     1      41.697  33.879  37.397  0.00  0.00    +0.000 N 
ATOM     16  N   UNL     1      40.880  31.538  37.418  0.00  0.00    +0.000 NA
ATOM     17  C   UNL     1      41.186  30.260  37.135  0.00  0.00    +0.000 A 
ATOM     18  H   UNL     1      43.733  32.840  36.471  0.00  0.00    +0.000 HD
ATOM     19  H   UNL     1      40.820  34.254  37.786  0.00  0.00    +0.000 HD
ATOM     20  H   UNL     1      42.476  34.515  37.175  0.00  0.00    +0.000 HD
ENDROOT
BRANCH   1  33
ATOM     21  C   UNL     1      40.024  32.230  41.114  0.00  0.00    +0.000 A 
ATOM     22  C   UNL     1      39.644  30.950  41.593  0.00  0.00    +0.000 A 
ATOM     23  C   UNL     1      38.329  30.577  41.461  0.00  0.00    +0.000 A 
ATOM     24  N   UNL     1      37.440  31.436  40.884  0.00  0.00    +0.000 NA
ATOM     25  C   UNL     1      37.824  32.665  40.430  0.00  0.00    +0.000 A 
ATOM     26  N   UNL     1      39.123  33.058  40.548  0.00  0.00    +0.000 NA
ATOM     27  N   UNL     1      36.853  33.515  39.837  0.00  0.00    +0.000 N 
ATOM     28  N   UNL     1      37.869  29.315  41.913  0.00  0.00    +0.000 N 
ATOM     29  C   UNL     1      38.007  28.954  43.293  0.00  0.00    +0.000 C 
ATOM     30  C   UNL     1      36.956  27.872  43.586  0.00  0.00    +0.000 C 
ATOM     31  N   UNL     1      37.082  26.724  42.747  0.00  0.00    +0.000 NA
ATOM     32  C   UNL     1      37.597  26.983  41.443  0.00  0.00    +0.000 C 
ATOM     33  C   UNL     1      37.256  28.379  40.996  0.00  0.00    +0.000 C 
ATOM     34  H   UNL     1      35.875  33.202  39.756  0.00  0.00    +0.000 HD
ATOM     35  H   UNL     1      37.127  34.445  39.488  0.00  0.00    +0.000 HD
ATOM     36  H   UNL     1      37.713  26.056  43.212  0.00  0.00    +0.000 HD
ENDBRANCH   1  33
TORSDOF 1
