REMARK  Name = 
REMARK  9 active torsions:
REMARK  status: ('A' for Active; 'I' for Inactive)
REMARK    1  A    between atoms: C_1  and  N_8
REMARK    2  A    between atoms: C_2  and  C_26
REMARK    3  A    between atoms: C_5  and  O_9
REMARK    4  A    between atoms: O_9  and  C_10
REMARK    5  A    between atoms: C_13  and  C_15
REMARK    6  A    between atoms: C_20  and  C_21
REMARK    7  A    between atoms: C_26  and  C_27
REMARK    8  A    between atoms: C_26  and  C_28
REMARK    9  A    between atoms: C_26  and  C_29
REMARK                            x       y       z     vdW  Elec       q    Type
REMARK                         _______ _______ _______ _____ _____    ______ ____
ROOT
ATOM      1  O   UNL     1      36.746  30.159  41.736  0.00  0.00    +0.000 OA
ENDROOT
BRANCH   1   6
ATOM      2  C   UNL     1      37.306  26.628  41.047  0.00  0.00    +0.000 A 
ATOM      3  C   UNL     1      38.341  26.361  41.951  0.00  0.00    +0.000 A 
ATOM      4  C   UNL     1      38.818  27.390  42.769  0.00  0.00    +0.000 A 
ATOM      5  N   UNL     1      38.238  28.616  42.637  0.00  0.00    +0.000 NA
ATOM      6  C   UNL     1      37.241  28.867  41.763  0.00  0.00    +0.000 A 
ATOM      7  N   UNL     1      36.767  27.875  40.962  0.00  0.00    +0.000 NA
ATOM      8  N   UNL     1      39.846  27.152  43.671  0.00  0.00    +0.000 N 
ATOM      9  H   UNL     1      40.192  27.915  44.270  0.00  0.00    +0.000 HD
ATOM     10  H   UNL     1      40.263  26.213  43.741  0.00  0.00    +0.000 HD
BRANCH   3  11
ATOM     11  C   UNL     1      38.838  24.985  41.946  0.00  0.00    +0.000 C 
ATOM     12  C   UNL     1      37.697  23.968  41.751  0.00  0.00    +0.000 C 
ATOM     13  C   UNL     1      39.602  24.552  43.151  0.00  0.00    +0.000 C 
ATOM     14  C   UNL     1      39.765  24.844  40.752  0.00  0.00    +0.000 C 
ENDBRANCH   3  11
BRANCH   2  15
ATOM     15  N   UNL     1      36.792  25.654  40.205  0.00  0.00    +0.000 N 
ATOM     16  H   UNL     1      36.030  25.887  39.553  0.00  0.00    +0.000 HD
ATOM     17  H   UNL     1      37.172  24.697  40.232  0.00  0.00    +0.000 HD
ENDBRANCH   2  15
ENDBRANCH   1   6
BRANCH   1  18
ATOM     18  C   UNL     1      37.039  31.061  40.740  0.00  0.00    +0.000 A 
ATOM     19  N   UNL     1      36.680  31.352  39.481  0.00  0.00    +0.000 NA
ATOM     20  O   UNL     1      37.354  32.377  39.057  0.00  0.00    +0.000 OA
ATOM     21  C   UNL     1      38.171  32.797  40.002  0.00  0.00    +0.000 A 
ATOM     22  N   UNL     1      37.983  31.982  41.064  0.00  0.00    +0.000 NA
BRANCH  21  23
ATOM     23  C   UNL     1      39.101  33.929  39.921  0.00  0.00    +0.000 A 
ATOM     24  C   UNL     1      38.845  35.182  40.420  0.00  0.00    +0.000 A 
ATOM     25  C   UNL     1      39.795  36.186  40.291  0.00  0.00    +0.000 A 
ATOM     26  C   UNL     1      41.004  35.966  39.670  0.00  0.00    +0.000 A 
ATOM     27  C   UNL     1      41.261  34.710  39.170  0.00  0.00    +0.000 A 
ATOM     28  C   UNL     1      40.319  33.709  39.296  0.00  0.00    +0.000 A 
BRANCH  28  29
ATOM     29  C   UNL     1      40.691  32.405  38.729  0.00  0.00    +0.000 A 
ATOM     30  C   UNL     1      41.182  31.204  39.221  0.00  0.00    +0.000 A 
ATOM     31  C   UNL     1      41.317  30.357  38.130  0.00  0.00    +0.000 A 
ATOM     32  N   UNL     1      40.922  31.034  37.037  0.00  0.00    +0.000 N 
ATOM     33  N   UNL     1      40.543  32.270  37.393  0.00  0.00    +0.000 NA
ATOM     34  H   UNL     1      40.912  30.661  36.077  0.00  0.00    +0.000 HD
ENDBRANCH  28  29
ENDBRANCH  21  23
ENDBRANCH   1  18
TORSDOF 6
