REMARK  Name = 
REMARK  9 active torsions:
REMARK  status: ('A' for Active; 'I' for Inactive)
REMARK    1  A    between atoms: O_1  and  C_6
REMARK    2  A    between atoms: O_1  and  C_14
REMARK    3  A    between atoms: C_2  and  N_9
REMARK    4  A    between atoms: C_3  and  C_10
REMARK    5  A    between atoms: C_10  and  C_11
REMARK    6  A    between atoms: C_10  and  C_12
REMARK    7  A    between atoms: C_10  and  C_13
REMARK    8  A    between atoms: C_17  and  C_19
REMARK    9  A    between atoms: C_24  and  N_25
REMARK                            x       y       z     vdW  Elec       q    Type
REMARK                         _______ _______ _______ _____ _____    ______ ____
ROOT
ATOM      1  C   UNL     1      37.039  31.060  40.787  0.00  0.00    +0.000 A 
ATOM      2  N   UNL     1      36.663  31.339  39.527  0.00  0.00    +0.000 NA
ATOM      3  O   UNL     1      37.320  32.364  39.088  0.00  0.00    +0.000 OA
ATOM      4  C   UNL     1      38.133  32.794  40.009  0.00  0.00    +0.000 A 
ATOM      5  N   UNL     1      37.981  31.992  41.097  0.00  0.00    +0.000 NA
ENDROOT
BRANCH   4   6
ATOM      6  C   UNL     1      39.059  33.938  39.916  0.00  0.00    +0.000 A 
ATOM      7  C   UNL     1      38.750  35.213  40.328  0.00  0.00    +0.000 A 
ATOM      8  C   UNL     1      39.690  36.240  40.204  0.00  0.00    +0.000 A 
ATOM      9  C   UNL     1      40.946  35.986  39.664  0.00  0.00    +0.000 A 
ATOM     10  C   UNL     1      41.250  34.708  39.253  0.00  0.00    +0.000 A 
ATOM     11  C   UNL     1      40.312  33.714  39.384  0.00  0.00    +0.000 A 
BRANCH  11  12
ATOM     12  N   UNL     1      40.750  32.438  38.921  0.00  0.00    +0.000 N 
ATOM     13  C   UNL     1      40.635  31.885  37.700  0.00  0.00    +0.000 A 
ATOM     14  C   UNL     1      41.144  30.622  37.499  0.00  0.00    +0.000 A 
ATOM     15  C   UNL     1      41.770  29.890  38.488  0.00  0.00    +0.000 A 
ATOM     16  N   UNL     1      42.283  28.586  38.239  0.00  0.00    +0.000 N 
ATOM     17  N   UNL     1      41.862  30.492  39.709  0.00  0.00    +0.000 NA
ATOM     18  C   UNL     1      41.367  31.725  39.910  0.00  0.00    +0.000 A 
ATOM     19  O   UNL     1      41.535  32.141  41.103  0.00  0.00    +0.000 OA
ATOM     20  H   UNL     1      42.746  28.062  38.995  0.00  0.00    +0.000 HD
ATOM     21  H   UNL     1      42.191  28.167  37.303  0.00  0.00    +0.000 HD
ENDBRANCH  11  12
ENDBRANCH   4   6
BRANCH   1  22
ATOM     22  O   UNL     1      36.768  30.160  41.798  0.00  0.00    +0.000 OA
BRANCH  22  27
ATOM     23  C   UNL     1      37.307  26.636  41.072  0.00  0.00    +0.000 A 
ATOM     24  C   UNL     1      38.338  26.342  41.976  0.00  0.00    +0.000 A 
ATOM     25  C   UNL     1      38.819  27.359  42.807  0.00  0.00    +0.000 A 
ATOM     26  N   UNL     1      38.245  28.599  42.686  0.00  0.00    +0.000 NA
ATOM     27  C   UNL     1      37.253  28.864  41.812  0.00  0.00    +0.000 A 
ATOM     28  N   UNL     1      36.777  27.881  40.997  0.00  0.00    +0.000 NA
ATOM     29  N   UNL     1      39.838  27.117  43.715  0.00  0.00    +0.000 N 
ATOM     30  H   UNL     1      40.180  27.877  44.319  0.00  0.00    +0.000 HD
ATOM     31  H   UNL     1      40.253  26.177  43.785  0.00  0.00    +0.000 HD
BRANCH  24  32
ATOM     32  C   UNL     1      38.823  24.964  41.962  0.00  0.00    +0.000 C 
ATOM     33  C   UNL     1      37.682  23.959  41.732  0.00  0.00    +0.000 C 
ATOM     34  C   UNL     1      39.594  24.498  43.141  0.00  0.00    +0.000 C 
ATOM     35  C   UNL     1      39.758  24.846  40.763  0.00  0.00    +0.000 C 
ENDBRANCH  24  32
BRANCH  23  36
ATOM     36  N   UNL     1      36.795  25.670  40.218  0.00  0.00    +0.000 N 
ATOM     37  H   UNL     1      36.038  25.911  39.563  0.00  0.00    +0.000 HD
ATOM     38  H   UNL     1      37.172  24.712  40.239  0.00  0.00    +0.000 HD
ENDBRANCH  23  36
ENDBRANCH  22  27
ENDBRANCH   1  22
TORSDOF 6
