REMARK  Name = 
REMARK  4 active torsions:
REMARK  status: ('A' for Active; 'I' for Inactive)
REMARK    1  A    between atoms: C_3  and  S_16
REMARK    2  A    between atoms: C_5  and  C_6
REMARK    3  A    between atoms: S_16  and  C_21
REMARK    4  A    between atoms: CA_19  and  C_23
REMARK                            x       y       z     vdW  Elec       q    Type
REMARK                         _______ _______ _______ _____ _____    ______ ____
ROOT
ATOM      1  N   UNL     1      37.373  33.735  40.021  0.00  0.00    +0.000 N 
ATOM      2  N   UNL     1      37.792  34.964  39.767  0.00  0.00    +0.000 NA
ATOM      3  C   UNL     1      39.036  35.115  40.255  0.00  0.00    +0.000 A 
ATOM      4  C   UNL     1      39.330  33.896  40.814  0.00  0.00    +0.000 A 
ATOM      5  C   UNL     1      38.262  33.006  40.665  0.00  0.00    +0.000 A 
ATOM      6  H   UNL     1      36.446  33.383  39.743  0.00  0.00    +0.000 HD
ENDROOT
BRANCH   5   7
ATOM      7  C   UNL     1      38.342  31.682  41.199  0.00  0.00    +0.000 A 
ATOM      8  N   UNL     1      39.405  31.346  41.967  0.00  0.00    +0.000 NA
ATOM      9  C   UNL     1      39.602  30.173  42.548  0.00  0.00    +0.000 A 
ATOM     10  N   UNL     1      38.725  29.171  42.423  0.00  0.00    +0.000 NA
ATOM     11  C   UNL     1      37.620  29.391  41.677  0.00  0.00    +0.000 A 
ATOM     12  C   UNL     1      36.693  28.402  41.515  0.00  0.00    +0.000 A 
ATOM     13  C   UNL     1      35.551  28.591  40.754  0.00  0.00    +0.000 A 
ATOM     14  C   UNL     1      35.399  29.832  40.166  0.00  0.00    +0.000 A 
ATOM     15  C   UNL     1      36.370  30.785  40.368  0.00  0.00    +0.000 A 
ATOM     16  C   UNL     1      37.496  30.628  41.110  0.00  0.00    +0.000 A 
ENDBRANCH   5   7
BRANCH   3  17
ATOM     17  S   UNL     1      40.174  36.489  40.284  0.00  0.00    +0.000 S 
BRANCH  17  22
ATOM     18  C   UNL     1      43.445  34.630  41.587  0.00  0.00    +0.000 A 
ATOM     19  C   UNL     1      43.840  35.377  42.700  0.00  0.00    +0.000 A 
ATOM     20  CA  UNL     1      43.089  36.483  43.070  0.00  0.00    +0.000 A 
ATOM     21  N   UNL     1      41.993  36.788  42.322  0.00  0.00    +0.000 NA
ATOM     22  C   UNL     1      41.637  36.035  41.241  0.00  0.00    +0.000 A 
ATOM     23  N   UNL     1      42.363  34.977  40.895  0.00  0.00    +0.000 NA
BRANCH  20  24
ATOM     24  C   UNL     1      43.446  37.304  44.219  0.00  0.00    +0.000 C 
ATOM     25  O   UNL     1      43.797  36.726  45.271  0.00  0.00    +0.000 OA
ENDBRANCH  20  24
ENDBRANCH  17  22
ENDBRANCH   3  17
TORSDOF 4
