REMARK  Name = 
REMARK  1 active torsions:
REMARK  status: ('A' for Active; 'I' for Inactive)
REMARK    1  A    between atoms: C_20  and  N_25
REMARK                            x       y       z     vdW  Elec       q    Type
REMARK                         _______ _______ _______ _____ _____    ______ ____
ROOT
ATOM      1  C   UNL     1      39.742  29.021  41.922  0.00  0.00    +0.000 A 
ATOM      2  C   UNL     1      38.555  28.304  42.214  0.00  0.00    +0.000 A 
ATOM      3  C   UNL     1      37.341  28.936  41.975  0.00  0.00    +0.000 A 
ATOM      4  N   UNL     1      37.356  30.212  41.475  0.00  0.00    +0.000 NA
ATOM      5  C   UNL     1      38.502  30.872  41.207  0.00  0.00    +0.000 A 
ATOM      6  N   UNL     1      39.704  30.285  41.427  0.00  0.00    +0.000 NA
ATOM      7  N   UNL     1      38.353  32.187  40.692  0.00  0.00    +0.000 N 
ATOM      8  C   UNL     1      37.151  32.529  40.167  0.00  0.00    +0.000 A 
ATOM      9  N   UNL     1      37.258  33.813  39.750  0.00  0.00    +0.000 NA
ATOM     10  C   UNL     1      38.482  34.299  39.991  0.00  0.00    +0.000 A 
ATOM     11  C   UNL     1      39.205  35.458  39.825  0.00  0.00    +0.000 A 
ATOM     12  N   UNL     1      40.497  35.561  40.224  0.00  0.00    +0.000 NA
ATOM     13  C   UNL     1      41.099  34.498  40.803  0.00  0.00    +0.000 A 
ATOM     14  N   UNL     1      40.435  33.347  40.985  0.00  0.00    +0.000 NA
ATOM     15  C   UNL     1      39.161  33.249  40.590  0.00  0.00    +0.000 A 
ATOM     16  N   UNL     1      42.454  34.710  41.184  0.00  0.00    +0.000 N 
ATOM     17  C   UNL     1      43.513  34.035  40.665  0.00  0.00    +0.000 A 
ATOM     18  N   UNL     1      44.665  34.452  41.218  0.00  0.00    +0.000 NA
ATOM     19  C   UNL     1      44.385  35.398  42.101  0.00  0.00    +0.000 A 
ATOM     20  C   UNL     1      45.171  36.160  42.942  0.00  0.00    +0.000 A 
ATOM     21  N   UNL     1      44.533  37.062  43.735  0.00  0.00    +0.000 NA
ATOM     22  C   UNL     1      43.195  37.215  43.710  0.00  0.00    +0.000 A 
ATOM     23  N   UNL     1      42.438  36.451  42.871  0.00  0.00    +0.000 NA
ATOM     24  C   UNL     1      43.018  35.549  42.071  0.00  0.00    +0.000 A 
ENDROOT
BRANCH  20  25
ATOM     25  N   UNL     1      46.582  35.970  42.940  0.00  0.00    +0.000 N 
ATOM     26  H   UNL     1      47.178  36.533  43.563  0.00  0.00    +0.000 HD
ATOM     27  H   UNL     1      47.007  35.270  42.315  0.00  0.00    +0.000 HD
ENDBRANCH  20  25
TORSDOF 1
