REMARK  Name = 
REMARK  3 active torsions:
REMARK  status: ('A' for Active; 'I' for Inactive)
REMARK    1  A    between atoms: C_19  and  C_21
REMARK    2  A    between atoms: C_23  and  N_24
REMARK    3  A    between atoms: C_26  and  C_27
REMARK                            x       y       z     vdW  Elec       q    Type
REMARK                         _______ _______ _______ _____ _____    ______ ____
ROOT
ATOM      1  C   UNL     1      39.326  27.955  43.300  0.00  0.00    +0.000 A 
ATOM      2  C   UNL     1      38.153  27.271  43.672  0.00  0.00    +0.000 A 
ATOM      3  C   UNL     1      36.953  27.757  43.196  0.00  0.00    +0.000 A 
ATOM      4  N   UNL     1      36.979  28.858  42.403  0.00  0.00    +0.000 NA
ATOM      5  C   UNL     1      38.113  29.496  42.061  0.00  0.00    +0.000 A 
ATOM      6  N   UNL     1      39.306  29.054  42.503  0.00  0.00    +0.000 NA
ATOM      7  N   UNL     1      37.975  30.640  41.218  0.00  0.00    +0.000 N 
ATOM      8  C   UNL     1      36.819  30.804  40.540  0.00  0.00    +0.000 A 
ATOM      9  N   UNL     1      36.933  31.934  39.831  0.00  0.00    +0.000 NA
ATOM     10  C   UNL     1      38.126  32.498  40.034  0.00  0.00    +0.000 A 
ATOM     11  C   UNL     1      38.835  33.614  39.621  0.00  0.00    +0.000 A 
ATOM     12  N   UNL     1      40.088  33.866  40.061  0.00  0.00    +0.000 NA
ATOM     13  C   UNL     1      40.671  33.013  40.925  0.00  0.00    +0.000 A 
ATOM     14  N   UNL     1      40.005  31.917  41.344  0.00  0.00    +0.000 NA
ATOM     15  C   UNL     1      38.771  31.670  40.909  0.00  0.00    +0.000 A 
ATOM     16  N   UNL     1      41.983  33.197  41.417  0.00  0.00    +0.000 N 
ATOM     17  C   UNL     1      42.986  34.066  41.209  0.00  0.00    +0.000 A 
ATOM     18  N   UNL     1      44.050  33.738  41.959  0.00  0.00    +0.000 NA
ATOM     19  C   UNL     1      43.710  32.659  42.638  0.00  0.00    +0.000 A 
ATOM     20  N   UNL     1      42.434  32.303  42.322  0.00  0.00    +0.000 NA
ENDROOT
BRANCH  19  21
ATOM     21  C   UNL     1      44.570  31.900  43.581  0.00  0.00    +0.000 C 
ATOM     22  C   UNL     1      46.052  32.180  43.591  0.00  0.00    +0.000 C 
ATOM     23  C   UNL     1      45.128  32.601  44.788  0.00  0.00    +0.000 C 
BRANCH  23  24
ATOM     24  N   UNL     1      45.208  31.767  45.969  0.00  0.00    +0.000 N 
ATOM     25  C   UNL     1      44.412  30.685  46.039  0.00  0.00    +0.000 A 
ATOM     26  C   UNL     1      44.420  29.836  47.125  0.00  0.00    +0.000 A 
ATOM     27  C   UNL     1      43.514  28.646  47.151  0.00  0.00    +0.000 C 
ATOM     28  C   UNL     1      45.281  30.122  48.165  0.00  0.00    +0.000 A 
ATOM     29  O   UNL     1      45.321  29.370  49.179  0.00  0.00    +0.000 OA
ATOM     30  N   UNL     1      46.083  31.223  48.082  0.00  0.00    +0.000 N 
ATOM     31  C   UNL     1      46.047  32.030  47.004  0.00  0.00    +0.000 A 
ATOM     32  O   UNL     1      46.776  33.061  46.891  0.00  0.00    +0.000 OA
ATOM     33  H   UNL     1      46.726  31.441  48.856  0.00  0.00    +0.000 HD
ENDBRANCH  23  24
ENDBRANCH  19  21
TORSDOF 2
