REMARK  Name = 
REMARK  6 active torsions:
REMARK  status: ('A' for Active; 'I' for Inactive)
REMARK    1  A    between atoms: C_3  and  S_16
REMARK    2  A    between atoms: C_5  and  C_6
REMARK    3  A    between atoms: S_16  and  C_21
REMARK    4  A    between atoms: C_19  and  C_23
REMARK    5  A    between atoms: C_23  and  C_24
REMARK    6  A    between atoms: C_24  and  C_25
REMARK                            x       y       z     vdW  Elec       q    Type
REMARK                         _______ _______ _______ _____ _____    ______ ____
ROOT
ATOM      1  N   UNL     1      37.052  33.336  39.888  0.00  0.00    +0.000 N 
ATOM      2  N   UNL     1      37.354  34.568  39.570  0.00  0.00    +0.000 NA
ATOM      3  C   UNL     1      38.596  34.847  40.055  0.00  0.00    +0.000 A 
ATOM      4  C   UNL     1      38.991  33.671  40.677  0.00  0.00    +0.000 A 
ATOM      5  C   UNL     1      37.967  32.706  40.555  0.00  0.00    +0.000 A 
ATOM      6  H   UNL     1      36.156  32.900  39.628  0.00  0.00    +0.000 HD
ENDROOT
BRANCH   5   7
ATOM      7  C   UNL     1      38.129  31.441  41.163  0.00  0.00    +0.000 A 
ATOM      8  N   UNL     1      39.230  31.202  41.935  0.00  0.00    +0.000 NA
ATOM      9  C   UNL     1      39.484  30.095  42.604  0.00  0.00    +0.000 A 
ATOM     10  N   UNL     1      38.660  29.049  42.603  0.00  0.00    +0.000 NA
ATOM     11  C   UNL     1      37.527  29.160  41.870  0.00  0.00    +0.000 A 
ATOM     12  C   UNL     1      36.636  28.139  41.811  0.00  0.00    +0.000 A 
ATOM     13  C   UNL     1      35.470  28.207  41.067  0.00  0.00    +0.000 A 
ATOM     14  C   UNL     1      35.260  29.395  40.374  0.00  0.00    +0.000 A 
ATOM     15  C   UNL     1      36.198  30.385  40.480  0.00  0.00    +0.000 A 
ATOM     16  C   UNL     1      37.337  30.348  41.198  0.00  0.00    +0.000 A 
ENDBRANCH   5   7
BRANCH   3  17
ATOM     17  S   UNL     1      39.629  36.321  40.067  0.00  0.00    +0.000 S 
BRANCH  17  22
ATOM     18  C   UNL     1      43.100  34.655  40.973  0.00  0.00    +0.000 A 
ATOM     19  C   UNL     1      43.572  35.383  42.065  0.00  0.00    +0.000 A 
ATOM     20  C   UNL     1      42.799  36.429  42.557  0.00  0.00    +0.000 A 
ATOM     21  N   UNL     1      41.617  36.674  41.931  0.00  0.00    +0.000 NA
ATOM     22  C   UNL     1      41.187  35.954  40.879  0.00  0.00    +0.000 A 
ATOM     23  N   UNL     1      41.922  34.960  40.411  0.00  0.00    +0.000 NA
BRANCH  20  24
ATOM     24  C   UNL     1      43.302  37.189  43.714  0.00  0.00    +0.000 C 
BRANCH  24  25
ATOM     25  C   UNL     1      44.742  36.939  44.009  0.00  0.00    +0.000 C 
BRANCH  25  26
ATOM     26  C   UNL     1      44.938  35.897  45.050  0.00  0.00    +0.000 A 
ATOM     27  C   UNL     1      45.566  34.672  45.127  0.00  0.00    +0.000 A 
ATOM     28  C   UNL     1      45.398  34.160  46.402  0.00  0.00    +0.000 A 
ATOM     29  C   UNL     1      44.654  35.148  47.021  0.00  0.00    +0.000 A 
ATOM     30  O   UNL     1      44.397  36.145  46.226  0.00  0.00    +0.000 OA
ENDBRANCH  25  26
ENDBRANCH  24  25
ENDBRANCH  20  24
ENDBRANCH  17  22
ENDBRANCH   3  17
TORSDOF 6
