
     RDKit          3D

 39 42  0  0  0  0  0  0  0  0999 V2000
   29.9130   27.9650   47.2060 C   0  0  0  0  0  0  0  0  0  0  0  0
   30.7650   28.6230   46.3500 C   0  0  0  0  0  0  0  0  0  0  0  0
   32.0700   28.9070   46.7050 C   0  0  0  0  0  0  0  0  0  0  0  0
   32.5340   28.5290   47.9360 C   0  0  0  0  0  0  0  0  0  0  0  0
   31.6520   27.8700   48.7690 C   0  0  0  0  0  0  0  0  0  0  0  0
   30.3440   27.5650   48.4610 C   0  0  0  0  0  0  0  0  0  0  0  0
   35.6350   29.9900   48.6290 C   0  0  0  0  0  0  0  0  0  0  0  0
   35.7780   28.8310   49.4060 C   0  0  0  0  0  0  0  0  0  0  0  0
   34.6420   28.0670   49.2890 C   0  0  0  0  0  0  0  0  0  0  0  0
   33.8390   28.7410   48.4700 N   0  0  0  0  0  0  0  0  0  0  0  0
   34.4190   29.8530   48.0900 N   0  0  0  0  0  0  0  0  0  0  0  0
   37.9890   32.7380   49.4020 C   0  0  0  0  0  0  0  0  0  0  0  0
   38.7500   32.7380   48.2230 C   0  0  0  0  0  0  0  0  0  0  0  0
   38.4460   31.8230   47.2190 C   0  0  0  0  0  0  0  0  0  0  0  0
   37.4150   30.9570   47.4260 N   0  0  0  0  0  0  0  0  0  0  0  0
   36.6970   30.9770   48.5720 C   0  0  0  0  0  0  0  0  0  0  0  0
   36.9610   31.8530   49.5720 N   0  0  0  0  0  0  0  0  0  0  0  0
   28.2530   27.6230   46.7690 S   0  0  0  0  0  0  0  0  0  0  0  0
   28.2330   26.4110   45.8830 O   0  0  0  0  0  0  0  0  0  0  0  0
   27.4880   27.3740   48.0230 O   0  0  0  0  0  0  0  0  0  0  0  0
   27.5470   29.0050   45.9590 C   0  0  0  0  0  0  0  0  0  0  0  0
   27.0870   29.0460   44.6650 C   0  0  0  0  0  0  0  0  0  0  0  0
   26.5490   30.2070   44.1410 C   0  0  0  0  0  0  0  0  0  0  0  0
   26.4800   31.3260   44.9400 C   0  0  0  0  0  0  0  0  0  0  0  0
   26.9400   31.2890   46.2330 C   0  0  0  0  0  0  0  0  0  0  0  0
   27.4440   30.1460   46.6750 N   0  0  0  0  0  0  0  0  0  0  0  0
   30.3990   28.9305   45.3593 H   0  0  0  0  0  0  0  0  0  0  0  0
   32.7322   29.4339   46.0022 H   0  0  0  0  0  0  0  0  0  0  0  0
   32.0233   27.5638   49.7581 H   0  0  0  0  0  0  0  0  0  0  0  0
   29.6843   27.0379   49.1659 H   0  0  0  0  0  0  0  0  0  0  0  0
   36.6592   28.5746   50.0124 H   0  0  0  0  0  0  0  0  0  0  0  0
   34.4389   27.0997   49.7718 H   0  0  0  0  0  0  0  0  0  0  0  0
   38.2225   33.4590   50.1993 H   0  0  0  0  0  0  0  0  0  0  0  0
   39.5765   33.4522   48.0938 H   0  0  0  0  0  0  0  0  0  0  0  0
   39.0232   31.7998   46.2829 H   0  0  0  0  0  0  0  0  0  0  0  0
   27.1475   28.1441   44.0381 H   0  0  0  0  0  0  0  0  0  0  0  0
   26.1827   30.2360   43.1042 H   0  0  0  0  0  0  0  0  0  0  0  0
   26.0529   32.2571   44.5392 H   0  0  0  0  0  0  0  0  0  0  0  0
   26.8918   32.1775   46.8797 H   0  0  0  0  0  0  0  0  0  0  0  0
  1  6  2  0
  2  3  2  0
  2  1  1  0
  3  4  1  0
  4 10  1  0
  4  5  2  0
  6  5  1  0
  7  8  1  0
  9  8  2  0
 10  9  1  0
 11 10  1  0
 11  7  2  0
 12 17  2  0
 13 12  1  0
 14 15  1  0
 14 13  2  0
 15 16  2  0
 16  7  1  0
 16 17  1  0
 18  1  1  0
 18 20  2  0
 19 18  2  0
 21 26  1  0
 21 18  1  0
 22 21  2  0
 23 22  1  0
 23 24  2  0
 24 25  1  0
 25 26  2  0
  2 27  1  0
  3 28  1  0
  5 29  1  0
  6 30  1  0
  8 31  1  0
  9 32  1  0
 12 33  1  0
 13 34  1  0
 14 35  1  0
 22 36  1  0
 23 37  1  0
 24 38  1  0
 25 39  1  0
M  ISO  8  27  14  28  14  29  14  30  14  31  14  32  14  33  14  34  14
M  ISO  5  35  14  36  14  37  14  38  14  39  14
M  END
>  <minimizedAffinity>  (1) 
-5.98106146

>  <minimizedRMSD>  (1) 
1.51549137

$$$$
