
     RDKit          3D

 25 26  0  0  0  0  0  0  0  0999 V2000
   37.2830   31.4440   48.5870 C   0  0  0  0  0  0  0  0  0  0  0  0
   37.7330   32.3700   49.5700 C   0  0  0  0  0  0  0  0  0  0  0  0
   38.7110   33.2880   49.1890 C   0  0  0  0  0  0  0  0  0  0  0  0
   39.1770   33.2410   47.8870 N   0  0  0  0  0  0  0  0  0  0  0  0
   38.7180   32.3530   47.0160 C   0  0  0  0  0  0  0  0  0  0  0  0
   37.7560   31.4290   47.3450 N   0  0  0  0  0  0  0  0  0  0  0  0
   39.2270   32.3220   45.6420 C   0  0  0  0  0  0  0  0  0  0  0  0
   40.2510   31.4960   45.2250 C   0  0  0  0  0  0  0  0  0  0  0  0
   40.4540   31.7530   43.8580 C   0  0  0  0  0  0  0  0  0  0  0  0
   39.5320   32.7240   43.5400 C   0  0  0  0  0  0  0  0  0  0  0  0
   38.8330   33.0330   44.6040 O   0  0  0  0  0  0  0  0  0  0  0  0
   39.3800   33.2810   42.2710 O   0  0  0  0  0  0  0  0  0  0  0  0
   36.2620   30.4920   49.0050 C   0  0  0  0  0  0  0  0  0  0  0  0
   35.0550   30.6680   48.6530 O   0  0  0  0  0  0  0  0  0  0  0  0
   36.6150   29.4030   49.7830 O   0  0  0  0  0  0  0  0  0  0  0  0
   36.5670   29.4450   51.1840 C   0  0  0  0  0  0  0  0  0  0  0  0
   37.7030   29.7200   51.9960 N   0  0  0  0  0  0  0  0  0  0  0  0
   35.4120   29.2130   51.6380 O   0  0  0  0  0  0  0  0  0  0  0  0
   37.3247   32.3617   50.5914 H   0  0  0  0  0  0  0  0  0  0  0  0
   39.1009   34.0283   49.9031 H   0  0  0  0  0  0  0  0  0  0  0  0
   40.8032   30.7740   45.8445 H   0  0  0  0  0  0  0  0  0  0  0  0
   41.1888   31.2813   43.1890 H   0  0  0  0  0  0  0  0  0  0  0  0
   38.6938   33.9773   42.1150 H   0  0  0  0  0  0  0  0  0  0  0  0
   37.6106   29.7384   53.0217 H   0  0  0  0  0  0  0  0  0  0  0  0
   38.6176   29.9006   51.5580 H   0  0  0  0  0  0  0  0  0  0  0  0
  1 13  1  0
  1  2  2  0
  3  2  1  0
  4  3  2  0
  5  6  2  0
  5  4  1  0
  6  1  1  0
  7  5  1  0
  8  7  2  0
  9  8  1  0
 10  9  2  0
 10 11  1  0
 11  7  1  0
 12 10  1  0
 13 15  1  0
 14 13  2  0
 15 16  1  0
 16 18  2  0
 16 17  1  0
  2 19  1  0
  3 20  1  0
  8 21  1  0
  9 22  1  0
 12 23  1  0
 17 24  1  0
 17 25  1  0
M  ISO  5  19  14  20  14  21  14  22  14  23   3
M  END
>  <minimizedAffinity>  (1) 
-5.62167835

>  <minimizedRMSD>  (1) 
0.264441341

$$$$
