
     RDKit          3D

 26 27  0  0  0  0  0  0  0  0999 V2000
   37.2720   31.4460   48.5860 C   0  0  0  0  0  0  0  0  0  0  0  0
   37.7360   32.3700   49.5600 C   0  0  0  0  0  0  0  0  0  0  0  0
   38.7090   33.2760   49.1660 C   0  0  0  0  0  0  0  0  0  0  0  0
   39.1620   33.2250   47.8630 N   0  0  0  0  0  0  0  0  0  0  0  0
   38.6960   32.3440   46.9950 C   0  0  0  0  0  0  0  0  0  0  0  0
   37.7420   31.4400   47.3450 N   0  0  0  0  0  0  0  0  0  0  0  0
   39.1950   32.3130   45.6190 C   0  0  0  0  0  0  0  0  0  0  0  0
   40.2590   31.5270   45.2060 C   0  0  0  0  0  0  0  0  0  0  0  0
   40.4550   31.7490   43.8390 C   0  0  0  0  0  0  0  0  0  0  0  0
   39.4700   32.6780   43.5100 C   0  0  0  0  0  0  0  0  0  0  0  0
   38.7520   32.9840   44.5730 O   0  0  0  0  0  0  0  0  0  0  0  0
   39.2750   33.2160   42.2000 N   0  0  0  0  0  0  0  0  0  0  0  0
   36.2540   30.5030   49.0100 C   0  0  0  0  0  0  0  0  0  0  0  0
   35.0400   30.6770   48.6600 O   0  0  0  0  0  0  0  0  0  0  0  0
   36.6170   29.4100   49.8000 O   0  0  0  0  0  0  0  0  0  0  0  0
   36.5580   29.4440   51.1840 C   0  0  0  0  0  0  0  0  0  0  0  0
   37.6940   29.7180   51.9970 N   0  0  0  0  0  0  0  0  0  0  0  0
   35.4270   29.2140   51.6570 O   0  0  0  0  0  0  0  0  0  0  0  0
   37.3393   32.3669   50.5860 H   0  0  0  0  0  0  0  0  0  0  0  0
   39.1097   34.0166   49.8738 H   0  0  0  0  0  0  0  0  0  0  0  0
   40.8462   30.8479   45.8416 H   0  0  0  0  0  0  0  0  0  0  0  0
   41.2095   31.2965   43.1788 H   0  0  0  0  0  0  0  0  0  0  0  0
   38.5244   33.9007   42.0310 H   0  0  0  0  0  0  0  0  0  0  0  0
   39.8851   32.9189   41.4252 H   0  0  0  0  0  0  0  0  0  0  0  0
   37.6017   29.7327   53.0228 H   0  0  0  0  0  0  0  0  0  0  0  0
   38.6082   29.9016   51.5595 H   0  0  0  0  0  0  0  0  0  0  0  0
  1 13  1  0
  1  2  2  0
  3  2  1  0
  4  3  2  0
  5  6  2  0
  5  4  1  0
  6  1  1  0
  7  5  1  0
  8  7  2  0
  9  8  1  0
 10  9  2  0
 10 11  1  0
 11  7  1  0
 12 10  1  0
 13 15  1  0
 14 13  2  0
 15 16  1  0
 16 18  2  0
 16 17  1  0
  2 19  1  0
  3 20  1  0
  8 21  1  0
  9 22  1  0
 12 23  1  0
 12 24  1  0
 17 25  1  0
 17 26  1  0
M  ISO  4  19  14  20  14  21  14  22  14
M  END
>  <minimizedAffinity>  (1) 
-5.59009552

>  <minimizedRMSD>  (1) 
0.302433848

$$$$
