
     RDKit          3D

 41 44  0  0  0  0  0  0  0  0999 V2000
   39.2910   31.8750   45.7000 C   0  0  0  0  0  0  0  0  0  0  0  0
   40.5450   31.2790   45.5270 C   0  0  0  0  0  0  0  0  0  0  0  0
   40.8300   31.2560   44.1720 C   0  0  0  0  0  0  0  0  0  0  0  0
   39.7060   31.8560   43.5800 C   0  0  0  0  0  0  0  0  0  0  0  0
   38.8500   32.1920   44.5240 O   0  0  0  0  0  0  0  0  0  0  0  0
   37.1640   31.3820   48.6030 C   0  0  0  0  0  0  0  0  0  0  0  0
   37.5520   32.4180   49.4880 C   0  0  0  0  0  0  0  0  0  0  0  0
   38.5600   33.2730   49.0420 C   0  0  0  0  0  0  0  0  0  0  0  0
   39.0990   33.0590   47.8000 N   0  0  0  0  0  0  0  0  0  0  0  0
   38.6890   32.0570   47.0030 C   0  0  0  0  0  0  0  0  0  0  0  0
   37.7040   31.1980   47.4030 N   0  0  0  0  0  0  0  0  0  0  0  0
   36.1070   30.4900   49.0750 C   0  0  0  0  0  0  0  0  0  0  0  0
   34.8960   30.7320   48.7760 O   0  0  0  0  0  0  0  0  0  0  0  0
   36.4680   29.3750   49.8560 O   0  0  0  0  0  0  0  0  0  0  0  0
   36.4910   29.4280   51.2450 C   0  0  0  0  0  0  0  0  0  0  0  0
   37.6680   29.7070   51.9520 N   0  0  0  0  0  0  0  0  0  0  0  0
   35.4070   29.2110   51.8060 O   0  0  0  0  0  0  0  0  0  0  0  0
   39.5150   32.0710   42.1570 C   0  0  0  0  0  0  0  0  0  0  0  0
   39.9640   31.2070   41.1710 C   0  0  0  0  0  0  0  0  0  0  0  0
   39.5590   31.8160   40.0010 C   0  0  0  0  0  0  0  0  0  0  0  0
   38.9070   32.9750   40.2660 N   0  0  0  0  0  0  0  0  0  0  0  0
   38.8880   33.1150   41.5850 N   0  0  0  0  0  0  0  0  0  0  0  0
   38.3900   33.7890   39.2250 C   0  0  0  0  0  0  0  0  0  0  0  0
   37.0940   34.2870   39.1780 C   0  0  0  0  0  0  0  0  0  0  0  0
   36.6610   35.0760   38.1290 C   0  0  0  0  0  0  0  0  0  0  0  0
   37.5360   35.3810   37.0910 C   0  0  0  0  0  0  0  0  0  0  0  0
   38.8380   34.8730   37.1520 C   0  0  0  0  0  0  0  0  0  0  0  0
   39.2820   34.0780   38.2040 C   0  0  0  0  0  0  0  0  0  0  0  0
   41.1927   30.8950   46.3289 H   0  0  0  0  0  0  0  0  0  0  0  0
   41.7278   30.8600   43.6748 H   0  0  0  0  0  0  0  0  0  0  0  0
   37.0829   32.5417   50.4753 H   0  0  0  0  0  0  0  0  0  0  0  0
   38.9146   34.1010   49.6734 H   0  0  0  0  0  0  0  0  0  0  0  0
   37.6549   29.7398   52.9814 H   0  0  0  0  0  0  0  0  0  0  0  0
   38.5463   29.8793   51.4424 H   0  0  0  0  0  0  0  0  0  0  0  0
   40.5125   30.2612   41.2922 H   0  0  0  0  0  0  0  0  0  0  0  0
   39.7401   31.4164   38.9923 H   0  0  0  0  0  0  0  0  0  0  0  0
   36.3965   34.0480   39.9943 H   0  0  0  0  0  0  0  0  0  0  0  0
   35.6305   35.4606   38.1148 H   0  0  0  0  0  0  0  0  0  0  0  0
   37.2125   36.0050   36.2449 H   0  0  0  0  0  0  0  0  0  0  0  0
   39.5375   35.1112   36.3371 H   0  0  0  0  0  0  0  0  0  0  0  0
   40.3111   33.6900   38.2249 H   0  0  0  0  0  0  0  0  0  0  0  0
  1 10  1  0
  2  1  2  0
  3  2  1  0
  4  3  2  0
  4  5  1  0
  5  1  1  0
  6 12  1  0
  6  7  2  0
  8  7  1  0
  9  8  2  0
 10 11  2  0
 10  9  1  0
 11  6  1  0
 12 14  1  0
 13 12  2  0
 14 15  1  0
 15 17  2  0
 15 16  1  0
 18  4  1  0
 19 18  1  0
 20 21  1  0
 20 19  2  0
 21 22  1  0
 22 18  2  0
 23 21  1  0
 24 23  2  0
 25 24  1  0
 26 27  1  0
 26 25  2  0
 27 28  2  0
 28 23  1  0
  2 29  1  0
  3 30  1  0
  7 31  1  0
  8 32  1  0
 16 33  1  0
 16 34  1  0
 19 35  1  0
 20 36  1  0
 24 37  1  0
 25 38  1  0
 26 39  1  0
 27 40  1  0
 28 41  1  0
M  ISO  8  29  14  30  14  31  14  32  14  35  14  36  14  37  14  38  14
M  ISO  3  39  14  40  14  41  14
M  END
>  <minimizedAffinity>  (1) 
-6.02959728

>  <minimizedRMSD>  (1) 
0.680094361

$$$$
