
     RDKit          3D

 34 36  0  0  0  0  0  0  0  0999 V2000
   39.3490   31.8520   45.7280 C   0  0  0  0  0  0  0  0  0  0  0  0
   40.6270   31.3000   45.5820 C   0  0  0  0  0  0  0  0  0  0  0  0
   40.9090   31.2560   44.2240 C   0  0  0  0  0  0  0  0  0  0  0  0
   39.7750   31.7890   43.6140 C   0  0  0  0  0  0  0  0  0  0  0  0
   38.9030   32.1180   44.5360 O   0  0  0  0  0  0  0  0  0  0  0  0
   37.1640   31.3650   48.5900 C   0  0  0  0  0  0  0  0  0  0  0  0
   37.5280   32.4200   49.4720 C   0  0  0  0  0  0  0  0  0  0  0  0
   38.5340   33.2810   49.0430 C   0  0  0  0  0  0  0  0  0  0  0  0
   39.1040   33.0550   47.8040 N   0  0  0  0  0  0  0  0  0  0  0  0
   38.7210   32.0500   47.0220 C   0  0  0  0  0  0  0  0  0  0  0  0
   37.7430   31.1900   47.4070 N   0  0  0  0  0  0  0  0  0  0  0  0
   36.1130   30.4750   49.0520 C   0  0  0  0  0  0  0  0  0  0  0  0
   34.9110   30.7020   48.7330 O   0  0  0  0  0  0  0  0  0  0  0  0
   36.4510   29.3730   49.8490 O   0  0  0  0  0  0  0  0  0  0  0  0
   36.4960   29.4360   51.2390 C   0  0  0  0  0  0  0  0  0  0  0  0
   37.6730   29.7170   51.9500 N   0  0  0  0  0  0  0  0  0  0  0  0
   35.3880   29.2150   51.7810 O   0  0  0  0  0  0  0  0  0  0  0  0
   39.5850   31.9580   42.1760 C   0  0  0  0  0  0  0  0  0  0  0  0
   40.0750   31.0960   41.2180 C   0  0  0  0  0  0  0  0  0  0  0  0
   39.6550   31.6510   40.0370 C   0  0  0  0  0  0  0  0  0  0  0  0
   38.9470   32.7860   40.2660 N   0  0  0  0  0  0  0  0  0  0  0  0
   38.9170   32.9530   41.5640 N   0  0  0  0  0  0  0  0  0  0  0  0
   38.3450   33.6430   39.2700 C   0  0  0  0  0  0  0  0  0  0  0  0
   37.5820   32.9370   38.3850 F   0  0  0  0  0  0  0  0  0  0  0  0
   39.2790   34.3430   38.5360 F   0  0  0  0  0  0  0  0  0  0  0  0
   37.5000   34.5500   39.8830 F   0  0  0  0  0  0  0  0  0  0  0  0
   41.2869   30.9628   46.3949 H   0  0  0  0  0  0  0  0  0  0  0  0
   41.8229   30.8838   43.7379 H   0  0  0  0  0  0  0  0  0  0  0  0
   37.0372   32.5494   50.4479 H   0  0  0  0  0  0  0  0  0  0  0  0
   38.8666   34.1190   49.6731 H   0  0  0  0  0  0  0  0  0  0  0  0
   37.6568   29.7530   52.9792 H   0  0  0  0  0  0  0  0  0  0  0  0
   38.5530   29.8873   51.4425 H   0  0  0  0  0  0  0  0  0  0  0  0
   40.6641   30.1790   41.3664 H   0  0  0  0  0  0  0  0  0  0  0  0
   39.8632   31.2338   39.0407 H   0  0  0  0  0  0  0  0  0  0  0  0
  1 10  1  0
  2  1  2  0
  3  2  1  0
  4  3  2  0
  4  5  1  0
  5  1  1  0
  6 12  1  0
  6  7  2  0
  8  7  1  0
  9  8  2  0
 10 11  2  0
 10  9  1  0
 11  6  1  0
 12 14  1  0
 13 12  2  0
 14 15  1  0
 15 17  2  0
 15 16  1  0
 18  4  1  0
 19 18  1  0
 20 21  1  0
 20 19  2  0
 21 22  1  0
 22 18  2  0
 23 26  1  0
 23 21  1  0
 24 23  1  0
 25 23  1  0
  2 27  1  0
  3 28  1  0
  7 29  1  0
  8 30  1  0
 16 31  1  0
 16 32  1  0
 19 33  1  0
 20 34  1  0
M  ISO  6  27  14  28  14  29  14  30  14  33  14  34  14
M  END
>  <minimizedAffinity>  (1) 
-5.81339502

>  <minimizedRMSD>  (1) 
0.724579751

$$$$
