
     RDKit          3D

 29 31  0  0  0  0  0  0  0  0999 V2000
   37.5700   29.6280   50.5460 C   0  0  0  0  0  0  0  0  0  0  0  0
   38.2170   30.8810   50.4490 C   0  0  0  0  0  0  0  0  0  0  0  0
   37.8870   31.6830   49.3590 C   0  0  0  0  0  0  0  0  0  0  0  0
   36.9800   31.1830   48.5050 N   0  0  0  0  0  0  0  0  0  0  0  0
   36.3670   30.0000   48.5960 C   0  0  0  0  0  0  0  0  0  0  0  0
   36.6830   29.2370   49.6320 N   0  0  0  0  0  0  0  0  0  0  0  0
   35.4380   29.7770   47.4870 C   0  0  0  0  0  0  0  0  0  0  0  0
   35.7110   30.2180   46.2120 C   0  0  0  0  0  0  0  0  0  0  0  0
   34.8740   30.0380   45.1340 C   0  0  0  0  0  0  0  0  0  0  0  0
   33.6810   29.3830   45.2840 C   0  0  0  0  0  0  0  0  0  0  0  0
   33.3620   28.9220   46.5380 C   0  0  0  0  0  0  0  0  0  0  0  0
   32.1620   28.2660   46.6910 C   0  0  0  0  0  0  0  0  0  0  0  0
   31.7690   27.7750   47.9190 C   0  0  0  0  0  0  0  0  0  0  0  0
   32.6400   27.9750   48.9940 C   0  0  0  0  0  0  0  0  0  0  0  0
   33.8270   28.6390   48.7800 C   0  0  0  0  0  0  0  0  0  0  0  0
   34.2370   29.1340   47.5710 C   0  0  0  0  0  0  0  0  0  0  0  0
   38.5010   33.0260   49.1310 C   0  0  0  0  0  0  0  0  0  0  0  0
   37.5800   34.0480   49.1390 F   0  0  0  0  0  0  0  0  0  0  0  0
   39.4250   33.3140   50.1270 F   0  0  0  0  0  0  0  0  0  0  0  0
   39.0850   33.0510   47.8650 F   0  0  0  0  0  0  0  0  0  0  0  0
   37.8030   28.9638   51.3913 H   0  0  0  0  0  0  0  0  0  0  0  0
   38.9493   31.2085   51.2016 H   0  0  0  0  0  0  0  0  0  0  0  0
   36.6596   30.7488   46.0435 H   0  0  0  0  0  0  0  0  0  0  0  0
   35.1655   30.4229   44.1456 H   0  0  0  0  0  0  0  0  0  0  0  0
   33.0027   29.2315   44.4314 H   0  0  0  0  0  0  0  0  0  0  0  0
   31.5049   28.1308   45.8193 H   0  0  0  0  0  0  0  0  0  0  0  0
   30.8115   27.2488   48.0467 H   0  0  0  0  0  0  0  0  0  0  0  0
   32.3805   27.6068   49.9975 H   0  0  0  0  0  0  0  0  0  0  0  0
   34.4942   28.7822   49.6427 H   0  0  0  0  0  0  0  0  0  0  0  0
  2  1  2  0
  3  2  1  0
  4  5  1  0
  4  3  2  0
  5  6  2  0
  6  1  1  0
  7 16  1  0
  7  5  1  0
  8  7  2  0
  9 10  2  0
  9  8  1  0
 10 11  1  0
 11 12  1  0
 11 16  2  0
 12 13  2  0
 13 14  1  0
 15 14  2  0
 16 15  1  0
 17 18  1  0
 17  3  1  0
 17 19  1  0
 20 17  1  0
  1 21  1  0
  2 22  1  0
  8 23  1  0
  9 24  1  0
 10 25  1  0
 12 26  1  0
 13 27  1  0
 14 28  1  0
 15 29  1  0
M  ISO  8  21  14  22  14  23  14  24  14  25  14  26  14  27  14  28  14
M  ISO  1  29  14
M  END
>  <minimizedAffinity>  (1) 
-6.32423353

>  <minimizedRMSD>  (1) 
2.01892972

$$$$
