
     RDKit          3D

 36 39  0  0  0  0  0  0  0  0999 V2000
   30.0280   27.8040   47.1030 C   0  0  0  0  0  0  0  0  0  0  0  0
   30.8690   28.5220   46.2890 C   0  0  0  0  0  0  0  0  0  0  0  0
   32.1490   28.8580   46.6760 C   0  0  0  0  0  0  0  0  0  0  0  0
   32.5980   28.4650   47.9080 C   0  0  0  0  0  0  0  0  0  0  0  0
   31.7310   27.7460   48.7000 C   0  0  0  0  0  0  0  0  0  0  0  0
   30.4450   27.3910   48.3460 C   0  0  0  0  0  0  0  0  0  0  0  0
   35.6630   29.9870   48.6490 C   0  0  0  0  0  0  0  0  0  0  0  0
   35.7960   28.8690   49.4620 C   0  0  0  0  0  0  0  0  0  0  0  0
   34.6710   28.0950   49.3320 C   0  0  0  0  0  0  0  0  0  0  0  0
   33.8780   28.7240   48.4670 N   0  0  0  0  0  0  0  0  0  0  0  0
   34.4570   29.8330   48.0640 N   0  0  0  0  0  0  0  0  0  0  0  0
   38.0250   32.7260   49.4220 C   0  0  0  0  0  0  0  0  0  0  0  0
   38.7030   32.8340   48.2150 C   0  0  0  0  0  0  0  0  0  0  0  0
   38.3440   31.9860   47.1860 C   0  0  0  0  0  0  0  0  0  0  0  0
   37.3450   31.0810   47.3920 N   0  0  0  0  0  0  0  0  0  0  0  0
   36.7060   31.0010   48.5760 C   0  0  0  0  0  0  0  0  0  0  0  0
   37.0350   31.8180   49.6050 N   0  0  0  0  0  0  0  0  0  0  0  0
   28.3900   27.4090   46.5980 S   0  0  0  0  0  0  0  0  0  0  0  0
   28.4530   26.1760   45.7430 O   0  0  0  0  0  0  0  0  0  0  0  0
   27.5880   27.1520   47.8270 O   0  0  0  0  0  0  0  0  0  0  0  0
   27.6670   28.7450   45.7280 C   0  0  0  0  0  0  0  0  0  0  0  0
   27.3200   28.7880   44.3430 C   0  0  0  0  0  0  0  0  0  0  0  0
   26.6080   30.5370   44.1820 S   0  0  0  0  0  0  0  0  0  0  0  0
   26.9250   30.8460   46.0090 C   0  0  0  0  0  0  0  0  0  0  0  0
   27.3960   29.8540   46.3820 N   0  0  0  0  0  0  0  0  0  0  0  0
   30.5108   28.8387   45.2983 H   0  0  0  0  0  0  0  0  0  0  0  0
   32.8011   29.4345   46.0033 H   0  0  0  0  0  0  0  0  0  0  0  0
   32.0907   27.4304   49.6905 H   0  0  0  0  0  0  0  0  0  0  0  0
   29.7935   26.8128   49.0177 H   0  0  0  0  0  0  0  0  0  0  0  0
   36.6601   28.6418   50.1037 H   0  0  0  0  0  0  0  0  0  0  0  0
   34.4647   27.1424   49.8419 H   0  0  0  0  0  0  0  0  0  0  0  0
   38.2983   33.3948   50.2515 H   0  0  0  0  0  0  0  0  0  0  0  0
   39.5047   33.5753   48.0821 H   0  0  0  0  0  0  0  0  0  0  0  0
   38.8565   32.0398   46.2142 H   0  0  0  0  0  0  0  0  0  0  0  0
   27.4356   28.0110   43.5730 H   0  0  0  0  0  0  0  0  0  0  0  0
   26.7130   31.7561   46.5893 H   0  0  0  0  0  0  0  0  0  0  0  0
  1  6  2  0
  2  3  2  0
  2  1  1  0
  3  4  1  0
  4 10  1  0
  4  5  2  0
  6  5  1  0
  7  8  1  0
  9  8  2  0
 10  9  1  0
 11 10  1  0
 11  7  2  0
 12 17  2  0
 13 12  1  0
 14 15  1  0
 14 13  2  0
 15 16  2  0
 16  7  1  0
 16 17  1  0
 18  1  1  0
 18 20  2  0
 19 18  2  0
 21 25  1  0
 21 18  1  0
 22 21  2  0
 23 22  1  0
 23 24  1  0
 24 25  2  0
  2 26  1  0
  3 27  1  0
  5 28  1  0
  6 29  1  0
  8 30  1  0
  9 31  1  0
 12 32  1  0
 13 33  1  0
 14 34  1  0
 22 35  1  0
 24 36  1  0
M  ISO  8  26  14  27  14  28  14  29  14  30  14  31  14  32  14  33  14
M  ISO  3  34  14  35  14  36  14
M  END
>  <minimizedAffinity>  (1) 
-5.7765522

>  <minimizedRMSD>  (1) 
1.2341423

$$$$
