
     RDKit          3D

 23 24  0  0  0  0  0  0  0  0999 V2000
   37.9160   32.7790   49.7220 C   0  0  0  0  0  0  0  0  0  0  0  0
   38.8270   33.0760   48.6830 C   0  0  0  0  0  0  0  0  0  0  0  0
   38.6930   32.3700   47.4770 C   0  0  0  0  0  0  0  0  0  0  0  0
   37.7070   31.4550   47.3900 N   0  0  0  0  0  0  0  0  0  0  0  0
   36.8550   31.1920   48.3960 C   0  0  0  0  0  0  0  0  0  0  0  0
   36.9540   31.8430   49.5510 N   0  0  0  0  0  0  0  0  0  0  0  0
   35.8070   30.2320   48.3290 N   0  0  0  0  0  0  0  0  0  0  0  0
   34.8140   30.2080   47.4390 C   0  0  0  0  0  0  0  0  0  0  0  0
   33.8830   29.1960   47.5260 C   0  0  0  0  0  0  0  0  0  0  0  0
   34.0080   28.2470   48.5270 C   0  0  0  0  0  0  0  0  0  0  0  0
   33.1530   27.3080   48.6150 O   0  0  0  0  0  0  0  0  0  0  0  0
   35.0150   28.2840   49.4180 N   0  0  0  0  0  0  0  0  0  0  0  0
   35.9160   29.2980   49.3000 C   0  0  0  0  0  0  0  0  0  0  0  0
   36.8350   29.2590   50.1810 O   0  0  0  0  0  0  0  0  0  0  0  0
   39.5960   32.6030   46.3150 C   0  0  0  0  0  0  0  0  0  0  0  0
   38.8760   32.8380   45.1440 F   0  0  0  0  0  0  0  0  0  0  0  0
   40.3600   33.7570   46.5180 F   0  0  0  0  0  0  0  0  0  0  0  0
   40.3880   31.5020   46.1000 F   0  0  0  0  0  0  0  0  0  0  0  0
   37.9899   33.3146   50.6800 H   0  0  0  0  0  0  0  0  0  0  0  0
   39.6134   33.8338   48.8147 H   0  0  0  0  0  0  0  0  0  0  0  0
   34.7401   30.9765   46.6555 H   0  0  0  0  0  0  0  0  0  0  0  0
   33.0505   29.1424   46.8091 H   0  0  0  0  0  0  0  0  0  0  0  0
   35.1010   27.5742   50.1594 H   0  0  0  0  0  0  0  0  0  0  0  0
  2  1  2  0
  3  2  1  0
  4  3  2  0
  4  5  1  0
  5  6  2  0
  6  1  1  0
  7  5  1  0
  7 13  1  0
  8  9  2  0
  8  7  1  0
  9 10  1  0
 10 11  2  0
 10 12  1  0
 13 12  1  0
 13 14  2  0
 15 17  1  0
 15  3  1  0
 16 15  1  0
 18 15  1  0
  1 19  1  0
  2 20  1  0
  8 21  1  0
  9 22  1  0
 12 23  1  0
M  ISO  5  19  14  20  14  21  14  22  14  23   9
M  END
>  <minimizedAffinity>  (1) 
-6.28495741

>  <minimizedRMSD>  (1) 
2.24306107

$$$$
