
     RDKit          3D

 23 24  0  0  0  0  0  0  0  0999 V2000
   37.3930   29.4770   51.0420 C   0  0  0  0  0  0  0  0  0  0  0  0
   37.9640   30.7520   50.7880 C   0  0  0  0  0  0  0  0  0  0  0  0
   37.4870   31.4680   49.6840 C   0  0  0  0  0  0  0  0  0  0  0  0
   36.5100   30.9020   48.9260 N   0  0  0  0  0  0  0  0  0  0  0  0
   35.9950   29.6850   49.2060 C   0  0  0  0  0  0  0  0  0  0  0  0
   36.4290   28.9800   50.2490 N   0  0  0  0  0  0  0  0  0  0  0  0
   34.9480   29.1210   48.3630 C   0  0  0  0  0  0  0  0  0  0  0  0
   34.4990   29.7360   47.2140 C   0  0  0  0  0  0  0  0  0  0  0  0
   33.5070   29.1970   46.4190 C   0  0  0  0  0  0  0  0  0  0  0  0
   32.9240   27.9940   46.7640 C   0  0  0  0  0  0  0  0  0  0  0  0
   33.3430   27.3280   47.9210 C   0  0  0  0  0  0  0  0  0  0  0  0
   34.3390   27.9230   48.6710 C   0  0  0  0  0  0  0  0  0  0  0  0
   38.0120   32.8060   49.3280 C   0  0  0  0  0  0  0  0  0  0  0  0
   38.2080   32.9680   47.9680 F   0  0  0  0  0  0  0  0  0  0  0  0
   37.1260   33.8140   49.7100 F   0  0  0  0  0  0  0  0  0  0  0  0
   39.2550   32.9910   49.9230 F   0  0  0  0  0  0  0  0  0  0  0  0
   37.7453   28.8872   51.9011 H   0  0  0  0  0  0  0  0  0  0  0  0
   38.7529   31.1623   51.4356 H   0  0  0  0  0  0  0  0  0  0  0  0
   34.9492   30.6951   46.9184 H   0  0  0  0  0  0  0  0  0  0  0  0
   33.1814   29.7259   45.5111 H   0  0  0  0  0  0  0  0  0  0  0  0
   32.1341   27.5613   46.1325 H   0  0  0  0  0  0  0  0  0  0  0  0
   32.8969   26.3685   48.2216 H   0  0  0  0  0  0  0  0  0  0  0  0
   34.6708   27.4024   49.5814 H   0  0  0  0  0  0  0  0  0  0  0  0
  2  1  2  0
  3  2  1  0
  4  5  1  0
  4  3  2  0
  5  6  2  0
  6  1  1  0
  7 12  1  0
  7  5  1  0
  8  7  2  0
  9 10  2  0
  9  8  1  0
 10 11  1  0
 11 12  2  0
 13  3  1  0
 13 15  1  0
 13 16  1  0
 14 13  1  0
  1 17  1  0
  2 18  1  0
  8 19  1  0
  9 20  1  0
 10 21  1  0
 11 22  1  0
 12 23  1  0
M  ISO  7  17  14  18  14  19  14  20  14  21  14  22  14  23  14
M  END
>  <minimizedAffinity>  (1) 
-5.67211914

>  <minimizedRMSD>  (1) 
1.9046706

$$$$
