
     RDKit          3D

 20 20  0  0  0  0  0  0  0  0999 V2000
   37.5570   30.4690   50.9720 C   0  0  0  0  0  0  0  0  0  0  0  0
   38.3040   31.2200   50.0170 C   0  0  0  0  0  0  0  0  0  0  0  0
   37.9340   31.0560   48.6690 C   0  0  0  0  0  0  0  0  0  0  0  0
   36.9110   30.2150   48.3520 N   0  0  0  0  0  0  0  0  0  0  0  0
   36.2440   29.5350   49.3060 C   0  0  0  0  0  0  0  0  0  0  0  0
   36.5560   29.6540   50.5960 N   0  0  0  0  0  0  0  0  0  0  0  0
   35.1830   28.6700   48.9110 N   0  0  0  0  0  0  0  0  0  0  0  0
   33.8580   28.8800   49.3850 C   0  0  0  0  0  0  0  0  0  0  0  0
   33.6350   29.5780   50.4270 N   0  0  0  0  0  0  0  0  0  0  0  0
   32.7890   28.2780   48.6510 N   0  0  0  0  0  0  0  0  0  0  0  0
   32.6820   29.7660   50.8210 H   0  0  0  0  0  0  0  0  0  0  0  0
   38.6440   31.7910   47.5820 C   0  0  0  0  0  0  0  0  0  0  0  0
   37.7630   32.2980   46.6300 F   0  0  0  0  0  0  0  0  0  0  0  0
   39.3030   32.9170   48.0870 F   0  0  0  0  0  0  0  0  0  0  0  0
   39.4990   30.9410   46.9220 F   0  0  0  0  0  0  0  0  0  0  0  0
   37.8053   30.5586   52.0399 H   0  0  0  0  0  0  0  0  0  0  0  0
   39.1233   31.8898   50.3171 H   0  0  0  0  0  0  0  0  0  0  0  0
   35.3774   27.8835   48.2749 H   0  0  0  0  0  0  0  0  0  0  0  0
   31.8152   28.4060   48.9612 H   0  0  0  0  0  0  0  0  0  0  0  0
   32.9926   27.7163   47.8120 H   0  0  0  0  0  0  0  0  0  0  0  0
  2  1  2  0
  3  2  1  0
  4  3  2  0
  4  5  1  0
  5  6  2  0
  6  1  1  0
  7  5  1  0
  7  8  1  0
  8  9  2  0
  9 11  1  0
 10  8  1  0
 12 14  1  0
 12  3  1  0
 13 12  1  0
 15 12  1  0
  1 16  1  0
  2 17  1  0
  7 18  1  0
 10 19  1  0
 10 20  1  0
M  ISO  2  16  14  17  14
M  END
>  <minimizedAffinity>  (1) 
-5.4801259

>  <minimizedRMSD>  (1) 
0.464555651

$$$$
