
     RDKit          3D

 37 40  0  0  0  0  0  0  0  0999 V2000
   29.9570   27.8080   47.0830 C   0  0  0  0  0  0  0  0  0  0  0  0
   30.8160   28.4900   46.2820 C   0  0  0  0  0  0  0  0  0  0  0  0
   32.0980   28.8200   46.6660 C   0  0  0  0  0  0  0  0  0  0  0  0
   32.5350   28.4490   47.9090 C   0  0  0  0  0  0  0  0  0  0  0  0
   31.6530   27.7580   48.7090 C   0  0  0  0  0  0  0  0  0  0  0  0
   30.3740   27.4220   48.3380 C   0  0  0  0  0  0  0  0  0  0  0  0
   35.6070   29.9550   48.6570 C   0  0  0  0  0  0  0  0  0  0  0  0
   35.7360   28.8340   49.4730 C   0  0  0  0  0  0  0  0  0  0  0  0
   34.6080   28.0640   49.3420 C   0  0  0  0  0  0  0  0  0  0  0  0
   33.8200   28.7040   48.4690 N   0  0  0  0  0  0  0  0  0  0  0  0
   34.4030   29.8010   48.0740 N   0  0  0  0  0  0  0  0  0  0  0  0
   37.9500   32.7140   49.4030 C   0  0  0  0  0  0  0  0  0  0  0  0
   38.6760   32.7600   48.2130 C   0  0  0  0  0  0  0  0  0  0  0  0
   38.3540   31.8640   47.1970 C   0  0  0  0  0  0  0  0  0  0  0  0
   37.3410   30.9790   47.4170 N   0  0  0  0  0  0  0  0  0  0  0  0
   36.6570   30.9620   48.5870 C   0  0  0  0  0  0  0  0  0  0  0  0
   36.9480   31.8220   49.5930 N   0  0  0  0  0  0  0  0  0  0  0  0
   28.3270   27.4030   46.6070 S   0  0  0  0  0  0  0  0  0  0  0  0
   28.3640   26.2210   45.6810 O   0  0  0  0  0  0  0  0  0  0  0  0
   27.5550   27.0820   47.8380 O   0  0  0  0  0  0  0  0  0  0  0  0
   27.5920   28.7770   45.8140 C   0  0  0  0  0  0  0  0  0  0  0  0
   27.0430   29.0060   44.5690 C   0  0  0  0  0  0  0  0  0  0  0  0
   26.6070   30.3220   44.5100 C   0  0  0  0  0  0  0  0  0  0  0  0
   26.9050   30.8510   45.7180 N   0  0  0  0  0  0  0  0  0  0  0  0
   27.4800   29.9480   46.4770 N   0  0  0  0  0  0  0  0  0  0  0  0
   30.4731   28.7927   45.2816 H   0  0  0  0  0  0  0  0  0  0  0  0
   32.7601   29.3733   45.9837 H   0  0  0  0  0  0  0  0  0  0  0  0
   31.9947   27.4555   49.7099 H   0  0  0  0  0  0  0  0  0  0  0  0
   29.7091   26.8668   49.0160 H   0  0  0  0  0  0  0  0  0  0  0  0
   36.5987   28.6041   50.1156 H   0  0  0  0  0  0  0  0  0  0  0  0
   34.3942   27.1128   49.8514 H   0  0  0  0  0  0  0  0  0  0  0  0
   38.1975   33.4207   50.2088 H   0  0  0  0  0  0  0  0  0  0  0  0
   39.4877   33.4904   48.0796 H   0  0  0  0  0  0  0  0  0  0  0  0
   38.9020   31.8702   46.2432 H   0  0  0  0  0  0  0  0  0  0  0  0
   26.9640   28.2675   43.7575 H   0  0  0  0  0  0  0  0  0  0  0  0
   26.1223   30.8271   43.6615 H   0  0  0  0  0  0  0  0  0  0  0  0
   26.7092   31.8217   46.0014 H   0  0  0  0  0  0  0  0  0  0  0  0
  1  6  2  0
  2  3  2  0
  2  1  1  0
  3  4  1  0
  4 10  1  0
  4  5  2  0
  6  5  1  0
  7  8  1  0
  9  8  2  0
 10  9  1  0
 11 10  1  0
 11  7  2  0
 12 17  2  0
 13 12  1  0
 14 15  1  0
 14 13  2  0
 15 16  2  0
 16  7  1  0
 16 17  1  0
 18  1  1  0
 18 20  2  0
 19 18  2  0
 21 25  2  0
 21 18  1  0
 22 21  1  0
 23 22  2  0
 23 24  1  0
 24 25  1  0
  2 26  1  0
  3 27  1  0
  5 28  1  0
  6 29  1  0
  8 30  1  0
  9 31  1  0
 12 32  1  0
 13 33  1  0
 14 34  1  0
 22 35  1  0
 23 36  1  0
 24 37  1  0
M  ISO  8  26  14  27  14  28  14  29  14  30  14  31  14  32  14  33  14
M  ISO  4  34  14  35  14  36  14  37   9
M  END
>  <minimizedAffinity>  (1) 
-5.76802778

>  <minimizedRMSD>  (1) 
1.2424587

$$$$
