
     RDKit          3D

 20 21  0  0  0  0  0  0  0  0999 V2000
   37.6280   30.6870   50.7510 C   0  0  0  0  0  0  0  0  0  0  0  0
   38.4240   31.4570   49.8680 C   0  0  0  0  0  0  0  0  0  0  0  0
   38.0690   31.4100   48.4970 C   0  0  0  0  0  0  0  0  0  0  0  0
   37.0140   30.6500   48.1160 N   0  0  0  0  0  0  0  0  0  0  0  0
   36.2950   29.9380   49.0080 C   0  0  0  0  0  0  0  0  0  0  0  0
   36.5950   29.9560   50.3040 N   0  0  0  0  0  0  0  0  0  0  0  0
   35.1660   29.1370   48.5290 C   0  0  0  0  0  0  0  0  0  0  0  0
   34.5630   28.1300   49.2810 C   0  0  0  0  0  0  0  0  0  0  0  0
   33.5640   27.6540   48.4540 C   0  0  0  0  0  0  0  0  0  0  0  0
   33.5990   28.3740   47.2570 C   0  0  0  0  0  0  0  0  0  0  0  0
   34.5720   29.2400   47.3640 O   0  0  0  0  0  0  0  0  0  0  0  0
   38.8440   32.1860   47.4790 C   0  0  0  0  0  0  0  0  0  0  0  0
   38.0360   32.6160   46.4280 F   0  0  0  0  0  0  0  0  0  0  0  0
   39.3920   33.3310   48.0240 F   0  0  0  0  0  0  0  0  0  0  0  0
   39.8120   31.3750   46.9240 F   0  0  0  0  0  0  0  0  0  0  0  0
   37.8614   30.6882   51.8259 H   0  0  0  0  0  0  0  0  0  0  0  0
   39.2718   32.0589   50.2271 H   0  0  0  0  0  0  0  0  0  0  0  0
   34.8220   27.7932   50.2956 H   0  0  0  0  0  0  0  0  0  0  0  0
   32.8598   26.8447   48.6969 H   0  0  0  0  0  0  0  0  0  0  0  0
   32.9349   28.2380   46.3907 H   0  0  0  0  0  0  0  0  0  0  0  0
  2  1  2  0
  3  2  1  0
  4  3  2  0
  4  5  1  0
  5  6  2  0
  6  1  1  0
  7  5  1  0
  7  8  2  0
  9  8  1  0
 10 11  1  0
 10  9  2  0
 11  7  1  0
 12 14  1  0
 12  3  1  0
 13 12  1  0
 15 12  1  0
  1 16  1  0
  2 17  1  0
  8 18  1  0
  9 19  1  0
 10 20  1  0
M  ISO  5  16  14  17  14  18  14  19  14  20  14
M  END
>  <minimizedAffinity>  (1) 
-5.23575735

>  <minimizedRMSD>  (1) 
1.01047742

$$$$
