
     RDKit          3D

 20 21  0  0  0  0  0  0  0  0999 V2000
   37.5420   30.4920   50.9700 C   0  0  0  0  0  0  0  0  0  0  0  0
   38.3510   31.2320   50.0830 C   0  0  0  0  0  0  0  0  0  0  0  0
   37.9130   31.3610   48.7430 C   0  0  0  0  0  0  0  0  0  0  0  0
   36.7490   30.7670   48.3970 N   0  0  0  0  0  0  0  0  0  0  0  0
   36.0020   30.0630   49.2890 C   0  0  0  0  0  0  0  0  0  0  0  0
   36.3920   29.9280   50.5530 N   0  0  0  0  0  0  0  0  0  0  0  0
   34.7870   29.5140   48.6860 C   0  0  0  0  0  0  0  0  0  0  0  0
   34.1440   28.3250   48.9800 C   0  0  0  0  0  0  0  0  0  0  0  0
   33.0210   28.2210   48.1490 C   0  0  0  0  0  0  0  0  0  0  0  0
   33.0110   29.3300   47.3860 N   0  0  0  0  0  0  0  0  0  0  0  0
   34.0420   30.0710   47.7080 N   0  0  0  0  0  0  0  0  0  0  0  0
   38.7010   32.1250   47.7290 C   0  0  0  0  0  0  0  0  0  0  0  0
   37.9070   32.5830   46.7020 F   0  0  0  0  0  0  0  0  0  0  0  0
   39.2880   33.2390   48.2930 F   0  0  0  0  0  0  0  0  0  0  0  0
   39.6420   31.2660   47.1670 F   0  0  0  0  0  0  0  0  0  0  0  0
   37.8547   30.3736   52.0179 H   0  0  0  0  0  0  0  0  0  0  0  0
   39.2906   31.6934   50.4209 H   0  0  0  0  0  0  0  0  0  0  0  0
   34.4595   27.5895   49.7347 H   0  0  0  0  0  0  0  0  0  0  0  0
   32.2925   27.3972   48.1248 H   0  0  0  0  0  0  0  0  0  0  0  0
   32.3088   29.5581   46.6678 H   0  0  0  0  0  0  0  0  0  0  0  0
  2  1  2  0
  3  2  1  0
  4  3  2  0
  4  5  1  0
  5  6  2  0
  6  1  1  0
  7  8  1  0
  7  5  1  0
  9  8  2  0
 10 11  1  0
 10  9  1  0
 11  7  2  0
 12 14  1  0
 12  3  1  0
 13 12  1  0
 15 12  1  0
  1 16  1  0
  2 17  1  0
  8 18  1  0
  9 19  1  0
 10 20  1  0
M  ISO  5  16  14  17  14  18  14  19  14  20   9
M  END
>  <minimizedAffinity>  (1) 
-5.22993183

>  <minimizedRMSD>  (1) 
1.16082025

$$$$
