
     RDKit          3D

 22 22  0  0  0  0  0  0  0  0999 V2000
   37.4850   30.4510   51.0190 C   0  0  0  0  0  0  0  0  0  0  0  0
   38.3310   31.1730   50.1310 C   0  0  0  0  0  0  0  0  0  0  0  0
   37.8540   31.3760   48.8200 C   0  0  0  0  0  0  0  0  0  0  0  0
   36.6420   30.8770   48.5010 N   0  0  0  0  0  0  0  0  0  0  0  0
   35.8700   30.1990   49.3660 C   0  0  0  0  0  0  0  0  0  0  0  0
   36.2960   29.9870   50.6290 N   0  0  0  0  0  0  0  0  0  0  0  0
   38.6590   32.1200   47.8100 C   0  0  0  0  0  0  0  0  0  0  0  0
   37.8650   32.5870   46.7600 F   0  0  0  0  0  0  0  0  0  0  0  0
   39.2330   33.2580   48.3620 F   0  0  0  0  0  0  0  0  0  0  0  0
   39.5980   31.2810   47.2560 F   0  0  0  0  0  0  0  0  0  0  0  0
   34.5520   29.7050   48.8730 C   0  0  0  0  0  0  0  0  0  0  0  0
   34.2720   30.1180   47.4460 C   0  0  0  0  0  0  0  0  0  0  0  0
   34.5420   28.1780   49.0220 C   0  0  0  0  0  0  0  0  0  0  0  0
   37.8191   30.2711   52.0515 H   0  0  0  0  0  0  0  0  0  0  0  0
   39.3112   31.5548   50.4526 H   0  0  0  0  0  0  0  0  0  0  0  0
   33.7488   30.1586   49.4722 H   0  0  0  0  0  0  0  0  0  0  0  0
   33.6547   31.0285   47.4422 H   0  0  0  0  0  0  0  0  0  0  0  0
   35.2222   30.3170   46.9287 H   0  0  0  0  0  0  0  0  0  0  0  0
   33.7354   29.3090   46.9287 H   0  0  0  0  0  0  0  0  0  0  0  0
   34.5403   27.9138   50.0898 H   0  0  0  0  0  0  0  0  0  0  0  0
   33.6412   27.7686   48.5415 H   0  0  0  0  0  0  0  0  0  0  0  0
   35.4374   27.7568   48.5415 H   0  0  0  0  0  0  0  0  0  0  0  0
  2  1  2  0
  3  2  1  0
  4  3  2  0
  4  5  1  0
  5  6  2  0
  6  1  1  0
  7  9  1  0
  7  3  1  0
  8  7  1  0
 10  7  1  0
 11 13  1  0
 11  5  1  0
 12 11  1  0
  1 14  1  0
  2 15  1  0
 11 16  1  0
 12 17  1  0
 12 18  1  0
 12 19  1  0
 13 20  1  0
 13 21  1  0
 13 22  1  0
M  ISO  8  14  14  15  14  16   8  17   8  18   8  19   8  20   8  21   8
M  ISO  1  22   8
M  END
>  <minimizedAffinity>  (1) 
-4.92882061

>  <minimizedRMSD>  (1) 
1.03976524

$$$$
