
     RDKit          3D

 37 40  0  0  0  0  0  0  0  0999 V2000
   29.9010   27.7340   47.2550 C   0  0  0  0  0  0  0  0  0  0  0  0
   30.7380   28.3990   46.4200 C   0  0  0  0  0  0  0  0  0  0  0  0
   32.0290   28.7360   46.7760 C   0  0  0  0  0  0  0  0  0  0  0  0
   32.5000   28.3950   48.0160 C   0  0  0  0  0  0  0  0  0  0  0  0
   31.6380   27.7220   48.8500 C   0  0  0  0  0  0  0  0  0  0  0  0
   30.3530   27.3820   48.5060 C   0  0  0  0  0  0  0  0  0  0  0  0
   35.5720   29.9450   48.6510 C   0  0  0  0  0  0  0  0  0  0  0  0
   35.7470   28.8080   49.4570 C   0  0  0  0  0  0  0  0  0  0  0  0
   34.6220   28.0290   49.3580 C   0  0  0  0  0  0  0  0  0  0  0  0
   33.7960   28.6730   48.5190 N   0  0  0  0  0  0  0  0  0  0  0  0
   34.3480   29.7840   48.1100 N   0  0  0  0  0  0  0  0  0  0  0  0
   37.9180   32.7180   49.3530 C   0  0  0  0  0  0  0  0  0  0  0  0
   38.5940   32.7810   48.1240 C   0  0  0  0  0  0  0  0  0  0  0  0
   38.2460   31.8970   47.1040 C   0  0  0  0  0  0  0  0  0  0  0  0
   37.2510   31.0090   47.3660 N   0  0  0  0  0  0  0  0  0  0  0  0
   36.6070   30.9600   48.5560 C   0  0  0  0  0  0  0  0  0  0  0  0
   36.9270   31.8030   49.5570 N   0  0  0  0  0  0  0  0  0  0  0  0
   28.2580   27.3160   46.8330 S   0  0  0  0  0  0  0  0  0  0  0  0
   27.5300   26.8760   48.0740 O   0  0  0  0  0  0  0  0  0  0  0  0
   27.6110   28.5210   46.2470 O   0  0  0  0  0  0  0  0  0  0  0  0
   28.2130   26.0230   45.6770 C   0  0  0  0  0  0  0  0  0  0  0  0
   28.7670   24.7550   45.8100 C   0  0  0  0  0  0  0  0  0  0  0  0
   28.5190   24.0110   44.6730 C   0  0  0  0  0  0  0  0  0  0  0  0
   27.7980   24.9020   43.8730 C   0  0  0  0  0  0  0  0  0  0  0  0
   27.6550   26.0360   44.5020 O   0  0  0  0  0  0  0  0  0  0  0  0
   30.3744   28.6807   45.4208 H   0  0  0  0  0  0  0  0  0  0  0  0
   32.6753   29.2752   46.0678 H   0  0  0  0  0  0  0  0  0  0  0  0
   31.9988   27.4399   49.8501 H   0  0  0  0  0  0  0  0  0  0  0  0
   29.7029   26.8431   49.2110 H   0  0  0  0  0  0  0  0  0  0  0  0
   36.6354   28.5807   50.0645 H   0  0  0  0  0  0  0  0  0  0  0  0
   34.4349   27.0704   49.8640 H   0  0  0  0  0  0  0  0  0  0  0  0
   38.1904   33.4140   50.1601 H   0  0  0  0  0  0  0  0  0  0  0  0
   39.3918   33.5220   47.9674 H   0  0  0  0  0  0  0  0  0  0  0  0
   38.7548   31.9172   46.1290 H   0  0  0  0  0  0  0  0  0  0  0  0
   29.3209   24.3971   46.6904 H   0  0  0  0  0  0  0  0  0  0  0  0
   28.8152   22.9749   44.4520 H   0  0  0  0  0  0  0  0  0  0  0  0
   27.4106   24.6810   42.8675 H   0  0  0  0  0  0  0  0  0  0  0  0
  1  6  2  0
  2  3  2  0
  2  1  1  0
  3  4  1  0
  4 10  1  0
  4  5  2  0
  6  5  1  0
  7  8  1  0
  9  8  2  0
 10  9  1  0
 11 10  1  0
 11  7  2  0
 12 17  2  0
 13 12  1  0
 14 15  1  0
 14 13  2  0
 15 16  2  0
 16  7  1  0
 16 17  1  0
 18  1  1  0
 18 19  2  0
 20 18  2  0
 21 22  2  0
 21 18  1  0
 23 22  1  0
 24 25  1  0
 24 23  2  0
 25 21  1  0
  2 26  1  0
  3 27  1  0
  5 28  1  0
  6 29  1  0
  8 30  1  0
  9 31  1  0
 12 32  1  0
 13 33  1  0
 14 34  1  0
 22 35  1  0
 23 36  1  0
 24 37  1  0
M  ISO  8  26  14  27  14  28  14  29  14  30  14  31  14  32  14  33  14
M  ISO  4  34  14  35  14  36  14  37  14
M  END
>  <minimizedAffinity>  (1) 
-5.73988914

>  <minimizedRMSD>  (1) 
1.533409

$$$$
