
     RDKit          3D

 36 38  0  0  0  0  0  0  0  0999 V2000
   32.8780   28.2480   47.9230 C   0  0  0  0  0  0  0  0  0  0  0  0
   33.4870   29.0070   46.9290 C   0  0  0  0  0  0  0  0  0  0  0  0
   34.6130   29.7230   47.2740 C   0  0  0  0  0  0  0  0  0  0  0  0
   35.1860   29.7520   48.5180 C   0  0  0  0  0  0  0  0  0  0  0  0
   34.5260   28.9730   49.4620 C   0  0  0  0  0  0  0  0  0  0  0  0
   33.3950   28.2270   49.1940 C   0  0  0  0  0  0  0  0  0  0  0  0
   37.8140   31.3360   50.4660 C   0  0  0  0  0  0  0  0  0  0  0  0
   38.6380   31.9160   49.4640 C   0  0  0  0  0  0  0  0  0  0  0  0
   38.2540   31.7420   48.1150 C   0  0  0  0  0  0  0  0  0  0  0  0
   37.1220   31.0330   47.8440 N   0  0  0  0  0  0  0  0  0  0  0  0
   36.3670   30.4980   48.8450 C   0  0  0  0  0  0  0  0  0  0  0  0
   36.7110   30.6500   50.1300 N   0  0  0  0  0  0  0  0  0  0  0  0
   39.0450   32.3050   46.9950 C   0  0  0  0  0  0  0  0  0  0  0  0
   38.2730   32.6680   45.9240 F   0  0  0  0  0  0  0  0  0  0  0  0
   39.7110   33.4650   47.3990 F   0  0  0  0  0  0  0  0  0  0  0  0
   39.9440   31.3550   46.5270 F   0  0  0  0  0  0  0  0  0  0  0  0
   31.4240   27.3340   47.6110 S   0  0  0  0  0  0  0  0  0  0  0  0
   30.5210   28.0750   46.7380 O   0  0  0  0  0  0  0  0  0  0  0  0
   30.7510   27.0710   48.9650 O   0  0  0  0  0  0  0  0  0  0  0  0
   31.9070   25.7480   47.0350 C   0  0  0  0  0  0  0  0  0  0  0  0
   33.2140   25.4150   47.3520 C   0  0  0  0  0  0  0  0  0  0  0  0
   33.6620   24.1620   46.9220 C   0  0  0  0  0  0  0  0  0  0  0  0
   32.8670   23.2810   46.2160 C   0  0  0  0  0  0  0  0  0  0  0  0
   31.5640   23.6730   45.9280 C   0  0  0  0  0  0  0  0  0  0  0  0
   31.0720   24.9060   46.3330 C   0  0  0  0  0  0  0  0  0  0  0  0
   33.0848   29.0347   45.9055 H   0  0  0  0  0  0  0  0  0  0  0  0
   35.0915   30.3211   46.4845 H   0  0  0  0  0  0  0  0  0  0  0  0
   34.9295   28.9495   50.4851 H   0  0  0  0  0  0  0  0  0  0  0  0
   32.9181   27.6279   49.9837 H   0  0  0  0  0  0  0  0  0  0  0  0
   38.0829   31.4505   51.5265 H   0  0  0  0  0  0  0  0  0  0  0  0
   39.5437   32.4811   49.7292 H   0  0  0  0  0  0  0  0  0  0  0  0
   33.8657   26.1009   47.9130 H   0  0  0  0  0  0  0  0  0  0  0  0
   34.6947   23.8647   47.1569 H   0  0  0  0  0  0  0  0  0  0  0  0
   33.2512   22.3024   45.8924 H   0  0  0  0  0  0  0  0  0  0  0  0
   30.9088   22.9906   45.3667 H   0  0  0  0  0  0  0  0  0  0  0  0
   30.0394   25.2042   46.0990 H   0  0  0  0  0  0  0  0  0  0  0  0
  1  6  2  0
  2  3  2  0
  2  1  1  0
  3  4  1  0
  4 11  1  0
  4  5  2  0
  6  5  1  0
  8  7  2  0
  9  8  1  0
 10  9  2  0
 10 11  1  0
 11 12  2  0
 12  7  1  0
 13 15  1  0
 13  9  1  0
 14 13  1  0
 16 13  1  0
 17  1  1  0
 17 19  2  0
 18 17  2  0
 20 21  2  0
 20 17  1  0
 22 21  1  0
 23 22  2  0
 24 23  1  0
 24 25  2  0
 25 20  1  0
  2 26  1  0
  3 27  1  0
  5 28  1  0
  6 29  1  0
  7 30  1  0
  8 31  1  0
 21 32  1  0
 22 33  1  0
 23 34  1  0
 24 35  1  0
 25 36  1  0
M  ISO  8  26  14  27  14  28  14  29  14  30  14  31  14  32  14  33  14
M  ISO  3  34  14  35  14  36  14
M  END
>  <minimizedAffinity>  (1) 
-6.01554298

>  <minimizedRMSD>  (1) 
1.6098063

$$$$
