
     RDKit          3D

 26 27  0  0  0  0  0  0  0  0999 V2000
   38.3190   32.2400   47.8860 C   0  0  0  0  0  0  0  0  0  0  0  0
   38.2930   33.0140   49.0530 C   0  0  0  0  0  0  0  0  0  0  0  0
   39.2230   34.0710   49.1700 C   0  0  0  0  0  0  0  0  0  0  0  0
   40.0860   34.2640   48.1260 N   0  0  0  0  0  0  0  0  0  0  0  0
   40.0710   33.4970   47.0330 C   0  0  0  0  0  0  0  0  0  0  0  0
   39.2010   32.4960   46.9070 N   0  0  0  0  0  0  0  0  0  0  0  0
   37.3500   31.1740   47.8150 C   0  0  0  0  0  0  0  0  0  0  0  0
   36.6880   30.8460   46.7890 O   0  0  0  0  0  0  0  0  0  0  0  0
   36.9560   30.3020   48.8670 N   0  0  0  0  0  0  0  0  0  0  0  0
   37.8920   30.3580   49.9790 C   0  0  0  0  0  0  0  0  0  0  0  0
   37.5250   29.1720   50.8690 C   0  0  0  0  0  0  0  0  0  0  0  0
   36.1890   29.4600   51.3770 N   0  0  0  0  0  0  0  0  0  0  0  0
   35.1960   29.3940   50.3230 C   0  0  0  0  0  0  0  0  0  0  0  0
   35.8020   29.4170   48.9550 C   0  0  0  0  0  0  0  0  0  0  0  0
   37.5697   32.8050   49.8549 H   0  0  0  0  0  0  0  0  0  0  0  0
   39.2521   34.7122   50.0633 H   0  0  0  0  0  0  0  0  0  0  0  0
   40.7888   33.6950   46.2233 H   0  0  0  0  0  0  0  0  0  0  0  0
   38.9267   30.2640   49.6178 H   0  0  0  0  0  0  0  0  0  0  0  0
   37.8316   31.3136   50.5205 H   0  0  0  0  0  0  0  0  0  0  0  0
   37.5206   28.2403   50.2843 H   0  0  0  0  0  0  0  0  0  0  0  0
   38.2498   29.0367   51.6853 H   0  0  0  0  0  0  0  0  0  0  0  0
   35.9515   28.7708   52.1046 H   0  0  0  0  0  0  0  0  0  0  0  0
   34.6224   28.4624   50.4380 H   0  0  0  0  0  0  0  0  0  0  0  0
   34.5536   30.2820   50.4163 H   0  0  0  0  0  0  0  0  0  0  0  0
   35.0407   29.7588   48.2384 H   0  0  0  0  0  0  0  0  0  0  0  0
   36.1464   28.3976   48.7266 H   0  0  0  0  0  0  0  0  0  0  0  0
  1  2  2  0
  2  3  1  0
  4  3  2  0
  5  4  1  0
  6  5  2  0
  6  1  1  0
  7  1  1  0
  7  9  1  0
  8  7  2  0
  9 14  1  0
  9 10  1  0
 10 11  1  0
 11 12  1  0
 13 12  1  0
 14 13  1  0
  2 15  1  0
  3 16  1  0
  5 17  1  0
 10 18  1  0
 10 19  1  0
 11 20  1  0
 11 21  1  0
 12 22  1  0
 13 23  1  0
 13 24  1  0
 14 25  1  0
 14 26  1  0
M  ISO  8  15  14  16  14  17  14  18  13  19  13  20  13  21  13  22   5
M  ISO  4  23  13  24  13  25  13  26  13
M  END
>  <minimizedAffinity>  (1) 
-4.72610235

>  <minimizedRMSD>  (1) 
3.53353262

$$$$
