
     RDKit          3D

 19 20  0  0  0  0  0  0  0  0999 V2000
   38.3480   32.9530   48.6150 C   0  0  0  0  0  0  0  0  0  0  0  0
   39.2350   33.9750   48.9320 C   0  0  0  0  0  0  0  0  0  0  0  0
   40.2180   34.3100   47.9640 C   0  0  0  0  0  0  0  0  0  0  0  0
   40.2370   33.6190   46.7910 N   0  0  0  0  0  0  0  0  0  0  0  0
   39.3540   32.6390   46.5380 C   0  0  0  0  0  0  0  0  0  0  0  0
   38.4190   32.3020   47.4260 N   0  0  0  0  0  0  0  0  0  0  0  0
   37.3490   32.6140   49.6050 C   0  0  0  0  0  0  0  0  0  0  0  0
   36.7550   33.4540   50.3270 O   0  0  0  0  0  0  0  0  0  0  0  0
   36.9790   31.1960   49.8040 C   0  0  0  0  0  0  0  0  0  0  0  0
   37.5770   30.2550   50.5210 C   0  0  0  0  0  0  0  0  0  0  0  0
   37.0390   29.0000   50.5500 C   0  0  0  0  0  0  0  0  0  0  0  0
   35.8800   28.7960   49.8100 C   0  0  0  0  0  0  0  0  0  0  0  0
   35.5790   30.4380   49.0750 S   0  0  0  0  0  0  0  0  0  0  0  0
   39.1776   34.5035   49.8950 H   0  0  0  0  0  0  0  0  0  0  0  0
   40.9479   35.1099   48.1573 H   0  0  0  0  0  0  0  0  0  0  0  0
   39.4036   32.1036   45.5783 H   0  0  0  0  0  0  0  0  0  0  0  0
   38.4939   30.4818   51.0848 H   0  0  0  0  0  0  0  0  0  0  0  0
   37.5011   28.1887   51.1316 H   0  0  0  0  0  0  0  0  0  0  0  0
   35.2911   27.8739   49.6961 H   0  0  0  0  0  0  0  0  0  0  0  0
  1  2  2  0
  1  7  1  0
  3  2  1  0
  4  3  2  0
  5  4  1  0
  5  6  2  0
  6  1  1  0
  7  9  1  0
  7  8  2  0
  9 10  2  0
 10 11  1  0
 12 11  2  0
 13  9  1  0
 13 12  1  0
  2 14  1  0
  3 15  1  0
  5 16  1  0
 10 17  1  0
 11 18  1  0
 12 19  1  0
M  ISO  6  14  14  15  14  16  14  17  14  18  14  19  14
M  END
>  <minimizedAffinity>  (1) 
-4.16019487

>  <minimizedRMSD>  (1) 
3.03842235

$$$$
