
     RDKit          3D

 36 39  0  0  1  0  0  0  0  0999 V2000
   38.6190   32.2410   48.0110 C   0  0  1  0  0  0  0  0  0  0  0  0
   37.9520   31.2860   48.8920 C   0  0  0  0  0  0  0  0  0  0  0  0
   38.4390   31.0990   50.1210 N   0  0  0  0  0  0  0  0  0  0  0  0
   37.8950   30.2230   51.0010 C   0  0  0  0  0  0  0  0  0  0  0  0
   36.8280   29.4810   50.7080 N   0  0  0  0  0  0  0  0  0  0  0  0
   36.2530   29.5970   49.4850 C   0  0  0  0  0  0  0  0  0  0  0  0
   35.1610   28.8470   49.1460 C   0  0  0  0  0  0  0  0  0  0  0  0
   34.5780   28.9470   47.9200 C   0  0  0  0  0  0  0  0  0  0  0  0
   35.1490   29.8470   47.0410 C   0  0  0  0  0  0  0  0  0  0  0  0
   36.2450   30.5820   47.4170 C   0  0  0  0  0  0  0  0  0  0  0  0
   36.8470   30.4970   48.6390 C   0  0  0  0  0  0  0  0  0  0  0  0
   39.1110   32.1610   46.6650 C   0  0  0  0  0  0  0  0  0  0  0  0
   39.6860   33.3800   46.2700 C   0  0  0  0  0  0  0  0  0  0  0  0
   40.3570   33.4740   45.0030 C   0  0  0  0  0  0  0  0  0  0  0  0
   40.3790   32.3350   44.2690 N   0  0  0  0  0  0  0  0  0  0  0  0
   39.8070   31.1700   44.6840 C   0  0  0  0  0  0  0  0  0  0  0  0
   39.1920   31.0900   45.8480 N   0  0  0  0  0  0  0  0  0  0  0  0
   39.8880   30.0010   43.8080 C   0  0  0  0  0  0  0  0  0  0  0  0
   38.9800   28.9860   43.9230 C   0  0  0  0  0  0  0  0  0  0  0  0
   39.1040   27.9070   43.0680 C   0  0  0  0  0  0  0  0  0  0  0  0
   40.0860   27.8350   42.1400 N   0  0  0  0  0  0  0  0  0  0  0  0
   40.9610   28.8390   42.0460 C   0  0  0  0  0  0  0  0  0  0  0  0
   40.8480   29.8860   42.8690 N   0  0  0  0  0  0  0  0  0  0  0  0
   38.2640   33.4120   48.5360 O   0  0  0  0  0  0  0  0  0  0  0  0
   39.6133   31.7972   47.8549 H   0  0  0  0  0  0  0  0  0  0  0  0
   38.3525   30.1208   51.9961 H   0  0  0  0  0  0  0  0  0  0  0  0
   34.7431   28.1451   49.8827 H   0  0  0  0  0  0  0  0  0  0  0  0
   33.7002   28.3442   47.6442 H   0  0  0  0  0  0  0  0  0  0  0  0
   34.7230   29.9750   46.0349 H   0  0  0  0  0  0  0  0  0  0  0  0
   36.6665   31.2866   46.6849 H   0  0  0  0  0  0  0  0  0  0  0  0
   39.6229   34.2592   46.9280 H   0  0  0  0  0  0  0  0  0  0  0  0
   40.8215   34.4075   44.6524 H   0  0  0  0  0  0  0  0  0  0  0  0
   38.1758   29.0265   44.6724 H   0  0  0  0  0  0  0  0  0  0  0  0
   38.3817   27.0809   43.1444 H   0  0  0  0  0  0  0  0  0  0  0  0
   41.7672   28.8048   41.2984 H   0  0  0  0  0  0  0  0  0  0  0  0
   38.2828   33.3500   49.5239 H   0  0  0  0  0  0  0  0  0  0  0  0
  1 24  1  0
  1  2  1  0
  2  3  2  0
  3  4  1  0
  5  4  2  0
  6  5  1  0
  7  6  2  0
  8  7  1  0
  9 10  1  0
  9  8  2  0
 10 11  2  0
 11  2  1  0
 11  6  1  0
 12  1  1  0
 13 12  2  0
 14 13  1  0
 15 16  1  0
 15 14  2  0
 16 17  2  0
 17 12  1  0
 18 19  2  0
 18 16  1  0
 20 19  1  0
 21 20  2  0
 22 21  1  0
 22 23  2  0
 23 18  1  0
  1 25  1  1
  4 26  1  0
  7 27  1  0
  8 28  1  0
  9 29  1  0
 10 30  1  0
 13 31  1  0
 14 32  1  0
 19 33  1  0
 20 34  1  0
 22 35  1  0
 24 36  1  0
M  ISO  8  25   8  26  14  27  14  28  14  29  14  30  14  31  14  32  14
M  ISO  4  33  14  34  14  35  14  36   3
M  END
>  <minimizedAffinity>  (1) 
-7.21388531

>  <minimizedRMSD>  (1) 
0.810465336

$$$$
