
     RDKit          3D

 31 33  0  0  1  0  0  0  0  0999 V2000
   38.5230   32.1730   48.0610 C   0  0  1  0  0  0  0  0  0  0  0  0
   37.8770   31.2330   48.9740 C   0  0  0  0  0  0  0  0  0  0  0  0
   38.3770   31.0760   50.1950 N   0  0  0  0  0  0  0  0  0  0  0  0
   37.8470   30.2250   51.1110 C   0  0  0  0  0  0  0  0  0  0  0  0
   36.7750   29.4780   50.8480 N   0  0  0  0  0  0  0  0  0  0  0  0
   36.1840   29.5620   49.6290 C   0  0  0  0  0  0  0  0  0  0  0  0
   35.0850   28.8060   49.3260 C   0  0  0  0  0  0  0  0  0  0  0  0
   34.4840   28.8780   48.1080 C   0  0  0  0  0  0  0  0  0  0  0  0
   35.0440   29.7540   47.2000 C   0  0  0  0  0  0  0  0  0  0  0  0
   36.1480   30.4960   47.5390 C   0  0  0  0  0  0  0  0  0  0  0  0
   36.7700   30.4400   48.7560 C   0  0  0  0  0  0  0  0  0  0  0  0
   39.0220   32.0580   46.7200 C   0  0  0  0  0  0  0  0  0  0  0  0
   39.8570   33.1420   46.4030 C   0  0  0  0  0  0  0  0  0  0  0  0
   40.5790   33.1340   45.1590 C   0  0  0  0  0  0  0  0  0  0  0  0
   40.3890   32.0490   44.3700 N   0  0  0  0  0  0  0  0  0  0  0  0
   39.5660   31.0240   44.7170 C   0  0  0  0  0  0  0  0  0  0  0  0
   38.8990   31.0240   45.8610 N   0  0  0  0  0  0  0  0  0  0  0  0
   39.3930   29.8520   43.8050 C   0  0  0  0  0  0  0  0  0  0  0  0
   38.3690   30.0930   42.9060 F   0  0  0  0  0  0  0  0  0  0  0  0
   40.5450   29.7210   43.0260 F   0  0  0  0  0  0  0  0  0  0  0  0
   39.1120   28.7040   44.4850 F   0  0  0  0  0  0  0  0  0  0  0  0
   38.1450   33.3520   48.5450 O   0  0  0  0  0  0  0  0  0  0  0  0
   39.5243   31.7412   47.9162 H   0  0  0  0  0  0  0  0  0  0  0  0
   38.3178   30.1497   52.1023 H   0  0  0  0  0  0  0  0  0  0  0  0
   34.6773   28.1232   50.0860 H   0  0  0  0  0  0  0  0  0  0  0  0
   33.6004   28.2716   47.8602 H   0  0  0  0  0  0  0  0  0  0  0  0
   34.6025   29.8582   46.1979 H   0  0  0  0  0  0  0  0  0  0  0  0
   36.5594   31.1804   46.7825 H   0  0  0  0  0  0  0  0  0  0  0  0
   39.9577   33.9881   47.0987 H   0  0  0  0  0  0  0  0  0  0  0  0
   41.2451   33.9589   44.8659 H   0  0  0  0  0  0  0  0  0  0  0  0
   38.1549   33.3211   49.5345 H   0  0  0  0  0  0  0  0  0  0  0  0
  1 22  1  0
  1  2  1  0
  2  3  2  0
  3  4  1  0
  5  4  2  0
  6  5  1  0
  7  6  2  0
  8  7  1  0
  9 10  1  0
  9  8  2  0
 10 11  2  0
 11  2  1  0
 11  6  1  0
 12  1  1  0
 13 12  2  0
 14 13  1  0
 15 16  1  0
 15 14  2  0
 16 17  2  0
 17 12  1  0
 18 21  1  0
 18 16  1  0
 19 18  1  0
 20 18  1  0
  1 23  1  1
  4 24  1  0
  7 25  1  0
  8 26  1  0
  9 27  1  0
 10 28  1  0
 13 29  1  0
 14 30  1  0
 22 31  1  0
M  ISO  8  23   8  24  14  25  14  26  14  27  14  28  14  29  14  30  14
M  ISO  1  31   3
M  END
>  <minimizedAffinity>  (1) 
-6.8792944

>  <minimizedRMSD>  (1) 
0.649433374

$$$$
