
     RDKit          3D

 29 31  0  0  1  0  0  0  0  0999 V2000
   37.6370   31.0510   49.3320 C   0  0  0  0  0  0  0  0  0  0  0  0
   38.1330   30.8710   50.5570 N   0  0  0  0  0  0  0  0  0  0  0  0
   37.5470   30.0670   51.4780 C   0  0  0  0  0  0  0  0  0  0  0  0
   36.4220   29.3910   51.2290 N   0  0  0  0  0  0  0  0  0  0  0  0
   35.8450   29.5100   50.0200 C   0  0  0  0  0  0  0  0  0  0  0  0
   34.6900   28.8190   49.7080 C   0  0  0  0  0  0  0  0  0  0  0  0
   34.1010   28.9160   48.4810 C   0  0  0  0  0  0  0  0  0  0  0  0
   34.7180   29.7420   47.5690 C   0  0  0  0  0  0  0  0  0  0  0  0
   35.8650   30.4150   47.9070 C   0  0  0  0  0  0  0  0  0  0  0  0
   36.4750   30.3360   49.1200 C   0  0  0  0  0  0  0  0  0  0  0  0
   38.3450   31.9390   48.4110 C   0  0  1  0  0  0  0  0  0  0  0  0
   38.8160   31.7880   47.0660 C   0  0  0  0  0  0  0  0  0  0  0  0
   39.6740   32.8450   46.7170 C   0  0  0  0  0  0  0  0  0  0  0  0
   40.3770   32.8020   45.4700 C   0  0  0  0  0  0  0  0  0  0  0  0
   40.1500   31.7110   44.7050 N   0  0  0  0  0  0  0  0  0  0  0  0
   39.3090   30.7090   45.0740 C   0  0  0  0  0  0  0  0  0  0  0  0
   38.6540   30.7410   46.2270 N   0  0  0  0  0  0  0  0  0  0  0  0
   39.1060   29.3250   43.9510 S   0  0  0  0  0  0  0  0  0  0  0  0
   38.0720   33.1450   48.9070 O   0  0  0  0  0  0  0  0  0  0  0  0
   38.0158   29.9675   52.4681 H   0  0  0  0  0  0  0  0  0  0  0  0
   34.2321   28.1720   50.4707 H   0  0  0  0  0  0  0  0  0  0  0  0
   33.1823   28.3637   48.2339 H   0  0  0  0  0  0  0  0  0  0  0  0
   34.2891   29.8633   46.5634 H   0  0  0  0  0  0  0  0  0  0  0  0
   36.3225   31.0628   47.1447 H   0  0  0  0  0  0  0  0  0  0  0  0
   39.3037   31.4269   48.2418 H   0  0  0  0  0  0  0  0  0  0  0  0
   39.8047   33.6996   47.3971 H   0  0  0  0  0  0  0  0  0  0  0  0
   41.0585   33.6059   45.1548 H   0  0  0  0  0  0  0  0  0  0  0  0
   38.9370   28.1726   44.6723 H   0  0  0  0  0  0  0  0  0  0  0  0
   38.0811   33.1048   49.8961 H   0  0  0  0  0  0  0  0  0  0  0  0
  1  2  2  0
  2  3  1  0
  4  3  2  0
  5  4  1  0
  6  5  2  0
  7  6  1  0
  8  9  1  0
  8  7  2  0
  9 10  2  0
 10  1  1  0
 10  5  1  0
 11 19  1  0
 11  1  1  0
 12 11  1  0
 13 12  2  0
 14 13  1  0
 15 16  1  0
 15 14  2  0
 16 17  2  0
 17 12  1  0
 18 16  1  0
  3 20  1  0
  6 21  1  0
  7 22  1  0
  8 23  1  0
  9 24  1  0
 11 25  1  1
 13 26  1  0
 14 27  1  0
 18 28  1  0
 19 29  1  0
M  ISO  8  20  14  21  14  22  14  23  14  24  14  25   8  26  14  27  14
M  ISO  2  28  11  29   3
M  END
>  <minimizedAffinity>  (1) 
-6.65254354

>  <minimizedRMSD>  (1) 
0.252860188

$$$$
