
     RDKit          3D

 34 36  0  0  1  0  0  0  0  0999 V2000
   38.5570   31.9210   48.1920 C   0  0  1  0  0  0  0  0  0  0  0  0
   37.7950   31.0830   49.1420 C   0  0  0  0  0  0  0  0  0  0  0  0
   38.2590   30.9020   50.3750 N   0  0  0  0  0  0  0  0  0  0  0  0
   37.6280   30.1520   51.3030 C   0  0  0  0  0  0  0  0  0  0  0  0
   36.4850   29.5320   51.0500 N   0  0  0  0  0  0  0  0  0  0  0  0
   35.9100   29.6380   49.8370 C   0  0  0  0  0  0  0  0  0  0  0  0
   34.7320   29.0060   49.5290 C   0  0  0  0  0  0  0  0  0  0  0  0
   34.1550   29.0990   48.3190 C   0  0  0  0  0  0  0  0  0  0  0  0
   34.8210   29.8800   47.3840 C   0  0  0  0  0  0  0  0  0  0  0  0
   36.0010   30.5060   47.7150 C   0  0  0  0  0  0  0  0  0  0  0  0
   36.5950   30.4140   48.9370 C   0  0  0  0  0  0  0  0  0  0  0  0
   39.0010   31.6850   46.8580 C   0  0  0  0  0  0  0  0  0  0  0  0
   39.8330   32.7420   46.4340 C   0  0  0  0  0  0  0  0  0  0  0  0
   40.4980   32.6610   45.1660 C   0  0  0  0  0  0  0  0  0  0  0  0
   40.2650   31.5550   44.4620 N   0  0  0  0  0  0  0  0  0  0  0  0
   39.4500   30.5560   44.9010 C   0  0  0  0  0  0  0  0  0  0  0  0
   38.8370   30.6190   46.0650 N   0  0  0  0  0  0  0  0  0  0  0  0
   39.1590   29.3610   44.0440 C   0  0  0  0  0  0  0  0  0  0  0  0
   38.2250   33.1550   48.6190 O   0  0  0  0  0  0  0  0  0  0  0  0
   39.0890   33.8720   49.3800 C   0  0  0  0  0  0  0  0  0  0  0  0
   39.5745   31.5065   48.1382 H   0  0  0  0  0  0  0  0  0  0  0  0
   38.0776   30.0524   52.3020 H   0  0  0  0  0  0  0  0  0  0  0  0
   34.2402   28.3990   50.3034 H   0  0  0  0  0  0  0  0  0  0  0  0
   33.2107   28.5866   48.0832 H   0  0  0  0  0  0  0  0  0  0  0  0
   34.4033   29.9990   46.3734 H   0  0  0  0  0  0  0  0  0  0  0  0
   36.4945   31.1180   46.9456 H   0  0  0  0  0  0  0  0  0  0  0  0
   39.9714   33.6259   47.0740 H   0  0  0  0  0  0  0  0  0  0  0  0
   41.1579   33.4608   44.7987 H   0  0  0  0  0  0  0  0  0  0  0  0
   38.9475   28.4926   44.6853 H   0  0  0  0  0  0  0  0  0  0  0  0
   38.2853   29.5692   43.4089 H   0  0  0  0  0  0  0  0  0  0  0  0
   40.0306   29.1442   43.4089 H   0  0  0  0  0  0  0  0  0  0  0  0
   38.8748   33.6942   50.4442 H   0  0  0  0  0  0  0  0  0  0  0  0
   40.1200   33.5605   49.1565 H   0  0  0  0  0  0  0  0  0  0  0  0
   38.9729   34.9428   49.1565 H   0  0  0  0  0  0  0  0  0  0  0  0
  1 19  1  0
  1  2  1  0
  2  3  2  0
  3  4  1  0
  5  4  2  0
  6  5  1  0
  7  6  2  0
  8  7  1  0
  9 10  1  0
  9  8  2  0
 10 11  2  0
 11  2  1  0
 11  6  1  0
 12  1  1  0
 13 12  2  0
 14 13  1  0
 15 16  1  0
 15 14  2  0
 16 17  2  0
 17 12  1  0
 18 16  1  0
 19 20  1  0
  1 21  1  1
  4 22  1  0
  7 23  1  0
  8 24  1  0
  9 25  1  0
 10 26  1  0
 13 27  1  0
 14 28  1  0
 18 29  1  0
 18 30  1  0
 18 31  1  0
 20 32  1  0
 20 33  1  0
 20 34  1  0
M  ISO  8  21   8  22  14  23  14  24  14  25  14  26  14  27  14  28  14
M  ISO  6  29   8  30   8  31   8  32   8  33   8  34   8
M  END
>  <minimizedAffinity>  (1) 
-6.82775736

>  <minimizedRMSD>  (1) 
0.274972409

$$$$
