
     RDKit          3D

 33 35  0  0  1  0  0  0  0  0999 V2000
   38.6230   31.8900   48.1820 C   0  0  1  0  0  0  0  0  0  0  0  0
   37.8470   31.0830   49.1300 C   0  0  0  0  0  0  0  0  0  0  0  0
   38.3020   30.9110   50.3700 N   0  0  0  0  0  0  0  0  0  0  0  0
   37.6450   30.1810   51.2960 C   0  0  0  0  0  0  0  0  0  0  0  0
   36.4950   29.5770   51.0430 N   0  0  0  0  0  0  0  0  0  0  0  0
   35.9190   29.6760   49.8080 C   0  0  0  0  0  0  0  0  0  0  0  0
   34.7470   29.0620   49.5430 C   0  0  0  0  0  0  0  0  0  0  0  0
   34.1730   29.1620   48.3110 C   0  0  0  0  0  0  0  0  0  0  0  0
   34.8540   29.9170   47.3760 C   0  0  0  0  0  0  0  0  0  0  0  0
   36.0450   30.5220   47.6960 C   0  0  0  0  0  0  0  0  0  0  0  0
   36.6340   30.4310   48.9190 C   0  0  0  0  0  0  0  0  0  0  0  0
   39.0220   31.6590   46.8220 C   0  0  0  0  0  0  0  0  0  0  0  0
   39.8410   32.7250   46.3760 C   0  0  0  0  0  0  0  0  0  0  0  0
   40.4640   32.6520   45.0840 C   0  0  0  0  0  0  0  0  0  0  0  0
   40.2070   31.5460   44.3900 N   0  0  0  0  0  0  0  0  0  0  0  0
   39.4050   30.5310   44.8470 C   0  0  0  0  0  0  0  0  0  0  0  0
   38.8320   30.5930   46.0330 N   0  0  0  0  0  0  0  0  0  0  0  0
   39.1240   29.3160   44.0200 C   0  0  0  0  0  0  0  0  0  0  0  0
   38.3430   33.1390   48.6060 O   0  0  0  0  0  0  0  0  0  0  0  0
   39.1970   34.0890   49.0680 C   0  0  0  0  0  0  0  0  0  0  0  0
   39.6690   34.0230   50.2100 O   0  0  0  0  0  0  0  0  0  0  0  0
   39.6184   31.4228   48.1525 H   0  0  0  0  0  0  0  0  0  0  0  0
   38.0827   30.0843   52.3005 H   0  0  0  0  0  0  0  0  0  0  0  0
   34.2499   28.4749   50.3293 H   0  0  0  0  0  0  0  0  0  0  0  0
   33.2191   28.6682   48.0740 H   0  0  0  0  0  0  0  0  0  0  0  0
   34.4382   30.0350   46.3645 H   0  0  0  0  0  0  0  0  0  0  0  0
   36.5513   31.1137   46.9192 H   0  0  0  0  0  0  0  0  0  0  0  0
   39.9993   33.6052   47.0165 H   0  0  0  0  0  0  0  0  0  0  0  0
   41.1085   33.4542   44.6953 H   0  0  0  0  0  0  0  0  0  0  0  0
   38.9260   28.4599   44.6817 H   0  0  0  0  0  0  0  0  0  0  0  0
   38.2447   29.4999   43.3852 H   0  0  0  0  0  0  0  0  0  0  0  0
   39.9948   29.0951   43.3852 H   0  0  0  0  0  0  0  0  0  0  0  0
   39.4735   34.9308   48.4162 H   0  0  0  0  0  0  0  0  0  0  0  0
  1 19  1  0
  1  2  1  0
  2  3  2  0
  3  4  1  0
  5  4  2  0
  6  5  1  0
  7  6  2  0
  8  7  1  0
  9 10  1  0
  9  8  2  0
 10 11  2  0
 11  2  1  0
 11  6  1  0
 12  1  1  0
 13 12  2  0
 14 13  1  0
 15 16  1  0
 15 14  2  0
 16 17  2  0
 17 12  1  0
 18 16  1  0
 19 20  1  0
 20 21  2  0
  1 22  1  1
  4 23  1  0
  7 24  1  0
  8 25  1  0
  9 26  1  0
 10 27  1  0
 13 28  1  0
 14 29  1  0
 18 30  1  0
 18 31  1  0
 18 32  1  0
 20 33  1  0
M  ISO  8  22   8  23  14  24  14  25  14  26  14  27  14  28  14  29  14
M  ISO  4  30   8  31   8  32   8  33   6
M  END
>  <minimizedAffinity>  (1) 
-6.77154922

>  <minimizedRMSD>  (1) 
0.409638733

$$$$
