
     RDKit          3D

 37 39  0  0  1  0  0  0  0  0999 V2000
   38.5830   31.8900   48.1540 C   0  0  1  0  0  0  0  0  0  0  0  0
   37.8170   31.0750   49.1110 C   0  0  0  0  0  0  0  0  0  0  0  0
   38.2800   30.9070   50.3510 N   0  0  0  0  0  0  0  0  0  0  0  0
   37.6330   30.1730   51.2790 C   0  0  0  0  0  0  0  0  0  0  0  0
   36.4880   29.5590   51.0380 N   0  0  0  0  0  0  0  0  0  0  0  0
   35.9160   29.6540   49.8220 C   0  0  0  0  0  0  0  0  0  0  0  0
   34.7400   29.0220   49.5440 C   0  0  0  0  0  0  0  0  0  0  0  0
   34.1630   29.1080   48.3120 C   0  0  0  0  0  0  0  0  0  0  0  0
   34.8350   29.8700   47.3630 C   0  0  0  0  0  0  0  0  0  0  0  0
   36.0180   30.4880   47.6900 C   0  0  0  0  0  0  0  0  0  0  0  0
   36.6100   30.4100   48.9130 C   0  0  0  0  0  0  0  0  0  0  0  0
   39.0000   31.6540   46.8100 C   0  0  0  0  0  0  0  0  0  0  0  0
   39.8270   32.7160   46.3730 C   0  0  0  0  0  0  0  0  0  0  0  0
   40.4620   32.6310   45.0860 C   0  0  0  0  0  0  0  0  0  0  0  0
   40.2100   31.5240   44.3890 N   0  0  0  0  0  0  0  0  0  0  0  0
   39.4000   30.5160   44.8440 C   0  0  0  0  0  0  0  0  0  0  0  0
   38.8160   30.5880   46.0220 N   0  0  0  0  0  0  0  0  0  0  0  0
   39.1160   29.3060   44.0120 C   0  0  0  0  0  0  0  0  0  0  0  0
   38.2580   33.1370   48.5730 O   0  0  0  0  0  0  0  0  0  0  0  0
   39.2420   34.0450   48.7870 C   0  0  0  0  0  0  0  0  0  0  0  0
   39.6940   34.1170   50.2390 C   0  0  0  0  0  0  0  0  0  0  0  0
   39.5930   31.4558   48.1164 H   0  0  0  0  0  0  0  0  0  0  0  0
   38.0780   30.0814   52.2808 H   0  0  0  0  0  0  0  0  0  0  0  0
   34.2470   28.4308   50.3298 H   0  0  0  0  0  0  0  0  0  0  0  0
   33.2148   28.6007   48.0807 H   0  0  0  0  0  0  0  0  0  0  0  0
   34.4197   29.9782   46.3502 H   0  0  0  0  0  0  0  0  0  0  0  0
   36.5189   31.0843   46.9131 H   0  0  0  0  0  0  0  0  0  0  0  0
   39.9824   33.5979   47.0118 H   0  0  0  0  0  0  0  0  0  0  0  0
   41.1142   33.4289   44.7014 H   0  0  0  0  0  0  0  0  0  0  0  0
   38.9146   28.4477   44.6699 H   0  0  0  0  0  0  0  0  0  0  0  0
   38.2379   29.4954   43.3771 H   0  0  0  0  0  0  0  0  0  0  0  0
   39.9867   29.0850   43.3771 H   0  0  0  0  0  0  0  0  0  0  0  0
   40.1080   33.7735   48.1654 H   0  0  0  0  0  0  0  0  0  0  0  0
   38.8347   35.0326   48.5247 H   0  0  0  0  0  0  0  0  0  0  0  0
   38.8261   33.9787   50.9005 H   0  0  0  0  0  0  0  0  0  0  0  0
   40.4325   33.3252   50.4328 H   0  0  0  0  0  0  0  0  0  0  0  0
   40.1500   35.0991   50.4328 H   0  0  0  0  0  0  0  0  0  0  0  0
  1 19  1  0
  1  2  1  0
  2  3  2  0
  3  4  1  0
  5  4  2  0
  6  5  1  0
  7  6  2  0
  8  7  1  0
  9 10  1  0
  9  8  2  0
 10 11  2  0
 11  2  1  0
 11  6  1  0
 12  1  1  0
 13 12  2  0
 14 13  1  0
 15 16  1  0
 15 14  2  0
 16 17  2  0
 17 12  1  0
 18 16  1  0
 19 20  1  0
 20 21  1  0
  1 22  1  1
  4 23  1  0
  7 24  1  0
  8 25  1  0
  9 26  1  0
 10 27  1  0
 13 28  1  0
 14 29  1  0
 18 30  1  0
 18 31  1  0
 18 32  1  0
 20 33  1  0
 20 34  1  0
 21 35  1  0
 21 36  1  0
 21 37  1  0
M  ISO  8  22   8  23  14  24  14  25  14  26  14  27  14  28  14  29  14
M  ISO  8  30   8  31   8  32   8  33   8  34   8  35   8  36   8  37   8
M  END
>  <minimizedAffinity>  (1) 
-6.58255482

>  <minimizedRMSD>  (1) 
0.53960824

$$$$
