
     RDKit          3D

 23 24  0  0  0  0  0  0  0  0999 V2000
   37.7860   30.5950   50.6850 C   0  0  0  0  0  0  0  0  0  0  0  0
   38.3740   31.5770   49.8560 C   0  0  0  0  0  0  0  0  0  0  0  0
   37.7630   31.8270   48.6180 C   0  0  0  0  0  0  0  0  0  0  0  0
   36.6420   31.1130   48.2870 N   0  0  0  0  0  0  0  0  0  0  0  0
   36.1150   30.1880   49.1040 C   0  0  0  0  0  0  0  0  0  0  0  0
   36.6800   29.9310   50.2900 N   0  0  0  0  0  0  0  0  0  0  0  0
   34.9470   29.4770   48.7040 N   0  0  0  0  0  0  0  0  0  0  0  0
   34.7460   29.1260   47.4250 C   0  0  0  0  0  0  0  0  0  0  0  0
   33.6290   28.4390   47.0010 C   0  0  0  0  0  0  0  0  0  0  0  0
   33.3610   28.0300   45.6070 C   0  0  0  0  0  0  0  0  0  0  0  0
   32.7360   28.1420   48.0020 C   0  0  0  0  0  0  0  0  0  0  0  0
   31.6760   27.5120   47.7150 O   0  0  0  0  0  0  0  0  0  0  0  0
   32.8740   28.4630   49.3020 N   0  0  0  0  0  0  0  0  0  0  0  0
   34.0120   29.1420   49.6220 C   0  0  0  0  0  0  0  0  0  0  0  0
   34.1700   29.4550   50.8280 O   0  0  0  0  0  0  0  0  0  0  0  0
   38.2352   30.3695   51.6634 H   0  0  0  0  0  0  0  0  0  0  0  0
   39.2755   32.1240   50.1692 H   0  0  0  0  0  0  0  0  0  0  0  0
   38.1748   32.5792   47.9290 H   0  0  0  0  0  0  0  0  0  0  0  0
   35.5080   29.3991   46.6801 H   0  0  0  0  0  0  0  0  0  0  0  0
   32.7581   27.1099   45.6043 H   0  0  0  0  0  0  0  0  0  0  0  0
   32.8114   28.8300   45.0894 H   0  0  0  0  0  0  0  0  0  0  0  0
   34.3139   27.8455   45.0894 H   0  0  0  0  0  0  0  0  0  0  0  0
   32.1670   28.2123   50.0078 H   0  0  0  0  0  0  0  0  0  0  0  0
  2  1  2  0
  3  2  1  0
  4  3  2  0
  4  5  1  0
  5  6  2  0
  6  1  1  0
  7  5  1  0
  7 14  1  0
  8  7  1  0
  9  8  2  0
  9 11  1  0
 10  9  1  0
 11 13  1  0
 12 11  2  0
 13 14  1  0
 14 15  2  0
  1 16  1  0
  2 17  1  0
  3 18  1  0
  8 19  1  0
 10 20  1  0
 10 21  1  0
 10 22  1  0
 13 23  1  0
M  ISO  8  16  14  17  14  18  14  19  14  20   8  21   8  22   8  23   9
M  END
>  <minimizedAffinity>  (1) 
-4.75260305

>  <minimizedRMSD>  (1) 
1.69714844

$$$$
