
     RDKit          3D

 49 52  0  0  1  0  0  0  0  0999 V2000
   38.6150   31.3100   47.5960 C   0  0  1  0  0  0  0  0  0  0  0  0
   37.7860   30.5500   48.5200 C   0  0  0  0  0  0  0  0  0  0  0  0
   38.2610   30.2200   49.7100 N   0  0  0  0  0  0  0  0  0  0  0  0
   37.5570   29.5040   50.6050 C   0  0  0  0  0  0  0  0  0  0  0  0
   36.3270   29.0690   50.3700 N   0  0  0  0  0  0  0  0  0  0  0  0
   35.7220   29.3350   49.2040 C   0  0  0  0  0  0  0  0  0  0  0  0
   34.4570   28.9010   48.9190 C   0  0  0  0  0  0  0  0  0  0  0  0
   33.8550   29.1740   47.7360 C   0  0  0  0  0  0  0  0  0  0  0  0
   34.5920   29.9150   46.8450 C   0  0  0  0  0  0  0  0  0  0  0  0
   35.8630   30.3420   47.1470 C   0  0  0  0  0  0  0  0  0  0  0  0
   36.4800   30.0750   48.3140 C   0  0  0  0  0  0  0  0  0  0  0  0
   39.0350   31.0830   46.2470 C   0  0  0  0  0  0  0  0  0  0  0  0
   40.0920   31.9690   45.9120 C   0  0  0  0  0  0  0  0  0  0  0  0
   40.7400   31.8410   44.6390 C   0  0  0  0  0  0  0  0  0  0  0  0
   40.2880   30.8780   43.8530 N   0  0  0  0  0  0  0  0  0  0  0  0
   39.2640   30.0400   44.2070 C   0  0  0  0  0  0  0  0  0  0  0  0
   38.6660   30.1530   45.3730 N   0  0  0  0  0  0  0  0  0  0  0  0
   38.7510   28.9870   43.2800 C   0  0  0  0  0  0  0  0  0  0  0  0
   39.8060   28.1600   42.7400 N   0  0  0  0  0  0  0  0  0  0  0  0
   39.4470   26.7870   43.0010 C   0  0  0  0  0  0  0  0  0  0  0  0
   38.7630   26.1080   41.8510 C   0  0  0  0  0  0  0  0  0  0  0  0
   39.6960   26.0050   40.7450 N   0  0  0  0  0  0  0  0  0  0  0  0
   40.4390   27.2210   40.5560 C   0  0  0  0  0  0  0  0  0  0  0  0
   39.8490   28.3770   41.3130 C   0  0  0  0  0  0  0  0  0  0  0  0
   38.2840   32.6010   47.9670 O   0  0  0  0  0  0  0  0  0  0  0  0
   38.9850   33.5010   48.7420 C   0  0  0  0  0  0  0  0  0  0  0  0
   39.7700   34.5810   48.1480 N   0  0  0  0  0  0  0  0  0  0  0  0
   38.9790   33.4310   49.9970 O   0  0  0  0  0  0  0  0  0  0  0  0
   39.6005   30.8273   47.6720 H   0  0  0  0  0  0  0  0  0  0  0  0
   38.0220   29.2693   51.5738 H   0  0  0  0  0  0  0  0  0  0  0  0
   33.9120   28.3130   49.6721 H   0  0  0  0  0  0  0  0  0  0  0  0
   32.8385   28.8236   47.5037 H   0  0  0  0  0  0  0  0  0  0  0  0
   34.1556   30.1723   45.8686 H   0  0  0  0  0  0  0  0  0  0  0  0
   36.4056   30.9337   46.3950 H   0  0  0  0  0  0  0  0  0  0  0  0
   40.4111   32.7463   46.6219 H   0  0  0  0  0  0  0  0  0  0  0  0
   41.5634   32.5038   44.3346 H   0  0  0  0  0  0  0  0  0  0  0  0
   38.0473   28.3454   43.8306 H   0  0  0  0  0  0  0  0  0  0  0  0
   38.2615   29.4956   42.4364 H   0  0  0  0  0  0  0  0  0  0  0  0
   40.3645   26.2281   43.2371 H   0  0  0  0  0  0  0  0  0  0  0  0
   38.7318   26.7974   43.8367 H   0  0  0  0  0  0  0  0  0  0  0  0
   38.4388   25.1020   42.1558 H   0  0  0  0  0  0  0  0  0  0  0  0
   37.8826   26.6914   41.5434 H   0  0  0  0  0  0  0  0  0  0  0  0
   40.3560   25.2377   40.9364 H   0  0  0  0  0  0  0  0  0  0  0  0
   41.4708   27.0618   40.9024 H   0  0  0  0  0  0  0  0  0  0  0  0
   40.4069   27.4703   39.4851 H   0  0  0  0  0  0  0  0  0  0  0  0
   40.4566   29.2720   41.1136 H   0  0  0  0  0  0  0  0  0  0  0  0
   38.8110   28.4972   40.9692 H   0  0  0  0  0  0  0  0  0  0  0  0
   40.2830   35.2378   48.7532 H   0  0  0  0  0  0  0  0  0  0  0  0
   39.8103   34.6854   47.1241 H   0  0  0  0  0  0  0  0  0  0  0  0
  1 25  1  0
  1  2  1  0
  2  3  2  0
  3  4  1  0
  5  4  2  0
  6  5  1  0
  7  6  2  0
  8  7  1  0
  9 10  1  0
  9  8  2  0
 10 11  2  0
 11  2  1  0
 11  6  1  0
 12  1  1  0
 13 12  2  0
 14 13  1  0
 15 16  1  0
 15 14  2  0
 16 17  2  0
 17 12  1  0
 18 16  1  0
 19 20  1  0
 19 18  1  0
 21 20  1  0
 22 21  1  0
 23 22  1  0
 23 24  1  0
 24 19  1  0
 25 26  1  0
 26 28  2  0
 27 26  1  0
  1 29  1  1
  4 30  1  0
  7 31  1  0
  8 32  1  0
  9 33  1  0
 10 34  1  0
 13 35  1  0
 14 36  1  0
 18 37  1  0
 18 38  1  0
 20 39  1  0
 20 40  1  0
 21 41  1  0
 21 42  1  0
 22 43  1  0
 23 44  1  0
 23 45  1  0
 24 46  1  0
 24 47  1  0
 27 48  1  0
 27 49  1  0
M  ISO  8  29   8  30  14  31  14  32  14  33  14  34  14  35  14  36  14
M  ISO  8  37   8  38   8  39  13  40  13  41  13  42  13  43   5  44  13
M  ISO  3  45  13  46  13  47  13
M  END
>  <minimizedAffinity>  (1) 
-6.91713715

>  <minimizedRMSD>  (1) 
1.37222421

$$$$
