
     RDKit          3D

 47 50  0  0  1  0  0  0  0  0999 V2000
   38.6900   31.7860   48.1660 C   0  0  1  0  0  0  0  0  0  0  0  0
   37.8750   31.0520   49.1200 C   0  0  0  0  0  0  0  0  0  0  0  0
   38.3090   30.8900   50.3610 N   0  0  0  0  0  0  0  0  0  0  0  0
   37.6170   30.2040   51.2880 C   0  0  0  0  0  0  0  0  0  0  0  0
   36.4470   29.6340   51.0420 N   0  0  0  0  0  0  0  0  0  0  0  0
   35.8860   29.7240   49.8200 C   0  0  0  0  0  0  0  0  0  0  0  0
   34.6880   29.1460   49.5250 C   0  0  0  0  0  0  0  0  0  0  0  0
   34.1370   29.2380   48.2930 C   0  0  0  0  0  0  0  0  0  0  0  0
   34.8560   29.9530   47.3600 C   0  0  0  0  0  0  0  0  0  0  0  0
   36.0630   30.5260   47.6840 C   0  0  0  0  0  0  0  0  0  0  0  0
   36.6320   30.4390   48.9040 C   0  0  0  0  0  0  0  0  0  0  0  0
   39.0410   31.5600   46.7980 C   0  0  0  0  0  0  0  0  0  0  0  0
   39.8100   32.6470   46.3040 C   0  0  0  0  0  0  0  0  0  0  0  0
   40.3570   32.5710   44.9800 C   0  0  0  0  0  0  0  0  0  0  0  0
   40.0970   31.4660   44.3030 N   0  0  0  0  0  0  0  0  0  0  0  0
   39.3480   30.4360   44.8100 C   0  0  0  0  0  0  0  0  0  0  0  0
   38.8450   30.5010   46.0230 N   0  0  0  0  0  0  0  0  0  0  0  0
   39.0540   29.2180   44.0040 C   0  0  0  0  0  0  0  0  0  0  0  0
   38.0120   29.4810   43.0320 N   0  0  0  0  0  0  0  0  0  0  0  0
   36.7140   29.6510   43.6920 C   0  0  0  0  0  0  0  0  0  0  0  0
   35.7800   28.6460   43.0320 C   0  0  0  0  0  0  0  0  0  0  0  0
   36.8060   27.5650   42.6660 C   0  0  0  0  0  0  0  0  0  0  0  0
   37.8600   28.4710   42.0300 C   0  0  0  0  0  0  0  0  0  0  0  0
   38.4220   33.0890   48.5530 O   0  0  0  0  0  0  0  0  0  0  0  0
   39.2490   34.0300   49.1240 C   0  0  0  0  0  0  0  0  0  0  0  0
   39.7320   35.1960   48.3930 N   0  0  0  0  0  0  0  0  0  0  0  0
   39.6260   33.9190   50.3210 O   0  0  0  0  0  0  0  0  0  0  0  0
   39.6550   31.2595   48.2055 H   0  0  0  0  0  0  0  0  0  0  0  0
   38.0428   30.1120   52.2981 H   0  0  0  0  0  0  0  0  0  0  0  0
   34.1545   28.5896   50.3097 H   0  0  0  0  0  0  0  0  0  0  0  0
   33.1718   28.7696   48.0503 H   0  0  0  0  0  0  0  0  0  0  0  0
   34.4583   30.0670   46.3408 H   0  0  0  0  0  0  0  0  0  0  0  0
   36.5958   31.0882   46.9029 H   0  0  0  0  0  0  0  0  0  0  0  0
   39.9839   33.5357   46.9285 H   0  0  0  0  0  0  0  0  0  0  0  0
   40.9589   33.3864   44.5523 H   0  0  0  0  0  0  0  0  0  0  0  0
   39.9676   28.9055   43.4771 H   0  0  0  0  0  0  0  0  0  0  0  0
   38.7104   28.4224   44.6815 H   0  0  0  0  0  0  0  0  0  0  0  0
   36.8014   29.4434   44.7687 H   0  0  0  0  0  0  0  0  0  0  0  0
   36.3392   30.6802   43.5905 H   0  0  0  0  0  0  0  0  0  0  0  0
   35.0179   28.2710   43.7310 H   0  0  0  0  0  0  0  0  0  0  0  0
   35.1847   29.0352   42.1929 H   0  0  0  0  0  0  0  0  0  0  0  0
   37.1900   27.0391   43.5525 H   0  0  0  0  0  0  0  0  0  0  0  0
   36.4347   26.7435   42.0358 H   0  0  0  0  0  0  0  0  0  0  0  0
   38.8027   27.9310   41.8579 H   0  0  0  0  0  0  0  0  0  0  0  0
   37.5779   28.8604   41.0406 H   0  0  0  0  0  0  0  0  0  0  0  0
   40.3497   35.8762   48.8585 H   0  0  0  0  0  0  0  0  0  0  0  0
   39.4554   35.3392   47.4112 H   0  0  0  0  0  0  0  0  0  0  0  0
  1 24  1  0
  1  2  1  0
  2  3  2  0
  3  4  1  0
  5  4  2  0
  6  5  1  0
  7  6  2  0
  8  7  1  0
  9 10  1  0
  9  8  2  0
 10 11  2  0
 11  2  1  0
 11  6  1  0
 12  1  1  0
 13 12  2  0
 14 13  1  0
 15 16  1  0
 15 14  2  0
 16 17  2  0
 17 12  1  0
 18 16  1  0
 19 20  1  0
 19 18  1  0
 21 20  1  0
 22 21  1  0
 23 22  1  0
 23 19  1  0
 24 25  1  0
 25 27  2  0
 26 25  1  0
  1 28  1  1
  4 29  1  0
  7 30  1  0
  8 31  1  0
  9 32  1  0
 10 33  1  0
 13 34  1  0
 14 35  1  0
 18 36  1  0
 18 37  1  0
 20 38  1  0
 20 39  1  0
 21 40  1  0
 21 41  1  0
 22 42  1  0
 22 43  1  0
 23 44  1  0
 23 45  1  0
 26 46  1  0
 26 47  1  0
M  ISO  8  28   8  29  14  30  14  31  14  32  14  33  14  34  14  35  14
M  ISO  8  36   8  37   8  38  13  39  13  40  13  41  13  42  13  43  13
M  ISO  2  44  13  45  13
M  END
>  <minimizedAffinity>  (1) 
-6.84168768

>  <minimizedRMSD>  (1) 
0.274079561

$$$$
