
     RDKit          3D

 48 51  0  0  1  0  0  0  0  0999 V2000
   38.6120   31.3730   47.6120 C   0  0  1  0  0  0  0  0  0  0  0  0
   37.7960   30.5780   48.5290 C   0  0  0  0  0  0  0  0  0  0  0  0
   38.2700   30.2310   49.7160 N   0  0  0  0  0  0  0  0  0  0  0  0
   37.5680   29.4970   50.5990 C   0  0  0  0  0  0  0  0  0  0  0  0
   36.3380   29.0600   50.3520 N   0  0  0  0  0  0  0  0  0  0  0  0
   35.7330   29.3420   49.1850 C   0  0  0  0  0  0  0  0  0  0  0  0
   34.4860   28.8900   48.8960 C   0  0  0  0  0  0  0  0  0  0  0  0
   33.8920   29.1610   47.7100 C   0  0  0  0  0  0  0  0  0  0  0  0
   34.6240   29.9250   46.8060 C   0  0  0  0  0  0  0  0  0  0  0  0
   35.8860   30.3620   47.1410 C   0  0  0  0  0  0  0  0  0  0  0  0
   36.4940   30.0970   48.3160 C   0  0  0  0  0  0  0  0  0  0  0  0
   39.0330   31.1560   46.2650 C   0  0  0  0  0  0  0  0  0  0  0  0
   40.0660   32.0620   45.9380 C   0  0  0  0  0  0  0  0  0  0  0  0
   40.7810   31.9390   44.7070 C   0  0  0  0  0  0  0  0  0  0  0  0
   40.3930   30.9490   43.9500 N   0  0  0  0  0  0  0  0  0  0  0  0
   39.3790   30.0780   44.2710 C   0  0  0  0  0  0  0  0  0  0  0  0
   38.7280   30.1910   45.4060 N   0  0  0  0  0  0  0  0  0  0  0  0
   38.8840   29.0760   43.3020 C   0  0  0  0  0  0  0  0  0  0  0  0
   39.8290   28.0580   42.9620 N   0  0  0  0  0  0  0  0  0  0  0  0
   39.1420   26.7840   42.9970 C   0  0  0  0  0  0  0  0  0  0  0  0
   38.2810   26.5350   41.7800 C   0  0  0  0  0  0  0  0  0  0  0  0
   38.9750   26.7180   40.5890 O   0  0  0  0  0  0  0  0  0  0  0  0
   39.5900   27.9460   40.5090 C   0  0  0  0  0  0  0  0  0  0  0  0
   40.4670   28.2330   41.7010 C   0  0  0  0  0  0  0  0  0  0  0  0
   38.2720   32.6480   48.0130 O   0  0  0  0  0  0  0  0  0  0  0  0
   38.9880   33.5380   48.7870 C   0  0  0  0  0  0  0  0  0  0  0  0
   39.7610   34.6310   48.1960 N   0  0  0  0  0  0  0  0  0  0  0  0
   39.0110   33.4560   50.0430 O   0  0  0  0  0  0  0  0  0  0  0  0
   39.6144   30.9228   47.6623 H   0  0  0  0  0  0  0  0  0  0  0  0
   38.0318   29.2487   51.5650 H   0  0  0  0  0  0  0  0  0  0  0  0
   33.9457   28.2897   49.6427 H   0  0  0  0  0  0  0  0  0  0  0  0
   32.8819   28.7958   47.4729 H   0  0  0  0  0  0  0  0  0  0  0  0
   34.1951   30.1793   45.8255 H   0  0  0  0  0  0  0  0  0  0  0  0
   36.4340   30.9662   46.4030 H   0  0  0  0  0  0  0  0  0  0  0  0
   40.3227   32.8706   46.6382 H   0  0  0  0  0  0  0  0  0  0  0  0
   41.5930   32.6235   44.4204 H   0  0  0  0  0  0  0  0  0  0  0  0
   37.9970   28.5899   43.7343 H   0  0  0  0  0  0  0  0  0  0  0  0
   38.6671   29.6225   42.3723 H   0  0  0  0  0  0  0  0  0  0  0  0
   39.8938   25.9837   43.0624 H   0  0  0  0  0  0  0  0  0  0  0  0
   38.4742   26.7981   43.8710 H   0  0  0  0  0  0  0  0  0  0  0  0
   37.9100   25.5001   41.8164 H   0  0  0  0  0  0  0  0  0  0  0  0
   37.4558   27.2621   41.8005 H   0  0  0  0  0  0  0  0  0  0  0  0
   40.2103   27.9710   39.6009 H   0  0  0  0  0  0  0  0  0  0  0  0
   38.8017   28.7127   40.4826 H   0  0  0  0  0  0  0  0  0  0  0  0
   41.3348   27.5583   41.6589 H   0  0  0  0  0  0  0  0  0  0  0  0
   40.7433   29.2958   41.6362 H   0  0  0  0  0  0  0  0  0  0  0  0
   40.2846   35.2781   48.8025 H   0  0  0  0  0  0  0  0  0  0  0  0
   39.7814   34.7532   47.1735 H   0  0  0  0  0  0  0  0  0  0  0  0
  1 25  1  0
  1  2  1  0
  2  3  2  0
  3  4  1  0
  5  4  2  0
  6  5  1  0
  7  6  2  0
  8  7  1  0
  9 10  1  0
  9  8  2  0
 10 11  2  0
 11  2  1  0
 11  6  1  0
 12  1  1  0
 13 12  2  0
 14 13  1  0
 15 16  1  0
 15 14  2  0
 16 17  2  0
 17 12  1  0
 18 16  1  0
 19 20  1  0
 19 18  1  0
 21 20  1  0
 22 21  1  0
 23 22  1  0
 23 24  1  0
 24 19  1  0
 25 26  1  0
 26 28  2  0
 27 26  1  0
  1 29  1  1
  4 30  1  0
  7 31  1  0
  8 32  1  0
  9 33  1  0
 10 34  1  0
 13 35  1  0
 14 36  1  0
 18 37  1  0
 18 38  1  0
 20 39  1  0
 20 40  1  0
 21 41  1  0
 21 42  1  0
 23 43  1  0
 23 44  1  0
 24 45  1  0
 24 46  1  0
 27 47  1  0
 27 48  1  0
M  ISO  8  29   8  30  14  31  14  32  14  33  14  34  14  35  14  36  14
M  ISO  8  37   8  38   8  39  13  40  13  41  13  42  13  43  13  44  13
M  ISO  2  45  13  46  13
M  END
>  <minimizedAffinity>  (1) 
-6.79100704

>  <minimizedRMSD>  (1) 
1.07951939

$$$$
