
     RDKit          3D

 36 38  0  0  1  0  0  0  0  0999 V2000
   38.6970   31.7840   48.1400 C   0  0  1  0  0  0  0  0  0  0  0  0
   37.8870   31.0440   49.0920 C   0  0  0  0  0  0  0  0  0  0  0  0
   38.3250   30.8710   50.3320 N   0  0  0  0  0  0  0  0  0  0  0  0
   37.6310   30.1810   51.2560 C   0  0  0  0  0  0  0  0  0  0  0  0
   36.4560   29.6170   51.0070 N   0  0  0  0  0  0  0  0  0  0  0  0
   35.8930   29.7180   49.7880 C   0  0  0  0  0  0  0  0  0  0  0  0
   34.6950   29.1470   49.5040 C   0  0  0  0  0  0  0  0  0  0  0  0
   34.1360   29.2510   48.2710 C   0  0  0  0  0  0  0  0  0  0  0  0
   34.8550   29.9690   47.3350 C   0  0  0  0  0  0  0  0  0  0  0  0
   36.0660   30.5340   47.6600 C   0  0  0  0  0  0  0  0  0  0  0  0
   36.6400   30.4370   48.8770 C   0  0  0  0  0  0  0  0  0  0  0  0
   39.0530   31.5570   46.7720 C   0  0  0  0  0  0  0  0  0  0  0  0
   39.8680   32.6190   46.2980 C   0  0  0  0  0  0  0  0  0  0  0  0
   40.4260   32.5420   44.9780 C   0  0  0  0  0  0  0  0  0  0  0  0
   40.1270   31.4530   44.2870 N   0  0  0  0  0  0  0  0  0  0  0  0
   39.3360   30.4480   44.7740 C   0  0  0  0  0  0  0  0  0  0  0  0
   38.8230   30.5140   45.9830 N   0  0  0  0  0  0  0  0  0  0  0  0
   38.9810   29.2500   43.9520 C   0  0  0  0  0  0  0  0  0  0  0  0
   37.2540   29.4770   43.4260 S   0  0  0  0  0  0  0  0  0  0  0  0
   38.4210   33.0830   48.5310 O   0  0  0  0  0  0  0  0  0  0  0  0
   39.2430   34.0200   49.1180 C   0  0  0  0  0  0  0  0  0  0  0  0
   39.7360   35.1780   48.3790 N   0  0  0  0  0  0  0  0  0  0  0  0
   39.6010   33.9190   50.3180 O   0  0  0  0  0  0  0  0  0  0  0  0
   39.6677   31.2677   48.1738 H   0  0  0  0  0  0  0  0  0  0  0  0
   38.0578   30.0799   52.2648 H   0  0  0  0  0  0  0  0  0  0  0  0
   34.1655   28.5880   50.2896 H   0  0  0  0  0  0  0  0  0  0  0  0
   33.1664   28.7901   48.0312 H   0  0  0  0  0  0  0  0  0  0  0  0
   34.4542   30.0902   46.3178 H   0  0  0  0  0  0  0  0  0  0  0  0
   36.5986   31.0990   46.8808 H   0  0  0  0  0  0  0  0  0  0  0  0
   40.0696   33.4919   46.9362 H   0  0  0  0  0  0  0  0  0  0  0  0
   41.0628   33.3386   44.5658 H   0  0  0  0  0  0  0  0  0  0  0  0
   39.6400   29.1830   43.0738 H   0  0  0  0  0  0  0  0  0  0  0  0
   39.1020   28.3216   44.5294 H   0  0  0  0  0  0  0  0  0  0  0  0
   36.4504   29.5826   44.5305 H   0  0  0  0  0  0  0  0  0  0  0  0
   40.3494   35.8626   48.8438 H   0  0  0  0  0  0  0  0  0  0  0  0
   39.4705   35.3107   47.3927 H   0  0  0  0  0  0  0  0  0  0  0  0
  1 20  1  0
  1  2  1  0
  2  3  2  0
  3  4  1  0
  5  4  2  0
  6  5  1  0
  7  6  2  0
  8  7  1  0
  9 10  1  0
  9  8  2  0
 10 11  2  0
 11  2  1  0
 11  6  1  0
 12  1  1  0
 13 12  2  0
 14 13  1  0
 15 16  1  0
 15 14  2  0
 16 17  2  0
 17 12  1  0
 18 16  1  0
 19 18  1  0
 20 21  1  0
 21 23  2  0
 22 21  1  0
  1 24  1  1
  4 25  1  0
  7 26  1  0
  8 27  1  0
  9 28  1  0
 10 29  1  0
 13 30  1  0
 14 31  1  0
 18 32  1  0
 18 33  1  0
 19 34  1  0
 22 35  1  0
 22 36  1  0
M  ISO  8  24   8  25  14  26  14  27  14  28  14  29  14  30  14  31  14
M  ISO  3  32   8  33   8  34  11
M  END
>  <minimizedAffinity>  (1) 
-6.73011446

>  <minimizedRMSD>  (1) 
0.14945136

$$$$
