
     RDKit          3D

 30 32  0  0  0  0  0  0  0  0999 V2000
   36.3900   29.0550   49.8630 C   0  0  0  0  0  0  0  0  0  0  0  0
   36.8900   29.7030   51.0200 C   0  0  0  0  0  0  0  0  0  0  0  0
   37.7740   30.7830   50.8360 C   0  0  0  0  0  0  0  0  0  0  0  0
   38.0950   31.1410   49.5540 N   0  0  0  0  0  0  0  0  0  0  0  0
   37.6060   30.5090   48.4900 C   0  0  0  0  0  0  0  0  0  0  0  0
   36.7570   29.4710   48.6320 N   0  0  0  0  0  0  0  0  0  0  0  0
   37.9770   30.9280   47.1820 N   0  0  0  0  0  0  0  0  0  0  0  0
   39.2140   31.3880   46.9180 C   0  0  0  0  0  0  0  0  0  0  0  0
   39.6090   31.8030   45.6590 C   0  0  0  0  0  0  0  0  0  0  0  0
   38.6380   31.7070   44.7030 C   0  0  0  0  0  0  0  0  0  0  0  0
   38.9200   32.0690   43.5250 O   0  0  0  0  0  0  0  0  0  0  0  0
   37.3940   31.2600   44.9020 N   0  0  0  0  0  0  0  0  0  0  0  0
   37.0900   30.8720   46.1680 C   0  0  0  0  0  0  0  0  0  0  0  0
   35.9280   30.4510   46.3700 O   0  0  0  0  0  0  0  0  0  0  0  0
   36.4280   31.1830   43.8740 C   0  0  0  0  0  0  0  0  0  0  0  0
   35.9390   30.2470   42.9720 C   0  0  0  0  0  0  0  0  0  0  0  0
   34.9800   30.8480   42.2400 N   0  0  0  0  0  0  0  0  0  0  0  0
   34.8580   32.1110   42.6500 C   0  0  0  0  0  0  0  0  0  0  0  0
   35.7440   32.3260   43.6550 N   0  0  0  0  0  0  0  0  0  0  0  0
   40.9700   32.3160   45.3470 C   0  0  0  0  0  0  0  0  0  0  0  0
   35.6977   28.2067   49.9687 H   0  0  0  0  0  0  0  0  0  0  0  0
   36.5972   29.3732   52.0277 H   0  0  0  0  0  0  0  0  0  0  0  0
   38.1945   31.3234   51.6969 H   0  0  0  0  0  0  0  0  0  0  0  0
   39.9433   31.4361   47.7400 H   0  0  0  0  0  0  0  0  0  0  0  0
   36.2738   29.2039   42.8729 H   0  0  0  0  0  0  0  0  0  0  0  0
   34.1568   32.8539   42.2420 H   0  0  0  0  0  0  0  0  0  0  0  0
   35.8729   33.2117   44.1647 H   0  0  0  0  0  0  0  0  0  0  0  0
   41.5090   32.5192   46.2841 H   0  0  0  0  0  0  0  0  0  0  0  0
   41.5205   31.5637   44.7631 H   0  0  0  0  0  0  0  0  0  0  0  0
   40.8869   33.2445   44.7631 H   0  0  0  0  0  0  0  0  0  0  0  0
  1  2  2  0
  3  2  1  0
  4  3  2  0
  5  6  2  0
  5  4  1  0
  6  1  1  0
  7  5  1  0
  8  7  1  0
  9  8  2  0
 10 12  1  0
 10  9  1  0
 11 10  2  0
 12 13  1  0
 13 14  2  0
 13  7  1  0
 15 12  1  0
 16 15  2  0
 17 18  2  0
 17 16  1  0
 18 19  1  0
 19 15  1  0
 20  9  1  0
  1 21  1  0
  2 22  1  0
  3 23  1  0
  8 24  1  0
 16 25  1  0
 18 26  1  0
 19 27  1  0
 20 28  1  0
 20 29  1  0
 20 30  1  0
M  ISO  8  21  14  22  14  23  14  24  14  25  14  26  14  27   9  28   8
M  ISO  2  29   8  30   8
M  END
>  <minimizedAffinity>  (1) 
-5.62398195

>  <minimizedRMSD>  (1) 
6.83525848

$$$$
