
     RDKit          3D

 39 42  0  0  0  0  0  0  0  0999 V2000
   33.6910   26.8220   47.7180 C   0  0  0  0  0  0  0  0  0  0  0  0
   32.7190   27.4280   46.9060 C   0  0  0  0  0  0  0  0  0  0  0  0
   32.7180   28.8060   46.9270 C   0  0  0  0  0  0  0  0  0  0  0  0
   33.6040   29.4490   47.6870 N   0  0  0  0  0  0  0  0  0  0  0  0
   34.5230   28.9060   48.4570 C   0  0  0  0  0  0  0  0  0  0  0  0
   34.5180   27.5710   48.4310 N   0  0  0  0  0  0  0  0  0  0  0  0
   35.5480   29.4370   49.3330 C   0  0  0  0  0  0  0  0  0  0  0  0
   35.6270   29.1590   50.7040 C   0  0  0  0  0  0  0  0  0  0  0  0
   36.5860   29.6500   51.5440 C   0  0  0  0  0  0  0  0  0  0  0  0
   37.5530   30.4740   51.0510 C   0  0  0  0  0  0  0  0  0  0  0  0
   37.5460   30.7930   49.7300 C   0  0  0  0  0  0  0  0  0  0  0  0
   38.5430   31.6270   49.2810 C   0  0  0  0  0  0  0  0  0  0  0  0
   38.5990   31.9930   47.9550 C   0  0  0  0  0  0  0  0  0  0  0  0
   37.6220   31.4890   47.1100 C   0  0  0  0  0  0  0  0  0  0  0  0
   36.6490   30.6600   47.6090 C   0  0  0  0  0  0  0  0  0  0  0  0
   36.5600   30.2770   48.9100 C   0  0  0  0  0  0  0  0  0  0  0  0
   31.8100   29.6040   46.1730 N   0  0  0  0  0  0  0  0  0  0  0  0
   32.4240   30.5200   45.3690 C   0  0  0  0  0  0  0  0  0  0  0  0
   31.6100   31.3470   44.5910 C   0  0  0  0  0  0  0  0  0  0  0  0
   32.2430   32.3700   43.6910 C   0  0  0  0  0  0  0  0  0  0  0  0
   30.2150   31.2440   44.6300 C   0  0  0  0  0  0  0  0  0  0  0  0
   29.5090   32.0190   43.9030 O   0  0  0  0  0  0  0  0  0  0  0  0
   29.6960   30.3200   45.4440 N   0  0  0  0  0  0  0  0  0  0  0  0
   30.4710   29.5240   46.1930 C   0  0  0  0  0  0  0  0  0  0  0  0
   30.0060   28.6450   46.9700 O   0  0  0  0  0  0  0  0  0  0  0  0
   33.7655   25.7254   47.7618 H   0  0  0  0  0  0  0  0  0  0  0  0
   32.0107   26.8460   46.2981 H   0  0  0  0  0  0  0  0  0  0  0  0
   34.8613   28.4974   51.1353 H   0  0  0  0  0  0  0  0  0  0  0  0
   36.5777   29.3821   52.6108 H   0  0  0  0  0  0  0  0  0  0  0  0
   38.3314   30.8769   51.7156 H   0  0  0  0  0  0  0  0  0  0  0  0
   39.2997   32.0036   49.9850 H   0  0  0  0  0  0  0  0  0  0  0  0
   39.3891   32.6602   47.5800 H   0  0  0  0  0  0  0  0  0  0  0  0
   37.6269   31.7531   46.0422 H   0  0  0  0  0  0  0  0  0  0  0  0
   35.8902   30.2800   46.9091 H   0  0  0  0  0  0  0  0  0  0  0  0
   33.5202   30.6041   45.3348 H   0  0  0  0  0  0  0  0  0  0  0  0
   32.7244   33.1480   44.3018 H   0  0  0  0  0  0  0  0  0  0  0  0
   32.9978   31.8829   43.0561 H   0  0  0  0  0  0  0  0  0  0  0  0
   31.4703   32.8281   43.0561 H   0  0  0  0  0  0  0  0  0  0  0  0
   28.6725   30.2169   45.4971 H   0  0  0  0  0  0  0  0  0  0  0  0
  1  6  2  0
  2  3  2  0
  2  1  1  0
  3  4  1  0
  4  5  2  0
  5  7  1  0
  6  5  1  0
  7  8  2  0
  8  9  1  0
 10  9  2  0
 11 10  1  0
 12 11  2  0
 13 12  1  0
 14 15  1  0
 14 13  2  0
 15 16  2  0
 16  7  1  0
 16 11  1  0
 17 24  1  0
 17  3  1  0
 18 17  1  0
 19 21  1  0
 19 18  2  0
 20 19  1  0
 21 23  1  0
 22 21  2  0
 23 24  1  0
 24 25  2  0
  1 26  1  0
  2 27  1  0
  8 28  1  0
  9 29  1  0
 10 30  1  0
 12 31  1  0
 13 32  1  0
 14 33  1  0
 15 34  1  0
 18 35  1  0
 20 36  1  0
 20 37  1  0
 20 38  1  0
 23 39  1  0
M  ISO  8  26  14  27  14  28  14  29  14  30  14  31  14  32  14  33  14
M  ISO  6  34  14  35  14  36   8  37   8  38   8  39   9
M  END
>  <minimizedAffinity>  (1) 
-7.15938807

>  <minimizedRMSD>  (1) 
0.96979785

$$$$
