
     RDKit          3D

 33 35  0  0  0  0  0  0  0  0999 V2000
   35.7510   29.4170   49.3130 C   0  0  0  0  0  0  0  0  0  0  0  0
   35.7260   29.0590   50.6760 C   0  0  0  0  0  0  0  0  0  0  0  0
   36.5840   29.5820   51.6110 C   0  0  0  0  0  0  0  0  0  0  0  0
   37.5260   30.5000   51.2410 C   0  0  0  0  0  0  0  0  0  0  0  0
   37.6010   30.8890   49.9270 C   0  0  0  0  0  0  0  0  0  0  0  0
   38.5660   31.8110   49.6220 C   0  0  0  0  0  0  0  0  0  0  0  0
   38.7020   32.2430   48.3400 C   0  0  0  0  0  0  0  0  0  0  0  0
   37.8410   31.7220   47.3820 C   0  0  0  0  0  0  0  0  0  0  0  0
   36.8950   30.8020   47.7570 C   0  0  0  0  0  0  0  0  0  0  0  0
   36.7230   30.3430   49.0200 C   0  0  0  0  0  0  0  0  0  0  0  0
   33.6490   26.8930   47.8750 C   0  0  0  0  0  0  0  0  0  0  0  0
   33.0780   27.4080   46.7260 C   0  0  0  0  0  0  0  0  0  0  0  0
   33.4350   28.7010   46.4180 C   0  0  0  0  0  0  0  0  0  0  0  0
   34.2830   29.3210   47.2460 N   0  0  0  0  0  0  0  0  0  0  0  0
   34.8390   28.8600   48.3390 C   0  0  0  0  0  0  0  0  0  0  0  0
   34.4790   27.6140   48.6130 N   0  0  0  0  0  0  0  0  0  0  0  0
   32.9610   29.3980   45.2750 N   0  0  0  0  0  0  0  0  0  0  0  0
   32.9310   30.8150   45.1600 C   0  0  0  0  0  0  0  0  0  0  0  0
   32.4630   31.4280   46.2240 N   0  0  0  0  0  0  0  0  0  0  0  0
   33.3950   31.4200   43.9410 N   0  0  0  0  0  0  0  0  0  0  0  0
   32.4280   32.4550   46.1730 H   0  0  0  0  0  0  0  0  0  0  0  0
   34.9799   28.3219   51.0078 H   0  0  0  0  0  0  0  0  0  0  0  0
   36.5131   29.2613   52.6608 H   0  0  0  0  0  0  0  0  0  0  0  0
   38.2156   30.9220   51.9869 H   0  0  0  0  0  0  0  0  0  0  0  0
   39.2277   32.2002   50.4098 H   0  0  0  0  0  0  0  0  0  0  0  0
   39.4702   32.9824   48.0695 H   0  0  0  0  0  0  0  0  0  0  0  0
   37.9172   32.0441   46.3330 H   0  0  0  0  0  0  0  0  0  0  0  0
   36.2279   30.4086   46.9758 H   0  0  0  0  0  0  0  0  0  0  0  0
   33.4091   25.8643   48.1821 H   0  0  0  0  0  0  0  0  0  0  0  0
   32.3860   26.8245   46.1010 H   0  0  0  0  0  0  0  0  0  0  0  0
   32.6172   28.8420   44.4790 H   0  0  0  0  0  0  0  0  0  0  0  0
   33.3818   32.4447   43.8371 H   0  0  0  0  0  0  0  0  0  0  0  0
   33.7406   30.8287   43.1717 H   0  0  0  0  0  0  0  0  0  0  0  0
  1  2  2  0
  2  3  1  0
  4  3  2  0
  5  4  1  0
  6  5  2  0
  7  6  1  0
  8  9  1  0
  8  7  2  0
  9 10  2  0
 10  1  1  0
 10  5  1  0
 11 16  2  0
 12 11  1  0
 13 12  2  0
 13 14  1  0
 14 15  2  0
 15 16  1  0
 15  1  1  0
 17 13  1  0
 18 17  1  0
 18 19  2  0
 20 18  1  0
 21 19  1  0
  2 22  1  0
  3 23  1  0
  4 24  1  0
  6 25  1  0
  7 26  1  0
  8 27  1  0
  9 28  1  0
 11 29  1  0
 12 30  1  0
 17 31  1  0
 20 32  1  0
 20 33  1  0
M  ISO  8  22  14  23  14  24  14  25  14  26  14  27  14  28  14  29  14
M  ISO  1  30  14
M  END
>  <minimizedAffinity>  (1) 
-6.97300768

>  <minimizedRMSD>  (1) 
0.755474508

$$$$
