
     RDKit          3D

 36 38  0  0  0  0  0  0  0  0999 V2000
   36.5070   29.0780   49.9430 C   0  0  0  0  0  0  0  0  0  0  0  0
   36.9910   29.7390   51.0840 C   0  0  0  0  0  0  0  0  0  0  0  0
   37.8470   30.8270   50.8790 C   0  0  0  0  0  0  0  0  0  0  0  0
   38.1510   31.1730   49.5930 N   0  0  0  0  0  0  0  0  0  0  0  0
   37.6680   30.5160   48.5230 C   0  0  0  0  0  0  0  0  0  0  0  0
   36.8570   29.4830   48.7110 N   0  0  0  0  0  0  0  0  0  0  0  0
   38.0330   30.9360   47.2170 N   0  0  0  0  0  0  0  0  0  0  0  0
   39.2550   31.3990   46.9410 C   0  0  0  0  0  0  0  0  0  0  0  0
   39.6260   31.8100   45.6850 C   0  0  0  0  0  0  0  0  0  0  0  0
   38.6430   31.7090   44.7380 C   0  0  0  0  0  0  0  0  0  0  0  0
   38.8880   32.0640   43.5480 O   0  0  0  0  0  0  0  0  0  0  0  0
   37.4000   31.2560   44.9430 N   0  0  0  0  0  0  0  0  0  0  0  0
   37.1140   30.8700   46.2130 C   0  0  0  0  0  0  0  0  0  0  0  0
   35.9530   30.4370   46.4490 O   0  0  0  0  0  0  0  0  0  0  0  0
   36.4070   31.1730   43.9090 C   0  0  0  0  0  0  0  0  0  0  0  0
   36.2120   32.4050   43.0940 C   0  0  0  0  0  0  0  0  0  0  0  0
   35.1420   31.8920   42.1170 C   0  0  0  0  0  0  0  0  0  0  0  0
   35.5110   30.4310   41.8830 C   0  0  0  0  0  0  0  0  0  0  0  0
   36.6390   30.1230   42.8770 C   0  0  0  0  0  0  0  0  0  0  0  0
   40.9660   32.3270   45.3320 C   0  0  0  0  0  0  0  0  0  0  0  0
   35.8323   28.2171   50.0599 H   0  0  0  0  0  0  0  0  0  0  0  0
   36.7089   29.4149   52.0966 H   0  0  0  0  0  0  0  0  0  0  0  0
   38.2631   31.3875   51.7291 H   0  0  0  0  0  0  0  0  0  0  0  0
   39.9945   31.4532   47.7536 H   0  0  0  0  0  0  0  0  0  0  0  0
   35.5344   30.9535   44.5417 H   0  0  0  0  0  0  0  0  0  0  0  0
   35.8448   33.2455   43.7012 H   0  0  0  0  0  0  0  0  0  0  0  0
   37.1223   32.8065   42.6248 H   0  0  0  0  0  0  0  0  0  0  0  0
   34.1387   31.9738   42.5605 H   0  0  0  0  0  0  0  0  0  0  0  0
   35.1145   32.4722   41.1829 H   0  0  0  0  0  0  0  0  0  0  0  0
   34.6441   29.7813   42.0734 H   0  0  0  0  0  0  0  0  0  0  0  0
   35.8257   30.2532   40.8441 H   0  0  0  0  0  0  0  0  0  0  0  0
   36.5393   29.1125   43.3000 H   0  0  0  0  0  0  0  0  0  0  0  0
   37.6467   30.1368   42.4362 H   0  0  0  0  0  0  0  0  0  0  0  0
   41.5291   32.5443   46.2516 H   0  0  0  0  0  0  0  0  0  0  0  0
   41.5060   31.5727   44.7409 H   0  0  0  0  0  0  0  0  0  0  0  0
   40.8594   33.2486   44.7409 H   0  0  0  0  0  0  0  0  0  0  0  0
  1  2  2  0
  3  2  1  0
  4  3  2  0
  5  6  2  0
  5  4  1  0
  6  1  1  0
  7  5  1  0
  8  7  1  0
  9  8  2  0
 10 12  1  0
 10  9  1  0
 11 10  2  0
 12 13  1  0
 13 14  2  0
 13  7  1  0
 15 12  1  0
 16 15  1  0
 17 16  1  0
 18 17  1  0
 18 19  1  0
 19 15  1  0
 20  9  1  0
  1 21  1  0
  2 22  1  0
  3 23  1  0
  8 24  1  0
 15 25  1  0
 16 26  1  0
 16 27  1  0
 17 28  1  0
 17 29  1  0
 18 30  1  0
 18 31  1  0
 19 32  1  0
 19 33  1  0
 20 34  1  0
 20 35  1  0
 20 36  1  0
M  ISO  8  21  14  22  14  23  14  24  14  25  13  26  13  27  13  28  13
M  ISO  8  29  13  30  13  31  13  32  13  33  13  34   8  35   8  36   8
M  END
>  <minimizedAffinity>  (1) 
-5.46598196

>  <minimizedRMSD>  (1) 
6.88970184

$$$$
