
     RDKit          3D

 38 41  0  0  0  0  0  0  0  0999 V2000
   35.6330   29.5010   49.2940 C   0  0  0  0  0  0  0  0  0  0  0  0
   35.6380   29.1420   50.6390 C   0  0  0  0  0  0  0  0  0  0  0  0
   36.5290   29.5990   51.5670 C   0  0  0  0  0  0  0  0  0  0  0  0
   37.5090   30.4780   51.1910 C   0  0  0  0  0  0  0  0  0  0  0  0
   37.5720   30.8770   49.8950 C   0  0  0  0  0  0  0  0  0  0  0  0
   38.5730   31.7600   49.5630 C   0  0  0  0  0  0  0  0  0  0  0  0
   38.7000   32.2090   48.2770 C   0  0  0  0  0  0  0  0  0  0  0  0
   37.7930   31.7430   47.3340 C   0  0  0  0  0  0  0  0  0  0  0  0
   36.8160   30.8650   47.7140 C   0  0  0  0  0  0  0  0  0  0  0  0
   36.6500   30.3900   48.9890 C   0  0  0  0  0  0  0  0  0  0  0  0
   33.6200   26.9890   47.7090 C   0  0  0  0  0  0  0  0  0  0  0  0
   32.9180   27.5970   46.6660 C   0  0  0  0  0  0  0  0  0  0  0  0
   33.1600   28.9570   46.5060 C   0  0  0  0  0  0  0  0  0  0  0  0
   34.0140   29.5540   47.3320 N   0  0  0  0  0  0  0  0  0  0  0  0
   34.6830   29.0120   48.3160 C   0  0  0  0  0  0  0  0  0  0  0  0
   34.4460   27.7070   48.4630 N   0  0  0  0  0  0  0  0  0  0  0  0
   32.5420   29.7560   45.4990 N   0  0  0  0  0  0  0  0  0  0  0  0
   31.4160   30.6700   45.6220 C   0  0  0  0  0  0  0  0  0  0  0  0
   31.6530   31.8170   44.6890 C   0  0  0  0  0  0  0  0  0  0  0  0
   32.8750   31.4000   43.8860 C   0  0  0  0  0  0  0  0  0  0  0  0
   32.8500   29.8870   44.0820 C   0  0  0  0  0  0  0  0  0  0  0  0
   34.8657   28.4368   50.9799 H   0  0  0  0  0  0  0  0  0  0  0  0
   36.4598   29.2625   52.6120 H   0  0  0  0  0  0  0  0  0  0  0  0
   38.2339   30.8550   51.9275 H   0  0  0  0  0  0  0  0  0  0  0  0
   39.2750   32.1069   50.3355 H   0  0  0  0  0  0  0  0  0  0  0  0
   39.4950   32.9165   47.9987 H   0  0  0  0  0  0  0  0  0  0  0  0
   37.8602   32.0780   46.2884 H   0  0  0  0  0  0  0  0  0  0  0  0
   36.1142   30.5154   46.9425 H   0  0  0  0  0  0  0  0  0  0  0  0
   33.4892   25.9148   47.9066 H   0  0  0  0  0  0  0  0  0  0  0  0
   32.2243   27.0408   46.0184 H   0  0  0  0  0  0  0  0  0  0  0  0
   30.4835   30.1535   45.3506 H   0  0  0  0  0  0  0  0  0  0  0  0
   31.3247   31.0297   46.6575 H   0  0  0  0  0  0  0  0  0  0  0  0
   30.7860   31.9685   44.0292 H   0  0  0  0  0  0  0  0  0  0  0  0
   31.8035   32.7680   45.2210 H   0  0  0  0  0  0  0  0  0  0  0  0
   33.7958   31.8447   44.2915 H   0  0  0  0  0  0  0  0  0  0  0  0
   32.8575   31.7212   42.8341 H   0  0  0  0  0  0  0  0  0  0  0  0
   32.0717   29.4189   43.4614 H   0  0  0  0  0  0  0  0  0  0  0  0
   33.7882   29.3922   43.7904 H   0  0  0  0  0  0  0  0  0  0  0  0
  1  2  2  0
  2  3  1  0
  4  3  2  0
  5  4  1  0
  6  5  2  0
  7  6  1  0
  8  9  1  0
  8  7  2  0
  9 10  2  0
 10  1  1  0
 10  5  1  0
 11 16  2  0
 12 11  1  0
 13 12  2  0
 13 14  1  0
 14 15  2  0
 15 16  1  0
 15  1  1  0
 17 18  1  0
 17 13  1  0
 19 18  1  0
 20 21  1  0
 20 19  1  0
 21 17  1  0
  2 22  1  0
  3 23  1  0
  4 24  1  0
  6 25  1  0
  7 26  1  0
  8 27  1  0
  9 28  1  0
 11 29  1  0
 12 30  1  0
 18 31  1  0
 18 32  1  0
 19 33  1  0
 19 34  1  0
 20 35  1  0
 20 36  1  0
 21 37  1  0
 21 38  1  0
M  ISO  8  22  14  23  14  24  14  25  14  26  14  27  14  28  14  29  14
M  ISO  8  30  14  31  13  32  13  33  13  34  13  35  13  36  13  37  13
M  ISO  1  38  13
M  END
>  <minimizedAffinity>  (1) 
-6.60790825

>  <minimizedRMSD>  (1) 
0.381813139

$$$$
