
     RDKit          3D

 27 29  0  0  0  0  0  0  0  0999 V2000
   35.5280   29.5550   49.2420 C   0  0  0  0  0  0  0  0  0  0  0  0
   35.5080   29.1530   50.5870 C   0  0  0  0  0  0  0  0  0  0  0  0
   36.4290   29.5510   51.5260 C   0  0  0  0  0  0  0  0  0  0  0  0
   37.4460   30.3880   51.1760 C   0  0  0  0  0  0  0  0  0  0  0  0
   37.5180   30.8110   49.8860 C   0  0  0  0  0  0  0  0  0  0  0  0
   38.5650   31.6600   49.5680 C   0  0  0  0  0  0  0  0  0  0  0  0
   38.7140   32.1340   48.2900 C   0  0  0  0  0  0  0  0  0  0  0  0
   37.7850   31.7330   47.3480 C   0  0  0  0  0  0  0  0  0  0  0  0
   36.7610   30.8870   47.7120 C   0  0  0  0  0  0  0  0  0  0  0  0
   36.5830   30.3990   48.9640 C   0  0  0  0  0  0  0  0  0  0  0  0
   33.6210   27.1420   47.3950 C   0  0  0  0  0  0  0  0  0  0  0  0
   32.7870   27.8340   46.5320 C   0  0  0  0  0  0  0  0  0  0  0  0
   32.8840   29.2100   46.5860 C   0  0  0  0  0  0  0  0  0  0  0  0
   33.7500   29.7580   47.4420 N   0  0  0  0  0  0  0  0  0  0  0  0
   34.5470   29.1260   48.2660 C   0  0  0  0  0  0  0  0  0  0  0  0
   34.4430   27.7950   48.2040 N   0  0  0  0  0  0  0  0  0  0  0  0
   31.9080   30.3060   45.5670 S   0  0  0  0  0  0  0  0  0  0  0  0
   34.7034   28.4760   50.9099 H   0  0  0  0  0  0  0  0  0  0  0  0
   36.3452   29.1931   52.5628 H   0  0  0  0  0  0  0  0  0  0  0  0
   38.1897   30.7131   51.9184 H   0  0  0  0  0  0  0  0  0  0  0  0
   39.2829   31.9565   50.3470 H   0  0  0  0  0  0  0  0  0  0  0  0
   39.5417   32.8080   48.0243 H   0  0  0  0  0  0  0  0  0  0  0  0
   37.8635   32.0888   46.3101 H   0  0  0  0  0  0  0  0  0  0  0  0
   36.0408   30.5879   46.9363 H   0  0  0  0  0  0  0  0  0  0  0  0
   33.6008   26.0423   47.4089 H   0  0  0  0  0  0  0  0  0  0  0  0
   32.0936   27.3212   45.8492 H   0  0  0  0  0  0  0  0  0  0  0  0
   31.1686   31.1363   46.3675 H   0  0  0  0  0  0  0  0  0  0  0  0
  1  2  2  0
  2  3  1  0
  4  3  2  0
  5  4  1  0
  6  5  2  0
  7  6  1  0
  8  9  1  0
  8  7  2  0
  9 10  2  0
 10  1  1  0
 10  5  1  0
 11 16  2  0
 12 13  2  0
 12 11  1  0
 13 14  1  0
 14 15  2  0
 15  1  1  0
 16 15  1  0
 17 13  1  0
  2 18  1  0
  3 19  1  0
  4 20  1  0
  6 21  1  0
  7 22  1  0
  8 23  1  0
  9 24  1  0
 11 25  1  0
 12 26  1  0
 17 27  1  0
M  ISO  8  18  14  19  14  20  14  21  14  22  14  23  14  24  14  25  14
M  ISO  2  26  14  27  11
M  END
>  <minimizedAffinity>  (1) 
-6.39478922

>  <minimizedRMSD>  (1) 
0.0928678885

$$$$
