
     RDKit          3D

 29 31  0  0  0  0  0  0  0  0999 V2000
   35.5430   29.5560   49.2680 C   0  0  0  0  0  0  0  0  0  0  0  0
   35.5430   29.1710   50.6080 C   0  0  0  0  0  0  0  0  0  0  0  0
   36.4730   29.5780   51.5280 C   0  0  0  0  0  0  0  0  0  0  0  0
   37.4840   30.4130   51.1630 C   0  0  0  0  0  0  0  0  0  0  0  0
   37.5360   30.8220   49.8680 C   0  0  0  0  0  0  0  0  0  0  0  0
   38.5780   31.6720   49.5330 C   0  0  0  0  0  0  0  0  0  0  0  0
   38.7060   32.1320   48.2520 C   0  0  0  0  0  0  0  0  0  0  0  0
   37.7670   31.7220   47.3170 C   0  0  0  0  0  0  0  0  0  0  0  0
   36.7550   30.8800   47.7030 C   0  0  0  0  0  0  0  0  0  0  0  0
   36.5890   30.3990   48.9570 C   0  0  0  0  0  0  0  0  0  0  0  0
   33.6190   27.1220   47.4520 C   0  0  0  0  0  0  0  0  0  0  0  0
   32.7730   27.8040   46.5940 C   0  0  0  0  0  0  0  0  0  0  0  0
   32.8690   29.1780   46.6420 C   0  0  0  0  0  0  0  0  0  0  0  0
   33.7430   29.7350   47.4840 N   0  0  0  0  0  0  0  0  0  0  0  0
   34.5530   29.1160   48.3060 C   0  0  0  0  0  0  0  0  0  0  0  0
   34.4460   27.7830   48.2460 N   0  0  0  0  0  0  0  0  0  0  0  0
   32.0380   30.0390   45.7920 C   0  0  0  0  0  0  0  0  0  0  0  0
   34.7439   28.4962   50.9489 H   0  0  0  0  0  0  0  0  0  0  0  0
   36.4022   29.2277   52.5683 H   0  0  0  0  0  0  0  0  0  0  0  0
   38.2357   30.7465   51.8936 H   0  0  0  0  0  0  0  0  0  0  0  0
   39.3045   31.9776   50.3004 H   0  0  0  0  0  0  0  0  0  0  0  0
   39.5284   32.8065   47.9714 H   0  0  0  0  0  0  0  0  0  0  0  0
   37.8332   32.0689   46.2752 H   0  0  0  0  0  0  0  0  0  0  0  0
   36.0261   30.5738   46.9382 H   0  0  0  0  0  0  0  0  0  0  0  0
   33.6036   26.0223   47.4738 H   0  0  0  0  0  0  0  0  0  0  0  0
   32.0736   27.2857   45.9215 H   0  0  0  0  0  0  0  0  0  0  0  0
   31.4133   30.6862   46.4252 H   0  0  0  0  0  0  0  0  0  0  0  0
   32.6852   30.6617   45.1569 H   0  0  0  0  0  0  0  0  0  0  0  0
   31.3927   29.4143   45.1569 H   0  0  0  0  0  0  0  0  0  0  0  0
  1  2  2  0
  2  3  1  0
  4  3  2  0
  5  4  1  0
  6  5  2  0
  7  6  1  0
  8  9  1  0
  8  7  2  0
  9 10  2  0
 10  1  1  0
 10  5  1  0
 11 16  2  0
 12 13  2  0
 12 11  1  0
 13 14  1  0
 14 15  2  0
 15  1  1  0
 16 15  1  0
 17 13  1  0
  2 18  1  0
  3 19  1  0
  4 20  1  0
  6 21  1  0
  7 22  1  0
  8 23  1  0
  9 24  1  0
 11 25  1  0
 12 26  1  0
 17 27  1  0
 17 28  1  0
 17 29  1  0
M  ISO  8  18  14  19  14  20  14  21  14  22  14  23  14  24  14  25  14
M  ISO  4  26  14  27   8  28   8  29   8
M  END
>  <minimizedAffinity>  (1) 
-6.37959242

>  <minimizedRMSD>  (1) 
0.12500301

$$$$
