
     RDKit          3D

 30 32  0  0  0  0  0  0  0  0999 V2000
   36.7670   31.2310   43.3480 C   0  0  0  0  0  0  0  0  0  0  0  0
   35.7280   31.5120   42.4320 C   0  0  0  0  0  0  0  0  0  0  0  0
   34.4130   31.1560   42.8000 C   0  0  0  0  0  0  0  0  0  0  0  0
   34.2220   30.5620   44.0220 N   0  0  0  0  0  0  0  0  0  0  0  0
   35.2450   30.3140   44.8640 C   0  0  0  0  0  0  0  0  0  0  0  0
   36.4880   30.6450   44.5280 N   0  0  0  0  0  0  0  0  0  0  0  0
   34.9720   29.6960   46.1130 N   0  0  0  0  0  0  0  0  0  0  0  0
   34.0360   28.7570   46.2610 C   0  0  0  0  0  0  0  0  0  0  0  0
   33.7550   28.1460   47.4600 C   0  0  0  0  0  0  0  0  0  0  0  0
   34.5170   28.5750   48.5120 C   0  0  0  0  0  0  0  0  0  0  0  0
   34.3260   28.0660   49.6500 O   0  0  0  0  0  0  0  0  0  0  0  0
   35.4720   29.5100   48.4380 N   0  0  0  0  0  0  0  0  0  0  0  0
   35.6780   30.0580   47.2130 C   0  0  0  0  0  0  0  0  0  0  0  0
   36.5750   30.9420   47.1210 O   0  0  0  0  0  0  0  0  0  0  0  0
   36.2570   29.9440   49.5430 C   0  0  0  0  0  0  0  0  0  0  0  0
   36.7830   29.2290   50.5900 C   0  0  0  0  0  0  0  0  0  0  0  0
   37.4900   30.0690   51.4500 C   0  0  0  0  0  0  0  0  0  0  0  0
   37.3560   31.2970   50.8710 N   0  0  0  0  0  0  0  0  0  0  0  0
   36.6360   31.2140   49.7600 N   0  0  0  0  0  0  0  0  0  0  0  0
   32.7200   27.1010   47.6540 C   0  0  0  0  0  0  0  0  0  0  0  0
   37.8057   31.4915   43.0966 H   0  0  0  0  0  0  0  0  0  0  0  0
   35.9374   31.9921   41.4647 H   0  0  0  0  0  0  0  0  0  0  0  0
   33.5652   31.3492   42.1263 H   0  0  0  0  0  0  0  0  0  0  0  0
   33.4575   28.4552   45.3754 H   0  0  0  0  0  0  0  0  0  0  0  0
   36.6635   28.1446   50.7311 H   0  0  0  0  0  0  0  0  0  0  0  0
   38.0266   29.8049   52.3732 H   0  0  0  0  0  0  0  0  0  0  0  0
   37.7584   32.1683   51.2449 H   0  0  0  0  0  0  0  0  0  0  0  0
   32.5596   26.9391   48.7301 H   0  0  0  0  0  0  0  0  0  0  0  0
   31.7783   27.4266   47.1879 H   0  0  0  0  0  0  0  0  0  0  0  0
   33.0546   26.1625   47.1879 H   0  0  0  0  0  0  0  0  0  0  0  0
  1  6  2  0
  2  3  2  0
  2  1  1  0
  3  4  1  0
  4  5  2  0
  5  7  1  0
  6  5  1  0
  7  8  1  0
  7 13  1  0
  8  9  2  0
  9 20  1  0
  9 10  1  0
 10 11  2  0
 12 10  1  0
 12 15  1  0
 13 12  1  0
 14 13  2  0
 15 19  2  0
 15 16  1  0
 16 17  2  0
 18 17  1  0
 19 18  1  0
  1 21  1  0
  2 22  1  0
  3 23  1  0
  8 24  1  0
 16 25  1  0
 17 26  1  0
 18 27  1  0
 20 28  1  0
 20 29  1  0
 20 30  1  0
M  ISO  8  21  14  22  14  23  14  24  14  25  14  26  14  27   9  28   8
M  ISO  2  29   8  30   8
M  END
>  <minimizedAffinity>  (1) 
-5.2394681

>  <minimizedRMSD>  (1) 
5.06639194

$$$$
