
     RDKit          3D

 26 27  0  0  0  0  0  0  0  0999 V2000
   37.2290   30.6520   49.2280 C   0  0  0  0  0  0  0  0  0  0  0  0
   37.0730   31.8850   49.8780 C   0  0  0  0  0  0  0  0  0  0  0  0
   37.8030   32.9800   49.3820 C   0  0  0  0  0  0  0  0  0  0  0  0
   38.6040   32.7750   48.3130 N   0  0  0  0  0  0  0  0  0  0  0  0
   38.7330   31.5590   47.7020 C   0  0  0  0  0  0  0  0  0  0  0  0
   38.0390   30.5260   48.1780 N   0  0  0  0  0  0  0  0  0  0  0  0
   39.6410   31.4640   46.5450 C   0  0  0  0  0  0  0  0  0  0  0  0
   39.0760   30.5490   45.4600 C   0  0  0  0  0  0  0  0  0  0  0  0
   39.9070   30.9160   44.2630 C   0  0  0  0  0  0  0  0  0  0  0  0
   40.5510   32.2440   44.5370 C   0  0  0  0  0  0  0  0  0  0  0  0
   39.7990   32.7360   45.7680 C   0  0  0  0  0  0  0  0  0  0  0  0
   36.4500   29.4700   49.7540 C   0  0  0  0  0  0  0  0  0  0  0  0
   35.8170   28.8350   48.7160 F   0  0  0  0  0  0  0  0  0  0  0  0
   37.3220   28.6770   50.4550 F   0  0  0  0  0  0  0  0  0  0  0  0
   35.4690   29.9730   50.5970 F   0  0  0  0  0  0  0  0  0  0  0  0
   36.4038   31.9917   50.7445 H   0  0  0  0  0  0  0  0  0  0  0  0
   37.7244   33.9725   49.8497 H   0  0  0  0  0  0  0  0  0  0  0  0
   40.5770   31.1301   47.0166 H   0  0  0  0  0  0  0  0  0  0  0  0
   39.2066   29.4895   45.7253 H   0  0  0  0  0  0  0  0  0  0  0  0
   37.9950   30.6736   45.2993 H   0  0  0  0  0  0  0  0  0  0  0  0
   39.2666   30.9882   43.3715 H   0  0  0  0  0  0  0  0  0  0  0  0
   40.6740   30.1491   44.0798 H   0  0  0  0  0  0  0  0  0  0  0  0
   41.6242   32.1279   44.7484 H   0  0  0  0  0  0  0  0  0  0  0  0
   40.4956   32.9389   43.6861 H   0  0  0  0  0  0  0  0  0  0  0  0
   40.3858   33.4793   46.3277 H   0  0  0  0  0  0  0  0  0  0  0  0
   38.8509   33.2461   45.5421 H   0  0  0  0  0  0  0  0  0  0  0  0
  1 12  1  0
  1  2  2  0
  3  2  1  0
  4  3  2  0
  5  6  2  0
  5  4  1  0
  6  1  1  0
  7  5  1  0
  8  7  1  0
  9 10  1  0
  9  8  1  0
 10 11  1  0
 11  7  1  0
 12 14  1  0
 12 15  1  0
 13 12  1  0
  2 16  1  0
  3 17  1  0
  7 18  1  0
  8 19  1  0
  8 20  1  0
  9 21  1  0
  9 22  1  0
 10 23  1  0
 10 24  1  0
 11 25  1  0
 11 26  1  0
M  ISO  8  16  14  17  14  18  13  19  13  20  13  21  13  22  13  23  13
M  ISO  3  24  13  25  13  26  13
M  END
>  <minimizedAffinity>  (1) 
-5.76900291

>  <minimizedRMSD>  (1) 
2.86620188

$$$$
