
     RDKit          3D

 27 28  0  0  0  0  0  0  0  0999 V2000
   37.3640   30.2840   50.0140 C   0  0  0  0  0  0  0  0  0  0  0  0
   38.2930   31.3270   50.0930 C   0  0  0  0  0  0  0  0  0  0  0  0
   38.5500   32.0950   48.9550 C   0  0  0  0  0  0  0  0  0  0  0  0
   37.8660   31.7710   47.8220 N   0  0  0  0  0  0  0  0  0  0  0  0
   36.9740   30.7580   47.7720 C   0  0  0  0  0  0  0  0  0  0  0  0
   36.7320   30.0270   48.8630 N   0  0  0  0  0  0  0  0  0  0  0  0
   36.2870   30.4690   46.5460 N   0  0  0  0  0  0  0  0  0  0  0  0
   37.0050   30.7750   45.3500 C   0  0  0  0  0  0  0  0  0  0  0  0
   36.1860   30.8500   44.1190 C   0  0  0  0  0  0  0  0  0  0  0  0
   34.9720   30.1140   44.1090 N   0  0  0  0  0  0  0  0  0  0  0  0
   34.6590   29.3180   45.2440 C   0  0  0  0  0  0  0  0  0  0  0  0
   34.9660   29.9120   46.5750 C   0  0  0  0  0  0  0  0  0  0  0  0
   37.0910   29.4590   51.2430 C   0  0  0  0  0  0  0  0  0  0  0  0
   35.7470   29.2050   51.3420 F   0  0  0  0  0  0  0  0  0  0  0  0
   37.8750   28.3410   51.1750 F   0  0  0  0  0  0  0  0  0  0  0  0
   37.4620   30.2210   52.3360 F   0  0  0  0  0  0  0  0  0  0  0  0
   38.8139   31.5393   51.0383 H   0  0  0  0  0  0  0  0  0  0  0  0
   39.2724   32.9244   48.9727 H   0  0  0  0  0  0  0  0  0  0  0  0
   37.4976   31.7486   45.4896 H   0  0  0  0  0  0  0  0  0  0  0  0
   37.7070   29.9422   45.1966 H   0  0  0  0  0  0  0  0  0  0  0  0
   35.9347   31.9077   43.9511 H   0  0  0  0  0  0  0  0  0  0  0  0
   36.8056   30.3915   43.3342 H   0  0  0  0  0  0  0  0  0  0  0  0
   34.2053   30.7915   43.9905 H   0  0  0  0  0  0  0  0  0  0  0  0
   33.5807   29.1025   45.2145 H   0  0  0  0  0  0  0  0  0  0  0  0
   35.3036   28.4302   45.1648 H   0  0  0  0  0  0  0  0  0  0  0  0
   34.9121   29.1314   47.3482 H   0  0  0  0  0  0  0  0  0  0  0  0
   34.2356   30.7014   46.8063 H   0  0  0  0  0  0  0  0  0  0  0  0
  1  2  2  0
  1 13  1  0
  3  2  1  0
  4  3  2  0
  5  4  1  0
  5  6  2  0
  6  1  1  0
  7 12  1  0
  7  5  1  0
  8  7  1  0
  9  8  1  0
 10  9  1  0
 10 11  1  0
 11 12  1  0
 13 14  1  0
 13 16  1  0
 15 13  1  0
  2 17  1  0
  3 18  1  0
  8 19  1  0
  8 20  1  0
  9 21  1  0
  9 22  1  0
 10 23  1  0
 11 24  1  0
 11 25  1  0
 12 26  1  0
 12 27  1  0
M  ISO  8  17  14  18  14  19  13  20  13  21  13  22  13  23   5  24  13
M  ISO  3  25  13  26  13  27  13
M  END
>  <minimizedAffinity>  (1) 
-5.47851038

>  <minimizedRMSD>  (1) 
0.15380542

$$$$
