
     RDKit          3D

 20 21  0  0  0  0  0  0  0  0999 V2000
   37.3730   30.2840   50.0300 C   0  0  0  0  0  0  0  0  0  0  0  0
   38.2890   31.3330   50.1080 C   0  0  0  0  0  0  0  0  0  0  0  0
   38.5190   32.0940   48.9560 C   0  0  0  0  0  0  0  0  0  0  0  0
   37.8360   31.7670   47.8280 N   0  0  0  0  0  0  0  0  0  0  0  0
   36.9510   30.7400   47.7860 C   0  0  0  0  0  0  0  0  0  0  0  0
   36.7290   30.0110   48.8810 N   0  0  0  0  0  0  0  0  0  0  0  0
   36.2680   30.4500   46.5690 N   0  0  0  0  0  0  0  0  0  0  0  0
   36.5650   30.5740   45.2750 N   0  0  0  0  0  0  0  0  0  0  0  0
   35.5270   30.1350   44.5340 C   0  0  0  0  0  0  0  0  0  0  0  0
   34.5230   29.7120   45.4100 C   0  0  0  0  0  0  0  0  0  0  0  0
   35.0340   29.9290   46.6930 C   0  0  0  0  0  0  0  0  0  0  0  0
   37.1080   29.4480   51.2620 C   0  0  0  0  0  0  0  0  0  0  0  0
   35.7570   29.2020   51.3760 F   0  0  0  0  0  0  0  0  0  0  0  0
   37.8880   28.3260   51.1710 F   0  0  0  0  0  0  0  0  0  0  0  0
   37.5040   30.2080   52.3500 F   0  0  0  0  0  0  0  0  0  0  0  0
   38.8155   31.5558   51.0478 H   0  0  0  0  0  0  0  0  0  0  0  0
   39.2316   32.9319   48.9637 H   0  0  0  0  0  0  0  0  0  0  0  0
   35.4790   30.1136   43.4353 H   0  0  0  0  0  0  0  0  0  0  0  0
   33.5394   29.2965   45.1457 H   0  0  0  0  0  0  0  0  0  0  0  0
   34.5170   29.7116   47.6393 H   0  0  0  0  0  0  0  0  0  0  0  0
  1  2  2  0
  1 12  1  0
  3  2  1  0
  4  3  2  0
  5  4  1  0
  5  6  2  0
  6  1  1  0
  7 11  1  0
  7  5  1  0
  8  7  1  0
  9  8  2  0
  9 10  1  0
 10 11  2  0
 12 13  1  0
 12 15  1  0
 14 12  1  0
  2 16  1  0
  3 17  1  0
  9 18  1  0
 10 19  1  0
 11 20  1  0
M  ISO  5  16  14  17  14  18  14  19  14  20  14
M  END
>  <minimizedAffinity>  (1) 
-5.41536474

>  <minimizedRMSD>  (1) 
0.14294523

$$$$
