
     RDKit          3D

 26 27  0  0  0  0  0  0  0  0999 V2000
   36.7850   29.8440   49.5180 C   0  0  0  0  0  0  0  0  0  0  0  0
   37.5970   30.4900   48.5850 C   0  0  0  0  0  0  0  0  0  0  0  0
   37.0690   30.6840   47.3000 C   0  0  0  0  0  0  0  0  0  0  0  0
   35.8200   30.2390   47.0430 N   0  0  0  0  0  0  0  0  0  0  0  0
   35.0550   29.6130   47.9800 C   0  0  0  0  0  0  0  0  0  0  0  0
   35.5560   29.4280   49.2010 N   0  0  0  0  0  0  0  0  0  0  0  0
   31.1740   28.1950   47.1370 C   0  0  0  0  0  0  0  0  0  0  0  0
   31.8350   27.7090   48.2450 C   0  0  0  0  0  0  0  0  0  0  0  0
   33.0990   28.2080   48.4700 C   0  0  0  0  0  0  0  0  0  0  0  0
   33.7210   29.1570   47.6500 C   0  0  0  0  0  0  0  0  0  0  0  0
   33.0140   29.6070   46.5560 C   0  0  0  0  0  0  0  0  0  0  0  0
   31.7270   29.1290   46.2870 C   0  0  0  0  0  0  0  0  0  0  0  0
   29.5590   27.6150   46.7730 S   0  0  0  0  0  0  0  0  0  0  0  0
   28.5790   28.7550   46.6640 O   0  0  0  0  0  0  0  0  0  0  0  0
   29.0550   26.7130   47.8600 O   0  0  0  0  0  0  0  0  0  0  0  0
   37.3370   29.6280   50.9040 C   0  0  0  0  0  0  0  0  0  0  0  0
   36.3090   29.7200   51.8350 F   0  0  0  0  0  0  0  0  0  0  0  0
   37.9970   28.4450   50.9320 F   0  0  0  0  0  0  0  0  0  0  0  0
   38.2010   30.6870   51.1760 F   0  0  0  0  0  0  0  0  0  0  0  0
   38.6090   30.8328   48.8463 H   0  0  0  0  0  0  0  0  0  0  0  0
   37.6587   31.1871   46.5195 H   0  0  0  0  0  0  0  0  0  0  0  0
   31.3781   26.9637   48.9127 H   0  0  0  0  0  0  0  0  0  0  0  0
   33.6525   27.8389   49.3460 H   0  0  0  0  0  0  0  0  0  0  0  0
   33.4676   30.3518   45.8855 H   0  0  0  0  0  0  0  0  0  0  0  0
   31.1663   29.4919   45.4129 H   0  0  0  0  0  0  0  0  0  0  0  0
   29.6498   26.9429   45.5826 H   0  0  0  0  0  0  0  0  0  0  0  0
  1 16  1  0
  2  1  2  0
  3  2  1  0
  4  3  2  0
  4  5  1  0
  5  6  2  0
  6  1  1  0
  7  8  2  0
  8  9  1  0
 10  5  1  0
 10  9  2  0
 11 10  1  0
 12 11  2  0
 12  7  1  0
 13  7  1  0
 13 15  2  0
 14 13  2  0
 16 18  1  0
 16 19  1  0
 16 17  1  0
  2 20  1  0
  3 21  1  0
  8 22  1  0
  9 23  1  0
 11 24  1  0
 12 25  1  0
 13 26  1  0
M  ISO  7  20  14  21  14  22  14  23  14  24  14  25  14  26  11
M  END
>  <minimizedAffinity>  (1) 
-5.32447577

>  <minimizedRMSD>  (1) 
3.61075187

$$$$
