
     RDKit          3D

 22 23  0  0  0  0  0  0  0  0999 V2000
   37.4130   30.2950   50.0690 C   0  0  0  0  0  0  0  0  0  0  0  0
   38.3130   31.3540   50.1840 C   0  0  0  0  0  0  0  0  0  0  0  0
   38.5440   32.1430   49.0580 C   0  0  0  0  0  0  0  0  0  0  0  0
   37.8830   31.8400   47.9080 N   0  0  0  0  0  0  0  0  0  0  0  0
   37.0130   30.8010   47.8320 C   0  0  0  0  0  0  0  0  0  0  0  0
   36.7830   30.0360   48.9070 N   0  0  0  0  0  0  0  0  0  0  0  0
   36.3250   30.5120   46.5780 C   0  0  0  0  0  0  0  0  0  0  0  0
   35.0620   29.9290   46.6100 C   0  0  0  0  0  0  0  0  0  0  0  0
   34.3810   29.6420   45.4600 C   0  0  0  0  0  0  0  0  0  0  0  0
   35.0400   29.9720   44.2840 C   0  0  0  0  0  0  0  0  0  0  0  0
   36.2990   30.5540   44.2030 C   0  0  0  0  0  0  0  0  0  0  0  0
   36.8770   30.7940   45.3860 N   0  0  0  0  0  0  0  0  0  0  0  0
   37.1420   29.4270   51.2650 C   0  0  0  0  0  0  0  0  0  0  0  0
   35.7760   29.1980   51.3800 F   0  0  0  0  0  0  0  0  0  0  0  0
   37.8980   28.3100   51.1810 F   0  0  0  0  0  0  0  0  0  0  0  0
   37.5140   30.1730   52.3850 F   0  0  0  0  0  0  0  0  0  0  0  0
   38.8256   31.5607   51.1351 H   0  0  0  0  0  0  0  0  0  0  0  0
   39.2441   32.9905   49.0984 H   0  0  0  0  0  0  0  0  0  0  0  0
   34.6018   29.6941   47.5811 H   0  0  0  0  0  0  0  0  0  0  0  0
   33.3817   29.1822   45.4662 H   0  0  0  0  0  0  0  0  0  0  0  0
   34.5228   29.7548   43.3378 H   0  0  0  0  0  0  0  0  0  0  0  0
   36.7813   30.7976   43.2449 H   0  0  0  0  0  0  0  0  0  0  0  0
  1  2  2  0
  1 13  1  0
  3  2  1  0
  4  3  2  0
  5  4  1  0
  5  6  2  0
  6  1  1  0
  7  8  2  0
  7  5  1  0
  9  8  1  0
 10  9  2  0
 11 10  1  0
 11 12  2  0
 12  7  1  0
 13 14  1  0
 13 16  1  0
 15 13  1  0
  2 17  1  0
  3 18  1  0
  8 19  1  0
  9 20  1  0
 10 21  1  0
 11 22  1  0
M  ISO  6  17  14  18  14  19  14  20  14  21  14  22  14
M  END
>  <minimizedAffinity>  (1) 
-5.28554153

>  <minimizedRMSD>  (1) 
0.251487076

$$$$
