
     RDKit          3D

 20 21  0  0  0  0  0  0  0  0999 V2000
   36.8110   29.9310   49.6920 C   0  0  0  0  0  0  0  0  0  0  0  0
   37.9450   30.5280   49.1300 C   0  0  0  0  0  0  0  0  0  0  0  0
   37.8850   30.9460   47.7920 C   0  0  0  0  0  0  0  0  0  0  0  0
   36.7120   30.7410   47.1170 N   0  0  0  0  0  0  0  0  0  0  0  0
   35.6440   30.1590   47.7050 C   0  0  0  0  0  0  0  0  0  0  0  0
   35.6980   29.7590   48.9800 N   0  0  0  0  0  0  0  0  0  0  0  0
   34.4410   29.9870   46.8960 C   0  0  0  0  0  0  0  0  0  0  0  0
   34.1540   29.0060   45.9700 C   0  0  0  0  0  0  0  0  0  0  0  0
   32.9290   29.2300   45.4590 N   0  0  0  0  0  0  0  0  0  0  0  0
   32.4630   30.3560   46.0750 C   0  0  0  0  0  0  0  0  0  0  0  0
   33.3770   30.8200   46.9500 N   0  0  0  0  0  0  0  0  0  0  0  0
   36.8690   29.4820   51.1220 C   0  0  0  0  0  0  0  0  0  0  0  0
   35.6000   29.1510   51.5630 F   0  0  0  0  0  0  0  0  0  0  0  0
   37.7690   28.4760   51.2300 F   0  0  0  0  0  0  0  0  0  0  0  0
   37.2770   30.5860   51.8780 F   0  0  0  0  0  0  0  0  0  0  0  0
   38.8612   30.6662   49.7228 H   0  0  0  0  0  0  0  0  0  0  0  0
   38.7487   31.4209   47.3035 H   0  0  0  0  0  0  0  0  0  0  0  0
   34.8190   28.1745   45.6936 H   0  0  0  0  0  0  0  0  0  0  0  0
   31.4830   30.8178   45.8845 H   0  0  0  0  0  0  0  0  0  0  0  0
   33.2828   31.6533   47.5481 H   0  0  0  0  0  0  0  0  0  0  0  0
  1 12  1  0
  2  1  2  0
  3  2  1  0
  4  5  1  0
  4  3  2  0
  5  6  2  0
  6  1  1  0
  7 11  1  0
  7  5  1  0
  8  7  2  0
  9  8  1  0
  9 10  2  0
 10 11  1  0
 12 14  1  0
 12 13  1  0
 12 15  1  0
  2 16  1  0
  3 17  1  0
  8 18  1  0
 10 19  1  0
 11 20  1  0
M  ISO  5  16  14  17  14  18  14  19  14  20   9
M  END
>  <minimizedAffinity>  (1) 
-5.23184919

>  <minimizedRMSD>  (1) 
1.79285061

$$$$
