
     RDKit          3D

 25 25  0  0  0  0  0  0  0  0999 V2000
   37.7390   30.8630   48.9740 C   0  0  0  0  0  0  0  0  0  0  0  0
   38.0280   32.0340   49.6910 C   0  0  0  0  0  0  0  0  0  0  0  0
   38.7280   33.0510   49.0390 C   0  0  0  0  0  0  0  0  0  0  0  0
   39.0840   32.8410   47.7500 N   0  0  0  0  0  0  0  0  0  0  0  0
   38.7900   31.6930   47.0760 C   0  0  0  0  0  0  0  0  0  0  0  0
   38.1220   30.7180   47.6950 N   0  0  0  0  0  0  0  0  0  0  0  0
   36.9810   29.7570   49.6750 C   0  0  0  0  0  0  0  0  0  0  0  0
   36.2780   29.0180   48.7450 F   0  0  0  0  0  0  0  0  0  0  0  0
   37.8810   29.0460   50.4120 F   0  0  0  0  0  0  0  0  0  0  0  0
   36.0520   30.3720   50.5120 F   0  0  0  0  0  0  0  0  0  0  0  0
   39.2010   31.5060   45.6610 C   0  0  0  0  0  0  0  0  0  0  0  0
   40.7060   31.2910   45.6830 C   0  0  0  0  0  0  0  0  0  0  0  0
   38.5420   30.2590   45.0740 C   0  0  0  0  0  0  0  0  0  0  0  0
   38.8460   32.6610   44.7730 C   0  0  0  0  0  0  0  0  0  0  0  0
   37.7116   32.1477   50.7384 H   0  0  0  0  0  0  0  0  0  0  0  0
   38.9811   33.9893   49.5543 H   0  0  0  0  0  0  0  0  0  0  0  0
   41.0541   31.2413   46.7253 H   0  0  0  0  0  0  0  0  0  0  0  0
   40.9494   30.3490   45.1698 H   0  0  0  0  0  0  0  0  0  0  0  0
   41.2034   32.1272   45.1698 H   0  0  0  0  0  0  0  0  0  0  0  0
   38.1976   29.6074   45.8906 H   0  0  0  0  0  0  0  0  0  0  0  0
   37.6828   30.5555   44.4544 H   0  0  0  0  0  0  0  0  0  0  0  0
   39.2710   29.7162   44.4544 H   0  0  0  0  0  0  0  0  0  0  0  0
   38.5788   33.5305   45.3916 H   0  0  0  0  0  0  0  0  0  0  0  0
   39.7079   32.9138   44.1380 H   0  0  0  0  0  0  0  0  0  0  0  0
   37.9909   32.3860   44.1380 H   0  0  0  0  0  0  0  0  0  0  0  0
  1  7  1  0
  1  2  2  0
  3  2  1  0
  4  3  2  0
  5  6  2  0
  5  4  1  0
  6  1  1  0
  7  9  1  0
  7 10  1  0
  8  7  1  0
 11 12  1  0
 11  5  1  0
 13 11  1  0
 14 11  1  0
  2 15  1  0
  3 16  1  0
 12 17  1  0
 12 18  1  0
 12 19  1  0
 13 20  1  0
 13 21  1  0
 13 22  1  0
 14 23  1  0
 14 24  1  0
 14 25  1  0
M  ISO  8  15  14  16  14  17   8  18   8  19   8  20   8  21   8  22   8
M  ISO  3  23   8  24   8  25   8
M  END
>  <minimizedAffinity>  (1) 
-5.18551016

>  <minimizedRMSD>  (1) 
2.50228024

$$$$
