
     RDKit          3D

 20 21  0  0  0  0  0  0  0  0999 V2000
   37.3480   30.2570   50.0570 C   0  0  0  0  0  0  0  0  0  0  0  0
   38.2920   31.2950   50.0960 C   0  0  0  0  0  0  0  0  0  0  0  0
   38.4920   32.0400   48.9310 C   0  0  0  0  0  0  0  0  0  0  0  0
   37.7680   31.7240   47.8340 N   0  0  0  0  0  0  0  0  0  0  0  0
   36.8590   30.7140   47.8220 C   0  0  0  0  0  0  0  0  0  0  0  0
   36.6650   29.9970   48.9370 N   0  0  0  0  0  0  0  0  0  0  0  0
   36.0970   30.4040   46.6150 C   0  0  0  0  0  0  0  0  0  0  0  0
   34.8140   29.8970   46.7780 C   0  0  0  0  0  0  0  0  0  0  0  0
   34.3170   29.6930   45.4850 C   0  0  0  0  0  0  0  0  0  0  0  0
   35.3360   30.0910   44.6230 C   0  0  0  0  0  0  0  0  0  0  0  0
   36.3560   30.4990   45.3340 O   0  0  0  0  0  0  0  0  0  0  0  0
   37.1190   29.4470   51.2910 C   0  0  0  0  0  0  0  0  0  0  0  0
   35.7740   29.1790   51.4400 F   0  0  0  0  0  0  0  0  0  0  0  0
   37.8970   28.3230   51.2150 F   0  0  0  0  0  0  0  0  0  0  0  0
   37.5140   30.2200   52.3740 F   0  0  0  0  0  0  0  0  0  0  0  0
   38.8563   31.5149   51.0143 H   0  0  0  0  0  0  0  0  0  0  0  0
   39.2208   32.8636   48.9071 H   0  0  0  0  0  0  0  0  0  0  0  0
   34.2954   29.6970   47.7272 H   0  0  0  0  0  0  0  0  0  0  0  0
   33.3277   29.3002   45.2077 H   0  0  0  0  0  0  0  0  0  0  0  0
   35.2908   30.0664   43.5242 H   0  0  0  0  0  0  0  0  0  0  0  0
  1  2  2  0
  1 12  1  0
  3  2  1  0
  4  3  2  0
  5  4  1  0
  5  6  2  0
  6  1  1  0
  7  8  2  0
  7  5  1  0
  9  8  1  0
 10 11  1  0
 10  9  2  0
 11  7  1  0
 12 13  1  0
 12 15  1  0
 14 12  1  0
  2 16  1  0
  3 17  1  0
  8 18  1  0
  9 19  1  0
 10 20  1  0
M  ISO  5  16  14  17  14  18  14  19  14  20  14
M  END
>  <minimizedAffinity>  (1) 
-5.13055897

>  <minimizedRMSD>  (1) 
0.294773698

$$$$
