
     RDKit          3D

 22 22  0  0  0  0  0  0  0  0999 V2000
   37.5460   30.4100   49.4400 C   0  0  0  0  0  0  0  0  0  0  0  0
   37.8530   31.5680   50.1550 C   0  0  0  0  0  0  0  0  0  0  0  0
   38.4860   32.6130   49.4620 C   0  0  0  0  0  0  0  0  0  0  0  0
   38.7590   32.4290   48.1490 N   0  0  0  0  0  0  0  0  0  0  0  0
   38.4450   31.2900   47.4940 C   0  0  0  0  0  0  0  0  0  0  0  0
   37.8400   30.2850   48.1400 N   0  0  0  0  0  0  0  0  0  0  0  0
   36.8640   29.2850   50.1840 C   0  0  0  0  0  0  0  0  0  0  0  0
   36.0490   28.5830   49.3040 F   0  0  0  0  0  0  0  0  0  0  0  0
   37.8130   28.5200   50.7690 F   0  0  0  0  0  0  0  0  0  0  0  0
   36.0270   29.8680   51.1280 F   0  0  0  0  0  0  0  0  0  0  0  0
   38.7620   31.1300   46.0500 C   0  0  0  0  0  0  0  0  0  0  0  0
   38.0400   32.2190   45.2750 C   0  0  0  0  0  0  0  0  0  0  0  0
   40.2560   31.1760   45.8010 C   0  0  0  0  0  0  0  0  0  0  0  0
   37.6080   31.6594   51.2235 H   0  0  0  0  0  0  0  0  0  0  0  0
   38.7516   33.5516   49.9704 H   0  0  0  0  0  0  0  0  0  0  0  0
   38.4184   30.1428   45.7075 H   0  0  0  0  0  0  0  0  0  0  0  0
   37.5734   32.9228   45.9799 H   0  0  0  0  0  0  0  0  0  0  0  0
   38.7605   32.7577   44.6420 H   0  0  0  0  0  0  0  0  0  0  0  0
   37.2633   31.7651   44.6420 H   0  0  0  0  0  0  0  0  0  0  0  0
   40.7878   31.1924   46.7637 H   0  0  0  0  0  0  0  0  0  0  0  0
   40.5600   30.2868   45.2293 H   0  0  0  0  0  0  0  0  0  0  0  0
   40.5047   32.0822   45.2293 H   0  0  0  0  0  0  0  0  0  0  0  0
  1  2  2  0
  1  7  1  0
  3  2  1  0
  4  3  2  0
  5  6  2  0
  5  4  1  0
  6  1  1  0
  7  9  1  0
  7 10  1  0
  8  7  1  0
 11  5  1  0
 12 11  1  0
 13 11  1  0
  2 14  1  0
  3 15  1  0
 11 16  1  0
 12 17  1  0
 12 18  1  0
 12 19  1  0
 13 20  1  0
 13 21  1  0
 13 22  1  0
M  ISO  8  14  14  15  14  16   8  17   8  18   8  19   8  20   8  21   8
M  ISO  1  22   8
M  END
>  <minimizedAffinity>  (1) 
-5.07918835

>  <minimizedRMSD>  (1) 
1.8490324

$$$$
