
     RDKit          3D

 20 21  0  0  0  0  0  0  0  0999 V2000
   37.3600   30.2650   50.0400 C   0  0  0  0  0  0  0  0  0  0  0  0
   38.2920   31.3060   50.1010 C   0  0  0  0  0  0  0  0  0  0  0  0
   38.4920   32.0730   48.9450 C   0  0  0  0  0  0  0  0  0  0  0  0
   37.7740   31.7660   47.8270 N   0  0  0  0  0  0  0  0  0  0  0  0
   36.8830   30.7490   47.8140 C   0  0  0  0  0  0  0  0  0  0  0  0
   36.6830   30.0100   48.9140 N   0  0  0  0  0  0  0  0  0  0  0  0
   36.0990   30.3960   46.6330 C   0  0  0  0  0  0  0  0  0  0  0  0
   34.8250   29.8640   46.4390 C   0  0  0  0  0  0  0  0  0  0  0  0
   34.6740   29.7680   45.0580 C   0  0  0  0  0  0  0  0  0  0  0  0
   35.8150   30.2260   44.4650 N   0  0  0  0  0  0  0  0  0  0  0  0
   36.6630   30.6000   45.4280 N   0  0  0  0  0  0  0  0  0  0  0  0
   37.1290   29.4310   51.2680 C   0  0  0  0  0  0  0  0  0  0  0  0
   35.7690   29.1870   51.4160 F   0  0  0  0  0  0  0  0  0  0  0  0
   37.8900   28.3170   51.1840 F   0  0  0  0  0  0  0  0  0  0  0  0
   37.5090   30.2170   52.3580 F   0  0  0  0  0  0  0  0  0  0  0  0
   38.8496   31.5159   51.0256 H   0  0  0  0  0  0  0  0  0  0  0  0
   39.2123   32.9043   48.9397 H   0  0  0  0  0  0  0  0  0  0  0  0
   34.0951   29.5807   47.2117 H   0  0  0  0  0  0  0  0  0  0  0  0
   33.7852   29.3873   44.5335 H   0  0  0  0  0  0  0  0  0  0  0  0
   35.9918   30.2749   43.4515 H   0  0  0  0  0  0  0  0  0  0  0  0
  1  2  2  0
  1 12  1  0
  3  2  1  0
  4  3  2  0
  5  4  1  0
  5  6  2  0
  6  1  1  0
  7  5  1  0
  8  7  1  0
  9  8  2  0
 10  9  1  0
 10 11  1  0
 11  7  2  0
 12 13  1  0
 12 15  1  0
 14 12  1  0
  2 16  1  0
  3 17  1  0
  8 18  1  0
  9 19  1  0
 10 20  1  0
M  ISO  5  16  14  17  14  18  14  19  14  20   9
M  END
>  <minimizedAffinity>  (1) 
-5.06217909

>  <minimizedRMSD>  (1) 
0.161571786

$$$$
