
     RDKit          3D

 33 35  0  0  0  0  0  0  0  0999 V2000
   36.4410   30.5320   46.5480 C   0  0  0  0  0  0  0  0  0  0  0  0
   35.1450   30.0550   46.4890 C   0  0  0  0  0  0  0  0  0  0  0  0
   34.4780   29.7330   45.3390 C   0  0  0  0  0  0  0  0  0  0  0  0
   35.1340   29.8900   44.1340 C   0  0  0  0  0  0  0  0  0  0  0  0
   36.4430   30.3680   44.1510 C   0  0  0  0  0  0  0  0  0  0  0  0
   37.0850   30.6840   45.3500 C   0  0  0  0  0  0  0  0  0  0  0  0
   37.4210   30.3180   50.0630 C   0  0  0  0  0  0  0  0  0  0  0  0
   38.2010   31.4690   50.2360 C   0  0  0  0  0  0  0  0  0  0  0  0
   38.3850   32.3150   49.1360 C   0  0  0  0  0  0  0  0  0  0  0  0
   37.7990   31.9720   47.9660 N   0  0  0  0  0  0  0  0  0  0  0  0
   37.0440   30.8430   47.8280 C   0  0  0  0  0  0  0  0  0  0  0  0
   36.8670   30.0340   48.8790 N   0  0  0  0  0  0  0  0  0  0  0  0
   37.2210   29.4060   51.2480 C   0  0  0  0  0  0  0  0  0  0  0  0
   35.8690   29.1540   51.4010 F   0  0  0  0  0  0  0  0  0  0  0  0
   37.9480   28.2810   51.0360 F   0  0  0  0  0  0  0  0  0  0  0  0
   37.6680   30.0870   52.3670 F   0  0  0  0  0  0  0  0  0  0  0  0
   38.4720   31.1890   45.3410 C   0  0  0  0  0  0  0  0  0  0  0  0
   38.4760   32.5200   44.9100 C   0  0  0  0  0  0  0  0  0  0  0  0
   39.6920   33.2100   44.8220 C   0  0  0  0  0  0  0  0  0  0  0  0
   40.8650   32.5700   45.1590 C   0  0  0  0  0  0  0  0  0  0  0  0
   40.8170   31.2680   45.5760 C   0  0  0  0  0  0  0  0  0  0  0  0
   39.6380   30.5600   45.6740 C   0  0  0  0  0  0  0  0  0  0  0  0
   34.6086   29.9242   47.4404 H   0  0  0  0  0  0  0  0  0  0  0  0
   33.4444   29.3582   45.3732 H   0  0  0  0  0  0  0  0  0  0  0  0
   34.6359   29.6440   43.1846 H   0  0  0  0  0  0  0  0  0  0  0  0
   36.9813   30.4990   43.2007 H   0  0  0  0  0  0  0  0  0  0  0  0
   38.6565   31.7016   51.2099 H   0  0  0  0  0  0  0  0  0  0  0  0
   38.9880   33.2311   49.2205 H   0  0  0  0  0  0  0  0  0  0  0  0
   37.5333   33.0199   44.6428 H   0  0  0  0  0  0  0  0  0  0  0  0
   39.7104   34.2572   44.4857 H   0  0  0  0  0  0  0  0  0  0  0  0
   41.8272   33.0991   45.0936 H   0  0  0  0  0  0  0  0  0  0  0  0
   41.7579   30.7652   45.8442 H   0  0  0  0  0  0  0  0  0  0  0  0
   39.6363   29.5133   46.0124 H   0  0  0  0  0  0  0  0  0  0  0  0
  1 11  1  0
  2  1  2  0
  3  2  1  0
  4  5  1  0
  4  3  2  0
  5  6  2  0
  6  1  1  0
  7  8  2  0
  7 13  1  0
  9  8  1  0
 10  9  2  0
 11 10  1  0
 11 12  2  0
 12  7  1  0
 13 14  1  0
 13 16  1  0
 15 13  1  0
 17  6  1  0
 17 22  1  0
 18 17  2  0
 19 18  1  0
 19 20  2  0
 20 21  1  0
 21 22  2  0
  2 23  1  0
  3 24  1  0
  4 25  1  0
  5 26  1  0
  8 27  1  0
  9 28  1  0
 18 29  1  0
 19 30  1  0
 20 31  1  0
 21 32  1  0
 22 33  1  0
M  ISO  8  23  14  24  14  25  14  26  14  27  14  28  14  29  14  30  14
M  ISO  3  31  14  32  14  33  14
M  END
>  <minimizedAffinity>  (1) 
-7.30592585

>  <minimizedRMSD>  (1) 
0.598915517

$$$$
