
     RDKit          3D

 30 32  0  0  0  0  0  0  0  0999 V2000
   36.5110   30.6140   46.5400 C   0  0  0  0  0  0  0  0  0  0  0  0
   35.2430   30.0370   46.4770 C   0  0  0  0  0  0  0  0  0  0  0  0
   34.6160   29.7310   45.2960 C   0  0  0  0  0  0  0  0  0  0  0  0
   35.2470   29.9970   44.1000 C   0  0  0  0  0  0  0  0  0  0  0  0
   36.5160   30.5750   44.1390 C   0  0  0  0  0  0  0  0  0  0  0  0
   37.1360   30.8780   45.3460 C   0  0  0  0  0  0  0  0  0  0  0  0
   37.4470   30.3450   50.0570 C   0  0  0  0  0  0  0  0  0  0  0  0
   38.2350   31.4730   50.2640 C   0  0  0  0  0  0  0  0  0  0  0  0
   38.4420   32.3320   49.1770 C   0  0  0  0  0  0  0  0  0  0  0  0
   37.8690   32.0180   47.9960 N   0  0  0  0  0  0  0  0  0  0  0  0
   37.1070   30.9070   47.8390 C   0  0  0  0  0  0  0  0  0  0  0  0
   36.9120   30.0920   48.8720 N   0  0  0  0  0  0  0  0  0  0  0  0
   37.2210   29.4150   51.2300 C   0  0  0  0  0  0  0  0  0  0  0  0
   35.8700   29.1760   51.3680 F   0  0  0  0  0  0  0  0  0  0  0  0
   37.9450   28.2900   51.0250 F   0  0  0  0  0  0  0  0  0  0  0  0
   37.6630   30.0830   52.3760 F   0  0  0  0  0  0  0  0  0  0  0  0
   38.4610   31.4810   45.4530 C   0  0  0  0  0  0  0  0  0  0  0  0
   39.4970   30.5440   45.4640 C   0  0  0  0  0  0  0  0  0  0  0  0
   40.6970   31.2510   45.5680 C   0  0  0  0  0  0  0  0  0  0  0  0
   40.3420   32.5650   45.6150 N   0  0  0  0  0  0  0  0  0  0  0  0
   39.0260   32.6790   45.5450 N   0  0  0  0  0  0  0  0  0  0  0  0
   34.7206   29.8167   47.4196 H   0  0  0  0  0  0  0  0  0  0  0  0
   33.6147   29.2756   45.3035 H   0  0  0  0  0  0  0  0  0  0  0  0
   34.7632   29.7600   43.1409 H   0  0  0  0  0  0  0  0  0  0  0  0
   37.0368   30.7956   43.1955 H   0  0  0  0  0  0  0  0  0  0  0  0
   38.6802   31.6830   51.2477 H   0  0  0  0  0  0  0  0  0  0  0  0
   39.0555   33.2388   49.2832 H   0  0  0  0  0  0  0  0  0  0  0  0
   39.3878   29.4512   45.4022 H   0  0  0  0  0  0  0  0  0  0  0  0
   41.7144   30.8344   45.6043 H   0  0  0  0  0  0  0  0  0  0  0  0
   41.0005   33.3531   45.6934 H   0  0  0  0  0  0  0  0  0  0  0  0
  1 11  1  0
  2  1  2  0
  3  2  1  0
  4  5  1  0
  4  3  2  0
  5  6  2  0
  6 17  1  0
  6  1  1  0
  7  8  2  0
  7 13  1  0
  9  8  1  0
 10  9  2  0
 11 10  1  0
 11 12  2  0
 12  7  1  0
 13 14  1  0
 13 16  1  0
 15 13  1  0
 17 18  1  0
 17 21  2  0
 18 19  2  0
 19 20  1  0
 21 20  1  0
  2 22  1  0
  3 23  1  0
  4 24  1  0
  5 25  1  0
  8 26  1  0
  9 27  1  0
 18 28  1  0
 19 29  1  0
 20 30  1  0
M  ISO  8  22  14  23  14  24  14  25  14  26  14  27  14  28  14  29  14
M  ISO  1  30   9
M  END
>  <minimizedAffinity>  (1) 
-6.59304333

>  <minimizedRMSD>  (1) 
0.215004161

$$$$
