
     RDKit          3D

 36 38  0  0  0  0  0  0  0  0999 V2000
   36.1420   30.5490   46.6610 C   0  0  0  0  0  0  0  0  0  0  0  0
   34.8040   30.2100   46.6780 C   0  0  0  0  0  0  0  0  0  0  0  0
   34.0460   29.9480   45.5590 C   0  0  0  0  0  0  0  0  0  0  0  0
   34.6600   30.0290   44.3250 C   0  0  0  0  0  0  0  0  0  0  0  0
   36.0160   30.3710   44.2570 C   0  0  0  0  0  0  0  0  0  0  0  0
   36.7230   30.6220   45.4260 C   0  0  0  0  0  0  0  0  0  0  0  0
   38.1000   30.9670   45.3140 N   0  0  0  0  0  0  0  0  0  0  0  0
   38.3970   32.2930   45.4180 C   0  0  0  0  0  0  0  0  0  0  0  0
   39.6950   32.7550   45.3270 C   0  0  0  0  0  0  0  0  0  0  0  0
   40.0090   34.2140   45.4440 C   0  0  0  0  0  0  0  0  0  0  0  0
   40.6810   31.8080   45.1250 C   0  0  0  0  0  0  0  0  0  0  0  0
   41.8780   32.1780   45.0360 O   0  0  0  0  0  0  0  0  0  0  0  0
   40.3870   30.4980   45.0220 N   0  0  0  0  0  0  0  0  0  0  0  0
   39.1060   30.0940   45.1170 C   0  0  0  0  0  0  0  0  0  0  0  0
   38.7840   28.8610   45.0250 O   0  0  0  0  0  0  0  0  0  0  0  0
   37.3340   30.2330   50.0910 C   0  0  0  0  0  0  0  0  0  0  0  0
   38.1920   31.3320   50.2250 C   0  0  0  0  0  0  0  0  0  0  0  0
   38.3540   32.1790   49.1270 C   0  0  0  0  0  0  0  0  0  0  0  0
   37.6730   31.8910   47.9900 N   0  0  0  0  0  0  0  0  0  0  0  0
   36.8450   30.8080   47.8980 C   0  0  0  0  0  0  0  0  0  0  0  0
   36.7010   30.0130   48.9470 N   0  0  0  0  0  0  0  0  0  0  0  0
   37.1650   29.3250   51.2800 C   0  0  0  0  0  0  0  0  0  0  0  0
   35.8080   29.0630   51.4530 F   0  0  0  0  0  0  0  0  0  0  0  0
   37.9010   28.2120   51.0670 F   0  0  0  0  0  0  0  0  0  0  0  0
   37.5970   30.0280   52.4070 F   0  0  0  0  0  0  0  0  0  0  0  0
   34.3071   30.1444   47.6572 H   0  0  0  0  0  0  0  0  0  0  0  0
   32.9822   29.6819   45.6455 H   0  0  0  0  0  0  0  0  0  0  0  0
   34.0904   29.8272   43.4059 H   0  0  0  0  0  0  0  0  0  0  0  0
   36.5196   30.4407   43.2815 H   0  0  0  0  0  0  0  0  0  0  0  0
   37.5817   33.0138   45.5786 H   0  0  0  0  0  0  0  0  0  0  0  0
   40.0689   34.4921   46.5066 H   0  0  0  0  0  0  0  0  0  0  0  0
   40.9725   34.4220   44.9557 H   0  0  0  0  0  0  0  0  0  0  0  0
   39.2164   34.8000   44.9557 H   0  0  0  0  0  0  0  0  0  0  0  0
   41.1376   29.8090   44.8714 H   0  0  0  0  0  0  0  0  0  0  0  0
   38.7234   31.5225   51.1691 H   0  0  0  0  0  0  0  0  0  0  0  0
   39.0158   33.0559   49.1825 H   0  0  0  0  0  0  0  0  0  0  0  0
  1  2  2  0
  1 20  1  0
  3  2  1  0
  4  3  2  0
  5  4  1  0
  5  6  2  0
  6  1  1  0
  7  8  1  0
  7  6  1  0
  9  8  2  0
  9 10  1  0
 11  9  1  0
 12 11  2  0
 13 14  1  0
 13 11  1  0
 14  7  1  0
 15 14  2  0
 16 17  2  0
 16 22  1  0
 18 17  1  0
 19 18  2  0
 20 19  1  0
 20 21  2  0
 21 16  1  0
 22 23  1  0
 22 25  1  0
 24 22  1  0
  2 26  1  0
  3 27  1  0
  4 28  1  0
  5 29  1  0
  8 30  1  0
 10 31  1  0
 10 32  1  0
 10 33  1  0
 13 34  1  0
 17 35  1  0
 18 36  1  0
M  ISO  8  26  14  27  14  28  14  29  14  30  14  31   8  32   8  33   8
M  ISO  3  34   9  35  14  36  14
M  END
>  <minimizedAffinity>  (1) 
-5.99558115

>  <minimizedRMSD>  (1) 
0.465504467

$$$$
