
     RDKit          3D

 26 27  0  0  0  0  0  0  0  0999 V2000
   37.8030   30.9350   45.7810 C   0  0  0  0  0  0  0  0  0  0  0  0
   36.5420   30.5320   45.3230 C   0  0  0  0  0  0  0  0  0  0  0  0
   36.2840   30.1450   44.0300 C   0  0  0  0  0  0  0  0  0  0  0  0
   37.3200   30.1480   43.1150 C   0  0  0  0  0  0  0  0  0  0  0  0
   38.5680   30.5400   43.5490 C   0  0  0  0  0  0  0  0  0  0  0  0
   38.8240   30.9340   44.8700 C   0  0  0  0  0  0  0  0  0  0  0  0
   37.8040   30.8360   49.4250 C   0  0  0  0  0  0  0  0  0  0  0  0
   38.2900   32.0910   49.7740 C   0  0  0  0  0  0  0  0  0  0  0  0
   38.6210   32.9740   48.7380 C   0  0  0  0  0  0  0  0  0  0  0  0
   38.4480   32.5550   47.4700 N   0  0  0  0  0  0  0  0  0  0  0  0
   37.9720   31.3260   47.1620 C   0  0  0  0  0  0  0  0  0  0  0  0
   37.6570   30.4830   48.1540 N   0  0  0  0  0  0  0  0  0  0  0  0
   37.4470   29.8950   50.5510 C   0  0  0  0  0  0  0  0  0  0  0  0
   36.0590   29.8110   50.6450 F   0  0  0  0  0  0  0  0  0  0  0  0
   38.0280   28.7030   50.3040 F   0  0  0  0  0  0  0  0  0  0  0  0
   37.8980   30.4490   51.7380 F   0  0  0  0  0  0  0  0  0  0  0  0
   40.2040   31.3490   45.2340 C   0  0  0  0  0  0  0  0  0  0  0  0
   40.2940   32.6960   45.5570 F   0  0  0  0  0  0  0  0  0  0  0  0
   40.5590   30.7100   46.4420 F   0  0  0  0  0  0  0  0  0  0  0  0
   41.1640   30.9440   44.3400 F   0  0  0  0  0  0  0  0  0  0  0  0
   35.7088   30.5249   46.0411 H   0  0  0  0  0  0  0  0  0  0  0  0
   35.2715   29.8384   43.7286 H   0  0  0  0  0  0  0  0  0  0  0  0
   37.1532   29.8462   42.0704 H   0  0  0  0  0  0  0  0  0  0  0  0
   39.3988   30.5439   42.8281 H   0  0  0  0  0  0  0  0  0  0  0  0
   38.4106   32.3809   50.8282 H   0  0  0  0  0  0  0  0  0  0  0  0
   39.0107   33.9798   48.9539 H   0  0  0  0  0  0  0  0  0  0  0  0
  1 11  1  0
  2  1  2  0
  3  2  1  0
  4  5  1  0
  4  3  2  0
  5  6  2  0
  6 17  1  0
  6  1  1  0
  7  8  2  0
  7 13  1  0
  9  8  1  0
 10  9  2  0
 11 10  1  0
 11 12  2  0
 12  7  1  0
 13 14  1  0
 13 16  1  0
 15 13  1  0
 17 18  1  0
 17 19  1  0
 20 17  1  0
  2 21  1  0
  3 22  1  0
  4 23  1  0
  5 24  1  0
  8 25  1  0
  9 26  1  0
M  ISO  6  21  14  22  14  23  14  24  14  25  14  26  14
M  END
>  <minimizedAffinity>  (1) 
-5.98679829

>  <minimizedRMSD>  (1) 
1.62717068

$$$$
