
     RDKit          3D

 25 26  0  0  0  0  0  0  0  0999 V2000
   37.9310   30.8190   46.1180 C   0  0  0  0  0  0  0  0  0  0  0  0
   36.7190   30.5080   45.5340 C   0  0  0  0  0  0  0  0  0  0  0  0
   36.5830   30.1190   44.2230 C   0  0  0  0  0  0  0  0  0  0  0  0
   37.6820   30.0210   43.4300 C   0  0  0  0  0  0  0  0  0  0  0  0
   38.9090   30.3230   43.9780 C   0  0  0  0  0  0  0  0  0  0  0  0
   39.0200   30.7130   45.2980 C   0  0  0  0  0  0  0  0  0  0  0  0
   37.6950   30.7170   49.7560 C   0  0  0  0  0  0  0  0  0  0  0  0
   38.1570   31.9740   50.1370 C   0  0  0  0  0  0  0  0  0  0  0  0
   38.5560   32.8670   49.1300 C   0  0  0  0  0  0  0  0  0  0  0  0
   38.4670   32.4500   47.8480 N   0  0  0  0  0  0  0  0  0  0  0  0
   38.0130   31.2230   47.5060 C   0  0  0  0  0  0  0  0  0  0  0  0
   37.6350   30.3800   48.4780 N   0  0  0  0  0  0  0  0  0  0  0  0
   37.2670   29.7650   50.8410 C   0  0  0  0  0  0  0  0  0  0  0  0
   35.8750   29.7380   50.8940 F   0  0  0  0  0  0  0  0  0  0  0  0
   37.8310   28.5620   50.5940 F   0  0  0  0  0  0  0  0  0  0  0  0
   37.7180   30.2810   52.0530 F   0  0  0  0  0  0  0  0  0  0  0  0
   40.3650   31.0010   45.7600 C   0  0  0  0  0  0  0  0  0  0  0  0
   41.1570   31.8820   45.4030 O   0  0  0  0  0  0  0  0  0  0  0  0
   35.8119   30.5754   46.1526 H   0  0  0  0  0  0  0  0  0  0  0  0
   35.5873   29.8876   43.8168 H   0  0  0  0  0  0  0  0  0  0  0  0
   37.5941   29.7089   42.3789 H   0  0  0  0  0  0  0  0  0  0  0  0
   39.8131   30.2525   43.3555 H   0  0  0  0  0  0  0  0  0  0  0  0
   38.2080   32.2595   51.1981 H   0  0  0  0  0  0  0  0  0  0  0  0
   38.9285   33.8723   49.3764 H   0  0  0  0  0  0  0  0  0  0  0  0
   40.7383   30.3326   46.5499 H   0  0  0  0  0  0  0  0  0  0  0  0
  1 11  1  0
  2  1  2  0
  3  2  1  0
  4  5  1  0
  4  3  2  0
  5  6  2  0
  6 17  1  0
  6  1  1  0
  7  8  2  0
  7 13  1  0
  9  8  1  0
 10  9  2  0
 11 10  1  0
 11 12  2  0
 12  7  1  0
 13 14  1  0
 13 16  1  0
 15 13  1  0
 18 17  2  0
  2 19  1  0
  3 20  1  0
  4 21  1  0
  5 22  1  0
  8 23  1  0
  9 24  1  0
 17 25  1  0
M  ISO  7  19  14  20  14  21  14  22  14  23  14  24  14  25   6
M  END
>  <minimizedAffinity>  (1) 
-5.76824141

>  <minimizedRMSD>  (1) 
1.64998806

$$$$
