
     RDKit          3D

 29 30  0  0  1  0  0  0  0  0999 V2000
   36.6340   30.3620   50.3140 C   0  0  2  0  0  0  0  0  0  0  0  0
   37.4680   31.2870   49.5030 C   0  0  0  0  0  0  0  0  0  0  0  0
   37.5240   32.6320   49.8700 C   0  0  0  0  0  0  0  0  0  0  0  0
   38.3130   33.4740   49.0830 C   0  0  0  0  0  0  0  0  0  0  0  0
   38.9820   32.9490   48.0040 N   0  0  0  0  0  0  0  0  0  0  0  0
   38.8990   31.6310   47.6810 C   0  0  0  0  0  0  0  0  0  0  0  0
   38.1410   30.8080   48.4360 N   0  0  0  0  0  0  0  0  0  0  0  0
   37.3540   30.0780   51.6560 C   0  0  0  0  0  0  0  0  0  0  0  0
   36.3180   29.0820   49.6590 C   0  0  0  0  0  0  0  0  0  0  0  0
   35.1810   29.0210   48.7570 C   0  0  0  0  0  0  0  0  0  0  0  0
   34.7390   29.7120   47.6570 C   0  0  0  0  0  0  0  0  0  0  0  0
   33.5850   29.4680   46.9870 C   0  0  0  0  0  0  0  0  0  0  0  0
   32.7610   28.4670   47.3930 C   0  0  0  0  0  0  0  0  0  0  0  0
   33.1110   27.7060   48.4930 C   0  0  0  0  0  0  0  0  0  0  0  0
   34.3110   27.9920   49.1570 C   0  0  0  0  0  0  0  0  0  0  0  0
   35.6711   30.8729   50.4616 H   0  0  0  0  0  0  0  0  0  0  0  0
   36.9708   33.0127   50.7413 H   0  0  0  0  0  0  0  0  0  0  0  0
   38.3977   34.5439   49.3241 H   0  0  0  0  0  0  0  0  0  0  0  0
   39.4455   31.2382   46.8109 H   0  0  0  0  0  0  0  0  0  0  0  0
   36.6887   30.3404   52.4918 H   0  0  0  0  0  0  0  0  0  0  0  0
   37.6127   29.0105   51.7146 H   0  0  0  0  0  0  0  0  0  0  0  0
   38.2718   30.6815   51.7146 H   0  0  0  0  0  0  0  0  0  0  0  0
   37.2059   28.7865   49.0808 H   0  0  0  0  0  0  0  0  0  0  0  0
   36.0346   28.4198   50.4904 H   0  0  0  0  0  0  0  0  0  0  0  0
   35.3729   30.5317   47.2879 H   0  0  0  0  0  0  0  0  0  0  0  0
   33.3161   30.0811   46.1142 H   0  0  0  0  0  0  0  0  0  0  0  0
   31.8249   28.2641   46.8521 H   0  0  0  0  0  0  0  0  0  0  0  0
   32.4592   26.8909   48.8404 H   0  0  0  0  0  0  0  0  0  0  0  0
   34.5849   27.3834   50.0314 H   0  0  0  0  0  0  0  0  0  0  0  0
  1  8  1  0
  2  3  2  0
  2  1  1  0
  4  3  1  0
  5  4  2  0
  6  5  1  0
  6  7  2  0
  7  2  1  0
  9  1  1  0
 10 15  1  0
 10  9  1  0
 11 10  2  0
 12 13  2  0
 12 11  1  0
 13 14  1  0
 14 15  2  0
  1 16  1  1
  3 17  1  0
  4 18  1  0
  6 19  1  0
  8 20  1  0
  8 21  1  0
  8 22  1  0
  9 23  1  0
  9 24  1  0
 11 25  1  0
 12 26  1  0
 13 27  1  0
 14 28  1  0
 15 29  1  0
M  ISO  8  16   8  17  14  18  14  19  14  20   8  21   8  22   8  23   8
M  ISO  6  24   8  25  14  26  14  27  14  28  14  29  14
M  END
>  <minimizedAffinity>  (1) 
-5.58583689

>  <minimizedRMSD>  (1) 
0.605626941

$$$$
