
     RDKit          3D

 20 20  0  0  1  0  0  0  0  0999 V2000
   36.5220   30.2720   50.2180 C   0  0  2  0  0  0  0  0  0  0  0  0
   37.3990   31.1020   49.3140 C   0  0  0  0  0  0  0  0  0  0  0  0
   37.6750   32.4200   49.7110 C   0  0  0  0  0  0  0  0  0  0  0  0
   38.4710   33.1870   48.8580 C   0  0  0  0  0  0  0  0  0  0  0  0
   38.9310   32.6180   47.6970 N   0  0  0  0  0  0  0  0  0  0  0  0
   38.6410   31.3390   47.3500 C   0  0  0  0  0  0  0  0  0  0  0  0
   37.8670   30.5630   48.1600 N   0  0  0  0  0  0  0  0  0  0  0  0
   37.2590   30.0680   51.5650 C   0  0  0  0  0  0  0  0  0  0  0  0
   36.1860   28.9580   49.6240 C   0  0  0  0  0  0  0  0  0  0  0  0
   34.4110   28.6770   49.4460 S   0  0  0  0  0  0  0  0  0  0  0  0
   35.5731   30.8079   50.3676 H   0  0  0  0  0  0  0  0  0  0  0  0
   37.2815   32.8304   50.6527 H   0  0  0  0  0  0  0  0  0  0  0  0
   38.7244   34.2269   49.1116 H   0  0  0  0  0  0  0  0  0  0  0  0
   39.0330   30.9257   46.4090 H   0  0  0  0  0  0  0  0  0  0  0  0
   36.5643   30.2603   52.3959 H   0  0  0  0  0  0  0  0  0  0  0  0
   37.6285   29.0338   51.6279 H   0  0  0  0  0  0  0  0  0  0  0  0
   38.1077   30.7650   51.6279 H   0  0  0  0  0  0  0  0  0  0  0  0
   36.6491   28.8981   48.6280 H   0  0  0  0  0  0  0  0  0  0  0  0
   36.5672   28.1872   50.3100 H   0  0  0  0  0  0  0  0  0  0  0  0
   33.8364   28.5860   50.6863 H   0  0  0  0  0  0  0  0  0  0  0  0
  1  8  1  0
  2  3  2  0
  2  1  1  0
  4  3  1  0
  5  4  2  0
  6  5  1  0
  6  7  2  0
  7  2  1  0
  9  1  1  0
 10  9  1  0
  1 11  1  1
  3 12  1  0
  4 13  1  0
  6 14  1  0
  8 15  1  0
  8 16  1  0
  8 17  1  0
  9 18  1  0
  9 19  1  0
 10 20  1  0
M  ISO  8  11   8  12  14  13  14  14  14  15   8  16   8  17   8  18   8
M  ISO  2  19   8  20  11
M  END
>  <minimizedAffinity>  (1) 
-4.11694908

>  <minimizedRMSD>  (1) 
0.614874065

$$$$
