
     RDKit          3D

 29 30  0  0  1  0  0  0  0  0999 V2000
   36.7620   31.0710   49.4330 C   0  0  2  0  0  0  0  0  0  0  0  0
   37.8000   31.9650   48.8680 C   0  0  0  0  0  0  0  0  0  0  0  0
   38.2040   33.0790   49.6040 C   0  0  0  0  0  0  0  0  0  0  0  0
   39.1760   33.9030   49.0130 C   0  0  0  0  0  0  0  0  0  0  0  0
   39.6650   33.5770   47.7780 N   0  0  0  0  0  0  0  0  0  0  0  0
   39.2420   32.4730   47.0860 C   0  0  0  0  0  0  0  0  0  0  0  0
   38.3050   31.6760   47.6520 N   0  0  0  0  0  0  0  0  0  0  0  0
   37.2000   30.6630   50.8780 C   0  0  0  0  0  0  0  0  0  0  0  0
   36.5420   29.8600   48.6420 C   0  0  0  0  0  0  0  0  0  0  0  0
   35.4390   29.8030   47.7210 C   0  0  0  0  0  0  0  0  0  0  0  0
   35.2210   30.1430   46.3970 C   0  0  0  0  0  0  0  0  0  0  0  0
   33.9420   29.8620   46.0360 N   0  0  0  0  0  0  0  0  0  0  0  0
   33.3430   29.3460   47.1180 C   0  0  0  0  0  0  0  0  0  0  0  0
   34.2280   29.3120   48.1130 N   0  0  0  0  0  0  0  0  0  0  0  0
   33.8780   28.7930   49.4480 C   0  0  0  0  0  0  0  0  0  0  0  0
   34.7900   27.8950   49.8970 F   0  0  0  0  0  0  0  0  0  0  0  0
   33.9010   29.8220   50.4020 F   0  0  0  0  0  0  0  0  0  0  0  0
   32.6540   28.1480   49.4190 F   0  0  0  0  0  0  0  0  0  0  0  0
   35.8124   31.6261   49.4308 H   0  0  0  0  0  0  0  0  0  0  0  0
   37.7832   33.3007   50.5958 H   0  0  0  0  0  0  0  0  0  0  0  0
   39.5394   34.7993   49.5369 H   0  0  0  0  0  0  0  0  0  0  0  0
   39.6541   32.2393   46.0932 H   0  0  0  0  0  0  0  0  0  0  0  0
   36.6016   31.2204   51.6137 H   0  0  0  0  0  0  0  0  0  0  0  0
   37.0410   29.5836   51.0183 H   0  0  0  0  0  0  0  0  0  0  0  0
   38.2654   30.8980   51.0183 H   0  0  0  0  0  0  0  0  0  0  0  0
   37.4570   29.6912   48.0552 H   0  0  0  0  0  0  0  0  0  0  0  0
   36.2853   29.1028   49.3975 H   0  0  0  0  0  0  0  0  0  0  0  0
   35.9784   30.5801   45.7298 H   0  0  0  0  0  0  0  0  0  0  0  0
   32.2978   29.0079   47.1749 H   0  0  0  0  0  0  0  0  0  0  0  0
  1  8  1  0
  2  1  1  0
  2  3  2  0
  4  3  1  0
  5  4  2  0
  6  7  2  0
  6  5  1  0
  7  2  1  0
  9  1  1  0
 10 14  1  0
 10  9  1  0
 11 10  2  0
 12 11  1  0
 12 13  2  0
 13 14  1  0
 14 15  1  0
 15 16  1  0
 15 17  1  0
 18 15  1  0
  1 19  1  1
  3 20  1  0
  4 21  1  0
  6 22  1  0
  8 23  1  0
  8 24  1  0
  8 25  1  0
  9 26  1  0
  9 27  1  0
 11 28  1  0
 13 29  1  0
M  ISO  8  19   8  20  14  21  14  22  14  23   8  24   8  25   8  26   8
M  ISO  3  27   8  28  14  29  14
M  END
>  <minimizedAffinity>  (1) 
-5.45855904

>  <minimizedRMSD>  (1) 
1.53530204

$$$$
