
     RDKit          3D

 40 43  0  0  1  0  0  0  0  0999 V2000
   34.9960   29.4550   47.8830 C   0  0  0  0  0  0  0  0  0  0  0  0
   35.0180   30.0710   46.6670 C   0  0  0  0  0  0  0  0  0  0  0  0
   33.8170   30.0200   46.0350 N   0  0  0  0  0  0  0  0  0  0  0  0
   32.9820   29.3590   46.8450 C   0  0  0  0  0  0  0  0  0  0  0  0
   33.6990   29.0180   47.9640 N   0  0  0  0  0  0  0  0  0  0  0  0
   35.8880   29.1850   48.9530 C   0  0  0  0  0  0  0  0  0  0  0  0
   36.2330   30.2470   49.8850 C   0  0  2  0  0  0  0  0  0  0  0  0
   37.2230   31.2260   49.3120 C   0  0  0  0  0  0  0  0  0  0  0  0
   37.2370   32.5130   49.8270 C   0  0  0  0  0  0  0  0  0  0  0  0
   38.1670   33.3940   49.2350 C   0  0  0  0  0  0  0  0  0  0  0  0
   38.9690   32.9500   48.2280 N   0  0  0  0  0  0  0  0  0  0  0  0
   38.9240   31.6650   47.7460 C   0  0  0  0  0  0  0  0  0  0  0  0
   38.0350   30.8080   48.3070 N   0  0  0  0  0  0  0  0  0  0  0  0
   36.9170   29.5780   51.1370 C   0  0  0  0  0  0  0  0  0  0  0  0
   33.0280   28.2680   49.0270 C   0  0  0  0  0  0  0  0  0  0  0  0
   32.0740   27.3790   48.3980 N   0  0  0  0  0  0  0  0  0  0  0  0
   30.7420   27.3220   48.2470 C   0  0  0  0  0  0  0  0  0  0  0  0
   30.3660   26.2400   47.5450 N   0  0  0  0  0  0  0  0  0  0  0  0
   31.4680   25.5550   47.2150 C   0  0  0  0  0  0  0  0  0  0  0  0
   31.5670   24.3940   46.5030 C   0  0  0  0  0  0  0  0  0  0  0  0
   32.8120   23.9050   46.3060 N   0  0  0  0  0  0  0  0  0  0  0  0
   33.8690   24.5710   46.8090 C   0  0  0  0  0  0  0  0  0  0  0  0
   33.7290   25.7100   47.5040 N   0  0  0  0  0  0  0  0  0  0  0  0
   32.5150   26.2650   47.7450 C   0  0  0  0  0  0  0  0  0  0  0  0
   35.9103   30.5559   46.2443 H   0  0  0  0  0  0  0  0  0  0  0  0
   31.9232   29.1323   46.6509 H   0  0  0  0  0  0  0  0  0  0  0  0
   35.4405   28.3730   49.5450 H   0  0  0  0  0  0  0  0  0  0  0  0
   36.8398   28.9676   48.4463 H   0  0  0  0  0  0  0  0  0  0  0  0
   35.3096   30.7922   50.1301 H   0  0  0  0  0  0  0  0  0  0  0  0
   36.5682   32.8264   50.6422 H   0  0  0  0  0  0  0  0  0  0  0  0
   38.2437   34.4340   49.5852 H   0  0  0  0  0  0  0  0  0  0  0  0
   39.5878   31.3410   46.9309 H   0  0  0  0  0  0  0  0  0  0  0  0
   36.4871   29.9985   52.0580 H   0  0  0  0  0  0  0  0  0  0  0  0
   36.7427   28.4922   51.1135 H   0  0  0  0  0  0  0  0  0  0  0  0
   37.9987   29.7763   51.1135 H   0  0  0  0  0  0  0  0  0  0  0  0
   33.7654   27.6843   49.5976 H   0  0  0  0  0  0  0  0  0  0  0  0
   32.5194   28.9525   49.7219 H   0  0  0  0  0  0  0  0  0  0  0  0
   30.0429   28.0701   48.6490 H   0  0  0  0  0  0  0  0  0  0  0  0
   30.6771   23.8815   46.1089 H   0  0  0  0  0  0  0  0  0  0  0  0
   34.8794   24.1682   46.6448 H   0  0  0  0  0  0  0  0  0  0  0  0
  1  5  1  0
  1  6  1  0
  2  1  2  0
  3  2  1  0
  3  4  2  0
  4  5  1  0
  5 15  1  0
  6  7  1  0
  7 14  1  0
  8  9  2  0
  8  7  1  0
 10  9  1  0
 11 10  2  0
 12 11  1  0
 12 13  2  0
 13  8  1  0
 16 15  1  0
 17 16  1  0
 18 17  2  0
 19 18  1  0
 19 24  2  0
 20 19  1  0
 21 20  2  0
 21 22  1  0
 22 23  2  0
 23 24  1  0
 24 16  1  0
  2 25  1  0
  4 26  1  0
  6 27  1  0
  6 28  1  0
  7 29  1  1
  9 30  1  0
 10 31  1  0
 12 32  1  0
 14 33  1  0
 14 34  1  0
 14 35  1  0
 15 36  1  0
 15 37  1  0
 17 38  1  0
 20 39  1  0
 22 40  1  0
M  ISO  8  25  14  26  14  27   8  28   8  29   8  30  14  31  14  32  14
M  ISO  8  33   8  34   8  35   8  36   8  37   8  38  14  39  14  40  14
M  END
>  <minimizedAffinity>  (1) 
-5.42739344

>  <minimizedRMSD>  (1) 
1.72631359

$$$$
