
     RDKit          3D

 44 46  0  0  1  0  0  0  0  0999 V2000
   34.4520   28.7700   48.8160 C   0  0  0  0  0  0  0  0  0  0  0  0
   33.6630   29.0740   47.6760 C   0  0  0  0  0  0  0  0  0  0  0  0
   33.7850   29.7920   46.5230 C   0  0  0  0  0  0  0  0  0  0  0  0
   32.6750   29.7200   45.7400 N   0  0  0  0  0  0  0  0  0  0  0  0
   31.8010   28.9440   46.3810 C   0  0  0  0  0  0  0  0  0  0  0  0
   32.4050   28.5530   47.5550 N   0  0  0  0  0  0  0  0  0  0  0  0
   31.6750   27.6750   48.4780 C   0  0  0  0  0  0  0  0  0  0  0  0
   30.2600   27.9480   48.4590 N   0  0  0  0  0  0  0  0  0  0  0  0
   29.4580   26.8700   47.9580 C   0  0  0  0  0  0  0  0  0  0  0  0
   28.0180   26.9830   48.4540 C   0  0  0  0  0  0  0  0  0  0  0  0
   27.9480   26.7290   49.9490 C   0  0  0  0  0  0  0  0  0  0  0  0
   29.3250   27.0240   50.5310 C   0  0  0  0  0  0  0  0  0  0  0  0
   29.8350   28.2420   49.8140 C   0  0  0  0  0  0  0  0  0  0  0  0
   34.8460   29.8320   49.7280 C   0  0  2  0  0  0  0  0  0  0  0  0
   36.1310   30.5080   49.2990 C   0  0  0  0  0  0  0  0  0  0  0  0
   36.4860   31.6820   49.9630 C   0  0  0  0  0  0  0  0  0  0  0  0
   37.6800   32.2840   49.5060 C   0  0  0  0  0  0  0  0  0  0  0  0
   38.3810   31.7130   48.4970 N   0  0  0  0  0  0  0  0  0  0  0  0
   37.9910   30.5540   47.8740 C   0  0  0  0  0  0  0  0  0  0  0  0
   36.8460   29.9480   48.2890 N   0  0  0  0  0  0  0  0  0  0  0  0
   35.1140   29.1790   51.1340 C   0  0  0  0  0  0  0  0  0  0  0  0
   35.3792   28.3071   48.4471 H   0  0  0  0  0  0  0  0  0  0  0  0
   33.7852   28.1441   49.4273 H   0  0  0  0  0  0  0  0  0  0  0  0
   34.6837   30.3671   46.2552 H   0  0  0  0  0  0  0  0  0  0  0  0
   30.7925   28.6692   46.0384 H   0  0  0  0  0  0  0  0  0  0  0  0
   31.8411   26.6285   48.1825 H   0  0  0  0  0  0  0  0  0  0  0  0
   32.0481   27.8583   49.4964 H   0  0  0  0  0  0  0  0  0  0  0  0
   29.8830   25.9155   48.3018 H   0  0  0  0  0  0  0  0  0  0  0  0
   29.4549   26.9168   46.8590 H   0  0  0  0  0  0  0  0  0  0  0  0
   27.6401   27.9938   48.2407 H   0  0  0  0  0  0  0  0  0  0  0  0
   27.4040   26.2310   47.9367 H   0  0  0  0  0  0  0  0  0  0  0  0
   27.1976   27.3901   50.4071 H   0  0  0  0  0  0  0  0  0  0  0  0
   27.6582   25.6872   50.1509 H   0  0  0  0  0  0  0  0  0  0  0  0
   29.2477   27.2221   51.6103 H   0  0  0  0  0  0  0  0  0  0  0  0
   30.0053   26.1695   50.4002 H   0  0  0  0  0  0  0  0  0  0  0  0
   30.6912   28.6482   50.3726 H   0  0  0  0  0  0  0  0  0  0  0  0
   29.0103   28.9677   49.7570 H   0  0  0  0  0  0  0  0  0  0  0  0
   34.0423   30.5828   49.7460 H   0  0  0  0  0  0  0  0  0  0  0  0
   35.8832   32.1065   50.7793 H   0  0  0  0  0  0  0  0  0  0  0  0
   38.0397   33.2148   49.9688 H   0  0  0  0  0  0  0  0  0  0  0  0
   38.5906   30.1249   47.0577 H   0  0  0  0  0  0  0  0  0  0  0  0
   34.8246   29.8843   51.9270 H   0  0  0  0  0  0  0  0  0  0  0  0
   34.5215   28.2571   51.2290 H   0  0  0  0  0  0  0  0  0  0  0  0
   36.1833   28.9391   51.2290 H   0  0  0  0  0  0  0  0  0  0  0  0
  1 14  1  0
  2  1  1  0
  3  2  2  0
  4  5  2  0
  4  3  1  0
  5  6  1  0
  6  2  1  0
  6  7  1  0
  8  7  1  0
  8 13  1  0
  9 10  1  0
  9  8  1  0
 10 11  1  0
 11 12  1  0
 13 12  1  0
 14 21  1  0
 15 14  1  0
 15 16  2  0
 17 16  1  0
 18 17  2  0
 19 20  2  0
 19 18  1  0
 20 15  1  0
  1 22  1  0
  1 23  1  0
  3 24  1  0
  5 25  1  0
  7 26  1  0
  7 27  1  0
  9 28  1  0
  9 29  1  0
 10 30  1  0
 10 31  1  0
 11 32  1  0
 11 33  1  0
 12 34  1  0
 12 35  1  0
 13 36  1  0
 13 37  1  0
 14 38  1  1
 16 39  1  0
 17 40  1  0
 19 41  1  0
 21 42  1  0
 21 43  1  0
 21 44  1  0
M  ISO  8  22   8  23   8  24  14  25  14  26   8  27   8  28  13  29  13
M  ISO  8  30  13  31  13  32  13  33  13  34  13  35  13  36  13  37  13
M  ISO  7  38   8  39  14  40  14  41  14  42   8  43   8  44   8
M  END
>  <minimizedAffinity>  (1) 
-5.3176403

>  <minimizedRMSD>  (1) 
3.09873486

$$$$
