
     RDKit          3D

 35 37  0  0  1  0  0  0  0  0999 V2000
   35.6260   29.1770   48.8730 C   0  0  0  0  0  0  0  0  0  0  0  0
   34.7250   29.4870   47.8210 C   0  0  0  0  0  0  0  0  0  0  0  0
   34.6960   30.2690   46.7030 C   0  0  0  0  0  0  0  0  0  0  0  0
   33.5140   30.1640   46.0310 N   0  0  0  0  0  0  0  0  0  0  0  0
   32.7460   29.2960   46.7180 C   0  0  0  0  0  0  0  0  0  0  0  0
   33.5050   28.9060   47.7930 N   0  0  0  0  0  0  0  0  0  0  0  0
   32.9240   27.9280   48.7170 C   0  0  0  0  0  0  0  0  0  0  0  0
   32.9050   26.6170   47.9680 C   0  0  0  0  0  0  0  0  0  0  0  0
   31.6040   26.0020   47.9220 C   0  0  0  0  0  0  0  0  0  0  0  0
   31.9840   24.4660   46.9610 S   0  0  0  0  0  0  0  0  0  0  0  0
   33.8140   24.9300   46.7980 C   0  0  0  0  0  0  0  0  0  0  0  0
   33.9510   26.0600   47.4070 N   0  0  0  0  0  0  0  0  0  0  0  0
   36.0080   30.2020   49.8360 C   0  0  2  0  0  0  0  0  0  0  0  0
   37.0590   31.1460   49.2980 C   0  0  0  0  0  0  0  0  0  0  0  0
   37.1110   32.4230   49.8360 C   0  0  0  0  0  0  0  0  0  0  0  0
   38.0960   33.2690   49.2790 C   0  0  0  0  0  0  0  0  0  0  0  0
   38.9040   32.8190   48.2970 N   0  0  0  0  0  0  0  0  0  0  0  0
   38.8150   31.5470   47.7960 C   0  0  0  0  0  0  0  0  0  0  0  0
   37.8780   30.7050   48.3090 N   0  0  0  0  0  0  0  0  0  0  0  0
   36.6380   29.4640   51.0770 C   0  0  0  0  0  0  0  0  0  0  0  0
   36.5547   28.8241   48.4009 H   0  0  0  0  0  0  0  0  0  0  0  0
   35.0610   28.4572   49.4834 H   0  0  0  0  0  0  0  0  0  0  0  0
   35.5299   30.9101   46.3810 H   0  0  0  0  0  0  0  0  0  0  0  0
   31.7256   28.9688   46.4696 H   0  0  0  0  0  0  0  0  0  0  0  0
   33.5418   27.8428   49.6231 H   0  0  0  0  0  0  0  0  0  0  0  0
   31.9153   28.2250   49.0400 H   0  0  0  0  0  0  0  0  0  0  0  0
   30.6483   26.3489   48.3419 H   0  0  0  0  0  0  0  0  0  0  0  0
   34.5999   24.3536   46.2880 H   0  0  0  0  0  0  0  0  0  0  0  0
   35.1120   30.7907   50.0822 H   0  0  0  0  0  0  0  0  0  0  0  0
   36.4346   32.7533   50.6381 H   0  0  0  0  0  0  0  0  0  0  0  0
   38.2045   34.2996   49.6479 H   0  0  0  0  0  0  0  0  0  0  0  0
   39.4890   31.2127   46.9935 H   0  0  0  0  0  0  0  0  0  0  0  0
   36.2542   29.9136   52.0047 H   0  0  0  0  0  0  0  0  0  0  0  0
   36.3668   28.3984   51.0465 H   0  0  0  0  0  0  0  0  0  0  0  0
   37.7330   29.5647   51.0465 H   0  0  0  0  0  0  0  0  0  0  0  0
  1 13  1  0
  2  1  1  0
  3  2  2  0
  4  3  1  0
  4  5  2  0
  5  6  1  0
  6  2  1  0
  6  7  1  0
  8  7  1  0
  9  8  2  0
 10  9  1  0
 11 10  1  0
 11 12  2  0
 12  8  1  0
 13 20  1  0
 14 13  1  0
 14 15  2  0
 16 15  1  0
 17 16  2  0
 18 17  1  0
 18 19  2  0
 19 14  1  0
  1 21  1  0
  1 22  1  0
  3 23  1  0
  5 24  1  0
  7 25  1  0
  7 26  1  0
  9 27  1  0
 11 28  1  0
 13 29  1  1
 15 30  1  0
 16 31  1  0
 18 32  1  0
 20 33  1  0
 20 34  1  0
 20 35  1  0
M  ISO  8  21   8  22   8  23  14  24  14  25   8  26   8  27  14  28  14
M  ISO  7  29   8  30  14  31  14  32  14  33   8  34   8  35   8
M  END
>  <minimizedAffinity>  (1) 
-4.8850894

>  <minimizedRMSD>  (1) 
0.597492218

$$$$
