
     RDKit          3D

 30 31  0  0  1  0  0  0  0  0999 V2000
   36.1380   30.3200   49.7940 C   0  0  2  0  0  0  0  0  0  0  0  0
   37.1790   31.2660   49.2380 C   0  0  0  0  0  0  0  0  0  0  0  0
   37.2570   32.5360   49.7890 C   0  0  0  0  0  0  0  0  0  0  0  0
   38.2260   33.3900   49.2210 C   0  0  0  0  0  0  0  0  0  0  0  0
   38.9950   32.9380   48.2070 N   0  0  0  0  0  0  0  0  0  0  0  0
   38.8880   31.6680   47.6830 C   0  0  0  0  0  0  0  0  0  0  0  0
   37.9610   30.8290   48.2180 N   0  0  0  0  0  0  0  0  0  0  0  0
   36.7340   29.6990   51.1090 C   0  0  0  0  0  0  0  0  0  0  0  0
   35.8300   29.2310   48.8850 C   0  0  0  0  0  0  0  0  0  0  0  0
   34.8930   29.4240   47.8360 C   0  0  0  0  0  0  0  0  0  0  0  0
   34.8390   30.0510   46.6250 C   0  0  0  0  0  0  0  0  0  0  0  0
   33.6390   29.8950   46.0150 N   0  0  0  0  0  0  0  0  0  0  0  0
   32.8780   29.1560   46.8280 C   0  0  0  0  0  0  0  0  0  0  0  0
   33.6430   28.8750   47.9230 N   0  0  0  0  0  0  0  0  0  0  0  0
   33.0850   28.0590   49.0200 C   0  0  0  0  0  0  0  0  0  0  0  0
   31.7000   28.2300   49.0010 O   0  0  0  0  0  0  0  0  0  0  0  0
   35.2094   30.8845   49.9646 H   0  0  0  0  0  0  0  0  0  0  0  0
   36.6057   32.8569   50.6153 H   0  0  0  0  0  0  0  0  0  0  0  0
   38.3539   34.4145   49.6006 H   0  0  0  0  0  0  0  0  0  0  0  0
   39.5345   31.3419   46.8549 H   0  0  0  0  0  0  0  0  0  0  0  0
   36.2722   30.1802   51.9838 H   0  0  0  0  0  0  0  0  0  0  0  0
   36.5255   28.6192   51.1318 H   0  0  0  0  0  0  0  0  0  0  0  0
   37.8215   29.8630   51.1318 H   0  0  0  0  0  0  0  0  0  0  0  0
   36.7781   28.9340   48.4129 H   0  0  0  0  0  0  0  0  0  0  0  0
   35.3344   28.4936   49.5335 H   0  0  0  0  0  0  0  0  0  0  0  0
   35.6757   30.6193   46.1926 H   0  0  0  0  0  0  0  0  0  0  0  0
   31.8404   28.8372   46.6499 H   0  0  0  0  0  0  0  0  0  0  0  0
   33.3356   26.9991   48.8659 H   0  0  0  0  0  0  0  0  0  0  0  0
   33.5027   28.3706   49.9887 H   0  0  0  0  0  0  0  0  0  0  0  0
   31.3599   28.2720   49.9298 H   0  0  0  0  0  0  0  0  0  0  0  0
  1  8  1  0
  2  3  2  0
  2  1  1  0
  4  3  1  0
  5  4  2  0
  6  5  1  0
  6  7  2  0
  7  2  1  0
  9  1  1  0
 10 14  1  0
 10  9  1  0
 11 10  2  0
 12 11  1  0
 12 13  2  0
 13 14  1  0
 14 15  1  0
 16 15  1  0
  1 17  1  1
  3 18  1  0
  4 19  1  0
  6 20  1  0
  8 21  1  0
  8 22  1  0
  8 23  1  0
  9 24  1  0
  9 25  1  0
 11 26  1  0
 13 27  1  0
 15 28  1  0
 15 29  1  0
 16 30  1  0
M  ISO  8  17   8  18  14  19  14  20  14  21   8  22   8  23   8  24   8
M  ISO  6  25   8  26  14  27  14  28   8  29   8  30   3
M  END
>  <minimizedAffinity>  (1) 
-4.87890291

>  <minimizedRMSD>  (1) 
0.562420309

$$$$
