
     RDKit          3D

 45 47  0  0  1  0  0  0  0  0999 V2000
   36.6280   29.7490   45.7780 C   0  0  0  0  0  0  0  0  0  0  0  0
   35.2270   29.9740   45.8420 C   0  0  0  0  0  0  0  0  0  0  0  0
   34.2610   30.5940   45.0900 C   0  0  0  0  0  0  0  0  0  0  0  0
   33.0290   30.4890   45.6520 N   0  0  0  0  0  0  0  0  0  0  0  0
   33.1800   29.7960   46.7840 C   0  0  0  0  0  0  0  0  0  0  0  0
   34.5130   29.4930   46.8800 N   0  0  0  0  0  0  0  0  0  0  0  0
   34.9740   28.7100   48.0350 C   0  0  0  0  0  0  0  0  0  0  0  0
   35.1960   29.5730   49.2560 C   0  0  0  0  0  0  0  0  0  0  0  0
   35.8860   30.8280   48.7550 C   0  0  0  0  0  0  0  0  0  0  0  0
   36.4140   31.6930   49.8660 C   0  0  0  0  0  0  0  0  0  0  0  0
   37.3020   30.9020   50.8050 C   0  0  0  0  0  0  0  0  0  0  0  0
   36.5260   29.7200   51.3460 C   0  0  0  0  0  0  0  0  0  0  0  0
   36.1640   28.8450   50.1560 C   0  0  0  0  0  0  0  0  0  0  0  0
   37.5380   30.8570   45.5340 C   0  0  2  0  0  0  0  0  0  0  0  0
   38.2800   30.7230   44.2250 C   0  0  0  0  0  0  0  0  0  0  0  0
   39.6680   30.6890   44.2730 C   0  0  0  0  0  0  0  0  0  0  0  0
   40.3190   30.5880   43.0260 C   0  0  0  0  0  0  0  0  0  0  0  0
   39.5810   30.5320   41.8850 N   0  0  0  0  0  0  0  0  0  0  0  0
   38.2060   30.5690   41.8830 C   0  0  0  0  0  0  0  0  0  0  0  0
   37.5600   30.6650   43.0750 N   0  0  0  0  0  0  0  0  0  0  0  0
   38.6220   30.8390   46.6820 C   0  0  0  0  0  0  0  0  0  0  0  0
   36.9213   29.3050   46.7407 H   0  0  0  0  0  0  0  0  0  0  0  0
   36.7407   29.1297   44.8759 H   0  0  0  0  0  0  0  0  0  0  0  0
   34.4612   31.1154   44.1423 H   0  0  0  0  0  0  0  0  0  0  0  0
   32.3897   29.5224   47.4986 H   0  0  0  0  0  0  0  0  0  0  0  0
   34.2165   27.9484   48.2721 H   0  0  0  0  0  0  0  0  0  0  0  0
   35.9357   28.2475   47.7681 H   0  0  0  0  0  0  0  0  0  0  0  0
   34.2603   29.7960   49.7897 H   0  0  0  0  0  0  0  0  0  0  0  0
   36.7275   30.5319   48.1114 H   0  0  0  0  0  0  0  0  0  0  0  0
   35.1369   31.4182   48.2068 H   0  0  0  0  0  0  0  0  0  0  0  0
   36.9972   32.5182   49.4314 H   0  0  0  0  0  0  0  0  0  0  0  0
   35.5596   32.0806   50.4402 H   0  0  0  0  0  0  0  0  0  0  0  0
   38.1868   30.5426   50.2592 H   0  0  0  0  0  0  0  0  0  0  0  0
   37.6249   31.5445   51.6374 H   0  0  0  0  0  0  0  0  0  0  0  0
   37.1462   29.1539   52.0566 H   0  0  0  0  0  0  0  0  0  0  0  0
   35.6227   30.0531   51.8781 H   0  0  0  0  0  0  0  0  0  0  0  0
   35.6986   27.9154   50.5155 H   0  0  0  0  0  0  0  0  0  0  0  0
   37.0771   28.6100   49.5894 H   0  0  0  0  0  0  0  0  0  0  0  0
   36.9450   31.7830   45.5036 H   0  0  0  0  0  0  0  0  0  0  0  0
   40.2229   30.7377   45.2215 H   0  0  0  0  0  0  0  0  0  0  0  0
   41.4174   30.5547   42.9765 H   0  0  0  0  0  0  0  0  0  0  0  0
   37.6427   30.5220   40.9393 H   0  0  0  0  0  0  0  0  0  0  0  0
   38.1198   30.8473   47.6606 H   0  0  0  0  0  0  0  0  0  0  0  0
   39.2358   29.9305   46.5925 H   0  0  0  0  0  0  0  0  0  0  0  0
   39.2656   31.7266   46.5925 H   0  0  0  0  0  0  0  0  0  0  0  0
  1  2  1  0
  2  6  1  0
  3  4  1  0
  3  2  2  0
  4  5  2  0
  5  6  1  0
  6  7  1  0
  7  8  1  0
  8 13  1  0
  9  8  1  0
  9 10  1  0
 10 11  1  0
 11 12  1  0
 13 12  1  0
 14  1  1  0
 14 21  1  0
 15 16  2  0
 15 14  1  0
 17 16  1  0
 18 17  2  0
 19 18  1  0
 19 20  2  0
 20 15  1  0
  1 22  1  0
  1 23  1  0
  3 24  1  0
  5 25  1  0
  7 26  1  0
  7 27  1  0
  8 28  1  0
  9 29  1  0
  9 30  1  0
 10 31  1  0
 10 32  1  0
 11 33  1  0
 11 34  1  0
 12 35  1  0
 12 36  1  0
 13 37  1  0
 13 38  1  0
 14 39  1  6
 16 40  1  0
 17 41  1  0
 19 42  1  0
 21 43  1  0
 21 44  1  0
 21 45  1  0
M  ISO  8  22   8  23   8  24  14  25  14  26   8  27   8  28  13  29  13
M  ISO  8  30  13  31  13  32  13  33  13  34  13  35  13  36  13  37  13
M  ISO  8  38  13  39   8  40  14  41  14  42  14  43   8  44   8  45   8
M  END
>  <minimizedAffinity>  (1) 
-4.31215715

>  <minimizedRMSD>  (1) 
4.28298664

$$$$
