
     RDKit          3D

 31 32  0  0  1  0  0  0  0  0999 V2000
   35.8160   29.2310   48.8870 C   0  0  0  0  0  0  0  0  0  0  0  0
   34.8870   29.4300   47.8350 C   0  0  0  0  0  0  0  0  0  0  0  0
   34.8370   30.0560   46.6240 C   0  0  0  0  0  0  0  0  0  0  0  0
   33.6370   29.8880   46.0140 N   0  0  0  0  0  0  0  0  0  0  0  0
   32.8690   29.1480   46.8130 C   0  0  0  0  0  0  0  0  0  0  0  0
   33.6390   28.8750   47.9180 N   0  0  0  0  0  0  0  0  0  0  0  0
   33.0670   28.0590   49.0130 C   0  0  0  0  0  0  0  0  0  0  0  0
   31.6420   28.2440   49.1270 N   0  0  0  0  0  0  0  0  0  0  0  0
   36.1290   30.3210   49.7940 C   0  0  2  0  0  0  0  0  0  0  0  0
   37.1690   31.2640   49.2390 C   0  0  0  0  0  0  0  0  0  0  0  0
   37.2510   32.5340   49.7910 C   0  0  0  0  0  0  0  0  0  0  0  0
   38.2260   33.3860   49.2210 C   0  0  0  0  0  0  0  0  0  0  0  0
   38.9940   32.9350   48.2080 N   0  0  0  0  0  0  0  0  0  0  0  0
   38.8860   31.6630   47.6810 C   0  0  0  0  0  0  0  0  0  0  0  0
   37.9550   30.8340   48.2190 N   0  0  0  0  0  0  0  0  0  0  0  0
   36.7340   29.6880   51.1050 C   0  0  0  0  0  0  0  0  0  0  0  0
   36.7636   28.9240   48.4203 H   0  0  0  0  0  0  0  0  0  0  0  0
   35.3117   28.4991   49.5351 H   0  0  0  0  0  0  0  0  0  0  0  0
   35.6711   30.6292   46.1931 H   0  0  0  0  0  0  0  0  0  0  0  0
   31.8346   28.8234   46.6269 H   0  0  0  0  0  0  0  0  0  0  0  0
   33.2738   26.9975   48.8120 H   0  0  0  0  0  0  0  0  0  0  0  0
   33.5311   28.3789   49.9576 H   0  0  0  0  0  0  0  0  0  0  0  0
   31.3788   28.2782   50.1222 H   0  0  0  0  0  0  0  0  0  0  0  0
   31.3728   29.1270   48.6701 H   0  0  0  0  0  0  0  0  0  0  0  0
   35.2039   30.8903   49.9674 H   0  0  0  0  0  0  0  0  0  0  0  0
   36.6009   32.8572   50.6173 H   0  0  0  0  0  0  0  0  0  0  0  0
   38.3570   34.4098   49.6015 H   0  0  0  0  0  0  0  0  0  0  0  0
   39.5319   31.3329   46.8540 H   0  0  0  0  0  0  0  0  0  0  0  0
   36.2788   30.1642   51.9859 H   0  0  0  0  0  0  0  0  0  0  0  0
   36.5234   28.6085   51.1219 H   0  0  0  0  0  0  0  0  0  0  0  0
   37.8219   29.8496   51.1219 H   0  0  0  0  0  0  0  0  0  0  0  0
  1  9  1  0
  2  6  1  0
  2  1  1  0
  3  2  2  0
  4  3  1  0
  4  5  2  0
  5  6  1  0
  6  7  1  0
  7  8  1  0
  9 16  1  0
 10 11  2  0
 10  9  1  0
 12 11  1  0
 13 12  2  0
 14 13  1  0
 14 15  2  0
 15 10  1  0
  1 17  1  0
  1 18  1  0
  3 19  1  0
  5 20  1  0
  7 21  1  0
  7 22  1  0
  8 23  1  0
  8 24  1  0
  9 25  1  1
 11 26  1  0
 12 27  1  0
 14 28  1  0
 16 29  1  0
 16 30  1  0
 16 31  1  0
M  ISO  8  17   8  18   8  19  14  20  14  21   8  22   8  23   5  24   5
M  ISO  7  25   8  26  14  27  14  28  14  29   8  30   8  31   8
M  END
>  <minimizedAffinity>  (1) 
-4.89288187

>  <minimizedRMSD>  (1) 
0.329162806

$$$$
