
     RDKit          3D

 32 33  0  0  1  0  0  0  0  0999 V2000
   35.8300   29.3520   48.6580 C   0  0  0  0  0  0  0  0  0  0  0  0
   34.8310   29.4530   47.6590 C   0  0  0  0  0  0  0  0  0  0  0  0
   34.7090   30.0120   46.4300 C   0  0  0  0  0  0  0  0  0  0  0  0
   33.4720   29.7870   45.8940 N   0  0  0  0  0  0  0  0  0  0  0  0
   32.7700   29.0750   46.7730 C   0  0  0  0  0  0  0  0  0  0  0  0
   33.6050   28.8790   47.8410 N   0  0  0  0  0  0  0  0  0  0  0  0
   33.1310   28.1070   49.0230 C   0  0  0  0  0  0  0  0  0  0  0  0
   31.7210   28.2590   49.2230 N   0  0  0  0  0  0  0  0  0  0  0  0
   36.0690   30.4570   49.5560 C   0  0  2  0  0  0  0  0  0  0  0  0
   37.1690   31.3760   49.0720 C   0  0  0  0  0  0  0  0  0  0  0  0
   37.3490   32.5780   49.7240 C   0  0  0  0  0  0  0  0  0  0  0  0
   38.3820   33.4040   49.1990 C   0  0  0  0  0  0  0  0  0  0  0  0
   39.1020   32.9910   48.1410 N   0  0  0  0  0  0  0  0  0  0  0  0
   38.8970   31.7860   47.5130 C   0  0  0  0  0  0  0  0  0  0  0  0
   37.9180   30.9820   47.9950 N   0  0  0  0  0  0  0  0  0  0  0  0
   36.5930   29.8350   50.9240 C   0  0  0  0  0  0  0  0  0  0  0  0
   35.4740   29.2170   51.4930 O   0  0  0  0  0  0  0  0  0  0  0  0
   36.7793   29.1543   48.1386 H   0  0  0  0  0  0  0  0  0  0  0  0
   35.4432   28.5657   49.3229 H   0  0  0  0  0  0  0  0  0  0  0  0
   35.5071   30.5770   45.9263 H   0  0  0  0  0  0  0  0  0  0  0  0
   31.7351   28.7184   46.6643 H   0  0  0  0  0  0  0  0  0  0  0  0
   33.3563   27.0417   48.8670 H   0  0  0  0  0  0  0  0  0  0  0  0
   33.6477   28.4922   49.9144 H   0  0  0  0  0  0  0  0  0  0  0  0
   31.5178   28.2809   50.2325 H   0  0  0  0  0  0  0  0  0  0  0  0
   31.4057   29.1389   48.7902 H   0  0  0  0  0  0  0  0  0  0  0  0
   35.1353   31.0321   49.6423 H   0  0  0  0  0  0  0  0  0  0  0  0
   36.7376   32.8768   50.5882 H   0  0  0  0  0  0  0  0  0  0  0  0
   38.5917   34.3810   49.6589 H   0  0  0  0  0  0  0  0  0  0  0  0
   39.5067   31.4842   46.6486 H   0  0  0  0  0  0  0  0  0  0  0  0
   37.3871   29.0978   50.7344 H   0  0  0  0  0  0  0  0  0  0  0  0
   37.0245   30.5994   51.5869 H   0  0  0  0  0  0  0  0  0  0  0  0
   35.5424   29.2547   52.4799 H   0  0  0  0  0  0  0  0  0  0  0  0
  1  9  1  0
  2  6  1  0
  2  1  1  0
  3  2  2  0
  4  3  1  0
  4  5  2  0
  5  6  1  0
  6  7  1  0
  7  8  1  0
  9 16  1  0
 10  9  1  0
 10 11  2  0
 12 11  1  0
 13 12  2  0
 14 15  2  0
 14 13  1  0
 15 10  1  0
 16 17  1  0
  1 18  1  0
  1 19  1  0
  3 20  1  0
  5 21  1  0
  7 22  1  0
  7 23  1  0
  8 24  1  0
  8 25  1  0
  9 26  1  1
 11 27  1  0
 12 28  1  0
 14 29  1  0
 16 30  1  0
 16 31  1  0
 17 32  1  0
M  ISO  8  18   8  19   8  20  14  21  14  22   8  23   8  24   5  25   5
M  ISO  7  26   8  27  14  28  14  29  14  30   8  31   8  32   3
M  END
>  <minimizedAffinity>  (1) 
-4.80182457

>  <minimizedRMSD>  (1) 
0.227400273

$$$$
