
     RDKit          3D

 38 39  0  0  1  0  0  0  0  0999 V2000
   37.2540   31.5810   48.7150 C   0  0  1  0  0  0  0  0  0  0  0  0
   38.3500   32.4000   48.0860 C   0  0  0  0  0  0  0  0  0  0  0  0
   38.9010   33.4330   48.8270 C   0  0  0  0  0  0  0  0  0  0  0  0
   39.9090   34.1850   48.1870 C   0  0  0  0  0  0  0  0  0  0  0  0
   40.2690   33.8690   46.9330 N   0  0  0  0  0  0  0  0  0  0  0  0
   39.7040   32.8270   46.2040 C   0  0  0  0  0  0  0  0  0  0  0  0
   38.7310   32.0940   46.8080 N   0  0  0  0  0  0  0  0  0  0  0  0
   37.0360   30.3190   48.0540 C   0  0  0  0  0  0  0  0  0  0  0  0
   35.8050   30.0420   47.4240 C   0  0  0  0  0  0  0  0  0  0  0  0
   35.2360   30.1920   46.1830 C   0  0  0  0  0  0  0  0  0  0  0  0
   33.9690   29.7190   46.1380 N   0  0  0  0  0  0  0  0  0  0  0  0
   33.6670   29.2420   47.3490 C   0  0  0  0  0  0  0  0  0  0  0  0
   34.7860   29.4440   48.1160 N   0  0  0  0  0  0  0  0  0  0  0  0
   34.7850   29.0200   49.5210 C   0  0  0  0  0  0  0  0  0  0  0  0
   33.7780   29.7180   50.2960 N   0  0  0  0  0  0  0  0  0  0  0  0
   37.7160   31.2630   50.1940 C   0  0  0  0  0  0  0  0  0  0  0  0
   38.2950   29.9510   50.2180 N   0  0  0  0  0  0  0  0  0  0  0  0
   38.0020   29.2310   51.4340 C   0  0  0  0  0  0  0  0  0  0  0  0
   37.4810   29.7710   52.4670 N   0  0  0  0  0  0  0  0  0  0  0  0
   38.3270   27.8270   51.4670 N   0  0  0  0  0  0  0  0  0  0  0  0
   37.2880   29.2140   53.3190 H   0  0  0  0  0  0  0  0  0  0  0  0
   36.3179   32.1552   48.6518 H   0  0  0  0  0  0  0  0  0  0  0  0
   38.5722   33.6538   49.8532 H   0  0  0  0  0  0  0  0  0  0  0  0
   40.3949   35.0217   48.7104 H   0  0  0  0  0  0  0  0  0  0  0  0
   40.0321   32.6047   45.1779 H   0  0  0  0  0  0  0  0  0  0  0  0
   37.8125   30.2309   47.2799 H   0  0  0  0  0  0  0  0  0  0  0  0
   37.0548   29.5989   48.8854 H   0  0  0  0  0  0  0  0  0  0  0  0
   35.7516   30.6451   45.3234 H   0  0  0  0  0  0  0  0  0  0  0  0
   32.7186   28.7830   47.6650 H   0  0  0  0  0  0  0  0  0  0  0  0
   34.5829   27.9397   49.5662 H   0  0  0  0  0  0  0  0  0  0  0  0
   35.7699   29.2576   49.9493 H   0  0  0  0  0  0  0  0  0  0  0  0
   33.9662   29.5876   51.3002 H   0  0  0  0  0  0  0  0  0  0  0  0
   33.8053   30.7223   50.0692 H   0  0  0  0  0  0  0  0  0  0  0  0
   38.4622   32.0038   50.5170 H   0  0  0  0  0  0  0  0  0  0  0  0
   36.8538   31.3069   50.8757 H   0  0  0  0  0  0  0  0  0  0  0  0
   38.8601   29.5637   49.4489 H   0  0  0  0  0  0  0  0  0  0  0  0
   38.1352   27.2738   52.3144 H   0  0  0  0  0  0  0  0  0  0  0  0
   38.7510   27.3770   50.6432 H   0  0  0  0  0  0  0  0  0  0  0  0
  1 16  1  0
  2  1  1  0
  2  3  2  0
  4  3  1  0
  5  4  2  0
  6  7  2  0
  6  5  1  0
  7  2  1  0
  8  1  1  0
  9  8  1  0
  9 13  1  0
 10  9  2  0
 11 10  1  0
 11 12  2  0
 12 13  1  0
 13 14  1  0
 14 15  1  0
 16 17  1  0
 17 18  1  0
 18 20  1  0
 18 19  2  0
 19 21  1  0
  1 22  1  1
  3 23  1  0
  4 24  1  0
  6 25  1  0
  8 26  1  0
  8 27  1  0
 10 28  1  0
 12 29  1  0
 14 30  1  0
 14 31  1  0
 15 32  1  0
 15 33  1  0
 16 34  1  0
 16 35  1  0
 17 36  1  0
 20 37  1  0
 20 38  1  0
M  ISO  8  22   8  23  14  24  14  25  14  26   8  27   8  28  14  29  14
M  ISO  6  30   8  31   8  32   5  33   5  34   8  35   8
M  END
>  <minimizedAffinity>  (1) 
-4.69769192

>  <minimizedRMSD>  (1) 
2.1015718

$$$$
