
     RDKit          3D

 33 34  0  0  1  0  0  0  0  0999 V2000
   36.0220   30.3870   49.6160 C   0  0  1  0  0  0  0  0  0  0  0  0
   37.1160   31.3060   49.1220 C   0  0  0  0  0  0  0  0  0  0  0  0
   37.2800   32.5230   49.7530 C   0  0  0  0  0  0  0  0  0  0  0  0
   38.2990   33.3540   49.2360 C   0  0  0  0  0  0  0  0  0  0  0  0
   39.0360   32.9210   48.1810 N   0  0  0  0  0  0  0  0  0  0  0  0
   38.8530   31.7020   47.5680 C   0  0  0  0  0  0  0  0  0  0  0  0
   37.8770   30.9000   48.0590 N   0  0  0  0  0  0  0  0  0  0  0  0
   35.7700   29.2880   48.7130 C   0  0  0  0  0  0  0  0  0  0  0  0
   34.7960   29.4150   47.6920 C   0  0  0  0  0  0  0  0  0  0  0  0
   34.6980   29.9860   46.4660 C   0  0  0  0  0  0  0  0  0  0  0  0
   33.4720   29.7840   45.9010 N   0  0  0  0  0  0  0  0  0  0  0  0
   32.7520   29.0720   46.7620 C   0  0  0  0  0  0  0  0  0  0  0  0
   33.5560   28.8520   47.8430 N   0  0  0  0  0  0  0  0  0  0  0  0
   33.0480   28.0740   49.0000 C   0  0  0  0  0  0  0  0  0  0  0  0
   31.6190   28.1080   49.0690 N   0  0  0  0  0  0  0  0  0  0  0  0
   36.5560   29.7590   50.9740 C   0  0  0  0  0  0  0  0  0  0  0  0
   35.4100   29.2270   51.6570 N   0  0  0  0  0  0  0  0  0  0  0  0
   35.0908   30.9636   49.7181 H   0  0  0  0  0  0  0  0  0  0  0  0
   36.6556   32.8270   50.6060 H   0  0  0  0  0  0  0  0  0  0  0  0
   38.4930   34.3402   49.6829 H   0  0  0  0  0  0  0  0  0  0  0  0
   39.4736   31.3916   46.7145 H   0  0  0  0  0  0  0  0  0  0  0  0
   36.7242   29.0625   48.2143 H   0  0  0  0  0  0  0  0  0  0  0  0
   35.3455   28.5150   49.3704 H   0  0  0  0  0  0  0  0  0  0  0  0
   35.5118   30.5467   45.9830 H   0  0  0  0  0  0  0  0  0  0  0  0
   31.7154   28.7286   46.6299 H   0  0  0  0  0  0  0  0  0  0  0  0
   33.3761   27.0289   48.8995 H   0  0  0  0  0  0  0  0  0  0  0  0
   33.4484   28.5238   49.9205 H   0  0  0  0  0  0  0  0  0  0  0  0
   31.3230   28.1150   50.0555 H   0  0  0  0  0  0  0  0  0  0  0  0
   31.2728   28.9575   48.6006 H   0  0  0  0  0  0  0  0  0  0  0  0
   37.2787   28.9570   50.7632 H   0  0  0  0  0  0  0  0  0  0  0  0
   37.0682   30.5152   51.5870 H   0  0  0  0  0  0  0  0  0  0  0  0
   35.5549   29.2943   52.6745 H   0  0  0  0  0  0  0  0  0  0  0  0
   34.5725   29.7654   51.3931 H   0  0  0  0  0  0  0  0  0  0  0  0
  1 16  1  0
  2  1  1  0
  2  3  2  0
  4  3  1  0
  5  4  2  0
  6  7  2  0
  6  5  1  0
  7  2  1  0
  8  1  1  0
  9 13  1  0
  9  8  1  0
 10  9  2  0
 11 10  1  0
 11 12  2  0
 12 13  1  0
 13 14  1  0
 14 15  1  0
 16 17  1  0
  1 18  1  1
  3 19  1  0
  4 20  1  0
  6 21  1  0
  8 22  1  0
  8 23  1  0
 10 24  1  0
 12 25  1  0
 14 26  1  0
 14 27  1  0
 15 28  1  0
 15 29  1  0
 16 30  1  0
 16 31  1  0
 17 32  1  0
 17 33  1  0
M  ISO  8  18   8  19  14  20  14  21  14  22   8  23   8  24  14  25  14
M  ISO  8  26   8  27   8  28   5  29   5  30   8  31   8  32   5  33   5
M  END
>  <minimizedAffinity>  (1) 
-4.67768478

>  <minimizedRMSD>  (1) 
0.207120642

$$$$
