
     RDKit          3D

 26 28  0  0  0  0  0  0  0  0999 V2000
   38.3490   32.1320   48.6690 C   0  0  0  0  0  0  0  0  0  0  0  0
   38.5970   33.2650   49.4160 C   0  0  0  0  0  0  0  0  0  0  0  0
   39.4490   34.2750   48.9610 C   0  0  0  0  0  0  0  0  0  0  0  0
   40.0600   34.1350   47.7240 C   0  0  0  0  0  0  0  0  0  0  0  0
   39.8090   33.0040   46.9790 C   0  0  0  0  0  0  0  0  0  0  0  0
   40.3730   32.7840   45.7280 C   0  0  0  0  0  0  0  0  0  0  0  0
   40.0660   31.6150   45.0270 C   0  0  0  0  0  0  0  0  0  0  0  0
   39.2110   30.6450   45.5280 C   0  0  0  0  0  0  0  0  0  0  0  0
   38.6540   30.8630   46.7660 C   0  0  0  0  0  0  0  0  0  0  0  0
   38.9680   32.0190   47.4430 C   0  0  0  0  0  0  0  0  0  0  0  0
   36.1010   30.9820   49.1110 C   0  0  0  0  0  0  0  0  0  0  0  0
   37.4600   31.2200   49.3620 C   0  0  0  0  0  0  0  0  0  0  0  0
   38.0270   30.4890   50.4340 C   0  0  0  0  0  0  0  0  0  0  0  0
   37.2410   29.6230   51.1380 N   0  0  0  0  0  0  0  0  0  0  0  0
   35.9410   29.4440   50.8420 C   0  0  0  0  0  0  0  0  0  0  0  0
   35.3780   30.1220   49.8330 N   0  0  0  0  0  0  0  0  0  0  0  0
   38.1109   33.3764   50.3964 H   0  0  0  0  0  0  0  0  0  0  0  0
   39.6324   35.1687   49.5756 H   0  0  0  0  0  0  0  0  0  0  0  0
   40.7351   34.9156   47.3434 H   0  0  0  0  0  0  0  0  0  0  0  0
   41.0576   33.5264   45.2920 H   0  0  0  0  0  0  0  0  0  0  0  0
   40.5209   31.4578   44.0379 H   0  0  0  0  0  0  0  0  0  0  0  0
   38.9863   29.7332   44.9551 H   0  0  0  0  0  0  0  0  0  0  0  0
   37.9684   30.1251   47.2081 H   0  0  0  0  0  0  0  0  0  0  0  0
   35.6120   31.5242   48.2883 H   0  0  0  0  0  0  0  0  0  0  0  0
   39.0876   30.6174   50.6962 H   0  0  0  0  0  0  0  0  0  0  0  0
   35.3375   28.7377   51.4311 H   0  0  0  0  0  0  0  0  0  0  0  0
  1 12  1  0
  1  2  2  0
  3  2  1  0
  4  3  2  0
  5 10  2  0
  5  4  1  0
  6  5  1  0
  7  8  1  0
  7  6  2  0
  8  9  2  0
  9 10  1  0
 10  1  1  0
 11 12  2  0
 11 16  1  0
 12 13  1  0
 13 14  2  0
 15 14  1  0
 16 15  2  0
  2 17  1  0
  3 18  1  0
  4 19  1  0
  6 20  1  0
  7 21  1  0
  8 22  1  0
  9 23  1  0
 11 24  1  0
 13 25  1  0
 15 26  1  0
M  ISO  8  17  14  18  14  19  14  20  14  21  14  22  14  23  14  24  14
M  ISO  2  25  14  26  14
M  END
>  <minimizedAffinity>  (1) 
-6.54873228

>  <minimizedRMSD>  (1) 
2.97528052

$$$$
