
     RDKit          3D

 32 35  0  0  0  0  0  0  0  0999 V2000
   36.9270   31.2180   48.1690 C   0  0  0  0  0  0  0  0  0  0  0  0
   36.9160   31.8330   49.3920 C   0  0  0  0  0  0  0  0  0  0  0  0
   37.8930   32.7650   49.7570 C   0  0  0  0  0  0  0  0  0  0  0  0
   38.8900   33.0710   48.8580 C   0  0  0  0  0  0  0  0  0  0  0  0
   38.8970   32.4450   47.6200 C   0  0  0  0  0  0  0  0  0  0  0  0
   39.8660   32.6920   46.6460 C   0  0  0  0  0  0  0  0  0  0  0  0
   39.8090   32.0290   45.4280 C   0  0  0  0  0  0  0  0  0  0  0  0
   38.8150   31.1210   45.1360 C   0  0  0  0  0  0  0  0  0  0  0  0
   37.8590   30.8730   46.0900 C   0  0  0  0  0  0  0  0  0  0  0  0
   37.9320   31.5360   47.2840 C   0  0  0  0  0  0  0  0  0  0  0  0
   34.7760   30.2930   47.1070 C   0  0  0  0  0  0  0  0  0  0  0  0
   35.8170   30.2930   48.0300 C   0  0  0  0  0  0  0  0  0  0  0  0
   35.7850   29.2320   48.9800 C   0  0  0  0  0  0  0  0  0  0  0  0
   34.7690   28.3190   48.9200 N   0  0  0  0  0  0  0  0  0  0  0  0
   33.8020   28.3850   48.0010 C   0  0  0  0  0  0  0  0  0  0  0  0
   33.8130   29.3670   47.1040 N   0  0  0  0  0  0  0  0  0  0  0  0
   32.8230   27.3580   48.0780 N   0  0  0  0  0  0  0  0  0  0  0  0
   32.8770   26.1130   47.5790 C   0  0  0  0  0  0  0  0  0  0  0  0
   31.7260   25.5390   47.9090 N   0  0  0  0  0  0  0  0  0  0  0  0
   30.9620   26.4090   48.6050 C   0  0  0  0  0  0  0  0  0  0  0  0
   31.6600   27.5410   48.7030 N   0  0  0  0  0  0  0  0  0  0  0  0
   36.1171   31.5875   50.1071 H   0  0  0  0  0  0  0  0  0  0  0  0
   37.8653   33.2456   50.7461 H   0  0  0  0  0  0  0  0  0  0  0  0
   39.6701   33.8017   49.1178 H   0  0  0  0  0  0  0  0  0  0  0  0
   40.6742   33.4116   46.8437 H   0  0  0  0  0  0  0  0  0  0  0  0
   40.5815   32.2350   44.6724 H   0  0  0  0  0  0  0  0  0  0  0  0
   38.7878   30.6077   44.1635 H   0  0  0  0  0  0  0  0  0  0  0  0
   37.0491   30.1540   45.8974 H   0  0  0  0  0  0  0  0  0  0  0  0
   34.7445   31.0886   46.3480 H   0  0  0  0  0  0  0  0  0  0  0  0
   36.5659   29.1485   49.7502 H   0  0  0  0  0  0  0  0  0  0  0  0
   33.7048   25.6611   47.0129 H   0  0  0  0  0  0  0  0  0  0  0  0
   29.9578   26.2201   49.0123 H   0  0  0  0  0  0  0  0  0  0  0  0
  1  2  2  0
  2  3  1  0
  4  3  2  0
  5  4  1  0
  6  5  2  0
  7  6  1  0
  8  7  2  0
  8  9  1  0
  9 10  2  0
 10  5  1  0
 10  1  1  0
 11 12  2  0
 12  1  1  0
 12 13  1  0
 14 13  2  0
 15 17  1  0
 15 14  1  0
 16 11  1  0
 16 15  2  0
 17 21  1  0
 18 19  2  0
 18 17  1  0
 19 20  1  0
 20 21  2  0
  2 22  1  0
  3 23  1  0
  4 24  1  0
  6 25  1  0
  7 26  1  0
  8 27  1  0
  9 28  1  0
 11 29  1  0
 13 30  1  0
 18 31  1  0
 20 32  1  0
M  ISO  8  22  14  23  14  24  14  25  14  26  14  27  14  28  14  29  14
M  ISO  3  30  14  31  14  32  14
M  END
>  <minimizedAffinity>  (1) 
-6.80202866

>  <minimizedRMSD>  (1) 
3.18287253

$$$$
