
     RDKit          3D

 39 42  0  0  0  0  0  0  0  0999 V2000
   37.0630   31.3980   47.9640 C   0  0  0  0  0  0  0  0  0  0  0  0
   37.1640   31.8650   49.2500 C   0  0  0  0  0  0  0  0  0  0  0  0
   38.1900   32.7320   49.6340 C   0  0  0  0  0  0  0  0  0  0  0  0
   39.1250   33.1280   48.6910 C   0  0  0  0  0  0  0  0  0  0  0  0
   39.0160   32.6520   47.3980 C   0  0  0  0  0  0  0  0  0  0  0  0
   39.9050   32.9970   46.3950 C   0  0  0  0  0  0  0  0  0  0  0  0
   39.7370   32.4830   45.1170 C   0  0  0  0  0  0  0  0  0  0  0  0
   38.7020   31.6270   44.7940 C   0  0  0  0  0  0  0  0  0  0  0  0
   37.8170   31.2850   45.7940 C   0  0  0  0  0  0  0  0  0  0  0  0
   38.0000   31.8020   47.0440 C   0  0  0  0  0  0  0  0  0  0  0  0
   35.3290   30.0220   46.6480 C   0  0  0  0  0  0  0  0  0  0  0  0
   35.9200   30.5140   47.8100 C   0  0  0  0  0  0  0  0  0  0  0  0
   35.3050   30.0890   49.0130 C   0  0  0  0  0  0  0  0  0  0  0  0
   34.2200   29.2590   48.9690 N   0  0  0  0  0  0  0  0  0  0  0  0
   33.7160   28.8320   47.8090 C   0  0  0  0  0  0  0  0  0  0  0  0
   34.2720   29.2150   46.6580 N   0  0  0  0  0  0  0  0  0  0  0  0
   32.5890   27.9690   47.6930 N   0  0  0  0  0  0  0  0  0  0  0  0
   31.6590   27.6890   48.7720 C   0  0  0  0  0  0  0  0  0  0  0  0
   30.9030   26.4230   48.4380 C   0  0  0  0  0  0  0  0  0  0  0  0
   31.7060   25.4210   47.9080 O   0  0  0  0  0  0  0  0  0  0  0  0
   32.4240   25.7890   46.8020 C   0  0  0  0  0  0  0  0  0  0  0  0
   32.2250   27.2560   46.4810 C   0  0  0  0  0  0  0  0  0  0  0  0
   36.4199   31.5495   49.9961 H   0  0  0  0  0  0  0  0  0  0  0  0
   38.2547   33.0952   50.6703 H   0  0  0  0  0  0  0  0  0  0  0  0
   39.9418   33.8110   48.9674 H   0  0  0  0  0  0  0  0  0  0  0  0
   40.7425   33.6768   46.6103 H   0  0  0  0  0  0  0  0  0  0  0  0
   40.4540   32.7675   44.3328 H   0  0  0  0  0  0  0  0  0  0  0  0
   38.5880   31.2318   43.7738 H   0  0  0  0  0  0  0  0  0  0  0  0
   36.9764   30.6061   45.5879 H   0  0  0  0  0  0  0  0  0  0  0  0
   35.7565   30.3146   45.6776 H   0  0  0  0  0  0  0  0  0  0  0  0
   35.7004   30.4268   49.9823 H   0  0  0  0  0  0  0  0  0  0  0  0
   32.2124   27.5533   49.7129 H   0  0  0  0  0  0  0  0  0  0  0  0
   30.9565   28.5270   48.8907 H   0  0  0  0  0  0  0  0  0  0  0  0
   30.4352   26.0438   49.3585 H   0  0  0  0  0  0  0  0  0  0  0  0
   30.1606   26.6830   47.6691 H   0  0  0  0  0  0  0  0  0  0  0  0
   33.4920   25.6049   46.9903 H   0  0  0  0  0  0  0  0  0  0  0  0
   32.0723   25.1949   45.9456 H   0  0  0  0  0  0  0  0  0  0  0  0
   32.8745   27.5589   45.6465 H   0  0  0  0  0  0  0  0  0  0  0  0
   31.1906   27.4711   46.1750 H   0  0  0  0  0  0  0  0  0  0  0  0
  1  2  2  0
  2  3  1  0
  4  3  2  0
  5  4  1  0
  6  5  2  0
  7  6  1  0
  8  7  2  0
  8  9  1  0
  9 10  2  0
 10  5  1  0
 10  1  1  0
 11 16  2  0
 11 12  1  0
 12  1  1  0
 12 13  2  0
 14 13  1  0
 15 14  2  0
 16 15  1  0
 17 15  1  0
 17 18  1  0
 19 18  1  0
 20 19  1  0
 21 20  1  0
 22 21  1  0
 22 17  1  0
  2 23  1  0
  3 24  1  0
  4 25  1  0
  6 26  1  0
  7 27  1  0
  8 28  1  0
  9 29  1  0
 11 30  1  0
 13 31  1  0
 18 32  1  0
 18 33  1  0
 19 34  1  0
 19 35  1  0
 21 36  1  0
 21 37  1  0
 22 38  1  0
 22 39  1  0
M  ISO  8  23  14  24  14  25  14  26  14  27  14  28  14  29  14  30  14
M  ISO  8  31  14  32  13  33  13  34  13  35  13  36  13  37  13  38  13
M  ISO  1  39  13
M  END
>  <minimizedAffinity>  (1) 
-6.58933783

>  <minimizedRMSD>  (1) 
3.27510738

$$$$
