
     RDKit          3D

 31 34  0  0  0  0  0  0  0  0999 V2000
   37.0280   31.1800   48.1140 C   0  0  0  0  0  0  0  0  0  0  0  0
   36.9190   31.8780   49.3070 C   0  0  0  0  0  0  0  0  0  0  0  0
   37.8380   32.8630   49.6680 C   0  0  0  0  0  0  0  0  0  0  0  0
   38.8850   33.1550   48.8180 C   0  0  0  0  0  0  0  0  0  0  0  0
   38.9900   32.4550   47.6260 C   0  0  0  0  0  0  0  0  0  0  0  0
   40.0070   32.6840   46.7090 C   0  0  0  0  0  0  0  0  0  0  0  0
   40.0490   31.9450   45.5290 C   0  0  0  0  0  0  0  0  0  0  0  0
   39.1050   30.9720   45.2190 C   0  0  0  0  0  0  0  0  0  0  0  0
   38.1010   30.7550   46.1370 C   0  0  0  0  0  0  0  0  0  0  0  0
   38.0770   31.4910   47.2910 C   0  0  0  0  0  0  0  0  0  0  0  0
   34.9920   30.1270   46.9820 C   0  0  0  0  0  0  0  0  0  0  0  0
   35.9680   30.2160   47.9690 C   0  0  0  0  0  0  0  0  0  0  0  0
   35.9000   29.2200   48.9900 C   0  0  0  0  0  0  0  0  0  0  0  0
   34.9180   28.2790   48.9370 N   0  0  0  0  0  0  0  0  0  0  0  0
   34.0090   28.2500   47.9620 C   0  0  0  0  0  0  0  0  0  0  0  0
   34.0490   29.1740   46.9860 N   0  0  0  0  0  0  0  0  0  0  0  0
   33.0070   27.1850   48.0240 C   0  0  0  0  0  0  0  0  0  0  0  0
   31.7750   27.2230   48.5650 N   0  0  0  0  0  0  0  0  0  0  0  0
   31.1580   26.0860   48.4370 O   0  0  0  0  0  0  0  0  0  0  0  0
   31.9910   25.2680   47.7960 C   0  0  0  0  0  0  0  0  0  0  0  0
   33.1390   25.9380   47.5350 N   0  0  0  0  0  0  0  0  0  0  0  0
   36.0853   31.6487   49.9870 H   0  0  0  0  0  0  0  0  0  0  0  0
   37.7293   33.4017   50.6209 H   0  0  0  0  0  0  0  0  0  0  0  0
   39.6220   33.9281   49.0811 H   0  0  0  0  0  0  0  0  0  0  0  0
   40.7751   33.4445   46.9131 H   0  0  0  0  0  0  0  0  0  0  0  0
   40.8617   32.1389   44.8135 H   0  0  0  0  0  0  0  0  0  0  0  0
   39.1577   30.4001   44.2809 H   0  0  0  0  0  0  0  0  0  0  0  0
   37.3264   29.9980   45.9447 H   0  0  0  0  0  0  0  0  0  0  0  0
   34.9939   30.8663   46.1675 H   0  0  0  0  0  0  0  0  0  0  0  0
   36.6330   29.2133   49.8101 H   0  0  0  0  0  0  0  0  0  0  0  0
   31.7817   24.2229   47.5240 H   0  0  0  0  0  0  0  0  0  0  0  0
  1  2  2  0
  2  3  1  0
  4  3  2  0
  5  4  1  0
  6  5  2  0
  7  6  1  0
  8  7  2  0
  8  9  1  0
  9 10  2  0
 10  5  1  0
 10  1  1  0
 11 16  2  0
 11 12  1  0
 12  1  1  0
 12 13  2  0
 14 13  1  0
 15 17  1  0
 15 14  2  0
 16 15  1  0
 17 18  2  0
 19 18  1  0
 20 19  1  0
 21 20  2  0
 21 17  1  0
  2 22  1  0
  3 23  1  0
  4 24  1  0
  6 25  1  0
  7 26  1  0
  8 27  1  0
  9 28  1  0
 11 29  1  0
 13 30  1  0
 20 31  1  0
M  ISO  8  22  14  23  14  24  14  25  14  26  14  27  14  28  14  29  14
M  ISO  2  30  14  31  14
M  END
>  <minimizedAffinity>  (1) 
-6.48025036

>  <minimizedRMSD>  (1) 
3.15928531

$$$$
