
     RDKit          3D

 29 31  0  0  0  0  0  0  0  0999 V2000
   36.6960   31.0690   48.3100 C   0  0  0  0  0  0  0  0  0  0  0  0
   36.7270   31.6890   49.5420 C   0  0  0  0  0  0  0  0  0  0  0  0
   37.7260   32.6160   49.8580 C   0  0  0  0  0  0  0  0  0  0  0  0
   38.6950   32.9140   48.9180 C   0  0  0  0  0  0  0  0  0  0  0  0
   38.6510   32.2820   47.6830 C   0  0  0  0  0  0  0  0  0  0  0  0
   39.5850   32.5220   46.6770 C   0  0  0  0  0  0  0  0  0  0  0  0
   39.4790   31.8540   45.4660 C   0  0  0  0  0  0  0  0  0  0  0  0
   38.4710   30.9500   45.2130 C   0  0  0  0  0  0  0  0  0  0  0  0
   37.5440   30.7110   46.2070 C   0  0  0  0  0  0  0  0  0  0  0  0
   37.6680   31.3790   47.3920 C   0  0  0  0  0  0  0  0  0  0  0  0
   34.4350   30.2320   47.4140 C   0  0  0  0  0  0  0  0  0  0  0  0
   35.5730   30.1520   48.2130 C   0  0  0  0  0  0  0  0  0  0  0  0
   35.6460   29.0070   49.0580 C   0  0  0  0  0  0  0  0  0  0  0  0
   34.6360   28.0890   49.0390 N   0  0  0  0  0  0  0  0  0  0  0  0
   33.5720   28.2340   48.2450 C   0  0  0  0  0  0  0  0  0  0  0  0
   33.4720   29.3020   47.4350 N   0  0  0  0  0  0  0  0  0  0  0  0
   32.5490   27.2080   48.2920 C   0  0  0  0  0  0  0  0  0  0  0  0
   31.4620   27.4870   48.8780 O   0  0  0  0  0  0  0  0  0  0  0  0
   32.6670   25.9420   47.7440 O   0  0  0  0  0  0  0  0  0  0  0  0
   35.9541   31.4507   50.2876 H   0  0  0  0  0  0  0  0  0  0  0  0
   37.7404   33.1028   50.8443 H   0  0  0  0  0  0  0  0  0  0  0  0
   39.4887   33.6409   49.1454 H   0  0  0  0  0  0  0  0  0  0  0  0
   40.4031   33.2384   46.8426 H   0  0  0  0  0  0  0  0  0  0  0  0
   40.2244   32.0527   44.6819 H   0  0  0  0  0  0  0  0  0  0  0  0
   38.4066   30.4324   44.2445 H   0  0  0  0  0  0  0  0  0  0  0  0
   36.7222   29.9973   46.0483 H   0  0  0  0  0  0  0  0  0  0  0  0
   34.3230   31.0933   46.7390 H   0  0  0  0  0  0  0  0  0  0  0  0
   36.5113   28.8637   49.7218 H   0  0  0  0  0  0  0  0  0  0  0  0
   31.9189   25.2980   47.8200 H   0  0  0  0  0  0  0  0  0  0  0  0
  1  2  2  0
  2  3  1  0
  4  3  2  0
  5  4  1  0
  6  5  2  0
  7  6  1  0
  8  7  2  0
  8  9  1  0
  9 10  2  0
 10  5  1  0
 10  1  1  0
 11 16  2  0
 11 12  1  0
 12  1  1  0
 12 13  2  0
 14 13  1  0
 15 17  1  0
 15 14  2  0
 16 15  1  0
 17 18  2  0
 19 17  1  0
  2 20  1  0
  3 21  1  0
  4 22  1  0
  6 23  1  0
  7 24  1  0
  8 25  1  0
  9 26  1  0
 11 27  1  0
 13 28  1  0
 19 29  1  0
M  ISO  8  20  14  21  14  22  14  23  14  24  14  25  14  26  14  27  14
M  ISO  2  28  14  29   3
M  END
>  <minimizedAffinity>  (1) 
-6.25578594

>  <minimizedRMSD>  (1) 
2.86916661

$$$$
