
     RDKit          3D

 43 47  0  0  1  0  0  0  0  0999 V2000
   34.6510   30.2540   47.5190 C   0  0  0  0  0  0  0  0  0  0  0  0
   35.8020   30.2330   48.3140 C   0  0  0  0  0  0  0  0  0  0  0  0
   35.9200   29.1170   49.1730 C   0  0  0  0  0  0  0  0  0  0  0  0
   34.9470   28.1620   49.1800 N   0  0  0  0  0  0  0  0  0  0  0  0
   33.8780   28.2400   48.4010 C   0  0  0  0  0  0  0  0  0  0  0  0
   33.7260   29.2830   47.5690 N   0  0  0  0  0  0  0  0  0  0  0  0
   36.8840   31.1990   48.3790 C   0  0  0  0  0  0  0  0  0  0  0  0
   36.8530   31.9090   49.5460 C   0  0  0  0  0  0  0  0  0  0  0  0
   37.7940   32.8950   49.8230 C   0  0  0  0  0  0  0  0  0  0  0  0
   38.7920   33.1700   48.8920 C   0  0  0  0  0  0  0  0  0  0  0  0
   38.8060   32.4470   47.7250 C   0  0  0  0  0  0  0  0  0  0  0  0
   39.7640   32.6350   46.7130 C   0  0  0  0  0  0  0  0  0  0  0  0
   39.7280   31.8760   45.5630 C   0  0  0  0  0  0  0  0  0  0  0  0
   38.7720   30.9220   45.3590 C   0  0  0  0  0  0  0  0  0  0  0  0
   37.8230   30.7210   46.3390 C   0  0  0  0  0  0  0  0  0  0  0  0
   37.8720   31.4780   47.4680 C   0  0  0  0  0  0  0  0  0  0  0  0
   32.8510   27.1680   48.4560 C   0  0  1  0  0  0  0  0  0  0  0  0
   31.4120   27.5250   48.5740 C   0  0  0  0  0  0  0  0  0  0  0  0
   31.9370   26.9420   47.2840 C   0  0  2  0  0  0  0  0  0  0  0  0
   31.6310   25.5830   46.9090 N   0  0  0  0  0  0  0  0  0  0  0  0
   32.4780   24.6390   47.3640 C   0  0  0  0  0  0  0  0  0  0  0  0
   32.2060   23.3300   47.0180 C   0  0  0  0  0  0  0  0  0  0  0  0
   31.1020   23.0520   46.2380 C   0  0  0  0  0  0  0  0  0  0  0  0
   30.9130   21.8500   45.9600 O   0  0  0  0  0  0  0  0  0  0  0  0
   30.2510   23.9900   45.7790 N   0  0  0  0  0  0  0  0  0  0  0  0
   30.5570   25.2550   46.1430 C   0  0  0  0  0  0  0  0  0  0  0  0
   29.7840   26.1660   45.7340 O   0  0  0  0  0  0  0  0  0  0  0  0
   34.4988   31.0965   46.8283 H   0  0  0  0  0  0  0  0  0  0  0  0
   36.7940   29.0192   49.8338 H   0  0  0  0  0  0  0  0  0  0  0  0
   36.0654   31.6958   50.2837 H   0  0  0  0  0  0  0  0  0  0  0  0
   37.7501   33.4530   50.7699 H   0  0  0  0  0  0  0  0  0  0  0  0
   39.5482   33.9449   49.0861 H   0  0  0  0  0  0  0  0  0  0  0  0
   40.5493   33.3947   46.8402 H   0  0  0  0  0  0  0  0  0  0  0  0
   40.4904   32.0432   44.7879 H   0  0  0  0  0  0  0  0  0  0  0  0
   38.7594   30.3274   44.4337 H   0  0  0  0  0  0  0  0  0  0  0  0
   37.0388   29.9605   46.2098 H   0  0  0  0  0  0  0  0  0  0  0  0
   33.5416   26.5343   49.0318 H   0  0  0  0  0  0  0  0  0  0  0  0
   30.7487   26.9278   49.2170 H   0  0  0  0  0  0  0  0  0  0  0  0
   30.8574   28.4352   48.8459 H   0  0  0  0  0  0  0  0  0  0  0  0
   31.9001   27.2532   46.2296 H   0  0  0  0  0  0  0  0  0  0  0  0
   33.3483   24.8997   47.9841 H   0  0  0  0  0  0  0  0  0  0  0  0
   32.8629   22.5169   47.3608 H   0  0  0  0  0  0  0  0  0  0  0  0
   29.4325   23.7613   45.1971 H   0  0  0  0  0  0  0  0  0  0  0  0
  1  6  2  0
  1  2  1  0
  2  7  1  0
  2  3  2  0
  3  4  1  0
  5 17  1  0
  5  4  2  0
  6  5  1  0
  7  8  2  0
  8  9  1  0
 10  9  2  0
 11 10  1  0
 12 11  2  0
 13 12  1  0
 14 13  2  0
 14 15  1  0
 15 16  2  0
 16 11  1  0
 16  7  1  0
 17 18  1  0
 19 17  1  0
 19 18  1  0
 20 19  1  0
 20 21  1  0
 22 21  2  0
 23 22  1  0
 24 23  2  0
 25 26  1  0
 25 23  1  0
 26 20  1  0
 27 26  2  0
  1 28  1  0
  3 29  1  0
  8 30  1  0
  9 31  1  0
 10 32  1  0
 12 33  1  0
 13 34  1  0
 14 35  1  0
 15 36  1  0
 17 37  1  1
 18 38  1  0
 18 39  1  0
 19 40  1  6
 21 41  1  0
 22 42  1  0
 25 43  1  0
M  ISO  8  28  14  29  14  30  14  31  14  32  14  33  14  34  14  35  14
M  ISO  8  36  14  37  13  38  13  39  13  40  13  41  14  42  14  43   9
M  END
>  <minimizedAffinity>  (1) 
-6.96726131

>  <minimizedRMSD>  (1) 
2.26450682

$$$$
