
     RDKit          3D

 40 44  0  0  1  0  0  0  0  0999 V2000
   34.9840   30.1670   47.2430 C   0  0  0  0  0  0  0  0  0  0  0  0
   36.0490   30.2800   48.1190 C   0  0  0  0  0  0  0  0  0  0  0  0
   36.1000   29.2780   49.1400 C   0  0  0  0  0  0  0  0  0  0  0  0
   35.1380   28.3170   49.1860 N   0  0  0  0  0  0  0  0  0  0  0  0
   34.1430   28.2700   48.3100 C   0  0  0  0  0  0  0  0  0  0  0  0
   34.0630   29.1940   47.3380 N   0  0  0  0  0  0  0  0  0  0  0  0
   37.1210   31.2600   48.1610 C   0  0  0  0  0  0  0  0  0  0  0  0
   37.0870   31.9970   49.3050 C   0  0  0  0  0  0  0  0  0  0  0  0
   38.0230   32.9990   49.5540 C   0  0  0  0  0  0  0  0  0  0  0  0
   39.0110   33.2520   48.6170 C   0  0  0  0  0  0  0  0  0  0  0  0
   39.0350   32.4910   47.4520 C   0  0  0  0  0  0  0  0  0  0  0  0
   39.9910   32.6710   46.4510 C   0  0  0  0  0  0  0  0  0  0  0  0
   39.9540   31.8800   45.3220 C   0  0  0  0  0  0  0  0  0  0  0  0
   39.0060   30.9130   45.1390 C   0  0  0  0  0  0  0  0  0  0  0  0
   38.0580   30.7320   46.1290 C   0  0  0  0  0  0  0  0  0  0  0  0
   38.0990   31.5140   47.2400 C   0  0  0  0  0  0  0  0  0  0  0  0
   33.1220   27.1910   48.4180 C   0  0  1  0  0  0  0  0  0  0  0  0
   31.6840   27.5520   48.5310 C   0  0  0  0  0  0  0  0  0  0  0  0
   32.2000   26.9160   47.2650 C   0  0  2  0  0  0  0  0  0  0  0  0
   31.8390   25.5680   46.9160 N   0  0  0  0  0  0  0  0  0  0  0  0
   30.8360   25.2310   46.0840 C   0  0  0  0  0  0  0  0  0  0  0  0
   30.8120   23.8500   46.0090 C   0  0  0  0  0  0  0  0  0  0  0  0
   31.8120   23.4200   46.8070 N   0  0  0  0  0  0  0  0  0  0  0  0
   32.4450   24.4560   47.3660 C   0  0  0  0  0  0  0  0  0  0  0  0
   34.8874   30.9059   46.4339 H   0  0  0  0  0  0  0  0  0  0  0  0
   36.9116   29.2849   49.8825 H   0  0  0  0  0  0  0  0  0  0  0  0
   36.3027   31.7971   50.0500 H   0  0  0  0  0  0  0  0  0  0  0  0
   37.9776   33.5829   50.4851 H   0  0  0  0  0  0  0  0  0  0  0  0
   39.7610   34.0379   48.7899 H   0  0  0  0  0  0  0  0  0  0  0  0
   40.7698   33.4398   46.5621 H   0  0  0  0  0  0  0  0  0  0  0  0
   40.7140   32.0328   44.5416 H   0  0  0  0  0  0  0  0  0  0  0  0
   38.9973   30.2954   44.2288 H   0  0  0  0  0  0  0  0  0  0  0  0
   37.2789   29.9633   46.0187 H   0  0  0  0  0  0  0  0  0  0  0  0
   33.8184   26.5813   49.0123 H   0  0  0  0  0  0  0  0  0  0  0  0
   31.0256   26.9823   49.2033 H   0  0  0  0  0  0  0  0  0  0  0  0
   31.1306   28.4726   48.7680 H   0  0  0  0  0  0  0  0  0  0  0  0
   32.1837   27.1761   46.1963 H   0  0  0  0  0  0  0  0  0  0  0  0
   30.1611   25.9246   45.5611 H   0  0  0  0  0  0  0  0  0  0  0  0
   30.1202   23.2298   45.4201 H   0  0  0  0  0  0  0  0  0  0  0  0
   33.2970   24.4078   48.0600 H   0  0  0  0  0  0  0  0  0  0  0  0
  1  6  2  0
  1  2  1  0
  2  7  1  0
  2  3  2  0
  3  4  1  0
  5 17  1  0
  5  4  2  0
  6  5  1  0
  7  8  2  0
  8  9  1  0
 10  9  2  0
 11 10  1  0
 12 11  2  0
 13 12  1  0
 14 13  2  0
 14 15  1  0
 15 16  2  0
 16 11  1  0
 16  7  1  0
 17 18  1  0
 19 17  1  0
 19 18  1  0
 20 19  1  0
 20 24  1  0
 21 20  1  0
 22 21  2  0
 22 23  1  0
 23 24  2  0
  1 25  1  0
  3 26  1  0
  8 27  1  0
  9 28  1  0
 10 29  1  0
 12 30  1  0
 13 31  1  0
 14 32  1  0
 15 33  1  0
 17 34  1  1
 18 35  1  0
 18 36  1  0
 19 37  1  6
 21 38  1  0
 22 39  1  0
 24 40  1  0
M  ISO  8  25  14  26  14  27  14  28  14  29  14  30  14  31  14  32  14
M  ISO  8  33  14  34  13  35  13  36  13  37  13  38  14  39  14  40  14
M  END
>  <minimizedAffinity>  (1) 
-6.6313839

>  <minimizedRMSD>  (1) 
1.65436351

$$$$
