
     RDKit          3D

 35 38  0  0  1  0  0  0  0  0999 V2000
   35.8230   30.6040   47.3870 C   0  0  0  0  0  0  0  0  0  0  0  0
   36.9100   30.8510   48.2060 C   0  0  0  0  0  0  0  0  0  0  0  0
   37.0580   29.9310   49.2930 C   0  0  0  0  0  0  0  0  0  0  0  0
   36.1650   28.9170   49.4500 N   0  0  0  0  0  0  0  0  0  0  0  0
   35.1410   28.7460   48.6160 C   0  0  0  0  0  0  0  0  0  0  0  0
   34.9760   29.5810   47.5990 N   0  0  0  0  0  0  0  0  0  0  0  0
   37.9110   31.8940   48.1300 C   0  0  0  0  0  0  0  0  0  0  0  0
   37.9740   32.6100   49.2940 C   0  0  0  0  0  0  0  0  0  0  0  0
   38.8740   33.6730   49.4420 C   0  0  0  0  0  0  0  0  0  0  0  0
   39.7130   33.9980   48.3920 C   0  0  0  0  0  0  0  0  0  0  0  0
   39.6350   33.2630   47.2250 C   0  0  0  0  0  0  0  0  0  0  0  0
   40.4420   33.5190   46.1090 C   0  0  0  0  0  0  0  0  0  0  0  0
   40.3120   32.7480   44.9750 C   0  0  0  0  0  0  0  0  0  0  0  0
   39.4110   31.7220   44.8930 C   0  0  0  0  0  0  0  0  0  0  0  0
   38.6070   31.4590   45.9910 C   0  0  0  0  0  0  0  0  0  0  0  0
   38.7500   32.2400   47.1140 C   0  0  0  0  0  0  0  0  0  0  0  0
   34.1960   27.6180   48.8440 C   0  0  1  0  0  0  0  0  0  0  0  0
   32.7330   27.8520   48.7060 C   0  0  0  0  0  0  0  0  0  0  0  0
   33.4730   27.0050   47.6780 C   0  0  2  0  0  0  0  0  0  0  0  0
   33.1980   25.5950   47.6270 N   0  0  0  0  0  0  0  0  0  0  0  0
   35.6445   31.2696   46.5296 H   0  0  0  0  0  0  0  0  0  0  0  0
   37.8928   30.0440   50.0003 H   0  0  0  0  0  0  0  0  0  0  0  0
   37.3066   32.3465   50.1278 H   0  0  0  0  0  0  0  0  0  0  0  0
   38.9129   34.2425   50.3823 H   0  0  0  0  0  0  0  0  0  0  0  0
   40.4299   34.8272   48.4844 H   0  0  0  0  0  0  0  0  0  0  0  0
   41.1790   34.3351   46.1382 H   0  0  0  0  0  0  0  0  0  0  0  0
   40.9531   32.9642   44.1077 H   0  0  0  0  0  0  0  0  0  0  0  0
   39.3265   31.1194   43.9766 H   0  0  0  0  0  0  0  0  0  0  0  0
   37.8700   30.6428   45.9648 H   0  0  0  0  0  0  0  0  0  0  0  0
   34.8431   27.2227   49.6409 H   0  0  0  0  0  0  0  0  0  0  0  0
   32.0311   27.3775   49.4076 H   0  0  0  0  0  0  0  0  0  0  0  0
   32.0873   28.7415   48.6626 H   0  0  0  0  0  0  0  0  0  0  0  0
   33.6238   27.0182   46.5885 H   0  0  0  0  0  0  0  0  0  0  0  0
   33.1257   25.2244   48.5853 H   0  0  0  0  0  0  0  0  0  0  0  0
   32.3102   25.4361   47.1296 H   0  0  0  0  0  0  0  0  0  0  0  0
  1  6  2  0
  1  2  1  0
  2  3  2  0
  3  4  1  0
  5 17  1  0
  5  4  2  0
  6  5  1  0
  7  2  1  0
  7  8  2  0
  8  9  1  0
 10  9  2  0
 11 10  1  0
 12 11  2  0
 13 12  1  0
 14 13  2  0
 14 15  1  0
 15 16  2  0
 16 11  1  0
 16  7  1  0
 18 17  1  0
 19 18  1  0
 19 17  1  0
 20 19  1  0
  1 21  1  0
  3 22  1  0
  8 23  1  0
  9 24  1  0
 10 25  1  0
 12 26  1  0
 13 27  1  0
 14 28  1  0
 15 29  1  0
 17 30  1  1
 18 31  1  0
 18 32  1  0
 19 33  1  6
 20 34  1  0
 20 35  1  0
M  ISO  8  21  14  22  14  23  14  24  14  25  14  26  14  27  14  28  14
M  ISO  7  29  14  30  13  31  13  32  13  33  13  34   5  35   5
M  END
>  <minimizedAffinity>  (1) 
-6.56245995

>  <minimizedRMSD>  (1) 
0.360422552

$$$$
