
     RDKit          3D

 47 51  0  0  1  0  0  0  0  0999 V2000
   35.6420   30.5760   47.3930 C   0  0  0  0  0  0  0  0  0  0  0  0
   36.8220   30.7380   48.0960 C   0  0  0  0  0  0  0  0  0  0  0  0
   37.0340   29.7910   49.1450 C   0  0  0  0  0  0  0  0  0  0  0  0
   36.1080   28.8230   49.3850 N   0  0  0  0  0  0  0  0  0  0  0  0
   34.9820   28.7320   48.6540 C   0  0  0  0  0  0  0  0  0  0  0  0
   34.7630   29.6000   47.6740 N   0  0  0  0  0  0  0  0  0  0  0  0
   37.8780   31.7250   47.9340 C   0  0  0  0  0  0  0  0  0  0  0  0
   37.9290   32.5850   48.9870 C   0  0  0  0  0  0  0  0  0  0  0  0
   38.8660   33.6120   49.0420 C   0  0  0  0  0  0  0  0  0  0  0  0
   39.7660   33.7640   48.0080 C   0  0  0  0  0  0  0  0  0  0  0  0
   39.7050   32.8830   46.9420 C   0  0  0  0  0  0  0  0  0  0  0  0
   40.5700   32.9490   45.8410 C   0  0  0  0  0  0  0  0  0  0  0  0
   40.4550   32.0400   44.8120 C   0  0  0  0  0  0  0  0  0  0  0  0
   39.5090   31.0540   44.8230 C   0  0  0  0  0  0  0  0  0  0  0  0
   38.6450   30.9730   45.9010 C   0  0  0  0  0  0  0  0  0  0  0  0
   38.7790   31.8820   46.9040 C   0  0  0  0  0  0  0  0  0  0  0  0
   34.0130   27.6510   48.9700 C   0  0  1  0  0  0  0  0  0  0  0  0
   32.5570   27.9480   48.9010 C   0  0  0  0  0  0  0  0  0  0  0  0
   33.1980   27.0350   47.8860 C   0  0  1  0  0  0  0  0  0  0  0  0
   33.1800   27.4770   46.5410 N   0  0  0  0  0  0  0  0  0  0  0  0
   33.9440   26.7710   45.5900 C   0  0  0  0  0  0  0  0  0  0  0  0
   33.1350   25.9430   44.6190 C   0  0  0  0  0  0  0  0  0  0  0  0
   32.1300   26.8050   44.0370 N   0  0  0  0  0  0  0  0  0  0  0  0
   31.2080   27.0990   45.1200 C   0  0  0  0  0  0  0  0  0  0  0  0
   31.9190   27.9780   46.1100 C   0  0  0  0  0  0  0  0  0  0  0  0
   35.4148   31.2728   46.5727 H   0  0  0  0  0  0  0  0  0  0  0  0
   37.9455   29.8445   49.7584 H   0  0  0  0  0  0  0  0  0  0  0  0
   37.2132   32.4656   49.8136 H   0  0  0  0  0  0  0  0  0  0  0  0
   38.8888   34.2967   49.9026 H   0  0  0  0  0  0  0  0  0  0  0  0
   40.5163   34.5681   48.0299 H   0  0  0  0  0  0  0  0  0  0  0  0
   41.3438   33.7297   45.7983 H   0  0  0  0  0  0  0  0  0  0  0  0
   41.1442   32.1100   43.9575 H   0  0  0  0  0  0  0  0  0  0  0  0
   39.4356   30.3383   43.9909 H   0  0  0  0  0  0  0  0  0  0  0  0
   37.8699   30.1937   45.9456 H   0  0  0  0  0  0  0  0  0  0  0  0
   34.6924   27.2515   49.7374 H   0  0  0  0  0  0  0  0  0  0  0  0
   31.8741   27.5364   49.6588 H   0  0  0  0  0  0  0  0  0  0  0  0
   31.9491   28.8635   48.8526 H   0  0  0  0  0  0  0  0  0  0  0  0
   33.1126   25.9963   47.5342 H   0  0  0  0  0  0  0  0  0  0  0  0
   34.5309   27.5003   45.0123 H   0  0  0  0  0  0  0  0  0  0  0  0
   34.5684   26.0641   46.1560 H   0  0  0  0  0  0  0  0  0  0  0  0
   33.7898   25.5451   43.8298 H   0  0  0  0  0  0  0  0  0  0  0  0
   32.6625   25.0950   45.1363 H   0  0  0  0  0  0  0  0  0  0  0  0
   32.5588   27.6717   43.6823 H   0  0  0  0  0  0  0  0  0  0  0  0
   30.3233   27.6205   44.7258 H   0  0  0  0  0  0  0  0  0  0  0  0
   30.8779   26.1680   45.6039 H   0  0  0  0  0  0  0  0  0  0  0  0
   32.0804   28.9611   45.6436 H   0  0  0  0  0  0  0  0  0  0  0  0
   31.2786   28.0274   47.0030 H   0  0  0  0  0  0  0  0  0  0  0  0
  1  6  2  0
  1  2  1  0
  2  3  2  0
  3  4  1  0
  5 17  1  0
  5  4  2  0
  6  5  1  0
  7  2  1  0
  7  8  2  0
  8  9  1  0
 10  9  2  0
 11 10  1  0
 12 11  2  0
 13 14  2  0
 13 12  1  0
 14 15  1  0
 15 16  2  0
 16 11  1  0
 16  7  1  0
 18 17  1  0
 19 18  1  0
 19 17  1  0
 20 19  1  0
 21 20  1  0
 22 21  1  0
 23 22  1  0
 23 24  1  0
 24 25  1  0
 25 20  1  0
  1 26  1  0
  3 27  1  0
  8 28  1  0
  9 29  1  0
 10 30  1  0
 12 31  1  0
 13 32  1  0
 14 33  1  0
 15 34  1  0
 17 35  1  1
 18 36  1  0
 18 37  1  0
 19 38  1  6
 21 39  1  0
 21 40  1  0
 22 41  1  0
 22 42  1  0
 23 43  1  0
 24 44  1  0
 24 45  1  0
 25 46  1  0
 25 47  1  0
M  ISO  8  26  14  27  14  28  14  29  14  30  14  31  14  32  14  33  14
M  ISO  8  34  14  35  13  36  13  37  13  38  13  39  13  40  13  41  13
M  ISO  6  42  13  43   5  44  13  45  13  46  13  47  13
M  END
>  <minimizedAffinity>  (1) 
-6.51009321

>  <minimizedRMSD>  (1) 
0.595861018

$$$$
