
     RDKit          3D

 46 50  0  0  1  0  0  0  0  0999 V2000
   34.4940   30.4040   47.7010 C   0  0  0  0  0  0  0  0  0  0  0  0
   35.7300   30.2900   48.3090 C   0  0  0  0  0  0  0  0  0  0  0  0
   35.9390   29.0650   49.0180 C   0  0  0  0  0  0  0  0  0  0  0  0
   34.9540   28.1220   49.0560 N   0  0  0  0  0  0  0  0  0  0  0  0
   33.7890   28.3130   48.4420 C   0  0  0  0  0  0  0  0  0  0  0  0
   33.5550   29.4480   47.7650 N   0  0  0  0  0  0  0  0  0  0  0  0
   36.8470   31.2140   48.3420 C   0  0  0  0  0  0  0  0  0  0  0  0
   36.9150   31.8790   49.5370 C   0  0  0  0  0  0  0  0  0  0  0  0
   37.9120   32.8180   49.7870 C   0  0  0  0  0  0  0  0  0  0  0  0
   38.8570   33.0860   48.8080 C   0  0  0  0  0  0  0  0  0  0  0  0
   38.7760   32.4010   47.5980 C   0  0  0  0  0  0  0  0  0  0  0  0
   39.6790   32.6020   46.5560 C   0  0  0  0  0  0  0  0  0  0  0  0
   39.5400   31.8910   45.3850 C   0  0  0  0  0  0  0  0  0  0  0  0
   38.5320   30.9790   45.2040 C   0  0  0  0  0  0  0  0  0  0  0  0
   37.6320   30.7750   46.2340 C   0  0  0  0  0  0  0  0  0  0  0  0
   37.7890   31.4930   47.3890 C   0  0  0  0  0  0  0  0  0  0  0  0
   32.7470   27.2460   48.5270 C   0  0  1  0  0  0  0  0  0  0  0  0
   31.3480   27.5650   48.1340 C   0  0  0  0  0  0  0  0  0  0  0  0
   32.1780   26.6670   47.2630 C   0  0  1  0  0  0  0  0  0  0  0  0
   32.6230   27.1180   45.9690 N   0  0  0  0  0  0  0  0  0  0  0  0
   33.8090   26.9570   45.3760 C   0  0  0  0  0  0  0  0  0  0  0  0
   34.0160   27.4840   44.1080 C   0  0  0  0  0  0  0  0  0  0  0  0
   35.3540   27.2770   43.4950 C   0  0  0  0  0  0  0  0  0  0  0  0
   33.0310   28.1800   43.4230 C   0  0  0  0  0  0  0  0  0  0  0  0
   33.2630   28.6320   42.2920 O   0  0  0  0  0  0  0  0  0  0  0  0
   31.8590   28.3070   44.0730 N   0  0  0  0  0  0  0  0  0  0  0  0
   31.6500   27.8000   45.2990 C   0  0  0  0  0  0  0  0  0  0  0  0
   30.4780   28.0200   45.7560 O   0  0  0  0  0  0  0  0  0  0  0  0
   34.2696   31.3220   47.1380 H   0  0  0  0  0  0  0  0  0  0  0  0
   36.8941   28.8835   49.5326 H   0  0  0  0  0  0  0  0  0  0  0  0
   36.1669   31.6671   50.3151 H   0  0  0  0  0  0  0  0  0  0  0  0
   37.9499   33.3429   50.7529 H   0  0  0  0  0  0  0  0  0  0  0  0
   39.6537   33.8239   48.9834 H   0  0  0  0  0  0  0  0  0  0  0  0
   40.4997   33.3258   46.6684 H   0  0  0  0  0  0  0  0  0  0  0  0
   40.2593   32.0597   44.5700 H   0  0  0  0  0  0  0  0  0  0  0  0
   38.4413   30.4218   44.2599 H   0  0  0  0  0  0  0  0  0  0  0  0
   36.8092   30.0527   46.1277 H   0  0  0  0  0  0  0  0  0  0  0  0
   33.2265   26.8269   49.4239 H   0  0  0  0  0  0  0  0  0  0  0  0
   30.5077   27.1486   48.7089 H   0  0  0  0  0  0  0  0  0  0  0  0
   30.7798   28.4930   47.9730 H   0  0  0  0  0  0  0  0  0  0  0  0
   32.0725   25.6517   46.8531 H   0  0  0  0  0  0  0  0  0  0  0  0
   34.6153   26.4113   45.8880 H   0  0  0  0  0  0  0  0  0  0  0  0
   36.1068   27.1605   44.2885 H   0  0  0  0  0  0  0  0  0  0  0  0
   35.3354   26.3710   42.8714 H   0  0  0  0  0  0  0  0  0  0  0  0
   35.6101   28.1462   42.8714 H   0  0  0  0  0  0  0  0  0  0  0  0
   31.0907   28.8140   43.6109 H   0  0  0  0  0  0  0  0  0  0  0  0
  1  6  2  0
  1  2  1  0
  2  7  1  0
  2  3  2  0
  3  4  1  0
  5 17  1  0
  5  4  2  0
  6  5  1  0
  7  8  2  0
  8  9  1  0
 10  9  2  0
 11 10  1  0
 12 11  2  0
 13 12  1  0
 14 13  2  0
 14 15  1  0
 15 16  2  0
 16 11  1  0
 16  7  1  0
 18 17  1  0
 19 18  1  0
 19 17  1  0
 20 19  1  0
 21 20  1  0
 22 21  2  0
 23 22  1  0
 24 26  1  0
 24 22  1  0
 25 24  2  0
 26 27  1  0
 27 28  2  0
 27 20  1  0
  1 29  1  0
  3 30  1  0
  8 31  1  0
  9 32  1  0
 10 33  1  0
 12 34  1  0
 13 35  1  0
 14 36  1  0
 15 37  1  0
 17 38  1  1
 18 39  1  0
 18 40  1  0
 19 41  1  1
 21 42  1  0
 23 43  1  0
 23 44  1  0
 23 45  1  0
 26 46  1  0
M  ISO  8  29  14  30  14  31  14  32  14  33  14  34  14  35  14  36  14
M  ISO  8  37  14  38  13  39  13  40  13  41  13  42  14  43   8  44   8
M  ISO  2  45   8  46   9
M  END
>  <minimizedAffinity>  (1) 
-6.49570751

>  <minimizedRMSD>  (1) 
1.60186911

$$$$
