
     RDKit          3D

 35 38  0  0  1  0  0  0  0  0999 V2000
   35.5520   30.4060   47.2950 C   0  0  0  0  0  0  0  0  0  0  0  0
   36.6220   30.6340   48.1420 C   0  0  0  0  0  0  0  0  0  0  0  0
   36.7320   29.7000   49.2210 C   0  0  0  0  0  0  0  0  0  0  0  0
   35.8230   28.6940   49.3430 N   0  0  0  0  0  0  0  0  0  0  0  0
   34.8190   28.5470   48.4790 C   0  0  0  0  0  0  0  0  0  0  0  0
   34.6850   29.3980   47.4620 N   0  0  0  0  0  0  0  0  0  0  0  0
   37.6420   31.6600   48.1140 C   0  0  0  0  0  0  0  0  0  0  0  0
   37.6200   32.4220   49.2500 C   0  0  0  0  0  0  0  0  0  0  0  0
   38.5240   33.4790   49.4350 C   0  0  0  0  0  0  0  0  0  0  0  0
   39.4580   33.7530   48.4460 C   0  0  0  0  0  0  0  0  0  0  0  0
   39.4600   32.9650   47.3000 C   0  0  0  0  0  0  0  0  0  0  0  0
   40.3620   33.1720   46.2640 C   0  0  0  0  0  0  0  0  0  0  0  0
   40.3130   32.3570   45.1540 C   0  0  0  0  0  0  0  0  0  0  0  0
   39.4030   31.3250   45.0140 C   0  0  0  0  0  0  0  0  0  0  0  0
   38.5090   31.1330   46.0600 C   0  0  0  0  0  0  0  0  0  0  0  0
   38.5710   31.9510   47.1550 C   0  0  0  0  0  0  0  0  0  0  0  0
   33.8560   27.4260   48.6790 C   0  0  1  0  0  0  0  0  0  0  0  0
   32.3970   27.6940   48.5710 C   0  0  0  0  0  0  0  0  0  0  0  0
   33.0920   26.8890   47.5000 C   0  0  2  0  0  0  0  0  0  0  0  0
   32.8030   25.4310   47.5150 C   0  0  0  0  0  0  0  0  0  0  0  0
   33.7080   24.5870   47.4890 O   0  0  0  0  0  0  0  0  0  0  0  0
   35.4058   31.0857   46.4425 H   0  0  0  0  0  0  0  0  0  0  0  0
   37.5498   29.7949   49.9505 H   0  0  0  0  0  0  0  0  0  0  0  0
   36.8796   32.2019   50.0332 H   0  0  0  0  0  0  0  0  0  0  0  0
   38.4927   34.0835   50.3535 H   0  0  0  0  0  0  0  0  0  0  0  0
   40.1799   34.5743   48.5656 H   0  0  0  0  0  0  0  0  0  0  0  0
   41.1076   33.9781   46.3291 H   0  0  0  0  0  0  0  0  0  0  0  0
   41.0317   32.5357   44.3407 H   0  0  0  0  0  0  0  0  0  0  0  0
   39.3878   30.6871   44.1179 H   0  0  0  0  0  0  0  0  0  0  0  0
   37.7582   30.3307   46.0083 H   0  0  0  0  0  0  0  0  0  0  0  0
   34.5081   26.9814   49.4452 H   0  0  0  0  0  0  0  0  0  0  0  0
   31.6955   27.2013   49.2603 H   0  0  0  0  0  0  0  0  0  0  0  0
   31.7711   28.5985   48.5791 H   0  0  0  0  0  0  0  0  0  0  0  0
   33.1988   26.9548   46.4072 H   0  0  0  0  0  0  0  0  0  0  0  0
   31.7568   25.0931   47.5501 H   0  0  0  0  0  0  0  0  0  0  0  0
  1  6  2  0
  1  2  1  0
  2  3  2  0
  3  4  1  0
  5 17  1  0
  5  4  2  0
  6  5  1  0
  7  2  1  0
  7  8  2  0
  8  9  1  0
 10  9  2  0
 11 10  1  0
 12 11  2  0
 13 12  1  0
 14 13  2  0
 14 15  1  0
 15 16  2  0
 16 11  1  0
 16  7  1  0
 18 17  1  0
 19 20  1  0
 19 18  1  0
 19 17  1  0
 21 20  2  0
  1 22  1  0
  3 23  1  0
  8 24  1  0
  9 25  1  0
 10 26  1  0
 12 27  1  0
 13 28  1  0
 14 29  1  0
 15 30  1  0
 17 31  1  1
 18 32  1  0
 18 33  1  0
 19 34  1  6
 20 35  1  0
M  ISO  8  22  14  23  14  24  14  25  14  26  14  27  14  28  14  29  14
M  ISO  6  30  14  31  13  32  13  33  13  34  13  35   6
M  END
>  <minimizedAffinity>  (1) 
-6.4221096

>  <minimizedRMSD>  (1) 
0.670269668

$$$$
