
     RDKit          3D

 46 50  0  0  1  0  0  0  0  0999 V2000
   34.2790   30.2120   47.3780 C   0  0  0  0  0  0  0  0  0  0  0  0
   35.4190   30.0850   48.1540 C   0  0  0  0  0  0  0  0  0  0  0  0
   35.4250   28.9270   48.9980 C   0  0  0  0  0  0  0  0  0  0  0  0
   34.3670   28.0740   48.9820 N   0  0  0  0  0  0  0  0  0  0  0  0
   33.3090   28.2750   48.2010 C   0  0  0  0  0  0  0  0  0  0  0  0
   33.2670   29.3340   47.4080 N   0  0  0  0  0  0  0  0  0  0  0  0
   36.5850   30.9330   48.2430 C   0  0  0  0  0  0  0  0  0  0  0  0
   36.6750   31.5240   49.4730 C   0  0  0  0  0  0  0  0  0  0  0  0
   37.7260   32.3900   49.7870 C   0  0  0  0  0  0  0  0  0  0  0  0
   38.6930   32.6550   48.8370 C   0  0  0  0  0  0  0  0  0  0  0  0
   38.5800   32.0450   47.5990 C   0  0  0  0  0  0  0  0  0  0  0  0
   39.5060   32.2450   46.5640 C   0  0  0  0  0  0  0  0  0  0  0  0
   39.3380   31.6120   45.3610 C   0  0  0  0  0  0  0  0  0  0  0  0
   38.2910   30.7760   45.1110 C   0  0  0  0  0  0  0  0  0  0  0  0
   37.3680   30.5700   46.1270 C   0  0  0  0  0  0  0  0  0  0  0  0
   37.5440   31.2060   47.3240 C   0  0  0  0  0  0  0  0  0  0  0  0
   32.1870   27.2880   48.2370 C   0  0  1  0  0  0  0  0  0  0  0  0
   31.0260   27.5540   49.1480 C   0  0  0  0  0  0  0  0  0  0  0  0
   30.8690   27.6400   47.6410 C   0  0  2  0  0  0  0  0  0  0  0  0
   29.9790   26.3550   46.7520 S   0  0  0  0  0  0  0  0  0  0  0  0
   27.6990   27.4640   47.7190 N   0  0  0  0  0  0  0  0  0  0  0  0
   26.5210   28.1610   47.2630 C   0  0  0  0  0  0  0  0  0  0  0  0
   26.6370   28.3410   45.7670 C   0  0  0  0  0  0  0  0  0  0  0  0
   28.0990   27.9540   45.5020 C   0  0  0  0  0  0  0  0  0  0  0  0
   28.2620   26.8650   46.5510 C   0  0  1  0  0  0  0  0  0  0  0  0
   34.2002   31.0770   46.7031 H   0  0  0  0  0  0  0  0  0  0  0  0
   36.2833   28.7290   49.6569 H   0  0  0  0  0  0  0  0  0  0  0  0
   35.9051   31.3136   50.2300 H   0  0  0  0  0  0  0  0  0  0  0  0
   37.7826   32.8563   50.7817 H   0  0  0  0  0  0  0  0  0  0  0  0
   39.5308   33.3327   49.0580 H   0  0  0  0  0  0  0  0  0  0  0  0
   40.3678   32.9108   46.7189 H   0  0  0  0  0  0  0  0  0  0  0  0
   40.0774   31.7852   44.5652 H   0  0  0  0  0  0  0  0  0  0  0  0
   38.1810   30.2803   44.1352 H   0  0  0  0  0  0  0  0  0  0  0  0
   36.5066   29.9040   45.9710 H   0  0  0  0  0  0  0  0  0  0  0  0
   32.8916   26.4553   48.0951 H   0  0  0  0  0  0  0  0  0  0  0  0
   30.5608   26.7278   49.7056 H   0  0  0  0  0  0  0  0  0  0  0  0
   30.8341   28.2292   49.9949 H   0  0  0  0  0  0  0  0  0  0  0  0
   30.4912   28.4109   46.9533 H   0  0  0  0  0  0  0  0  0  0  0  0
   28.3666   28.1239   48.1429 H   0  0  0  0  0  0  0  0  0  0  0  0
   25.6230   27.5716   47.4999 H   0  0  0  0  0  0  0  0  0  0  0  0
   26.4375   29.1383   47.7609 H   0  0  0  0  0  0  0  0  0  0  0  0
   25.9453   27.6745   45.2310 H   0  0  0  0  0  0  0  0  0  0  0  0
   26.3812   29.3546   45.4246 H   0  0  0  0  0  0  0  0  0  0  0  0
   28.2431   27.5671   44.4824 H   0  0  0  0  0  0  0  0  0  0  0  0
   28.8222   28.7803   45.5673 H   0  0  0  0  0  0  0  0  0  0  0  0
   27.7625   25.9215   46.2859 H   0  0  0  0  0  0  0  0  0  0  0  0
  1  6  2  0
  1  2  1  0
  2  7  1  0
  2  3  2  0
  4  3  1  0
  5 17  1  0
  5  4  2  0
  6  5  1  0
  7  8  2  0
  8  9  1  0
 10  9  2  0
 11 10  1  0
 12 11  2  0
 13 12  1  0
 14 13  2  0
 14 15  1  0
 15 16  2  0
 16 11  1  0
 16  7  1  0
 17 18  1  0
 19 17  1  0
 19 18  1  0
 20 19  1  0
 22 21  1  0
 23 22  1  0
 24 23  1  0
 24 25  1  0
 25 20  1  0
 25 21  1  0
  1 26  1  0
  3 27  1  0
  8 28  1  0
  9 29  1  0
 10 30  1  0
 12 31  1  0
 13 32  1  0
 14 33  1  0
 15 34  1  0
 17 35  1  6
 18 36  1  0
 18 37  1  0
 19 38  1  1
 21 39  1  0
 22 40  1  0
 22 41  1  0
 23 42  1  0
 23 43  1  0
 24 44  1  0
 24 45  1  0
 25 46  1  6
M  ISO  8  26  14  27  14  28  14  29  14  30  14  31  14  32  14  33  14
M  ISO  8  34  14  35  13  36  13  37  13  38  13  39   5  40  13  41  13
M  ISO  5  42  13  43  13  44  13  45  13  46  13
M  END
>  <minimizedAffinity>  (1) 
-6.90013504

>  <minimizedRMSD>  (1) 
2.96954727

$$$$
