
     RDKit          3D

 41 45  0  0  1  0  0  0  0  0999 V2000
   35.4640   30.3710   47.2530 C   0  0  0  0  0  0  0  0  0  0  0  0
   36.5470   30.5600   48.1070 C   0  0  0  0  0  0  0  0  0  0  0  0
   36.6360   29.6250   49.1880 C   0  0  0  0  0  0  0  0  0  0  0  0
   35.7000   28.6410   49.3220 N   0  0  0  0  0  0  0  0  0  0  0  0
   34.6830   28.5270   48.4510 C   0  0  0  0  0  0  0  0  0  0  0  0
   34.5670   29.3820   47.4290 N   0  0  0  0  0  0  0  0  0  0  0  0
   37.5830   31.5540   48.0600 C   0  0  0  0  0  0  0  0  0  0  0  0
   37.5480   32.3810   49.1530 C   0  0  0  0  0  0  0  0  0  0  0  0
   38.4700   33.4260   49.3150 C   0  0  0  0  0  0  0  0  0  0  0  0
   39.4360   33.6280   48.3520 C   0  0  0  0  0  0  0  0  0  0  0  0
   39.4580   32.7880   47.2590 C   0  0  0  0  0  0  0  0  0  0  0  0
   40.3970   32.9030   46.2150 C   0  0  0  0  0  0  0  0  0  0  0  0
   40.3710   32.0370   45.1470 C   0  0  0  0  0  0  0  0  0  0  0  0
   39.4490   31.0430   45.0530 C   0  0  0  0  0  0  0  0  0  0  0  0
   38.5150   30.9040   46.0560 C   0  0  0  0  0  0  0  0  0  0  0  0
   38.5510   31.7780   47.1240 C   0  0  0  0  0  0  0  0  0  0  0  0
   33.6960   27.4270   48.6420 C   0  0  1  0  0  0  0  0  0  0  0  0
   32.2450   27.7780   48.7700 C   0  0  0  0  0  0  0  0  0  0  0  0
   32.7520   27.0720   47.5420 C   0  0  2  0  0  0  0  0  0  0  0  0
   32.3980   25.3090   47.3420 S   0  0  0  0  0  0  0  0  0  0  0  0
   33.3270   24.5580   46.0010 C   0  0  0  0  0  0  0  0  0  0  0  0
   34.2180   25.5760   45.2440 C   0  0  0  0  0  0  0  0  0  0  0  0
   34.8010   24.4190   46.0260 C   0  0  0  0  0  0  0  0  0  0  0  0
   35.3360   31.0558   46.4017 H   0  0  0  0  0  0  0  0  0  0  0  0
   37.4607   29.7001   49.9120 H   0  0  0  0  0  0  0  0  0  0  0  0
   36.7779   32.2212   49.9220 H   0  0  0  0  0  0  0  0  0  0  0  0
   38.4228   34.0770   50.2004 H   0  0  0  0  0  0  0  0  0  0  0  0
   40.1713   34.4398   48.4534 H   0  0  0  0  0  0  0  0  0  0  0  0
   41.1597   33.6946   46.2546 H   0  0  0  0  0  0  0  0  0  0  0  0
   41.1170   32.1520   44.3468 H   0  0  0  0  0  0  0  0  0  0  0  0
   39.4485   30.3607   44.1902 H   0  0  0  0  0  0  0  0  0  0  0  0
   37.7543   30.1110   46.0068 H   0  0  0  0  0  0  0  0  0  0  0  0
   34.4209   26.8597   49.2443 H   0  0  0  0  0  0  0  0  0  0  0  0
   31.6099   27.2423   49.4910 H   0  0  0  0  0  0  0  0  0  0  0  0
   31.6798   28.7021   48.9612 H   0  0  0  0  0  0  0  0  0  0  0  0
   32.6773   27.2719   46.4629 H   0  0  0  0  0  0  0  0  0  0  0  0
   32.5365   23.8215   45.7943 H   0  0  0  0  0  0  0  0  0  0  0  0
   34.2506   25.5765   44.1445 H   0  0  0  0  0  0  0  0  0  0  0  0
   34.3410   26.6691   45.2398 H   0  0  0  0  0  0  0  0  0  0  0  0
   35.3495   24.6153   46.9590 H   0  0  0  0  0  0  0  0  0  0  0  0
   35.4954   23.6026   45.7783 H   0  0  0  0  0  0  0  0  0  0  0  0
  1  6  2  0
  1  2  1  0
  2  3  2  0
  3  4  1  0
  5 17  1  0
  5  4  2  0
  6  5  1  0
  7  2  1  0
  7  8  2  0
  8  9  1  0
 10  9  2  0
 11 10  1  0
 12 11  2  0
 13 12  1  0
 14 13  2  0
 14 15  1  0
 15 16  2  0
 16 11  1  0
 16  7  1  0
 17 18  1  0
 19 17  1  0
 19 18  1  0
 20 19  1  0
 21 23  1  0
 21 20  1  0
 22 21  1  0
 22 23  1  0
  1 24  1  0
  3 25  1  0
  8 26  1  0
  9 27  1  0
 10 28  1  0
 12 29  1  0
 13 30  1  0
 14 31  1  0
 15 32  1  0
 17 33  1  1
 18 34  1  0
 18 35  1  0
 19 36  1  6
 21 37  1  0
 22 38  1  0
 22 39  1  0
 23 40  1  0
 23 41  1  0
M  ISO  8  24  14  25  14  26  14  27  14  28  14  29  14  30  14  31  14
M  ISO  8  32  14  33  13  34  13  35  13  36  13  37  13  38  13  39  13
M  ISO  2  40  13  41  13
M  END
>  <minimizedAffinity>  (1) 
-6.34444952

>  <minimizedRMSD>  (1) 
0.602780521

$$$$
