
     RDKit          3D

 24 26  0  0  0  0  0  0  0  0999 V2000
   37.5290   31.5210   48.9080 N   0  0  0  0  0  0  0  0  0  0  0  0
   38.1920   32.6020   49.3690 C   0  0  0  0  0  0  0  0  0  0  0  0
   38.9860   33.1260   48.4340 N   0  0  0  0  0  0  0  0  0  0  0  0
   38.8430   32.3680   47.3210 C   0  0  0  0  0  0  0  0  0  0  0  0
   39.3670   32.3800   46.0610 C   0  0  0  0  0  0  0  0  0  0  0  0
   39.0590   31.4930   45.1040 N   0  0  0  0  0  0  0  0  0  0  0  0
   38.1630   30.5350   45.4530 C   0  0  0  0  0  0  0  0  0  0  0  0
   37.6490   30.5220   46.6870 N   0  0  0  0  0  0  0  0  0  0  0  0
   37.9300   31.3770   47.6500 C   0  0  0  0  0  0  0  0  0  0  0  0
   35.3000   30.6250   49.2320 C   0  0  0  0  0  0  0  0  0  0  0  0
   36.6240   30.7490   49.6390 C   0  0  0  0  0  0  0  0  0  0  0  0
   36.9930   30.0780   50.7890 C   0  0  0  0  0  0  0  0  0  0  0  0
   36.0390   29.3410   51.4460 N   0  0  0  0  0  0  0  0  0  0  0  0
   34.7770   29.2510   51.0170 C   0  0  0  0  0  0  0  0  0  0  0  0
   34.4060   29.8900   49.9140 N   0  0  0  0  0  0  0  0  0  0  0  0
   40.3520   33.4630   45.7360 C   0  0  0  0  0  0  0  0  0  0  0  0
   39.9800   34.1980   44.6460 F   0  0  0  0  0  0  0  0  0  0  0  0
   41.5450   32.7830   45.4810 F   0  0  0  0  0  0  0  0  0  0  0  0
   40.5150   34.2140   46.8760 F   0  0  0  0  0  0  0  0  0  0  0  0
   38.0904   33.0014   50.3889 H   0  0  0  0  0  0  0  0  0  0  0  0
   37.8604   29.7708   44.7219 H   0  0  0  0  0  0  0  0  0  0  0  0
   34.9736   31.1467   48.3203 H   0  0  0  0  0  0  0  0  0  0  0  0
   38.0241   30.1328   51.1682 H   0  0  0  0  0  0  0  0  0  0  0  0
   34.0465   28.6485   51.5767 H   0  0  0  0  0  0  0  0  0  0  0  0
  1  2  1  0
  1 11  1  0
  3  2  2  0
  4  9  2  0
  4  3  1  0
  5  4  1  0
  6  7  1  0
  6  5  2  0
  7  8  2  0
  8  9  1  0
  9  1  1  0
 10 11  2  0
 10 15  1  0
 11 12  1  0
 12 13  2  0
 14 13  1  0
 15 14  2  0
 16  5  1  0
 16 19  1  0
 17 16  1  0
 18 16  1  0
  2 20  1  0
  7 21  1  0
 10 22  1  0
 12 23  1  0
 14 24  1  0
M  ISO  5  20  14  21  14  22  14  23  14  24  14
M  END
>  <minimizedAffinity>  (1) 
-6.01296997

>  <minimizedRMSD>  (1) 
0.603566766

$$$$
