
     RDKit          3D

 27 29  0  0  0  0  0  0  0  0999 V2000
   37.3740   31.3370   48.6810 N   0  0  0  0  0  0  0  0  0  0  0  0
   38.3260   32.2100   49.0620 C   0  0  0  0  0  0  0  0  0  0  0  0
   38.9710   32.7240   48.0060 N   0  0  0  0  0  0  0  0  0  0  0  0
   38.4210   32.1690   46.9060 C   0  0  0  0  0  0  0  0  0  0  0  0
   38.6160   32.2640   45.5470 C   0  0  0  0  0  0  0  0  0  0  0  0
   37.9240   31.5910   44.6260 N   0  0  0  0  0  0  0  0  0  0  0  0
   36.9680   30.7650   45.1000 C   0  0  0  0  0  0  0  0  0  0  0  0
   36.7540   30.6510   46.4180 N   0  0  0  0  0  0  0  0  0  0  0  0
   37.4260   31.3070   47.3560 C   0  0  0  0  0  0  0  0  0  0  0  0
   35.1700   30.4950   49.2560 C   0  0  0  0  0  0  0  0  0  0  0  0
   36.5370   30.6220   49.5480 C   0  0  0  0  0  0  0  0  0  0  0  0
   37.0310   30.0250   50.7070 C   0  0  0  0  0  0  0  0  0  0  0  0
   36.1330   29.3470   51.4950 N   0  0  0  0  0  0  0  0  0  0  0  0
   34.8260   29.2450   51.1850 C   0  0  0  0  0  0  0  0  0  0  0  0
   34.3560   29.8100   50.0840 N   0  0  0  0  0  0  0  0  0  0  0  0
   39.7050   33.2120   45.1700 C   0  0  0  0  0  0  0  0  0  0  0  0
   41.0470   32.5040   45.1260 C   0  0  0  0  0  0  0  0  0  0  0  0
   38.5463   32.4685   50.1082 H   0  0  0  0  0  0  0  0  0  0  0  0
   36.3578   30.1790   44.3970 H   0  0  0  0  0  0  0  0  0  0  0  0
   34.7603   30.9573   48.3458 H   0  0  0  0  0  0  0  0  0  0  0  0
   38.0946   30.0940   50.9789 H   0  0  0  0  0  0  0  0  0  0  0  0
   34.1469   28.6902   51.8491 H   0  0  0  0  0  0  0  0  0  0  0  0
   39.4877   33.6343   44.1778 H   0  0  0  0  0  0  0  0  0  0  0  0
   39.7531   34.0107   45.9248 H   0  0  0  0  0  0  0  0  0  0  0  0
   41.3978   32.3190   46.1520 H   0  0  0  0  0  0  0  0  0  0  0  0
   40.9388   31.5456   44.5970 H   0  0  0  0  0  0  0  0  0  0  0  0
   41.7770   33.1344   44.5970 H   0  0  0  0  0  0  0  0  0  0  0  0
  1  2  1  0
  1 11  1  0
  3  2  2  0
  4  9  2  0
  4  3  1  0
  5  4  1  0
  6  7  1  0
  6  5  2  0
  7  8  2  0
  8  9  1  0
  9  1  1  0
 10 11  2  0
 10 15  1  0
 11 12  1  0
 12 13  2  0
 14 13  1  0
 15 14  2  0
 16  5  1  0
 17 16  1  0
  2 18  1  0
  7 19  1  0
 10 20  1  0
 12 21  1  0
 14 22  1  0
 16 23  1  0
 16 24  1  0
 17 25  1  0
 17 26  1  0
 17 27  1  0
M  ISO  8  18  14  19  14  20  14  21  14  22  14  23   8  24   8  25   8
M  ISO  2  26   8  27   8
M  END
>  <minimizedAffinity>  (1) 
-5.15800858

>  <minimizedRMSD>  (1) 
1.2188257

$$$$
