
     RDKit          3D

 38 41  0  0  1  0  0  0  0  0999 V2000
   37.8360   31.2700   47.9900 N   0  0  0  0  0  0  0  0  0  0  0  0
   38.8680   32.1070   47.8940 C   0  0  0  0  0  0  0  0  0  0  0  0
   39.0660   32.4910   46.6200 N   0  0  0  0  0  0  0  0  0  0  0  0
   38.1250   31.8790   45.8670 C   0  0  0  0  0  0  0  0  0  0  0  0
   37.8450   31.8580   44.5380 C   0  0  0  0  0  0  0  0  0  0  0  0
   36.8290   31.1130   43.9970 N   0  0  0  0  0  0  0  0  0  0  0  0
   36.1010   30.3840   44.8740 C   0  0  0  0  0  0  0  0  0  0  0  0
   36.3860   30.4140   46.1740 N   0  0  0  0  0  0  0  0  0  0  0  0
   37.3610   31.1180   46.7390 C   0  0  0  0  0  0  0  0  0  0  0  0
   36.2710   29.7940   49.1260 C   0  0  0  0  0  0  0  0  0  0  0  0
   37.3520   30.6530   49.1640 C   0  0  0  0  0  0  0  0  0  0  0  0
   37.9810   30.9080   50.3850 C   0  0  0  0  0  0  0  0  0  0  0  0
   37.4620   30.2670   51.4910 N   0  0  0  0  0  0  0  0  0  0  0  0
   36.4000   29.4330   51.4080 C   0  0  0  0  0  0  0  0  0  0  0  0
   35.8000   29.1890   50.2380 N   0  0  0  0  0  0  0  0  0  0  0  0
   38.5510   32.7440   43.5700 C   0  0  2  0  0  0  0  0  0  0  0  0
   37.9360   32.8160   42.2370 C   0  0  0  0  0  0  0  0  0  0  0  0
   40.0360   32.2290   43.4520 C   0  0  0  0  0  0  0  0  0  0  0  0
   40.1120   31.0540   42.5850 C   0  0  0  0  0  0  0  0  0  0  0  0
   40.3520   31.0400   41.2270 C   0  0  0  0  0  0  0  0  0  0  0  0
   40.4140   29.8940   40.4610 C   0  0  0  0  0  0  0  0  0  0  0  0
   40.2220   28.7270   41.1090 N   0  0  0  0  0  0  0  0  0  0  0  0
   39.9850   28.6940   42.4300 C   0  0  0  0  0  0  0  0  0  0  0  0
   39.9300   29.8260   43.1550 N   0  0  0  0  0  0  0  0  0  0  0  0
   39.4788   32.4407   48.7458 H   0  0  0  0  0  0  0  0  0  0  0  0
   35.2689   29.7630   44.5107 H   0  0  0  0  0  0  0  0  0  0  0  0
   35.7793   29.5969   48.1620 H   0  0  0  0  0  0  0  0  0  0  0  0
   38.8450   31.5846   50.4607 H   0  0  0  0  0  0  0  0  0  0  0  0
   36.0231   28.9466   52.3198 H   0  0  0  0  0  0  0  0  0  0  0  0
   38.4922   33.7705   43.9609 H   0  0  0  0  0  0  0  0  0  0  0  0
   36.8484   32.9433   42.3414 H   0  0  0  0  0  0  0  0  0  0  0  0
   38.3541   33.6713   41.6860 H   0  0  0  0  0  0  0  0  0  0  0  0
   38.1452   31.8872   41.6860 H   0  0  0  0  0  0  0  0  0  0  0  0
   40.6625   33.0290   43.0306 H   0  0  0  0  0  0  0  0  0  0  0  0
   40.3927   31.9504   44.4546 H   0  0  0  0  0  0  0  0  0  0  0  0
   40.5039   32.0052   40.7216 H   0  0  0  0  0  0  0  0  0  0  0  0
   40.6097   29.9304   39.3792 H   0  0  0  0  0  0  0  0  0  0  0  0
   39.8332   27.7250   42.9281 H   0  0  0  0  0  0  0  0  0  0  0  0
  1 11  1  0
  2  1  1  0
  3  2  2  0
  4  3  1  0
  4  9  2  0
  5  4  1  0
  6  5  2  0
  6  7  1  0
  7  8  2  0
  8  9  1  0
  9  1  1  0
 10 11  2  0
 10 15  1  0
 11 12  1  0
 12 13  2  0
 14 13  1  0
 15 14  2  0
 16  5  1  0
 17 16  1  0
 18 16  1  0
 19 24  1  0
 19 18  1  0
 20 19  2  0
 21 22  2  0
 21 20  1  0
 22 23  1  0
 23 24  2  0
  2 25  1  0
  7 26  1  0
 10 27  1  0
 12 28  1  0
 14 29  1  0
 16 30  1  1
 17 31  1  0
 17 32  1  0
 17 33  1  0
 18 34  1  0
 18 35  1  0
 20 36  1  0
 21 37  1  0
 23 38  1  0
M  ISO  8  25  14  26  14  27  14  28  14  29  14  30   8  31   8  32   8
M  ISO  6  33   8  34   8  35   8  36  14  37  14  38  14
M  END
>  <minimizedAffinity>  (1) 
-5.62169981

>  <minimizedRMSD>  (1) 
1.84414399

$$$$
