
     RDKit          3D

 31 33  0  0  1  0  0  0  0  0999 V2000
   37.3790   31.2820   48.6820 N   0  0  0  0  0  0  0  0  0  0  0  0
   38.3400   32.1470   49.0350 C   0  0  0  0  0  0  0  0  0  0  0  0
   38.9990   32.6060   47.9590 N   0  0  0  0  0  0  0  0  0  0  0  0
   38.4510   32.0240   46.8720 C   0  0  0  0  0  0  0  0  0  0  0  0
   38.7050   32.0760   45.5380 C   0  0  0  0  0  0  0  0  0  0  0  0
   38.0020   31.3430   44.6120 N   0  0  0  0  0  0  0  0  0  0  0  0
   37.0300   30.5580   45.0990 C   0  0  0  0  0  0  0  0  0  0  0  0
   36.7840   30.5100   46.4100 N   0  0  0  0  0  0  0  0  0  0  0  0
   37.4400   31.2010   47.3400 C   0  0  0  0  0  0  0  0  0  0  0  0
   35.1490   30.5220   49.2610 C   0  0  0  0  0  0  0  0  0  0  0  0
   36.5010   30.6040   49.5490 C   0  0  0  0  0  0  0  0  0  0  0  0
   36.9710   30.0090   50.7000 C   0  0  0  0  0  0  0  0  0  0  0  0
   36.0640   29.3600   51.5050 N   0  0  0  0  0  0  0  0  0  0  0  0
   34.7560   29.3010   51.1920 C   0  0  0  0  0  0  0  0  0  0  0  0
   34.2800   29.8790   50.0690 N   0  0  0  0  0  0  0  0  0  0  0  0
   39.6990   33.0270   44.9640 C   0  0  2  0  0  0  0  0  0  0  0  0
   39.5270   33.3200   43.5390 C   0  0  0  0  0  0  0  0  0  0  0  0
   41.1330   32.4030   45.1990 C   0  0  0  0  0  0  0  0  0  0  0  0
   41.0230   31.0600   44.8700 O   0  0  0  0  0  0  0  0  0  0  0  0
   38.5602   32.4425   50.0714 H   0  0  0  0  0  0  0  0  0  0  0  0
   36.4285   29.9466   44.4102 H   0  0  0  0  0  0  0  0  0  0  0  0
   34.7709   30.9965   48.3435 H   0  0  0  0  0  0  0  0  0  0  0  0
   38.0374   30.0518   50.9663 H   0  0  0  0  0  0  0  0  0  0  0  0
   34.0630   28.7725   51.8632 H   0  0  0  0  0  0  0  0  0  0  0  0
   39.5570   33.9919   45.4728 H   0  0  0  0  0  0  0  0  0  0  0  0
   38.9732   34.2633   43.4229 H   0  0  0  0  0  0  0  0  0  0  0  0
   40.5139   33.4130   43.0621 H   0  0  0  0  0  0  0  0  0  0  0  0
   38.9648   32.5037   43.0621 H   0  0  0  0  0  0  0  0  0  0  0  0
   41.8748   32.8954   44.5531 H   0  0  0  0  0  0  0  0  0  0  0  0
   41.4660   32.5376   46.2387 H   0  0  0  0  0  0  0  0  0  0  0  0
   40.9788   30.5198   45.6985 H   0  0  0  0  0  0  0  0  0  0  0  0
  1  2  1  0
  1 11  1  0
  3  2  2  0
  4  9  2  0
  4  3  1  0
  5  4  1  0
  6  7  1  0
  6  5  2  0
  7  8  2  0
  8  9  1  0
  9  1  1  0
 10 11  2  0
 10 15  1  0
 11 12  1  0
 12 13  2  0
 14 13  1  0
 15 14  2  0
 16 18  1  0
 16  5  1  0
 17 16  1  0
 19 18  1  0
  2 20  1  0
  7 21  1  0
 10 22  1  0
 12 23  1  0
 14 24  1  0
 16 25  1  1
 17 26  1  0
 17 27  1  0
 17 28  1  0
 18 29  1  0
 18 30  1  0
 19 31  1  0
M  ISO  8  20  14  21  14  22  14  23  14  24  14  25   8  26   8  27   8
M  ISO  4  28   8  29   8  30   8  31   3
M  END
>  <minimizedAffinity>  (1) 
-5.3093853

>  <minimizedRMSD>  (1) 
0.144697994

$$$$
