
     RDKit          3D

 42 45  0  0  0  0  0  0  0  0999 V2000
   32.3570   31.2030   42.5490 C   0  0  0  0  0  0  0  0  0  0  0  0
   33.0420   32.2950   41.9620 C   0  0  0  0  0  0  0  0  0  0  0  0
   32.3330   33.4910   41.7800 C   0  0  0  0  0  0  0  0  0  0  0  0
   31.0220   33.5390   42.1790 N   0  0  0  0  0  0  0  0  0  0  0  0
   30.4060   32.4830   42.7320 C   0  0  0  0  0  0  0  0  0  0  0  0
   31.0680   31.3340   42.9120 N   0  0  0  0  0  0  0  0  0  0  0  0
   29.0490   32.5850   43.1240 N   0  0  0  0  0  0  0  0  0  0  0  0
   28.1640   33.2940   42.3980 C   0  0  0  0  0  0  0  0  0  0  0  0
   26.8360   33.4080   42.7500 C   0  0  0  0  0  0  0  0  0  0  0  0
   26.4930   32.7470   43.8940 C   0  0  0  0  0  0  0  0  0  0  0  0
   25.2950   32.7900   44.3070 O   0  0  0  0  0  0  0  0  0  0  0  0
   27.3140   32.0290   44.6590 N   0  0  0  0  0  0  0  0  0  0  0  0
   28.6070   31.9640   44.2440 C   0  0  0  0  0  0  0  0  0  0  0  0
   29.4190   31.2930   44.9410 O   0  0  0  0  0  0  0  0  0  0  0  0
   26.2760   29.5750   47.8860 C   0  0  0  0  0  0  0  0  0  0  0  0
   26.2720   30.9300   48.0840 C   0  0  0  0  0  0  0  0  0  0  0  0
   26.5980   31.8260   47.0890 C   0  0  0  0  0  0  0  0  0  0  0  0
   26.9410   31.3460   45.8450 C   0  0  0  0  0  0  0  0  0  0  0  0
   26.9480   29.9660   45.6270 C   0  0  0  0  0  0  0  0  0  0  0  0
   26.6150   29.0690   46.6470 C   0  0  0  0  0  0  0  0  0  0  0  0
   25.8510   28.5070   49.1920 S   0  0  0  0  0  0  0  0  0  0  0  0
   26.9100   28.3800   50.2270 O   0  0  0  0  0  0  0  0  0  0  0  0
   24.5690   29.0080   49.8170 O   0  0  0  0  0  0  0  0  0  0  0  0
   25.8300   34.1550   41.9890 C   0  0  0  0  0  0  0  0  0  0  0  0
   25.2290   33.4030   40.8720 C   0  0  0  0  0  0  0  0  0  0  0  0
   25.6710   33.6310   39.5620 C   0  0  0  0  0  0  0  0  0  0  0  0
   24.6140   32.4440   38.5400 S   0  0  0  0  0  0  0  0  0  0  0  0
   23.7750   31.8730   40.1450 C   0  0  0  0  0  0  0  0  0  0  0  0
   24.2740   32.4830   40.9450 N   0  0  0  0  0  0  0  0  0  0  0  0
   32.8788   30.2478   42.7081 H   0  0  0  0  0  0  0  0  0  0  0  0
   34.0958   32.2077   41.6588 H   0  0  0  0  0  0  0  0  0  0  0  0
   32.8168   34.3695   41.3281 H   0  0  0  0  0  0  0  0  0  0  0  0
   28.5146   33.8025   41.4878 H   0  0  0  0  0  0  0  0  0  0  0  0
   25.9979   31.3184   49.0760 H   0  0  0  0  0  0  0  0  0  0  0  0
   26.5844   32.9082   47.2857 H   0  0  0  0  0  0  0  0  0  0  0  0
   27.2205   29.5778   44.6345 H   0  0  0  0  0  0  0  0  0  0  0  0
   26.6230   27.9840   46.4660 H   0  0  0  0  0  0  0  0  0  0  0  0
   25.6922   27.2514   48.6675 H   0  0  0  0  0  0  0  0  0  0  0  0
   25.0249   34.4486   42.6787 H   0  0  0  0  0  0  0  0  0  0  0  0
   26.3490   35.0168   41.5440 H   0  0  0  0  0  0  0  0  0  0  0  0
   26.4449   34.3307   39.2134 H   0  0  0  0  0  0  0  0  0  0  0  0
   22.9831   31.1189   40.2637 H   0  0  0  0  0  0  0  0  0  0  0  0
  1  6  2  0
  2  1  1  0
  3  2  2  0
  3  4  1  0
  4  5  2  0
  5  6  1  0
  5  7  1  0
  7 13  1  0
  8  9  2  0
  8  7  1  0
  9 10  1  0
 10 11  2  0
 10 12  1  0
 12 18  1  0
 13 12  1  0
 13 14  2  0
 15 16  2  0
 15 21  1  0
 17 16  1  0
 18 17  2  0
 19 18  1  0
 19 20  2  0
 20 15  1  0
 21 23  2  0
 21 22  2  0
 24  9  1  0
 25 29  1  0
 25 24  1  0
 26 25  2  0
 27 26  1  0
 27 28  1  0
 28 29  2  0
  1 30  1  0
  2 31  1  0
  3 32  1  0
  8 33  1  0
 16 34  1  0
 17 35  1  0
 19 36  1  0
 20 37  1  0
 21 38  1  0
 24 39  1  0
 24 40  1  0
 26 41  1  0
 28 42  1  0
M  ISO  8  30  14  31  14  32  14  33  14  34  14  35  14  36  14  37  14
M  ISO  5  38  11  39   8  40   8  41  14  42  14
M  END
>  <minimizedAffinity>  (1) 
-5.08354425

>  <minimizedRMSD>  (1) 
2.9660778

$$$$
