
     RDKit          3D

 32 34  0  0  1  0  0  0  0  0999 V2000
   37.2920   31.1630   48.2720 N   0  0  0  0  0  0  0  0  0  0  0  0
   38.3270   32.0040   48.4020 C   0  0  0  0  0  0  0  0  0  0  0  0
   38.7740   32.4050   47.2150 N   0  0  0  0  0  0  0  0  0  0  0  0
   38.0160   31.8140   46.2670 C   0  0  0  0  0  0  0  0  0  0  0  0
   38.0200   31.8130   44.9110 C   0  0  0  0  0  0  0  0  0  0  0  0
   37.1400   31.0770   44.1580 N   0  0  0  0  0  0  0  0  0  0  0  0
   36.2470   30.3360   44.8480 C   0  0  0  0  0  0  0  0  0  0  0  0
   36.2520   30.3400   46.1810 N   0  0  0  0  0  0  0  0  0  0  0  0
   37.0900   31.0370   46.9450 C   0  0  0  0  0  0  0  0  0  0  0  0
   35.2070   30.3850   49.2420 C   0  0  0  0  0  0  0  0  0  0  0  0
   36.5780   30.5320   49.3100 C   0  0  0  0  0  0  0  0  0  0  0  0
   37.2570   30.0390   50.4240 C   0  0  0  0  0  0  0  0  0  0  0  0
   36.4770   29.4290   51.3890 N   0  0  0  0  0  0  0  0  0  0  0  0
   35.1550   29.3030   51.2900 C   0  0  0  0  0  0  0  0  0  0  0  0
   34.4940   29.7790   50.2140 N   0  0  0  0  0  0  0  0  0  0  0  0
   38.9200   32.7080   44.1270 C   0  0  2  0  0  0  0  0  0  0  0  0
   38.4490   33.0130   42.7680 C   0  0  0  0  0  0  0  0  0  0  0  0
   40.3330   32.0220   44.0540 C   0  0  0  0  0  0  0  0  0  0  0  0
   41.0990   32.4870   45.1400 N   0  0  0  0  0  0  0  0  0  0  0  0
   38.7520   32.3217   49.3655 H   0  0  0  0  0  0  0  0  0  0  0  0
   35.5101   29.7247   44.3064 H   0  0  0  0  0  0  0  0  0  0  0  0
   34.6758   30.7768   48.3620 H   0  0  0  0  0  0  0  0  0  0  0  0
   38.3482   30.1300   50.5287 H   0  0  0  0  0  0  0  0  0  0  0  0
   34.5949   28.8049   52.0951 H   0  0  0  0  0  0  0  0  0  0  0  0
   38.9492   33.6767   44.6474 H   0  0  0  0  0  0  0  0  0  0  0  0
   37.5269   33.6101   42.8249 H   0  0  0  0  0  0  0  0  0  0  0  0
   39.2220   33.5824   42.2312 H   0  0  0  0  0  0  0  0  0  0  0  0
   38.2457   32.0747   42.2312 H   0  0  0  0  0  0  0  0  0  0  0  0
   40.2212   30.9295   44.1166 H   0  0  0  0  0  0  0  0  0  0  0  0
   40.8287   32.2683   43.1034 H   0  0  0  0  0  0  0  0  0  0  0  0
   40.6455   32.2117   46.0229 H   0  0  0  0  0  0  0  0  0  0  0  0
   42.0423   32.0758   45.0958 H   0  0  0  0  0  0  0  0  0  0  0  0
  1  2  1  0
  1 11  1  0
  3  2  2  0
  4  9  2  0
  4  3  1  0
  5  4  1  0
  6  7  1  0
  6  5  2  0
  7  8  2  0
  8  9  1  0
  9  1  1  0
 10 11  2  0
 10 15  1  0
 11 12  1  0
 12 13  2  0
 14 13  1  0
 15 14  2  0
 16  5  1  0
 17 16  1  0
 18 16  1  0
 18 19  1  0
  2 20  1  0
  7 21  1  0
 10 22  1  0
 12 23  1  0
 14 24  1  0
 16 25  1  1
 17 26  1  0
 17 27  1  0
 17 28  1  0
 18 29  1  0
 18 30  1  0
 19 31  1  0
 19 32  1  0
M  ISO  8  20  14  21  14  22  14  23  14  24  14  25   8  26   8  27   8
M  ISO  5  28   8  29   8  30   8  31   5  32   5
M  END
>  <minimizedAffinity>  (1) 
-4.93347597

>  <minimizedRMSD>  (1) 
0.756971836

$$$$
