
     RDKit          3D

 20 21  0  0  0  0  0  0  0  0999 V2000
   37.6430   30.0640   50.2420 C   0  0  0  0  0  0  0  0  0  0  0  0
   37.0110   30.6940   49.1600 C   0  0  0  0  0  0  0  0  0  0  0  0
   35.6250   30.6070   49.0530 C   0  0  0  0  0  0  0  0  0  0  0  0
   34.9470   29.9160   50.0040 N   0  0  0  0  0  0  0  0  0  0  0  0
   35.5810   29.3120   51.0480 C   0  0  0  0  0  0  0  0  0  0  0  0
   36.9220   29.3950   51.1500 N   0  0  0  0  0  0  0  0  0  0  0  0
   37.8860   31.3630   48.2780 N   0  0  0  0  0  0  0  0  0  0  0  0
   38.3490   30.6790   47.2090 C   0  0  0  0  0  0  0  0  0  0  0  0
   39.2080   31.2700   46.3040 C   0  0  0  0  0  0  0  0  0  0  0  0
   39.5280   32.5780   46.6020 C   0  0  0  0  0  0  0  0  0  0  0  0
   40.3210   33.1680   45.7940 O   0  0  0  0  0  0  0  0  0  0  0  0
   39.1020   33.3110   47.6490 N   0  0  0  0  0  0  0  0  0  0  0  0
   38.2580   32.6370   48.4820 C   0  0  0  0  0  0  0  0  0  0  0  0
   37.8130   33.2430   49.4810 O   0  0  0  0  0  0  0  0  0  0  0  0
   38.7367   30.1199   50.3450 H   0  0  0  0  0  0  0  0  0  0  0  0
   35.0931   31.0866   48.2181 H   0  0  0  0  0  0  0  0  0  0  0  0
   35.0017   28.7601   51.8028 H   0  0  0  0  0  0  0  0  0  0  0  0
   38.0368   29.6352   47.0573 H   0  0  0  0  0  0  0  0  0  0  0  0
   39.6026   30.7437   45.4224 H   0  0  0  0  0  0  0  0  0  0  0  0
   39.3868   34.2884   47.8057 H   0  0  0  0  0  0  0  0  0  0  0  0
  1  6  2  0
  2  1  1  0
  3  2  2  0
  3  4  1  0
  4  5  2  0
  5  6  1  0
  7 13  1  0
  7  2  1  0
  8  7  1  0
  9 10  1  0
  9  8  2  0
 10 12  1  0
 11 10  2  0
 12 13  1  0
 13 14  2  0
  1 15  1  0
  3 16  1  0
  5 17  1  0
  8 18  1  0
  9 19  1  0
 12 20  1  0
M  ISO  6  15  14  16  14  17  14  18  14  19  14  20   9
M  END
>  <minimizedAffinity>  (1) 
-5.19852161

>  <minimizedRMSD>  (1) 
3.66365838

$$$$
