
     RDKit          3D

 23 24  0  0  0  0  0  0  0  0999 V2000
   37.3120   31.0090   47.8710 N   0  0  0  0  0  0  0  0  0  0  0  0
   37.8790   30.6640   46.6890 C   0  0  0  0  0  0  0  0  0  0  0  0
   38.9310   31.3980   46.1800 C   0  0  0  0  0  0  0  0  0  0  0  0
   39.3240   32.4560   46.9510 C   0  0  0  0  0  0  0  0  0  0  0  0
   40.2980   33.1610   46.5110 O   0  0  0  0  0  0  0  0  0  0  0  0
   38.8060   32.8440   48.1200 N   0  0  0  0  0  0  0  0  0  0  0  0
   37.7730   32.0660   48.5480 C   0  0  0  0  0  0  0  0  0  0  0  0
   37.2280   32.3630   49.6420 O   0  0  0  0  0  0  0  0  0  0  0  0
   36.5870   29.3310   49.3730 C   0  0  0  0  0  0  0  0  0  0  0  0
   36.2440   30.2260   48.3400 C   0  0  0  0  0  0  0  0  0  0  0  0
   34.9300   30.2540   47.8930 C   0  0  0  0  0  0  0  0  0  0  0  0
   34.0200   29.4270   48.4590 N   0  0  0  0  0  0  0  0  0  0  0  0
   34.3780   28.5680   49.4590 C   0  0  0  0  0  0  0  0  0  0  0  0
   35.6490   28.5310   49.9010 N   0  0  0  0  0  0  0  0  0  0  0  0
   39.2350   33.9540   48.9060 C   0  0  0  0  0  0  0  0  0  0  0  0
   40.2530   34.6320   48.2610 F   0  0  0  0  0  0  0  0  0  0  0  0
   38.1640   34.8060   49.0720 F   0  0  0  0  0  0  0  0  0  0  0  0
   39.7010   33.5490   50.1350 F   0  0  0  0  0  0  0  0  0  0  0  0
   37.4986   29.7946   46.1327 H   0  0  0  0  0  0  0  0  0  0  0  0
   39.4171   31.1500   45.2249 H   0  0  0  0  0  0  0  0  0  0  0  0
   37.6212   29.2886   49.7453 H   0  0  0  0  0  0  0  0  0  0  0  0
   34.6315   30.9409   47.0874 H   0  0  0  0  0  0  0  0  0  0  0  0
   33.6239   27.9031   49.9054 H   0  0  0  0  0  0  0  0  0  0  0  0
  1 10  1  0
  1  7  1  0
  2  1  1  0
  3  2  2  0
  3  4  1  0
  4  6  1  0
  5  4  2  0
  6  7  1  0
  6 15  1  0
  7  8  2  0
  9 14  2  0
 10  9  1  0
 11 10  2  0
 11 12  1  0
 12 13  2  0
 13 14  1  0
 15 17  1  0
 15 18  1  0
 16 15  1  0
  2 19  1  0
  3 20  1  0
  9 21  1  0
 11 22  1  0
 13 23  1  0
M  ISO  5  19  14  20  14  21  14  22  14  23  14
M  END
>  <minimizedAffinity>  (1) 
-5.60626173

>  <minimizedRMSD>  (1) 
1.2855494

$$$$
