
     RDKit          3D

 36 38  0  0  0  0  0  0  0  0999 V2000
   36.2090   30.1380   47.8320 N   0  0  0  0  0  0  0  0  0  0  0  0
   34.9590   29.8340   47.4210 C   0  0  0  0  0  0  0  0  0  0  0  0
   34.6000   29.9110   46.0960 C   0  0  0  0  0  0  0  0  0  0  0  0
   35.6170   30.3170   45.2660 C   0  0  0  0  0  0  0  0  0  0  0  0
   35.3570   30.4110   44.0250 O   0  0  0  0  0  0  0  0  0  0  0  0
   36.8740   30.6310   45.6230 N   0  0  0  0  0  0  0  0  0  0  0  0
   37.1410   30.5260   46.9470 C   0  0  0  0  0  0  0  0  0  0  0  0
   38.2790   30.7970   47.3650 O   0  0  0  0  0  0  0  0  0  0  0  0
   37.6350   30.7140   49.6300 C   0  0  0  0  0  0  0  0  0  0  0  0
   36.4880   30.0290   49.2170 C   0  0  0  0  0  0  0  0  0  0  0  0
   35.7540   29.3310   50.1660 C   0  0  0  0  0  0  0  0  0  0  0  0
   36.1770   29.3400   51.4490 N   0  0  0  0  0  0  0  0  0  0  0  0
   37.2970   30.0140   51.8320 C   0  0  0  0  0  0  0  0  0  0  0  0
   38.0050   30.6870   50.9180 N   0  0  0  0  0  0  0  0  0  0  0  0
   37.8830   31.0470   44.6950 C   0  0  0  0  0  0  0  0  0  0  0  0
   39.1220   30.2140   44.7280 C   0  0  0  0  0  0  0  0  0  0  0  0
   39.8790   30.5520   43.4360 C   0  0  0  0  0  0  0  0  0  0  0  0
   40.1540   32.0130   43.3000 C   0  0  0  0  0  0  0  0  0  0  0  0
   39.6480   32.8410   44.4460 C   0  0  0  0  0  0  0  0  0  0  0  0
   38.2730   32.4920   44.8970 C   0  0  0  0  0  0  0  0  0  0  0  0
   34.2112   29.5176   48.1631 H   0  0  0  0  0  0  0  0  0  0  0  0
   33.5900   29.6694   45.7332 H   0  0  0  0  0  0  0  0  0  0  0  0
   38.2338   31.2752   48.8976 H   0  0  0  0  0  0  0  0  0  0  0  0
   34.8455   28.7812   49.8790 H   0  0  0  0  0  0  0  0  0  0  0  0
   37.6168   30.0050   52.8845 H   0  0  0  0  0  0  0  0  0  0  0  0
   37.4126   30.9138   43.7096 H   0  0  0  0  0  0  0  0  0  0  0  0
   39.7317   30.4668   45.6080 H   0  0  0  0  0  0  0  0  0  0  0  0
   38.8902   29.1409   44.7959 H   0  0  0  0  0  0  0  0  0  0  0  0
   40.8369   30.0113   43.4367 H   0  0  0  0  0  0  0  0  0  0  0  0
   39.2452   30.2509   42.5888 H   0  0  0  0  0  0  0  0  0  0  0  0
   41.2424   32.1543   43.2257 H   0  0  0  0  0  0  0  0  0  0  0  0
   39.6192   32.3543   42.4014 H   0  0  0  0  0  0  0  0  0  0  0  0
   40.3332   32.7071   45.2960 H   0  0  0  0  0  0  0  0  0  0  0  0
   39.6066   33.8803   44.0881 H   0  0  0  0  0  0  0  0  0  0  0  0
   37.5615   33.1187   44.3393 H   0  0  0  0  0  0  0  0  0  0  0  0
   38.2515   32.6675   45.9827 H   0  0  0  0  0  0  0  0  0  0  0  0
  1 10  1  0
  2  1  1  0
  3  2  2  0
  4  6  1  0
  4  3  1  0
  5  4  2  0
  6  7  1  0
  7  8  2  0
  7  1  1  0
  9 14  2  0
 10  9  1  0
 10 11  2  0
 11 12  1  0
 12 13  2  0
 14 13  1  0
 15 16  1  0
 15 20  1  0
 15  6  1  0
 17 16  1  0
 18 17  1  0
 18 19  1  0
 19 20  1  0
  2 21  1  0
  3 22  1  0
  9 23  1  0
 11 24  1  0
 13 25  1  0
 15 26  1  0
 16 27  1  0
 16 28  1  0
 17 29  1  0
 17 30  1  0
 18 31  1  0
 18 32  1  0
 19 33  1  0
 19 34  1  0
 20 35  1  0
 20 36  1  0
M  ISO  8  21  14  22  14  23  14  24  14  25  14  26  13  27  13  28  13
M  ISO  8  29  13  30  13  31  13  32  13  33  13  34  13  35  13  36  13
M  END
>  <minimizedAffinity>  (1) 
-5.57913399

>  <minimizedRMSD>  (1) 
4.41851091

$$$$
