
     RDKit          3D

 43 47  0  0  0  0  0  0  0  0999 V2000
   36.3920   30.2320   47.6910 N   0  0  0  0  0  0  0  0  0  0  0  0
   35.1270   29.9550   47.2800 C   0  0  0  0  0  0  0  0  0  0  0  0
   34.7680   30.0870   45.9520 C   0  0  0  0  0  0  0  0  0  0  0  0
   35.7760   30.5090   45.1250 C   0  0  0  0  0  0  0  0  0  0  0  0
   35.4820   30.6440   43.8930 O   0  0  0  0  0  0  0  0  0  0  0  0
   37.0580   30.8000   45.4870 N   0  0  0  0  0  0  0  0  0  0  0  0
   37.2980   30.6360   46.8050 C   0  0  0  0  0  0  0  0  0  0  0  0
   38.4520   30.8830   47.2000 O   0  0  0  0  0  0  0  0  0  0  0  0
   36.9580   31.2950   49.7120 C   0  0  0  0  0  0  0  0  0  0  0  0
   36.6770   30.0760   49.0440 C   0  0  0  0  0  0  0  0  0  0  0  0
   36.7240   28.8950   49.7820 C   0  0  0  0  0  0  0  0  0  0  0  0
   37.0380   28.9750   51.1020 N   0  0  0  0  0  0  0  0  0  0  0  0
   37.3040   30.1360   51.7250 C   0  0  0  0  0  0  0  0  0  0  0  0
   37.2610   31.3050   51.0160 N   0  0  0  0  0  0  0  0  0  0  0  0
   37.9860   31.2270   44.5360 C   0  0  0  0  0  0  0  0  0  0  0  0
   38.3590   32.5340   44.2680 C   0  0  0  0  0  0  0  0  0  0  0  0
   39.2750   32.8770   43.3190 C   0  0  0  0  0  0  0  0  0  0  0  0
   39.8710   31.8770   42.5780 C   0  0  0  0  0  0  0  0  0  0  0  0
   39.4940   30.5760   42.8510 C   0  0  0  0  0  0  0  0  0  0  0  0
   38.5810   30.2570   43.8010 N   0  0  0  0  0  0  0  0  0  0  0  0
   40.1070   29.4960   42.0840 C   0  0  0  0  0  0  0  0  0  0  0  0
   40.0910   28.1510   42.3730 C   0  0  0  0  0  0  0  0  0  0  0  0
   40.7550   27.4300   41.4530 N   0  0  0  0  0  0  0  0  0  0  0  0
   41.2140   28.3370   40.5470 C   0  0  0  0  0  0  0  0  0  0  0  0
   41.9590   28.0360   39.4200 C   0  0  0  0  0  0  0  0  0  0  0  0
   42.3190   29.1210   38.6370 C   0  0  0  0  0  0  0  0  0  0  0  0
   41.9530   30.4170   38.9670 C   0  0  0  0  0  0  0  0  0  0  0  0
   41.1990   30.6700   40.1180 C   0  0  0  0  0  0  0  0  0  0  0  0
   40.8300   29.6030   40.9130 C   0  0  0  0  0  0  0  0  0  0  0  0
   34.3787   29.6213   48.0139 H   0  0  0  0  0  0  0  0  0  0  0  0
   33.7530   29.8704   45.5875 H   0  0  0  0  0  0  0  0  0  0  0  0
   36.9267   32.2419   49.1531 H   0  0  0  0  0  0  0  0  0  0  0  0
   36.5128   27.9245   49.3092 H   0  0  0  0  0  0  0  0  0  0  0  0
   37.5542   30.1459   52.7961 H   0  0  0  0  0  0  0  0  0  0  0  0
   37.8902   33.3389   44.8531 H   0  0  0  0  0  0  0  0  0  0  0  0
   39.5346   33.9320   43.1468 H   0  0  0  0  0  0  0  0  0  0  0  0
   40.6158   32.1062   41.8017 H   0  0  0  0  0  0  0  0  0  0  0  0
   39.5937   27.7169   43.2529 H   0  0  0  0  0  0  0  0  0  0  0  0
   40.8882   26.4088   41.4368 H   0  0  0  0  0  0  0  0  0  0  0  0
   42.2458   27.0055   39.1634 H   0  0  0  0  0  0  0  0  0  0  0  0
   42.9125   28.9491   37.7270 H   0  0  0  0  0  0  0  0  0  0  0  0
   42.2576   31.2522   38.3192 H   0  0  0  0  0  0  0  0  0  0  0  0
   40.9065   31.6965   40.3839 H   0  0  0  0  0  0  0  0  0  0  0  0
  1 10  1  0
  2  1  1  0
  3  2  2  0
  4  6  1  0
  4  3  1  0
  5  4  2  0
  6  7  1  0
  7  8  2  0
  7  1  1  0
  9 14  2  0
 10  9  1  0
 10 11  2  0
 11 12  1  0
 12 13  2  0
 14 13  1  0
 15  6  1  0
 16 15  2  0
 17 16  1  0
 18 19  1  0
 18 17  2  0
 19 20  2  0
 20 15  1  0
 21 22  2  0
 21 19  1  0
 23 22  1  0
 24 29  2  0
 24 23  1  0
 25 24  1  0
 26 27  1  0
 26 25  2  0
 27 28  2  0
 28 29  1  0
 29 21  1  0
  2 30  1  0
  3 31  1  0
  9 32  1  0
 11 33  1  0
 13 34  1  0
 16 35  1  0
 17 36  1  0
 18 37  1  0
 22 38  1  0
 23 39  1  0
 25 40  1  0
 26 41  1  0
 27 42  1  0
 28 43  1  0
M  ISO  8  30  14  31  14  32  14  33  14  34  14  35  14  36  14  37  14
M  ISO  6  38  14  39   9  40  14  41  14  42  14  43  14
M  END
>  <minimizedAffinity>  (1) 
-5.89629602

>  <minimizedRMSD>  (1) 
0.657910168

$$$$
