
     RDKit          3D

 32 34  0  0  0  0  0  0  0  0999 V2000
   36.3730   30.2010   47.6790 N   0  0  0  0  0  0  0  0  0  0  0  0
   35.1150   29.9570   47.2350 C   0  0  0  0  0  0  0  0  0  0  0  0
   34.8000   30.0420   45.8940 C   0  0  0  0  0  0  0  0  0  0  0  0
   35.8490   30.3890   45.0840 C   0  0  0  0  0  0  0  0  0  0  0  0
   35.6030   30.4800   43.8380 O   0  0  0  0  0  0  0  0  0  0  0  0
   37.1240   30.6450   45.4720 N   0  0  0  0  0  0  0  0  0  0  0  0
   37.3200   30.5310   46.8030 C   0  0  0  0  0  0  0  0  0  0  0  0
   38.4750   30.7520   47.2320 O   0  0  0  0  0  0  0  0  0  0  0  0
   37.5410   31.0190   49.5440 C   0  0  0  0  0  0  0  0  0  0  0  0
   36.6210   30.0920   49.0490 C   0  0  0  0  0  0  0  0  0  0  0  0
   36.0670   29.1700   49.9360 C   0  0  0  0  0  0  0  0  0  0  0  0
   36.4390   29.2030   51.2380 N   0  0  0  0  0  0  0  0  0  0  0  0
   37.3420   30.1200   51.6930 C   0  0  0  0  0  0  0  0  0  0  0  0
   37.8920   31.0320   50.8290 N   0  0  0  0  0  0  0  0  0  0  0  0
   38.1040   30.9960   44.5380 C   0  0  0  0  0  0  0  0  0  0  0  0
   38.4270   32.2710   44.1110 C   0  0  0  0  0  0  0  0  0  0  0  0
   39.3990   32.5320   43.1910 C   0  0  0  0  0  0  0  0  0  0  0  0
   40.1060   31.4830   42.6490 C   0  0  0  0  0  0  0  0  0  0  0  0
   39.7770   30.2130   43.0810 C   0  0  0  0  0  0  0  0  0  0  0  0
   38.8050   29.9710   43.9990 N   0  0  0  0  0  0  0  0  0  0  0  0
   40.4970   29.0580   42.5380 C   0  0  0  0  0  0  0  0  0  0  0  0
   39.9620   27.9940   42.1510 O   0  0  0  0  0  0  0  0  0  0  0  0
   41.8730   29.0700   42.4130 O   0  0  0  0  0  0  0  0  0  0  0  0
   34.3309   29.6862   47.9574 H   0  0  0  0  0  0  0  0  0  0  0  0
   33.7889   29.8470   45.5070 H   0  0  0  0  0  0  0  0  0  0  0  0
   37.9856   31.7546   48.8576 H   0  0  0  0  0  0  0  0  0  0  0  0
   35.3377   28.4259   49.5833 H   0  0  0  0  0  0  0  0  0  0  0  0
   37.6291   30.1275   52.7548 H   0  0  0  0  0  0  0  0  0  0  0  0
   37.8705   33.1194   44.5359 H   0  0  0  0  0  0  0  0  0  0  0  0
   39.6150   33.5666   42.8863 H   0  0  0  0  0  0  0  0  0  0  0  0
   40.8984   31.6487   41.9043 H   0  0  0  0  0  0  0  0  0  0  0  0
   42.3434   28.2809   42.0440 H   0  0  0  0  0  0  0  0  0  0  0  0
  1 10  1  0
  2  1  1  0
  3  2  2  0
  4  6  1  0
  4  3  1  0
  5  4  2  0
  6  7  1  0
  7  8  2  0
  7  1  1  0
  9 14  2  0
 10  9  1  0
 10 11  2  0
 11 12  1  0
 12 13  2  0
 14 13  1  0
 15  6  1  0
 16 15  2  0
 17 16  1  0
 18 19  1  0
 18 17  2  0
 19 20  2  0
 20 15  1  0
 21 19  1  0
 22 21  2  0
 23 21  1  0
  2 24  1  0
  3 25  1  0
  9 26  1  0
 11 27  1  0
 13 28  1  0
 16 29  1  0
 17 30  1  0
 18 31  1  0
 23 32  1  0
M  ISO  8  24  14  25  14  26  14  27  14  28  14  29  14  30  14  31  14
M  ISO  1  32   3
M  END
>  <minimizedAffinity>  (1) 
-5.82183266

>  <minimizedRMSD>  (1) 
0.0974937528

$$$$
