
     RDKit          3D

 35 38  0  0  0  0  0  0  0  0999 V2000
   36.3770   30.2880   47.5130 N   0  0  0  0  0  0  0  0  0  0  0  0
   35.1280   29.9620   47.0960 C   0  0  0  0  0  0  0  0  0  0  0  0
   34.7740   30.0670   45.7690 C   0  0  0  0  0  0  0  0  0  0  0  0
   35.7560   30.5140   44.9390 C   0  0  0  0  0  0  0  0  0  0  0  0
   35.4630   30.6230   43.7110 O   0  0  0  0  0  0  0  0  0  0  0  0
   37.0290   30.8580   45.2930 N   0  0  0  0  0  0  0  0  0  0  0  0
   37.2730   30.7180   46.6200 C   0  0  0  0  0  0  0  0  0  0  0  0
   38.4200   31.0140   47.0170 O   0  0  0  0  0  0  0  0  0  0  0  0
   37.9460   31.3080   44.3410 C   0  0  0  0  0  0  0  0  0  0  0  0
   38.2850   32.6070   44.0610 C   0  0  0  0  0  0  0  0  0  0  0  0
   39.1970   32.9570   43.1080 C   0  0  0  0  0  0  0  0  0  0  0  0
   39.8210   31.9750   42.3760 C   0  0  0  0  0  0  0  0  0  0  0  0
   39.4690   30.6700   42.6670 C   0  0  0  0  0  0  0  0  0  0  0  0
   38.5600   30.3430   43.6200 N   0  0  0  0  0  0  0  0  0  0  0  0
   40.0850   29.5860   41.9380 N   0  0  0  0  0  0  0  0  0  0  0  0
   39.6570   28.3610   41.6190 C   0  0  0  0  0  0  0  0  0  0  0  0
   40.6240   27.7250   40.9180 N   0  0  0  0  0  0  0  0  0  0  0  0
   41.6720   28.5760   40.8030 C   0  0  0  0  0  0  0  0  0  0  0  0
   41.3020   29.7120   41.4430 N   0  0  0  0  0  0  0  0  0  0  0  0
   36.9130   31.3940   49.5180 C   0  0  0  0  0  0  0  0  0  0  0  0
   36.6700   30.1600   48.8700 C   0  0  0  0  0  0  0  0  0  0  0  0
   36.7570   28.9940   49.6100 C   0  0  0  0  0  0  0  0  0  0  0  0
   37.0710   29.0710   50.9310 N   0  0  0  0  0  0  0  0  0  0  0  0
   37.3020   30.2680   51.5410 C   0  0  0  0  0  0  0  0  0  0  0  0
   37.2200   31.4290   50.8200 N   0  0  0  0  0  0  0  0  0  0  0  0
   34.3871   29.6086   47.8283 H   0  0  0  0  0  0  0  0  0  0  0  0
   33.7686   29.8079   45.4056 H   0  0  0  0  0  0  0  0  0  0  0  0
   37.7964   33.4085   44.6344 H   0  0  0  0  0  0  0  0  0  0  0  0
   39.4309   34.0165   42.9271 H   0  0  0  0  0  0  0  0  0  0  0  0
   40.5619   32.2149   41.5991 H   0  0  0  0  0  0  0  0  0  0  0  0
   38.6767   27.9379   41.8836 H   0  0  0  0  0  0  0  0  0  0  0  0
   42.6281   28.3841   40.2940 H   0  0  0  0  0  0  0  0  0  0  0  0
   36.8491   32.3320   48.9470 H   0  0  0  0  0  0  0  0  0  0  0  0
   36.5747   28.0181   49.1363 H   0  0  0  0  0  0  0  0  0  0  0  0
   37.5540   30.3011   52.6112 H   0  0  0  0  0  0  0  0  0  0  0  0
  1 21  1  0
  2  1  1  0
  3  2  2  0
  4  6  1  0
  4  3  1  0
  5  4  2  0
  6  7  1  0
  7  8  2  0
  7  1  1  0
  9  6  1  0
 10  9  2  0
 11 10  1  0
 12 13  1  0
 12 11  2  0
 13 14  2  0
 14  9  1  0
 15 13  1  0
 16 15  1  0
 17 16  2  0
 18 17  1  0
 18 19  2  0
 19 15  1  0
 20 25  2  0
 21 20  1  0
 21 22  2  0
 22 23  1  0
 23 24  2  0
 25 24  1  0
  2 26  1  0
  3 27  1  0
 10 28  1  0
 11 29  1  0
 12 30  1  0
 16 31  1  0
 18 32  1  0
 20 33  1  0
 22 34  1  0
 24 35  1  0
M  ISO  8  26  14  27  14  28  14  29  14  30  14  31  14  32  14  33  14
M  ISO  2  34  14  35  14
M  END
>  <minimizedAffinity>  (1) 
-5.68179131

>  <minimizedRMSD>  (1) 
0.585526824

$$$$
