
     RDKit          3D

 39 42  0  0  0  0  0  0  0  0999 V2000
   36.3900   30.3020   47.5010 N   0  0  0  0  0  0  0  0  0  0  0  0
   35.1410   29.9750   47.0860 C   0  0  0  0  0  0  0  0  0  0  0  0
   34.7820   30.0830   45.7550 C   0  0  0  0  0  0  0  0  0  0  0  0
   35.7770   30.5370   44.9330 C   0  0  0  0  0  0  0  0  0  0  0  0
   35.4830   30.6510   43.6970 O   0  0  0  0  0  0  0  0  0  0  0  0
   37.0460   30.8790   45.2970 N   0  0  0  0  0  0  0  0  0  0  0  0
   37.2850   30.7340   46.6160 C   0  0  0  0  0  0  0  0  0  0  0  0
   38.4270   31.0270   47.0160 O   0  0  0  0  0  0  0  0  0  0  0  0
   36.9270   31.3860   49.5150 C   0  0  0  0  0  0  0  0  0  0  0  0
   36.6770   30.1630   48.8570 C   0  0  0  0  0  0  0  0  0  0  0  0
   36.7550   28.9900   49.6050 C   0  0  0  0  0  0  0  0  0  0  0  0
   37.0650   29.0700   50.9240 N   0  0  0  0  0  0  0  0  0  0  0  0
   37.3020   30.2560   51.5380 C   0  0  0  0  0  0  0  0  0  0  0  0
   37.2290   31.4170   50.8160 N   0  0  0  0  0  0  0  0  0  0  0  0
   37.9660   31.3350   44.3480 C   0  0  0  0  0  0  0  0  0  0  0  0
   38.3750   32.6400   44.1480 C   0  0  0  0  0  0  0  0  0  0  0  0
   39.2790   33.0090   43.1950 C   0  0  0  0  0  0  0  0  0  0  0  0
   39.8200   32.0370   42.3840 C   0  0  0  0  0  0  0  0  0  0  0  0
   39.4080   30.7350   42.5890 C   0  0  0  0  0  0  0  0  0  0  0  0
   38.5050   30.3900   43.5440 N   0  0  0  0  0  0  0  0  0  0  0  0
   39.9320   29.6410   41.7730 C   0  0  0  0  0  0  0  0  0  0  0  0
   39.1680   28.5080   41.6000 C   0  0  0  0  0  0  0  0  0  0  0  0
   39.5510   27.4000   40.8480 C   0  0  0  0  0  0  0  0  0  0  0  0
   40.7840   27.4320   40.2280 C   0  0  0  0  0  0  0  0  0  0  0  0
   41.5630   28.5600   40.3910 C   0  0  0  0  0  0  0  0  0  0  0  0
   41.1560   29.6430   41.1430 C   0  0  0  0  0  0  0  0  0  0  0  0
   34.4025   29.6185   47.8191 H   0  0  0  0  0  0  0  0  0  0  0  0
   33.7780   29.8249   45.3870 H   0  0  0  0  0  0  0  0  0  0  0  0
   36.8724   32.3274   48.9486 H   0  0  0  0  0  0  0  0  0  0  0  0
   36.5682   28.0138   49.1336 H   0  0  0  0  0  0  0  0  0  0  0  0
   37.5512   30.2849   52.6090 H   0  0  0  0  0  0  0  0  0  0  0  0
   37.9487   33.4234   44.7919 H   0  0  0  0  0  0  0  0  0  0  0  0
   39.5700   34.0632   43.0769 H   0  0  0  0  0  0  0  0  0  0  0  0
   40.5524   32.2879   41.6026 H   0  0  0  0  0  0  0  0  0  0  0  0
   38.1843   28.4760   42.0913 H   0  0  0  0  0  0  0  0  0  0  0  0
   38.8907   26.5256   40.7510 H   0  0  0  0  0  0  0  0  0  0  0  0
   41.1354   26.5838   39.6221 H   0  0  0  0  0  0  0  0  0  0  0  0
   42.5476   28.5969   39.9018 H   0  0  0  0  0  0  0  0  0  0  0  0
   41.8166   30.5172   41.2401 H   0  0  0  0  0  0  0  0  0  0  0  0
  1 10  1  0
  2  1  1  0
  3  2  2  0
  4  6  1  0
  4  3  1  0
  5  4  2  0
  6  7  1  0
  7  8  2  0
  7  1  1  0
  9 14  2  0
 10  9  1  0
 10 11  2  0
 11 12  1  0
 12 13  2  0
 14 13  1  0
 15  6  1  0
 16 15  2  0
 17 16  1  0
 18 19  1  0
 18 17  2  0
 19 20  2  0
 20 15  1  0
 21 19  1  0
 22 21  2  0
 23 22  1  0
 24 25  1  0
 24 23  2  0
 25 26  2  0
 26 21  1  0
  2 27  1  0
  3 28  1  0
  9 29  1  0
 11 30  1  0
 13 31  1  0
 16 32  1  0
 17 33  1  0
 18 34  1  0
 22 35  1  0
 23 36  1  0
 24 37  1  0
 25 38  1  0
 26 39  1  0
M  ISO  8  27  14  28  14  29  14  30  14  31  14  32  14  33  14  34  14
M  ISO  5  35  14  36  14  37  14  38  14  39  14
M  END
>  <minimizedAffinity>  (1) 
-5.46065998

>  <minimizedRMSD>  (1) 
0.826069534

$$$$
