
     RDKit          3D

 38 41  0  0  0  0  0  0  0  0999 V2000
   36.3660   30.3080   47.5080 N   0  0  0  0  0  0  0  0  0  0  0  0
   35.1170   29.9730   47.0960 C   0  0  0  0  0  0  0  0  0  0  0  0
   34.7630   30.0710   45.7640 C   0  0  0  0  0  0  0  0  0  0  0  0
   35.7560   30.5230   44.9400 C   0  0  0  0  0  0  0  0  0  0  0  0
   35.4780   30.6300   43.7000 O   0  0  0  0  0  0  0  0  0  0  0  0
   37.0080   30.8720   45.2840 N   0  0  0  0  0  0  0  0  0  0  0  0
   37.2660   30.7400   46.6190 C   0  0  0  0  0  0  0  0  0  0  0  0
   38.4020   31.0390   47.0190 O   0  0  0  0  0  0  0  0  0  0  0  0
   36.8560   31.4000   49.5280 C   0  0  0  0  0  0  0  0  0  0  0  0
   36.6650   30.1830   48.8700 C   0  0  0  0  0  0  0  0  0  0  0  0
   36.7930   29.0100   49.5990 C   0  0  0  0  0  0  0  0  0  0  0  0
   37.0970   29.0570   50.9180 N   0  0  0  0  0  0  0  0  0  0  0  0
   37.2800   30.2600   51.5360 C   0  0  0  0  0  0  0  0  0  0  0  0
   37.1570   31.4280   50.8320 N   0  0  0  0  0  0  0  0  0  0  0  0
   37.9340   31.3320   44.3420 C   0  0  0  0  0  0  0  0  0  0  0  0
   38.3550   32.6390   44.1660 C   0  0  0  0  0  0  0  0  0  0  0  0
   39.2830   32.9810   43.2110 C   0  0  0  0  0  0  0  0  0  0  0  0
   39.8230   32.0110   42.3950 C   0  0  0  0  0  0  0  0  0  0  0  0
   39.3820   30.7090   42.5940 C   0  0  0  0  0  0  0  0  0  0  0  0
   38.4750   30.3980   43.5320 N   0  0  0  0  0  0  0  0  0  0  0  0
   39.8980   29.6100   41.7770 C   0  0  0  0  0  0  0  0  0  0  0  0
   41.0900   29.6320   41.0860 C   0  0  0  0  0  0  0  0  0  0  0  0
   41.5810   28.6190   40.3230 C   0  0  0  0  0  0  0  0  0  0  0  0
   40.8460   27.4560   40.2140 C   0  0  0  0  0  0  0  0  0  0  0  0
   39.6490   27.4060   40.8960 C   0  0  0  0  0  0  0  0  0  0  0  0
   39.2240   28.4430   41.6300 N   0  0  0  0  0  0  0  0  0  0  0  0
   34.3784   29.6196   47.8306 H   0  0  0  0  0  0  0  0  0  0  0  0
   33.7610   29.8062   45.3955 H   0  0  0  0  0  0  0  0  0  0  0  0
   36.7583   32.3430   48.9702 H   0  0  0  0  0  0  0  0  0  0  0  0
   36.6471   28.0384   49.1043 H   0  0  0  0  0  0  0  0  0  0  0  0
   37.5281   30.2915   52.6072 H   0  0  0  0  0  0  0  0  0  0  0  0
   37.9349   33.4266   44.8088 H   0  0  0  0  0  0  0  0  0  0  0  0
   39.5946   34.0299   43.0983 H   0  0  0  0  0  0  0  0  0  0  0  0
   40.5675   32.2559   41.6231 H   0  0  0  0  0  0  0  0  0  0  0  0
   41.6962   30.5471   41.1577 H   0  0  0  0  0  0  0  0  0  0  0  0
   42.5447   28.7245   39.8031 H   0  0  0  0  0  0  0  0  0  0  0  0
   41.1994   26.6072   39.6101 H   0  0  0  0  0  0  0  0  0  0  0  0
   39.0313   26.4977   40.8364 H   0  0  0  0  0  0  0  0  0  0  0  0
  1 10  1  0
  2  1  1  0
  3  2  2  0
  4  6  1  0
  4  3  1  0
  5  4  2  0
  6  7  1  0
  7  8  2  0
  7  1  1  0
  9 14  2  0
 10  9  1  0
 10 11  2  0
 11 12  1  0
 12 13  2  0
 14 13  1  0
 15  6  1  0
 16 15  2  0
 17 16  1  0
 18 19  1  0
 18 17  2  0
 19 20  2  0
 20 15  1  0
 21 19  1  0
 22 21  2  0
 23 22  1  0
 24 23  2  0
 24 25  1  0
 25 26  2  0
 26 21  1  0
  2 27  1  0
  3 28  1  0
  9 29  1  0
 11 30  1  0
 13 31  1  0
 16 32  1  0
 17 33  1  0
 18 34  1  0
 22 35  1  0
 23 36  1  0
 24 37  1  0
 25 38  1  0
M  ISO  8  27  14  28  14  29  14  30  14  31  14  32  14  33  14  34  14
M  ISO  4  35  14  36  14  37  14  38  14
M  END
>  <minimizedAffinity>  (1) 
-5.44265556

>  <minimizedRMSD>  (1) 
0.852765322

$$$$
