
     RDKit          3D

 16 16  0  0  0  0  0  0  0  0999 V2000
   37.2160   30.1760   51.1660 C   0  0  0  0  0  0  0  0  0  0  0  0
   37.3120   30.9780   50.0110 C   0  0  0  0  0  0  0  0  0  0  0  0
   36.2350   30.9550   49.1120 C   0  0  0  0  0  0  0  0  0  0  0  0
   35.1710   30.1630   49.4070 N   0  0  0  0  0  0  0  0  0  0  0  0
   35.1060   29.4070   50.5170 C   0  0  0  0  0  0  0  0  0  0  0  0
   36.1280   29.4180   51.3880 N   0  0  0  0  0  0  0  0  0  0  0  0
   38.5170   31.7770   49.8270 C   0  0  0  0  0  0  0  0  0  0  0  0
   38.0850   33.1340   49.2690 C   0  0  0  0  0  0  0  0  0  0  0  0
   38.0406   30.1702   51.8940 H   0  0  0  0  0  0  0  0  0  0  0  0
   36.2515   31.5611   48.1942 H   0  0  0  0  0  0  0  0  0  0  0  0
   34.2209   28.7832   50.7105 H   0  0  0  0  0  0  0  0  0  0  0  0
   39.0291   31.9126   50.7910 H   0  0  0  0  0  0  0  0  0  0  0  0
   39.2130   31.2771   49.1373 H   0  0  0  0  0  0  0  0  0  0  0  0
   37.8667   33.8198   50.1008 H   0  0  0  0  0  0  0  0  0  0  0  0
   38.8946   33.5515   48.6524 H   0  0  0  0  0  0  0  0  0  0  0  0
   37.1830   33.0066   48.6524 H   0  0  0  0  0  0  0  0  0  0  0  0
  1  6  2  0
  2  1  1  0
  3  4  1  0
  3  2  2  0
  4  5  2  0
  5  6  1  0
  7  2  1  0
  8  7  1  0
  1  9  1  0
  3 10  1  0
  5 11  1  0
  7 12  1  0
  7 13  1  0
  8 14  1  0
  8 15  1  0
  8 16  1  0
M  ISO  8   9  14  10  14  11  14  12   8  13   8  14   8  15   8  16   8
M  END
>  <minimizedAffinity>  (1) 
-3.60770202

>  <minimizedRMSD>  (1) 
1.35290146

$$$$
