
     RDKit          3D

 43 46  0  0  0  0  0  0  0  0999 V2000
   33.4590   30.2310   43.9200 C   0  0  0  0  0  0  0  0  0  0  0  0
   33.8670   31.3340   43.1450 C   0  0  0  0  0  0  0  0  0  0  0  0
   32.8720   32.2320   42.7250 C   0  0  0  0  0  0  0  0  0  0  0  0
   31.5730   31.9890   43.0880 N   0  0  0  0  0  0  0  0  0  0  0  0
   31.2340   30.9080   43.8390 C   0  0  0  0  0  0  0  0  0  0  0  0
   32.1650   30.0560   44.2400 N   0  0  0  0  0  0  0  0  0  0  0  0
   29.8700   30.7220   44.1810 N   0  0  0  0  0  0  0  0  0  0  0  0
   28.8750   31.0290   43.3460 C   0  0  0  0  0  0  0  0  0  0  0  0
   27.5390   30.8550   43.6900 C   0  0  0  0  0  0  0  0  0  0  0  0
   27.3280   30.3540   44.9320 C   0  0  0  0  0  0  0  0  0  0  0  0
   26.1450   30.1640   45.3260 O   0  0  0  0  0  0  0  0  0  0  0  0
   28.2740   30.0290   45.8100 N   0  0  0  0  0  0  0  0  0  0  0  0
   29.5580   30.2220   45.4130 C   0  0  0  0  0  0  0  0  0  0  0  0
   30.4770   29.9230   46.2240 O   0  0  0  0  0  0  0  0  0  0  0  0
   27.6100   27.9960   49.4250 C   0  0  0  0  0  0  0  0  0  0  0  0
   27.5540   29.3680   49.4290 C   0  0  0  0  0  0  0  0  0  0  0  0
   27.7560   30.1210   48.3000 C   0  0  0  0  0  0  0  0  0  0  0  0
   28.0250   29.4990   47.1110 C   0  0  0  0  0  0  0  0  0  0  0  0
   28.0860   28.1020   47.0830 C   0  0  0  0  0  0  0  0  0  0  0  0
   27.8810   27.3430   48.2330 C   0  0  0  0  0  0  0  0  0  0  0  0
   27.3490   27.0790   50.8750 S   0  0  0  0  0  0  0  0  0  0  0  0
   28.5590   26.9550   51.7310 O   0  0  0  0  0  0  0  0  0  0  0  0
   26.2410   27.7500   51.6490 O   0  0  0  0  0  0  0  0  0  0  0  0
   26.4240   31.2080   42.7900 C   0  0  0  0  0  0  0  0  0  0  0  0
   26.1990   32.7070   42.7860 C   0  0  0  0  0  0  0  0  0  0  0  0
   24.7640   33.1840   42.5950 C   0  0  0  0  0  0  0  0  0  0  0  0
   25.4560   33.3440   43.9090 C   0  0  0  0  0  0  0  0  0  0  0  0
   34.2079   29.5042   44.2676 H   0  0  0  0  0  0  0  0  0  0  0  0
   34.9235   31.4862   42.8791 H   0  0  0  0  0  0  0  0  0  0  0  0
   33.1300   33.1119   42.1174 H   0  0  0  0  0  0  0  0  0  0  0  0
   29.1200   31.4331   42.3527 H   0  0  0  0  0  0  0  0  0  0  0  0
   27.3384   29.8844   50.3760 H   0  0  0  0  0  0  0  0  0  0  0  0
   27.7020   31.2185   48.3502 H   0  0  0  0  0  0  0  0  0  0  0  0
   28.3005   27.5916   46.1325 H   0  0  0  0  0  0  0  0  0  0  0  0
   27.9333   26.2449   48.1956 H   0  0  0  0  0  0  0  0  0  0  0  0
   27.0189   25.8000   50.5115 H   0  0  0  0  0  0  0  0  0  0  0  0
   26.6635   30.8752   41.7693 H   0  0  0  0  0  0  0  0  0  0  0  0
   25.5090   30.7119   43.1458 H   0  0  0  0  0  0  0  0  0  0  0  0
   27.1729   32.8942   42.3101 H   0  0  0  0  0  0  0  0  0  0  0  0
   24.5532   34.0649   41.9709 H   0  0  0  0  0  0  0  0  0  0  0  0
   23.8244   32.7232   42.2561 H   0  0  0  0  0  0  0  0  0  0  0  0
   25.1408   32.7358   44.7696 H   0  0  0  0  0  0  0  0  0  0  0  0
   25.6527   34.1963   44.5760 H   0  0  0  0  0  0  0  0  0  0  0  0
  1  6  2  0
  2  1  1  0
  3  4  1  0
  3  2  2  0
  4  5  2  0
  5  7  1  0
  5  6  1  0
  7 13  1  0
  8  9  2  0
  8  7  1  0
  9 10  1  0
 10 11  2  0
 10 12  1  0
 12 18  1  0
 13 12  1  0
 13 14  2  0
 15 16  2  0
 15 21  1  0
 17 16  1  0
 18 17  2  0
 19 18  1  0
 19 20  2  0
 20 15  1  0
 21 23  2  0
 21 22  2  0
 24  9  1  0
 25 24  1  0
 25 27  1  0
 26 25  1  0
 26 27  1  0
  1 28  1  0
  2 29  1  0
  3 30  1  0
  8 31  1  0
 16 32  1  0
 17 33  1  0
 19 34  1  0
 20 35  1  0
 21 36  1  0
 24 37  1  0
 24 38  1  0
 25 39  1  0
 26 40  1  0
 26 41  1  0
 27 42  1  0
 27 43  1  0
M  ISO  8  28  14  29  14  30  14  31  14  32  14  33  14  34  14  35  14
M  ISO  8  36  11  37   8  38   8  39  13  40  13  41  13  42  13  43  13
M  END
>  <minimizedAffinity>  (1) 
-4.63769341

>  <minimizedRMSD>  (1) 
0.842128932

$$$$
