
     RDKit          3D

 30 32  0  0  0  0  0  0  0  0999 V2000
   37.5610   32.7080   49.5120 C   0  0  0  0  0  0  0  0  0  0  0  0
   38.5730   33.0660   48.4840 C   0  0  0  0  0  0  0  0  0  0  0  0
   39.4360   34.0940   48.7170 N   0  0  0  0  0  0  0  0  0  0  0  0
   40.3940   34.4450   47.8440 C   0  0  0  0  0  0  0  0  0  0  0  0
   40.5730   33.8050   46.6710 N   0  0  0  0  0  0  0  0  0  0  0  0
   39.7570   32.7880   46.3880 C   0  0  0  0  0  0  0  0  0  0  0  0
   39.9180   32.1240   45.1930 C   0  0  0  0  0  0  0  0  0  0  0  0
   39.0690   31.0770   44.8970 C   0  0  0  0  0  0  0  0  0  0  0  0
   38.0830   30.7130   45.7860 C   0  0  0  0  0  0  0  0  0  0  0  0
   37.9220   31.3790   46.9840 C   0  0  0  0  0  0  0  0  0  0  0  0
   38.7580   32.4120   47.2840 C   0  0  0  0  0  0  0  0  0  0  0  0
   37.9220   31.3450   50.0720 C   0  0  0  0  0  0  0  0  0  0  0  0
   36.6380   29.6690   51.3040 C   0  0  0  0  0  0  0  0  0  0  0  0
   36.6980   30.5980   50.2630 C   0  0  0  0  0  0  0  0  0  0  0  0
   35.5550   30.7300   49.4840 C   0  0  0  0  0  0  0  0  0  0  0  0
   34.4580   29.9860   49.7440 N   0  0  0  0  0  0  0  0  0  0  0  0
   34.4350   29.0930   50.7640 C   0  0  0  0  0  0  0  0  0  0  0  0
   35.5230   28.9420   51.5360 N   0  0  0  0  0  0  0  0  0  0  0  0
   36.5614   32.6705   49.0544 H   0  0  0  0  0  0  0  0  0  0  0  0
   37.5500   33.4598   50.3149 H   0  0  0  0  0  0  0  0  0  0  0  0
   41.0573   35.2858   48.0952 H   0  0  0  0  0  0  0  0  0  0  0  0
   40.7079   32.4221   44.4878 H   0  0  0  0  0  0  0  0  0  0  0  0
   39.1805   30.5319   43.9481 H   0  0  0  0  0  0  0  0  0  0  0  0
   37.4123   29.8774   45.5374 H   0  0  0  0  0  0  0  0  0  0  0  0
   37.1301   31.0801   47.6865 H   0  0  0  0  0  0  0  0  0  0  0  0
   38.5767   30.8134   49.3657 H   0  0  0  0  0  0  0  0  0  0  0  0
   38.4539   31.4552   51.0285 H   0  0  0  0  0  0  0  0  0  0  0  0
   37.5175   29.5260   51.9490 H   0  0  0  0  0  0  0  0  0  0  0  0
   35.5434   31.4460   48.6490 H   0  0  0  0  0  0  0  0  0  0  0  0
   33.5313   28.4965   50.9576 H   0  0  0  0  0  0  0  0  0  0  0  0
  1 12  1  0
  2  3  2  0
  2  1  1  0
  4  3  1  0
  5  4  2  0
  6  5  1  0
  6 11  2  0
  7  6  1  0
  8  7  2  0
  8  9  1  0
  9 10  2  0
 10 11  1  0
 11  2  1  0
 12 14  1  0
 13 18  2  0
 14 13  1  0
 15 16  1  0
 15 14  2  0
 16 17  2  0
 17 18  1  0
  1 19  1  0
  1 20  1  0
  4 21  1  0
  7 22  1  0
  8 23  1  0
  9 24  1  0
 10 25  1  0
 12 26  1  0
 12 27  1  0
 13 28  1  0
 15 29  1  0
 17 30  1  0
M  ISO  8  19   8  20   8  21  14  22  14  23  14  24  14  25  14  26   8
M  ISO  4  27   8  28  14  29  14  30  14
M  END
>  <minimizedAffinity>  (1) 
-5.01964951

>  <minimizedRMSD>  (1) 
2.30163693

$$$$
