
     RDKit          3D

 32 33  0  0  0  0  0  0  0  0999 V2000
   34.8660   28.3600   49.3090 C   0  0  0  0  0  0  0  0  0  0  0  0
   32.5580   27.7930   48.7260 C   0  0  0  0  0  0  0  0  0  0  0  0
   33.7510   28.4440   48.3930 C   0  0  0  0  0  0  0  0  0  0  0  0
   33.7860   29.1390   47.1880 C   0  0  0  0  0  0  0  0  0  0  0  0
   32.6900   29.1580   46.4000 N   0  0  0  0  0  0  0  0  0  0  0  0
   31.5480   28.5230   46.7400 C   0  0  0  0  0  0  0  0  0  0  0  0
   31.4840   27.8400   47.9060 N   0  0  0  0  0  0  0  0  0  0  0  0
   35.3670   29.7900   49.5720 C   0  0  0  0  0  0  0  0  0  0  0  0
   36.8750   29.8460   49.4580 C   0  0  0  0  0  0  0  0  0  0  0  0
   37.3960   30.8540   50.4540 C   0  0  0  0  0  0  0  0  0  0  0  0
   37.1980   32.2710   49.9360 C   0  0  0  0  0  0  0  0  0  0  0  0
   38.2420   32.4540   48.8590 C   0  0  0  0  0  0  0  0  0  0  0  0
   38.3810   31.2400   48.0010 C   0  0  0  0  0  0  0  0  0  0  0  0
   37.2160   30.2910   48.0580 C   0  0  0  0  0  0  0  0  0  0  0  0
   35.6714   27.7573   48.8639 H   0  0  0  0  0  0  0  0  0  0  0  0
   34.5551   27.8826   50.2500 H   0  0  0  0  0  0  0  0  0  0  0  0
   32.4928   27.2335   49.6709 H   0  0  0  0  0  0  0  0  0  0  0  0
   34.6995   29.6687   46.8799 H   0  0  0  0  0  0  0  0  0  0  0  0
   30.6744   28.5608   46.0726 H   0  0  0  0  0  0  0  0  0  0  0  0
   34.9214   30.4725   48.8333 H   0  0  0  0  0  0  0  0  0  0  0  0
   35.0729   30.0916   50.5882 H   0  0  0  0  0  0  0  0  0  0  0  0
   37.3262   28.8640   49.6631 H   0  0  0  0  0  0  0  0  0  0  0  0
   36.8535   30.7373   51.4038 H   0  0  0  0  0  0  0  0  0  0  0  0
   38.4714   30.6791   50.6058 H   0  0  0  0  0  0  0  0  0  0  0  0
   36.1879   32.3900   49.5170 H   0  0  0  0  0  0  0  0  0  0  0  0
   37.3015   33.0176   50.7371 H   0  0  0  0  0  0  0  0  0  0  0  0
   37.9527   33.3053   48.2253 H   0  0  0  0  0  0  0  0  0  0  0  0
   39.2091   32.6341   49.3512 H   0  0  0  0  0  0  0  0  0  0  0  0
   39.2817   30.6958   48.3214 H   0  0  0  0  0  0  0  0  0  0  0  0
   38.4373   31.5992   46.9628 H   0  0  0  0  0  0  0  0  0  0  0  0
   36.3365   30.7920   47.6273 H   0  0  0  0  0  0  0  0  0  0  0  0
   37.5009   29.3922   47.4915 H   0  0  0  0  0  0  0  0  0  0  0  0
  1  8  1  0
  3  2  2  0
  3  1  1  0
  4  3  1  0
  5  6  1  0
  5  4  2  0
  6  7  2  0
  7  2  1  0
  9  8  1  0
  9 10  1  0
 11 10  1  0
 12 11  1  0
 13 14  1  0
 13 12  1  0
 14  9  1  0
  1 15  1  0
  1 16  1  0
  2 17  1  0
  4 18  1  0
  6 19  1  0
  8 20  1  0
  8 21  1  0
  9 22  1  0
 10 23  1  0
 10 24  1  0
 11 25  1  0
 11 26  1  0
 12 27  1  0
 12 28  1  0
 13 29  1  0
 13 30  1  0
 14 31  1  0
 14 32  1  0
M  ISO  8  15   8  16   8  17  14  18  14  19  14  20   8  21   8  22  13
M  ISO  8  23  13  24  13  25  13  26  13  27  13  28  13  29  13  30  13
M  ISO  2  31  13  32  13
M  END
>  <minimizedAffinity>  (1) 
-4.93145418

>  <minimizedRMSD>  (1) 
4.53072071

$$$$
