
     RDKit          3D

 29 30  0  0  0  0  0  0  0  0999 V2000
   38.3550   31.4010   49.9130 C   0  0  0  0  0  0  0  0  0  0  0  0
   36.8850   29.8570   51.1120 C   0  0  0  0  0  0  0  0  0  0  0  0
   37.0720   30.7520   50.0560 C   0  0  0  0  0  0  0  0  0  0  0  0
   36.0130   30.9760   49.1870 C   0  0  0  0  0  0  0  0  0  0  0  0
   34.8340   30.3110   49.4020 N   0  0  0  0  0  0  0  0  0  0  0  0
   34.6760   29.4460   50.4330 C   0  0  0  0  0  0  0  0  0  0  0  0
   35.7010   29.2260   51.2800 N   0  0  0  0  0  0  0  0  0  0  0  0
   38.2400   32.5110   48.8930 C   0  0  0  0  0  0  0  0  0  0  0  0
   38.9910   32.2680   47.6260 C   0  0  0  0  0  0  0  0  0  0  0  0
   38.1300   32.0500   46.4100 C   0  0  0  0  0  0  0  0  0  0  0  0
   39.0620   32.2950   45.2410 C   0  0  0  0  0  0  0  0  0  0  0  0
   40.2290   33.1020   45.7610 C   0  0  0  0  0  0  0  0  0  0  0  0
   39.8360   33.4430   47.2030 C   0  0  0  0  0  0  0  0  0  0  0  0
   38.6644   31.8217   50.8811 H   0  0  0  0  0  0  0  0  0  0  0  0
   39.1044   30.6684   49.5788 H   0  0  0  0  0  0  0  0  0  0  0  0
   37.7094   29.6636   51.8141 H   0  0  0  0  0  0  0  0  0  0  0  0
   36.1179   31.6733   48.3427 H   0  0  0  0  0  0  0  0  0  0  0  0
   33.7172   28.9266   50.5777 H   0  0  0  0  0  0  0  0  0  0  0  0
   37.1765   32.6388   48.6428 H   0  0  0  0  0  0  0  0  0  0  0  0
   38.6843   33.4059   49.3532 H   0  0  0  0  0  0  0  0  0  0  0  0
   39.5693   31.3718   47.8950 H   0  0  0  0  0  0  0  0  0  0  0  0
   37.7400   31.0217   46.3882 H   0  0  0  0  0  0  0  0  0  0  0  0
   37.2522   32.7126   46.3930 H   0  0  0  0  0  0  0  0  0  0  0  0
   38.5382   32.8551   44.4524 H   0  0  0  0  0  0  0  0  0  0  0  0
   39.4066   31.3432   44.8104 H   0  0  0  0  0  0  0  0  0  0  0  0
   41.1548   32.5084   45.7387 H   0  0  0  0  0  0  0  0  0  0  0  0
   40.4258   33.9982   45.1543 H   0  0  0  0  0  0  0  0  0  0  0  0
   40.7269   33.5365   47.8415 H   0  0  0  0  0  0  0  0  0  0  0  0
   39.3061   34.4033   47.2865 H   0  0  0  0  0  0  0  0  0  0  0  0
  1  3  1  0
  2  7  2  0
  3  2  1  0
  4  5  1  0
  4  3  2  0
  5  6  2  0
  6  7  1  0
  8  1  1  0
  9  8  1  0
 10  9  1  0
 11 12  1  0
 11 10  1  0
 12 13  1  0
 13  9  1  0
  1 14  1  0
  1 15  1  0
  2 16  1  0
  4 17  1  0
  6 18  1  0
  8 19  1  0
  8 20  1  0
  9 21  1  0
 10 22  1  0
 10 23  1  0
 11 24  1  0
 11 25  1  0
 12 26  1  0
 12 27  1  0
 13 28  1  0
 13 29  1  0
M  ISO  8  14   8  15   8  16  14  17  14  18  14  19   8  20   8  21  13
M  ISO  8  22  13  23  13  24  13  25  13  26  13  27  13  28  13  29  13
M  END
>  <minimizedAffinity>  (1) 
-4.80942535

>  <minimizedRMSD>  (1) 
2.28970432

$$$$
