
     RDKit          3D

 30 31  0  0  0  0  0  0  0  0999 V2000
   38.5630   31.9450   49.4720 C   0  0  0  0  0  0  0  0  0  0  0  0
   37.5200   30.3730   51.0290 C   0  0  0  0  0  0  0  0  0  0  0  0
   37.4580   31.0840   49.8250 C   0  0  0  0  0  0  0  0  0  0  0  0
   36.3190   30.9170   49.0440 C   0  0  0  0  0  0  0  0  0  0  0  0
   35.3430   30.0790   49.4930 N   0  0  0  0  0  0  0  0  0  0  0  0
   35.4200   29.4080   50.6470 C   0  0  0  0  0  0  0  0  0  0  0  0
   36.5060   29.5620   51.4020 N   0  0  0  0  0  0  0  0  0  0  0  0
   38.2440   32.5970   48.1270 C   0  0  0  0  0  0  0  0  0  0  0  0
   39.2480   32.4070   47.1600 N   0  0  0  0  0  0  0  0  0  0  0  0
   39.9420   33.5030   46.6320 C   0  0  0  0  0  0  0  0  0  0  0  0
   40.1120   33.3990   45.1320 C   0  0  0  0  0  0  0  0  0  0  0  0
   40.6410   32.1550   44.6770 N   0  0  0  0  0  0  0  0  0  0  0  0
   40.5610   31.0640   45.5980 C   0  0  0  0  0  0  0  0  0  0  0  0
   39.3010   31.1750   46.4630 C   0  0  0  0  0  0  0  0  0  0  0  0
   38.6923   32.7206   50.2413 H   0  0  0  0  0  0  0  0  0  0  0  0
   39.4937   31.3627   49.4028 H   0  0  0  0  0  0  0  0  0  0  0  0
   38.4025   30.4755   51.6775 H   0  0  0  0  0  0  0  0  0  0  0  0
   36.2090   31.4485   48.0873 H   0  0  0  0  0  0  0  0  0  0  0  0
   34.6038   28.7431   50.9658 H   0  0  0  0  0  0  0  0  0  0  0  0
   37.3065   32.1667   47.7449 H   0  0  0  0  0  0  0  0  0  0  0  0
   38.1643   33.6799   48.3028 H   0  0  0  0  0  0  0  0  0  0  0  0
   39.3829   34.4217   46.8629 H   0  0  0  0  0  0  0  0  0  0  0  0
   40.9436   33.5210   47.0864 H   0  0  0  0  0  0  0  0  0  0  0  0
   39.1268   33.5439   44.6646 H   0  0  0  0  0  0  0  0  0  0  0  0
   40.8433   34.1701   44.8480 H   0  0  0  0  0  0  0  0  0  0  0  0
   40.1270   31.8868   43.8257 H   0  0  0  0  0  0  0  0  0  0  0  0
   40.5308   30.1188   45.0361 H   0  0  0  0  0  0  0  0  0  0  0  0
   41.4433   31.0905   46.2543 H   0  0  0  0  0  0  0  0  0  0  0  0
   38.4159   31.0943   45.8148 H   0  0  0  0  0  0  0  0  0  0  0  0
   39.3232   30.3632   47.2050 H   0  0  0  0  0  0  0  0  0  0  0  0
  1  3  1  0
  2  7  2  0
  3  2  1  0
  4  5  1  0
  4  3  2  0
  5  6  2  0
  6  7  1  0
  8  1  1  0
  9  8  1  0
 10  9  1  0
 11 10  1  0
 12 11  1  0
 12 13  1  0
 13 14  1  0
 14  9  1  0
  1 15  1  0
  1 16  1  0
  2 17  1  0
  4 18  1  0
  6 19  1  0
  8 20  1  0
  8 21  1  0
 10 22  1  0
 10 23  1  0
 11 24  1  0
 11 25  1  0
 12 26  1  0
 13 27  1  0
 13 28  1  0
 14 29  1  0
 14 30  1  0
M  ISO  8  15   8  16   8  17  14  18  14  19  14  20   8  21   8  22  13
M  ISO  8  23  13  24  13  25  13  26   5  27  13  28  13  29  13  30  13
M  END
>  <minimizedAffinity>  (1) 
-4.71780777

>  <minimizedRMSD>  (1) 
2.80692792

$$$$
