
     RDKit          3D

 23 24  0  0  0  0  0  0  0  0999 V2000
   36.6250   29.7250   51.1890 C   0  0  0  0  0  0  0  0  0  0  0  0
   36.9960   30.6040   50.1370 C   0  0  0  0  0  0  0  0  0  0  0  0
   36.0300   30.8530   49.1360 C   0  0  0  0  0  0  0  0  0  0  0  0
   34.8310   30.2430   49.2500 N   0  0  0  0  0  0  0  0  0  0  0  0
   34.5150   29.4200   50.2550 C   0  0  0  0  0  0  0  0  0  0  0  0
   35.4120   29.1580   51.2290 N   0  0  0  0  0  0  0  0  0  0  0  0
   38.3140   31.1890   50.1360 C   0  0  0  0  0  0  0  0  0  0  0  0
   38.4850   31.9840   48.8590 C   0  0  0  0  0  0  0  0  0  0  0  0
   38.4870   33.4580   48.9910 C   0  0  0  0  0  0  0  0  0  0  0  0
   39.5390   33.9720   49.9860 C   0  0  0  0  0  0  0  0  0  0  0  0
   39.7090   34.2860   48.5640 C   0  0  0  0  0  0  0  0  0  0  0  0
   37.3488   29.5052   51.9876 H   0  0  0  0  0  0  0  0  0  0  0  0
   36.2481   31.5225   48.2909 H   0  0  0  0  0  0  0  0  0  0  0  0
   33.5191   28.9541   50.2883 H   0  0  0  0  0  0  0  0  0  0  0  0
   38.4255   31.8541   51.0050 H   0  0  0  0  0  0  0  0  0  0  0  0
   39.0773   30.3990   50.1936 H   0  0  0  0  0  0  0  0  0  0  0  0
   37.6614   31.7107   48.1830 H   0  0  0  0  0  0  0  0  0  0  0  0
   39.4877   31.7248   48.4882 H   0  0  0  0  0  0  0  0  0  0  0  0
   37.4098   33.5474   48.7867 H   0  0  0  0  0  0  0  0  0  0  0  0
   39.2759   34.7718   50.6939 H   0  0  0  0  0  0  0  0  0  0  0  0
   40.1723   33.4964   50.7494 H   0  0  0  0  0  0  0  0  0  0  0  0
   40.5190   33.8089   47.9927 H   0  0  0  0  0  0  0  0  0  0  0  0
   39.8461   35.2162   47.9930 H   0  0  0  0  0  0  0  0  0  0  0  0
  1  6  2  0
  2  1  1  0
  3  4  1  0
  3  2  2  0
  4  5  2  0
  5  6  1  0
  7  2  1  0
  8  9  1  0
  8  7  1  0
  9 10  1  0
 11  9  1  0
 11 10  1  0
  1 12  1  0
  3 13  1  0
  5 14  1  0
  7 15  1  0
  7 16  1  0
  8 17  1  0
  8 18  1  0
  9 19  1  0
 10 20  1  0
 10 21  1  0
 11 22  1  0
 11 23  1  0
M  ISO  8  12  14  13  14  14  14  15   8  16   8  17   8  18   8  19  13
M  ISO  4  20  13  21  13  22  13  23  13
M  END
>  <minimizedAffinity>  (1) 
-4.51374245

>  <minimizedRMSD>  (1) 
1.44126832

$$$$
