
     RDKit          3D

 22 23  0  0  0  0  0  0  0  0999 V2000
   38.5810   31.7730   49.4930 C   0  0  0  0  0  0  0  0  0  0  0  0
   37.4600   30.2510   51.0440 C   0  0  0  0  0  0  0  0  0  0  0  0
   37.4330   30.9810   49.8510 C   0  0  0  0  0  0  0  0  0  0  0  0
   36.2880   30.9020   49.0660 C   0  0  0  0  0  0  0  0  0  0  0  0
   35.2550   30.1190   49.4960 N   0  0  0  0  0  0  0  0  0  0  0  0
   35.2980   29.4200   50.6530 C   0  0  0  0  0  0  0  0  0  0  0  0
   36.4070   29.4910   51.4250 N   0  0  0  0  0  0  0  0  0  0  0  0
   38.1800   32.7400   48.3910 C   0  0  0  0  0  0  0  0  0  0  0  0
   39.0460   32.3770   47.2560 N   0  0  0  0  0  0  0  0  0  0  0  0
   39.1920   31.1700   46.6820 C   0  0  0  0  0  0  0  0  0  0  0  0
   40.0920   31.2870   45.6690 N   0  0  0  0  0  0  0  0  0  0  0  0
   40.4890   32.5860   45.6400 C   0  0  0  0  0  0  0  0  0  0  0  0
   39.8320   33.2230   46.6200 N   0  0  0  0  0  0  0  0  0  0  0  0
   38.9307   32.3362   50.3708 H   0  0  0  0  0  0  0  0  0  0  0  0
   39.3930   31.1194   49.1416 H   0  0  0  0  0  0  0  0  0  0  0  0
   38.3534   30.2955   51.6841 H   0  0  0  0  0  0  0  0  0  0  0  0
   36.2158   31.4579   48.1196 H   0  0  0  0  0  0  0  0  0  0  0  0
   34.4424   28.8017   50.9625 H   0  0  0  0  0  0  0  0  0  0  0  0
   37.1194   32.6133   48.1282 H   0  0  0  0  0  0  0  0  0  0  0  0
   38.2985   33.7917   48.6908 H   0  0  0  0  0  0  0  0  0  0  0  0
   38.6731   30.2471   46.9802 H   0  0  0  0  0  0  0  0  0  0  0  0
   41.2138   33.0318   44.9429 H   0  0  0  0  0  0  0  0  0  0  0  0
  1  3  1  0
  2  7  2  0
  3  2  1  0
  4  5  1  0
  4  3  2  0
  5  6  2  0
  6  7  1  0
  8  1  1  0
  9  8  1  0
 10  9  1  0
 11 10  2  0
 12 11  1  0
 12 13  2  0
 13  9  1  0
  1 14  1  0
  1 15  1  0
  2 16  1  0
  4 17  1  0
  6 18  1  0
  8 19  1  0
  8 20  1  0
 10 21  1  0
 12 22  1  0
M  ISO  8  14   8  15   8  16  14  17  14  18  14  19   8  20   8  21  14
M  ISO  1  22  14
M  END
>  <minimizedAffinity>  (1) 
-4.38038158

>  <minimizedRMSD>  (1) 
2.31915355

$$$$
