
     RDKit          3D

 28 29  0  0  0  0  0  0  0  0999 V2000
   37.7600   30.5350   48.7780 C   0  0  0  0  0  0  0  0  0  0  0  0
   36.1000   28.9570   49.6760 C   0  0  0  0  0  0  0  0  0  0  0  0
   36.4350   29.9610   48.7480 C   0  0  0  0  0  0  0  0  0  0  0  0
   35.4400   30.3370   47.8490 C   0  0  0  0  0  0  0  0  0  0  0  0
   34.2300   29.7440   47.9020 N   0  0  0  0  0  0  0  0  0  0  0  0
   33.9460   28.7790   48.8130 C   0  0  0  0  0  0  0  0  0  0  0  0
   34.8880   28.3870   49.7020 N   0  0  0  0  0  0  0  0  0  0  0  0
   37.7150   31.7590   49.6990 C   0  0  0  0  0  0  0  0  0  0  0  0
   38.1090   32.9110   48.8690 N   0  0  0  0  0  0  0  0  0  0  0  0
   38.8130   32.4060   47.6950 C   0  0  0  0  0  0  0  0  0  0  0  0
   39.8510   33.4260   47.3210 C   0  0  0  0  0  0  0  0  0  0  0  0
   39.7960   34.4520   48.4050 C   0  0  0  0  0  0  0  0  0  0  0  0
   39.1340   33.6900   49.5290 C   0  0  0  0  0  0  0  0  0  0  0  0
   38.0598   30.8393   47.7643 H   0  0  0  0  0  0  0  0  0  0  0  0
   38.4905   29.8004   49.1478 H   0  0  0  0  0  0  0  0  0  0  0  0
   36.8578   28.6300   50.4032 H   0  0  0  0  0  0  0  0  0  0  0  0
   35.6405   31.1153   47.0980 H   0  0  0  0  0  0  0  0  0  0  0  0
   32.9488   28.3149   48.8288 H   0  0  0  0  0  0  0  0  0  0  0  0
   36.6982   31.9027   50.0932 H   0  0  0  0  0  0  0  0  0  0  0  0
   38.3867   31.6373   50.5615 H   0  0  0  0  0  0  0  0  0  0  0  0
   39.2964   31.4463   47.9303 H   0  0  0  0  0  0  0  0  0  0  0  0
   38.1127   32.2411   46.8629 H   0  0  0  0  0  0  0  0  0  0  0  0
   40.8483   32.9639   47.2768 H   0  0  0  0  0  0  0  0  0  0  0  0
   39.6611   33.8631   46.3296 H   0  0  0  0  0  0  0  0  0  0  0  0
   40.8045   34.7868   48.6894 H   0  0  0  0  0  0  0  0  0  0  0  0
   39.2624   35.3702   48.1185 H   0  0  0  0  0  0  0  0  0  0  0  0
   38.6895   34.3807   50.2607 H   0  0  0  0  0  0  0  0  0  0  0  0
   39.8433   33.0654   50.0918 H   0  0  0  0  0  0  0  0  0  0  0  0
  1  8  1  0
  2  7  2  0
  3  1  1  0
  3  2  1  0
  4  5  1  0
  4  3  2  0
  5  6  2  0
  6  7  1  0
  9 13  1  0
  9  8  1  0
 10  9  1  0
 11 10  1  0
 11 12  1  0
 12 13  1  0
  1 14  1  0
  1 15  1  0
  2 16  1  0
  4 17  1  0
  6 18  1  0
  8 19  1  0
  8 20  1  0
 10 21  1  0
 10 22  1  0
 11 23  1  0
 11 24  1  0
 12 25  1  0
 12 26  1  0
 13 27  1  0
 13 28  1  0
M  ISO  8  14   8  15   8  16  14  17  14  18  14  19   8  20   8  21  13
M  ISO  7  22  13  23  13  24  13  25  13  26  13  27  13  28  13
M  END
>  <minimizedAffinity>  (1) 
-4.26653719

>  <minimizedRMSD>  (1) 
2.07955241

$$$$
