
     RDKit          3D

 37 39  0  0  0  0  0  0  0  0999 V2000
   33.6440   30.2730   44.2290 C   0  0  0  0  0  0  0  0  0  0  0  0
   33.9610   31.3380   43.3360 C   0  0  0  0  0  0  0  0  0  0  0  0
   32.9020   32.0170   42.7210 C   0  0  0  0  0  0  0  0  0  0  0  0
   31.6180   31.6230   43.0090 N   0  0  0  0  0  0  0  0  0  0  0  0
   31.3700   30.6020   43.8660 C   0  0  0  0  0  0  0  0  0  0  0  0
   32.3580   29.9570   44.4500 N   0  0  0  0  0  0  0  0  0  0  0  0
   30.0100   30.2460   44.1240 N   0  0  0  0  0  0  0  0  0  0  0  0
   29.0740   30.2940   43.1640 C   0  0  0  0  0  0  0  0  0  0  0  0
   27.7610   29.9600   43.4150 C   0  0  0  0  0  0  0  0  0  0  0  0
   27.4760   29.5780   44.6860 C   0  0  0  0  0  0  0  0  0  0  0  0
   26.3000   29.2520   45.0120 O   0  0  0  0  0  0  0  0  0  0  0  0
   28.3740   29.5100   45.6850 N   0  0  0  0  0  0  0  0  0  0  0  0
   29.6450   29.8520   45.3810 C   0  0  0  0  0  0  0  0  0  0  0  0
   30.5090   29.8010   46.2950 O   0  0  0  0  0  0  0  0  0  0  0  0
   27.5960   27.8330   49.4550 C   0  0  0  0  0  0  0  0  0  0  0  0
   27.4300   29.2030   49.2950 C   0  0  0  0  0  0  0  0  0  0  0  0
   27.6610   29.8300   48.1030 C   0  0  0  0  0  0  0  0  0  0  0  0
   28.0710   29.1070   47.0140 C   0  0  0  0  0  0  0  0  0  0  0  0
   28.2490   27.7250   47.1420 C   0  0  0  0  0  0  0  0  0  0  0  0
   28.0080   27.0790   48.3740 C   0  0  0  0  0  0  0  0  0  0  0  0
   27.3010   27.0650   50.9690 S   0  0  0  0  0  0  0  0  0  0  0  0
   28.4800   27.0300   51.8700 O   0  0  0  0  0  0  0  0  0  0  0  0
   26.1650   27.8120   51.6540 O   0  0  0  0  0  0  0  0  0  0  0  0
   26.6950   30.0080   42.3980 C   0  0  0  0  0  0  0  0  0  0  0  0
   26.1270   31.7490   42.2930 S   0  0  0  0  0  0  0  0  0  0  0  0
   34.4466   29.7146   44.7330 H   0  0  0  0  0  0  0  0  0  0  0  0
   35.0058   31.6179   43.1361 H   0  0  0  0  0  0  0  0  0  0  0  0
   33.0937   32.8461   42.0239 H   0  0  0  0  0  0  0  0  0  0  0  0
   29.3623   30.6082   42.1500 H   0  0  0  0  0  0  0  0  0  0  0  0
   27.1017   29.8030   50.1565 H   0  0  0  0  0  0  0  0  0  0  0  0
   27.5175   30.9173   48.0177 H   0  0  0  0  0  0  0  0  0  0  0  0
   28.5800   27.1360   46.2740 H   0  0  0  0  0  0  0  0  0  0  0  0
   28.1463   25.9921   48.4713 H   0  0  0  0  0  0  0  0  0  0  0  0
   26.9865   25.7563   50.7133 H   0  0  0  0  0  0  0  0  0  0  0  0
   27.0876   29.6799   41.4242 H   0  0  0  0  0  0  0  0  0  0  0  0
   25.8639   29.3410   42.6705 H   0  0  0  0  0  0  0  0  0  0  0  0
   25.9627   32.2527   43.5564 H   0  0  0  0  0  0  0  0  0  0  0  0
  1  6  2  0
  2  1  1  0
  3  4  1  0
  3  2  2  0
  4  5  2  0
  5  7  1  0
  5  6  1  0
  7 13  1  0
  8  9  2  0
  8  7  1  0
  9 10  1  0
 10 11  2  0
 10 12  1  0
 12 18  1  0
 13 12  1  0
 13 14  2  0
 15 21  1  0
 16 15  2  0
 17 16  1  0
 18 19  1  0
 18 17  2  0
 19 20  2  0
 20 15  1  0
 21 23  2  0
 21 22  2  0
 24  9  1  0
 25 24  1  0
  1 26  1  0
  2 27  1  0
  3 28  1  0
  8 29  1  0
 16 30  1  0
 17 31  1  0
 19 32  1  0
 20 33  1  0
 21 34  1  0
 24 35  1  0
 24 36  1  0
 25 37  1  0
M  ISO  8  26  14  27  14  28  14  29  14  30  14  31  14  32  14  33  14
M  ISO  4  34  11  35   8  36   8  37  11
M  END
>  <minimizedAffinity>  (1) 
-4.37095356

>  <minimizedRMSD>  (1) 
0.195338503

$$$$
