
     RDKit          3D

 38 40  0  0  0  0  0  0  0  0999 V2000
   33.7870   30.1280   44.3000 C   0  0  0  0  0  0  0  0  0  0  0  0
   34.1660   31.1860   43.4350 C   0  0  0  0  0  0  0  0  0  0  0  0
   33.1270   31.9370   42.8330 C   0  0  0  0  0  0  0  0  0  0  0  0
   31.8270   31.6050   43.1130 N   0  0  0  0  0  0  0  0  0  0  0  0
   31.5180   30.5810   43.9490 C   0  0  0  0  0  0  0  0  0  0  0  0
   32.4860   29.8810   44.5110 N   0  0  0  0  0  0  0  0  0  0  0  0
   30.1560   30.2910   44.1950 N   0  0  0  0  0  0  0  0  0  0  0  0
   29.2280   30.4120   43.2430 C   0  0  0  0  0  0  0  0  0  0  0  0
   27.8920   30.1300   43.4700 C   0  0  0  0  0  0  0  0  0  0  0  0
   27.5960   29.7210   44.7360 C   0  0  0  0  0  0  0  0  0  0  0  0
   26.3960   29.4390   45.0410 O   0  0  0  0  0  0  0  0  0  0  0  0
   28.4720   29.5810   45.7280 N   0  0  0  0  0  0  0  0  0  0  0  0
   29.7710   29.8750   45.4350 C   0  0  0  0  0  0  0  0  0  0  0  0
   30.6230   29.7540   46.3400 O   0  0  0  0  0  0  0  0  0  0  0  0
   27.6400   27.8610   49.4620 C   0  0  0  0  0  0  0  0  0  0  0  0
   27.5050   29.2190   49.3300 C   0  0  0  0  0  0  0  0  0  0  0  0
   27.7550   29.8660   48.1490 C   0  0  0  0  0  0  0  0  0  0  0  0
   28.1560   29.1510   47.0480 C   0  0  0  0  0  0  0  0  0  0  0  0
   28.3020   27.7660   47.1560 C   0  0  0  0  0  0  0  0  0  0  0  0
   28.0410   27.1270   48.3700 C   0  0  0  0  0  0  0  0  0  0  0  0
   27.3140   27.0680   50.9670 S   0  0  0  0  0  0  0  0  0  0  0  0
   28.4720   27.0270   51.8900 O   0  0  0  0  0  0  0  0  0  0  0  0
   26.1640   27.8160   51.6420 O   0  0  0  0  0  0  0  0  0  0  0  0
   26.8250   30.2390   42.4550 C   0  0  0  0  0  0  0  0  0  0  0  0
   26.4200   28.8990   42.0840 N   0  0  0  0  0  0  0  0  0  0  0  0
   34.5547   29.5145   44.7942 H   0  0  0  0  0  0  0  0  0  0  0  0
   35.2242   31.4141   43.2395 H   0  0  0  0  0  0  0  0  0  0  0  0
   33.3589   32.7706   42.1538 H   0  0  0  0  0  0  0  0  0  0  0  0
   29.5362   30.7480   42.2419 H   0  0  0  0  0  0  0  0  0  0  0  0
   27.1852   29.8086   50.2018 H   0  0  0  0  0  0  0  0  0  0  0  0
   27.6346   30.9574   48.0829 H   0  0  0  0  0  0  0  0  0  0  0  0
   28.6230   27.1779   46.2836 H   0  0  0  0  0  0  0  0  0  0  0  0
   28.1561   26.0362   48.4530 H   0  0  0  0  0  0  0  0  0  0  0  0
   27.0048   25.7626   50.6892 H   0  0  0  0  0  0  0  0  0  0  0  0
   25.9669   30.7858   42.8730 H   0  0  0  0  0  0  0  0  0  0  0  0
   27.1916   30.7848   41.5731 H   0  0  0  0  0  0  0  0  0  0  0  0
   26.2520   28.3432   42.9347 H   0  0  0  0  0  0  0  0  0  0  0  0
   25.5549   28.9437   41.5267 H   0  0  0  0  0  0  0  0  0  0  0  0
  1  6  2  0
  2  1  1  0
  3  4  1  0
  3  2  2  0
  4  5  2  0
  5  7  1  0
  5  6  1  0
  7 13  1  0
  8  9  2  0
  8  7  1  0
  9 10  1  0
 10 11  2  0
 10 12  1  0
 12 18  1  0
 13 12  1  0
 13 14  2  0
 15 21  1  0
 16 15  2  0
 17 16  1  0
 18 19  1  0
 18 17  2  0
 19 20  2  0
 20 15  1  0
 21 23  2  0
 21 22  2  0
 24  9  1  0
 25 24  1  0
  1 26  1  0
  2 27  1  0
  3 28  1  0
  8 29  1  0
 16 30  1  0
 17 31  1  0
 19 32  1  0
 20 33  1  0
 21 34  1  0
 24 35  1  0
 24 36  1  0
 25 37  1  0
 25 38  1  0
M  ISO  8  26  14  27  14  28  14  29  14  30  14  31  14  32  14  33  14
M  ISO  5  34  11  35   8  36   8  37   5  38   5
M  END
>  <minimizedAffinity>  (1) 
-4.30598783

>  <minimizedRMSD>  (1) 
0.0267516579

$$$$
