
     RDKit          3D

 31 33  0  0  0  0  0  0  0  0999 V2000
   36.7510   31.3360   49.8080 C   0  0  0  0  0  0  0  0  0  0  0  0
   37.8210   32.1780   49.1590 C   0  0  0  0  0  0  0  0  0  0  0  0
   38.3080   33.3110   49.7680 C   0  0  0  0  0  0  0  0  0  0  0  0
   39.2720   34.0900   49.1730 C   0  0  0  0  0  0  0  0  0  0  0  0
   39.7250   33.6920   47.9540 N   0  0  0  0  0  0  0  0  0  0  0  0
   39.2660   32.5950   47.3460 C   0  0  0  0  0  0  0  0  0  0  0  0
   38.3180   31.8430   47.9500 N   0  0  0  0  0  0  0  0  0  0  0  0
   39.7240   32.1300   46.0400 C   0  0  0  0  0  0  0  0  0  0  0  0
   40.2900   30.9810   45.4960 C   0  0  0  0  0  0  0  0  0  0  0  0
   40.4630   31.2620   44.1520 C   0  0  0  0  0  0  0  0  0  0  0  0
   40.0250   32.5100   43.9010 N   0  0  0  0  0  0  0  0  0  0  0  0
   39.5780   33.0410   45.0350 N   0  0  0  0  0  0  0  0  0  0  0  0
   36.8930   29.9680   49.2070 C   0  0  0  0  0  0  0  0  0  0  0  0
   34.9830   28.4280   49.4230 C   0  0  0  0  0  0  0  0  0  0  0  0
   35.6480   29.4520   48.7410 C   0  0  0  0  0  0  0  0  0  0  0  0
   35.0430   29.9440   47.6070 C   0  0  0  0  0  0  0  0  0  0  0  0
   33.8440   29.4400   47.1830 N   0  0  0  0  0  0  0  0  0  0  0  0
   33.2300   28.4560   47.8620 C   0  0  0  0  0  0  0  0  0  0  0  0
   33.8080   27.9760   48.9570 N   0  0  0  0  0  0  0  0  0  0  0  0
   36.9028   31.2946   50.8967 H   0  0  0  0  0  0  0  0  0  0  0  0
   35.7471   31.7525   49.6385 H   0  0  0  0  0  0  0  0  0  0  0  0
   37.9169   33.6007   50.7545 H   0  0  0  0  0  0  0  0  0  0  0  0
   39.6601   34.9959   49.6617 H   0  0  0  0  0  0  0  0  0  0  0  0
   40.5452   30.0490   46.0217 H   0  0  0  0  0  0  0  0  0  0  0  0
   40.8905   30.5747   43.4071 H   0  0  0  0  0  0  0  0  0  0  0  0
   40.0346   32.9762   42.9826 H   0  0  0  0  0  0  0  0  0  0  0  0
   37.5924   30.0242   48.3599 H   0  0  0  0  0  0  0  0  0  0  0  0
   37.2663   29.2922   49.9906 H   0  0  0  0  0  0  0  0  0  0  0  0
   35.4199   27.9958   50.3353 H   0  0  0  0  0  0  0  0  0  0  0  0
   35.5279   30.7498   47.0364 H   0  0  0  0  0  0  0  0  0  0  0  0
   32.2655   28.0552   47.5167 H   0  0  0  0  0  0  0  0  0  0  0  0
  2  3  2  0
  2  1  1  0
  4  3  1  0
  5  4  2  0
  6  7  2  0
  6  5  1  0
  7  2  1  0
  8  6  1  0
  9  8  1  0
 10  9  2  0
 11 10  1  0
 11 12  1  0
 12  8  2  0
 13  1  1  0
 15 13  1  0
 15 14  2  0
 16 15  1  0
 17 16  2  0
 17 18  1  0
 18 19  2  0
 19 14  1  0
  1 20  1  0
  1 21  1  0
  3 22  1  0
  4 23  1  0
  9 24  1  0
 10 25  1  0
 11 26  1  0
 13 27  1  0
 13 28  1  0
 14 29  1  0
 16 30  1  0
 18 31  1  0
M  ISO  8  20   8  21   8  22  14  23  14  24  14  25  14  26   9  27   8
M  ISO  4  28   8  29  14  30  14  31  14
M  END
>  <minimizedAffinity>  (1) 
-5.72563696

>  <minimizedRMSD>  (1) 
3.29546952

$$$$
