
     RDKit          3D

 35 37  0  0  0  0  0  0  0  0999 V2000
   39.3980   30.9580   45.1010 C   0  0  0  0  0  0  0  0  0  0  0  0
   40.0090   32.1820   45.2380 C   0  0  0  0  0  0  0  0  0  0  0  0
   39.8740   32.9400   46.3800 C   0  0  0  0  0  0  0  0  0  0  0  0
   39.1090   32.4270   47.3740 N   0  0  0  0  0  0  0  0  0  0  0  0
   38.5060   31.2400   47.2600 C   0  0  0  0  0  0  0  0  0  0  0  0
   38.6500   30.5110   46.1330 N   0  0  0  0  0  0  0  0  0  0  0  0
   37.7080   30.7360   48.3330 N   0  0  0  0  0  0  0  0  0  0  0  0
   38.2340   30.6780   49.5830 C   0  0  0  0  0  0  0  0  0  0  0  0
   37.3700   30.1730   50.5440 C   0  0  0  0  0  0  0  0  0  0  0  0
   36.0760   29.7460   50.3340 C   0  0  0  0  0  0  0  0  0  0  0  0
   35.3230   29.2530   51.4340 N   0  0  0  0  0  0  0  0  0  0  0  0
   35.6640   29.8510   49.0570 N   0  0  0  0  0  0  0  0  0  0  0  0
   36.4490   30.3280   48.0890 C   0  0  0  0  0  0  0  0  0  0  0  0
   36.0220   30.4090   46.9070 O   0  0  0  0  0  0  0  0  0  0  0  0
   39.5720   30.1370   43.8510 C   0  0  0  0  0  0  0  0  0  0  0  0
   40.6600   30.8100   43.0630 C   0  0  0  0  0  0  0  0  0  0  0  0
   40.7670   30.5810   40.6190 C   0  0  0  0  0  0  0  0  0  0  0  0
   40.2170   31.1810   41.7580 C   0  0  0  0  0  0  0  0  0  0  0  0
   39.2400   32.1250   41.5590 C   0  0  0  0  0  0  0  0  0  0  0  0
   38.8340   32.4520   40.2970 N   0  0  0  0  0  0  0  0  0  0  0  0
   39.3800   31.8590   39.2200 C   0  0  0  0  0  0  0  0  0  0  0  0
   40.3270   30.9440   39.3990 N   0  0  0  0  0  0  0  0  0  0  0  0
   40.6238   32.5673   44.4112 H   0  0  0  0  0  0  0  0  0  0  0  0
   40.3656   33.9189   46.4808 H   0  0  0  0  0  0  0  0  0  0  0  0
   39.2588   31.0039   49.8145 H   0  0  0  0  0  0  0  0  0  0  0  0
   37.7544   30.1069   51.5725 H   0  0  0  0  0  0  0  0  0  0  0  0
   34.3551   28.9305   51.2923 H   0  0  0  0  0  0  0  0  0  0  0  0
   35.7452   29.2182   52.3728 H   0  0  0  0  0  0  0  0  0  0  0  0
   39.8656   29.1083   44.1069 H   0  0  0  0  0  0  0  0  0  0  0  0
   38.6365   30.0750   43.2756 H   0  0  0  0  0  0  0  0  0  0  0  0
   40.9816   31.7143   43.6004 H   0  0  0  0  0  0  0  0  0  0  0  0
   41.4920   30.0990   42.9525 H   0  0  0  0  0  0  0  0  0  0  0  0
   41.5532   29.8183   40.7198 H   0  0  0  0  0  0  0  0  0  0  0  0
   38.7797   32.6229   42.4251 H   0  0  0  0  0  0  0  0  0  0  0  0
   39.0476   32.1275   38.2064 H   0  0  0  0  0  0  0  0  0  0  0  0
  1  2  2  0
  1  6  1  0
  2  3  1  0
  3  4  2  0
  5  4  1  0
  5  7  1  0
  6  5  2  0
  7  8  1  0
  8  9  2  0
 10  9  1  0
 10 11  1  0
 12 10  2  0
 13  7  1  0
 13 12  1  0
 14 13  2  0
 15  1  1  0
 16 15  1  0
 17 18  2  0
 18 16  1  0
 19 18  1  0
 20 19  2  0
 21 22  2  0
 21 20  1  0
 22 17  1  0
  2 23  1  0
  3 24  1  0
  8 25  1  0
  9 26  1  0
 11 27  1  0
 11 28  1  0
 15 29  1  0
 15 30  1  0
 16 31  1  0
 16 32  1  0
 17 33  1  0
 19 34  1  0
 21 35  1  0
M  ISO  8  23  14  24  14  25  14  26  14  29   8  30   8  31   8  32   8
M  ISO  3  33  14  34  14  35  14
M  END
>  <minimizedAffinity>  (1) 
-5.59237146

>  <minimizedRMSD>  (1) 
8.27648449

$$$$
