
     RDKit          3D

 27 28  0  0  0  0  0  0  0  0999 V2000
   38.2180   32.4500   49.1770 C   0  0  0  0  0  0  0  0  0  0  0  0
   38.6920   32.1120   47.7840 C   0  0  0  0  0  0  0  0  0  0  0  0
   38.5880   30.8490   47.2920 C   0  0  0  0  0  0  0  0  0  0  0  0
   39.0270   30.5150   46.0210 C   0  0  0  0  0  0  0  0  0  0  0  0
   39.5690   31.5090   45.2780 N   0  0  0  0  0  0  0  0  0  0  0  0
   39.6790   32.7570   45.7430 C   0  0  0  0  0  0  0  0  0  0  0  0
   39.2420   33.0490   46.9870 N   0  0  0  0  0  0  0  0  0  0  0  0
   40.2910   33.7940   44.8540 C   0  0  0  0  0  0  0  0  0  0  0  0
   38.2460   31.1450   49.9320 C   0  0  0  0  0  0  0  0  0  0  0  0
   36.7090   29.5990   51.0580 C   0  0  0  0  0  0  0  0  0  0  0  0
   36.9350   30.6200   50.1310 C   0  0  0  0  0  0  0  0  0  0  0  0
   35.8480   31.0960   49.4380 C   0  0  0  0  0  0  0  0  0  0  0  0
   34.6020   30.5800   49.6620 N   0  0  0  0  0  0  0  0  0  0  0  0
   34.4120   29.5950   50.5630 C   0  0  0  0  0  0  0  0  0  0  0  0
   35.4650   29.1160   51.2490 N   0  0  0  0  0  0  0  0  0  0  0  0
   37.1966   32.8573   49.1486 H   0  0  0  0  0  0  0  0  0  0  0  0
   38.8510   33.2136   49.6526 H   0  0  0  0  0  0  0  0  0  0  0  0
   38.1409   30.0670   47.9233 H   0  0  0  0  0  0  0  0  0  0  0  0
   38.9393   29.4894   45.6332 H   0  0  0  0  0  0  0  0  0  0  0  0
   40.7540   34.5785   45.4706 H   0  0  0  0  0  0  0  0  0  0  0  0
   41.0579   33.3263   44.2190 H   0  0  0  0  0  0  0  0  0  0  0  0
   39.5109   34.2393   44.2190 H   0  0  0  0  0  0  0  0  0  0  0  0
   38.8387   30.4156   49.3604 H   0  0  0  0  0  0  0  0  0  0  0  0
   38.6934   31.3309   50.9196 H   0  0  0  0  0  0  0  0  0  0  0  0
   37.5504   29.1874   51.6347 H   0  0  0  0  0  0  0  0  0  0  0  0
   35.9815   31.8983   48.6974 H   0  0  0  0  0  0  0  0  0  0  0  0
   33.4051   29.1870   50.7354 H   0  0  0  0  0  0  0  0  0  0  0  0
  1  9  1  0
  2  1  1  0
  3  2  2  0
  4  3  1  0
  5  6  1  0
  5  4  2  0
  6  7  2  0
  7  2  1  0
  8  6  1  0
  9 11  1  0
 10 15  2  0
 11 10  1  0
 12 13  1  0
 12 11  2  0
 13 14  2  0
 14 15  1  0
  1 16  1  0
  1 17  1  0
  3 18  1  0
  4 19  1  0
  8 20  1  0
  8 21  1  0
  8 22  1  0
  9 23  1  0
  9 24  1  0
 10 25  1  0
 12 26  1  0
 14 27  1  0
M  ISO  8  16   8  17   8  18  14  19  14  20   8  21   8  22   8  23   8
M  ISO  4  24   8  25  14  26  14  27  14
M  END
>  <minimizedAffinity>  (1) 
-5.0698247

>  <minimizedRMSD>  (1) 
0.713107824

$$$$
