
     RDKit          3D

 37 39  0  0  0  0  0  0  0  0999 V2000
   37.5600   32.0050   47.9160 C   0  0  0  0  0  0  0  0  0  0  0  0
   37.1990   31.0730   49.0450 C   0  0  0  0  0  0  0  0  0  0  0  0
   37.8390   31.1180   50.2490 C   0  0  0  0  0  0  0  0  0  0  0  0
   37.4990   30.2450   51.2610 C   0  0  0  0  0  0  0  0  0  0  0  0
   36.5080   29.3460   51.0120 N   0  0  0  0  0  0  0  0  0  0  0  0
   35.8840   29.3000   49.8420 C   0  0  0  0  0  0  0  0  0  0  0  0
   36.2120   30.1450   48.8600 N   0  0  0  0  0  0  0  0  0  0  0  0
   34.8040   28.3100   49.5960 C   0  0  0  0  0  0  0  0  0  0  0  0
   34.1560   28.5600   48.2250 C   0  0  0  0  0  0  0  0  0  0  0  0
   39.0340   31.8430   47.7250 C   0  0  0  0  0  0  0  0  0  0  0  0
   40.3470   32.2010   45.6920 C   0  0  0  0  0  0  0  0  0  0  0  0
   39.3940   31.4830   46.4010 C   0  0  0  0  0  0  0  0  0  0  0  0
   38.8320   30.4080   45.7800 C   0  0  0  0  0  0  0  0  0  0  0  0
   39.1930   30.0500   44.5040 N   0  0  0  0  0  0  0  0  0  0  0  0
   40.1190   30.7640   43.8390 C   0  0  0  0  0  0  0  0  0  0  0  0
   40.6710   31.8120   44.4330 N   0  0  0  0  0  0  0  0  0  0  0  0
   40.5710   30.4690   42.4850 C   0  0  0  0  0  0  0  0  0  0  0  0
   40.4200   30.9830   41.2180 C   0  0  0  0  0  0  0  0  0  0  0  0
   41.1700   30.1490   40.3900 C   0  0  0  0  0  0  0  0  0  0  0  0
   41.7290   29.1810   41.1900 C   0  0  0  0  0  0  0  0  0  0  0  0
   41.3470   29.4110   42.4210 O   0  0  0  0  0  0  0  0  0  0  0  0
   37.0200   31.7264   46.9991 H   0  0  0  0  0  0  0  0  0  0  0  0
   37.2883   33.0467   48.1420 H   0  0  0  0  0  0  0  0  0  0  0  0
   38.6351   31.8589   50.4144 H   0  0  0  0  0  0  0  0  0  0  0  0
   38.0104   30.2742   52.2345 H   0  0  0  0  0  0  0  0  0  0  0  0
   35.2293   27.2958   49.6172 H   0  0  0  0  0  0  0  0  0  0  0  0
   34.0381   28.4129   50.3788 H   0  0  0  0  0  0  0  0  0  0  0  0
   33.1383   28.9526   48.3666 H   0  0  0  0  0  0  0  0  0  0  0  0
   34.7563   29.2911   47.6636 H   0  0  0  0  0  0  0  0  0  0  0  0
   34.1097   27.6152   47.6636 H   0  0  0  0  0  0  0  0  0  0  0  0
   39.5246   32.7958   47.9730 H   0  0  0  0  0  0  0  0  0  0  0  0
   39.3589   31.0244   48.3840 H   0  0  0  0  0  0  0  0  0  0  0  0
   40.8346   33.0763   46.1460 H   0  0  0  0  0  0  0  0  0  0  0  0
   38.0735   29.8147   46.3116 H   0  0  0  0  0  0  0  0  0  0  0  0
   39.8326   31.8644   40.9213 H   0  0  0  0  0  0  0  0  0  0  0  0
   41.2916   30.2471   39.3012 H   0  0  0  0  0  0  0  0  0  0  0  0
   42.3806   28.3602   40.8558 H   0  0  0  0  0  0  0  0  0  0  0  0
  1  2  1  0
  2  3  2  0
  3  4  1  0
  5  4  2  0
  6  5  1  0
  7  2  1  0
  7  6  2  0
  8  6  1  0
  9  8  1  0
 10  1  1  0
 11 12  2  0
 12 10  1  0
 13 12  1  0
 14 13  2  0
 15 16  2  0
 15 14  1  0
 16 11  1  0
 17 15  1  0
 18 17  2  0
 19 20  2  0
 19 18  1  0
 20 21  1  0
 21 17  1  0
  1 22  1  0
  1 23  1  0
  3 24  1  0
  4 25  1  0
  8 26  1  0
  8 27  1  0
  9 28  1  0
  9 29  1  0
  9 30  1  0
 10 31  1  0
 10 32  1  0
 11 33  1  0
 13 34  1  0
 18 35  1  0
 19 36  1  0
 20 37  1  0
M  ISO  8  22   8  23   8  24  14  25  14  26   8  27   8  28   8  29   8
M  ISO  8  30   8  31   8  32   8  33  14  34  14  35  14  36  14  37  14
M  END
>  <minimizedAffinity>  (1) 
-5.84983158

>  <minimizedRMSD>  (1) 
8.4793272

$$$$
