
     RDKit          3D

 37 38  0  0  0  0  0  0  0  0999 V2000
   38.2550   31.1280   49.9990 C   0  0  0  0  0  0  0  0  0  0  0  0
   36.8170   29.1550   50.1000 C   0  0  0  0  0  0  0  0  0  0  0  0
   36.9790   30.5230   49.9060 C   0  0  0  0  0  0  0  0  0  0  0  0
   35.8590   31.2520   49.6410 C   0  0  0  0  0  0  0  0  0  0  0  0
   34.6210   30.6630   49.5680 N   0  0  0  0  0  0  0  0  0  0  0  0
   34.4910   29.3390   49.7590 C   0  0  0  0  0  0  0  0  0  0  0  0
   35.5710   28.6190   50.0170 N   0  0  0  0  0  0  0  0  0  0  0  0
   33.2090   28.7080   49.6870 N   0  0  0  0  0  0  0  0  0  0  0  0
   32.6440   28.1770   48.5190 C   0  0  0  0  0  0  0  0  0  0  0  0
   33.2170   28.4620   47.3980 N   0  0  0  0  0  0  0  0  0  0  0  0
   31.4760   27.3550   48.6060 N   0  0  0  0  0  0  0  0  0  0  0  0
   32.8090   28.0740   46.5150 H   0  0  0  0  0  0  0  0  0  0  0  0
   38.3530   32.4160   49.2430 C   0  0  0  0  0  0  0  0  0  0  0  0
   38.7190   32.0350   47.8390 C   0  0  0  0  0  0  0  0  0  0  0  0
   38.5250   30.7690   47.3690 C   0  0  0  0  0  0  0  0  0  0  0  0
   38.8820   30.4410   46.0760 C   0  0  0  0  0  0  0  0  0  0  0  0
   39.4240   31.4000   45.2990 N   0  0  0  0  0  0  0  0  0  0  0  0
   39.6160   32.6430   45.7560 C   0  0  0  0  0  0  0  0  0  0  0  0
   39.2720   32.9710   47.0100 N   0  0  0  0  0  0  0  0  0  0  0  0
   40.2140   33.6990   44.8920 C   0  0  0  0  0  0  0  0  0  0  0  0
   39.7980   33.4760   43.4320 C   0  0  0  0  0  0  0  0  0  0  0  0
   38.4710   31.3274   51.0590 H   0  0  0  0  0  0  0  0  0  0  0  0
   38.9805   30.4314   49.5536 H   0  0  0  0  0  0  0  0  0  0  0  0
   37.6855   28.5160   50.3176 H   0  0  0  0  0  0  0  0  0  0  0  0
   35.9486   32.3367   49.4820 H   0  0  0  0  0  0  0  0  0  0  0  0
   32.6613   28.6388   50.5566 H   0  0  0  0  0  0  0  0  0  0  0  0
   31.0574   26.9627   47.7505 H   0  0  0  0  0  0  0  0  0  0  0  0
   31.0538   27.1556   49.5241 H   0  0  0  0  0  0  0  0  0  0  0  0
   37.3882   32.9441   49.2581 H   0  0  0  0  0  0  0  0  0  0  0  0
   39.0978   33.0924   49.6877 H   0  0  0  0  0  0  0  0  0  0  0  0
   38.0814   30.0048   48.0241 H   0  0  0  0  0  0  0  0  0  0  0  0
   38.7280   29.4226   45.6897 H   0  0  0  0  0  0  0  0  0  0  0  0
   39.8611   34.6861   45.2252 H   0  0  0  0  0  0  0  0  0  0  0  0
   41.3104   33.6513   44.9677 H   0  0  0  0  0  0  0  0  0  0  0  0
   38.8289   32.9565   43.4021 H   0  0  0  0  0  0  0  0  0  0  0  0
   39.7091   34.4474   42.9236 H   0  0  0  0  0  0  0  0  0  0  0  0
   40.5578   32.8642   42.9236 H   0  0  0  0  0  0  0  0  0  0  0  0
  3  1  1  0
  3  2  2  0
  4  3  1  0
  5  4  2  0
  5  6  1  0
  6  7  2  0
  7  2  1  0
  8  6  1  0
  9 11  1  0
  9  8  1  0
 10  9  2  0
 12 10  1  0
 13  1  1  0
 14 13  1  0
 15 14  2  0
 16 15  1  0
 17 18  1  0
 17 16  2  0
 18 19  2  0
 19 14  1  0
 20 18  1  0
 21 20  1  0
  1 22  1  0
  1 23  1  0
  2 24  1  0
  4 25  1  0
  8 26  1  0
 11 27  1  0
 11 28  1  0
 13 29  1  0
 13 30  1  0
 15 31  1  0
 16 32  1  0
 20 33  1  0
 20 34  1  0
 21 35  1  0
 21 36  1  0
 21 37  1  0
M  ISO  8  22   8  23   8  24  14  25  14  29   8  30   8  31  14  32  14
M  ISO  5  33   8  34   8  35   8  36   8  37   8
M  END
>  <minimizedAffinity>  (1) 
-5.84450436

>  <minimizedRMSD>  (1) 
0.855089068

$$$$
