
     RDKit          3D

 43 46  0  0  0  0  0  0  0  0999 V2000
   37.1820   30.7840   50.2740 C   0  0  0  0  0  0  0  0  0  0  0  0
   35.9410   28.7000   49.9090 C   0  0  0  0  0  0  0  0  0  0  0  0
   36.0260   30.0930   49.8330 C   0  0  0  0  0  0  0  0  0  0  0  0
   34.9440   30.7540   49.3320 C   0  0  0  0  0  0  0  0  0  0  0  0
   33.8240   30.0730   48.9240 N   0  0  0  0  0  0  0  0  0  0  0  0
   33.7690   28.7370   49.0080 C   0  0  0  0  0  0  0  0  0  0  0  0
   34.8170   28.0800   49.4940 N   0  0  0  0  0  0  0  0  0  0  0  0
   32.6460   27.9590   48.6070 N   0  0  0  0  0  0  0  0  0  0  0  0
   31.4440   27.7260   49.2080 C   0  0  0  0  0  0  0  0  0  0  0  0
   30.7040   26.9130   48.4290 N   0  0  0  0  0  0  0  0  0  0  0  0
   31.3960   26.6130   47.3380 C   0  0  0  0  0  0  0  0  0  0  0  0
   31.0620   25.8250   46.2660 C   0  0  0  0  0  0  0  0  0  0  0  0
   31.9700   25.6890   45.2760 N   0  0  0  0  0  0  0  0  0  0  0  0
   33.1630   26.3150   45.3590 C   0  0  0  0  0  0  0  0  0  0  0  0
   33.4730   27.0840   46.4190 N   0  0  0  0  0  0  0  0  0  0  0  0
   32.6160   27.2620   47.4370 C   0  0  0  0  0  0  0  0  0  0  0  0
   29.8280   25.1400   46.1170 N   0  0  0  0  0  0  0  0  0  0  0  0
   37.3630   32.1100   49.6120 C   0  0  0  0  0  0  0  0  0  0  0  0
   38.0730   31.8220   48.3180 C   0  0  0  0  0  0  0  0  0  0  0  0
   37.9760   30.6120   47.6930 C   0  0  0  0  0  0  0  0  0  0  0  0
   38.6560   30.3830   46.5200 C   0  0  0  0  0  0  0  0  0  0  0  0
   39.4160   31.3790   46.0070 N   0  0  0  0  0  0  0  0  0  0  0  0
   39.5140   32.5550   46.6090 C   0  0  0  0  0  0  0  0  0  0  0  0
   38.8580   32.7890   47.7500 N   0  0  0  0  0  0  0  0  0  0  0  0
   40.3520   33.6500   46.0410 C   0  0  0  0  0  0  0  0  0  0  0  0
   40.1000   33.7640   44.5290 C   0  0  0  0  0  0  0  0  0  0  0  0
   37.1013   30.9433   51.3594 H   0  0  0  0  0  0  0  0  0  0  0  0
   38.0528   30.1656   50.0107 H   0  0  0  0  0  0  0  0  0  0  0  0
   36.7839   28.1139   50.3040 H   0  0  0  0  0  0  0  0  0  0  0  0
   34.9688   31.8509   49.2534 H   0  0  0  0  0  0  0  0  0  0  0  0
   31.1279   28.1378   50.1778 H   0  0  0  0  0  0  0  0  0  0  0  0
   33.8944   26.1945   44.5462 H   0  0  0  0  0  0  0  0  0  0  0  0
   29.6551   24.5667   45.2789 H   0  0  0  0  0  0  0  0  0  0  0  0
   29.1053   25.2161   46.8469 H   0  0  0  0  0  0  0  0  0  0  0  0
   36.3870   32.5790   49.4184 H   0  0  0  0  0  0  0  0  0  0  0  0
   37.9344   32.8059   50.2438 H   0  0  0  0  0  0  0  0  0  0  0  0
   37.3520   29.8180   48.1291 H   0  0  0  0  0  0  0  0  0  0  0  0
   38.5840   29.4113   46.0094 H   0  0  0  0  0  0  0  0  0  0  0  0
   40.0903   34.6009   46.5280 H   0  0  0  0  0  0  0  0  0  0  0  0
   41.4142   33.4248   46.2174 H   0  0  0  0  0  0  0  0  0  0  0  0
   39.1104   34.2117   44.3549 H   0  0  0  0  0  0  0  0  0  0  0  0
   40.8748   34.3993   44.0750 H   0  0  0  0  0  0  0  0  0  0  0  0
   40.1344   32.7626   44.0750 H   0  0  0  0  0  0  0  0  0  0  0  0
  3  2  2  0
  3  1  1  0
  4  3  1  0
  5  6  1  0
  5  4  2  0
  6  7  2  0
  7  2  1  0
  8  6  1  0
  8  9  1  0
 10  9  2  0
 11 16  2  0
 11 10  1  0
 12 11  1  0
 13 14  1  0
 13 12  2  0
 14 15  2  0
 15 16  1  0
 16  8  1  0
 17 12  1  0
 18  1  1  0
 19 18  1  0
 20 19  2  0
 21 20  1  0
 22 21  2  0
 22 23  1  0
 23 24  2  0
 24 19  1  0
 25 23  1  0
 26 25  1  0
  1 27  1  0
  1 28  1  0
  2 29  1  0
  4 30  1  0
  9 31  1  0
 14 32  1  0
 17 33  1  0
 17 34  1  0
 18 35  1  0
 18 36  1  0
 20 37  1  0
 21 38  1  0
 25 39  1  0
 25 40  1  0
 26 41  1  0
 26 42  1  0
 26 43  1  0
M  ISO  8  27   8  28   8  29  14  30  14  31  14  32  14  35   8  36   8
M  ISO  7  37  14  38  14  39   8  40   8  41   8  42   8  43   8
M  END
>  <minimizedAffinity>  (1) 
-5.76224089

>  <minimizedRMSD>  (1) 
2.44025469

$$$$
