
     RDKit          3D

 37 39  0  0  0  0  0  0  0  0999 V2000
   37.6540   32.2120   49.4960 C   0  0  0  0  0  0  0  0  0  0  0  0
   38.2750   31.8970   48.1630 C   0  0  0  0  0  0  0  0  0  0  0  0
   38.1170   30.6820   47.5630 C   0  0  0  0  0  0  0  0  0  0  0  0
   38.7160   30.4090   46.3520 C   0  0  0  0  0  0  0  0  0  0  0  0
   39.4640   31.3880   45.7800 N   0  0  0  0  0  0  0  0  0  0  0  0
   39.6230   32.5720   46.3570 C   0  0  0  0  0  0  0  0  0  0  0  0
   39.0410   32.8350   47.5310 N   0  0  0  0  0  0  0  0  0  0  0  0
   40.4420   33.6340   45.7190 C   0  0  0  0  0  0  0  0  0  0  0  0
   40.0860   33.7480   44.2280 C   0  0  0  0  0  0  0  0  0  0  0  0
   37.5290   30.8990   50.1990 C   0  0  0  0  0  0  0  0  0  0  0  0
   36.2930   28.8160   49.8310 C   0  0  0  0  0  0  0  0  0  0  0  0
   36.3330   30.2090   49.8830 C   0  0  0  0  0  0  0  0  0  0  0  0
   35.1690   30.8700   49.6320 C   0  0  0  0  0  0  0  0  0  0  0  0
   34.0120   30.1920   49.3410 N   0  0  0  0  0  0  0  0  0  0  0  0
   34.0050   28.8480   49.2990 C   0  0  0  0  0  0  0  0  0  0  0  0
   35.1390   28.1870   49.5420 N   0  0  0  0  0  0  0  0  0  0  0  0
   32.7710   28.1160   48.9890 C   0  0  0  0  0  0  0  0  0  0  0  0
   32.6620   27.0720   48.1080 C   0  0  0  0  0  0  0  0  0  0  0  0
   31.3830   26.6460   48.0770 N   0  0  0  0  0  0  0  0  0  0  0  0
   30.6960   27.4100   48.9250 C   0  0  0  0  0  0  0  0  0  0  0  0
   31.5520   28.3050   49.4770 N   0  0  0  0  0  0  0  0  0  0  0  0
   36.6636   32.6709   49.3598 H   0  0  0  0  0  0  0  0  0  0  0  0
   38.2620   32.9262   50.0707 H   0  0  0  0  0  0  0  0  0  0  0  0
   37.5039   29.9105   48.0518 H   0  0  0  0  0  0  0  0  0  0  0  0
   38.5924   29.4306   45.8648 H   0  0  0  0  0  0  0  0  0  0  0  0
   40.2430   34.5952   46.2155 H   0  0  0  0  0  0  0  0  0  0  0  0
   41.5070   33.3767   45.8173 H   0  0  0  0  0  0  0  0  0  0  0  0
   39.0430   34.0820   44.1245 H   0  0  0  0  0  0  0  0  0  0  0  0
   40.7540   34.4772   43.7462 H   0  0  0  0  0  0  0  0  0  0  0  0
   40.2062   32.7664   43.7462 H   0  0  0  0  0  0  0  0  0  0  0  0
   38.3830   30.2670   49.9140 H   0  0  0  0  0  0  0  0  0  0  0  0
   37.5112   31.1067   51.2791 H   0  0  0  0  0  0  0  0  0  0  0  0
   37.2043   28.2317   50.0261 H   0  0  0  0  0  0  0  0  0  0  0  0
   35.1561   31.9695   49.6632 H   0  0  0  0  0  0  0  0  0  0  0  0
   33.4883   26.6480   47.5185 H   0  0  0  0  0  0  0  0  0  0  0  0
   29.6203   27.3288   49.1402 H   0  0  0  0  0  0  0  0  0  0  0  0
   31.2949   29.0225   50.1698 H   0  0  0  0  0  0  0  0  0  0  0  0
  1 10  1  0
  2  1  1  0
  3  2  2  0
  4  3  1  0
  5  4  2  0
  5  6  1  0
  6  7  2  0
  7  2  1  0
  8  6  1  0
  9  8  1  0
 11 12  2  0
 12 10  1  0
 13 12  1  0
 14 13  2  0
 15 14  1  0
 15 16  2  0
 16 11  1  0
 17 15  1  0
 17 21  1  0
 18 17  2  0
 19 18  1  0
 19 20  2  0
 20 21  1  0
  1 22  1  0
  1 23  1  0
  3 24  1  0
  4 25  1  0
  8 26  1  0
  8 27  1  0
  9 28  1  0
  9 29  1  0
  9 30  1  0
 10 31  1  0
 10 32  1  0
 11 33  1  0
 13 34  1  0
 18 35  1  0
 20 36  1  0
 21 37  1  0
M  ISO  8  22   8  23   8  24  14  25  14  26   8  27   8  28   8  29   8
M  ISO  8  30   8  31   8  32   8  33  14  34  14  35  14  36  14  37   9
M  END
>  <minimizedAffinity>  (1) 
-5.54519939

>  <minimizedRMSD>  (1) 
1.50410807

$$$$
