
     RDKit          3D

 24 26  0  0  0  0  0  0  0  0999 V2000
   37.3230   29.8410   51.3360 C   0  0  0  0  0  0  0  0  0  0  0  0
   38.0490   30.8260   50.6510 C   0  0  0  0  0  0  0  0  0  0  0  0
   37.8460   30.9710   49.2790 C   0  0  0  0  0  0  0  0  0  0  0  0
   36.9440   30.1400   48.6650 N   0  0  0  0  0  0  0  0  0  0  0  0
   36.2630   29.2040   49.3510 C   0  0  0  0  0  0  0  0  0  0  0  0
   36.4450   29.0470   50.6800 N   0  0  0  0  0  0  0  0  0  0  0  0
   38.5110   31.9260   48.4560 N   0  0  0  0  0  0  0  0  0  0  0  0
   38.8610   33.2080   48.7010 C   0  0  0  0  0  0  0  0  0  0  0  0
   39.4710   33.7010   47.6140 N   0  0  0  0  0  0  0  0  0  0  0  0
   39.5100   32.7520   46.6860 C   0  0  0  0  0  0  0  0  0  0  0  0
   40.0250   32.7380   45.3880 C   0  0  0  0  0  0  0  0  0  0  0  0
   40.5680   33.7730   44.9370 O   0  0  0  0  0  0  0  0  0  0  0  0
   39.9160   31.5920   44.6550 N   0  0  0  0  0  0  0  0  0  0  0  0
   39.3160   30.4940   45.1930 C   0  0  0  0  0  0  0  0  0  0  0  0
   39.2260   29.3090   44.3830 N   0  0  0  0  0  0  0  0  0  0  0  0
   38.8070   30.4660   46.4390 N   0  0  0  0  0  0  0  0  0  0  0  0
   38.9050   31.6020   47.1890 C   0  0  0  0  0  0  0  0  0  0  0  0
   37.4688   29.7123   52.4187 H   0  0  0  0  0  0  0  0  0  0  0  0
   38.7633   31.4704   51.1845 H   0  0  0  0  0  0  0  0  0  0  0  0
   35.5477   28.5573   48.8217 H   0  0  0  0  0  0  0  0  0  0  0  0
   38.6761   33.7558   49.6368 H   0  0  0  0  0  0  0  0  0  0  0  0
   40.2875   31.5574   43.6949 H   0  0  0  0  0  0  0  0  0  0  0  0
   38.7784   28.4609   44.7590 H   0  0  0  0  0  0  0  0  0  0  0  0
   39.6091   29.3084   43.4269 H   0  0  0  0  0  0  0  0  0  0  0  0
  2  1  2  0
  3  2  1  0
  4  3  2  0
  4  5  1  0
  5  6  2  0
  6  1  1  0
  7  8  1  0
  7  3  1  0
  9  8  2  0
 10 17  2  0
 10  9  1  0
 11 10  1  0
 12 11  2  0
 13 14  1  0
 13 11  1  0
 14 16  2  0
 15 14  1  0
 16 17  1  0
 17  7  1  0
  1 18  1  0
  2 19  1  0
  5 20  1  0
  8 21  1  0
 13 22  1  0
 15 23  1  0
 15 24  1  0
M  ISO  5  18  14  19  14  20  14  21  14  22   9
M  END
>  <minimizedAffinity>  (1) 
-6.02782679

>  <minimizedRMSD>  (1) 
1.846982

$$$$
