
     RDKit          3D

 36 38  0  0  0  0  0  0  0  0999 V2000
   37.3050   32.1390   49.5800 C   0  0  0  0  0  0  0  0  0  0  0  0
   38.0350   31.8440   48.2970 C   0  0  0  0  0  0  0  0  0  0  0  0
   37.9300   30.6360   47.6690 C   0  0  0  0  0  0  0  0  0  0  0  0
   38.6180   30.3850   46.5000 C   0  0  0  0  0  0  0  0  0  0  0  0
   39.4020   31.3820   46.0010 N   0  0  0  0  0  0  0  0  0  0  0  0
   39.5050   32.5550   46.6090 C   0  0  0  0  0  0  0  0  0  0  0  0
   38.8370   32.8210   47.7600 N   0  0  0  0  0  0  0  0  0  0  0  0
   40.3530   33.6390   46.0560 C   0  0  0  0  0  0  0  0  0  0  0  0
   40.1120   33.7860   44.5540 C   0  0  0  0  0  0  0  0  0  0  0  0
   37.1990   30.8250   50.2880 C   0  0  0  0  0  0  0  0  0  0  0  0
   36.0970   28.6920   49.8240 C   0  0  0  0  0  0  0  0  0  0  0  0
   36.0510   30.0870   49.9120 C   0  0  0  0  0  0  0  0  0  0  0  0
   34.8630   30.6920   49.6380 C   0  0  0  0  0  0  0  0  0  0  0  0
   33.7560   29.9610   49.2890 N   0  0  0  0  0  0  0  0  0  0  0  0
   33.8200   28.6230   49.2110 C   0  0  0  0  0  0  0  0  0  0  0  0
   34.9720   28.0160   49.4740 N   0  0  0  0  0  0  0  0  0  0  0  0
   32.6770   27.8450   48.8490 N   0  0  0  0  0  0  0  0  0  0  0  0
   32.6870   26.8100   47.9720 C   0  0  0  0  0  0  0  0  0  0  0  0
   31.4350   26.3170   47.8800 N   0  0  0  0  0  0  0  0  0  0  0  0
   30.6550   27.0450   48.6990 C   0  0  0  0  0  0  0  0  0  0  0  0
   31.4400   27.9570   49.2650 N   0  0  0  0  0  0  0  0  0  0  0  0
   36.3044   32.5443   49.3690 H   0  0  0  0  0  0  0  0  0  0  0  0
   37.8321   32.8896   50.1873 H   0  0  0  0  0  0  0  0  0  0  0  0
   37.2888   29.8533   48.1007 H   0  0  0  0  0  0  0  0  0  0  0  0
   38.5368   29.4145   45.9886 H   0  0  0  0  0  0  0  0  0  0  0  0
   40.1048   34.5859   46.5579 H   0  0  0  0  0  0  0  0  0  0  0  0
   41.4105   33.3886   46.2262 H   0  0  0  0  0  0  0  0  0  0  0  0
   39.1840   34.3520   44.3852 H   0  0  0  0  0  0  0  0  0  0  0  0
   40.9569   34.3227   44.0979 H   0  0  0  0  0  0  0  0  0  0  0  0
   40.0216   32.7891   44.0979 H   0  0  0  0  0  0  0  0  0  0  0  0
   38.0924   30.2274   50.0542 H   0  0  0  0  0  0  0  0  0  0  0  0
   37.1175   31.0360   51.3645 H   0  0  0  0  0  0  0  0  0  0  0  0
   37.0307   28.1501   50.0352 H   0  0  0  0  0  0  0  0  0  0  0  0
   34.7892   31.7879   49.6975 H   0  0  0  0  0  0  0  0  0  0  0  0
   33.5671   26.4362   47.4281 H   0  0  0  0  0  0  0  0  0  0  0  0
   29.5763   26.9117   48.8679 H   0  0  0  0  0  0  0  0  0  0  0  0
  1 10  1  0
  2  1  1  0
  3  2  2  0
  4  3  1  0
  5  4  2  0
  5  6  1  0
  6  7  2  0
  7  2  1  0
  8  6  1  0
  9  8  1  0
 11 12  2  0
 12 10  1  0
 13 12  1  0
 14 13  2  0
 15 14  1  0
 15 16  2  0
 16 11  1  0
 17 15  1  0
 17 21  1  0
 18 17  1  0
 19 18  2  0
 19 20  1  0
 20 21  2  0
  1 22  1  0
  1 23  1  0
  3 24  1  0
  4 25  1  0
  8 26  1  0
  8 27  1  0
  9 28  1  0
  9 29  1  0
  9 30  1  0
 10 31  1  0
 10 32  1  0
 11 33  1  0
 13 34  1  0
 18 35  1  0
 20 36  1  0
M  ISO  8  22   8  23   8  24  14  25  14  26   8  27   8  28   8  29   8
M  ISO  7  30   8  31   8  32   8  33  14  34  14  35  14  36  14
M  END
>  <minimizedAffinity>  (1) 
-5.44217253

>  <minimizedRMSD>  (1) 
1.74665833

$$$$
