
     RDKit          3D

 35 37  0  0  0  0  0  0  0  0999 V2000
   37.8230   32.4410   48.1020 C   0  0  0  0  0  0  0  0  0  0  0  0
   37.3410   31.2980   48.9570 C   0  0  0  0  0  0  0  0  0  0  0  0
   37.8270   31.0940   50.2150 C   0  0  0  0  0  0  0  0  0  0  0  0
   37.3860   30.0370   50.9770 C   0  0  0  0  0  0  0  0  0  0  0  0
   36.4530   29.2100   50.4310 N   0  0  0  0  0  0  0  0  0  0  0  0
   35.9790   29.4060   49.2090 C   0  0  0  0  0  0  0  0  0  0  0  0
   36.4060   30.4330   48.4680 N   0  0  0  0  0  0  0  0  0  0  0  0
   34.9540   28.4900   48.6230 C   0  0  0  0  0  0  0  0  0  0  0  0
   33.6540   28.5730   49.4180 C   0  0  0  0  0  0  0  0  0  0  0  0
   39.2050   32.0560   47.6760 C   0  0  0  0  0  0  0  0  0  0  0  0
   40.4750   31.3950   45.6940 C   0  0  0  0  0  0  0  0  0  0  0  0
   39.3420   31.9510   46.2690 C   0  0  0  0  0  0  0  0  0  0  0  0
   38.3550   32.3690   45.4280 C   0  0  0  0  0  0  0  0  0  0  0  0
   38.4770   32.2450   44.0670 N   0  0  0  0  0  0  0  0  0  0  0  0
   39.5880   31.7000   43.5270 C   0  0  0  0  0  0  0  0  0  0  0  0
   40.5420   31.2960   44.3420 N   0  0  0  0  0  0  0  0  0  0  0  0
   39.7480   31.5510   42.0820 C   0  0  0  0  0  0  0  0  0  0  0  0
   40.6000   30.7840   41.3440 N   0  0  0  0  0  0  0  0  0  0  0  0
   40.3650   30.9920   40.0800 O   0  0  0  0  0  0  0  0  0  0  0  0
   39.4050   31.8550   39.9230 C   0  0  0  0  0  0  0  0  0  0  0  0
   39.0090   32.2140   41.1610 N   0  0  0  0  0  0  0  0  0  0  0  0
   37.1707   32.5690   47.2256 H   0  0  0  0  0  0  0  0  0  0  0  0
   37.8118   33.3961   48.6476 H   0  0  0  0  0  0  0  0  0  0  0  0
   38.5804   31.7827   50.6250 H   0  0  0  0  0  0  0  0  0  0  0  0
   37.7738   29.8661   51.9921 H   0  0  0  0  0  0  0  0  0  0  0  0
   34.7609   28.7812   47.5800 H   0  0  0  0  0  0  0  0  0  0  0  0
   35.3322   27.4578   48.6619 H   0  0  0  0  0  0  0  0  0  0  0  0
   33.8808   28.5585   50.4943 H   0  0  0  0  0  0  0  0  0  0  0  0
   33.1293   29.5065   49.1664 H   0  0  0  0  0  0  0  0  0  0  0  0
   33.0148   27.7138   49.1664 H   0  0  0  0  0  0  0  0  0  0  0  0
   39.9093   32.8181   48.0408 H   0  0  0  0  0  0  0  0  0  0  0  0
   39.4162   31.0641   48.1020 H   0  0  0  0  0  0  0  0  0  0  0  0
   41.3050   31.0404   46.3228 H   0  0  0  0  0  0  0  0  0  0  0  0
   37.4417   32.8150   45.8487 H   0  0  0  0  0  0  0  0  0  0  0  0
   38.9967   32.2200   38.9690 H   0  0  0  0  0  0  0  0  0  0  0  0
  1  2  1  0
  2  3  2  0
  3  4  1  0
  5  4  2  0
  6  5  1  0
  7  2  1  0
  7  6  2  0
  8  6  1  0
  8  9  1  0
 10  1  1  0
 11 12  2  0
 12 10  1  0
 13 12  1  0
 14 13  2  0
 15 14  1  0
 15 16  2  0
 16 11  1  0
 17 15  1  0
 18 17  2  0
 19 18  1  0
 20 19  1  0
 20 21  2  0
 21 17  1  0
  1 22  1  0
  1 23  1  0
  3 24  1  0
  4 25  1  0
  8 26  1  0
  8 27  1  0
  9 28  1  0
  9 29  1  0
  9 30  1  0
 10 31  1  0
 10 32  1  0
 11 33  1  0
 13 34  1  0
 20 35  1  0
M  ISO  8  22   8  23   8  24  14  25  14  26   8  27   8  28   8  29   8
M  ISO  6  30   8  31   8  32   8  33  14  34  14  35  14
M  END
>  <minimizedAffinity>  (1) 
-5.38475323

>  <minimizedRMSD>  (1) 
8.36713028

$$$$
