
     RDKit          3D

 31 32  0  0  0  0  0  0  0  0999 V2000
   38.3090   32.4340   49.2510 C   0  0  0  0  0  0  0  0  0  0  0  0
   38.7230   32.0540   47.8590 C   0  0  0  0  0  0  0  0  0  0  0  0
   38.5830   30.7810   47.3880 C   0  0  0  0  0  0  0  0  0  0  0  0
   38.9830   30.4610   46.1080 C   0  0  0  0  0  0  0  0  0  0  0  0
   39.5130   31.4350   45.3420 N   0  0  0  0  0  0  0  0  0  0  0  0
   39.6510   32.6780   45.7980 C   0  0  0  0  0  0  0  0  0  0  0  0
   39.2670   33.0240   47.0510 N   0  0  0  0  0  0  0  0  0  0  0  0
   40.2390   33.7540   44.9410 C   0  0  0  0  0  0  0  0  0  0  0  0
   39.8250   33.5380   43.4780 C   0  0  0  0  0  0  0  0  0  0  0  0
   38.1850   31.1490   50.0010 C   0  0  0  0  0  0  0  0  0  0  0  0
   36.8620   29.0930   49.8090 C   0  0  0  0  0  0  0  0  0  0  0  0
   36.9520   30.4850   49.7870 C   0  0  0  0  0  0  0  0  0  0  0  0
   35.8010   31.1790   49.5610 C   0  0  0  0  0  0  0  0  0  0  0  0
   34.6040   30.5350   49.3650 N   0  0  0  0  0  0  0  0  0  0  0  0
   34.5440   29.1980   49.3910 C   0  0  0  0  0  0  0  0  0  0  0  0
   35.6670   28.5020   49.6120 N   0  0  0  0  0  0  0  0  0  0  0  0
   32.9910   28.3340   49.1370 S   0  0  0  0  0  0  0  0  0  0  0  0
   37.3444   32.9624   49.2334 H   0  0  0  0  0  0  0  0  0  0  0  0
   39.0387   33.1096   49.7213 H   0  0  0  0  0  0  0  0  0  0  0  0
   38.1478   30.0045   48.0343 H   0  0  0  0  0  0  0  0  0  0  0  0
   38.8724   29.4370   45.7219 H   0  0  0  0  0  0  0  0  0  0  0  0
   39.8739   34.7337   45.2830 H   0  0  0  0  0  0  0  0  0  0  0  0
   41.3359   33.7201   45.0169 H   0  0  0  0  0  0  0  0  0  0  0  0
   38.8502   33.0294   43.4440 H   0  0  0  0  0  0  0  0  0  0  0  0
   39.7487   34.5112   42.9710 H   0  0  0  0  0  0  0  0  0  0  0  0
   40.5796   32.9187   42.9710 H   0  0  0  0  0  0  0  0  0  0  0  0
   38.9995   30.4811   49.6839 H   0  0  0  0  0  0  0  0  0  0  0  0
   38.2383   31.3938   51.0721 H   0  0  0  0  0  0  0  0  0  0  0  0
   37.7597   28.4824   49.9858 H   0  0  0  0  0  0  0  0  0  0  0  0
   35.8315   32.2783   49.5350 H   0  0  0  0  0  0  0  0  0  0  0  0
   32.4363   28.0254   50.3510 H   0  0  0  0  0  0  0  0  0  0  0  0
  1 10  1  0
  2  1  1  0
  3  2  2  0
  4  3  1  0
  5  6  1  0
  5  4  2  0
  6  7  2  0
  7  2  1  0
  8  6  1  0
  9  8  1  0
 12 11  2  0
 12 10  1  0
 13 12  1  0
 14 15  1  0
 14 13  2  0
 15 16  2  0
 16 11  1  0
 17 15  1  0
  1 18  1  0
  1 19  1  0
  3 20  1  0
  4 21  1  0
  8 22  1  0
  8 23  1  0
  9 24  1  0
  9 25  1  0
  9 26  1  0
 10 27  1  0
 10 28  1  0
 11 29  1  0
 13 30  1  0
 17 31  1  0
M  ISO  8  18   8  19   8  20  14  21  14  22   8  23   8  24   8  25   8
M  ISO  6  26   8  27   8  28   8  29  14  30  14  31  11
M  END
>  <minimizedAffinity>  (1) 
-4.83577538

>  <minimizedRMSD>  (1) 
0.766612649

$$$$
