
     RDKit          3D

 33 34  0  0  0  0  0  0  0  0999 V2000
   38.1220   32.4120   49.3430 C   0  0  0  0  0  0  0  0  0  0  0  0
   38.5940   32.0410   47.9670 C   0  0  0  0  0  0  0  0  0  0  0  0
   38.4430   30.7790   47.4710 C   0  0  0  0  0  0  0  0  0  0  0  0
   38.8960   30.4500   46.2070 C   0  0  0  0  0  0  0  0  0  0  0  0
   39.4940   31.4350   45.4800 N   0  0  0  0  0  0  0  0  0  0  0  0
   39.6390   32.6610   45.9620 C   0  0  0  0  0  0  0  0  0  0  0  0
   39.2040   32.9930   47.1890 N   0  0  0  0  0  0  0  0  0  0  0  0
   40.2910   33.7240   45.1490 C   0  0  0  0  0  0  0  0  0  0  0  0
   39.8730   33.5990   43.6780 C   0  0  0  0  0  0  0  0  0  0  0  0
   38.0290   31.1240   50.0960 C   0  0  0  0  0  0  0  0  0  0  0  0
   36.7930   29.0230   49.8760 C   0  0  0  0  0  0  0  0  0  0  0  0
   36.8300   30.4150   49.8420 C   0  0  0  0  0  0  0  0  0  0  0  0
   35.6610   31.0610   49.5680 C   0  0  0  0  0  0  0  0  0  0  0  0
   34.4990   30.3690   49.3360 N   0  0  0  0  0  0  0  0  0  0  0  0
   34.4890   29.0280   49.3750 C   0  0  0  0  0  0  0  0  0  0  0  0
   35.6140   28.3920   49.6380 N   0  0  0  0  0  0  0  0  0  0  0  0
   33.2590   28.2710   49.1310 C   0  0  0  0  0  0  0  0  0  0  0  0
   33.2390   27.3070   48.3300 O   0  0  0  0  0  0  0  0  0  0  0  0
   32.0770   28.5880   49.7690 O   0  0  0  0  0  0  0  0  0  0  0  0
   37.1373   32.8996   49.2928 H   0  0  0  0  0  0  0  0  0  0  0  0
   38.8069   33.1208   49.8313 H   0  0  0  0  0  0  0  0  0  0  0  0
   37.9528   30.0107   48.0870 H   0  0  0  0  0  0  0  0  0  0  0  0
   38.7783   29.4332   45.8041 H   0  0  0  0  0  0  0  0  0  0  0  0
   39.9876   34.7102   45.5302 H   0  0  0  0  0  0  0  0  0  0  0  0
   41.3829   33.6122   45.2221 H   0  0  0  0  0  0  0  0  0  0  0  0
   38.8205   33.2843   43.6214 H   0  0  0  0  0  0  0  0  0  0  0  0
   39.9921   34.5721   43.1790 H   0  0  0  0  0  0  0  0  0  0  0  0
   40.5067   32.8511   43.1790 H   0  0  0  0  0  0  0  0  0  0  0  0
   38.8790   30.4882   49.8075 H   0  0  0  0  0  0  0  0  0  0  0  0
   38.0425   31.3702   51.1680 H   0  0  0  0  0  0  0  0  0  0  0  0
   37.7033   28.4445   50.0920 H   0  0  0  0  0  0  0  0  0  0  0  0
   35.6491   32.1604   49.5322 H   0  0  0  0  0  0  0  0  0  0  0  0
   31.2592   28.0607   49.5867 H   0  0  0  0  0  0  0  0  0  0  0  0
  1 10  1  0
  2  1  1  0
  3  2  2  0
  4  3  1  0
  5  6  1  0
  5  4  2  0
  6  7  2  0
  7  2  1  0
  8  6  1  0
  9  8  1  0
 12 11  2  0
 12 10  1  0
 13 12  1  0
 14 15  1  0
 14 13  2  0
 15 16  2  0
 16 11  1  0
 17 15  1  0
 17 19  1  0
 18 17  2  0
  1 20  1  0
  1 21  1  0
  3 22  1  0
  4 23  1  0
  8 24  1  0
  8 25  1  0
  9 26  1  0
  9 27  1  0
  9 28  1  0
 10 29  1  0
 10 30  1  0
 11 31  1  0
 13 32  1  0
 19 33  1  0
M  ISO  8  20   8  21   8  22  14  23  14  24   8  25   8  26   8  27   8
M  ISO  6  28   8  29   8  30   8  31  14  32  14  33   3
M  END
>  <minimizedAffinity>  (1) 
-5.27056694

>  <minimizedRMSD>  (1) 
1.04074931

$$$$
