
     RDKit          3D

 45 47  0  0  1  0  0  0  0  0999 V2000
   37.3430   30.9980   50.2480 C   0  0  0  0  0  0  0  0  0  0  0  0
   36.2840   28.8190   49.8670 C   0  0  0  0  0  0  0  0  0  0  0  0
   36.2210   30.2210   49.9030 C   0  0  0  0  0  0  0  0  0  0  0  0
   35.0210   30.7920   49.5620 C   0  0  0  0  0  0  0  0  0  0  0  0
   33.9560   30.0250   49.2080 N   0  0  0  0  0  0  0  0  0  0  0  0
   34.0450   28.6920   49.1800 C   0  0  0  0  0  0  0  0  0  0  0  0
   35.1810   28.1310   49.5040 N   0  0  0  0  0  0  0  0  0  0  0  0
   32.8960   27.8620   48.7980 C   0  0  0  0  0  0  0  0  0  0  0  0
   33.0180   26.9230   47.9740 O   0  0  0  0  0  0  0  0  0  0  0  0
   31.6380   28.0840   49.3300 O   0  0  0  0  0  0  0  0  0  0  0  0
   29.5890   27.2900   50.0310 N   0  0  0  0  0  0  0  0  0  0  0  0
   28.7850   28.4940   49.9700 C   0  0  0  0  0  0  0  0  0  0  0  0
   28.6350   28.8190   48.4990 C   0  0  0  0  0  0  0  0  0  0  0  0
   29.7170   28.0050   47.8380 C   0  0  0  0  0  0  0  0  0  0  0  0
   30.5260   27.3420   48.9230 C   0  0  1  0  0  0  0  0  0  0  0  0
   37.4390   32.2450   49.4620 C   0  0  0  0  0  0  0  0  0  0  0  0
   38.1240   31.9290   48.1860 C   0  0  0  0  0  0  0  0  0  0  0  0
   37.9830   30.7080   47.6280 C   0  0  0  0  0  0  0  0  0  0  0  0
   38.6670   30.4060   46.4490 C   0  0  0  0  0  0  0  0  0  0  0  0
   39.4550   31.3730   45.9060 N   0  0  0  0  0  0  0  0  0  0  0  0
   39.5750   32.5600   46.4690 C   0  0  0  0  0  0  0  0  0  0  0  0
   38.9270   32.8780   47.6080 N   0  0  0  0  0  0  0  0  0  0  0  0
   40.4170   33.6110   45.8520 C   0  0  0  0  0  0  0  0  0  0  0  0
   40.0860   33.7260   44.3500 C   0  0  0  0  0  0  0  0  0  0  0  0
   37.2753   31.2590   51.3144 H   0  0  0  0  0  0  0  0  0  0  0  0
   38.2400   30.3995   50.0306 H   0  0  0  0  0  0  0  0  0  0  0  0
   37.2132   28.2920   50.1293 H   0  0  0  0  0  0  0  0  0  0  0  0
   34.9191   31.8872   49.5753 H   0  0  0  0  0  0  0  0  0  0  0  0
   30.1006   27.2523   50.9242 H   0  0  0  0  0  0  0  0  0  0  0  0
   27.7992   28.3192   50.4256 H   0  0  0  0  0  0  0  0  0  0  0  0
   29.2555   29.3220   50.5205 H   0  0  0  0  0  0  0  0  0  0  0  0
   27.6416   28.5220   48.1315 H   0  0  0  0  0  0  0  0  0  0  0  0
   28.7252   29.8952   48.2901 H   0  0  0  0  0  0  0  0  0  0  0  0
   29.2656   27.2407   47.1884 H   0  0  0  0  0  0  0  0  0  0  0  0
   30.3595   28.6506   47.2212 H   0  0  0  0  0  0  0  0  0  0  0  0
   30.9248   26.3767   48.5778 H   0  0  0  0  0  0  0  0  0  0  0  0
   36.4315   32.6365   49.2581 H   0  0  0  0  0  0  0  0  0  0  0  0
   38.0026   33.0069   50.0204 H   0  0  0  0  0  0  0  0  0  0  0  0
   37.3333   29.9558   48.0992 H   0  0  0  0  0  0  0  0  0  0  0  0
   38.5719   29.4182   45.9745 H   0  0  0  0  0  0  0  0  0  0  0  0
   40.2193   34.5743   46.3449 H   0  0  0  0  0  0  0  0  0  0  0  0
   41.4777   33.3457   45.9723 H   0  0  0  0  0  0  0  0  0  0  0  0
   39.0533   34.0848   44.2285 H   0  0  0  0  0  0  0  0  0  0  0  0
   40.7791   34.4360   43.8751 H   0  0  0  0  0  0  0  0  0  0  0  0
   40.1896   32.7392   43.8751 H   0  0  0  0  0  0  0  0  0  0  0  0
  2  3  2  0
  3  1  1  0
  4  3  1  0
  5  4  2  0
  6  5  1  0
  6  7  2  0
  7  2  1  0
  8  6  1  0
  8 10  1  0
  9  8  2  0
 12 11  1  0
 13 12  1  0
 14 13  1  0
 14 15  1  0
 15 10  1  0
 15 11  1  0
 16  1  1  0
 17 16  1  0
 18 17  2  0
 19 18  1  0
 20 19  2  0
 20 21  1  0
 21 22  2  0
 22 17  1  0
 23 21  1  0
 24 23  1  0
  1 25  1  0
  1 26  1  0
  2 27  1  0
  4 28  1  0
 11 29  1  0
 12 30  1  0
 12 31  1  0
 13 32  1  0
 13 33  1  0
 14 34  1  0
 14 35  1  0
 15 36  1  6
 16 37  1  0
 16 38  1  0
 18 39  1  0
 19 40  1  0
 23 41  1  0
 23 42  1  0
 24 43  1  0
 24 44  1  0
 24 45  1  0
M  ISO  8  25   8  26   8  27  14  28  14  29   5  30  13  31  13  32  13
M  ISO  8  33  13  34  13  35  13  36  13  37   8  38   8  39  14  40  14
M  ISO  5  41   8  42   8  43   8  44   8  45   8
M  END
>  <minimizedAffinity>  (1) 
-5.64141846

>  <minimizedRMSD>  (1) 
1.09670806

$$$$
