
     RDKit          3D

 38 40  0  0  0  0  0  0  0  0999 V2000
   37.2840   30.7680   50.2340 C   0  0  0  0  0  0  0  0  0  0  0  0
   36.0640   28.6790   49.8320 C   0  0  0  0  0  0  0  0  0  0  0  0
   36.1010   30.0810   49.9000 C   0  0  0  0  0  0  0  0  0  0  0  0
   34.9390   30.7420   49.6020 C   0  0  0  0  0  0  0  0  0  0  0  0
   33.8120   30.0640   49.2570 N   0  0  0  0  0  0  0  0  0  0  0  0
   33.8050   28.7280   49.1990 C   0  0  0  0  0  0  0  0  0  0  0  0
   34.9060   28.0800   49.4820 N   0  0  0  0  0  0  0  0  0  0  0  0
   32.5910   27.9910   48.8300 C   0  0  0  0  0  0  0  0  0  0  0  0
   32.5330   27.3190   47.7720 O   0  0  0  0  0  0  0  0  0  0  0  0
   31.4640   28.0080   49.6330 O   0  0  0  0  0  0  0  0  0  0  0  0
   30.2340   27.6510   49.0830 C   0  0  0  0  0  0  0  0  0  0  0  0
   29.7490   26.8260   48.1440 N   0  0  0  0  0  0  0  0  0  0  0  0
   28.4480   26.9580   48.0990 O   0  0  0  0  0  0  0  0  0  0  0  0
   28.0520   27.8470   48.9800 C   0  0  0  0  0  0  0  0  0  0  0  0
   29.1670   28.3070   49.6210 N   0  0  0  0  0  0  0  0  0  0  0  0
   37.4080   32.0640   49.5300 C   0  0  0  0  0  0  0  0  0  0  0  0
   38.0970   31.8180   48.2420 C   0  0  0  0  0  0  0  0  0  0  0  0
   37.9730   30.6230   47.6250 C   0  0  0  0  0  0  0  0  0  0  0  0
   38.6600   30.3870   46.4330 C   0  0  0  0  0  0  0  0  0  0  0  0
   39.4350   31.3890   45.9370 N   0  0  0  0  0  0  0  0  0  0  0  0
   39.5390   32.5540   46.5590 C   0  0  0  0  0  0  0  0  0  0  0  0
   38.8880   32.8070   47.7130 N   0  0  0  0  0  0  0  0  0  0  0  0
   40.3670   33.6410   45.9900 C   0  0  0  0  0  0  0  0  0  0  0  0
   40.0920   33.7670   44.4750 C   0  0  0  0  0  0  0  0  0  0  0  0
   37.2891   30.9541   51.3181 H   0  0  0  0  0  0  0  0  0  0  0  0
   38.1325   30.1393   49.9261 H   0  0  0  0  0  0  0  0  0  0  0  0
   36.9593   28.0817   50.0590 H   0  0  0  0  0  0  0  0  0  0  0  0
   34.9171   31.8410   49.6425 H   0  0  0  0  0  0  0  0  0  0  0  0
   27.0151   28.1628   49.1672 H   0  0  0  0  0  0  0  0  0  0  0  0
   36.4091   32.4860   49.3450 H   0  0  0  0  0  0  0  0  0  0  0  0
   37.9799   32.7785   50.1403 H   0  0  0  0  0  0  0  0  0  0  0  0
   37.3341   29.8400   48.0594 H   0  0  0  0  0  0  0  0  0  0  0  0
   38.5774   29.4220   45.9116 H   0  0  0  0  0  0  0  0  0  0  0  0
   40.1166   34.5898   46.4871 H   0  0  0  0  0  0  0  0  0  0  0  0
   41.4306   33.4099   46.1490 H   0  0  0  0  0  0  0  0  0  0  0  0
   39.1021   34.2205   44.3185 H   0  0  0  0  0  0  0  0  0  0  0  0
   40.8631   34.4016   44.0139 H   0  0  0  0  0  0  0  0  0  0  0  0
   40.1149   32.7686   44.0139 H   0  0  0  0  0  0  0  0  0  0  0  0
  2  3  2  0
  3  1  1  0
  4  3  1  0
  5  4  2  0
  6  5  1  0
  6  7  2  0
  7  2  1  0
  8  6  1  0
  8 10  1  0
  9  8  2  0
 11 15  1  0
 11 10  1  0
 12 11  2  0
 13 12  1  0
 13 14  1  0
 14 15  2  0
 16  1  1  0
 17 16  1  0
 18 17  2  0
 19 18  1  0
 20 19  2  0
 20 21  1  0
 21 22  2  0
 22 17  1  0
 23 21  1  0
 24 23  1  0
  1 25  1  0
  1 26  1  0
  2 27  1  0
  4 28  1  0
 14 29  1  0
 16 30  1  0
 16 31  1  0
 18 32  1  0
 19 33  1  0
 23 34  1  0
 23 35  1  0
 24 36  1  0
 24 37  1  0
 24 38  1  0
M  ISO  8  25   8  26   8  27  14  28  14  29  14  30   8  31   8  32  14
M  ISO  6  33  14  34   8  35   8  36   8  37   8  38   8
M  END
>  <minimizedAffinity>  (1) 
-5.30939865

>  <minimizedRMSD>  (1) 
0.826895893

$$$$
