
     RDKit          3D

 36 37  0  0  0  0  0  0  0  0999 V2000
   37.3310   32.0050   49.7050 C   0  0  0  0  0  0  0  0  0  0  0  0
   38.0260   31.7920   48.4150 C   0  0  0  0  0  0  0  0  0  0  0  0
   37.9230   30.6040   47.7810 C   0  0  0  0  0  0  0  0  0  0  0  0
   38.6190   30.3950   46.5880 C   0  0  0  0  0  0  0  0  0  0  0  0
   39.3790   31.4190   46.1100 N   0  0  0  0  0  0  0  0  0  0  0  0
   39.4610   32.5750   46.7480 C   0  0  0  0  0  0  0  0  0  0  0  0
   38.8000   32.7940   47.8990 N   0  0  0  0  0  0  0  0  0  0  0  0
   40.2720   33.6820   46.1960 C   0  0  0  0  0  0  0  0  0  0  0  0
   40.1240   33.7230   44.6580 C   0  0  0  0  0  0  0  0  0  0  0  0
   37.1040   30.6870   50.3280 C   0  0  0  0  0  0  0  0  0  0  0  0
   35.8990   28.6320   49.7390 C   0  0  0  0  0  0  0  0  0  0  0  0
   35.9580   30.0320   49.8290 C   0  0  0  0  0  0  0  0  0  0  0  0
   34.8600   30.7300   49.3890 C   0  0  0  0  0  0  0  0  0  0  0  0
   33.7760   30.0780   48.8920 N   0  0  0  0  0  0  0  0  0  0  0  0
   33.7440   28.7430   48.8160 C   0  0  0  0  0  0  0  0  0  0  0  0
   34.7830   28.0650   49.2320 N   0  0  0  0  0  0  0  0  0  0  0  0
   32.5740   28.0400   48.2790 C   0  0  0  0  0  0  0  0  0  0  0  0
   32.2910   28.0770   47.0600 O   0  0  0  0  0  0  0  0  0  0  0  0
   31.7370   27.3080   49.1090 O   0  0  0  0  0  0  0  0  0  0  0  0
   30.4260   27.6930   49.3570 C   0  0  0  0  0  0  0  0  0  0  0  0
   29.4920   27.0900   48.7860 O   0  0  0  0  0  0  0  0  0  0  0  0
   30.2280   28.7460   50.2430 O   0  0  0  0  0  0  0  0  0  0  0  0
   36.3672   32.5057   49.5307 H   0  0  0  0  0  0  0  0  0  0  0  0
   37.9411   32.6383   50.3659 H   0  0  0  0  0  0  0  0  0  0  0  0
   37.2945   29.8053   48.2017 H   0  0  0  0  0  0  0  0  0  0  0  0
   38.5554   29.4360   46.0529 H   0  0  0  0  0  0  0  0  0  0  0  0
   39.9262   34.6355   46.6217 H   0  0  0  0  0  0  0  0  0  0  0  0
   41.3290   33.5221   46.4550 H   0  0  0  0  0  0  0  0  0  0  0  0
   39.0944   34.0082   44.3962 H   0  0  0  0  0  0  0  0  0  0  0  0
   40.8259   34.4605   44.2416 H   0  0  0  0  0  0  0  0  0  0  0  0
   40.3464   32.7294   44.2416 H   0  0  0  0  0  0  0  0  0  0  0  0
   37.9819   30.0526   50.1362 H   0  0  0  0  0  0  0  0  0  0  0  0
   36.9457   30.8540   51.4037 H   0  0  0  0  0  0  0  0  0  0  0  0
   36.7429   28.0109   50.0739 H   0  0  0  0  0  0  0  0  0  0  0  0
   34.8579   31.8288   49.4394 H   0  0  0  0  0  0  0  0  0  0  0  0
   29.3098   29.0536   50.4490 H   0  0  0  0  0  0  0  0  0  0  0  0
  1 10  1  0
  2  1  1  0
  3  2  2  0
  4  3  1  0
  5  4  2  0
  5  6  1  0
  6  7  2  0
  7  2  1  0
  8  6  1  0
  9  8  1  0
 11 12  2  0
 12 10  1  0
 13 12  1  0
 14 13  2  0
 15 14  1  0
 15 16  2  0
 16 11  1  0
 17 15  1  0
 17 19  1  0
 18 17  2  0
 19 20  1  0
 20 22  1  0
 21 20  2  0
  1 23  1  0
  1 24  1  0
  3 25  1  0
  4 26  1  0
  8 27  1  0
  8 28  1  0
  9 29  1  0
  9 30  1  0
  9 31  1  0
 10 32  1  0
 10 33  1  0
 11 34  1  0
 13 35  1  0
 22 36  1  0
M  ISO  8  23   8  24   8  25  14  26  14  27   8  28   8  29   8  30   8
M  ISO  6  31   8  32   8  33   8  34  14  35  14  36   3
M  END
>  <minimizedAffinity>  (1) 
-5.29811144

>  <minimizedRMSD>  (1) 
1.00031304

$$$$
