
     RDKit          3D

 26 27  0  0  0  0  0  0  0  0999 V2000
   37.3540   30.2500   51.4260 C   0  0  0  0  0  0  0  0  0  0  0  0
   38.0430   30.7960   50.3200 C   0  0  0  0  0  0  0  0  0  0  0  0
   37.6170   30.4390   49.0410 C   0  0  0  0  0  0  0  0  0  0  0  0
   36.5600   29.5820   48.9210 N   0  0  0  0  0  0  0  0  0  0  0  0
   35.9240   29.0770   49.9930 C   0  0  0  0  0  0  0  0  0  0  0  0
   36.3150   29.4060   51.2440 N   0  0  0  0  0  0  0  0  0  0  0  0
   38.2580   30.9450   47.8170 C   0  0  0  0  0  0  0  0  0  0  0  0
   38.7190   32.3670   47.9060 C   0  0  0  0  0  0  0  0  0  0  0  0
   39.5050   32.6510   46.6350 C   0  0  0  0  0  0  0  0  0  0  0  0
   38.7500   32.3180   45.3940 C   0  0  0  0  0  0  0  0  0  0  0  0
   38.0680   30.9770   45.4100 C   0  0  0  0  0  0  0  0  0  0  0  0
   37.2290   30.9010   46.6800 C   0  0  0  0  0  0  0  0  0  0  0  0
   37.6671   30.5151   52.4467 H   0  0  0  0  0  0  0  0  0  0  0  0
   38.8905   31.4824   50.4635 H   0  0  0  0  0  0  0  0  0  0  0  0
   35.0773   28.3895   49.8501 H   0  0  0  0  0  0  0  0  0  0  0  0
   39.1394   30.3081   47.6513 H   0  0  0  0  0  0  0  0  0  0  0  0
   37.8537   33.0426   47.9758 H   0  0  0  0  0  0  0  0  0  0  0  0
   39.3400   32.5268   48.7998 H   0  0  0  0  0  0  0  0  0  0  0  0
   39.7604   33.7207   46.6130 H   0  0  0  0  0  0  0  0  0  0  0  0
   40.4015   32.0138   46.6545 H   0  0  0  0  0  0  0  0  0  0  0  0
   39.4554   32.3329   44.5501 H   0  0  0  0  0  0  0  0  0  0  0  0
   37.9518   33.0698   45.3065 H   0  0  0  0  0  0  0  0  0  0  0  0
   37.4208   30.8749   44.5264 H   0  0  0  0  0  0  0  0  0  0  0  0
   38.8108   30.1659   45.3890 H   0  0  0  0  0  0  0  0  0  0  0  0
   36.5406   31.7566   46.7441 H   0  0  0  0  0  0  0  0  0  0  0  0
   36.6014   29.9983   46.7158 H   0  0  0  0  0  0  0  0  0  0  0  0
  2  1  2  0
  3  2  1  0
  4  3  2  0
  4  5  1  0
  5  6  2  0
  6  1  1  0
  7  8  1  0
  7  3  1  0
  9  8  1  0
 10 11  1  0
 10  9  1  0
 11 12  1  0
 12  7  1  0
  1 13  1  0
  2 14  1  0
  5 15  1  0
  7 16  1  0
  8 17  1  0
  8 18  1  0
  9 19  1  0
  9 20  1  0
 10 21  1  0
 10 22  1  0
 11 23  1  0
 11 24  1  0
 12 25  1  0
 12 26  1  0
M  ISO  8  13  14  14  14  15  14  16  13  17  13  18  13  19  13  20  13
M  ISO  6  21  13  22  13  23  13  24  13  25  13  26  13
M  END
>  <minimizedAffinity>  (1) 
-4.99338484

>  <minimizedRMSD>  (1) 
0.268717945

$$$$
