
     RDKit          3D

 38 42  0  0  0  0  0  0  0  0999 V2000
   32.4000   29.7800   46.1580 C   0  0  0  0  0  0  0  0  0  0  0  0
   32.1400   28.4140   46.2480 C   0  0  0  0  0  0  0  0  0  0  0  0
   33.0870   27.6010   46.8880 C   0  0  0  0  0  0  0  0  0  0  0  0
   34.2110   28.2000   47.3860 N   0  0  0  0  0  0  0  0  0  0  0  0
   34.4350   29.5190   47.2830 C   0  0  0  0  0  0  0  0  0  0  0  0
   33.5360   30.3120   46.6730 N   0  0  0  0  0  0  0  0  0  0  0  0
   35.6650   30.0270   47.8520 C   0  0  0  0  0  0  0  0  0  0  0  0
   36.6410   30.6940   47.1200 C   0  0  0  0  0  0  0  0  0  0  0  0
   37.6630   31.0430   47.9160 N   0  0  0  0  0  0  0  0  0  0  0  0
   37.3790   30.6200   49.1540 C   0  0  0  0  0  0  0  0  0  0  0  0
   38.0810   30.7150   50.3540 C   0  0  0  0  0  0  0  0  0  0  0  0
   37.5230   30.1710   51.4990 C   0  0  0  0  0  0  0  0  0  0  0  0
   36.2860   29.5450   51.4410 C   0  0  0  0  0  0  0  0  0  0  0  0
   35.5530   29.4310   50.2610 C   0  0  0  0  0  0  0  0  0  0  0  0
   36.1410   29.9840   49.1410 C   0  0  0  0  0  0  0  0  0  0  0  0
   32.8640   26.1640   47.0110 C   0  0  0  0  0  0  0  0  0  0  0  0
   31.8770   25.5850   47.7790 C   0  0  0  0  0  0  0  0  0  0  0  0
   32.0300   24.2380   47.6050 N   0  0  0  0  0  0  0  0  0  0  0  0
   33.0500   24.0160   46.7800 C   0  0  0  0  0  0  0  0  0  0  0  0
   33.5940   22.8400   46.3000 C   0  0  0  0  0  0  0  0  0  0  0  0
   34.6700   22.8000   45.4370 C   0  0  0  0  0  0  0  0  0  0  0  0
   35.2320   24.0110   45.0340 C   0  0  0  0  0  0  0  0  0  0  0  0
   34.7070   25.2010   45.5000 C   0  0  0  0  0  0  0  0  0  0  0  0
   33.6300   25.2170   46.3620 C   0  0  0  0  0  0  0  0  0  0  0  0
   31.6717   30.4377   45.6610 H   0  0  0  0  0  0  0  0  0  0  0  0
   31.2178   27.9852   45.8288 H   0  0  0  0  0  0  0  0  0  0  0  0
   36.5834   30.9054   46.0420 H   0  0  0  0  0  0  0  0  0  0  0  0
   38.5138   31.5463   47.6265 H   0  0  0  0  0  0  0  0  0  0  0  0
   39.0610   31.2132   50.3912 H   0  0  0  0  0  0  0  0  0  0  0  0
   38.0614   30.2353   52.4561 H   0  0  0  0  0  0  0  0  0  0  0  0
   35.8662   29.1209   52.3651 H   0  0  0  0  0  0  0  0  0  0  0  0
   34.5723   28.9340   50.2246 H   0  0  0  0  0  0  0  0  0  0  0  0
   31.1267   26.0972   48.3992 H   0  0  0  0  0  0  0  0  0  0  0  0
   31.4478   23.5100   48.0432 H   0  0  0  0  0  0  0  0  0  0  0  0
   33.1469   21.8879   46.6220 H   0  0  0  0  0  0  0  0  0  0  0  0
   35.0725   21.8414   45.0776 H   0  0  0  0  0  0  0  0  0  0  0  0
   36.0910   24.0188   44.3469 H   0  0  0  0  0  0  0  0  0  0  0  0
   35.1556   26.1524   45.1781 H   0  0  0  0  0  0  0  0  0  0  0  0
  1  2  2  0
  1  6  1  0
  2  3  1  0
  3 16  1  0
  3  4  2  0
  5  4  1  0
  5  7  1  0
  6  5  2  0
  7 15  1  0
  8  7  2  0
  8  9  1  0
  9 10  1  0
 10 11  2  0
 11 12  1  0
 13 12  2  0
 14 13  1  0
 15 10  1  0
 15 14  2  0
 16 17  2  0
 18 17  1  0
 19 18  1  0
 20 19  2  0
 21 20  1  0
 22 21  2  0
 22 23  1  0
 23 24  2  0
 24 19  1  0
 24 16  1  0
  1 25  1  0
  2 26  1  0
  8 27  1  0
  9 28  1  0
 11 29  1  0
 12 30  1  0
 13 31  1  0
 14 32  1  0
 17 33  1  0
 18 34  1  0
 20 35  1  0
 21 36  1  0
 22 37  1  0
 23 38  1  0
M  ISO  8  25  14  26  14  27  14  28   9  29  14  30  14  31  14  32  14
M  ISO  6  33  14  34   9  35  14  36  14  37  14  38  14
M  END
>  <minimizedAffinity>  (1) 
-6.15379763

>  <minimizedRMSD>  (1) 
0.739795029

$$$$
