
     RDKit          3D

 37 41  0  0  0  0  0  0  0  0999 V2000
   32.3000   30.0380   46.1390 C   0  0  0  0  0  0  0  0  0  0  0  0
   31.9890   28.6820   46.1270 C   0  0  0  0  0  0  0  0  0  0  0  0
   32.9210   27.7860   46.6720 C   0  0  0  0  0  0  0  0  0  0  0  0
   34.0840   28.2860   47.1850 N   0  0  0  0  0  0  0  0  0  0  0  0
   34.3430   29.6190   47.1750 C   0  0  0  0  0  0  0  0  0  0  0  0
   33.4660   30.4800   46.6600 N   0  0  0  0  0  0  0  0  0  0  0  0
   35.6190   30.0480   47.7520 C   0  0  0  0  0  0  0  0  0  0  0  0
   36.6360   30.6320   47.0260 C   0  0  0  0  0  0  0  0  0  0  0  0
   37.6770   30.9120   47.8380 N   0  0  0  0  0  0  0  0  0  0  0  0
   37.3520   30.5150   49.0870 C   0  0  0  0  0  0  0  0  0  0  0  0
   38.0370   30.5600   50.2990 C   0  0  0  0  0  0  0  0  0  0  0  0
   37.4240   30.0640   51.4370 C   0  0  0  0  0  0  0  0  0  0  0  0
   36.1630   29.5390   51.3620 C   0  0  0  0  0  0  0  0  0  0  0  0
   35.4340   29.4700   50.1750 C   0  0  0  0  0  0  0  0  0  0  0  0
   36.0710   29.9730   49.0540 C   0  0  0  0  0  0  0  0  0  0  0  0
   32.7870   26.3710   46.7520 N   0  0  0  0  0  0  0  0  0  0  0  0
   33.7790   25.6730   47.3380 C   0  0  0  0  0  0  0  0  0  0  0  0
   33.4580   24.3500   47.3120 N   0  0  0  0  0  0  0  0  0  0  0  0
   32.2640   24.2260   46.7080 C   0  0  0  0  0  0  0  0  0  0  0  0
   31.3910   23.2140   46.3630 C   0  0  0  0  0  0  0  0  0  0  0  0
   30.2210   23.4820   45.7300 N   0  0  0  0  0  0  0  0  0  0  0  0
   29.8840   24.7530   45.4210 C   0  0  0  0  0  0  0  0  0  0  0  0
   30.6920   25.8070   45.7280 N   0  0  0  0  0  0  0  0  0  0  0  0
   31.8460   25.5160   46.3560 C   0  0  0  0  0  0  0  0  0  0  0  0
   31.8110   21.9000   46.7180 N   0  0  0  0  0  0  0  0  0  0  0  0
   31.5861   30.7613   45.7181 H   0  0  0  0  0  0  0  0  0  0  0  0
   31.0399   28.3228   45.7025 H   0  0  0  0  0  0  0  0  0  0  0  0
   36.6035   30.8387   45.9461 H   0  0  0  0  0  0  0  0  0  0  0  0
   38.5643   31.3517   47.5545 H   0  0  0  0  0  0  0  0  0  0  0  0
   39.0508   30.9837   50.3512 H   0  0  0  0  0  0  0  0  0  0  0  0
   37.9512   30.0921   52.4020 H   0  0  0  0  0  0  0  0  0  0  0  0
   35.7015   29.1525   52.2827 H   0  0  0  0  0  0  0  0  0  0  0  0
   34.4206   29.0443   50.1326 H   0  0  0  0  0  0  0  0  0  0  0  0
   34.6970   26.1012   47.7668 H   0  0  0  0  0  0  0  0  0  0  0  0
   28.9302   24.9429   44.9069 H   0  0  0  0  0  0  0  0  0  0  0  0
   31.2144   21.0907   46.4946 H   0  0  0  0  0  0  0  0  0  0  0  0
   32.7113   21.7592   47.1981 H   0  0  0  0  0  0  0  0  0  0  0  0
  1  6  2  0
  2  1  1  0
  2  3  2  0
  3 16  1  0
  3  4  1  0
  5  4  2  0
  5  7  1  0
  6  5  1  0
  7 15  1  0
  8  7  2  0
  8  9  1  0
  9 10  1  0
 10 11  2  0
 11 12  1  0
 13 12  2  0
 14 13  1  0
 15 10  1  0
 15 14  2  0
 16 17  1  0
 18 17  2  0
 19 18  1  0
 20 19  2  0
 20 25  1  0
 21 20  1  0
 22 23  1  0
 22 21  2  0
 23 24  2  0
 24 19  1  0
 24 16  1  0
  1 26  1  0
  2 27  1  0
  8 28  1  0
  9 29  1  0
 11 30  1  0
 12 31  1  0
 13 32  1  0
 14 33  1  0
 17 34  1  0
 22 35  1  0
 25 36  1  0
 25 37  1  0
M  ISO  8  26  14  27  14  28  14  29   9  30  14  31  14  32  14  33  14
M  ISO  2  34  14  35  14
M  END
>  <minimizedAffinity>  (1) 
-6.07523966

>  <minimizedRMSD>  (1) 
0.62074852

$$$$
