
     RDKit          3D

 42 46  0  0  1  0  0  0  0  0999 V2000
   32.3410   29.9200   46.1690 C   0  0  0  0  0  0  0  0  0  0  0  0
   32.0690   28.5650   46.1970 C   0  0  0  0  0  0  0  0  0  0  0  0
   33.0310   27.6930   46.7770 C   0  0  0  0  0  0  0  0  0  0  0  0
   34.1540   28.2670   47.2670 N   0  0  0  0  0  0  0  0  0  0  0  0
   34.4120   29.5740   47.2390 C   0  0  0  0  0  0  0  0  0  0  0  0
   33.4930   30.3350   46.6910 N   0  0  0  0  0  0  0  0  0  0  0  0
   35.6610   30.0590   47.8020 C   0  0  0  0  0  0  0  0  0  0  0  0
   36.6430   30.6900   47.0860 C   0  0  0  0  0  0  0  0  0  0  0  0
   37.6670   31.0080   47.9040 N   0  0  0  0  0  0  0  0  0  0  0  0
   37.3580   30.5850   49.1560 C   0  0  0  0  0  0  0  0  0  0  0  0
   38.0550   30.6630   50.3470 C   0  0  0  0  0  0  0  0  0  0  0  0
   37.4690   30.1320   51.4880 C   0  0  0  0  0  0  0  0  0  0  0  0
   36.2320   29.5490   51.4150 C   0  0  0  0  0  0  0  0  0  0  0  0
   35.4980   29.4510   50.2310 C   0  0  0  0  0  0  0  0  0  0  0  0
   36.1130   29.9930   49.1100 C   0  0  0  0  0  0  0  0  0  0  0  0
   32.8500   26.3040   47.0670 C   0  0  0  0  0  0  0  0  0  0  0  0
   32.6920   25.1000   47.3180 N   0  0  0  0  0  0  0  0  0  0  0  0
   32.4710   23.9650   47.6730 C   0  0  0  0  0  0  0  0  0  0  0  0
   33.1210   23.5020   46.6090 N   0  0  0  0  0  0  0  0  0  0  0  0
   33.6940   24.3350   45.6860 C   0  0  0  0  0  0  0  0  0  0  0  0
   34.4040   23.6720   44.6480 C   0  0  0  0  0  0  0  0  0  0  0  0
   35.0410   24.5020   43.7730 C   0  0  0  0  0  0  0  0  0  0  0  0
   35.0590   25.8730   43.8050 C   0  0  0  0  0  0  0  0  0  0  0  0
   34.3160   26.3280   44.8780 C   0  0  0  0  0  0  0  0  0  0  0  0
   33.5480   25.7290   45.9360 C   0  0  0  0  0  0  0  0  0  0  0  0
   31.6279   30.6328   45.7292 H   0  0  0  0  0  0  0  0  0  0  0  0
   31.1305   28.1705   45.7804 H   0  0  0  0  0  0  0  0  0  0  0  0
   36.6028   30.9048   46.0079 H   0  0  0  0  0  0  0  0  0  0  0  0
   38.5344   31.4891   47.6263 H   0  0  0  0  0  0  0  0  0  0  0  0
   39.0483   31.1336   50.3897 H   0  0  0  0  0  0  0  0  0  0  0  0
   37.9985   30.1796   52.4510 H   0  0  0  0  0  0  0  0  0  0  0  0
   35.7942   29.1368   52.3361 H   0  0  0  0  0  0  0  0  0  0  0  0
   34.5053   28.9790   50.1893 H   0  0  0  0  0  0  0  0  0  0  0  0
   32.5068   26.5603   48.0802 H   0  0  0  0  0  0  0  0  0  0  0  0
   32.2687   24.9290   46.3947 H   0  0  0  0  0  0  0  0  0  0  0  0
   32.9351   23.6972   48.6337 H   0  0  0  0  0  0  0  0  0  0  0  0
   31.4413   23.6384   47.8803 H   0  0  0  0  0  0  0  0  0  0  0  0
   33.1957   22.4835   46.4751 H   0  0  0  0  0  0  0  0  0  0  0  0
   34.4370   22.5762   44.5577 H   0  0  0  0  0  0  0  0  0  0  0  0
   35.5989   24.0213   42.9559 H   0  0  0  0  0  0  0  0  0  0  0  0
   35.5863   26.5150   43.0840 H   0  0  0  0  0  0  0  0  0  0  0  0
   34.3108   27.4264   44.9378 H   0  0  0  0  0  0  0  0  0  0  0  0
  1  2  2  0
  1  6  1  0
  2  3  1  0
  3  4  2  0
  5  4  1  0
  5  7  1  0
  6  5  2  0
  7 15  1  0
  8  7  2  0
  8  9  1  0
  9 10  1  0
 10 11  2  0
 11 12  1  0
 13 12  2  0
 14 13  1  0
 15 10  1  0
 15 14  2  0
 16  3  1  0
 16 17  1  0
 17 18  1  0
 19 18  1  0
 20 25  2  0
 20 19  1  0
 21 20  1  0
 22 23  1  0
 22 21  2  0
 23 24  2  0
 24 25  1  0
 25 16  1  0
  1 26  1  0
  2 27  1  0
  8 28  1  0
  9 29  1  0
 11 30  1  0
 12 31  1  0
 13 32  1  0
 14 33  1  0
 16 34  1  0
 17 35  1  0
 18 36  1  0
 18 37  1  0
 19 38  1  0
 21 39  1  0
 22 40  1  0
 23 41  1  0
 24 42  1  0
M  ISO  8  26  14  27  14  28  14  29   9  30  14  31  14  32  14  33  14
M  ISO  8  34  13  35   5  36  13  37  13  39  14  40  14  41  14  42  14
M  END
>  <minimizedAffinity>  (1) 
-6.06003475

>  <minimizedRMSD>  (1) 
0.652472377

$$$$
