
     RDKit          3D

 37 40  0  0  0  0  0  0  0  0999 V2000
   32.3680   29.9720   46.1480 C   0  0  0  0  0  0  0  0  0  0  0  0
   32.0880   28.6050   46.1810 C   0  0  0  0  0  0  0  0  0  0  0  0
   33.0170   27.7330   46.7630 C   0  0  0  0  0  0  0  0  0  0  0  0
   34.1560   28.2870   47.2710 N   0  0  0  0  0  0  0  0  0  0  0  0
   34.4090   29.6120   47.2300 C   0  0  0  0  0  0  0  0  0  0  0  0
   33.5210   30.4360   46.6750 N   0  0  0  0  0  0  0  0  0  0  0  0
   35.6600   30.0740   47.8060 C   0  0  0  0  0  0  0  0  0  0  0  0
   36.6590   30.6980   47.0980 C   0  0  0  0  0  0  0  0  0  0  0  0
   37.6940   31.0090   47.9000 N   0  0  0  0  0  0  0  0  0  0  0  0
   37.3710   30.5860   49.1500 C   0  0  0  0  0  0  0  0  0  0  0  0
   38.0690   30.6520   50.3490 C   0  0  0  0  0  0  0  0  0  0  0  0
   37.4700   30.1230   51.4900 C   0  0  0  0  0  0  0  0  0  0  0  0
   36.2260   29.5570   51.4090 C   0  0  0  0  0  0  0  0  0  0  0  0
   35.4990   29.4740   50.2180 C   0  0  0  0  0  0  0  0  0  0  0  0
   36.1140   30.0050   49.1040 C   0  0  0  0  0  0  0  0  0  0  0  0
   32.3250   23.5640   46.9590 C   0  0  0  0  0  0  0  0  0  0  0  0
   31.3640   24.4440   46.4700 C   0  0  0  0  0  0  0  0  0  0  0  0
   31.6430   25.7910   46.4290 C   0  0  0  0  0  0  0  0  0  0  0  0
   32.8300   26.3130   46.8490 C   0  0  0  0  0  0  0  0  0  0  0  0
   33.7720   25.4610   47.3270 C   0  0  0  0  0  0  0  0  0  0  0  0
   33.5080   24.0990   47.3750 C   0  0  0  0  0  0  0  0  0  0  0  0
   32.0170   21.8520   47.0290 S   0  0  0  0  0  0  0  0  0  0  0  0
   30.6270   21.5750   46.5410 O   0  0  0  0  0  0  0  0  0  0  0  0
   32.1160   21.3880   48.4460 O   0  0  0  0  0  0  0  0  0  0  0  0
   31.6501   30.6704   45.6932 H   0  0  0  0  0  0  0  0  0  0  0  0
   31.1504   28.2177   45.7557 H   0  0  0  0  0  0  0  0  0  0  0  0
   36.6181   30.9143   46.0202 H   0  0  0  0  0  0  0  0  0  0  0  0
   38.5664   31.4790   47.6191 H   0  0  0  0  0  0  0  0  0  0  0  0
   39.0681   31.1098   50.3963 H   0  0  0  0  0  0  0  0  0  0  0  0
   37.9961   30.1600   52.4553 H   0  0  0  0  0  0  0  0  0  0  0  0
   35.7767   29.1476   52.3258 H   0  0  0  0  0  0  0  0  0  0  0  0
   34.5005   29.0146   50.1724 H   0  0  0  0  0  0  0  0  0  0  0  0
   30.3918   24.0668   46.1200 H   0  0  0  0  0  0  0  0  0  0  0  0
   30.8749   26.4759   46.0405 H   0  0  0  0  0  0  0  0  0  0  0  0
   34.7410   25.8482   47.6751 H   0  0  0  0  0  0  0  0  0  0  0  0
   34.2846   23.4242   47.7644 H   0  0  0  0  0  0  0  0  0  0  0  0
   32.9336   21.1980   46.2486 H   0  0  0  0  0  0  0  0  0  0  0  0
  1  2  2  0
  1  6  1  0
  2  3  1  0
  3 19  1  0
  3  4  2  0
  5  4  1  0
  5  7  1  0
  6  5  2  0
  7 15  1  0
  8  7  2  0
  8  9  1  0
  9 10  1  0
 10 11  2  0
 11 12  1  0
 13 12  2  0
 14 13  1  0
 15 10  1  0
 15 14  2  0
 16 22  1  0
 16 21  2  0
 17 16  1  0
 18 17  2  0
 18 19  1  0
 19 20  2  0
 20 21  1  0
 22 24  2  0
 23 22  2  0
  1 25  1  0
  2 26  1  0
  8 27  1  0
  9 28  1  0
 11 29  1  0
 12 30  1  0
 13 31  1  0
 14 32  1  0
 17 33  1  0
 18 34  1  0
 20 35  1  0
 21 36  1  0
 22 37  1  0
M  ISO  8  25  14  26  14  27  14  28   9  29  14  30  14  31  14  32  14
M  ISO  5  33  14  34  14  35  14  36  14  37  11
M  END
>  <minimizedAffinity>  (1) 
-6.03997755

>  <minimizedRMSD>  (1) 
0.268961608

$$$$
