
     RDKit          3D

 33 35  0  0  0  0  0  0  0  0999 V2000
   35.3620   29.9940   47.8390 C   0  0  0  0  0  0  0  0  0  0  0  0
   36.3520   30.5180   47.0200 C   0  0  0  0  0  0  0  0  0  0  0  0
   37.4610   30.7690   47.7370 N   0  0  0  0  0  0  0  0  0  0  0  0
   37.2110   30.4160   49.0230 C   0  0  0  0  0  0  0  0  0  0  0  0
   38.0030   30.4670   50.1570 C   0  0  0  0  0  0  0  0  0  0  0  0
   37.4610   30.0250   51.3590 C   0  0  0  0  0  0  0  0  0  0  0  0
   36.1740   29.5540   51.4010 C   0  0  0  0  0  0  0  0  0  0  0  0
   35.3520   29.4900   50.2740 C   0  0  0  0  0  0  0  0  0  0  0  0
   35.9190   29.9370   49.0900 C   0  0  0  0  0  0  0  0  0  0  0  0
   32.1430   29.9190   46.0380 C   0  0  0  0  0  0  0  0  0  0  0  0
   31.5510   28.7780   46.5770 C   0  0  0  0  0  0  0  0  0  0  0  0
   32.2610   28.0460   47.5530 C   0  0  0  0  0  0  0  0  0  0  0  0
   33.4850   28.5100   47.9010 N   0  0  0  0  0  0  0  0  0  0  0  0
   34.0300   29.6110   47.3650 C   0  0  0  0  0  0  0  0  0  0  0  0
   33.3790   30.3230   46.4400 N   0  0  0  0  0  0  0  0  0  0  0  0
   31.7260   26.8120   48.1970 C   0  0  0  0  0  0  0  0  0  0  0  0
   30.4950   27.1630   49.0070 C   0  0  0  0  0  0  0  0  0  0  0  0
   31.3110   25.7900   47.1590 C   0  0  0  0  0  0  0  0  0  0  0  0
   36.2449   30.7014   45.9407 H   0  0  0  0  0  0  0  0  0  0  0  0
   38.3427   31.1594   47.3749 H   0  0  0  0  0  0  0  0  0  0  0  0
   39.0341   30.8472   50.1087 H   0  0  0  0  0  0  0  0  0  0  0  0
   38.0657   30.0533   52.2774 H   0  0  0  0  0  0  0  0  0  0  0  0
   35.7711   29.2113   52.3655 H   0  0  0  0  0  0  0  0  0  0  0  0
   34.3210   29.1095   50.3223 H   0  0  0  0  0  0  0  0  0  0  0  0
   31.6034   30.5014   45.2767 H   0  0  0  0  0  0  0  0  0  0  0  0
   30.5520   28.4549   46.2488 H   0  0  0  0  0  0  0  0  0  0  0  0
   32.5200   26.3926   48.8324 H   0  0  0  0  0  0  0  0  0  0  0  0
   30.7303   27.0959   50.0794 H   0  0  0  0  0  0  0  0  0  0  0  0
   30.1767   28.1877   48.7649 H   0  0  0  0  0  0  0  0  0  0  0  0
   29.6841   26.4603   48.7649 H   0  0  0  0  0  0  0  0  0  0  0  0
   30.9431   24.8841   47.6630 H   0  0  0  0  0  0  0  0  0  0  0  0
   30.5121   26.2098   46.5301 H   0  0  0  0  0  0  0  0  0  0  0  0
   32.1764   25.5339   46.5301 H   0  0  0  0  0  0  0  0  0  0  0  0
  1  9  1  0
  2  3  1  0
  2  1  2  0
  3  4  1  0
  4  9  2  0
  4  5  1  0
  5  6  2  0
  6  7  1  0
  8  7  2  0
  9  8  1  0
 10 15  2  0
 10 11  1  0
 11 12  2  0
 12 13  1  0
 12 16  1  0
 14  1  1  0
 14 13  2  0
 15 14  1  0
 16 17  1  0
 18 16  1  0
  2 19  1  0
  3 20  1  0
  5 21  1  0
  6 22  1  0
  7 23  1  0
  8 24  1  0
 10 25  1  0
 11 26  1  0
 16 27  1  0
 17 28  1  0
 17 29  1  0
 17 30  1  0
 18 31  1  0
 18 32  1  0
 18 33  1  0
M  ISO  8  19  14  20   9  21  14  22  14  23  14  24  14  25  14  26  14
M  ISO  7  27   8  28   8  29   8  30   8  31   8  32   8  33   8
M  END
>  <minimizedAffinity>  (1) 
-5.80968952

>  <minimizedRMSD>  (1) 
1.00018191

$$$$
