
     RDKit          3D

 27 29  0  0  0  0  0  0  0  0999 V2000
   35.3370   29.9840   47.7900 C   0  0  0  0  0  0  0  0  0  0  0  0
   36.3500   30.4840   46.9840 C   0  0  0  0  0  0  0  0  0  0  0  0
   37.4540   30.7090   47.7120 N   0  0  0  0  0  0  0  0  0  0  0  0
   37.1830   30.3630   48.9880 C   0  0  0  0  0  0  0  0  0  0  0  0
   37.9600   30.3950   50.1390 C   0  0  0  0  0  0  0  0  0  0  0  0
   37.4040   29.9730   51.3230 C   0  0  0  0  0  0  0  0  0  0  0  0
   36.0900   29.5230   51.3630 C   0  0  0  0  0  0  0  0  0  0  0  0
   35.2840   29.4800   50.2240 C   0  0  0  0  0  0  0  0  0  0  0  0
   35.8720   29.9110   49.0530 C   0  0  0  0  0  0  0  0  0  0  0  0
   32.0950   30.0860   46.0270 C   0  0  0  0  0  0  0  0  0  0  0  0
   31.5160   28.8810   46.4790 C   0  0  0  0  0  0  0  0  0  0  0  0
   32.2370   28.0560   47.3760 C   0  0  0  0  0  0  0  0  0  0  0  0
   33.4760   28.4840   47.7560 N   0  0  0  0  0  0  0  0  0  0  0  0
   34.0050   29.6340   47.3120 C   0  0  0  0  0  0  0  0  0  0  0  0
   33.3270   30.4200   46.4620 N   0  0  0  0  0  0  0  0  0  0  0  0
   31.6180   26.8110   47.8330 C   0  0  0  0  0  0  0  0  0  0  0  0
   32.4930   25.7610   47.9750 F   0  0  0  0  0  0  0  0  0  0  0  0
   30.9880   26.9750   49.0720 F   0  0  0  0  0  0  0  0  0  0  0  0
   30.5900   26.3930   46.9820 F   0  0  0  0  0  0  0  0  0  0  0  0
   36.2605   30.6692   45.9034 H   0  0  0  0  0  0  0  0  0  0  0  0
   38.3483   31.0795   47.3602 H   0  0  0  0  0  0  0  0  0  0  0  0
   39.0001   30.7512   50.1036 H   0  0  0  0  0  0  0  0  0  0  0  0
   38.0033   29.9916   52.2452 H   0  0  0  0  0  0  0  0  0  0  0  0
   35.6710   29.1896   52.3239 H   0  0  0  0  0  0  0  0  0  0  0  0
   34.2437   29.1242   50.2582 H   0  0  0  0  0  0  0  0  0  0  0  0
   31.5506   30.7417   45.3316 H   0  0  0  0  0  0  0  0  0  0  0  0
   30.5131   28.5851   46.1374 H   0  0  0  0  0  0  0  0  0  0  0  0
  1  9  1  0
  2  3  1  0
  2  1  2  0
  3  4  1  0
  4  9  2  0
  4  5  1  0
  5  6  2  0
  6  7  1  0
  8  7  2  0
  9  8  1  0
 10 15  2  0
 10 11  1  0
 11 12  2  0
 12 13  1  0
 12 16  1  0
 14 13  2  0
 14  1  1  0
 15 14  1  0
 16 17  1  0
 16 18  1  0
 19 16  1  0
  2 20  1  0
  3 21  1  0
  5 22  1  0
  6 23  1  0
  7 24  1  0
  8 25  1  0
 10 26  1  0
 11 27  1  0
M  ISO  8  20  14  21   9  22  14  23  14  24  14  25  14  26  14  27  14
M  END
>  <minimizedAffinity>  (1) 
-5.80382109

>  <minimizedRMSD>  (1) 
1.09426081

$$$$
