
     RDKit          3D

 27 29  0  0  0  0  0  0  0  0999 V2000
   35.3550   29.9790   47.8530 C   0  0  0  0  0  0  0  0  0  0  0  0
   36.3370   30.5080   47.0220 C   0  0  0  0  0  0  0  0  0  0  0  0
   37.4540   30.7690   47.7380 N   0  0  0  0  0  0  0  0  0  0  0  0
   37.2080   30.4170   49.0230 C   0  0  0  0  0  0  0  0  0  0  0  0
   38.0060   30.4760   50.1530 C   0  0  0  0  0  0  0  0  0  0  0  0
   37.4740   30.0350   51.3600 C   0  0  0  0  0  0  0  0  0  0  0  0
   36.1790   29.5510   51.4120 C   0  0  0  0  0  0  0  0  0  0  0  0
   35.3570   29.4820   50.2860 C   0  0  0  0  0  0  0  0  0  0  0  0
   35.9100   29.9250   49.1110 C   0  0  0  0  0  0  0  0  0  0  0  0
   32.1420   29.8950   46.0460 C   0  0  0  0  0  0  0  0  0  0  0  0
   31.5390   28.7510   46.6030 C   0  0  0  0  0  0  0  0  0  0  0  0
   32.2520   28.0440   47.5820 C   0  0  0  0  0  0  0  0  0  0  0  0
   33.4830   28.4940   47.9420 N   0  0  0  0  0  0  0  0  0  0  0  0
   34.0370   29.5920   47.3910 C   0  0  0  0  0  0  0  0  0  0  0  0
   33.3710   30.2880   46.4500 N   0  0  0  0  0  0  0  0  0  0  0  0
   31.6390   26.8570   48.1660 C   0  0  0  0  0  0  0  0  0  0  0  0
   32.1390   25.7600   47.8290 O   0  0  0  0  0  0  0  0  0  0  0  0
   30.5730   26.9890   49.0330 O   0  0  0  0  0  0  0  0  0  0  0  0
   36.2220   30.6874   45.9428 H   0  0  0  0  0  0  0  0  0  0  0  0
   38.3324   31.1638   47.3728 H   0  0  0  0  0  0  0  0  0  0  0  0
   39.0346   30.8619   50.0975 H   0  0  0  0  0  0  0  0  0  0  0  0
   38.0839   30.0711   52.2747 H   0  0  0  0  0  0  0  0  0  0  0  0
   35.7816   29.2071   52.3784 H   0  0  0  0  0  0  0  0  0  0  0  0
   34.3283   29.0959   50.3375 H   0  0  0  0  0  0  0  0  0  0  0  0
   31.6093   30.4732   45.2766 H   0  0  0  0  0  0  0  0  0  0  0  0
   30.5401   28.4222   46.2804 H   0  0  0  0  0  0  0  0  0  0  0  0
   30.1556   26.1841   49.4304 H   0  0  0  0  0  0  0  0  0  0  0  0
  1  9  1  0
  2  3  1  0
  2  1  2  0
  3  4  1  0
  4  9  2  0
  4  5  1  0
  5  6  2  0
  6  7  1  0
  8  7  2  0
  9  8  1  0
 10 15  2  0
 10 11  1  0
 11 12  2  0
 12 13  1  0
 12 16  1  0
 14  1  1  0
 14 13  2  0
 15 14  1  0
 16 18  1  0
 17 16  2  0
  2 19  1  0
  3 20  1  0
  5 21  1  0
  6 22  1  0
  7 23  1  0
  8 24  1  0
 10 25  1  0
 11 26  1  0
 18 27  1  0
M  ISO  8  19  14  20   9  21  14  22  14  23  14  24  14  25  14  26  14
M  ISO  1  27   3
M  END
>  <minimizedAffinity>  (1) 
-5.67852974

>  <minimizedRMSD>  (1) 
1.07706261

$$$$
