
     RDKit          3D

 45 49  0  0  0  0  0  0  0  0999 V2000
   32.2290   30.1380   46.0860 C   0  0  0  0  0  0  0  0  0  0  0  0
   31.8470   28.7980   46.1000 C   0  0  0  0  0  0  0  0  0  0  0  0
   32.7450   27.8740   46.6750 C   0  0  0  0  0  0  0  0  0  0  0  0
   33.9120   28.3190   47.1740 N   0  0  0  0  0  0  0  0  0  0  0  0
   34.2540   29.6370   47.1440 C   0  0  0  0  0  0  0  0  0  0  0  0
   33.4100   30.5380   46.5990 N   0  0  0  0  0  0  0  0  0  0  0  0
   32.3870   26.4650   46.7120 C   0  0  0  0  0  0  0  0  0  0  0  0
   33.1630   25.6070   47.4460 C   0  0  0  0  0  0  0  0  0  0  0  0
   32.7850   24.2880   47.4500 C   0  0  0  0  0  0  0  0  0  0  0  0
   31.6960   23.8500   46.7600 N   0  0  0  0  0  0  0  0  0  0  0  0
   30.9460   24.7290   46.0410 C   0  0  0  0  0  0  0  0  0  0  0  0
   31.3240   26.0290   46.0400 N   0  0  0  0  0  0  0  0  0  0  0  0
   29.7940   24.3400   45.2960 N   0  0  0  0  0  0  0  0  0  0  0  0
   29.4050   23.0450   45.3750 C   0  0  0  0  0  0  0  0  0  0  0  0
   28.2860   22.7010   44.6430 C   0  0  0  0  0  0  0  0  0  0  0  0
   27.7830   21.3030   44.6660 C   0  0  0  0  0  0  0  0  0  0  0  0
   27.6780   23.6970   43.9080 C   0  0  0  0  0  0  0  0  0  0  0  0
   26.6440   23.3720   43.2320 O   0  0  0  0  0  0  0  0  0  0  0  0
   28.0550   24.9760   43.8230 N   0  0  0  0  0  0  0  0  0  0  0  0
   29.1570   25.2700   44.5570 C   0  0  0  0  0  0  0  0  0  0  0  0
   29.5850   26.4700   44.5340 O   0  0  0  0  0  0  0  0  0  0  0  0
   35.5310   30.0140   47.7060 C   0  0  0  0  0  0  0  0  0  0  0  0
   36.5820   30.5600   46.9690 C   0  0  0  0  0  0  0  0  0  0  0  0
   37.6240   30.8010   47.7700 N   0  0  0  0  0  0  0  0  0  0  0  0
   37.2890   30.4270   49.0260 C   0  0  0  0  0  0  0  0  0  0  0  0
   37.9900   30.4610   50.2140 C   0  0  0  0  0  0  0  0  0  0  0  0
   37.3650   29.9960   51.3780 C   0  0  0  0  0  0  0  0  0  0  0  0
   36.0750   29.5160   51.3160 C   0  0  0  0  0  0  0  0  0  0  0  0
   35.3450   29.4690   50.1280 C   0  0  0  0  0  0  0  0  0  0  0  0
   35.9980   29.9400   48.9940 C   0  0  0  0  0  0  0  0  0  0  0  0
   31.5523   30.8858   45.6468 H   0  0  0  0  0  0  0  0  0  0  0  0
   30.8837   28.4735   45.6795 H   0  0  0  0  0  0  0  0  0  0  0  0
   34.0440   25.9576   48.0036 H   0  0  0  0  0  0  0  0  0  0  0  0
   33.3787   23.5638   48.0271 H   0  0  0  0  0  0  0  0  0  0  0  0
   29.9489   22.3102   45.9867 H   0  0  0  0  0  0  0  0  0  0  0  0
   27.6643   20.9731   45.7086 H   0  0  0  0  0  0  0  0  0  0  0  0
   26.8111   21.2545   44.1532 H   0  0  0  0  0  0  0  0  0  0  0  0
   28.5013   20.6464   44.1532 H   0  0  0  0  0  0  0  0  0  0  0  0
   27.5554   25.6736   43.2532 H   0  0  0  0  0  0  0  0  0  0  0  0
   36.5567   30.7623   45.8881 H   0  0  0  0  0  0  0  0  0  0  0  0
   38.5273   31.2026   47.4807 H   0  0  0  0  0  0  0  0  0  0  0  0
   39.0199   30.8459   50.2463 H   0  0  0  0  0  0  0  0  0  0  0  0
   37.9019   30.0140   52.3379 H   0  0  0  0  0  0  0  0  0  0  0  0
   35.6013   29.1551   52.2409 H   0  0  0  0  0  0  0  0  0  0  0  0
   34.3157   29.0829   50.0905 H   0  0  0  0  0  0  0  0  0  0  0  0
  1  2  2  0
  1  6  1  0
  2  3  1  0
  3  7  1  0
  3  4  2  0
  5  4  1  0
  5 22  1  0
  6  5  2  0
  7  8  2  0
  8  9  1  0
 10  9  2  0
 11 10  1  0
 12 11  2  0
 12  7  1  0
 13 14  1  0
 13 11  1  0
 15 16  1  0
 15 14  2  0
 17 15  1  0
 18 17  2  0
 19 17  1  0
 19 20  1  0
 20 13  1  0
 21 20  2  0
 22 30  1  0
 23 22  2  0
 23 24  1  0
 24 25  1  0
 25 26  2  0
 26 27  1  0
 28 27  2  0
 29 28  1  0
 30 25  1  0
 30 29  2  0
  1 31  1  0
  2 32  1  0
  8 33  1  0
  9 34  1  0
 14 35  1  0
 16 36  1  0
 16 37  1  0
 16 38  1  0
 19 39  1  0
 23 40  1  0
 24 41  1  0
 26 42  1  0
 27 43  1  0
 28 44  1  0
 29 45  1  0
M  ISO  8  31  14  32  14  33  14  34  14  35  14  36   8  37   8  38   8
M  ISO  7  39   9  40  14  41   9  42  14  43  14  44  14  45  14
M  END
>  <minimizedAffinity>  (1) 
-6.99706173

>  <minimizedRMSD>  (1) 
0.608748257

$$$$
