
     RDKit          3D

 43 47  0  0  0  0  0  0  0  0999 V2000
   32.2980   29.9200   46.1700 C   0  0  0  0  0  0  0  0  0  0  0  0
   32.0180   28.5560   46.1680 C   0  0  0  0  0  0  0  0  0  0  0  0
   32.9830   27.6980   46.7300 C   0  0  0  0  0  0  0  0  0  0  0  0
   34.1240   28.2130   47.2400 N   0  0  0  0  0  0  0  0  0  0  0  0
   34.3610   29.5550   47.2240 C   0  0  0  0  0  0  0  0  0  0  0  0
   33.4550   30.3960   46.6930 N   0  0  0  0  0  0  0  0  0  0  0  0
   32.7330   26.2580   46.7520 C   0  0  0  0  0  0  0  0  0  0  0  0
   33.6190   25.4390   47.4250 C   0  0  0  0  0  0  0  0  0  0  0  0
   33.3190   24.0980   47.4020 C   0  0  0  0  0  0  0  0  0  0  0  0
   32.2410   23.6000   46.7710 N   0  0  0  0  0  0  0  0  0  0  0  0
   31.3860   24.4420   46.1150 C   0  0  0  0  0  0  0  0  0  0  0  0
   31.6630   25.7660   46.1250 N   0  0  0  0  0  0  0  0  0  0  0  0
   30.2130   24.0580   45.4080 N   0  0  0  0  0  0  0  0  0  0  0  0
   29.6390   25.0050   44.6270 C   0  0  0  0  0  0  0  0  0  0  0  0
   28.4840   24.6720   43.9130 C   0  0  0  0  0  0  0  0  0  0  0  0
   27.9690   23.3970   44.0270 C   0  0  0  0  0  0  0  0  0  0  0  0
   26.8010   23.0450   43.3120 N   0  0  0  0  0  0  0  0  0  0  0  0
   28.5770   22.4790   44.8240 N   0  0  0  0  0  0  0  0  0  0  0  0
   29.7060   22.8000   45.5210 C   0  0  0  0  0  0  0  0  0  0  0  0
   30.2840   21.9520   46.2680 O   0  0  0  0  0  0  0  0  0  0  0  0
   35.6130   30.0250   47.7930 C   0  0  0  0  0  0  0  0  0  0  0  0
   36.6080   30.6510   47.0610 C   0  0  0  0  0  0  0  0  0  0  0  0
   37.6360   30.9640   47.8640 N   0  0  0  0  0  0  0  0  0  0  0  0
   37.3280   30.5520   49.1190 C   0  0  0  0  0  0  0  0  0  0  0  0
   38.0280   30.6260   50.3220 C   0  0  0  0  0  0  0  0  0  0  0  0
   37.4420   30.1070   51.4620 C   0  0  0  0  0  0  0  0  0  0  0  0
   36.1880   29.5300   51.3920 C   0  0  0  0  0  0  0  0  0  0  0  0
   35.4690   29.4430   50.2050 C   0  0  0  0  0  0  0  0  0  0  0  0
   36.0680   29.9660   49.0750 C   0  0  0  0  0  0  0  0  0  0  0  0
   31.5689   30.6227   45.7404 H   0  0  0  0  0  0  0  0  0  0  0  0
   31.0812   28.1646   45.7447 H   0  0  0  0  0  0  0  0  0  0  0  0
   34.5048   25.8336   47.9442 H   0  0  0  0  0  0  0  0  0  0  0  0
   33.9911   23.4005   47.9233 H   0  0  0  0  0  0  0  0  0  0  0  0
   30.0723   26.0136   44.5563 H   0  0  0  0  0  0  0  0  0  0  0  0
   27.9926   25.4163   43.2692 H   0  0  0  0  0  0  0  0  0  0  0  0
   26.4136   22.0942   43.3945 H   0  0  0  0  0  0  0  0  0  0  0  0
   26.3376   23.7394   42.7086 H   0  0  0  0  0  0  0  0  0  0  0  0
   36.5622   30.8604   45.9821 H   0  0  0  0  0  0  0  0  0  0  0  0
   38.5064   31.4346   47.5778 H   0  0  0  0  0  0  0  0  0  0  0  0
   39.0256   31.0875   50.3637 H   0  0  0  0  0  0  0  0  0  0  0  0
   37.9736   30.1533   52.4239 H   0  0  0  0  0  0  0  0  0  0  0  0
   35.7412   29.1237   52.3114 H   0  0  0  0  0  0  0  0  0  0  0  0
   34.4718   28.9803   50.1674 H   0  0  0  0  0  0  0  0  0  0  0  0
  1  6  2  0
  2  1  1  0
  2  3  2  0
  3  7  1  0
  3  4  1  0
  5  4  2  0
  5 21  1  0
  6  5  1  0
  7  8  2  0
  9  8  1  0
 10  9  2  0
 11 12  2  0
 11 10  1  0
 12  7  1  0
 13 19  1  0
 13 11  1  0
 14 13  1  0
 15 16  1  0
 15 14  2  0
 16 18  2  0
 17 16  1  0
 18 19  1  0
 19 20  2  0
 21 29  1  0
 22 21  2  0
 22 23  1  0
 23 24  1  0
 24 25  2  0
 25 26  1  0
 27 26  2  0
 28 27  1  0
 29 24  1  0
 29 28  2  0
  1 30  1  0
  2 31  1  0
  8 32  1  0
  9 33  1  0
 14 34  1  0
 15 35  1  0
 17 36  1  0
 17 37  1  0
 22 38  1  0
 23 39  1  0
 25 40  1  0
 26 41  1  0
 27 42  1  0
 28 43  1  0
M  ISO  8  30  14  31  14  32  14  33  14  34  14  35  14  38  14  39   9
M  ISO  4  40  14  41  14  42  14  43  14
M  END
>  <minimizedAffinity>  (1) 
-6.73462963

>  <minimizedRMSD>  (1) 
0.420885026

$$$$
