
     RDKit          3D

 44 48  0  0  0  0  0  0  0  0999 V2000
   32.3170   30.1070   46.0990 C   0  0  0  0  0  0  0  0  0  0  0  0
   31.9750   28.7540   46.0990 C   0  0  0  0  0  0  0  0  0  0  0  0
   32.8760   27.8520   46.6650 C   0  0  0  0  0  0  0  0  0  0  0  0
   34.0420   28.3140   47.1910 N   0  0  0  0  0  0  0  0  0  0  0  0
   34.3480   29.6370   47.1750 C   0  0  0  0  0  0  0  0  0  0  0  0
   33.4930   30.5210   46.6350 N   0  0  0  0  0  0  0  0  0  0  0  0
   35.6150   30.0350   47.7610 C   0  0  0  0  0  0  0  0  0  0  0  0
   36.6530   30.6040   47.0280 C   0  0  0  0  0  0  0  0  0  0  0  0
   37.6850   30.8590   47.8500 N   0  0  0  0  0  0  0  0  0  0  0  0
   37.3450   30.4700   49.1030 C   0  0  0  0  0  0  0  0  0  0  0  0
   38.0420   30.5140   50.2910 C   0  0  0  0  0  0  0  0  0  0  0  0
   37.4140   30.0300   51.4360 C   0  0  0  0  0  0  0  0  0  0  0  0
   36.1340   29.5250   51.3600 C   0  0  0  0  0  0  0  0  0  0  0  0
   35.4160   29.4720   50.1660 C   0  0  0  0  0  0  0  0  0  0  0  0
   36.0560   29.9550   49.0530 C   0  0  0  0  0  0  0  0  0  0  0  0
   32.5630   26.4280   46.6890 C   0  0  0  0  0  0  0  0  0  0  0  0
   33.5310   25.5260   47.0870 C   0  0  0  0  0  0  0  0  0  0  0  0
   33.1470   24.2120   47.0780 C   0  0  0  0  0  0  0  0  0  0  0  0
   31.9070   23.8000   46.7080 N   0  0  0  0  0  0  0  0  0  0  0  0
   30.9800   24.7120   46.3230 C   0  0  0  0  0  0  0  0  0  0  0  0
   31.3300   26.0370   46.3200 N   0  0  0  0  0  0  0  0  0  0  0  0
   29.6500   24.4160   45.9130 N   0  0  0  0  0  0  0  0  0  0  0  0
   28.4980   25.2860   45.7600 C   0  0  0  0  0  0  0  0  0  0  0  0
   28.1500   24.9780   44.2990 C   0  0  0  0  0  0  0  0  0  0  0  0
   28.4150   23.4750   44.2140 C   0  0  0  0  0  0  0  0  0  0  0  0
   29.1000   23.1280   45.5350 C   0  0  0  0  0  0  0  0  0  0  0  0
   31.6277   30.8439   45.6610 H   0  0  0  0  0  0  0  0  0  0  0  0
   31.0243   28.4095   45.6660 H   0  0  0  0  0  0  0  0  0  0  0  0
   36.6317   30.8117   45.9480 H   0  0  0  0  0  0  0  0  0  0  0  0
   38.5838   31.2796   47.5741 H   0  0  0  0  0  0  0  0  0  0  0  0
   39.0637   30.9192   50.3337 H   0  0  0  0  0  0  0  0  0  0  0  0
   37.9401   30.0508   52.4018 H   0  0  0  0  0  0  0  0  0  0  0  0
   35.6597   29.1486   52.2783 H   0  0  0  0  0  0  0  0  0  0  0  0
   34.3947   29.0661   50.1192 H   0  0  0  0  0  0  0  0  0  0  0  0
   34.5402   25.8418   47.3901 H   0  0  0  0  0  0  0  0  0  0  0  0
   33.8798   23.4516   47.3860 H   0  0  0  0  0  0  0  0  0  0  0  0
   27.6815   25.0118   46.4442 H   0  0  0  0  0  0  0  0  0  0  0  0
   28.6757   26.3473   45.9881 H   0  0  0  0  0  0  0  0  0  0  0  0
   27.0968   25.2102   44.0824 H   0  0  0  0  0  0  0  0  0  0  0  0
   28.7271   25.5699   43.5734 H   0  0  0  0  0  0  0  0  0  0  0  0
   27.4712   22.9198   44.1086 H   0  0  0  0  0  0  0  0  0  0  0  0
   29.0313   23.2091   43.3425 H   0  0  0  0  0  0  0  0  0  0  0  0
   28.3777   22.7635   46.2803 H   0  0  0  0  0  0  0  0  0  0  0  0
   29.8457   22.3229   45.4594 H   0  0  0  0  0  0  0  0  0  0  0  0
  1  6  2  0
  2  1  1  0
  2  3  2  0
  3 16  1  0
  3  4  1  0
  5  4  2  0
  5  7  1  0
  6  5  1  0
  7 15  1  0
  8  7  2  0
  8  9  1  0
  9 10  1  0
 10 11  2  0
 11 12  1  0
 13 12  2  0
 14 13  1  0
 15 10  1  0
 15 14  2  0
 16 17  2  0
 18 17  1  0
 19 18  2  0
 20 19  1  0
 21 20  2  0
 21 16  1  0
 22 20  1  0
 23 22  1  0
 24 23  1  0
 25 24  1  0
 25 26  1  0
 26 22  1  0
  1 27  1  0
  2 28  1  0
  8 29  1  0
  9 30  1  0
 11 31  1  0
 12 32  1  0
 13 33  1  0
 14 34  1  0
 17 35  1  0
 18 36  1  0
 23 37  1  0
 23 38  1  0
 24 39  1  0
 24 40  1  0
 25 41  1  0
 25 42  1  0
 26 43  1  0
 26 44  1  0
M  ISO  8  27  14  28  14  29  14  30   9  31  14  32  14  33  14  34  14
M  ISO  8  35  14  36  14  37  13  38  13  39  13  40  13  41  13  42  13
M  ISO  2  43  13  44  13
M  END
>  <minimizedAffinity>  (1) 
-6.54484797

>  <minimizedRMSD>  (1) 
0.319764555

$$$$
