
     RDKit          3D

 48 52  0  0  0  0  0  0  0  0999 V2000
   32.2240   30.1060   46.0880 C   0  0  0  0  0  0  0  0  0  0  0  0
   31.8580   28.7560   46.1020 C   0  0  0  0  0  0  0  0  0  0  0  0
   32.7570   27.8440   46.6670 C   0  0  0  0  0  0  0  0  0  0  0  0
   33.9320   28.2930   47.1740 N   0  0  0  0  0  0  0  0  0  0  0  0
   34.2620   29.6240   47.1450 C   0  0  0  0  0  0  0  0  0  0  0  0
   33.4040   30.5130   46.6030 N   0  0  0  0  0  0  0  0  0  0  0  0
   35.5360   30.0110   47.7090 C   0  0  0  0  0  0  0  0  0  0  0  0
   36.5740   30.5600   46.9730 C   0  0  0  0  0  0  0  0  0  0  0  0
   37.6180   30.8090   47.7760 N   0  0  0  0  0  0  0  0  0  0  0  0
   37.2820   30.4320   49.0350 C   0  0  0  0  0  0  0  0  0  0  0  0
   37.9980   30.4790   50.2190 C   0  0  0  0  0  0  0  0  0  0  0  0
   37.3680   30.0060   51.3750 C   0  0  0  0  0  0  0  0  0  0  0  0
   36.0740   29.5110   51.3210 C   0  0  0  0  0  0  0  0  0  0  0  0
   35.3430   29.4600   50.1310 C   0  0  0  0  0  0  0  0  0  0  0  0
   35.9950   29.9370   48.9980 C   0  0  0  0  0  0  0  0  0  0  0  0
   32.4220   26.4220   46.7060 C   0  0  0  0  0  0  0  0  0  0  0  0
   33.1970   25.5750   47.4640 C   0  0  0  0  0  0  0  0  0  0  0  0
   32.8200   24.2480   47.4520 C   0  0  0  0  0  0  0  0  0  0  0  0
   31.7630   23.8020   46.7460 N   0  0  0  0  0  0  0  0  0  0  0  0
   31.0150   24.6780   46.0020 C   0  0  0  0  0  0  0  0  0  0  0  0
   31.3770   25.9810   46.0080 N   0  0  0  0  0  0  0  0  0  0  0  0
   29.8600   24.2180   45.2260 C   0  0  0  0  0  0  0  0  0  0  0  0
   29.3710   22.8420   45.6030 C   0  0  0  0  0  0  0  0  0  0  0  0
   28.1970   22.5080   44.7080 C   0  0  0  0  0  0  0  0  0  0  0  0
   27.9810   23.5250   43.6100 C   0  0  0  0  0  0  0  0  0  0  0  0
   27.7990   24.9200   44.1640 C   0  0  0  0  0  0  0  0  0  0  0  0
   28.6700   25.1570   45.3800 C   0  0  0  0  0  0  0  0  0  0  0  0
   31.5397   30.8478   45.6505 H   0  0  0  0  0  0  0  0  0  0  0  0
   30.8969   28.4226   45.6835 H   0  0  0  0  0  0  0  0  0  0  0  0
   36.5454   30.7612   45.8919 H   0  0  0  0  0  0  0  0  0  0  0  0
   38.5190   31.2160   47.4872 H   0  0  0  0  0  0  0  0  0  0  0  0
   39.0243   30.8737   50.2496 H   0  0  0  0  0  0  0  0  0  0  0  0
   37.9040   30.0270   52.3354 H   0  0  0  0  0  0  0  0  0  0  0  0
   35.6064   29.1456   52.2472 H   0  0  0  0  0  0  0  0  0  0  0  0
   34.3162   29.0673   50.0924 H   0  0  0  0  0  0  0  0  0  0  0  0
   34.0616   25.9328   48.0424 H   0  0  0  0  0  0  0  0  0  0  0  0
   33.4049   23.5266   48.0415 H   0  0  0  0  0  0  0  0  0  0  0  0
   30.2327   24.1971   44.1913 H   0  0  0  0  0  0  0  0  0  0  0  0
   30.1750   22.1057   45.4563 H   0  0  0  0  0  0  0  0  0  0  0  0
   29.0679   22.8178   46.6601 H   0  0  0  0  0  0  0  0  0  0  0  0
   28.3773   21.5263   44.2456 H   0  0  0  0  0  0  0  0  0  0  0  0
   27.2945   22.5071   45.3369 H   0  0  0  0  0  0  0  0  0  0  0  0
   27.0817   23.2481   43.0402 H   0  0  0  0  0  0  0  0  0  0  0  0
   28.8726   23.5268   42.9657 H   0  0  0  0  0  0  0  0  0  0  0  0
   28.0663   25.6503   43.3861 H   0  0  0  0  0  0  0  0  0  0  0  0
   26.7478   25.0345   44.4672 H   0  0  0  0  0  0  0  0  0  0  0  0
   28.1146   24.9241   46.3005 H   0  0  0  0  0  0  0  0  0  0  0  0
   28.9890   26.2073   45.4517 H   0  0  0  0  0  0  0  0  0  0  0  0
  1  2  2  0
  1  6  1  0
  2  3  1  0
  3 16  1  0
  3  4  2  0
  5  4  1  0
  5  7  1  0
  6  5  2  0
  7 15  1  0
  8  7  2  0
  8  9  1  0
  9 10  1  0
 10 11  2  0
 11 12  1  0
 13 12  2  0
 14 13  1  0
 15 10  1  0
 15 14  2  0
 16 17  2  0
 18 17  1  0
 19 18  2  0
 20 21  2  0
 20 19  1  0
 21 16  1  0
 22 27  1  0
 22 23  1  0
 22 20  1  0
 24 23  1  0
 25 26  1  0
 25 24  1  0
 26 27  1  0
  1 28  1  0
  2 29  1  0
  8 30  1  0
  9 31  1  0
 11 32  1  0
 12 33  1  0
 13 34  1  0
 14 35  1  0
 17 36  1  0
 18 37  1  0
 22 38  1  0
 23 39  1  0
 23 40  1  0
 24 41  1  0
 24 42  1  0
 25 43  1  0
 25 44  1  0
 26 45  1  0
 26 46  1  0
 27 47  1  0
 27 48  1  0
M  ISO  8  28  14  29  14  30  14  31   9  32  14  33  14  34  14  35  14
M  ISO  8  36  14  37  14  38  13  39  13  40  13  41  13  42  13  43  13
M  ISO  5  44  13  45  13  46  13  47  13  48  13
M  END
>  <minimizedAffinity>  (1) 
-6.51120901

>  <minimizedRMSD>  (1) 
0.655874729

$$$$
