
     RDKit          3D

 38 42  0  0  0  0  0  0  0  0999 V2000
   32.3780   29.9150   46.1540 C   0  0  0  0  0  0  0  0  0  0  0  0
   32.1100   28.5440   46.1770 C   0  0  0  0  0  0  0  0  0  0  0  0
   33.0650   27.7040   46.7610 C   0  0  0  0  0  0  0  0  0  0  0  0
   34.2000   28.2330   47.2790 N   0  0  0  0  0  0  0  0  0  0  0  0
   34.4310   29.5730   47.2400 C   0  0  0  0  0  0  0  0  0  0  0  0
   33.5270   30.3990   46.6820 N   0  0  0  0  0  0  0  0  0  0  0  0
   35.6710   30.0580   47.8150 C   0  0  0  0  0  0  0  0  0  0  0  0
   36.6550   30.7020   47.0980 C   0  0  0  0  0  0  0  0  0  0  0  0
   37.6710   31.0240   47.9140 N   0  0  0  0  0  0  0  0  0  0  0  0
   37.3630   30.5980   49.1620 C   0  0  0  0  0  0  0  0  0  0  0  0
   38.0630   30.6820   50.3530 C   0  0  0  0  0  0  0  0  0  0  0  0
   37.4780   30.1420   51.4980 C   0  0  0  0  0  0  0  0  0  0  0  0
   36.2300   29.5410   51.4260 C   0  0  0  0  0  0  0  0  0  0  0  0
   35.5250   29.4570   50.2240 C   0  0  0  0  0  0  0  0  0  0  0  0
   36.1290   29.9990   49.1140 C   0  0  0  0  0  0  0  0  0  0  0  0
   32.8160   26.2660   46.8020 C   0  0  0  0  0  0  0  0  0  0  0  0
   33.7720   25.4500   47.3780 C   0  0  0  0  0  0  0  0  0  0  0  0
   33.4660   24.1050   47.3790 C   0  0  0  0  0  0  0  0  0  0  0  0
   32.3260   23.6120   46.8620 N   0  0  0  0  0  0  0  0  0  0  0  0
   31.4050   24.4390   46.3040 C   0  0  0  0  0  0  0  0  0  0  0  0
   31.6820   25.7790   46.2880 N   0  0  0  0  0  0  0  0  0  0  0  0
   30.1680   24.0940   45.7210 N   0  0  0  0  0  0  0  0  0  0  0  0
   29.2590   25.0230   45.3320 C   0  0  0  0  0  0  0  0  0  0  0  0
   28.2040   24.3640   44.8240 N   0  0  0  0  0  0  0  0  0  0  0  0
   28.4380   23.0430   44.8870 C   0  0  0  0  0  0  0  0  0  0  0  0
   29.6700   22.8770   45.4510 N   0  0  0  0  0  0  0  0  0  0  0  0
   31.6503   30.6062   45.7037 H   0  0  0  0  0  0  0  0  0  0  0  0
   31.1804   28.1388   45.7508 H   0  0  0  0  0  0  0  0  0  0  0  0
   36.6144   30.9194   46.0205 H   0  0  0  0  0  0  0  0  0  0  0  0
   38.5357   31.5111   47.6384 H   0  0  0  0  0  0  0  0  0  0  0  0
   39.0524   31.1609   50.3952 H   0  0  0  0  0  0  0  0  0  0  0  0
   38.0077   30.1928   52.4607 H   0  0  0  0  0  0  0  0  0  0  0  0
   35.7844   29.1198   52.3393 H   0  0  0  0  0  0  0  0  0  0  0  0
   34.5351   28.9807   50.1676 H   0  0  0  0  0  0  0  0  0  0  0  0
   34.7067   25.8439   47.8036 H   0  0  0  0  0  0  0  0  0  0  0  0
   34.1873   23.4032   47.8230 H   0  0  0  0  0  0  0  0  0  0  0  0
   29.3660   26.1145   45.4168 H   0  0  0  0  0  0  0  0  0  0  0  0
   27.7628   22.2438   44.5474 H   0  0  0  0  0  0  0  0  0  0  0  0
  1  2  2  0
  1  6  1  0
  2  3  1  0
  3 16  1  0
  3  4  2  0
  5  4  1  0
  5  7  1  0
  6  5  2  0
  7 15  1  0
  8  7  2  0
  8  9  1  0
  9 10  1  0
 10 11  2  0
 11 12  1  0
 13 12  2  0
 14 13  1  0
 15 10  1  0
 15 14  2  0
 16 17  2  0
 17 18  1  0
 19 18  2  0
 20 19  1  0
 21 20  2  0
 21 16  1  0
 22 20  1  0
 23 22  1  0
 24 25  1  0
 24 23  2  0
 25 26  2  0
 26 22  1  0
  1 27  1  0
  2 28  1  0
  8 29  1  0
  9 30  1  0
 11 31  1  0
 12 32  1  0
 13 33  1  0
 14 34  1  0
 17 35  1  0
 18 36  1  0
 23 37  1  0
 25 38  1  0
M  ISO  8  27  14  28  14  29  14  30   9  31  14  32  14  33  14  34  14
M  ISO  4  35  14  36  14  37  14  38  14
M  END
>  <minimizedAffinity>  (1) 
-6.39745426

>  <minimizedRMSD>  (1) 
0.158803999

$$$$
