
     RDKit          3D

 41 45  0  0  0  0  0  0  0  0999 V2000
   32.3330   29.8810   46.1710 C   0  0  0  0  0  0  0  0  0  0  0  0
   32.0710   28.5070   46.1810 C   0  0  0  0  0  0  0  0  0  0  0  0
   33.0350   27.6670   46.7510 C   0  0  0  0  0  0  0  0  0  0  0  0
   34.1620   28.2150   47.2590 N   0  0  0  0  0  0  0  0  0  0  0  0
   34.3870   29.5510   47.2350 C   0  0  0  0  0  0  0  0  0  0  0  0
   33.4770   30.3790   46.6940 N   0  0  0  0  0  0  0  0  0  0  0  0
   35.6340   30.0350   47.8100 C   0  0  0  0  0  0  0  0  0  0  0  0
   36.6260   30.6750   47.0860 C   0  0  0  0  0  0  0  0  0  0  0  0
   37.6450   30.9980   47.8900 N   0  0  0  0  0  0  0  0  0  0  0  0
   37.3410   30.5790   49.1390 C   0  0  0  0  0  0  0  0  0  0  0  0
   38.0400   30.6590   50.3340 C   0  0  0  0  0  0  0  0  0  0  0  0
   37.4660   30.1310   51.4770 C   0  0  0  0  0  0  0  0  0  0  0  0
   36.2220   29.5400   51.4030 C   0  0  0  0  0  0  0  0  0  0  0  0
   35.4970   29.4430   50.2190 C   0  0  0  0  0  0  0  0  0  0  0  0
   36.0950   29.9780   49.1050 C   0  0  0  0  0  0  0  0  0  0  0  0
   32.8090   26.2280   46.7860 C   0  0  0  0  0  0  0  0  0  0  0  0
   33.7420   25.4200   47.4000 C   0  0  0  0  0  0  0  0  0  0  0  0
   33.4560   24.0680   47.3910 C   0  0  0  0  0  0  0  0  0  0  0  0
   32.3390   23.5630   46.8210 N   0  0  0  0  0  0  0  0  0  0  0  0
   31.4450   24.3950   46.2250 C   0  0  0  0  0  0  0  0  0  0  0  0
   31.7030   25.7220   46.2210 N   0  0  0  0  0  0  0  0  0  0  0  0
   30.2230   23.9110   45.5940 C   0  0  0  0  0  0  0  0  0  0  0  0
   29.8960   22.5720   45.6510 C   0  0  0  0  0  0  0  0  0  0  0  0
   28.7910   21.9680   45.1110 C   0  0  0  0  0  0  0  0  0  0  0  0
   27.9240   22.8350   44.4370 C   0  0  0  0  0  0  0  0  0  0  0  0
   28.2350   24.1870   44.3680 C   0  0  0  0  0  0  0  0  0  0  0  0
   29.3570   24.7220   44.9310 N   0  0  0  0  0  0  0  0  0  0  0  0
   31.5961   30.5685   45.7302 H   0  0  0  0  0  0  0  0  0  0  0  0
   31.1410   28.1012   45.7563 H   0  0  0  0  0  0  0  0  0  0  0  0
   36.5823   30.8868   46.0075 H   0  0  0  0  0  0  0  0  0  0  0  0
   38.5096   31.4812   47.6072 H   0  0  0  0  0  0  0  0  0  0  0  0
   39.0318   31.1331   50.3725 H   0  0  0  0  0  0  0  0  0  0  0  0
   37.9983   30.1823   52.4383 H   0  0  0  0  0  0  0  0  0  0  0  0
   35.7825   29.1261   52.3225 H   0  0  0  0  0  0  0  0  0  0  0  0
   34.5061   28.9671   50.1783 H   0  0  0  0  0  0  0  0  0  0  0  0
   34.6529   25.8242   47.8658 H   0  0  0  0  0  0  0  0  0  0  0  0
   34.1656   23.3750   47.8667 H   0  0  0  0  0  0  0  0  0  0  0  0
   30.5987   21.9182   46.1883 H   0  0  0  0  0  0  0  0  0  0  0  0
   28.6008   20.8882   45.2002 H   0  0  0  0  0  0  0  0  0  0  0  0
   27.0067   22.4504   43.9672 H   0  0  0  0  0  0  0  0  0  0  0  0
   27.5449   24.8574   43.8348 H   0  0  0  0  0  0  0  0  0  0  0  0
  1  2  2  0
  1  6  1  0
  2  3  1  0
  3 16  1  0
  3  4  2  0
  5  4  1  0
  5  7  1  0
  6  5  2  0
  7 15  1  0
  8  7  2  0
  8  9  1  0
  9 10  1  0
 10 11  2  0
 11 12  1  0
 13 12  2  0
 14 13  1  0
 15 10  1  0
 15 14  2  0
 16 17  2  0
 18 17  1  0
 19 18  2  0
 20 19  1  0
 21 20  2  0
 21 16  1  0
 22 23  2  0
 22 20  1  0
 24 23  1  0
 25 24  2  0
 26 25  1  0
 26 27  2  0
 27 22  1  0
  1 28  1  0
  2 29  1  0
  8 30  1  0
  9 31  1  0
 11 32  1  0
 12 33  1  0
 13 34  1  0
 14 35  1  0
 17 36  1  0
 18 37  1  0
 23 38  1  0
 24 39  1  0
 25 40  1  0
 26 41  1  0
M  ISO  8  28  14  29  14  30  14  31   9  32  14  33  14  34  14  35  14
M  ISO  6  36  14  37  14  38  14  39  14  40  14  41  14
M  END
>  <minimizedAffinity>  (1) 
-6.30876303

>  <minimizedRMSD>  (1) 
0.684164226

$$$$
