
     RDKit          3D

 37 41  0  0  0  0  0  0  0  0999 V2000
   32.3660   29.9550   46.1530 C   0  0  0  0  0  0  0  0  0  0  0  0
   32.0850   28.5890   46.1700 C   0  0  0  0  0  0  0  0  0  0  0  0
   33.0410   27.7340   46.7520 C   0  0  0  0  0  0  0  0  0  0  0  0
   34.1720   28.2610   47.2620 N   0  0  0  0  0  0  0  0  0  0  0  0
   34.4170   29.5960   47.2320 C   0  0  0  0  0  0  0  0  0  0  0  0
   33.5200   30.4340   46.6820 N   0  0  0  0  0  0  0  0  0  0  0  0
   35.6640   30.0680   47.8070 C   0  0  0  0  0  0  0  0  0  0  0  0
   36.6630   30.7030   47.0930 C   0  0  0  0  0  0  0  0  0  0  0  0
   37.6830   31.0150   47.9130 N   0  0  0  0  0  0  0  0  0  0  0  0
   37.3700   30.5920   49.1570 C   0  0  0  0  0  0  0  0  0  0  0  0
   38.0660   30.6640   50.3590 C   0  0  0  0  0  0  0  0  0  0  0  0
   37.4780   30.1330   51.4920 C   0  0  0  0  0  0  0  0  0  0  0  0
   36.2250   29.5490   51.4160 C   0  0  0  0  0  0  0  0  0  0  0  0
   35.5140   29.4690   50.2180 C   0  0  0  0  0  0  0  0  0  0  0  0
   36.1250   30.0050   49.1050 C   0  0  0  0  0  0  0  0  0  0  0  0
   32.7850   26.3050   46.7870 C   0  0  0  0  0  0  0  0  0  0  0  0
   33.7250   25.4740   47.3420 C   0  0  0  0  0  0  0  0  0  0  0  0
   33.4300   24.1280   47.3490 C   0  0  0  0  0  0  0  0  0  0  0  0
   32.2750   23.6420   46.8380 N   0  0  0  0  0  0  0  0  0  0  0  0
   31.3630   24.4910   46.2950 C   0  0  0  0  0  0  0  0  0  0  0  0
   31.6430   25.8250   46.2810 N   0  0  0  0  0  0  0  0  0  0  0  0
   30.0840   24.1060   45.7100 C   0  0  0  0  0  0  0  0  0  0  0  0
   29.0100   24.6980   45.1620 N   0  0  0  0  0  0  0  0  0  0  0  0
   28.1550   23.7900   44.8120 O   0  0  0  0  0  0  0  0  0  0  0  0
   28.6160   22.6030   45.1060 C   0  0  0  0  0  0  0  0  0  0  0  0
   29.8420   22.7810   45.6790 N   0  0  0  0  0  0  0  0  0  0  0  0
   31.6431   30.6527   45.7052 H   0  0  0  0  0  0  0  0  0  0  0  0
   31.1508   28.1938   45.7444 H   0  0  0  0  0  0  0  0  0  0  0  0
   36.6290   30.9207   46.0153 H   0  0  0  0  0  0  0  0  0  0  0  0
   38.5528   31.4940   47.6393 H   0  0  0  0  0  0  0  0  0  0  0  0
   39.0603   31.1321   50.4070 H   0  0  0  0  0  0  0  0  0  0  0  0
   38.0067   30.1746   52.4557 H   0  0  0  0  0  0  0  0  0  0  0  0
   35.7751   29.1344   52.3302 H   0  0  0  0  0  0  0  0  0  0  0  0
   34.5190   29.0030   50.1648 H   0  0  0  0  0  0  0  0  0  0  0  0
   34.6656   25.8622   47.7598 H   0  0  0  0  0  0  0  0  0  0  0  0
   34.1567   23.4260   47.7839 H   0  0  0  0  0  0  0  0  0  0  0  0
   28.1115   21.6423   44.9258 H   0  0  0  0  0  0  0  0  0  0  0  0
  1  2  2  0
  1  6  1  0
  2  3  1  0
  3 16  1  0
  3  4  2  0
  5  4  1  0
  5  7  1  0
  6  5  2  0
  7 15  1  0
  8  7  2  0
  8  9  1  0
  9 10  1  0
 10 11  2  0
 11 12  1  0
 13 12  2  0
 14 13  1  0
 15 10  1  0
 15 14  2  0
 16 17  2  0
 17 18  1  0
 19 18  2  0
 20 19  1  0
 21 20  2  0
 21 16  1  0
 22 20  1  0
 23 22  2  0
 24 25  1  0
 24 23  1  0
 25 26  2  0
 26 22  1  0
  1 27  1  0
  2 28  1  0
  8 29  1  0
  9 30  1  0
 11 31  1  0
 12 32  1  0
 13 33  1  0
 14 34  1  0
 17 35  1  0
 18 36  1  0
 25 37  1  0
M  ISO  8  27  14  28  14  29  14  30   9  31  14  32  14  33  14  34  14
M  ISO  3  35  14  36  14  37  14
M  END
>  <minimizedAffinity>  (1) 
-6.10934305

>  <minimizedRMSD>  (1) 
0.499854207

$$$$
