
     RDKit          3D

 45 49  0  0  0  0  0  0  0  0999 V2000
   32.1430   30.4910   46.0560 C   0  0  0  0  0  0  0  0  0  0  0  0
   31.6730   29.1740   45.9970 C   0  0  0  0  0  0  0  0  0  0  0  0
   32.5170   28.1610   46.5010 C   0  0  0  0  0  0  0  0  0  0  0  0
   33.7180   28.5000   47.0100 N   0  0  0  0  0  0  0  0  0  0  0  0
   34.1460   29.7940   47.0520 C   0  0  0  0  0  0  0  0  0  0  0  0
   33.3610   30.7770   46.5780 N   0  0  0  0  0  0  0  0  0  0  0  0
   35.4530   30.0480   47.6180 C   0  0  0  0  0  0  0  0  0  0  0  0
   36.5410   30.5030   46.8900 C   0  0  0  0  0  0  0  0  0  0  0  0
   37.6040   30.6390   47.6990 N   0  0  0  0  0  0  0  0  0  0  0  0
   37.2340   30.2800   48.9570 C   0  0  0  0  0  0  0  0  0  0  0  0
   37.9390   30.2370   50.1490 C   0  0  0  0  0  0  0  0  0  0  0  0
   37.2650   29.8150   51.2990 C   0  0  0  0  0  0  0  0  0  0  0  0
   35.9380   29.4560   51.2210 C   0  0  0  0  0  0  0  0  0  0  0  0
   35.2090   29.4910   50.0300 C   0  0  0  0  0  0  0  0  0  0  0  0
   35.9020   29.9150   48.9020 C   0  0  0  0  0  0  0  0  0  0  0  0
   32.0680   26.7820   46.4600 C   0  0  0  0  0  0  0  0  0  0  0  0
   32.9900   25.7850   46.6180 C   0  0  0  0  0  0  0  0  0  0  0  0
   32.4910   24.4960   46.5670 C   0  0  0  0  0  0  0  0  0  0  0  0
   31.1670   24.2350   46.3740 N   0  0  0  0  0  0  0  0  0  0  0  0
   30.2820   25.2460   46.2220 C   0  0  0  0  0  0  0  0  0  0  0  0
   30.7880   26.4980   46.2740 N   0  0  0  0  0  0  0  0  0  0  0  0
   28.8360   24.9960   46.0090 C   0  0  0  0  0  0  0  0  0  0  0  0
   28.2310   26.0700   45.1300 C   0  0  0  0  0  0  0  0  0  0  0  0
   28.7130   25.6650   43.7550 C   0  0  0  0  0  0  0  0  0  0  0  0
   28.8910   24.1690   43.8080 C   0  0  0  0  0  0  0  0  0  0  0  0
   28.5760   23.7490   45.2220 C   0  0  0  0  0  0  0  0  0  0  0  0
   31.5136   31.3076   45.6724 H   0  0  0  0  0  0  0  0  0  0  0  0
   30.6852   28.9377   45.5747 H   0  0  0  0  0  0  0  0  0  0  0  0
   36.5347   30.7201   45.8116 H   0  0  0  0  0  0  0  0  0  0  0  0
   38.5404   30.9606   47.4149 H   0  0  0  0  0  0  0  0  0  0  0  0
   38.9994   30.5268   50.1895 H   0  0  0  0  0  0  0  0  0  0  0  0
   37.7931   29.7699   52.2629 H   0  0  0  0  0  0  0  0  0  0  0  0
   35.4286   29.1266   52.1386 H   0  0  0  0  0  0  0  0  0  0  0  0
   34.1490   29.2002   49.9872 H   0  0  0  0  0  0  0  0  0  0  0  0
   34.0584   25.9942   46.7753 H   0  0  0  0  0  0  0  0  0  0  0  0
   33.1866   23.6523   46.6863 H   0  0  0  0  0  0  0  0  0  0  0  0
   28.4126   24.9484   47.0231 H   0  0  0  0  0  0  0  0  0  0  0  0
   27.1325   26.0601   45.1867 H   0  0  0  0  0  0  0  0  0  0  0  0
   28.5213   27.0914   45.4170 H   0  0  0  0  0  0  0  0  0  0  0  0
   29.6694   26.1569   43.5238 H   0  0  0  0  0  0  0  0  0  0  0  0
   27.9996   25.9610   42.9718 H   0  0  0  0  0  0  0  0  0  0  0  0
   28.2021   23.6794   43.1039 H   0  0  0  0  0  0  0  0  0  0  0  0
   29.9144   23.8804   43.5264 H   0  0  0  0  0  0  0  0  0  0  0  0
   27.5264   23.4335   45.3163 H   0  0  0  0  0  0  0  0  0  0  0  0
   29.1721   22.8893   45.5621 H   0  0  0  0  0  0  0  0  0  0  0  0
  1  6  2  0
  2  1  1  0
  2  3  2  0
  3  4  1  0
  4  5  2  0
  5  7  1  0
  6  5  1  0
  7 15  1  0
  8  7  2  0
  8  9  1  0
  9 10  1  0
 10 11  2  0
 11 12  1  0
 13 12  2  0
 14 13  1  0
 15 10  1  0
 15 14  2  0
 16  3  1  0
 16 17  2  0
 18 17  1  0
 19 18  2  0
 20 21  2  0
 20 19  1  0
 21 16  1  0
 22 20  1  0
 23 22  1  0
 24 25  1  0
 24 23  1  0
 25 26  1  0
 26 22  1  0
  1 27  1  0
  2 28  1  0
  8 29  1  0
  9 30  1  0
 11 31  1  0
 12 32  1  0
 13 33  1  0
 14 34  1  0
 17 35  1  0
 18 36  1  0
 22 37  1  0
 23 38  1  0
 23 39  1  0
 24 40  1  0
 24 41  1  0
 25 42  1  0
 25 43  1  0
 26 44  1  0
 26 45  1  0
M  ISO  8  27  14  28  14  29  14  30   9  31  14  32  14  33  14  34  14
M  ISO  8  35  14  36  14  37  13  38  13  39  13  40  13  41  13  42  13
M  ISO  3  43  13  44  13  45  13
M  END
>  <minimizedAffinity>  (1) 
-6.02102232

>  <minimizedRMSD>  (1) 
0.953664839

$$$$
