
     RDKit          3D

 35 38  0  0  0  0  0  0  0  0999 V2000
   32.3170   30.0520   46.1120 C   0  0  0  0  0  0  0  0  0  0  0  0
   31.9760   28.7040   46.1360 C   0  0  0  0  0  0  0  0  0  0  0  0
   32.8970   27.8140   46.7240 C   0  0  0  0  0  0  0  0  0  0  0  0
   34.0580   28.2900   47.2360 N   0  0  0  0  0  0  0  0  0  0  0  0
   34.3460   29.6250   47.1890 C   0  0  0  0  0  0  0  0  0  0  0  0
   33.4850   30.4870   46.6330 N   0  0  0  0  0  0  0  0  0  0  0  0
   35.6060   30.0470   47.7580 C   0  0  0  0  0  0  0  0  0  0  0  0
   36.6290   30.6370   47.0290 C   0  0  0  0  0  0  0  0  0  0  0  0
   37.6640   30.9150   47.8320 N   0  0  0  0  0  0  0  0  0  0  0  0
   37.3330   30.5120   49.0920 C   0  0  0  0  0  0  0  0  0  0  0  0
   38.0450   30.5680   50.2910 C   0  0  0  0  0  0  0  0  0  0  0  0
   37.4280   30.0670   51.4360 C   0  0  0  0  0  0  0  0  0  0  0  0
   36.1670   29.5400   51.3670 C   0  0  0  0  0  0  0  0  0  0  0  0
   35.4480   29.4800   50.1690 C   0  0  0  0  0  0  0  0  0  0  0  0
   36.0660   29.9770   49.0440 C   0  0  0  0  0  0  0  0  0  0  0  0
   32.5940   26.3870   46.7780 C   0  0  0  0  0  0  0  0  0  0  0  0
   33.4890   25.5290   47.3570 C   0  0  0  0  0  0  0  0  0  0  0  0
   33.1320   24.2060   47.3680 C   0  0  0  0  0  0  0  0  0  0  0  0
   31.9570   23.7650   46.8360 N   0  0  0  0  0  0  0  0  0  0  0  0
   31.0890   24.6340   46.2690 C   0  0  0  0  0  0  0  0  0  0  0  0
   31.4370   25.9470   46.2550 N   0  0  0  0  0  0  0  0  0  0  0  0
   29.8190   24.2820   45.6750 C   0  0  0  0  0  0  0  0  0  0  0  0
   29.6250   23.3970   44.8350 O   0  0  0  0  0  0  0  0  0  0  0  0
   28.6840   25.0010   46.0750 O   0  0  0  0  0  0  0  0  0  0  0  0
   31.6234   30.7768   45.6608 H   0  0  0  0  0  0  0  0  0  0  0  0
   31.0255   28.3468   45.7130 H   0  0  0  0  0  0  0  0  0  0  0  0
   36.5947   30.8457   45.9495 H   0  0  0  0  0  0  0  0  0  0  0  0
   38.5513   31.3546   47.5486 H   0  0  0  0  0  0  0  0  0  0  0  0
   39.0587   30.9931   50.3311 H   0  0  0  0  0  0  0  0  0  0  0  0
   37.9573   30.0954   52.3999 H   0  0  0  0  0  0  0  0  0  0  0  0
   35.7031   29.1503   52.2851 H   0  0  0  0  0  0  0  0  0  0  0  0
   34.4343   29.0548   50.1276 H   0  0  0  0  0  0  0  0  0  0  0  0
   34.4382   25.8802   47.7878 H   0  0  0  0  0  0  0  0  0  0  0  0
   33.8172   23.4748   47.8217 H   0  0  0  0  0  0  0  0  0  0  0  0
   27.7991   24.7849   45.6873 H   0  0  0  0  0  0  0  0  0  0  0  0
  1  2  2  0
  1  6  1  0
  2  3  1  0
  3 16  1  0
  3  4  2  0
  5  4  1  0
  5  7  1  0
  6  5  2  0
  7 15  1  0
  8  7  2  0
  8  9  1  0
  9 10  1  0
 10 11  2  0
 11 12  1  0
 13 12  2  0
 14 13  1  0
 15 10  1  0
 15 14  2  0
 16 17  2  0
 17 18  1  0
 19 18  2  0
 20 19  1  0
 21 20  2  0
 21 16  1  0
 22 24  1  0
 22 20  1  0
 23 22  2  0
  1 25  1  0
  2 26  1  0
  8 27  1  0
  9 28  1  0
 11 29  1  0
 12 30  1  0
 13 31  1  0
 14 32  1  0
 17 33  1  0
 18 34  1  0
 24 35  1  0
M  ISO  8  25  14  26  14  27  14  28   9  29  14  30  14  31  14  32  14
M  ISO  3  33  14  34  14  35   3
M  END
>  <minimizedAffinity>  (1) 
-5.84061527

>  <minimizedRMSD>  (1) 
0.36863032

$$$$
