
     RDKit          3D

 28 30  0  0  0  0  0  0  0  0999 V2000
   35.4950   29.9060   48.3850 C   0  0  0  0  0  0  0  0  0  0  0  0
   35.4280   28.7480   49.1930 C   0  0  0  0  0  0  0  0  0  0  0  0
   34.3530   27.9330   49.0080 C   0  0  0  0  0  0  0  0  0  0  0  0
   33.4390   28.2710   48.0890 C   0  0  0  0  0  0  0  0  0  0  0  0
   34.0090   29.8230   47.3590 S   0  0  0  0  0  0  0  0  0  0  0  0
   32.2460   27.6180   47.6980 N   0  0  0  0  0  0  0  0  0  0  0  0
   32.2470   27.0550   46.5000 C   0  0  0  0  0  0  0  0  0  0  0  0
   31.0830   26.4000   46.0810 C   0  0  0  0  0  0  0  0  0  0  0  0
   29.9930   26.3760   46.9420 C   0  0  0  0  0  0  0  0  0  0  0  0
   28.8080   25.7310   46.5620 N   0  0  0  0  0  0  0  0  0  0  0  0
   30.0940   26.9810   48.1430 N   0  0  0  0  0  0  0  0  0  0  0  0
   31.2020   27.6080   48.5490 C   0  0  0  0  0  0  0  0  0  0  0  0
   31.2860   28.1660   49.6670 O   0  0  0  0  0  0  0  0  0  0  0  0
   37.7460   32.5790   49.5690 C   0  0  0  0  0  0  0  0  0  0  0  0
   38.5670   32.7940   48.4390 C   0  0  0  0  0  0  0  0  0  0  0  0
   38.3350   32.0220   47.2950 C   0  0  0  0  0  0  0  0  0  0  0  0
   37.3300   31.1030   47.3330 N   0  0  0  0  0  0  0  0  0  0  0  0
   36.5720   30.9270   48.4200 C   0  0  0  0  0  0  0  0  0  0  0  0
   36.7550   31.6490   49.5530 N   0  0  0  0  0  0  0  0  0  0  0  0
   36.2064   28.5166   49.9350 H   0  0  0  0  0  0  0  0  0  0  0  0
   34.2373   27.0144   49.6020 H   0  0  0  0  0  0  0  0  0  0  0  0
   33.1356   27.1005   45.8533 H   0  0  0  0  0  0  0  0  0  0  0  0
   31.0326   25.9162   45.0944 H   0  0  0  0  0  0  0  0  0  0  0  0
   28.0019   25.7152   47.2030 H   0  0  0  0  0  0  0  0  0  0  0  0
   28.7433   25.2728   45.6418 H   0  0  0  0  0  0  0  0  0  0  0  0
   37.9121   33.1753   50.4783 H   0  0  0  0  0  0  0  0  0  0  0  0
   39.3674   33.5483   48.4581 H   0  0  0  0  0  0  0  0  0  0  0  0
   38.9470   32.1535   46.3905 H   0  0  0  0  0  0  0  0  0  0  0  0
  1 18  1  0
  1  2  2  0
  3  2  1  0
  4  3  2  0
  5  4  1  0
  5  1  1  0
  6  4  1  0
  6 12  1  0
  7  6  1  0
  8  7  2  0
  8  9  1  0
  9 11  2  0
 10  9  1  0
 11 12  1  0
 12 13  2  0
 15 14  2  0
 16 17  2  0
 16 15  1  0
 17 18  1  0
 18 19  2  0
 19 14  1  0
  2 20  1  0
  3 21  1  0
  7 22  1  0
  8 23  1  0
 10 24  1  0
 10 25  1  0
 14 26  1  0
 15 27  1  0
 16 28  1  0
M  ISO  7  20  14  21  14  22  14  23  14  26  14  27  14  28  14
M  END
>  <minimizedAffinity>  (1) 
-5.16612577

>  <minimizedRMSD>  (1) 
2.0531702

$$$$
