
     RDKit          3D

 30 32  0  0  0  0  0  0  0  0999 V2000
   35.1680   29.5600   48.5850 C   0  0  0  0  0  0  0  0  0  0  0  0
   34.7670   28.3200   49.1340 C   0  0  0  0  0  0  0  0  0  0  0  0
   33.6230   27.7740   48.6350 C   0  0  0  0  0  0  0  0  0  0  0  0
   32.9550   28.4260   47.6750 C   0  0  0  0  0  0  0  0  0  0  0  0
   33.8880   29.9200   47.3600 S   0  0  0  0  0  0  0  0  0  0  0  0
   38.0370   30.8370   50.5230 C   0  0  0  0  0  0  0  0  0  0  0  0
   38.5830   31.7970   49.6380 C   0  0  0  0  0  0  0  0  0  0  0  0
   37.9600   31.9890   48.4000 C   0  0  0  0  0  0  0  0  0  0  0  0
   36.8560   31.2400   48.1060 N   0  0  0  0  0  0  0  0  0  0  0  0
   36.3680   30.3410   48.9680 C   0  0  0  0  0  0  0  0  0  0  0  0
   36.9360   30.1180   50.1800 N   0  0  0  0  0  0  0  0  0  0  0  0
   31.7640   28.0970   46.9910 N   0  0  0  0  0  0  0  0  0  0  0  0
   31.0070   29.1210   46.2980 C   0  0  0  0  0  0  0  0  0  0  0  0
   29.5950   29.0530   46.8350 C   0  0  0  0  0  0  0  0  0  0  0  0
   29.3590   27.9190   47.5970 O   0  0  0  0  0  0  0  0  0  0  0  0
   29.8130   26.7510   47.0000 C   0  0  0  0  0  0  0  0  0  0  0  0
   31.3470   26.7310   47.0150 C   0  0  0  0  0  0  0  0  0  0  0  0
   35.3489   27.8219   49.9234 H   0  0  0  0  0  0  0  0  0  0  0  0
   33.2530   26.8105   49.0156 H   0  0  0  0  0  0  0  0  0  0  0  0
   38.5103   30.6705   51.5019 H   0  0  0  0  0  0  0  0  0  0  0  0
   39.4748   32.3776   49.9165 H   0  0  0  0  0  0  0  0  0  0  0  0
   38.3495   32.7249   47.6812 H   0  0  0  0  0  0  0  0  0  0  0  0
   31.0108   28.9281   45.2150 H   0  0  0  0  0  0  0  0  0  0  0  0
   31.4455   30.1166   46.4607 H   0  0  0  0  0  0  0  0  0  0  0  0
   29.4150   29.9395   47.4608 H   0  0  0  0  0  0  0  0  0  0  0  0
   28.9158   29.0156   45.9706 H   0  0  0  0  0  0  0  0  0  0  0  0
   29.4560   26.7080   45.9604 H   0  0  0  0  0  0  0  0  0  0  0  0
   29.4298   25.8825   47.5558 H   0  0  0  0  0  0  0  0  0  0  0  0
   31.7300   26.1999   46.1311 H   0  0  0  0  0  0  0  0  0  0  0  0
   31.7322   26.2100   47.9039 H   0  0  0  0  0  0  0  0  0  0  0  0
  1 10  1  0
  1  2  2  0
  3  2  1  0
  4  3  2  0
  5  4  1  0
  5  1  1  0
  7  6  2  0
  8  7  1  0
  9  8  2  0
  9 10  1  0
 10 11  2  0
 11  6  1  0
 12 17  1  0
 12  4  1  0
 13 14  1  0
 13 12  1  0
 14 15  1  0
 16 17  1  0
 16 15  1  0
  2 18  1  0
  3 19  1  0
  6 20  1  0
  7 21  1  0
  8 22  1  0
 13 23  1  0
 13 24  1  0
 14 25  1  0
 14 26  1  0
 16 27  1  0
 16 28  1  0
 17 29  1  0
 17 30  1  0
M  ISO  8  18  14  19  14  20  14  21  14  22  14  23  13  24  13  25  13
M  ISO  5  26  13  27  13  28  13  29  13  30  13
M  END
>  <minimizedAffinity>  (1) 
-4.69066763

>  <minimizedRMSD>  (1) 
0.790398121

$$$$
