
     RDKit          3D

 30 32  0  0  0  0  0  0  0  0999 V2000
   35.1420   29.5500   48.5470 C   0  0  0  0  0  0  0  0  0  0  0  0
   34.7340   28.3120   49.1090 C   0  0  0  0  0  0  0  0  0  0  0  0
   33.5980   27.7830   48.5730 C   0  0  0  0  0  0  0  0  0  0  0  0
   32.9400   28.4100   47.5910 C   0  0  0  0  0  0  0  0  0  0  0  0
   33.8930   29.8960   47.2900 S   0  0  0  0  0  0  0  0  0  0  0  0
   38.0080   30.8130   50.5190 C   0  0  0  0  0  0  0  0  0  0  0  0
   38.5600   31.7630   49.6480 C   0  0  0  0  0  0  0  0  0  0  0  0
   37.9430   31.9610   48.3970 C   0  0  0  0  0  0  0  0  0  0  0  0
   36.8370   31.2210   48.0860 N   0  0  0  0  0  0  0  0  0  0  0  0
   36.3440   30.3190   48.9580 C   0  0  0  0  0  0  0  0  0  0  0  0
   36.9070   30.1030   50.1620 N   0  0  0  0  0  0  0  0  0  0  0  0
   31.7720   28.0680   46.8940 N   0  0  0  0  0  0  0  0  0  0  0  0
   31.3890   26.6750   46.7730 C   0  0  0  0  0  0  0  0  0  0  0  0
   29.9680   26.6250   47.3240 C   0  0  0  0  0  0  0  0  0  0  0  0
   29.1410   27.3990   46.3250 C   0  0  0  0  0  0  0  0  0  0  0  0
   29.5440   28.8230   46.1750 C   0  0  0  0  0  0  0  0  0  0  0  0
   31.0010   29.1190   46.3300 C   0  0  0  0  0  0  0  0  0  0  0  0
   35.2928   27.8166   49.9167 H   0  0  0  0  0  0  0  0  0  0  0  0
   33.2157   26.8246   48.9541 H   0  0  0  0  0  0  0  0  0  0  0  0
   38.4716   30.6411   51.5016 H   0  0  0  0  0  0  0  0  0  0  0  0
   39.4523   32.3392   49.9342 H   0  0  0  0  0  0  0  0  0  0  0  0
   38.3437   32.6970   47.6844 H   0  0  0  0  0  0  0  0  0  0  0  0
   31.4103   26.3551   45.7207 H   0  0  0  0  0  0  0  0  0  0  0  0
   32.0726   26.0031   47.3126 H   0  0  0  0  0  0  0  0  0  0  0  0
   29.6163   25.5852   47.3958 H   0  0  0  0  0  0  0  0  0  0  0  0
   29.8997   27.0482   48.3370 H   0  0  0  0  0  0  0  0  0  0  0  0
   29.2352   26.9084   45.3450 H   0  0  0  0  0  0  0  0  0  0  0  0
   28.1078   27.4003   46.7025 H   0  0  0  0  0  0  0  0  0  0  0  0
   28.8104   29.6145   45.9618 H   0  0  0  0  0  0  0  0  0  0  0  0
   31.4435   30.0802   46.0293 H   0  0  0  0  0  0  0  0  0  0  0  0
  1 10  1  0
  1  2  2  0
  3  2  1  0
  4  3  2  0
  5  4  1  0
  5  1  1  0
  7  6  2  0
  8  7  1  0
  9  8  2  0
  9 10  1  0
 10 11  2  0
 11  6  1  0
 12  4  1  0
 13 12  1  0
 13 14  1  0
 15 14  1  0
 16 15  1  0
 16 17  2  0
 17 12  1  0
  2 18  1  0
  3 19  1  0
  6 20  1  0
  7 21  1  0
  8 22  1  0
 13 23  1  0
 13 24  1  0
 14 25  1  0
 14 26  1  0
 15 27  1  0
 15 28  1  0
 16 29  1  0
 17 30  1  0
M  ISO  8  18  14  19  14  20  14  21  14  22  14  23  13  24  13  25  13
M  ISO  5  26  13  27  13  28  13  29  13  30  13
M  END
>  <minimizedAffinity>  (1) 
-4.60230398

>  <minimizedRMSD>  (1) 
0.753503323

$$$$
