
     RDKit          3D

 26 28  0  0  0  0  0  0  0  0999 V2000
   35.1080   29.5110   48.5940 C   0  0  0  0  0  0  0  0  0  0  0  0
   34.6500   28.2750   49.1110 C   0  0  0  0  0  0  0  0  0  0  0  0
   33.5210   27.7630   48.5490 C   0  0  0  0  0  0  0  0  0  0  0  0
   32.9160   28.4350   47.5620 C   0  0  0  0  0  0  0  0  0  0  0  0
   33.9060   29.9010   47.3180 S   0  0  0  0  0  0  0  0  0  0  0  0
   37.9290   30.6600   50.6800 C   0  0  0  0  0  0  0  0  0  0  0  0
   38.5330   31.6350   49.8400 C   0  0  0  0  0  0  0  0  0  0  0  0
   37.9560   31.8740   48.5780 C   0  0  0  0  0  0  0  0  0  0  0  0
   36.8540   31.1550   48.2410 N   0  0  0  0  0  0  0  0  0  0  0  0
   36.3140   30.2450   49.0580 C   0  0  0  0  0  0  0  0  0  0  0  0
   36.8310   29.9830   50.2730 N   0  0  0  0  0  0  0  0  0  0  0  0
   31.7120   28.1420   46.7790 C   0  0  0  0  0  0  0  0  0  0  0  0
   31.0320   29.1810   46.2020 C   0  0  0  0  0  0  0  0  0  0  0  0
   29.8850   28.8990   45.4570 C   0  0  0  0  0  0  0  0  0  0  0  0
   29.5630   27.5450   45.3890 C   0  0  0  0  0  0  0  0  0  0  0  0
   30.2580   26.5090   45.9760 C   0  0  0  0  0  0  0  0  0  0  0  0
   31.3660   26.8700   46.6860 N   0  0  0  0  0  0  0  0  0  0  0  0
   35.1787   27.7559   49.9240 H   0  0  0  0  0  0  0  0  0  0  0  0
   33.1096   26.8060   48.9026 H   0  0  0  0  0  0  0  0  0  0  0  0
   38.3591   30.4540   51.6713 H   0  0  0  0  0  0  0  0  0  0  0  0
   39.4263   32.1874   50.1669 H   0  0  0  0  0  0  0  0  0  0  0  0
   38.3830   32.6174   47.8888 H   0  0  0  0  0  0  0  0  0  0  0  0
   31.3821   30.2168   46.3228 H   0  0  0  0  0  0  0  0  0  0  0  0
   29.2862   29.6799   44.9653 H   0  0  0  0  0  0  0  0  0  0  0  0
   28.6668   27.2765   44.8105 H   0  0  0  0  0  0  0  0  0  0  0  0
   29.9402   25.4604   45.8784 H   0  0  0  0  0  0  0  0  0  0  0  0
  1 10  1  0
  1  2  2  0
  3  2  1  0
  4  3  2  0
  5  4  1  0
  5  1  1  0
  7  6  2  0
  8  7  1  0
  9  8  2  0
  9 10  1  0
 10 11  2  0
 11  6  1  0
 12  4  1  0
 13 12  2  0
 14 13  1  0
 15 14  2  0
 15 16  1  0
 16 17  2  0
 17 12  1  0
  2 18  1  0
  3 19  1  0
  6 20  1  0
  7 21  1  0
  8 22  1  0
 13 23  1  0
 14 24  1  0
 15 25  1  0
 16 26  1  0
M  ISO  8  18  14  19  14  20  14  21  14  22  14  23  14  24  14  25  14
M  ISO  1  26  14
M  END
>  <minimizedAffinity>  (1) 
-4.45093822

>  <minimizedRMSD>  (1) 
0.722169697

$$$$
