
     RDKit          3D

 20 21  0  0  0  0  0  0  0  0999 V2000
   37.4500   30.3310   51.1030 C   0  0  0  0  0  0  0  0  0  0  0  0
   38.3340   31.0920   50.3130 C   0  0  0  0  0  0  0  0  0  0  0  0
   38.0630   31.2110   48.9360 C   0  0  0  0  0  0  0  0  0  0  0  0
   36.9500   30.5790   48.4360 N   0  0  0  0  0  0  0  0  0  0  0  0
   36.1450   29.8700   49.2320 C   0  0  0  0  0  0  0  0  0  0  0  0
   36.3660   29.7290   50.5570 N   0  0  0  0  0  0  0  0  0  0  0  0
   34.9700   29.2220   48.6060 C   0  0  0  0  0  0  0  0  0  0  0  0
   34.3940   27.9930   49.0210 C   0  0  0  0  0  0  0  0  0  0  0  0
   33.3110   27.5600   48.3160 C   0  0  0  0  0  0  0  0  0  0  0  0
   32.8500   28.2920   47.2900 C   0  0  0  0  0  0  0  0  0  0  0  0
   33.9380   29.7210   47.2140 S   0  0  0  0  0  0  0  0  0  0  0  0
   31.7210   28.0740   46.3690 C   0  0  0  0  0  0  0  0  0  0  0  0
   37.6430   30.2238   52.1806 H   0  0  0  0  0  0  0  0  0  0  0  0
   39.2126   31.5803   50.7598 H   0  0  0  0  0  0  0  0  0  0  0  0
   38.7245   31.7942   48.2785 H   0  0  0  0  0  0  0  0  0  0  0  0
   34.8004   27.4199   49.8674 H   0  0  0  0  0  0  0  0  0  0  0  0
   32.8171   26.6151   48.5866 H   0  0  0  0  0  0  0  0  0  0  0  0
   30.8034   27.8968   46.9492 H   0  0  0  0  0  0  0  0  0  0  0  0
   31.5880   28.9631   45.7351 H   0  0  0  0  0  0  0  0  0  0  0  0
   31.9286   27.1993   45.7351 H   0  0  0  0  0  0  0  0  0  0  0  0
  2  1  2  0
  3  2  1  0
  4  3  2  0
  4  5  1  0
  5  6  2  0
  6  1  1  0
  7  8  2  0
  7  5  1  0
  9  8  1  0
 10  9  2  0
 11 10  1  0
 11  7  1  0
 12 10  1  0
  1 13  1  0
  2 14  1  0
  3 15  1  0
  8 16  1  0
  9 17  1  0
 12 18  1  0
 12 19  1  0
 12 20  1  0
M  ISO  8  13  14  14  14  15  14  16  14  17  14  18   8  19   8  20   8
M  END
>  <minimizedAffinity>  (1) 
-4.09851122

>  <minimizedRMSD>  (1) 
0.0515883192

$$$$
