
     RDKit          3D

 23 24  0  0  0  0  0  0  0  0999 V2000
   34.9580   29.2230   48.6060 C   0  0  0  0  0  0  0  0  0  0  0  0
   34.3820   27.9980   49.0130 C   0  0  0  0  0  0  0  0  0  0  0  0
   33.2960   27.5720   48.3110 C   0  0  0  0  0  0  0  0  0  0  0  0
   32.8410   28.3180   47.2960 C   0  0  0  0  0  0  0  0  0  0  0  0
   33.9320   29.7540   47.2160 S   0  0  0  0  0  0  0  0  0  0  0  0
   37.4490   30.3290   51.0910 C   0  0  0  0  0  0  0  0  0  0  0  0
   38.3390   31.0950   50.3140 C   0  0  0  0  0  0  0  0  0  0  0  0
   38.0650   31.2140   48.9550 C   0  0  0  0  0  0  0  0  0  0  0  0
   36.9600   30.5930   48.4440 N   0  0  0  0  0  0  0  0  0  0  0  0
   36.1390   29.8730   49.2250 C   0  0  0  0  0  0  0  0  0  0  0  0
   36.3570   29.7220   50.5560 N   0  0  0  0  0  0  0  0  0  0  0  0
   31.7000   28.1030   46.3770 C   0  0  0  0  0  0  0  0  0  0  0  0
   30.8740   29.3440   46.1480 C   0  0  0  0  0  0  0  0  0  0  0  0
   34.7904   27.4184   49.8540 H   0  0  0  0  0  0  0  0  0  0  0  0
   32.7985   26.6269   48.5742 H   0  0  0  0  0  0  0  0  0  0  0  0
   37.6442   30.2181   52.1678 H   0  0  0  0  0  0  0  0  0  0  0  0
   39.2173   31.5808   50.7641 H   0  0  0  0  0  0  0  0  0  0  0  0
   38.7283   31.7995   48.3013 H   0  0  0  0  0  0  0  0  0  0  0  0
   32.0924   27.7614   45.4078 H   0  0  0  0  0  0  0  0  0  0  0  0
   31.0418   27.3563   46.8452 H   0  0  0  0  0  0  0  0  0  0  0  0
   30.5859   29.7768   47.1174 H   0  0  0  0  0  0  0  0  0  0  0  0
   31.4645   30.0778   45.5798 H   0  0  0  0  0  0  0  0  0  0  0  0
   29.9691   29.0825   45.5798 H   0  0  0  0  0  0  0  0  0  0  0  0
  1  2  2  0
  1 10  1  0
  3  2  1  0
  4  3  2  0
  5  4  1  0
  5  1  1  0
  7  6  2  0
  8  7  1  0
  9  8  2  0
  9 10  1  0
 10 11  2  0
 11  6  1  0
 12  4  1  0
 13 12  1  0
  2 14  1  0
  3 15  1  0
  6 16  1  0
  7 17  1  0
  8 18  1  0
 12 19  1  0
 12 20  1  0
 13 21  1  0
 13 22  1  0
 13 23  1  0
M  ISO  8  14  14  15  14  16  14  17  14  18  14  19   8  20   8  21   8
M  ISO  2  22   8  23   8
M  END
>  <minimizedAffinity>  (1) 
-4.07881737

>  <minimizedRMSD>  (1) 
0.0771419629

$$$$
