
     RDKit          3D

 17 18  0  0  0  0  0  0  0  0999 V2000
   37.3230   30.2270   51.4230 C   0  0  0  0  0  0  0  0  0  0  0  0
   38.0510   30.8650   50.3990 C   0  0  0  0  0  0  0  0  0  0  0  0
   37.7210   30.5760   49.0770 C   0  0  0  0  0  0  0  0  0  0  0  0
   36.7130   29.6930   48.8360 N   0  0  0  0  0  0  0  0  0  0  0  0
   36.0240   29.0890   49.8430 C   0  0  0  0  0  0  0  0  0  0  0  0
   36.3330   29.3600   51.1250 N   0  0  0  0  0  0  0  0  0  0  0  0
   38.4010   31.1720   47.9320 C   0  0  0  0  0  0  0  0  0  0  0  0
   38.8580   32.4860   47.9510 C   0  0  0  0  0  0  0  0  0  0  0  0
   39.4390   32.6900   46.7130 C   0  0  0  0  0  0  0  0  0  0  0  0
   39.3090   31.5100   46.0100 C   0  0  0  0  0  0  0  0  0  0  0  0
   38.6850   30.6240   46.7650 O   0  0  0  0  0  0  0  0  0  0  0  0
   37.5641   30.4378   52.4754 H   0  0  0  0  0  0  0  0  0  0  0  0
   38.8587   31.5727   50.6374 H   0  0  0  0  0  0  0  0  0  0  0  0
   35.2158   28.3804   49.6094 H   0  0  0  0  0  0  0  0  0  0  0  0
   38.7748   33.2090   48.7758 H   0  0  0  0  0  0  0  0  0  0  0  0
   39.9140   33.6160   46.3567 H   0  0  0  0  0  0  0  0  0  0  0  0
   39.6676   31.3351   44.9849 H   0  0  0  0  0  0  0  0  0  0  0  0
  2  1  2  0
  3  2  1  0
  4  3  2  0
  4  5  1  0
  5  6  2  0
  6  1  1  0
  7  8  2  0
  7  3  1  0
  9  8  1  0
 10  9  2  0
 10 11  1  0
 11  7  1  0
  1 12  1  0
  2 13  1  0
  5 14  1  0
  8 15  1  0
  9 16  1  0
 10 17  1  0
M  ISO  6  12  14  13  14  14  14  15  14  16  14  17  14
M  END
>  <minimizedAffinity>  (1) 
-4.42868137

>  <minimizedRMSD>  (1) 
0.286839217

$$$$
