
     RDKit          3D

 42 44  0  0  1  0  0  0  0  0999 V2000
   35.0820   29.5990   48.3990 C   0  0  0  0  0  0  0  0  0  0  0  0
   34.6650   28.5610   49.2400 C   0  0  0  0  0  0  0  0  0  0  0  0
   33.5250   27.9170   48.9110 C   0  0  0  0  0  0  0  0  0  0  0  0
   32.8600   28.3010   47.8070 C   0  0  0  0  0  0  0  0  0  0  0  0
   33.8160   29.6510   47.1150 S   0  0  0  0  0  0  0  0  0  0  0  0
   37.9240   31.3780   49.9470 C   0  0  0  0  0  0  0  0  0  0  0  0
   38.5490   31.9690   48.8280 C   0  0  0  0  0  0  0  0  0  0  0  0
   37.9890   31.7480   47.5860 C   0  0  0  0  0  0  0  0  0  0  0  0
   36.8680   30.9770   47.4810 N   0  0  0  0  0  0  0  0  0  0  0  0
   36.3090   30.4350   48.5740 C   0  0  0  0  0  0  0  0  0  0  0  0
   36.8000   30.6070   49.8310 N   0  0  0  0  0  0  0  0  0  0  0  0
   31.6130   27.8080   47.1790 C   0  0  2  0  0  0  0  0  0  0  0  0
   30.9340   28.9620   46.4960 C   0  0  0  0  0  0  0  0  0  0  0  0
   30.7570   27.1480   48.2120 C   0  0  0  0  0  0  0  0  0  0  0  0
   29.3880   27.7490   48.3720 C   0  0  0  0  0  0  0  0  0  0  0  0
   28.2550   26.8420   48.0470 C   0  0  0  0  0  0  0  0  0  0  0  0
   26.9700   27.5490   48.4260 C   0  0  0  0  0  0  0  0  0  0  0  0
   26.9290   27.9220   49.8780 C   0  0  0  0  0  0  0  0  0  0  0  0
   28.0210   28.9750   50.0740 C   0  0  0  0  0  0  0  0  0  0  0  0
   29.3210   28.2320   49.8210 C   0  0  0  0  0  0  0  0  0  0  0  0
   35.2429   28.2811   50.1332 H   0  0  0  0  0  0  0  0  0  0  0  0
   33.1470   27.0933   49.5345 H   0  0  0  0  0  0  0  0  0  0  0  0
   38.3550   31.5428   50.9455 H   0  0  0  0  0  0  0  0  0  0  0  0
   39.4528   32.5855   48.9420 H   0  0  0  0  0  0  0  0  0  0  0  0
   38.4432   32.1903   46.6871 H   0  0  0  0  0  0  0  0  0  0  0  0
   31.8236   27.0454   46.4148 H   0  0  0  0  0  0  0  0  0  0  0  0
   30.5294   29.6497   47.2532 H   0  0  0  0  0  0  0  0  0  0  0  0
   31.6619   29.4959   45.8675 H   0  0  0  0  0  0  0  0  0  0  0  0
   30.1138   28.5850   45.8675 H   0  0  0  0  0  0  0  0  0  0  0  0
   30.6365   26.0910   47.9325 H   0  0  0  0  0  0  0  0  0  0  0  0
   31.2708   27.2856   49.1749 H   0  0  0  0  0  0  0  0  0  0  0  0
   29.2651   28.5623   47.6417 H   0  0  0  0  0  0  0  0  0  0  0  0
   28.2539   26.6161   46.9705 H   0  0  0  0  0  0  0  0  0  0  0  0
   28.3500   25.8962   48.6006 H   0  0  0  0  0  0  0  0  0  0  0  0
   26.8798   28.4648   47.8234 H   0  0  0  0  0  0  0  0  0  0  0  0
   26.1372   26.8564   48.2342 H   0  0  0  0  0  0  0  0  0  0  0  0
   25.9449   28.3391   50.1378 H   0  0  0  0  0  0  0  0  0  0  0  0
   27.0930   27.0466   50.5236 H   0  0  0  0  0  0  0  0  0  0  0  0
   27.8989   29.7992   49.3558 H   0  0  0  0  0  0  0  0  0  0  0  0
   27.9881   29.4280   51.0759 H   0  0  0  0  0  0  0  0  0  0  0  0
   29.3793   27.3645   50.4949 H   0  0  0  0  0  0  0  0  0  0  0  0
   30.1632   28.9145   50.0080 H   0  0  0  0  0  0  0  0  0  0  0  0
  1 10  1  0
  1  2  2  0
  3  2  1  0
  4  3  2  0
  5  4  1  0
  5  1  1  0
  7  6  2  0
  8  7  1  0
  9  8  2  0
  9 10  1  0
 10 11  2  0
 11  6  1  0
 12  4  1  0
 12 14  1  0
 13 12  1  0
 14 15  1  0
 15 20  1  0
 16 15  1  0
 16 17  1  0
 17 18  1  0
 18 19  1  0
 20 19  1  0
  2 21  1  0
  3 22  1  0
  6 23  1  0
  7 24  1  0
  8 25  1  0
 12 26  1  6
 13 27  1  0
 13 28  1  0
 13 29  1  0
 14 30  1  0
 14 31  1  0
 15 32  1  0
 16 33  1  0
 16 34  1  0
 17 35  1  0
 17 36  1  0
 18 37  1  0
 18 38  1  0
 19 39  1  0
 19 40  1  0
 20 41  1  0
 20 42  1  0
M  ISO  8  21  14  22  14  23  14  24  14  25  14  26   8  27   8  28   8
M  ISO  8  29   8  30   8  31   8  32  13  33  13  34  13  35  13  36  13
M  ISO  6  37  13  38  13  39  13  40  13  41  13  42  13
M  END
>  <minimizedAffinity>  (1) 
-5.60144043

>  <minimizedRMSD>  (1) 
2.11114073

$$$$
