
     RDKit          3D

 33 35  0  0  1  0  0  0  0  0999 V2000
   35.7240   30.0390   48.4010 C   0  0  0  0  0  0  0  0  0  0  0  0
   35.6010   28.9520   49.2780 C   0  0  0  0  0  0  0  0  0  0  0  0
   34.5040   28.1740   49.1550 C   0  0  0  0  0  0  0  0  0  0  0  0
   33.6020   28.4970   48.1920 C   0  0  0  0  0  0  0  0  0  0  0  0
   34.2340   29.9510   47.3660 S   0  0  0  0  0  0  0  0  0  0  0  0
   38.0760   32.6750   49.4860 C   0  0  0  0  0  0  0  0  0  0  0  0
   38.8390   32.8740   48.2920 C   0  0  0  0  0  0  0  0  0  0  0  0
   38.5450   32.1220   47.1710 C   0  0  0  0  0  0  0  0  0  0  0  0
   37.5320   31.2190   47.2620 N   0  0  0  0  0  0  0  0  0  0  0  0
   36.8300   31.0380   48.3660 C   0  0  0  0  0  0  0  0  0  0  0  0
   37.0790   31.7510   49.4950 N   0  0  0  0  0  0  0  0  0  0  0  0
   32.2860   27.9130   47.7770 C   0  0  2  0  0  0  0  0  0  0  0  0
   31.7080   28.7050   46.6750 C   0  0  0  0  0  0  0  0  0  0  0  0
   31.4840   27.6940   48.9950 C   0  0  0  0  0  0  0  0  0  0  0  0
   30.1190   27.3220   48.7560 C   0  0  0  0  0  0  0  0  0  0  0  0
   29.1830   26.9300   47.8110 C   0  0  0  0  0  0  0  0  0  0  0  0
   27.8770   26.7230   48.1680 C   0  0  0  0  0  0  0  0  0  0  0  0
   27.5060   26.9030   49.4530 C   0  0  0  0  0  0  0  0  0  0  0  0
   29.1300   27.4150   50.2620 S   0  0  0  0  0  0  0  0  0  0  0  0
   36.3686   28.7410   50.0371 H   0  0  0  0  0  0  0  0  0  0  0  0
   34.3460   27.3069   49.8132 H   0  0  0  0  0  0  0  0  0  0  0  0
   38.2943   33.2645   50.3887 H   0  0  0  0  0  0  0  0  0  0  0  0
   39.6499   33.6168   48.2670 H   0  0  0  0  0  0  0  0  0  0  0  0
   39.1110   32.2492   46.2364 H   0  0  0  0  0  0  0  0  0  0  0  0
   32.3596   26.9149   47.3206 H   0  0  0  0  0  0  0  0  0  0  0  0
   31.1076   29.5277   47.0904 H   0  0  0  0  0  0  0  0  0  0  0  0
   32.5182   29.1184   46.0564 H   0  0  0  0  0  0  0  0  0  0  0  0
   31.0672   28.0595   46.0564 H   0  0  0  0  0  0  0  0  0  0  0  0
   31.9601   26.8927   49.5791 H   0  0  0  0  0  0  0  0  0  0  0  0
   31.4549   28.6575   49.5249 H   0  0  0  0  0  0  0  0  0  0  0  0
   29.4921   26.7840   46.7655 H   0  0  0  0  0  0  0  0  0  0  0  0
   27.1378   26.4131   47.4147 H   0  0  0  0  0  0  0  0  0  0  0  0
   26.5128   26.7822   49.9101 H   0  0  0  0  0  0  0  0  0  0  0  0
  1  2  2  0
  3  2  1  0
  4  3  2  0
  5  4  1  0
  5  1  1  0
  6 11  2  0
  7  6  1  0
  8  9  1  0
  8  7  2  0
  9 10  2  0
 10  1  1  0
 10 11  1  0
 12  4  1  0
 12 14  1  0
 13 12  1  0
 15 14  1  0
 15 19  1  0
 16 17  1  0
 16 15  2  0
 17 18  2  0
 18 19  1  0
  2 20  1  0
  3 21  1  0
  6 22  1  0
  7 23  1  0
  8 24  1  0
 12 25  1  6
 13 26  1  0
 13 27  1  0
 13 28  1  0
 14 29  1  0
 14 30  1  0
 16 31  1  0
 17 32  1  0
 18 33  1  0
M  ISO  8  20  14  21  14  22  14  23  14  24  14  25   8  26   8  27   8
M  ISO  6  28   8  29   8  30   8  31  14  32  14  33  14
M  END
>  <minimizedAffinity>  (1) 
-5.51741743

>  <minimizedRMSD>  (1) 
2.99126744

$$$$
