
     RDKit          3D

 38 40  0  0  1  0  0  0  0  0999 V2000
   35.1150   29.5160   48.5160 C   0  0  0  0  0  0  0  0  0  0  0  0
   34.7190   28.3190   49.1200 C   0  0  0  0  0  0  0  0  0  0  0  0
   33.5730   27.7500   48.6920 C   0  0  0  0  0  0  0  0  0  0  0  0
   32.8790   28.3690   47.7100 C   0  0  0  0  0  0  0  0  0  0  0  0
   33.8230   29.8560   47.2970 S   0  0  0  0  0  0  0  0  0  0  0  0
   37.9920   30.9200   50.3660 C   0  0  0  0  0  0  0  0  0  0  0  0
   38.5650   31.7860   49.3900 C   0  0  0  0  0  0  0  0  0  0  0  0
   37.9600   31.8700   48.1300 C   0  0  0  0  0  0  0  0  0  0  0  0
   36.8390   31.1150   47.8870 N   0  0  0  0  0  0  0  0  0  0  0  0
   36.3350   30.3200   48.8230 C   0  0  0  0  0  0  0  0  0  0  0  0
   36.8770   30.1930   50.0700 N   0  0  0  0  0  0  0  0  0  0  0  0
   31.5930   28.0200   47.0210 C   0  0  2  0  0  0  0  0  0  0  0  0
   31.1760   29.2270   46.2250 C   0  0  0  0  0  0  0  0  0  0  0  0
   30.6170   27.5700   48.0540 C   0  0  0  0  0  0  0  0  0  0  0  0
   29.2620   27.8690   47.8800 N   0  0  0  0  0  0  0  0  0  0  0  0
   28.3760   26.9100   47.3570 C   0  0  0  0  0  0  0  0  0  0  0  0
   27.1850   26.8710   48.2760 C   0  0  0  0  0  0  0  0  0  0  0  0
   27.1590   28.2720   48.8410 C   0  0  0  0  0  0  0  0  0  0  0  0
   28.6090   28.6960   48.8260 C   0  0  0  0  0  0  0  0  0  0  0  0
   35.3209   27.8571   49.9165 H   0  0  0  0  0  0  0  0  0  0  0  0
   33.2126   26.8076   49.1301 H   0  0  0  0  0  0  0  0  0  0  0  0
   38.4511   30.8377   51.3622 H   0  0  0  0  0  0  0  0  0  0  0  0
   39.4639   32.3762   49.6217 H   0  0  0  0  0  0  0  0  0  0  0  0
   38.3741   32.5271   47.3510 H   0  0  0  0  0  0  0  0  0  0  0  0
   31.6780   27.1846   46.3105 H   0  0  0  0  0  0  0  0  0  0  0  0
   30.8952   30.0396   46.9112 H   0  0  0  0  0  0  0  0  0  0  0  0
   32.0129   29.5551   45.5910 H   0  0  0  0  0  0  0  0  0  0  0  0
   30.3151   28.9686   45.5910 H   0  0  0  0  0  0  0  0  0  0  0  0
   30.6999   26.4752   48.1210 H   0  0  0  0  0  0  0  0  0  0  0  0
   30.9004   28.1391   48.9516 H   0  0  0  0  0  0  0  0  0  0  0  0
   28.0623   27.1977   46.3427 H   0  0  0  0  0  0  0  0  0  0  0  0
   28.8567   25.9227   47.2920 H   0  0  0  0  0  0  0  0  0  0  0  0
   26.2618   26.6496   47.7204 H   0  0  0  0  0  0  0  0  0  0  0  0
   27.2526   26.0894   49.0470 H   0  0  0  0  0  0  0  0  0  0  0  0
   26.5501   28.9370   48.2109 H   0  0  0  0  0  0  0  0  0  0  0  0
   26.7142   28.3162   49.8461 H   0  0  0  0  0  0  0  0  0  0  0  0
   29.0550   28.5588   49.8221 H   0  0  0  0  0  0  0  0  0  0  0  0
   28.7091   29.7587   48.5602 H   0  0  0  0  0  0  0  0  0  0  0  0
  1 10  1  0
  1  2  2  0
  3  2  1  0
  4  3  2  0
  5  4  1  0
  5  1  1  0
  7  6  2  0
  8  7  1  0
  9  8  2  0
  9 10  1  0
 10 11  2  0
 11  6  1  0
 12  4  1  0
 12 14  1  0
 13 12  1  0
 15 14  1  0
 15 19  1  0
 16 15  1  0
 16 17  1  0
 17 18  1  0
 19 18  1  0
  2 20  1  0
  3 21  1  0
  6 22  1  0
  7 23  1  0
  8 24  1  0
 12 25  1  6
 13 26  1  0
 13 27  1  0
 13 28  1  0
 14 29  1  0
 14 30  1  0
 16 31  1  0
 16 32  1  0
 17 33  1  0
 17 34  1  0
 18 35  1  0
 18 36  1  0
 19 37  1  0
 19 38  1  0
M  ISO  8  20  14  21  14  22  14  23  14  24  14  25   8  26   8  27   8
M  ISO  8  28   8  29   8  30   8  31  13  32  13  33  13  34  13  35  13
M  ISO  3  36  13  37  13  38  13
M  END
>  <minimizedAffinity>  (1) 
-5.0735774

>  <minimizedRMSD>  (1) 
1.32179654

$$$$
