
     RDKit          3D

 39 41  0  0  1  0  0  0  0  0999 V2000
   34.8800   29.4440   48.6350 C   0  0  0  0  0  0  0  0  0  0  0  0
   34.3440   28.2640   49.1830 C   0  0  0  0  0  0  0  0  0  0  0  0
   33.2150   27.8060   48.6150 C   0  0  0  0  0  0  0  0  0  0  0  0
   32.6690   28.4610   47.5950 C   0  0  0  0  0  0  0  0  0  0  0  0
   33.7380   29.8710   47.3040 S   0  0  0  0  0  0  0  0  0  0  0  0
   37.6860   30.5470   50.7730 C   0  0  0  0  0  0  0  0  0  0  0  0
   38.3930   31.4090   49.9040 C   0  0  0  0  0  0  0  0  0  0  0  0
   37.9070   31.5980   48.6240 C   0  0  0  0  0  0  0  0  0  0  0  0
   36.7640   30.9460   48.2480 N   0  0  0  0  0  0  0  0  0  0  0  0
   36.1190   30.1430   49.0810 C   0  0  0  0  0  0  0  0  0  0  0  0
   36.5610   29.9350   50.3320 N   0  0  0  0  0  0  0  0  0  0  0  0
   31.4720   28.2340   46.7610 C   0  0  2  0  0  0  0  0  0  0  0  0
   31.2510   29.4230   45.8850 C   0  0  0  0  0  0  0  0  0  0  0  0
   30.3390   27.8160   47.6230 C   0  0  0  0  0  0  0  0  0  0  0  0
   29.0810   28.4030   47.2520 N   0  0  0  0  0  0  0  0  0  0  0  0
   28.4820   29.1680   48.2940 C   0  0  0  0  0  0  0  0  0  0  0  0
   27.1950   28.5000   48.7190 C   0  0  0  0  0  0  0  0  0  0  0  0
   27.3370   27.1300   48.8690 O   0  0  0  0  0  0  0  0  0  0  0  0
   27.7150   26.4960   47.7040 C   0  0  0  0  0  0  0  0  0  0  0  0
   28.1510   27.5090   46.6700 C   0  0  0  0  0  0  0  0  0  0  0  0
   34.8215   27.7460   50.0278 H   0  0  0  0  0  0  0  0  0  0  0  0
   32.7423   26.8881   48.9946 H   0  0  0  0  0  0  0  0  0  0  0  0
   38.0461   30.3748   51.7980 H   0  0  0  0  0  0  0  0  0  0  0  0
   39.3090   31.9177   50.2388 H   0  0  0  0  0  0  0  0  0  0  0  0
   38.4301   32.2613   47.9194 H   0  0  0  0  0  0  0  0  0  0  0  0
   31.5985   27.3960   46.0597 H   0  0  0  0  0  0  0  0  0  0  0  0
   31.0856   30.3131   46.5098 H   0  0  0  0  0  0  0  0  0  0  0  0
   32.1353   29.5800   45.2500 H   0  0  0  0  0  0  0  0  0  0  0  0
   30.3693   29.2518   45.2500 H   0  0  0  0  0  0  0  0  0  0  0  0
   30.2425   26.7219   47.5626 H   0  0  0  0  0  0  0  0  0  0  0  0
   30.5665   28.1629   48.6418 H   0  0  0  0  0  0  0  0  0  0  0  0
   29.1687   29.2242   49.1515 H   0  0  0  0  0  0  0  0  0  0  0  0
   28.2704   30.1853   47.9329 H   0  0  0  0  0  0  0  0  0  0  0  0
   26.8743   28.9294   49.6796 H   0  0  0  0  0  0  0  0  0  0  0  0
   26.4487   28.6761   47.9303 H   0  0  0  0  0  0  0  0  0  0  0  0
   28.5508   25.8135   47.9176 H   0  0  0  0  0  0  0  0  0  0  0  0
   26.8568   25.9314   47.3105 H   0  0  0  0  0  0  0  0  0  0  0  0
   27.2748   28.0709   46.3142 H   0  0  0  0  0  0  0  0  0  0  0  0
   28.6212   26.9898   45.8218 H   0  0  0  0  0  0  0  0  0  0  0  0
  1 10  1  0
  1  2  2  0
  3  2  1  0
  4  3  2  0
  5  4  1  0
  5  1  1  0
  7  6  2  0
  8  7  1  0
  9  8  2  0
  9 10  1  0
 10 11  2  0
 11  6  1  0
 12  4  1  0
 12 14  1  0
 13 12  1  0
 15 14  1  0
 15 16  1  0
 16 17  1  0
 17 18  1  0
 19 18  1  0
 20 15  1  0
 20 19  1  0
  2 21  1  0
  3 22  1  0
  6 23  1  0
  7 24  1  0
  8 25  1  0
 12 26  1  6
 13 27  1  0
 13 28  1  0
 13 29  1  0
 14 30  1  0
 14 31  1  0
 16 32  1  0
 16 33  1  0
 17 34  1  0
 17 35  1  0
 19 36  1  0
 19 37  1  0
 20 38  1  0
 20 39  1  0
M  ISO  8  21  14  22  14  23  14  24  14  25  14  26   8  27   8  28   8
M  ISO  8  29   8  30   8  31   8  32  13  33  13  34  13  35  13  36  13
M  ISO  3  37  13  38  13  39  13
M  END
>  <minimizedAffinity>  (1) 
-5.0705905

>  <minimizedRMSD>  (1) 
1.35521364

$$$$
