
     RDKit          3D

 36 38  0  0  1  0  0  0  0  0999 V2000
   31.7830   28.1540   46.7980 C   0  0  2  0  0  0  0  0  0  0  0  0
   35.1930   29.5670   48.5320 C   0  0  0  0  0  0  0  0  0  0  0  0
   34.7730   28.3300   49.0890 C   0  0  0  0  0  0  0  0  0  0  0  0
   33.6510   27.7870   48.5620 C   0  0  0  0  0  0  0  0  0  0  0  0
   33.0200   28.4140   47.5810 C   0  0  0  0  0  0  0  0  0  0  0  0
   33.9450   29.9090   47.2550 S   0  0  0  0  0  0  0  0  0  0  0  0
   38.0080   30.8260   50.5400 C   0  0  0  0  0  0  0  0  0  0  0  0
   38.5690   31.7960   49.6850 C   0  0  0  0  0  0  0  0  0  0  0  0
   37.9790   31.9980   48.4530 C   0  0  0  0  0  0  0  0  0  0  0  0
   36.8870   31.2530   48.1260 N   0  0  0  0  0  0  0  0  0  0  0  0
   36.3740   30.3520   48.9340 C   0  0  0  0  0  0  0  0  0  0  0  0
   36.9230   30.1350   50.1300 N   0  0  0  0  0  0  0  0  0  0  0  0
   31.3360   29.3860   46.1200 C   0  0  0  0  0  0  0  0  0  0  0  0
   30.8900   27.2820   47.5540 C   0  0  0  0  0  0  0  0  0  0  0  0
   30.5220   26.0890   46.8510 N   0  0  0  0  0  0  0  0  0  0  0  0
   30.9720   24.9520   46.3480 C   0  0  0  0  0  0  0  0  0  0  0  0
   30.3250   23.9400   45.7300 C   0  0  0  0  0  0  0  0  0  0  0  0
   28.9760   24.0380   45.5610 C   0  0  0  0  0  0  0  0  0  0  0  0
   28.3580   23.1070   44.9900 O   0  0  0  0  0  0  0  0  0  0  0  0
   28.3920   25.1590   46.0360 N   0  0  0  0  0  0  0  0  0  0  0  0
   29.1650   26.1150   46.6440 C   0  0  0  0  0  0  0  0  0  0  0  0
   28.3850   27.0490   46.9940 O   0  0  0  0  0  0  0  0  0  0  0  0
   31.9096   27.5247   45.9047 H   0  0  0  0  0  0  0  0  0  0  0  0
   35.3283   27.8408   49.9028 H   0  0  0  0  0  0  0  0  0  0  0  0
   33.2656   26.8310   48.9460 H   0  0  0  0  0  0  0  0  0  0  0  0
   38.4489   30.6343   51.5294 H   0  0  0  0  0  0  0  0  0  0  0  0
   39.4523   32.3760   49.9907 H   0  0  0  0  0  0  0  0  0  0  0  0
   38.3819   32.7436   47.7518 H   0  0  0  0  0  0  0  0  0  0  0  0
   31.0624   30.1401   46.8727 H   0  0  0  0  0  0  0  0  0  0  0  0
   32.1505   29.7745   45.4910 H   0  0  0  0  0  0  0  0  0  0  0  0
   30.4619   29.1618   45.4910 H   0  0  0  0  0  0  0  0  0  0  0  0
   31.3943   26.9936   48.4881 H   0  0  0  0  0  0  0  0  0  0  0  0
   29.9643   27.8478   47.7355 H   0  0  0  0  0  0  0  0  0  0  0  0
   32.0574   24.8053   46.4501 H   0  0  0  0  0  0  0  0  0  0  0  0
   30.8742   23.0570   45.3713 H   0  0  0  0  0  0  0  0  0  0  0  0
   27.3753   25.2949   45.9426 H   0  0  0  0  0  0  0  0  0  0  0  0
  1 14  1  0
  1  5  1  0
  2 11  1  0
  2  3  2  0
  4  3  1  0
  5  4  2  0
  6  5  1  0
  6  2  1  0
  8  7  2  0
  9  8  1  0
 10  9  2  0
 10 11  1  0
 11 12  2  0
 12  7  1  0
 13  1  1  0
 15 14  1  0
 16 15  1  0
 17 16  2  0
 18 17  1  0
 18 20  1  0
 19 18  2  0
 20 21  1  0
 21 15  1  0
 21 22  2  0
  1 23  1  6
  3 24  1  0
  4 25  1  0
  7 26  1  0
  8 27  1  0
  9 28  1  0
 13 29  1  0
 13 30  1  0
 13 31  1  0
 14 32  1  0
 14 33  1  0
 16 34  1  0
 17 35  1  0
 20 36  1  0
M  ISO  8  23   8  24  14  25  14  26  14  27  14  28  14  29   8  30   8
M  ISO  6  31   8  32   8  33   8  34  14  35  14  36   9
M  END
>  <minimizedAffinity>  (1) 
-4.90817404

>  <minimizedRMSD>  (1) 
2.33101058

$$$$
