
     RDKit          3D

 43 45  0  0  1  0  0  0  0  0999 V2000
   34.7000   29.3650   48.6560 C   0  0  0  0  0  0  0  0  0  0  0  0
   33.9660   28.3770   49.3250 C   0  0  0  0  0  0  0  0  0  0  0  0
   32.8760   27.8930   48.7020 C   0  0  0  0  0  0  0  0  0  0  0  0
   32.5600   28.3690   47.5110 C   0  0  0  0  0  0  0  0  0  0  0  0
   33.8120   29.6190   47.0870 S   0  0  0  0  0  0  0  0  0  0  0  0
   37.4600   30.4450   50.8310 C   0  0  0  0  0  0  0  0  0  0  0  0
   38.2120   31.2890   49.9750 C   0  0  0  0  0  0  0  0  0  0  0  0
   37.7570   31.4730   48.6720 C   0  0  0  0  0  0  0  0  0  0  0  0
   36.6210   30.8300   48.3060 N   0  0  0  0  0  0  0  0  0  0  0  0
   35.9490   30.0560   49.1250 C   0  0  0  0  0  0  0  0  0  0  0  0
   36.3190   29.8190   50.4150 N   0  0  0  0  0  0  0  0  0  0  0  0
   31.4420   28.0340   46.5800 C   0  0  2  0  0  0  0  0  0  0  0  0
   31.8180   28.3800   45.2080 C   0  0  0  0  0  0  0  0  0  0  0  0
   30.1940   28.7250   47.0740 C   0  0  0  0  0  0  0  0  0  0  0  0
   29.3480   27.9310   47.7600 O   0  0  0  0  0  0  0  0  0  0  0  0
   28.0090   28.2200   47.7070 C   0  0  0  0  0  0  0  0  0  0  0  0
   27.1160   27.2130   48.3970 C   0  0  0  0  0  0  0  0  0  0  0  0
   27.8690   26.9060   49.6860 C   0  0  0  0  0  0  0  0  0  0  0  0
   28.0580   28.1330   50.5290 C   0  0  0  0  0  0  0  0  0  0  0  0
   27.8070   29.4390   49.9010 C   0  0  0  0  0  0  0  0  0  0  0  0
   27.7750   29.5350   48.4170 C   0  0  0  0  0  0  0  0  0  0  0  0
   34.2680   28.0122   50.3178 H   0  0  0  0  0  0  0  0  0  0  0  0
   32.2593   27.1151   49.1758 H   0  0  0  0  0  0  0  0  0  0  0  0
   37.8064   30.2892   51.8633 H   0  0  0  0  0  0  0  0  0  0  0  0
   39.1280   31.7839   50.3299 H   0  0  0  0  0  0  0  0  0  0  0  0
   38.3000   32.1172   47.9647 H   0  0  0  0  0  0  0  0  0  0  0  0
   31.2316   26.9544   46.5639 H   0  0  0  0  0  0  0  0  0  0  0  0
   32.6273   29.1248   45.2263 H   0  0  0  0  0  0  0  0  0  0  0  0
   32.1628   27.4767   44.6834 H   0  0  0  0  0  0  0  0  0  0  0  0
   30.9464   28.7985   44.6834 H   0  0  0  0  0  0  0  0  0  0  0  0
   30.4975   29.5527   47.7319 H   0  0  0  0  0  0  0  0  0  0  0  0
   29.6494   29.0625   46.1798 H   0  0  0  0  0  0  0  0  0  0  0  0
   27.7521   28.2281   46.6375 H   0  0  0  0  0  0  0  0  0  0  0  0
   26.1269   27.6442   48.6110 H   0  0  0  0  0  0  0  0  0  0  0  0
   26.9224   26.3185   47.7868 H   0  0  0  0  0  0  0  0  0  0  0  0
   27.2989   26.1627   50.2626 H   0  0  0  0  0  0  0  0  0  0  0  0
   28.8635   26.5208   49.4166 H   0  0  0  0  0  0  0  0  0  0  0  0
   27.3799   28.0471   51.3909 H   0  0  0  0  0  0  0  0  0  0  0  0
   29.1312   28.1421   50.7702 H   0  0  0  0  0  0  0  0  0  0  0  0
   26.8308   29.7897   50.2671 H   0  0  0  0  0  0  0  0  0  0  0  0
   28.6846   30.0389   50.1837 H   0  0  0  0  0  0  0  0  0  0  0  0
   28.5555   30.2423   48.0998 H   0  0  0  0  0  0  0  0  0  0  0  0
   26.7629   29.8674   48.1428 H   0  0  0  0  0  0  0  0  0  0  0  0
  1 10  1  0
  1  2  2  0
  3  2  1  0
  4  3  2  0
  5  4  1  0
  5  1  1  0
  7  6  2  0
  8  7  1  0
  9  8  2  0
  9 10  1  0
 10 11  2  0
 11  6  1  0
 12 14  1  0
 12  4  1  0
 13 12  1  0
 14 15  1  0
 16 15  1  0
 16 17  1  0
 16 21  1  0
 17 18  1  0
 18 19  1  0
 20 19  1  0
 21 20  1  0
  2 22  1  0
  3 23  1  0
  6 24  1  0
  7 25  1  0
  8 26  1  0
 12 27  1  6
 13 28  1  0
 13 29  1  0
 13 30  1  0
 14 31  1  0
 14 32  1  0
 16 33  1  0
 17 34  1  0
 17 35  1  0
 18 36  1  0
 18 37  1  0
 19 38  1  0
 19 39  1  0
 20 40  1  0
 20 41  1  0
 21 42  1  0
 21 43  1  0
M  ISO  8  22  14  23  14  24  14  25  14  26  14  27   8  28   8  29   8
M  ISO  8  30   8  31   8  32   8  33  13  34  13  35  13  36  13  37  13
M  ISO  6  38  13  39  13  40  13  41  13  42  13  43  13
M  END
>  <minimizedAffinity>  (1) 
-5.4504571

>  <minimizedRMSD>  (1) 
2.31899381

$$$$
