
     RDKit          3D

 40 42  0  0  1  0  0  0  0  0999 V2000
   31.6970   28.2650   46.3890 C   0  0  2  0  0  0  0  0  0  0  0  0
   34.9910   29.2260   48.6160 C   0  0  0  0  0  0  0  0  0  0  0  0
   34.3960   28.0230   49.0050 C   0  0  0  0  0  0  0  0  0  0  0  0
   33.3020   27.6390   48.3170 C   0  0  0  0  0  0  0  0  0  0  0  0
   32.8550   28.4180   47.3200 C   0  0  0  0  0  0  0  0  0  0  0  0
   33.9720   29.8360   47.2330 S   0  0  0  0  0  0  0  0  0  0  0  0
   37.4520   30.3170   51.1130 C   0  0  0  0  0  0  0  0  0  0  0  0
   38.3520   31.1000   50.3350 C   0  0  0  0  0  0  0  0  0  0  0  0
   38.0960   31.2330   48.9720 C   0  0  0  0  0  0  0  0  0  0  0  0
   37.0080   30.6100   48.4730 N   0  0  0  0  0  0  0  0  0  0  0  0
   36.1930   29.8960   49.2060 C   0  0  0  0  0  0  0  0  0  0  0  0
   36.3620   29.7040   50.5670 N   0  0  0  0  0  0  0  0  0  0  0  0
   31.1610   29.5810   46.0360 C   0  0  0  0  0  0  0  0  0  0  0  0
   30.7240   27.3030   47.0380 C   0  0  0  0  0  0  0  0  0  0  0  0
   30.0150   26.5600   46.2570 O   0  0  0  0  0  0  0  0  0  0  0  0
   29.9350   22.4690   45.6830 C   0  0  0  0  0  0  0  0  0  0  0  0
   28.7210   23.0990   45.5160 C   0  0  0  0  0  0  0  0  0  0  0  0
   28.6860   24.4590   45.6950 C   0  0  0  0  0  0  0  0  0  0  0  0
   29.7200   25.2910   46.0250 C   0  0  0  0  0  0  0  0  0  0  0  0
   30.9350   24.6110   46.1860 C   0  0  0  0  0  0  0  0  0  0  0  0
   31.0650   23.2200   46.0230 C   0  0  0  0  0  0  0  0  0  0  0  0
   29.9320   20.7440   45.4460 S   0  0  0  0  0  0  0  0  0  0  0  0
   31.1230   20.3910   44.5660 O   0  0  0  0  0  0  0  0  0  0  0  0
   28.7000   20.3850   44.6620 O   0  0  0  0  0  0  0  0  0  0  0  0
   31.9761   27.8272   45.4192 H   0  0  0  0  0  0  0  0  0  0  0  0
   34.8000   27.4195   49.8312 H   0  0  0  0  0  0  0  0  0  0  0  0
   32.7840   26.7019   48.5690 H   0  0  0  0  0  0  0  0  0  0  0  0
   37.6420   30.2025   52.1904 H   0  0  0  0  0  0  0  0  0  0  0  0
   39.2241   31.5858   50.7970 H   0  0  0  0  0  0  0  0  0  0  0  0
   38.7585   31.8260   48.3244 H   0  0  0  0  0  0  0  0  0  0  0  0
   30.9325   30.1421   46.9541 H   0  0  0  0  0  0  0  0  0  0  0  0
   31.9057   30.1336   45.4443 H   0  0  0  0  0  0  0  0  0  0  0  0
   30.2421   29.4560   45.4443 H   0  0  0  0  0  0  0  0  0  0  0  0
   31.3056   26.6353   47.6907 H   0  0  0  0  0  0  0  0  0  0  0  0
   29.9952   27.9450   47.5545 H   0  0  0  0  0  0  0  0  0  0  0  0
   27.8156   22.5340   45.2497 H   0  0  0  0  0  0  0  0  0  0  0  0
   27.7060   24.9389   45.5560 H   0  0  0  0  0  0  0  0  0  0  0  0
   31.8296   25.1930   46.4526 H   0  0  0  0  0  0  0  0  0  0  0  0
   32.0403   22.7303   46.1608 H   0  0  0  0  0  0  0  0  0  0  0  0
   29.9760   20.0935   46.6509 H   0  0  0  0  0  0  0  0  0  0  0  0
  1 14  1  0
  1  5  1  0
  2  3  2  0
  2 11  1  0
  4  3  1  0
  5  4  2  0
  6  5  1  0
  6  2  1  0
  8  7  2  0
  9  8  1  0
 10  9  2  0
 10 11  1  0
 11 12  2  0
 12  7  1  0
 13  1  1  0
 15 14  1  0
 16 21  2  0
 17 16  1  0
 17 18  2  0
 18 19  1  0
 19 20  2  0
 19 15  1  0
 21 20  1  0
 22 16  1  0
 23 22  2  0
 24 22  2  0
  1 25  1  6
  3 26  1  0
  4 27  1  0
  7 28  1  0
  8 29  1  0
  9 30  1  0
 13 31  1  0
 13 32  1  0
 13 33  1  0
 14 34  1  0
 14 35  1  0
 17 36  1  0
 18 37  1  0
 20 38  1  0
 21 39  1  0
 22 40  1  0
M  ISO  8  25   8  26  14  27  14  28  14  29  14  30  14  31   8  32   8
M  ISO  8  33   8  34   8  35   8  36  14  37  14  38  14  39  14  40  11
M  END
>  <minimizedAffinity>  (1) 
-4.73497915

>  <minimizedRMSD>  (1) 
1.8723805

$$$$
