
     RDKit          3D

 32 34  0  0  1  0  0  0  0  0999 V2000
   35.1790   29.5600   48.6120 C   0  0  0  0  0  0  0  0  0  0  0  0
   34.7480   28.3520   49.1680 C   0  0  0  0  0  0  0  0  0  0  0  0
   33.6230   27.8060   48.6620 C   0  0  0  0  0  0  0  0  0  0  0  0
   32.9920   28.4280   47.6810 C   0  0  0  0  0  0  0  0  0  0  0  0
   33.9560   29.9410   47.3310 S   0  0  0  0  0  0  0  0  0  0  0  0
   38.0420   30.8420   50.5130 C   0  0  0  0  0  0  0  0  0  0  0  0
   38.5960   31.8050   49.6590 C   0  0  0  0  0  0  0  0  0  0  0  0
   37.9800   31.9990   48.4490 C   0  0  0  0  0  0  0  0  0  0  0  0
   36.8820   31.2600   48.1450 N   0  0  0  0  0  0  0  0  0  0  0  0
   36.3890   30.3560   48.9850 C   0  0  0  0  0  0  0  0  0  0  0  0
   36.9340   30.0840   50.2280 N   0  0  0  0  0  0  0  0  0  0  0  0
   31.7680   28.0910   46.9100 C   0  0  2  0  0  0  0  0  0  0  0  0
   31.5230   29.1010   45.8800 C   0  0  0  0  0  0  0  0  0  0  0  0
   30.6350   27.8930   47.8960 C   0  0  0  0  0  0  0  0  0  0  0  0
   30.1070   26.6420   47.8470 O   0  0  0  0  0  0  0  0  0  0  0  0
   29.3020   26.2820   46.7710 C   0  0  0  0  0  0  0  0  0  0  0  0
   28.2980   26.9910   46.2250 N   0  0  0  0  0  0  0  0  0  0  0  0
   27.7790   26.3310   45.2380 O   0  0  0  0  0  0  0  0  0  0  0  0
   28.3760   25.1900   45.0680 C   0  0  0  0  0  0  0  0  0  0  0  0
   29.3400   25.1410   46.0250 N   0  0  0  0  0  0  0  0  0  0  0  0
   35.3032   27.8668   49.9843 H   0  0  0  0  0  0  0  0  0  0  0  0
   33.2361   26.8564   49.0602 H   0  0  0  0  0  0  0  0  0  0  0  0
   38.5320   30.6816   51.4847 H   0  0  0  0  0  0  0  0  0  0  0  0
   39.4876   32.3813   49.9470 H   0  0  0  0  0  0  0  0  0  0  0  0
   38.3691   32.7412   47.7364 H   0  0  0  0  0  0  0  0  0  0  0  0
   31.8773   27.1493   46.3520 H   0  0  0  0  0  0  0  0  0  0  0  0
   31.2895   30.0636   46.3585 H   0  0  0  0  0  0  0  0  0  0  0  0
   32.4205   29.2111   45.2536 H   0  0  0  0  0  0  0  0  0  0  0  0
   30.6748   28.7876   45.2536 H   0  0  0  0  0  0  0  0  0  0  0  0
   31.0172   28.0736   48.9115 H   0  0  0  0  0  0  0  0  0  0  0  0
   29.8361   28.6004   47.6289 H   0  0  0  0  0  0  0  0  0  0  0  0
   28.1495   24.4255   44.3102 H   0  0  0  0  0  0  0  0  0  0  0  0
  1 10  1  0
  1  2  2  0
  3  2  1  0
  4  3  2  0
  5  4  1  0
  5  1  1  0
  7  6  2  0
  8  7  1  0
  9  8  2  0
  9 10  1  0
 10 11  2  0
 11  6  1  0
 12  4  1  0
 12 14  1  0
 13 12  1  0
 15 14  1  0
 16 15  1  0
 17 16  2  0
 18 17  1  0
 19 18  1  0
 19 20  2  0
 20 16  1  0
  2 21  1  0
  3 22  1  0
  6 23  1  0
  7 24  1  0
  8 25  1  0
 12 26  1  6
 13 27  1  0
 13 28  1  0
 13 29  1  0
 14 30  1  0
 14 31  1  0
 19 32  1  0
M  ISO  8  21  14  22  14  23  14  24  14  25  14  26   8  27   8  28   8
M  ISO  4  29   8  30   8  31   8  32  14
M  END
>  <minimizedAffinity>  (1) 
-4.44477987

>  <minimizedRMSD>  (1) 
0.921846628

$$$$
