
     RDKit          3D

 34 36  0  0  1  0  0  0  0  0999 V2000
   35.1720   29.5210   48.6360 C   0  0  0  0  0  0  0  0  0  0  0  0
   34.7380   28.3370   49.2390 C   0  0  0  0  0  0  0  0  0  0  0  0
   33.6100   27.7820   48.7330 C   0  0  0  0  0  0  0  0  0  0  0  0
   32.9970   28.3710   47.7250 C   0  0  0  0  0  0  0  0  0  0  0  0
   33.9640   29.8590   47.3260 S   0  0  0  0  0  0  0  0  0  0  0  0
   38.0390   30.8460   50.5110 C   0  0  0  0  0  0  0  0  0  0  0  0
   38.5790   31.8040   49.6410 C   0  0  0  0  0  0  0  0  0  0  0  0
   37.9500   31.9820   48.4230 C   0  0  0  0  0  0  0  0  0  0  0  0
   36.8520   31.2340   48.1230 N   0  0  0  0  0  0  0  0  0  0  0  0
   36.3850   30.3380   48.9910 C   0  0  0  0  0  0  0  0  0  0  0  0
   36.9380   30.0810   50.2350 N   0  0  0  0  0  0  0  0  0  0  0  0
   31.7780   27.9880   46.9770 C   0  0  2  0  0  0  0  0  0  0  0  0
   31.5590   28.9300   45.8770 C   0  0  0  0  0  0  0  0  0  0  0  0
   30.6250   27.8730   47.9440 C   0  0  0  0  0  0  0  0  0  0  0  0
   29.9480   26.7080   47.8660 O   0  0  0  0  0  0  0  0  0  0  0  0
   29.2210   26.3450   46.7450 C   0  0  0  0  0  0  0  0  0  0  0  0
   29.0710   25.3080   45.8540 C   0  0  0  0  0  0  0  0  0  0  0  0
   28.0990   25.6950   44.9530 C   0  0  0  0  0  0  0  0  0  0  0  0
   27.6930   26.9570   45.3290 C   0  0  0  0  0  0  0  0  0  0  0  0
   28.3840   27.3010   46.3950 O   0  0  0  0  0  0  0  0  0  0  0  0
   35.2825   27.8805   50.0787 H   0  0  0  0  0  0  0  0  0  0  0  0
   33.2100   26.8499   49.1587 H   0  0  0  0  0  0  0  0  0  0  0  0
   38.5343   30.6991   51.4821 H   0  0  0  0  0  0  0  0  0  0  0  0
   39.4678   32.3905   49.9168 H   0  0  0  0  0  0  0  0  0  0  0  0
   38.3325   32.7205   47.7031 H   0  0  0  0  0  0  0  0  0  0  0  0
   31.8859   27.0005   46.5046 H   0  0  0  0  0  0  0  0  0  0  0  0
   31.3278   29.9244   46.2864 H   0  0  0  0  0  0  0  0  0  0  0  0
   32.4672   28.9899   45.2592 H   0  0  0  0  0  0  0  0  0  0  0  0
   30.7175   28.5831   45.2592 H   0  0  0  0  0  0  0  0  0  0  0  0
   31.0208   27.9736   48.9654 H   0  0  0  0  0  0  0  0  0  0  0  0
   29.9129   28.6690   47.6808 H   0  0  0  0  0  0  0  0  0  0  0  0
   29.6195   24.3545   45.8584 H   0  0  0  0  0  0  0  0  0  0  0  0
   27.7222   25.1100   44.1011 H   0  0  0  0  0  0  0  0  0  0  0  0
   26.9279   27.5679   44.8276 H   0  0  0  0  0  0  0  0  0  0  0  0
  1 10  1  0
  1  2  2  0
  3  2  1  0
  4  3  2  0
  5  4  1  0
  5  1  1  0
  7  6  2  0
  8  7  1  0
  9  8  2  0
  9 10  1  0
 10 11  2  0
 11  6  1  0
 12  4  1  0
 12 14  1  0
 13 12  1  0
 15 14  1  0
 16 15  1  0
 17 16  2  0
 18 19  2  0
 18 17  1  0
 19 20  1  0
 20 16  1  0
  2 21  1  0
  3 22  1  0
  6 23  1  0
  7 24  1  0
  8 25  1  0
 12 26  1  6
 13 27  1  0
 13 28  1  0
 13 29  1  0
 14 30  1  0
 14 31  1  0
 17 32  1  0
 18 33  1  0
 19 34  1  0
M  ISO  8  21  14  22  14  23  14  24  14  25  14  26   8  27   8  28   8
M  ISO  6  29   8  30   8  31   8  32  14  33  14  34  14
M  END
>  <minimizedAffinity>  (1) 
-4.52214813

>  <minimizedRMSD>  (1) 
1.04228806

$$$$
