
     RDKit          3D

 40 43  0  0  1  0  0  0  0  0999 V2000
   31.6970   28.0930   46.9530 C   0  0  2  0  0  0  0  0  0  0  0  0
   35.1040   29.5640   48.6310 C   0  0  0  0  0  0  0  0  0  0  0  0
   34.6750   28.3600   49.1870 C   0  0  0  0  0  0  0  0  0  0  0  0
   33.5440   27.8170   48.6890 C   0  0  0  0  0  0  0  0  0  0  0  0
   32.9240   28.4480   47.7200 C   0  0  0  0  0  0  0  0  0  0  0  0
   33.8770   29.9610   47.3540 S   0  0  0  0  0  0  0  0  0  0  0  0
   37.9990   30.8300   50.4990 C   0  0  0  0  0  0  0  0  0  0  0  0
   38.5710   31.7670   49.6180 C   0  0  0  0  0  0  0  0  0  0  0  0
   37.9480   31.9480   48.4030 C   0  0  0  0  0  0  0  0  0  0  0  0
   36.8290   31.2300   48.1110 N   0  0  0  0  0  0  0  0  0  0  0  0
   36.3340   30.3500   48.9980 C   0  0  0  0  0  0  0  0  0  0  0  0
   36.8750   30.0910   50.2370 N   0  0  0  0  0  0  0  0  0  0  0  0
   31.4410   29.0680   45.9180 C   0  0  0  0  0  0  0  0  0  0  0  0
   30.5710   27.8720   47.9570 C   0  0  0  0  0  0  0  0  0  0  0  0
   29.3370   28.0870   47.4470 O   0  0  0  0  0  0  0  0  0  0  0  0
   28.4500   28.9680   48.0200 C   0  0  0  0  0  0  0  0  0  0  0  0
   27.8960   29.2300   49.2520 C   0  0  0  0  0  0  0  0  0  0  0  0
   27.0510   30.3030   49.0910 C   0  0  0  0  0  0  0  0  0  0  0  0
   27.1290   30.6500   47.7460 C   0  0  0  0  0  0  0  0  0  0  0  0
   27.9660   29.8300   47.1680 O   0  0  0  0  0  0  0  0  0  0  0  0
   26.3710   31.7440   47.1970 N   0  0  0  0  0  0  0  0  0  0  0  0
   26.4470   32.1840   45.9270 C   0  0  0  0  0  0  0  0  0  0  0  0
   25.6120   33.2180   45.7340 N   0  0  0  0  0  0  0  0  0  0  0  0
   25.0000   33.4190   46.9310 C   0  0  0  0  0  0  0  0  0  0  0  0
   25.4970   32.4910   47.8000 N   0  0  0  0  0  0  0  0  0  0  0  0
   31.8098   27.1526   46.3936 H   0  0  0  0  0  0  0  0  0  0  0  0
   35.2352   27.8723   49.9984 H   0  0  0  0  0  0  0  0  0  0  0  0
   33.1518   26.8689   49.0857 H   0  0  0  0  0  0  0  0  0  0  0  0
   38.4913   30.6796   51.4711 H   0  0  0  0  0  0  0  0  0  0  0  0
   39.4764   32.3303   49.8882 H   0  0  0  0  0  0  0  0  0  0  0  0
   38.3514   32.6668   47.6746 H   0  0  0  0  0  0  0  0  0  0  0  0
   31.1874   30.0340   46.3789 H   0  0  0  0  0  0  0  0  0  0  0  0
   32.3391   29.1842   45.2935 H   0  0  0  0  0  0  0  0  0  0  0  0
   30.6017   28.7281   45.2935 H   0  0  0  0  0  0  0  0  0  0  0  0
   30.6230   26.8327   48.3137 H   0  0  0  0  0  0  0  0  0  0  0  0
   30.7153   28.6019   48.7672 H   0  0  0  0  0  0  0  0  0  0  0  0
   28.0917   28.6851   50.1873 H   0  0  0  0  0  0  0  0  0  0  0  0
   26.4392   30.7873   49.8663 H   0  0  0  0  0  0  0  0  0  0  0  0
   27.1024   31.7558   45.1542 H   0  0  0  0  0  0  0  0  0  0  0  0
   24.2450   34.1864   47.1572 H   0  0  0  0  0  0  0  0  0  0  0  0
  1  5  1  0
  1 14  1  0
  2 11  1  0
  2  3  2  0
  4  3  1  0
  5  4  2  0
  6  5  1  0
  6  2  1  0
  8  7  2  0
  9  8  1  0
 10  9  2  0
 10 11  1  0
 11 12  2  0
 12  7  1  0
 13  1  1  0
 15 14  1  0
 15 16  1  0
 16 17  2  0
 18 17  1  0
 19 18  2  0
 20 19  1  0
 20 16  1  0
 21 19  1  0
 21 25  1  0
 22 21  1  0
 23 22  2  0
 23 24  1  0
 24 25  2  0
  1 26  1  6
  3 27  1  0
  4 28  1  0
  7 29  1  0
  8 30  1  0
  9 31  1  0
 13 32  1  0
 13 33  1  0
 13 34  1  0
 14 35  1  0
 14 36  1  0
 17 37  1  0
 18 38  1  0
 22 39  1  0
 24 40  1  0
M  ISO  8  26   8  27  14  28  14  29  14  30  14  31  14  32   8  33   8
M  ISO  7  34   8  35   8  36   8  37  14  38  14  39  14  40  14
M  END
>  <minimizedAffinity>  (1) 
-6.15703392

>  <minimizedRMSD>  (1) 
3.10471749

$$$$
