
     RDKit          3D

 49 52  0  0  1  0  0  0  0  0999 V2000
   31.9400   27.8800   46.9000 C   0  0  2  0  0  0  0  0  0  0  0  0
   35.2350   29.5010   48.6410 C   0  0  0  0  0  0  0  0  0  0  0  0
   34.8320   28.3150   49.2430 C   0  0  0  0  0  0  0  0  0  0  0  0
   33.7200   27.7250   48.7100 C   0  0  0  0  0  0  0  0  0  0  0  0
   33.1180   28.2960   47.6950 C   0  0  0  0  0  0  0  0  0  0  0  0
   34.0510   29.8170   47.3050 S   0  0  0  0  0  0  0  0  0  0  0  0
   38.0650   30.8770   50.5440 C   0  0  0  0  0  0  0  0  0  0  0  0
   38.5930   31.8500   49.6810 C   0  0  0  0  0  0  0  0  0  0  0  0
   37.9660   32.0230   48.4570 C   0  0  0  0  0  0  0  0  0  0  0  0
   36.8860   31.2530   48.1540 N   0  0  0  0  0  0  0  0  0  0  0  0
   36.4310   30.3400   49.0260 C   0  0  0  0  0  0  0  0  0  0  0  0
   36.9810   30.0920   50.2620 N   0  0  0  0  0  0  0  0  0  0  0  0
   31.8020   28.6990   45.7170 C   0  0  0  0  0  0  0  0  0  0  0  0
   30.7390   27.8380   47.8340 C   0  0  0  0  0  0  0  0  0  0  0  0
   29.9760   26.7420   47.7000 O   0  0  0  0  0  0  0  0  0  0  0  0
   29.1540   26.5280   46.6110 C   0  0  0  0  0  0  0  0  0  0  0  0
   28.7650   25.5080   45.7690 C   0  0  0  0  0  0  0  0  0  0  0  0
   27.8760   26.0920   44.8830 C   0  0  0  0  0  0  0  0  0  0  0  0
   27.7570   27.4180   45.2080 C   0  0  0  0  0  0  0  0  0  0  0  0
   28.5350   27.6210   46.2390 O   0  0  0  0  0  0  0  0  0  0  0  0
   26.9100   28.3020   44.4800 N   0  0  0  0  0  0  0  0  0  0  0  0
   25.5460   27.9480   44.2500 C   0  0  0  0  0  0  0  0  0  0  0  0
   25.1680   28.4140   42.8430 C   0  0  0  0  0  0  0  0  0  0  0  0
   25.2760   29.9150   42.7260 C   0  0  0  0  0  0  0  0  0  0  0  0
   26.1770   30.5030   43.7870 C   0  0  0  0  0  0  0  0  0  0  0  0
   27.3570   29.5600   43.9520 C   0  0  0  0  0  0  0  0  0  0  0  0
   32.0502   26.8656   46.4891 H   0  0  0  0  0  0  0  0  0  0  0  0
   35.3738   27.8784   50.0949 H   0  0  0  0  0  0  0  0  0  0  0  0
   33.3351   26.7829   49.1275 H   0  0  0  0  0  0  0  0  0  0  0  0
   38.5584   30.7357   51.5169 H   0  0  0  0  0  0  0  0  0  0  0  0
   39.4694   32.4512   49.9647 H   0  0  0  0  0  0  0  0  0  0  0  0
   38.3361   32.7718   47.7412 H   0  0  0  0  0  0  0  0  0  0  0  0
   31.6260   29.7437   46.0128 H   0  0  0  0  0  0  0  0  0  0  0  0
   32.7232   28.6375   45.1190 H   0  0  0  0  0  0  0  0  0  0  0  0
   30.9518   28.3390   45.1190 H   0  0  0  0  0  0  0  0  0  0  0  0
   31.1062   27.8782   48.8701 H   0  0  0  0  0  0  0  0  0  0  0  0
   30.1052   28.6983   47.5728 H   0  0  0  0  0  0  0  0  0  0  0  0
   29.0905   24.4576   45.7955 H   0  0  0  0  0  0  0  0  0  0  0  0
   27.3552   25.5802   44.0603 H   0  0  0  0  0  0  0  0  0  0  0  0
   25.4252   26.8574   44.3272 H   0  0  0  0  0  0  0  0  0  0  0  0
   24.8958   28.4249   44.9982 H   0  0  0  0  0  0  0  0  0  0  0  0
   25.8462   27.9462   42.1142 H   0  0  0  0  0  0  0  0  0  0  0  0
   24.1272   28.1197   42.6429 H   0  0  0  0  0  0  0  0  0  0  0  0
   25.6837   30.1654   41.7355 H   0  0  0  0  0  0  0  0  0  0  0  0
   24.2702   30.3392   42.8617 H   0  0  0  0  0  0  0  0  0  0  0  0
   26.5301   31.4962   43.4726 H   0  0  0  0  0  0  0  0  0  0  0  0
   25.6352   30.6184   44.7373 H   0  0  0  0  0  0  0  0  0  0  0  0
   27.8321   29.3962   42.9735 H   0  0  0  0  0  0  0  0  0  0  0  0
   28.0818   30.0069   44.6484 H   0  0  0  0  0  0  0  0  0  0  0  0
  1  5  1  0
  1 14  1  0
  2 11  1  0
  2  3  2  0
  4  3  1  0
  5  4  2  0
  6  5  1  0
  6  2  1  0
  8  7  2  0
  9  8  1  0
 10  9  2  0
 10 11  1  0
 11 12  2  0
 12  7  1  0
 13  1  1  0
 15 14  1  0
 16 15  1  0
 17 16  2  0
 18 19  2  0
 18 17  1  0
 19 20  1  0
 20 16  1  0
 21 19  1  0
 22 21  1  0
 23 22  1  0
 24 23  1  0
 24 25  1  0
 25 26  1  0
 26 21  1  0
  1 27  1  6
  3 28  1  0
  4 29  1  0
  7 30  1  0
  8 31  1  0
  9 32  1  0
 13 33  1  0
 13 34  1  0
 13 35  1  0
 14 36  1  0
 14 37  1  0
 17 38  1  0
 18 39  1  0
 22 40  1  0
 22 41  1  0
 23 42  1  0
 23 43  1  0
 24 44  1  0
 24 45  1  0
 25 46  1  0
 25 47  1  0
 26 48  1  0
 26 49  1  0
M  ISO  8  27   8  28  14  29  14  30  14  31  14  32  14  33   8  34   8
M  ISO  8  35   8  36   8  37   8  38  14  39  14  40  13  41  13  42  13
M  ISO  7  43  13  44  13  45  13  46  13  47  13  48  13  49  13
M  END
>  <minimizedAffinity>  (1) 
-5.21544552

>  <minimizedRMSD>  (1) 
0.520440698

$$$$
