
     RDKit          3D

 48 51  0  0  1  0  0  0  0  0999 V2000
   31.6990   27.9370   46.7100 C   0  0  2  0  0  0  0  0  0  0  0  0
   34.9650   29.4350   48.6070 C   0  0  0  0  0  0  0  0  0  0  0  0
   34.4690   28.2630   49.1870 C   0  0  0  0  0  0  0  0  0  0  0  0
   33.3800   27.7210   48.6130 C   0  0  0  0  0  0  0  0  0  0  0  0
   32.8560   28.3090   47.5650 C   0  0  0  0  0  0  0  0  0  0  0  0
   33.8710   29.7870   47.2210 S   0  0  0  0  0  0  0  0  0  0  0  0
   37.7910   30.6520   50.6280 C   0  0  0  0  0  0  0  0  0  0  0  0
   38.4000   31.5980   49.7900 C   0  0  0  0  0  0  0  0  0  0  0  0
   37.8260   31.8060   48.5510 C   0  0  0  0  0  0  0  0  0  0  0  0
   36.7230   31.1010   48.2060 N   0  0  0  0  0  0  0  0  0  0  0  0
   36.1870   30.2080   49.0560 C   0  0  0  0  0  0  0  0  0  0  0  0
   36.6730   29.9220   50.3100 N   0  0  0  0  0  0  0  0  0  0  0  0
   31.6600   28.7580   45.5210 C   0  0  0  0  0  0  0  0  0  0  0  0
   30.4510   27.9660   47.5840 C   0  0  0  0  0  0  0  0  0  0  0  0
   29.8080   26.7670   47.6320 O   0  0  0  0  0  0  0  0  0  0  0  0
   29.2010   26.2170   46.5190 C   0  0  0  0  0  0  0  0  0  0  0  0
   29.0960   24.9960   45.9010 C   0  0  0  0  0  0  0  0  0  0  0  0
   28.2950   25.2210   44.7940 C   0  0  0  0  0  0  0  0  0  0  0  0
   27.9470   26.5470   44.7800 C   0  0  0  0  0  0  0  0  0  0  0  0
   28.5190   27.0810   45.8320 O   0  0  0  0  0  0  0  0  0  0  0  0
   27.1230   27.1220   43.7690 N   0  0  0  0  0  0  0  0  0  0  0  0
   26.2110   28.2240   44.1090 C   0  0  0  0  0  0  0  0  0  0  0  0
   24.7700   27.7450   43.8970 C   0  0  0  0  0  0  0  0  0  0  0  0
   24.6470   27.1150   42.6080 N   0  0  0  0  0  0  0  0  0  0  0  0
   25.8140   27.3390   41.7830 C   0  0  0  0  0  0  0  0  0  0  0  0
   27.0690   26.7350   42.3770 C   0  0  0  0  0  0  0  0  0  0  0  0
   31.7812   26.9149   46.3117 H   0  0  0  0  0  0  0  0  0  0  0  0
   34.9453   27.8076   50.0678 H   0  0  0  0  0  0  0  0  0  0  0  0
   32.9361   26.7990   49.0165 H   0  0  0  0  0  0  0  0  0  0  0  0
   38.2443   30.4822   51.6158 H   0  0  0  0  0  0  0  0  0  0  0  0
   39.2968   32.1508   50.1063 H   0  0  0  0  0  0  0  0  0  0  0  0
   38.2603   32.5363   47.8524 H   0  0  0  0  0  0  0  0  0  0  0  0
   31.6096   29.8184   45.8091 H   0  0  0  0  0  0  0  0  0  0  0  0
   32.5675   28.5828   44.9245 H   0  0  0  0  0  0  0  0  0  0  0  0
   30.7732   28.4976   44.9245 H   0  0  0  0  0  0  0  0  0  0  0  0
   30.7450   28.2474   48.6059 H   0  0  0  0  0  0  0  0  0  0  0  0
   29.7560   28.6949   47.1417 H   0  0  0  0  0  0  0  0  0  0  0  0
   29.5497   24.0449   46.2166 H   0  0  0  0  0  0  0  0  0  0  0  0
   27.9906   24.4663   44.0539 H   0  0  0  0  0  0  0  0  0  0  0  0
   26.3549   28.5139   45.1603 H   0  0  0  0  0  0  0  0  0  0  0  0
   26.4169   29.0950   43.4695 H   0  0  0  0  0  0  0  0  0  0  0  0
   24.5068   27.0218   44.6829 H   0  0  0  0  0  0  0  0  0  0  0  0
   24.0908   28.6090   43.9438 H   0  0  0  0  0  0  0  0  0  0  0  0
   24.5248   26.1013   42.7434 H   0  0  0  0  0  0  0  0  0  0  0  0
   25.9635   28.4230   41.6703 H   0  0  0  0  0  0  0  0  0  0  0  0
   25.6358   26.8521   40.8129 H   0  0  0  0  0  0  0  0  0  0  0  0
   27.0337   25.6387   42.2934 H   0  0  0  0  0  0  0  0  0  0  0  0
   27.9609   27.0924   41.8415 H   0  0  0  0  0  0  0  0  0  0  0  0
  1  5  1  0
  1 14  1  0
  2 11  1  0
  2  3  2  0
  4  3  1  0
  5  4  2  0
  6  5  1  0
  6  2  1  0
  8  7  2  0
  9  8  1  0
 10  9  2  0
 10 11  1  0
 11 12  2  0
 12  7  1  0
 13  1  1  0
 14 15  1  0
 16 15  1  0
 17 16  2  0
 18 17  1  0
 19 18  2  0
 19 20  1  0
 20 16  1  0
 21 22  1  0
 21 19  1  0
 23 22  1  0
 24 23  1  0
 25 26  1  0
 25 24  1  0
 26 21  1  0
  1 27  1  6
  3 28  1  0
  4 29  1  0
  7 30  1  0
  8 31  1  0
  9 32  1  0
 13 33  1  0
 13 34  1  0
 13 35  1  0
 14 36  1  0
 14 37  1  0
 17 38  1  0
 18 39  1  0
 22 40  1  0
 22 41  1  0
 23 42  1  0
 23 43  1  0
 24 44  1  0
 25 45  1  0
 25 46  1  0
 26 47  1  0
 26 48  1  0
M  ISO  8  27   8  28  14  29  14  30  14  31  14  32  14  33   8  34   8
M  ISO  8  35   8  36   8  37   8  38  14  39  14  40  13  41  13  42  13
M  ISO  6  43  13  44   5  45  13  46  13  47  13  48  13
M  END
>  <minimizedAffinity>  (1) 
-5.20364523

>  <minimizedRMSD>  (1) 
0.77222687

$$$$
