
     RDKit          3D

 41 44  0  0  1  0  0  0  0  0999 V2000
   31.7870   27.9470   46.9540 C   0  0  2  0  0  0  0  0  0  0  0  0
   35.1510   29.5030   48.6400 C   0  0  0  0  0  0  0  0  0  0  0  0
   34.7110   28.3270   49.2310 C   0  0  0  0  0  0  0  0  0  0  0  0
   33.5960   27.7520   48.7380 C   0  0  0  0  0  0  0  0  0  0  0  0
   32.9930   28.3360   47.7290 C   0  0  0  0  0  0  0  0  0  0  0  0
   33.9450   29.8390   47.3150 S   0  0  0  0  0  0  0  0  0  0  0  0
   38.0130   30.8300   50.4990 C   0  0  0  0  0  0  0  0  0  0  0  0
   38.5580   31.7800   49.6300 C   0  0  0  0  0  0  0  0  0  0  0  0
   37.9320   31.9600   48.4030 C   0  0  0  0  0  0  0  0  0  0  0  0
   36.8300   31.2150   48.1050 N   0  0  0  0  0  0  0  0  0  0  0  0
   36.3630   30.3220   48.9910 C   0  0  0  0  0  0  0  0  0  0  0  0
   36.9140   30.0690   50.2350 N   0  0  0  0  0  0  0  0  0  0  0  0
   31.6130   28.8040   45.8040 C   0  0  0  0  0  0  0  0  0  0  0  0
   30.6100   27.8950   47.9250 C   0  0  0  0  0  0  0  0  0  0  0  0
   29.8830   26.7540   47.8270 O   0  0  0  0  0  0  0  0  0  0  0  0
   29.1360   26.4530   46.7080 C   0  0  0  0  0  0  0  0  0  0  0  0
   28.9340   25.3940   45.8550 C   0  0  0  0  0  0  0  0  0  0  0  0
   28.0120   25.8220   44.9250 C   0  0  0  0  0  0  0  0  0  0  0  0
   27.6910   27.1240   45.2520 C   0  0  0  0  0  0  0  0  0  0  0  0
   28.3900   27.4400   46.3170 O   0  0  0  0  0  0  0  0  0  0  0  0
   26.7490   27.9060   44.4970 N   0  0  0  0  0  0  0  0  0  0  0  0
   27.0350   29.2120   44.2860 C   0  0  0  0  0  0  0  0  0  0  0  0
   25.9690   29.7230   43.5390 C   0  0  0  0  0  0  0  0  0  0  0  0
   25.1030   28.7110   43.3380 N   0  0  0  0  0  0  0  0  0  0  0  0
   25.5710   27.5940   43.9210 C   0  0  0  0  0  0  0  0  0  0  0  0
   31.8840   26.9443   46.5122 H   0  0  0  0  0  0  0  0  0  0  0  0
   35.2550   27.8782   50.0752 H   0  0  0  0  0  0  0  0  0  0  0  0
   33.2025   26.8196   49.1691 H   0  0  0  0  0  0  0  0  0  0  0  0
   38.5093   30.6859   51.4700 H   0  0  0  0  0  0  0  0  0  0  0  0
   39.4487   32.3628   49.9074 H   0  0  0  0  0  0  0  0  0  0  0  0
   38.3204   32.6939   47.6815 H   0  0  0  0  0  0  0  0  0  0  0  0
   31.4046   29.8305   46.1399 H   0  0  0  0  0  0  0  0  0  0  0  0
   32.5312   28.7957   45.1983 H   0  0  0  0  0  0  0  0  0  0  0  0
   30.7708   28.4383   45.1983 H   0  0  0  0  0  0  0  0  0  0  0  0
   30.9999   27.9735   48.9506 H   0  0  0  0  0  0  0  0  0  0  0  0
   29.9409   28.7302   47.6706 H   0  0  0  0  0  0  0  0  0  0  0  0
   29.4120   24.4046   45.9049 H   0  0  0  0  0  0  0  0  0  0  0  0
   27.6093   25.2385   44.0839 H   0  0  0  0  0  0  0  0  0  0  0  0
   27.9243   29.7596   44.6315 H   0  0  0  0  0  0  0  0  0  0  0  0
   25.8584   30.7577   43.1823 H   0  0  0  0  0  0  0  0  0  0  0  0
   25.0831   26.6081   43.9270 H   0  0  0  0  0  0  0  0  0  0  0  0
  1  5  1  0
  1 14  1  0
  2 11  1  0
  2  3  2  0
  4  3  1  0
  5  4  2  0
  6  5  1  0
  6  2  1  0
  8  7  2  0
  9  8  1  0
 10  9  2  0
 10 11  1  0
 11 12  2  0
 12  7  1  0
 13  1  1  0
 15 14  1  0
 16 15  1  0
 17 16  2  0
 18 19  2  0
 18 17  1  0
 19 20  1  0
 20 16  1  0
 21 19  1  0
 22 21  1  0
 23 22  2  0
 24 23  1  0
 24 25  2  0
 25 21  1  0
  1 26  1  6
  3 27  1  0
  4 28  1  0
  7 29  1  0
  8 30  1  0
  9 31  1  0
 13 32  1  0
 13 33  1  0
 13 34  1  0
 14 35  1  0
 14 36  1  0
 17 37  1  0
 18 38  1  0
 22 39  1  0
 23 40  1  0
 25 41  1  0
M  ISO  8  26   8  27  14  28  14  29  14  30  14  31  14  32   8  33   8
M  ISO  8  34   8  35   8  36   8  37  14  38  14  39  14  40  14  41  14
M  END
>  <minimizedAffinity>  (1) 
-5.07683849

>  <minimizedRMSD>  (1) 
0.180731729

$$$$
