
     RDKit          3D

 39 42  0  0  1  0  0  0  0  0999 V2000
   31.9340   27.8720   47.0520 C   0  0  2  0  0  0  0  0  0  0  0  0
   35.2890   29.5900   48.6080 C   0  0  0  0  0  0  0  0  0  0  0  0
   34.8890   28.4180   49.2620 C   0  0  0  0  0  0  0  0  0  0  0  0
   33.7820   27.7980   48.8130 C   0  0  0  0  0  0  0  0  0  0  0  0
   33.1430   28.3220   47.7950 C   0  0  0  0  0  0  0  0  0  0  0  0
   34.0540   29.8290   47.3100 S   0  0  0  0  0  0  0  0  0  0  0  0
   38.1420   31.0710   50.3740 C   0  0  0  0  0  0  0  0  0  0  0  0
   38.6860   31.9510   49.4170 C   0  0  0  0  0  0  0  0  0  0  0  0
   38.0560   32.0260   48.1800 C   0  0  0  0  0  0  0  0  0  0  0  0
   36.9640   31.2580   47.9560 N   0  0  0  0  0  0  0  0  0  0  0  0
   36.4910   30.4360   48.9080 C   0  0  0  0  0  0  0  0  0  0  0  0
   37.0380   30.2900   50.1590 N   0  0  0  0  0  0  0  0  0  0  0  0
   31.7060   28.7000   45.8890 C   0  0  0  0  0  0  0  0  0  0  0  0
   30.7850   27.7920   48.0500 C   0  0  0  0  0  0  0  0  0  0  0  0
   30.0560   26.6700   47.9560 O   0  0  0  0  0  0  0  0  0  0  0  0
   29.2850   26.3690   46.8500 C   0  0  0  0  0  0  0  0  0  0  0  0
   29.0380   25.3210   45.9840 C   0  0  0  0  0  0  0  0  0  0  0  0
   28.0950   25.7970   45.0860 C   0  0  0  0  0  0  0  0  0  0  0  0
   27.8140   27.0890   45.4390 C   0  0  0  0  0  0  0  0  0  0  0  0
   28.5450   27.3710   46.4850 O   0  0  0  0  0  0  0  0  0  0  0  0
   26.8440   27.8600   44.6670 C   0  0  0  0  0  0  0  0  0  0  0  0
   26.8250   29.1980   44.4720 N   0  0  0  0  0  0  0  0  0  0  0  0
   25.8060   29.5210   43.7280 O   0  0  0  0  0  0  0  0  0  0  0  0
   25.1240   28.4410   43.4060 C   0  0  0  0  0  0  0  0  0  0  0  0
   25.7660   27.3920   43.9900 N   0  0  0  0  0  0  0  0  0  0  0  0
   32.0557   26.8658   46.6244 H   0  0  0  0  0  0  0  0  0  0  0  0
   35.4597   28.0181   50.1131 H   0  0  0  0  0  0  0  0  0  0  0  0
   33.4220   26.8738   49.2887 H   0  0  0  0  0  0  0  0  0  0  0  0
   38.6352   31.0076   51.3552 H   0  0  0  0  0  0  0  0  0  0  0  0
   39.5767   32.5565   49.6407 H   0  0  0  0  0  0  0  0  0  0  0  0
   38.4381   32.6976   47.3971 H   0  0  0  0  0  0  0  0  0  0  0  0
   31.4267   29.7143   46.2101 H   0  0  0  0  0  0  0  0  0  0  0  0
   32.6248   28.7463   45.2860 H   0  0  0  0  0  0  0  0  0  0  0  0
   30.8930   28.2694   45.2860 H   0  0  0  0  0  0  0  0  0  0  0  0
   31.2046   27.8474   49.0653 H   0  0  0  0  0  0  0  0  0  0  0  0
   30.1090   28.6298   47.8238 H   0  0  0  0  0  0  0  0  0  0  0  0
   29.4936   24.3199   46.0030 H   0  0  0  0  0  0  0  0  0  0  0  0
   27.6546   25.2398   44.2460 H   0  0  0  0  0  0  0  0  0  0  0  0
   24.2154   28.3956   42.7876 H   0  0  0  0  0  0  0  0  0  0  0  0
  1  5  1  0
  1 14  1  0
  2 11  1  0
  2  3  2  0
  4  3  1  0
  5  4  2  0
  6  5  1  0
  6  2  1  0
  8  7  2  0
  9  8  1  0
 10  9  2  0
 10 11  1  0
 11 12  2  0
 12  7  1  0
 13  1  1  0
 15 14  1  0
 16 15  1  0
 17 16  2  0
 18 19  2  0
 18 17  1  0
 19 20  1  0
 20 16  1  0
 21 19  1  0
 22 21  2  0
 23 22  1  0
 24 23  1  0
 24 25  2  0
 25 21  1  0
  1 26  1  6
  3 27  1  0
  4 28  1  0
  7 29  1  0
  8 30  1  0
  9 31  1  0
 13 32  1  0
 13 33  1  0
 13 34  1  0
 14 35  1  0
 14 36  1  0
 17 37  1  0
 18 38  1  0
 24 39  1  0
M  ISO  8  26   8  27  14  28  14  29  14  30  14  31  14  32   8  33   8
M  ISO  6  34   8  35   8  36   8  37  14  38  14  39  14
M  END
>  <minimizedAffinity>  (1) 
-5.06824064

>  <minimizedRMSD>  (1) 
0.277887195

$$$$
