
     RDKit          3D

 12 12  0  0  0  0  0  0  0  0999 V2000
   37.4350   30.2240   51.3040 C   0  0  0  0  0  0  0  0  0  0  0  0
   38.1250   31.0450   50.3710 C   0  0  0  0  0  0  0  0  0  0  0  0
   37.8550   30.8510   49.0170 C   0  0  0  0  0  0  0  0  0  0  0  0
   36.9560   29.9030   48.6510 N   0  0  0  0  0  0  0  0  0  0  0  0
   36.3130   29.1360   49.5570 C   0  0  0  0  0  0  0  0  0  0  0  0
   36.5570   29.3030   50.8730 N   0  0  0  0  0  0  0  0  0  0  0  0
   38.5260   31.6540   48.0240 C   0  0  0  0  0  0  0  0  0  0  0  0
   38.8850   32.8430   48.2530 O   0  0  0  0  0  0  0  0  0  0  0  0
   37.6204   30.3431   52.3817 H   0  0  0  0  0  0  0  0  0  0  0  0
   38.8458   31.8058   50.7052 H   0  0  0  0  0  0  0  0  0  0  0  0
   35.5913   28.3762   49.2225 H   0  0  0  0  0  0  0  0  0  0  0  0
   38.7315   31.2167   47.0358 H   0  0  0  0  0  0  0  0  0  0  0  0
  2  1  2  0
  3  2  1  0
  4  3  2  0
  4  5  1  0
  5  6  2  0
  6  1  1  0
  7  8  2  0
  7  3  1  0
  1  9  1  0
  2 10  1  0
  5 11  1  0
  7 12  1  0
M  ISO  4   9  14  10  14  11  14  12   6
M  END
>  <minimizedAffinity>  (1) 
-3.34085202

>  <minimizedRMSD>  (1) 
0.544897974

$$$$
