
     RDKit          3D

 36 38  0  0  1  0  0  0  0  0999 V2000
   31.8080   27.9970   46.9840 C   0  0  2  0  0  0  0  0  0  0  0  0
   35.1640   29.5590   48.6590 C   0  0  0  0  0  0  0  0  0  0  0  0
   34.7630   28.3640   49.2590 C   0  0  0  0  0  0  0  0  0  0  0  0
   33.6300   27.7980   48.7470 C   0  0  0  0  0  0  0  0  0  0  0  0
   33.0110   28.3930   47.7560 C   0  0  0  0  0  0  0  0  0  0  0  0
   33.9490   29.8920   47.3750 S   0  0  0  0  0  0  0  0  0  0  0  0
   38.0510   30.8670   50.5210 C   0  0  0  0  0  0  0  0  0  0  0  0
   38.6000   31.8150   49.6300 C   0  0  0  0  0  0  0  0  0  0  0  0
   37.9650   31.9880   48.4130 C   0  0  0  0  0  0  0  0  0  0  0  0
   36.8580   31.2500   48.1370 N   0  0  0  0  0  0  0  0  0  0  0  0
   36.3820   30.3620   49.0250 C   0  0  0  0  0  0  0  0  0  0  0  0
   36.9450   30.1240   50.2560 N   0  0  0  0  0  0  0  0  0  0  0  0
   31.5930   28.8990   45.8760 C   0  0  0  0  0  0  0  0  0  0  0  0
   30.6540   27.8390   47.9610 C   0  0  0  0  0  0  0  0  0  0  0  0
   29.9900   26.6790   47.8420 O   0  0  0  0  0  0  0  0  0  0  0  0
   29.2270   26.3640   46.7330 C   0  0  0  0  0  0  0  0  0  0  0  0
   29.0830   25.3530   45.8010 C   0  0  0  0  0  0  0  0  0  0  0  0
   28.0610   25.7830   44.9650 C   0  0  0  0  0  0  0  0  0  0  0  0
   27.6340   27.0070   45.4070 C   0  0  0  0  0  0  0  0  0  0  0  0
   28.3570   27.3030   46.4580 O   0  0  0  0  0  0  0  0  0  0  0  0
   26.5850   27.7100   44.7490 N   0  0  0  0  0  0  0  0  0  0  0  0
   31.9281   27.0203   46.4925 H   0  0  0  0  0  0  0  0  0  0  0  0
   35.3224   27.9082   50.0893 H   0  0  0  0  0  0  0  0  0  0  0  0
   33.2421   26.8555   49.1607 H   0  0  0  0  0  0  0  0  0  0  0  0
   38.5501   30.7210   51.4903 H   0  0  0  0  0  0  0  0  0  0  0  0
   39.4978   32.3935   49.8933 H   0  0  0  0  0  0  0  0  0  0  0  0
   38.3505   32.7120   47.6800 H   0  0  0  0  0  0  0  0  0  0  0  0
   31.3540   29.9016   46.2604 H   0  0  0  0  0  0  0  0  0  0  0  0
   32.5043   28.9493   45.2620 H   0  0  0  0  0  0  0  0  0  0  0  0
   30.7570   28.5328   45.2620 H   0  0  0  0  0  0  0  0  0  0  0  0
   31.0554   27.9039   48.9831 H   0  0  0  0  0  0  0  0  0  0  0  0
   29.9352   28.6404   47.7350 H   0  0  0  0  0  0  0  0  0  0  0  0
   29.6528   24.4143   45.7360 H   0  0  0  0  0  0  0  0  0  0  0  0
   27.6632   25.2354   44.0979 H   0  0  0  0  0  0  0  0  0  0  0  0
   26.2815   28.6294   45.1006 H   0  0  0  0  0  0  0  0  0  0  0  0
   26.1297   27.2992   43.9215 H   0  0  0  0  0  0  0  0  0  0  0  0
  1  5  1  0
  1 14  1  0
  2 11  1  0
  2  3  2  0
  4  3  1  0
  5  4  2  0
  6  5  1  0
  6  2  1  0
  8  7  2  0
  9  8  1  0
 10  9  2  0
 10 11  1  0
 11 12  2  0
 12  7  1  0
 13  1  1  0
 15 14  1  0
 16 15  1  0
 17 16  2  0
 18 19  2  0
 18 17  1  0
 19 20  1  0
 20 16  1  0
 21 19  1  0
  1 22  1  6
  3 23  1  0
  4 24  1  0
  7 25  1  0
  8 26  1  0
  9 27  1  0
 13 28  1  0
 13 29  1  0
 13 30  1  0
 14 31  1  0
 14 32  1  0
 17 33  1  0
 18 34  1  0
 21 35  1  0
 21 36  1  0
M  ISO  8  22   8  23  14  24  14  25  14  26  14  27  14  28   8  29   8
M  ISO  5  30   8  31   8  32   8  33  14  34  14
M  END
>  <minimizedAffinity>  (1) 
-4.67030096

>  <minimizedRMSD>  (1) 
0.0574674234

$$$$
