
     RDKit          3D

 13 13  0  0  0  0  0  0  0  0999 V2000
   37.3680   30.2270   51.3220 C   0  0  0  0  0  0  0  0  0  0  0  0
   38.0200   30.6850   50.1660 C   0  0  0  0  0  0  0  0  0  0  0  0
   37.4930   30.3000   48.9300 C   0  0  0  0  0  0  0  0  0  0  0  0
   36.3830   29.5060   48.9210 N   0  0  0  0  0  0  0  0  0  0  0  0
   35.7880   29.0890   50.0530 C   0  0  0  0  0  0  0  0  0  0  0  0
   36.2690   29.4420   51.2550 N   0  0  0  0  0  0  0  0  0  0  0  0
   38.1590   30.7670   47.6870 C   0  0  0  0  0  0  0  0  0  0  0  0
   37.7615   30.5143   52.3082 H   0  0  0  0  0  0  0  0  0  0  0  0
   38.9132   31.3237   50.2307 H   0  0  0  0  0  0  0  0  0  0  0  0
   34.8948   28.4498   49.9926 H   0  0  0  0  0  0  0  0  0  0  0  0
   39.0339   31.3805   47.9481 H   0  0  0  0  0  0  0  0  0  0  0  0
   38.4838   29.8978   47.0962 H   0  0  0  0  0  0  0  0  0  0  0  0
   37.4525   31.3685   47.0962 H   0  0  0  0  0  0  0  0  0  0  0  0
  2  1  2  0
  3  2  1  0
  4  3  2  0
  4  5  1  0
  5  6  2  0
  6  1  1  0
  7  3  1  0
  1  8  1  0
  2  9  1  0
  5 10  1  0
  7 11  1  0
  7 12  1  0
  7 13  1  0
M  ISO  6   8  14   9  14  10  14  11   8  12   8  13   8
M  END
>  <minimizedAffinity>  (1) 
-3.29447436

>  <minimizedRMSD>  (1) 
0.267907441

$$$$
