
     RDKit          3D

 29 30  0  0  1  0  0  0  0  0999 V2000
   39.2840   31.3880   46.6890 C   0  0  2  0  0  0  0  0  0  0  0  0
   39.7940   32.6710   46.1380 C   0  0  0  0  0  0  0  0  0  0  0  0
   40.8450   32.4330   45.1140 C   0  0  0  0  0  0  0  0  0  0  0  0
   40.5160   31.3990   44.1220 C   0  0  0  0  0  0  0  0  0  0  0  0
   39.6940   30.2480   44.5610 C   0  0  0  0  0  0  0  0  0  0  0  0
   38.6420   30.6120   45.6060 C   0  0  2  0  0  0  0  0  0  0  0  0
   38.2870   32.7340   48.5380 C   0  0  0  0  0  0  0  0  0  0  0  0
   38.4340   31.5230   47.8520 C   0  0  0  0  0  0  0  0  0  0  0  0
   37.7500   30.4170   48.3220 C   0  0  0  0  0  0  0  0  0  0  0  0
   36.9630   30.5340   49.4290 N   0  0  0  0  0  0  0  0  0  0  0  0
   36.8440   31.7330   50.0740 C   0  0  0  0  0  0  0  0  0  0  0  0
   37.5010   32.8020   49.6240 N   0  0  0  0  0  0  0  0  0  0  0  0
   37.5450   31.2940   44.8440 C   0  0  0  0  0  0  0  0  0  0  0  0
   37.7330   31.1150   43.4570 F   0  0  0  0  0  0  0  0  0  0  0  0
   36.2770   30.9650   45.1930 F   0  0  0  0  0  0  0  0  0  0  0  0
   37.6530   32.6870   44.9840 F   0  0  0  0  0  0  0  0  0  0  0  0
   40.1539   30.8346   47.0725 H   0  0  0  0  0  0  0  0  0  0  0  0
   38.9604   33.2205   45.6763 H   0  0  0  0  0  0  0  0  0  0  0  0
   40.2331   33.2547   46.9605 H   0  0  0  0  0  0  0  0  0  0  0  0
   41.0211   33.3775   44.5783 H   0  0  0  0  0  0  0  0  0  0  0  0
   41.7303   32.0707   45.6571 H   0  0  0  0  0  0  0  0  0  0  0  0
   41.4666   30.9958   43.7428 H   0  0  0  0  0  0  0  0  0  0  0  0
   39.8877   31.9183   43.3834 H   0  0  0  0  0  0  0  0  0  0  0  0
   39.1811   29.8313   43.6816 H   0  0  0  0  0  0  0  0  0  0  0  0
   40.3768   29.5236   45.0291 H   0  0  0  0  0  0  0  0  0  0  0  0
   38.1915   29.7595   46.1354 H   0  0  0  0  0  0  0  0  0  0  0  0
   38.8166   33.6318   48.1866 H   0  0  0  0  0  0  0  0  0  0  0  0
   37.8402   29.4496   47.8063 H   0  0  0  0  0  0  0  0  0  0  0  0
   36.2052   31.8160   50.9657 H   0  0  0  0  0  0  0  0  0  0  0  0
  1  8  1  0
  2  1  1  0
  3  2  1  0
  4  5  1  0
  4  3  1  0
  5  6  1  0
  6  1  1  0
  7 12  2  0
  8  9  2  0
  8  7  1  0
  9 10  1  0
 10 11  2  0
 12 11  1  0
 13 16  1  0
 13 15  1  0
 13  6  1  0
 14 13  1  0
  1 17  1  1
  2 18  1  0
  2 19  1  0
  3 20  1  0
  3 21  1  0
  4 22  1  0
  4 23  1  0
  5 24  1  0
  5 25  1  0
  6 26  1  1
  7 27  1  0
  9 28  1  0
 11 29  1  0
M  ISO  8  17  13  18  13  19  13  20  13  21  13  22  13  23  13  24  13
M  ISO  5  25  13  26  13  27  14  28  14  29  14
M  END
>  <minimizedAffinity>  (1) 
-5.38304186

>  <minimizedRMSD>  (1) 
2.27350235

$$$$
