
     RDKit          3D

 34 36  0  0  1  0  0  0  0  0999 V2000
   38.2610   31.2400   46.6990 C   0  0  2  0  0  0  0  0  0  0  0  0
   38.9720   32.4650   47.1970 C   0  0  0  0  0  0  0  0  0  0  0  0
   40.0870   32.7650   46.1990 C   0  0  0  0  0  0  0  0  0  0  0  0
   39.5470   32.9840   44.8540 C   0  0  0  0  0  0  0  0  0  0  0  0
   38.1370   32.6320   44.5950 C   0  0  0  0  0  0  0  0  0  0  0  0
   37.6100   31.4740   45.4220 C   0  0  1  0  0  0  0  0  0  0  0  0
   37.8430   30.2120   48.9300 C   0  0  0  0  0  0  0  0  0  0  0  0
   37.3800   30.6410   47.6800 C   0  0  0  0  0  0  0  0  0  0  0  0
   36.0460   30.4340   47.3900 C   0  0  0  0  0  0  0  0  0  0  0  0
   35.2470   29.8290   48.3160 N   0  0  0  0  0  0  0  0  0  0  0  0
   35.7280   29.4290   49.5110 C   0  0  0  0  0  0  0  0  0  0  0  0
   37.0130   29.6230   49.8050 N   0  0  0  0  0  0  0  0  0  0  0  0
   37.8320   30.2820   44.5140 C   0  0  0  0  0  0  0  0  0  0  0  0
   36.7680   29.8130   43.7490 C   0  0  0  0  0  0  0  0  0  0  0  0
   36.8600   28.7230   42.8880 C   0  0  0  0  0  0  0  0  0  0  0  0
   38.0680   28.1130   42.8210 N   0  0  0  0  0  0  0  0  0  0  0  0
   39.0930   28.5970   43.5840 C   0  0  0  0  0  0  0  0  0  0  0  0
   39.0130   29.6460   44.4160 N   0  0  0  0  0  0  0  0  0  0  0  0
   39.0420   30.4852   46.5251 H   0  0  0  0  0  0  0  0  0  0  0  0
   38.2733   33.3129   47.2501 H   0  0  0  0  0  0  0  0  0  0  0  0
   39.3790   32.3020   48.2058 H   0  0  0  0  0  0  0  0  0  0  0  0
   40.6244   33.6688   46.5218 H   0  0  0  0  0  0  0  0  0  0  0  0
   40.7676   31.9015   46.1657 H   0  0  0  0  0  0  0  0  0  0  0  0
   39.6610   34.0546   44.6287 H   0  0  0  0  0  0  0  0  0  0  0  0
   40.1184   32.2915   44.2184 H   0  0  0  0  0  0  0  0  0  0  0  0
   37.5183   33.5158   44.8097 H   0  0  0  0  0  0  0  0  0  0  0  0
   38.0849   32.3120   43.5439 H   0  0  0  0  0  0  0  0  0  0  0  0
   36.5695   31.6782   45.7148 H   0  0  0  0  0  0  0  0  0  0  0  0
   38.8996   30.3595   49.1980 H   0  0  0  0  0  0  0  0  0  0  0  0
   35.6316   30.7535   46.4224 H   0  0  0  0  0  0  0  0  0  0  0  0
   35.0619   28.9445   50.2401 H   0  0  0  0  0  0  0  0  0  0  0  0
   35.8015   30.3321   43.8292 H   0  0  0  0  0  0  0  0  0  0  0  0
   36.0005   28.3765   42.2955 H   0  0  0  0  0  0  0  0  0  0  0  0
   40.0634   28.0843   43.5098 H   0  0  0  0  0  0  0  0  0  0  0  0
  1  2  1  0
  1  8  1  0
  3  2  1  0
  4  3  1  0
  5  4  1  0
  5  6  1  0
  6  1  1  0
  7 12  2  0
  8  7  1  0
  9  8  2  0
  9 10  1  0
 10 11  2  0
 11 12  1  0
 13  6  1  0
 14 13  2  0
 15 14  1  0
 16 15  2  0
 16 17  1  0
 17 18  2  0
 18 13  1  0
  1 19  1  6
  2 20  1  0
  2 21  1  0
  3 22  1  0
  3 23  1  0
  4 24  1  0
  4 25  1  0
  5 26  1  0
  5 27  1  0
  6 28  1  1
  7 29  1  0
  9 30  1  0
 11 31  1  0
 14 32  1  0
 15 33  1  0
 17 34  1  0
M  ISO  8  19  13  20  13  21  13  22  13  23  13  24  13  25  13  26  13
M  ISO  8  27  13  28  13  29  14  30  14  31  14  32  14  33  14  34  14
M  END
>  <minimizedAffinity>  (1) 
-5.11251068

>  <minimizedRMSD>  (1) 
1.74388075

$$$$
