
     RDKit          3D

 36 38  0  0  1  0  0  0  0  0999 V2000
   38.5440   31.2380   46.4530 C   0  0  2  0  0  0  0  0  0  0  0  0
   39.2170   32.4670   46.9790 C   0  0  0  0  0  0  0  0  0  0  0  0
   40.2990   32.9000   46.0060 C   0  0  0  0  0  0  0  0  0  0  0  0
   39.5530   33.3980   44.7990 C   0  0  0  0  0  0  0  0  0  0  0  0
   38.7310   32.3150   44.1990 C   0  0  0  0  0  0  0  0  0  0  0  0
   38.0050   31.3880   45.1270 C   0  0  1  0  0  0  0  0  0  0  0  0
   37.9200   30.3650   48.7080 C   0  0  0  0  0  0  0  0  0  0  0  0
   37.5380   30.7290   47.4090 C   0  0  0  0  0  0  0  0  0  0  0  0
   36.1980   30.5940   47.0340 C   0  0  0  0  0  0  0  0  0  0  0  0
   35.3240   30.1180   47.9400 N   0  0  0  0  0  0  0  0  0  0  0  0
   35.7150   29.7670   49.2030 C   0  0  0  0  0  0  0  0  0  0  0  0
   37.0100   29.8940   49.5770 N   0  0  0  0  0  0  0  0  0  0  0  0
   38.0700   30.1140   44.3050 C   0  0  0  0  0  0  0  0  0  0  0  0
   36.8350   29.8190   43.7130 C   0  0  0  0  0  0  0  0  0  0  0  0
   36.7010   28.6710   42.9220 C   0  0  0  0  0  0  0  0  0  0  0  0
   37.7820   27.8160   42.7150 C   0  0  0  0  0  0  0  0  0  0  0  0
   38.9670   28.1370   43.3070 C   0  0  0  0  0  0  0  0  0  0  0  0
   39.1160   29.2530   44.0830 C   0  0  0  0  0  0  0  0  0  0  0  0
   39.3343   30.4795   46.3527 H   0  0  0  0  0  0  0  0  0  0  0  0
   38.4768   33.2733   47.0885 H   0  0  0  0  0  0  0  0  0  0  0  0
   39.6670   32.2507   47.9592 H   0  0  0  0  0  0  0  0  0  0  0  0
   40.9125   33.7028   46.4408 H   0  0  0  0  0  0  0  0  0  0  0  0
   40.9880   32.0789   45.7588 H   0  0  0  0  0  0  0  0  0  0  0  0
   38.8940   34.2259   45.0993 H   0  0  0  0  0  0  0  0  0  0  0  0
   40.2834   33.7400   44.0510 H   0  0  0  0  0  0  0  0  0  0  0  0
   37.9762   32.7938   43.5579 H   0  0  0  0  0  0  0  0  0  0  0  0
   39.4580   31.6723   43.6809 H   0  0  0  0  0  0  0  0  0  0  0  0
   37.0011   31.7503   45.3935 H   0  0  0  0  0  0  0  0  0  0  0  0
   38.9708   30.4656   49.0174 H   0  0  0  0  0  0  0  0  0  0  0  0
   35.8659   30.8703   46.0224 H   0  0  0  0  0  0  0  0  0  0  0  0
   34.9740   29.3799   49.9179 H   0  0  0  0  0  0  0  0  0  0  0  0
   35.9743   30.4861   43.8688 H   0  0  0  0  0  0  0  0  0  0  0  0
   35.7303   28.4413   42.4583 H   0  0  0  0  0  0  0  0  0  0  0  0
   37.6822   26.9129   42.0950 H   0  0  0  0  0  0  0  0  0  0  0  0
   39.8329   27.4758   43.1554 H   0  0  0  0  0  0  0  0  0  0  0  0
   40.0943   29.4653   44.5389 H   0  0  0  0  0  0  0  0  0  0  0  0
  1  2  1  0
  1  8  1  0
  3  2  1  0
  4  3  1  0
  5  4  1  0
  5  6  1  0
  6  1  1  0
  7 12  2  0
  8  7  1  0
  9  8  2  0
  9 10  1  0
 10 11  2  0
 11 12  1  0
 13  6  1  0
 14 13  2  0
 15 14  1  0
 16 15  2  0
 16 17  1  0
 17 18  2  0
 18 13  1  0
  1 19  1  6
  2 20  1  0
  2 21  1  0
  3 22  1  0
  3 23  1  0
  4 24  1  0
  4 25  1  0
  5 26  1  0
  5 27  1  0
  6 28  1  1
  7 29  1  0
  9 30  1  0
 11 31  1  0
 14 32  1  0
 15 33  1  0
 16 34  1  0
 17 35  1  0
 18 36  1  0
M  ISO  8  19  13  20  13  21  13  22  13  23  13  24  13  25  13  26  13
M  ISO  8  27  13  28  13  29  14  30  14  31  14  32  14  33  14  34  14
M  ISO  2  35  14  36  14
M  END
>  <minimizedAffinity>  (1) 
-5.04076672

>  <minimizedRMSD>  (1) 
1.95557618

$$$$
