
     RDKit          3D

 33 34  0  0  1  0  0  0  0  0999 V2000
   38.5110   31.4080   46.5630 C   0  0  2  0  0  0  0  0  0  0  0  0
   39.0210   32.6700   47.2180 C   0  0  0  0  0  0  0  0  0  0  0  0
   40.2450   33.1230   46.4240 C   0  0  0  0  0  0  0  0  0  0  0  0
   39.7350   33.5630   45.0830 C   0  0  0  0  0  0  0  0  0  0  0  0
   38.8290   32.6290   44.3870 C   0  0  0  0  0  0  0  0  0  0  0  0
   38.0200   31.6870   45.2130 C   0  0  1  0  0  0  0  0  0  0  0  0
   37.8110   30.2810   48.6440 C   0  0  0  0  0  0  0  0  0  0  0  0
   37.4880   30.7480   47.3630 C   0  0  0  0  0  0  0  0  0  0  0  0
   36.2060   30.5250   46.8770 C   0  0  0  0  0  0  0  0  0  0  0  0
   35.2970   29.8620   47.6520 N   0  0  0  0  0  0  0  0  0  0  0  0
   35.6450   29.4180   48.9020 C   0  0  0  0  0  0  0  0  0  0  0  0
   36.8850   29.6300   49.3790 N   0  0  0  0  0  0  0  0  0  0  0  0
   37.9460   30.4640   44.3820 N   0  0  0  0  0  0  0  0  0  0  0  0
   39.1800   29.7380   44.1800 C   0  0  0  0  0  0  0  0  0  0  0  0
   40.3270   30.1970   44.4470 N   0  0  0  0  0  0  0  0  0  0  0  0
   39.1960   28.3960   43.6440 N   0  0  0  0  0  0  0  0  0  0  0  0
   41.2280   29.7250   44.3230 H   0  0  0  0  0  0  0  0  0  0  0  0
   39.3604   30.7128   46.4899 H   0  0  0  0  0  0  0  0  0  0  0  0
   38.2448   33.4490   47.1924 H   0  0  0  0  0  0  0  0  0  0  0  0
   39.2820   32.4875   48.2709 H   0  0  0  0  0  0  0  0  0  0  0  0
   40.7432   33.9596   46.9357 H   0  0  0  0  0  0  0  0  0  0  0  0
   40.9819   32.3122   46.3262 H   0  0  0  0  0  0  0  0  0  0  0  0
   39.1944   34.5104   45.2249 H   0  0  0  0  0  0  0  0  0  0  0  0
   40.6257   33.6384   44.4420 H   0  0  0  0  0  0  0  0  0  0  0  0
   38.1243   33.2351   43.7987 H   0  0  0  0  0  0  0  0  0  0  0  0
   39.5002   31.9775   43.8082 H   0  0  0  0  0  0  0  0  0  0  0  0
   37.0441   32.1409   45.4401 H   0  0  0  0  0  0  0  0  0  0  0  0
   38.8198   30.4451   49.0508 H   0  0  0  0  0  0  0  0  0  0  0  0
   35.9245   30.8799   45.8746 H   0  0  0  0  0  0  0  0  0  0  0  0
   34.9058   28.8853   49.5183 H   0  0  0  0  0  0  0  0  0  0  0  0
   37.0583   30.1457   43.9677 H   0  0  0  0  0  0  0  0  0  0  0  0
   40.0917   27.9049   43.5117 H   0  0  0  0  0  0  0  0  0  0  0  0
   38.3117   27.9306   43.3942 H   0  0  0  0  0  0  0  0  0  0  0  0
  1  2  1  0
  1  8  1  0
  3  2  1  0
  4  3  1  0
  5  4  1  0
  5  6  1  0
  6  1  1  0
  7 12  2  0
  8  7  1  0
  9  8  2  0
  9 10  1  0
 10 11  2  0
 11 12  1  0
 13  6  1  0
 14 13  1  0
 14 15  2  0
 16 14  1  0
 17 15  1  0
  1 18  1  6
  2 19  1  0
  2 20  1  0
  3 21  1  0
  3 22  1  0
  4 23  1  0
  4 24  1  0
  5 25  1  0
  5 26  1  0
  6 27  1  1
  7 28  1  0
  9 29  1  0
 11 30  1  0
 13 31  1  0
 16 32  1  0
 16 33  1  0
M  ISO  8  18  13  19  13  20  13  21  13  22  13  23  13  24  13  25  13
M  ISO  5  26  13  27  13  28  14  29  14  30  14
M  END
>  <minimizedAffinity>  (1) 
-4.98984098

>  <minimizedRMSD>  (1) 
1.97108436

$$$$
