
     RDKit          3D

 40 43  0  0  1  0  0  0  0  0999 V2000
   38.6880   31.5520   48.3710 C   0  0  2  0  0  0  0  0  0  0  0  0
   38.4220   32.9910   48.2260 C   0  0  0  0  0  0  0  0  0  0  0  0
   39.4580   33.6860   47.4140 C   0  0  0  0  0  0  0  0  0  0  0  0
   39.7450   33.0190   46.1320 C   0  0  0  0  0  0  0  0  0  0  0  0
   39.9970   31.5490   46.2840 C   0  0  0  0  0  0  0  0  0  0  0  0
   38.9250   30.8610   47.1130 C   0  0  2  0  0  0  0  0  0  0  0  0
   37.8320   30.5290   46.2170 C   0  0  0  0  0  0  0  0  0  0  0  0
   37.7740   30.2090   44.8770 C   0  0  0  0  0  0  0  0  0  0  0  0
   36.5350   29.9630   44.4270 N   0  0  0  0  0  0  0  0  0  0  0  0
   35.7390   30.1200   45.4760 C   0  0  0  0  0  0  0  0  0  0  0  0
   34.3630   30.0060   45.6500 C   0  0  0  0  0  0  0  0  0  0  0  0
   33.7570   30.2280   46.8880 C   0  0  0  0  0  0  0  0  0  0  0  0
   34.5090   30.5690   47.9830 C   0  0  0  0  0  0  0  0  0  0  0  0
   35.8580   30.6800   47.8060 C   0  0  0  0  0  0  0  0  0  0  0  0
   36.4690   30.4570   46.5660 C   0  0  0  0  0  0  0  0  0  0  0  0
   36.8260   31.5070   50.0610 C   0  0  0  0  0  0  0  0  0  0  0  0
   37.7710   30.8610   49.2470 C   0  0  0  0  0  0  0  0  0  0  0  0
   37.8420   29.4850   49.3050 C   0  0  0  0  0  0  0  0  0  0  0  0
   37.0010   28.8040   50.1390 N   0  0  0  0  0  0  0  0  0  0  0  0
   36.1070   29.4520   50.9060 C   0  0  0  0  0  0  0  0  0  0  0  0
   36.0330   30.7810   50.8560 N   0  0  0  0  0  0  0  0  0  0  0  0
   39.6527   31.5149   48.8982 H   0  0  0  0  0  0  0  0  0  0  0  0
   37.4453   33.1211   47.7370 H   0  0  0  0  0  0  0  0  0  0  0  0
   38.4344   33.4350   49.2323 H   0  0  0  0  0  0  0  0  0  0  0  0
   39.1085   34.7077   47.2043 H   0  0  0  0  0  0  0  0  0  0  0  0
   40.3890   33.6755   47.9997 H   0  0  0  0  0  0  0  0  0  0  0  0
   40.6367   33.4839   45.6861 H   0  0  0  0  0  0  0  0  0  0  0  0
   38.8585   33.1380   45.4917 H   0  0  0  0  0  0  0  0  0  0  0  0
   40.0205   31.0893   45.2849 H   0  0  0  0  0  0  0  0  0  0  0  0
   40.9568   31.4252   46.8068 H   0  0  0  0  0  0  0  0  0  0  0  0
   39.2186   29.8858   47.5286 H   0  0  0  0  0  0  0  0  0  0  0  0
   38.6652   30.1599   44.2341 H   0  0  0  0  0  0  0  0  0  0  0  0
   36.2595   29.7062   43.4683 H   0  0  0  0  0  0  0  0  0  0  0  0
   33.7356   29.7335   44.7885 H   0  0  0  0  0  0  0  0  0  0  0  0
   32.6659   30.1284   46.9861 H   0  0  0  0  0  0  0  0  0  0  0  0
   34.0440   30.7459   48.9641 H   0  0  0  0  0  0  0  0  0  0  0  0
   36.4862   30.9538   48.6665 H   0  0  0  0  0  0  0  0  0  0  0  0
   36.7388   32.6034   50.0446 H   0  0  0  0  0  0  0  0  0  0  0  0
   38.5695   28.9404   48.6851 H   0  0  0  0  0  0  0  0  0  0  0  0
   35.4390   28.8867   51.5725 H   0  0  0  0  0  0  0  0  0  0  0  0
  1 17  1  0
  2  1  1  0
  3  2  1  0
  4  5  1  0
  4  3  1  0
  5  6  1  0
  6  1  1  0
  7 15  1  0
  7  6  1  0
  8  7  2  0
  9  8  1  0
  9 10  1  0
 10 11  2  0
 10 15  1  0
 11 12  1  0
 12 13  2  0
 14 13  1  0
 15 14  2  0
 16 21  2  0
 17 18  2  0
 17 16  1  0
 18 19  1  0
 19 20  2  0
 21 20  1  0
  1 22  1  1
  2 23  1  0
  2 24  1  0
  3 25  1  0
  3 26  1  0
  4 27  1  0
  4 28  1  0
  5 29  1  0
  5 30  1  0
  6 31  1  1
  8 32  1  0
  9 33  1  0
 11 34  1  0
 12 35  1  0
 13 36  1  0
 14 37  1  0
 16 38  1  0
 18 39  1  0
 20 40  1  0
M  ISO  8  22  13  23  13  24  13  25  13  26  13  27  13  28  13  29  13
M  ISO  8  30  13  31  13  32  14  33   9  34  14  35  14  36  14  37  14
M  ISO  3  38  14  39  14  40  14
M  END
>  <minimizedAffinity>  (1) 
-4.9023366

>  <minimizedRMSD>  (1) 
2.32986784

$$$$
