
     RDKit          3D

 32 33  0  0  1  0  0  0  0  0999 V2000
   39.3510   31.3640   46.6690 C   0  0  2  0  0  0  0  0  0  0  0  0
   39.8770   32.5810   46.0990 C   0  0  0  0  0  0  0  0  0  0  0  0
   40.8350   32.3580   44.9770 C   0  0  0  0  0  0  0  0  0  0  0  0
   40.3470   31.3950   43.9720 C   0  0  0  0  0  0  0  0  0  0  0  0
   39.6620   30.2100   44.5180 C   0  0  0  0  0  0  0  0  0  0  0  0
   38.6330   30.5650   45.6220 C   0  0  2  0  0  0  0  0  0  0  0  0
   38.3360   32.7980   48.5230 C   0  0  0  0  0  0  0  0  0  0  0  0
   38.4930   31.5540   47.8340 C   0  0  0  0  0  0  0  0  0  0  0  0
   37.7930   30.4690   48.2650 C   0  0  0  0  0  0  0  0  0  0  0  0
   36.9640   30.6270   49.3490 N   0  0  0  0  0  0  0  0  0  0  0  0
   36.8340   31.8350   49.9940 C   0  0  0  0  0  0  0  0  0  0  0  0
   37.5330   32.9260   49.5660 N   0  0  0  0  0  0  0  0  0  0  0  0
   37.5790   31.3470   44.9540 C   0  0  0  0  0  0  0  0  0  0  0  0
   37.5710   32.5990   44.7160 O   0  0  0  0  0  0  0  0  0  0  0  0
   36.5080   30.5990   44.5660 O   0  0  0  0  0  0  0  0  0  0  0  0
   35.7950   30.9340   43.3600 C   0  0  0  0  0  0  0  0  0  0  0  0
   40.2288   30.8128   47.0373 H   0  0  0  0  0  0  0  0  0  0  0  0
   39.0345   33.1791   45.7215 H   0  0  0  0  0  0  0  0  0  0  0  0
   40.4339   33.0931   46.8975 H   0  0  0  0  0  0  0  0  0  0  0  0
   41.0170   33.3210   44.4775 H   0  0  0  0  0  0  0  0  0  0  0  0
   41.7523   31.9354   45.4127 H   0  0  0  0  0  0  0  0  0  0  0  0
   41.2107   31.0485   43.3855 H   0  0  0  0  0  0  0  0  0  0  0  0
   39.5963   31.9325   43.3740 H   0  0  0  0  0  0  0  0  0  0  0  0
   39.1354   29.6998   43.6980 H   0  0  0  0  0  0  0  0  0  0  0  0
   40.4282   29.5663   44.9747 H   0  0  0  0  0  0  0  0  0  0  0  0
   38.1850   29.6886   46.1131 H   0  0  0  0  0  0  0  0  0  0  0  0
   38.9007   33.6752   48.1744 H   0  0  0  0  0  0  0  0  0  0  0  0
   37.8882   29.4959   47.7610 H   0  0  0  0  0  0  0  0  0  0  0  0
   36.1621   31.9221   50.8606 H   0  0  0  0  0  0  0  0  0  0  0  0
   34.8277   31.3885   43.6202 H   0  0  0  0  0  0  0  0  0  0  0  0
   36.3884   31.6475   42.7694 H   0  0  0  0  0  0  0  0  0  0  0  0
   35.6245   30.0218   42.7694 H   0  0  0  0  0  0  0  0  0  0  0  0
  1  8  1  0
  2  1  1  0
  3  2  1  0
  4  5  1  0
  4  3  1  0
  5  6  1  0
  6  1  1  0
  7 12  2  0
  8  9  2  0
  8  7  1  0
  9 10  1  0
 10 11  2  0
 12 11  1  0
 13  6  1  0
 14 13  2  0
 15 13  1  0
 16 15  1  0
  1 17  1  1
  2 18  1  0
  2 19  1  0
  3 20  1  0
  3 21  1  0
  4 22  1  0
  4 23  1  0
  5 24  1  0
  5 25  1  0
  6 26  1  1
  7 27  1  0
  9 28  1  0
 11 29  1  0
 16 30  1  0
 16 31  1  0
 16 32  1  0
M  ISO  8  17  13  18  13  19  13  20  13  21  13  22  13  23  13  24  13
M  ISO  8  25  13  26  13  27  14  28  14  29  14  30   8  31   8  32   8
M  END
>  <minimizedAffinity>  (1) 
-4.99700451

>  <minimizedRMSD>  (1) 
1.12242925

$$$$
