
     RDKit          3D

 41 44  0  0  1  0  0  0  0  0999 V2000
   39.1150   30.7720   46.4450 C   0  0  2  0  0  0  0  0  0  0  0  0
   40.1720   31.6610   46.0130 C   0  0  0  0  0  0  0  0  0  0  0  0
   40.9700   31.1580   44.8550 C   0  0  0  0  0  0  0  0  0  0  0  0
   40.1520   30.6060   43.7610 C   0  0  0  0  0  0  0  0  0  0  0  0
   39.0020   29.8120   44.1870 C   0  0  0  0  0  0  0  0  0  0  0  0
   38.1750   30.4990   45.3350 C   0  0  2  0  0  0  0  0  0  0  0  0
   38.6070   32.4960   48.2880 C   0  0  0  0  0  0  0  0  0  0  0  0
   38.3900   31.2380   47.6250 C   0  0  0  0  0  0  0  0  0  0  0  0
   37.4380   30.4030   48.0960 C   0  0  0  0  0  0  0  0  0  0  0  0
   36.7200   30.8100   49.1960 N   0  0  0  0  0  0  0  0  0  0  0  0
   36.9500   32.0220   49.8120 C   0  0  0  0  0  0  0  0  0  0  0  0
   37.9130   32.8700   49.3390 N   0  0  0  0  0  0  0  0  0  0  0  0
   37.6010   31.6950   44.7350 C   0  0  0  0  0  0  0  0  0  0  0  0
   37.9830   32.9010   44.9370 O   0  0  0  0  0  0  0  0  0  0  0  0
   36.5680   31.4580   43.8920 O   0  0  0  0  0  0  0  0  0  0  0  0
   36.3770   32.3260   42.7860 C   0  0  0  0  0  0  0  0  0  0  0  0
   37.1200   32.1960   41.6020 C   0  0  0  0  0  0  0  0  0  0  0  0
   36.6520   33.2000   40.7910 C   0  0  0  0  0  0  0  0  0  0  0  0
   35.6800   33.9040   41.4400 N   0  0  0  0  0  0  0  0  0  0  0  0
   35.5460   33.3460   42.6350 N   0  0  0  0  0  0  0  0  0  0  0  0
   34.9390   35.0190   40.9580 C   0  0  0  0  0  0  0  0  0  0  0  0
   34.6700   35.3820   39.6900 N   0  0  0  0  0  0  0  0  0  0  0  0
   33.9600   36.4710   39.6940 O   0  0  0  0  0  0  0  0  0  0  0  0
   33.7310   36.8660   40.9300 C   0  0  0  0  0  0  0  0  0  0  0  0
   34.3500   35.9510   41.7330 N   0  0  0  0  0  0  0  0  0  0  0  0
   39.6145   29.8391   46.7453 H   0  0  0  0  0  0  0  0  0  0  0  0
   39.7178   32.6209   45.7261 H   0  0  0  0  0  0  0  0  0  0  0  0
   40.8700   31.7509   46.8584 H   0  0  0  0  0  0  0  0  0  0  0  0
   41.5647   31.9927   44.4556 H   0  0  0  0  0  0  0  0  0  0  0  0
   41.5960   30.3357   45.2318 H   0  0  0  0  0  0  0  0  0  0  0  0
   40.7978   29.9657   43.1423 H   0  0  0  0  0  0  0  0  0  0  0  0
   39.7430   31.4707   43.2179 H   0  0  0  0  0  0  0  0  0  0  0  0
   38.3408   29.6594   43.3212 H   0  0  0  0  0  0  0  0  0  0  0  0
   39.3864   28.8599   44.5816 H   0  0  0  0  0  0  0  0  0  0  0  0
   37.3579   29.8925   45.7527 H   0  0  0  0  0  0  0  0  0  0  0  0
   39.3841   33.1710   47.9000 H   0  0  0  0  0  0  0  0  0  0  0  0
   37.2441   29.4321   47.6166 H   0  0  0  0  0  0  0  0  0  0  0  0
   36.3541   32.3091   50.6909 H   0  0  0  0  0  0  0  0  0  0  0  0
   37.9016   31.4560   41.3751 H   0  0  0  0  0  0  0  0  0  0  0  0
   37.0075   33.4060   39.7706 H   0  0  0  0  0  0  0  0  0  0  0  0
   33.1594   37.7500   41.2491 H   0  0  0  0  0  0  0  0  0  0  0  0
  1  8  1  0
  2  1  1  0
  3  2  1  0
  4  5  1  0
  4  3  1  0
  5  6  1  0
  6  1  1  0
  7 12  2  0
  8  9  2  0
  8  7  1  0
  9 10  1  0
 10 11  2  0
 12 11  1  0
 13 14  2  0
 13  6  1  0
 15 13  1  0
 16 15  1  0
 17 16  1  0
 18 19  1  0
 18 17  2  0
 19 20  1  0
 20 16  2  0
 21 19  1  0
 21 25  1  0
 22 23  1  0
 22 21  2  0
 23 24  1  0
 24 25  2  0
  1 26  1  1
  2 27  1  0
  2 28  1  0
  3 29  1  0
  3 30  1  0
  4 31  1  0
  4 32  1  0
  5 33  1  0
  5 34  1  0
  6 35  1  1
  7 36  1  0
  9 37  1  0
 11 38  1  0
 17 39  1  0
 18 40  1  0
 24 41  1  0
M  ISO  8  26  13  27  13  28  13  29  13  30  13  31  13  32  13  33  13
M  ISO  8  34  13  35  13  36  14  37  14  38  14  39  14  40  14  41  14
M  END
>  <minimizedAffinity>  (1) 
-5.82369328

>  <minimizedRMSD>  (1) 
1.45273745

$$$$
