
     RDKit          3D

 29 31  0  0  0  0  0  0  0  0999 V2000
   38.1140   31.0910   48.1320 C   0  0  0  0  0  0  0  0  0  0  0  0
   38.5490   32.4380   48.2930 C   0  0  0  0  0  0  0  0  0  0  0  0
   39.4630   32.7980   46.7320 S   0  0  0  0  0  0  0  0  0  0  0  0
   39.0850   31.0400   46.1390 C   0  0  0  0  0  0  0  0  0  0  0  0
   38.4960   30.5930   46.9800 N   0  0  0  0  0  0  0  0  0  0  0  0
   39.4700   30.3790   44.8560 N   0  0  0  0  0  0  0  0  0  0  0  0
   38.7940   29.3030   44.4600 C   0  0  0  0  0  0  0  0  0  0  0  0
   39.1860   28.7210   43.2630 C   0  0  0  0  0  0  0  0  0  0  0  0
   38.5300   27.5250   42.6980 C   0  0  0  0  0  0  0  0  0  0  0  0
   40.2350   29.2990   42.5820 C   0  0  0  0  0  0  0  0  0  0  0  0
   40.5980   28.7660   41.4800 O   0  0  0  0  0  0  0  0  0  0  0  0
   40.8440   30.3890   43.0830 N   0  0  0  0  0  0  0  0  0  0  0  0
   40.4870   30.9730   44.2380 C   0  0  0  0  0  0  0  0  0  0  0  0
   41.0650   31.9890   44.6880 O   0  0  0  0  0  0  0  0  0  0  0  0
   37.7170   30.6630   50.5350 C   0  0  0  0  0  0  0  0  0  0  0  0
   37.3380   30.4450   49.1960 C   0  0  0  0  0  0  0  0  0  0  0  0
   36.2490   29.6270   48.9720 C   0  0  0  0  0  0  0  0  0  0  0  0
   35.6020   29.0790   50.0270 N   0  0  0  0  0  0  0  0  0  0  0  0
   35.9840   29.3040   51.2980 C   0  0  0  0  0  0  0  0  0  0  0  0
   37.0320   30.0880   51.5340 N   0  0  0  0  0  0  0  0  0  0  0  0
   38.3793   33.1075   49.1491 H   0  0  0  0  0  0  0  0  0  0  0  0
   37.9633   28.8942   45.0540 H   0  0  0  0  0  0  0  0  0  0  0  0
   38.1762   26.8800   43.5158 H   0  0  0  0  0  0  0  0  0  0  0  0
   37.6750   27.8339   42.0786 H   0  0  0  0  0  0  0  0  0  0  0  0
   39.2500   26.9700   42.0786 H   0  0  0  0  0  0  0  0  0  0  0  0
   41.6263   30.7975   42.5519 H   0  0  0  0  0  0  0  0  0  0  0  0
   38.5788   31.3078   50.7621 H   0  0  0  0  0  0  0  0  0  0  0  0
   35.9101   29.4224   47.9457 H   0  0  0  0  0  0  0  0  0  0  0  0
   35.4349   28.8441   52.1329 H   0  0  0  0  0  0  0  0  0  0  0  0
  1  2  2  0
  1 16  1  0
  3  2  1  0
  4  3  1  0
  4  5  2  0
  5  1  1  0
  6  4  1  0
  7  6  1  0
  8  7  2  0
  9  8  1  0
 10 12  1  0
 10  8  1  0
 11 10  2  0
 12 13  1  0
 13 14  2  0
 13  6  1  0
 15 20  2  0
 16 15  1  0
 17 16  2  0
 17 18  1  0
 18 19  2  0
 19 20  1  0
  2 21  1  0
  7 22  1  0
  9 23  1  0
  9 24  1  0
  9 25  1  0
 12 26  1  0
 15 27  1  0
 17 28  1  0
 19 29  1  0
M  ISO  8  21  14  22  14  23   8  24   8  25   8  26   9  27  14  28  14
M  ISO  1  29  14
M  END
>  <minimizedAffinity>  (1) 
-6.14798307

>  <minimizedRMSD>  (1) 
0.597394168

$$$$
