
     RDKit          3D

 23 25  0  0  0  0  0  0  0  0999 V2000
   38.4000   31.1390   47.8250 C   0  0  0  0  0  0  0  0  0  0  0  0
   38.8580   32.4770   47.8890 C   0  0  0  0  0  0  0  0  0  0  0  0
   39.6540   32.7590   46.2480 S   0  0  0  0  0  0  0  0  0  0  0  0
   39.2170   30.9820   45.7610 C   0  0  0  0  0  0  0  0  0  0  0  0
   38.6890   30.5810   46.6670 N   0  0  0  0  0  0  0  0  0  0  0  0
   39.5120   30.3070   44.4880 N   0  0  0  0  0  0  0  0  0  0  0  0
   39.0560   29.2530   43.8190 C   0  0  0  0  0  0  0  0  0  0  0  0
   39.7990   29.1800   42.6560 C   0  0  0  0  0  0  0  0  0  0  0  0
   40.6810   30.1890   42.6550 N   0  0  0  0  0  0  0  0  0  0  0  0
   40.5130   30.8890   43.7780 C   0  0  0  0  0  0  0  0  0  0  0  0
   38.1260   30.8840   50.2720 C   0  0  0  0  0  0  0  0  0  0  0  0
   37.7020   30.5500   48.9720 C   0  0  0  0  0  0  0  0  0  0  0  0
   36.6400   29.6740   48.8570 C   0  0  0  0  0  0  0  0  0  0  0  0
   36.0590   29.1810   49.9800 N   0  0  0  0  0  0  0  0  0  0  0  0
   36.4820   29.5170   51.2000 C   0  0  0  0  0  0  0  0  0  0  0  0
   37.5040   30.3590   51.3340 N   0  0  0  0  0  0  0  0  0  0  0  0
   38.7616   33.1857   48.7247 H   0  0  0  0  0  0  0  0  0  0  0  0
   38.2481   28.5740   44.1292 H   0  0  0  0  0  0  0  0  0  0  0  0
   39.6858   28.4230   41.8660 H   0  0  0  0  0  0  0  0  0  0  0  0
   41.0844   31.7804   44.0764 H   0  0  0  0  0  0  0  0  0  0  0  0
   38.9686   31.5765   50.4148 H   0  0  0  0  0  0  0  0  0  0  0  0
   36.2688   29.3788   47.8645 H   0  0  0  0  0  0  0  0  0  0  0  0
   35.9886   29.1003   52.0905 H   0  0  0  0  0  0  0  0  0  0  0  0
  1  2  2  0
  1 12  1  0
  3  2  1  0
  4  3  1  0
  4  5  2  0
  5  1  1  0
  6  4  1  0
  7  6  1  0
  8  7  2  0
  9  8  1  0
  9 10  2  0
 10  6  1  0
 11 16  2  0
 12 11  1  0
 13 12  2  0
 13 14  1  0
 14 15  2  0
 15 16  1  0
  2 17  1  0
  7 18  1  0
  8 19  1  0
 10 20  1  0
 11 21  1  0
 13 22  1  0
 15 23  1  0
M  ISO  7  17  14  18  14  19  14  20  14  21  14  22  14  23  14
M  END
>  <minimizedAffinity>  (1) 
-5.51711702

>  <minimizedRMSD>  (1) 
0.157414362

$$$$
