
     RDKit          3D

 18 19  0  0  0  0  0  0  0  0999 V2000
   38.1370   30.8900   50.2440 C   0  0  0  0  0  0  0  0  0  0  0  0
   37.7060   30.5400   48.9500 C   0  0  0  0  0  0  0  0  0  0  0  0
   36.6420   29.6550   48.8660 C   0  0  0  0  0  0  0  0  0  0  0  0
   36.0750   29.1750   49.9970 N   0  0  0  0  0  0  0  0  0  0  0  0
   36.5090   29.5290   51.2100 C   0  0  0  0  0  0  0  0  0  0  0  0
   37.5410   30.3870   51.3300 N   0  0  0  0  0  0  0  0  0  0  0  0
   38.3900   31.1130   47.7930 C   0  0  0  0  0  0  0  0  0  0  0  0
   38.8680   32.4600   47.8550 C   0  0  0  0  0  0  0  0  0  0  0  0
   39.6390   32.6980   46.1880 S   0  0  0  0  0  0  0  0  0  0  0  0
   39.1680   30.9280   45.7220 C   0  0  0  0  0  0  0  0  0  0  0  0
   38.6510   30.5500   46.6410 N   0  0  0  0  0  0  0  0  0  0  0  0
   39.5860   30.5250   44.3320 C   0  0  0  0  0  0  0  0  0  0  0  0
   40.6930   30.8730   43.8510 O   0  0  0  0  0  0  0  0  0  0  0  0
   38.9780   31.5889   50.3634 H   0  0  0  0  0  0  0  0  0  0  0  0
   36.2598   29.3439   47.8826 H   0  0  0  0  0  0  0  0  0  0  0  0
   36.0246   29.1207   52.1093 H   0  0  0  0  0  0  0  0  0  0  0  0
   38.7956   33.1765   48.6865 H   0  0  0  0  0  0  0  0  0  0  0  0
   38.9055   29.9112   43.7236 H   0  0  0  0  0  0  0  0  0  0  0  0
  1  6  2  0
  2  1  1  0
  3  2  2  0
  3  4  1  0
  4  5  2  0
  5  6  1  0
  7  8  2  0
  7  2  1  0
  9  8  1  0
 10  9  1  0
 10 11  2  0
 11  7  1  0
 12 10  1  0
 13 12  2  0
  1 14  1  0
  3 15  1  0
  5 16  1  0
  8 17  1  0
 12 18  1  0
M  ISO  5  14  14  15  14  16  14  17  14  18   6
M  END
>  <minimizedAffinity>  (1) 
-4.52125168

>  <minimizedRMSD>  (1) 
0.0849357918

$$$$
