
     RDKit          3D

 19 20  0  0  0  0  0  0  0  0999 V2000
   38.1370   30.8830   50.2590 C   0  0  0  0  0  0  0  0  0  0  0  0
   37.6920   30.5170   48.9740 C   0  0  0  0  0  0  0  0  0  0  0  0
   36.6290   29.6350   48.9030 C   0  0  0  0  0  0  0  0  0  0  0  0
   36.0750   29.1700   50.0480 N   0  0  0  0  0  0  0  0  0  0  0  0
   36.5210   29.5380   51.2530 C   0  0  0  0  0  0  0  0  0  0  0  0
   37.5450   30.3880   51.3540 N   0  0  0  0  0  0  0  0  0  0  0  0
   38.3700   31.0850   47.8020 C   0  0  0  0  0  0  0  0  0  0  0  0
   38.8710   32.4230   47.8520 C   0  0  0  0  0  0  0  0  0  0  0  0
   39.6190   32.6580   46.1770 S   0  0  0  0  0  0  0  0  0  0  0  0
   39.1110   30.8930   45.7170 C   0  0  0  0  0  0  0  0  0  0  0  0
   38.6040   30.5210   46.6450 N   0  0  0  0  0  0  0  0  0  0  0  0
   39.4010   30.2740   44.3630 C   0  0  0  0  0  0  0  0  0  0  0  0
   38.9793   31.5825   50.3646 H   0  0  0  0  0  0  0  0  0  0  0  0
   36.2375   29.3144   47.9263 H   0  0  0  0  0  0  0  0  0  0  0  0
   36.0443   29.1405   52.1611 H   0  0  0  0  0  0  0  0  0  0  0  0
   38.8232   33.1395   48.6853 H   0  0  0  0  0  0  0  0  0  0  0  0
   39.8639   29.2860   44.5031 H   0  0  0  0  0  0  0  0  0  0  0  0
   38.4614   30.1625   43.8020 H   0  0  0  0  0  0  0  0  0  0  0  0
   40.0880   30.9246   43.8020 H   0  0  0  0  0  0  0  0  0  0  0  0
  1  6  2  0
  2  1  1  0
  3  2  2  0
  3  4  1  0
  4  5  2  0
  5  6  1  0
  7  8  2  0
  7  2  1  0
  9  8  1  0
 10  9  1  0
 10 11  2  0
 11  7  1  0
 12 10  1  0
  1 13  1  0
  3 14  1  0
  5 15  1  0
  8 16  1  0
 12 17  1  0
 12 18  1  0
 12 19  1  0
M  ISO  7  13  14  14  14  15  14  16  14  17   8  18   8  19   8
M  END
>  <minimizedAffinity>  (1) 
-4.48169231

>  <minimizedRMSD>  (1) 
0.0303286407

$$$$
