
     RDKit          3D

 38 40  0  0  1  0  0  0  0  0999 V2000
   40.0620   31.3140   45.5320 C   0  0  2  0  0  0  0  0  0  0  0  0
   38.0720   31.5360   48.6160 C   0  0  0  0  0  0  0  0  0  0  0  0
   38.3430   32.8900   48.9350 C   0  0  0  0  0  0  0  0  0  0  0  0
   39.4550   33.4440   47.5770 S   0  0  0  0  0  0  0  0  0  0  0  0
   39.3500   31.6970   46.8040 C   0  0  0  0  0  0  0  0  0  0  0  0
   38.6790   31.1390   47.5050 N   0  0  0  0  0  0  0  0  0  0  0  0
   37.5940   30.4750   50.7920 C   0  0  0  0  0  0  0  0  0  0  0  0
   37.1950   30.7430   49.4790 C   0  0  0  0  0  0  0  0  0  0  0  0
   35.9640   30.2260   49.0860 C   0  0  0  0  0  0  0  0  0  0  0  0
   35.2280   29.5150   49.9510 N   0  0  0  0  0  0  0  0  0  0  0  0
   35.6410   29.2750   51.2100 C   0  0  0  0  0  0  0  0  0  0  0  0
   36.8390   29.7620   51.6350 N   0  0  0  0  0  0  0  0  0  0  0  0
   40.9870   32.4470   45.1990 C   0  0  0  0  0  0  0  0  0  0  0  0
   39.0230   31.1310   44.4400 C   0  0  0  0  0  0  0  0  0  0  0  0
   39.3540   30.1210   43.4810 N   0  0  0  0  0  0  0  0  0  0  0  0
   39.0940   28.8180   43.7610 C   0  0  0  0  0  0  0  0  0  0  0  0
   39.3990   27.7950   42.8620 C   0  0  0  0  0  0  0  0  0  0  0  0
   39.1270   26.3670   43.1390 C   0  0  0  0  0  0  0  0  0  0  0  0
   39.9840   28.0980   41.6420 C   0  0  0  0  0  0  0  0  0  0  0  0
   40.2830   27.2280   40.7890 O   0  0  0  0  0  0  0  0  0  0  0  0
   40.2240   29.3970   41.4080 N   0  0  0  0  0  0  0  0  0  0  0  0
   39.9220   30.3670   42.2870 C   0  0  0  0  0  0  0  0  0  0  0  0
   40.1900   31.5520   41.9640 O   0  0  0  0  0  0  0  0  0  0  0  0
   40.6307   30.3780   45.6344 H   0  0  0  0  0  0  0  0  0  0  0  0
   37.9753   33.4727   49.7924 H   0  0  0  0  0  0  0  0  0  0  0  0
   38.5612   30.8635   51.1435 H   0  0  0  0  0  0  0  0  0  0  0  0
   35.5951   30.4012   48.0646 H   0  0  0  0  0  0  0  0  0  0  0  0
   35.0115   28.6865   51.8937 H   0  0  0  0  0  0  0  0  0  0  0  0
   41.3587   32.9023   46.1288 H   0  0  0  0  0  0  0  0  0  0  0  0
   41.8360   32.0668   44.6120 H   0  0  0  0  0  0  0  0  0  0  0  0
   40.4446   33.2028   44.6120 H   0  0  0  0  0  0  0  0  0  0  0  0
   38.0685   30.8579   44.9137 H   0  0  0  0  0  0  0  0  0  0  0  0
   38.9684   32.0830   43.8917 H   0  0  0  0  0  0  0  0  0  0  0  0
   38.6294   28.5613   44.7245 H   0  0  0  0  0  0  0  0  0  0  0  0
   39.0959   26.2039   44.2264 H   0  0  0  0  0  0  0  0  0  0  0  0
   38.1592   26.0859   42.6983 H   0  0  0  0  0  0  0  0  0  0  0  0
   39.9237   25.7498   42.6983 H   0  0  0  0  0  0  0  0  0  0  0  0
   40.6598   29.6628   40.5134 H   0  0  0  0  0  0  0  0  0  0  0  0
  1  5  1  0
  2  3  2  0
  2  8  1  0
  4  3  1  0
  5  6  2  0
  5  4  1  0
  6  2  1  0
  7 12  2  0
  8  7  1  0
  9  8  2  0
  9 10  1  0
 10 11  2  0
 11 12  1  0
 13  1  1  0
 14  1  1  0
 15 16  1  0
 15 14  1  0
 17 18  1  0
 17 16  2  0
 19 17  1  0
 20 19  2  0
 21 19  1  0
 21 22  1  0
 22 15  1  0
 23 22  2  0
  1 24  1  1
  3 25  1  0
  7 26  1  0
  9 27  1  0
 11 28  1  0
 13 29  1  0
 13 30  1  0
 13 31  1  0
 14 32  1  0
 14 33  1  0
 16 34  1  0
 18 35  1  0
 18 36  1  0
 18 37  1  0
 21 38  1  0
M  ISO  8  24   8  25  14  26  14  27  14  28  14  29   8  30   8  31   8
M  ISO  7  32   8  33   8  34  14  35   8  36   8  37   8  38   9
M  END
>  <minimizedAffinity>  (1) 
-5.74780989

>  <minimizedRMSD>  (1) 
1.82946813

$$$$
