
     RDKit          3D

 31 33  0  0  1  0  0  0  0  0999 V2000
   38.3890   31.1030   47.8110 C   0  0  0  0  0  0  0  0  0  0  0  0
   38.8550   32.4410   47.8740 C   0  0  0  0  0  0  0  0  0  0  0  0
   39.6340   32.7190   46.2260 S   0  0  0  0  0  0  0  0  0  0  0  0
   39.1750   30.9270   45.7390 C   0  0  0  0  0  0  0  0  0  0  0  0
   38.6610   30.5510   46.6560 N   0  0  0  0  0  0  0  0  0  0  0  0
   38.1110   30.8660   50.2540 C   0  0  0  0  0  0  0  0  0  0  0  0
   37.7000   30.5270   48.9600 C   0  0  0  0  0  0  0  0  0  0  0  0
   36.6290   29.6430   48.8660 C   0  0  0  0  0  0  0  0  0  0  0  0
   36.0490   29.1600   49.9840 N   0  0  0  0  0  0  0  0  0  0  0  0
   36.4780   29.5130   51.2020 C   0  0  0  0  0  0  0  0  0  0  0  0
   37.5070   30.3630   51.3360 N   0  0  0  0  0  0  0  0  0  0  0  0
   39.4930   30.3420   44.3970 C   0  0  2  0  0  0  0  0  0  0  0  0
   40.3670   31.3130   43.6780 C   0  0  0  0  0  0  0  0  0  0  0  0
   38.1920   30.1200   43.6440 C   0  0  0  0  0  0  0  0  0  0  0  0
   38.1410   28.7260   43.2570 N   0  0  0  0  0  0  0  0  0  0  0  0
   37.1720   27.9240   42.7820 C   0  0  0  0  0  0  0  0  0  0  0  0
   37.7390   26.7170   42.6070 N   0  0  0  0  0  0  0  0  0  0  0  0
   39.0370   26.7290   42.9540 C   0  0  0  0  0  0  0  0  0  0  0  0
   39.2500   27.9890   43.3510 N   0  0  0  0  0  0  0  0  0  0  0  0
   38.7712   33.1489   48.7118 H   0  0  0  0  0  0  0  0  0  0  0  0
   38.9516   31.5634   50.3844 H   0  0  0  0  0  0  0  0  0  0  0  0
   36.2547   29.3375   47.8778 H   0  0  0  0  0  0  0  0  0  0  0  0
   35.9848   29.1045   52.0963 H   0  0  0  0  0  0  0  0  0  0  0  0
   40.0129   29.3767   44.4853 H   0  0  0  0  0  0  0  0  0  0  0  0
   40.9164   31.9234   44.4098 H   0  0  0  0  0  0  0  0  0  0  0  0
   41.0822   30.7651   43.0469 H   0  0  0  0  0  0  0  0  0  0  0  0
   39.7471   31.9668   43.0469 H   0  0  0  0  0  0  0  0  0  0  0  0
   37.3373   30.3602   44.2935 H   0  0  0  0  0  0  0  0  0  0  0  0
   38.1443   30.7686   42.7568 H   0  0  0  0  0  0  0  0  0  0  0  0
   36.1268   28.1994   42.5778 H   0  0  0  0  0  0  0  0  0  0  0  0
   39.7563   25.8975   42.9197 H   0  0  0  0  0  0  0  0  0  0  0  0
  1  2  2  0
  1  7  1  0
  3  2  1  0
  4  3  1  0
  4  5  2  0
  5  1  1  0
  6 11  2  0
  7  6  1  0
  8  7  2  0
  8  9  1  0
  9 10  2  0
 10 11  1  0
 12  4  1  0
 13 12  1  0
 14 12  1  0
 15 19  1  0
 15 14  1  0
 16 15  1  0
 17 16  2  0
 17 18  1  0
 18 19  2  0
  2 20  1  0
  6 21  1  0
  8 22  1  0
 10 23  1  0
 12 24  1  1
 13 25  1  0
 13 26  1  0
 13 27  1  0
 14 28  1  0
 14 29  1  0
 16 30  1  0
 18 31  1  0
M  ISO  8  20  14  21  14  22  14  23  14  24   8  25   8  26   8  27   8
M  ISO  4  28   8  29   8  30  14  31  14
M  END
>  <minimizedAffinity>  (1) 
-5.07204342

>  <minimizedRMSD>  (1) 
1.68101645

$$$$
