
     RDKit          3D

 30 32  0  0  1  0  0  0  0  0999 V2000
   38.3930   31.1200   47.8140 C   0  0  0  0  0  0  0  0  0  0  0  0
   38.8650   32.4540   47.8900 C   0  0  0  0  0  0  0  0  0  0  0  0
   39.6370   32.7330   46.2380 S   0  0  0  0  0  0  0  0  0  0  0  0
   39.1630   30.9480   45.7400 C   0  0  0  0  0  0  0  0  0  0  0  0
   38.6530   30.5630   46.6470 N   0  0  0  0  0  0  0  0  0  0  0  0
   38.1120   30.8710   50.2530 C   0  0  0  0  0  0  0  0  0  0  0  0
   37.7040   30.5350   48.9570 C   0  0  0  0  0  0  0  0  0  0  0  0
   36.6440   29.6510   48.8630 C   0  0  0  0  0  0  0  0  0  0  0  0
   36.0650   29.1630   49.9780 N   0  0  0  0  0  0  0  0  0  0  0  0
   36.4810   29.5060   51.2000 C   0  0  0  0  0  0  0  0  0  0  0  0
   37.5070   30.3610   51.3330 N   0  0  0  0  0  0  0  0  0  0  0  0
   39.4790   30.3910   44.3910 C   0  0  2  0  0  0  0  0  0  0  0  0
   40.4190   31.3140   43.7010 C   0  0  0  0  0  0  0  0  0  0  0  0
   38.1870   30.2260   43.6080 C   0  0  0  0  0  0  0  0  0  0  0  0
   38.0720   28.7960   43.2460 C   0  0  0  0  0  0  0  0  0  0  0  0
   39.2030   28.0380   43.3860 N   0  0  0  0  0  0  0  0  0  0  0  0
   38.9540   26.8230   43.0270 O   0  0  0  0  0  0  0  0  0  0  0  0
   37.7070   26.6960   42.6450 C   0  0  0  0  0  0  0  0  0  0  0  0
   37.1520   27.9370   42.7830 N   0  0  0  0  0  0  0  0  0  0  0  0
   38.7891   33.1561   48.7334 H   0  0  0  0  0  0  0  0  0  0  0  0
   38.9499   31.5709   50.3875 H   0  0  0  0  0  0  0  0  0  0  0  0
   36.2721   29.3451   47.8740 H   0  0  0  0  0  0  0  0  0  0  0  0
   35.9865   29.0909   52.0906 H   0  0  0  0  0  0  0  0  0  0  0  0
   39.9580   29.4044   44.4755 H   0  0  0  0  0  0  0  0  0  0  0  0
   40.9941   31.8787   44.4496 H   0  0  0  0  0  0  0  0  0  0  0  0
   41.1084   30.7322   43.0715 H   0  0  0  0  0  0  0  0  0  0  0  0
   39.8498   32.0139   43.0715 H   0  0  0  0  0  0  0  0  0  0  0  0
   37.3299   30.5275   44.2280 H   0  0  0  0  0  0  0  0  0  0  0  0
   38.1943   30.8567   42.7068 H   0  0  0  0  0  0  0  0  0  0  0  0
   37.2107   25.7816   42.2879 H   0  0  0  0  0  0  0  0  0  0  0  0
  1  2  2  0
  1  7  1  0
  3  2  1  0
  4  3  1  0
  4  5  2  0
  5  1  1  0
  6 11  2  0
  7  6  1  0
  8  7  2  0
  8  9  1  0
  9 10  2  0
 10 11  1  0
 12  4  1  0
 13 12  1  0
 14 12  1  0
 15 16  2  0
 15 14  1  0
 17 16  1  0
 18 19  2  0
 18 17  1  0
 19 15  1  0
  2 20  1  0
  6 21  1  0
  8 22  1  0
 10 23  1  0
 12 24  1  1
 13 25  1  0
 13 26  1  0
 13 27  1  0
 14 28  1  0
 14 29  1  0
 18 30  1  0
M  ISO  8  20  14  21  14  22  14  23  14  24   8  25   8  26   8  27   8
M  ISO  3  28   8  29   8  30  14
M  END
>  <minimizedAffinity>  (1) 
-5.01522303

>  <minimizedRMSD>  (1) 
1.61070967

$$$$
