
     RDKit          3D

 27 28  0  0  1  0  0  0  0  0999 V2000
   38.3600   31.0680   47.8110 C   0  0  0  0  0  0  0  0  0  0  0  0
   38.8640   32.3900   47.8520 C   0  0  0  0  0  0  0  0  0  0  0  0
   39.6030   32.6480   46.1880 S   0  0  0  0  0  0  0  0  0  0  0  0
   39.0840   30.8700   45.7160 C   0  0  0  0  0  0  0  0  0  0  0  0
   38.5870   30.5100   46.6490 N   0  0  0  0  0  0  0  0  0  0  0  0
   38.1320   30.8760   50.2680 C   0  0  0  0  0  0  0  0  0  0  0  0
   37.6900   30.5120   48.9790 C   0  0  0  0  0  0  0  0  0  0  0  0
   36.6180   29.6270   48.9140 C   0  0  0  0  0  0  0  0  0  0  0  0
   36.0640   29.1660   50.0560 N   0  0  0  0  0  0  0  0  0  0  0  0
   36.5050   29.5290   51.2530 C   0  0  0  0  0  0  0  0  0  0  0  0
   37.5470   30.3900   51.3650 N   0  0  0  0  0  0  0  0  0  0  0  0
   39.3470   30.2670   44.3660 C   0  0  2  0  0  0  0  0  0  0  0  0
   40.5520   30.9500   43.8060 C   0  0  0  0  0  0  0  0  0  0  0  0
   38.1280   30.5320   43.4850 C   0  0  0  0  0  0  0  0  0  0  0  0
   36.9850   30.0390   44.2080 N   0  0  0  0  0  0  0  0  0  0  0  0
   38.8229   33.1019   48.6896 H   0  0  0  0  0  0  0  0  0  0  0  0
   38.9756   31.5743   50.3713 H   0  0  0  0  0  0  0  0  0  0  0  0
   36.2244   29.3050   47.9386 H   0  0  0  0  0  0  0  0  0  0  0  0
   36.0239   29.1303   52.1583 H   0  0  0  0  0  0  0  0  0  0  0  0
   39.5222   29.1825   44.4214 H   0  0  0  0  0  0  0  0  0  0  0  0
   41.1859   31.3093   44.6300 H   0  0  0  0  0  0  0  0  0  0  0  0
   41.1215   30.2404   43.1878 H   0  0  0  0  0  0  0  0  0  0  0  0
   40.2358   31.8031   43.1878 H   0  0  0  0  0  0  0  0  0  0  0  0
   38.2292   30.0012   42.5269 H   0  0  0  0  0  0  0  0  0  0  0  0
   38.0247   31.6041   43.2616 H   0  0  0  0  0  0  0  0  0  0  0  0
   37.1602   30.1146   45.2202 H   0  0  0  0  0  0  0  0  0  0  0  0
   36.1554   30.5971   43.9606 H   0  0  0  0  0  0  0  0  0  0  0  0
  1  2  2  0
  1  7  1  0
  3  2  1  0
  4  3  1  0
  4  5  2  0
  5  1  1  0
  6 11  2  0
  7  6  1  0
  8  7  2  0
  8  9  1  0
  9 10  2  0
 10 11  1  0
 12  4  1  0
 13 12  1  0
 14 15  1  0
 14 12  1  0
  2 16  1  0
  6 17  1  0
  8 18  1  0
 10 19  1  0
 12 20  1  1
 13 21  1  0
 13 22  1  0
 13 23  1  0
 14 24  1  0
 14 25  1  0
 15 26  1  0
 15 27  1  0
M  ISO  8  16  14  17  14  18  14  19  14  20   8  21   8  22   8  23   8
M  ISO  4  24   8  25   8  26   5  27   5
M  END
>  <minimizedAffinity>  (1) 
-4.67860508

>  <minimizedRMSD>  (1) 
0.109203205

$$$$
