
     RDKit          3D

 39 42  0  0  1  0  0  0  0  0999 V2000
   39.6650   32.2360   45.7310 C   0  0  2  0  0  0  0  0  0  0  0  0
   37.8290   31.8560   48.8820 C   0  0  0  0  0  0  0  0  0  0  0  0
   38.2380   33.0650   49.4970 C   0  0  0  0  0  0  0  0  0  0  0  0
   39.3490   33.8450   48.2520 S   0  0  0  0  0  0  0  0  0  0  0  0
   39.0490   32.3510   47.0910 C   0  0  0  0  0  0  0  0  0  0  0  0
   38.3560   31.7120   47.6910 N   0  0  0  0  0  0  0  0  0  0  0  0
   37.3150   30.3920   50.8060 C   0  0  0  0  0  0  0  0  0  0  0  0
   36.9170   30.9600   49.5910 C   0  0  0  0  0  0  0  0  0  0  0  0
   35.6450   30.6240   49.1340 C   0  0  0  0  0  0  0  0  0  0  0  0
   34.8770   29.7910   49.8640 N   0  0  0  0  0  0  0  0  0  0  0  0
   35.3010   29.2660   51.0300 C   0  0  0  0  0  0  0  0  0  0  0  0
   36.5230   29.5710   51.4980 N   0  0  0  0  0  0  0  0  0  0  0  0
   40.6720   33.3310   45.6010 C   0  0  0  0  0  0  0  0  0  0  0  0
   38.5680   32.3850   44.6900 C   0  0  0  0  0  0  0  0  0  0  0  0
   37.9900   31.1420   44.2800 N   0  0  0  0  0  0  0  0  0  0  0  0
   36.7430   30.6510   44.3880 C   0  0  0  0  0  0  0  0  0  0  0  0
   36.7440   29.4240   43.8330 N   0  0  0  0  0  0  0  0  0  0  0  0
   37.9610   29.1160   43.3700 C   0  0  0  0  0  0  0  0  0  0  0  0
   38.4460   27.9900   42.7310 C   0  0  0  0  0  0  0  0  0  0  0  0
   37.7400   26.9850   42.4640 O   0  0  0  0  0  0  0  0  0  0  0  0
   39.7350   27.9350   42.3640 N   0  0  0  0  0  0  0  0  0  0  0  0
   40.4950   29.0070   42.6480 C   0  0  0  0  0  0  0  0  0  0  0  0
   41.8790   29.0030   42.2780 N   0  0  0  0  0  0  0  0  0  0  0  0
   40.0570   30.1250   43.2700 N   0  0  0  0  0  0  0  0  0  0  0  0
   38.7650   30.2130   43.6530 C   0  0  0  0  0  0  0  0  0  0  0  0
   40.1567   31.2629   45.5851 H   0  0  0  0  0  0  0  0  0  0  0  0
   37.9570   33.4491   50.4887 H   0  0  0  0  0  0  0  0  0  0  0  0
   38.3127   30.6299   51.2035 H   0  0  0  0  0  0  0  0  0  0  0  0
   35.2702   31.0351   48.1850 H   0  0  0  0  0  0  0  0  0  0  0  0
   34.6473   28.5882   51.5985 H   0  0  0  0  0  0  0  0  0  0  0  0
   40.9804   33.6663   46.6022 H   0  0  0  0  0  0  0  0  0  0  0  0
   41.5498   32.9587   45.0525 H   0  0  0  0  0  0  0  0  0  0  0  0
   40.2276   34.1746   45.0525 H   0  0  0  0  0  0  0  0  0  0  0  0
   37.7717   33.0153   45.1127 H   0  0  0  0  0  0  0  0  0  0  0  0
   39.0304   32.8335   43.7984 H   0  0  0  0  0  0  0  0  0  0  0  0
   35.8807   31.1582   44.8455 H   0  0  0  0  0  0  0  0  0  0  0  0
   40.1245   27.1096   41.8867 H   0  0  0  0  0  0  0  0  0  0  0  0
   42.4712   29.8185   42.4903 H   0  0  0  0  0  0  0  0  0  0  0  0
   42.2818   28.1846   41.7997 H   0  0  0  0  0  0  0  0  0  0  0  0
  1  5  1  0
  2  3  2  0
  2  8  1  0
  4  3  1  0
  5  6  2  0
  5  4  1  0
  6  2  1  0
  7 12  2  0
  8  7  1  0
  9  8  2  0
  9 10  1  0
 10 11  2  0
 11 12  1  0
 13  1  1  0
 14  1  1  0
 15 16  1  0
 15 14  1  0
 17 16  2  0
 18 25  2  0
 18 17  1  0
 19 18  1  0
 20 19  2  0
 21 22  1  0
 21 19  1  0
 22 24  2  0
 23 22  1  0
 24 25  1  0
 25 15  1  0
  1 26  1  1
  3 27  1  0
  7 28  1  0
  9 29  1  0
 11 30  1  0
 13 31  1  0
 13 32  1  0
 13 33  1  0
 14 34  1  0
 14 35  1  0
 16 36  1  0
 21 37  1  0
 23 38  1  0
 23 39  1  0
M  ISO  8  26   8  27  14  28  14  29  14  30  14  31   8  32   8  33   8
M  ISO  4  34   8  35   8  36  14  37   9
M  END
>  <minimizedAffinity>  (1) 
-6.15127087

>  <minimizedRMSD>  (1) 
2.38516879

$$$$
