
     RDKit          3D

 46 50  0  0  1  0  0  0  0  0999 V2000
   38.6110   32.6180   44.6000 C   0  0  0  0  0  0  0  0  0  0  0  0
   37.8300   31.5980   43.9590 N   0  0  0  0  0  0  0  0  0  0  0  0
   36.5000   31.4290   43.8350 C   0  0  0  0  0  0  0  0  0  0  0  0
   36.2990   30.3000   43.1320 N   0  0  0  0  0  0  0  0  0  0  0  0
   37.4630   29.7400   42.8000 C   0  0  0  0  0  0  0  0  0  0  0  0
   37.7690   28.5850   42.0900 C   0  0  0  0  0  0  0  0  0  0  0  0
   36.8860   27.8320   41.6080 O   0  0  0  0  0  0  0  0  0  0  0  0
   39.0400   28.2450   41.9000 N   0  0  0  0  0  0  0  0  0  0  0  0
   39.9880   29.0540   42.4150 C   0  0  0  0  0  0  0  0  0  0  0  0
   41.3650   28.7370   42.2420 N   0  0  0  0  0  0  0  0  0  0  0  0
   39.7190   30.1800   43.1080 N   0  0  0  0  0  0  0  0  0  0  0  0
   38.4460   30.5600   43.3240 C   0  0  0  0  0  0  0  0  0  0  0  0
   39.4890   27.0890   41.1910 C   0  0  0  0  0  0  0  0  0  0  0  0
   40.2800   26.9730   40.0690 C   0  0  0  0  0  0  0  0  0  0  0  0
   40.4670   25.6530   39.7180 C   0  0  0  0  0  0  0  0  0  0  0  0
   39.7690   24.9950   40.6610 N   0  0  0  0  0  0  0  0  0  0  0  0
   39.2000   25.8220   41.5180 N   0  0  0  0  0  0  0  0  0  0  0  0
   39.6040   32.0580   45.6310 C   0  0  2  0  0  0  0  0  0  0  0  0
   37.7040   31.7040   48.7510 C   0  0  0  0  0  0  0  0  0  0  0  0
   38.1440   32.8890   49.3900 C   0  0  0  0  0  0  0  0  0  0  0  0
   39.2980   33.6410   48.1750 S   0  0  0  0  0  0  0  0  0  0  0  0
   38.9630   32.1620   46.9860 C   0  0  0  0  0  0  0  0  0  0  0  0
   38.2430   31.5520   47.5670 N   0  0  0  0  0  0  0  0  0  0  0  0
   37.0590   30.2860   50.6750 C   0  0  0  0  0  0  0  0  0  0  0  0
   36.7500   30.8400   49.4390 C   0  0  0  0  0  0  0  0  0  0  0  0
   35.4900   30.5170   48.9230 C   0  0  0  0  0  0  0  0  0  0  0  0
   34.6690   29.7140   49.6230 N   0  0  0  0  0  0  0  0  0  0  0  0
   35.0220   29.2040   50.8210 C   0  0  0  0  0  0  0  0  0  0  0  0
   36.2170   29.4920   51.3410 N   0  0  0  0  0  0  0  0  0  0  0  0
   40.8550   32.8460   45.6590 C   0  0  0  0  0  0  0  0  0  0  0  0
   37.9282   33.3117   45.1124 H   0  0  0  0  0  0  0  0  0  0  0  0
   39.1987   33.1212   43.8181 H   0  0  0  0  0  0  0  0  0  0  0  0
   35.7200   32.0932   44.2356 H   0  0  0  0  0  0  0  0  0  0  0  0
   42.0891   29.3549   42.6354 H   0  0  0  0  0  0  0  0  0  0  0  0
   41.6372   27.8897   41.7235 H   0  0  0  0  0  0  0  0  0  0  0  0
   40.7083   27.8260   39.5222 H   0  0  0  0  0  0  0  0  0  0  0  0
   41.0433   25.2407   38.8766 H   0  0  0  0  0  0  0  0  0  0  0  0
   39.6883   23.9693   40.7086 H   0  0  0  0  0  0  0  0  0  0  0  0
   39.8476   31.0195   45.3624 H   0  0  0  0  0  0  0  0  0  0  0  0
   37.8607   33.2700   50.3823 H   0  0  0  0  0  0  0  0  0  0  0  0
   38.0379   30.5108   51.1236 H   0  0  0  0  0  0  0  0  0  0  0  0
   35.1724   30.9181   47.9492 H   0  0  0  0  0  0  0  0  0  0  0  0
   34.3259   28.5516   51.3686 H   0  0  0  0  0  0  0  0  0  0  0  0
   41.1486   33.0309   46.7028 H   0  0  0  0  0  0  0  0  0  0  0  0
   41.6522   32.2867   45.1475 H   0  0  0  0  0  0  0  0  0  0  0  0
   40.6948   33.8066   45.1475 H   0  0  0  0  0  0  0  0  0  0  0  0
  1 18  1  0
  2  1  1  0
  3  2  1  0
  4  3  2  0
  5  4  1  0
  5 12  2  0
  6  5  1  0
  7  6  2  0
  8  6  1  0
  8  9  1  0
  9 11  2  0
 10  9  1  0
 11 12  1  0
 12  2  1  0
 13 17  2  0
 13  8  1  0
 14 13  1  0
 15 14  2  0
 15 16  1  0
 16 17  1  0
 18 30  1  0
 18 22  1  0
 19 20  2  0
 19 25  1  0
 21 20  1  0
 22 23  2  0
 22 21  1  0
 23 19  1  0
 24 29  2  0
 25 24  1  0
 26 25  2  0
 26 27  1  0
 27 28  2  0
 28 29  1  0
  1 31  1  0
  1 32  1  0
  3 33  1  0
 10 34  1  0
 10 35  1  0
 14 36  1  0
 15 37  1  0
 16 38  1  0
 18 39  1  6
 20 40  1  0
 24 41  1  0
 26 42  1  0
 28 43  1  0
 30 44  1  0
 30 45  1  0
 30 46  1  0
M  ISO  8  31   8  32   8  33  14  36  14  37  14  38   9  39   8  40  14
M  ISO  6  41  14  42  14  43  14  44   8  45   8  46   8
M  END
>  <minimizedAffinity>  (1) 
-6.59283113

>  <minimizedRMSD>  (1) 
0.766989768

$$$$
