
     RDKit          3D

 32 33  0  0  0  0  0  0  0  0999 V2000
   39.6230   32.1160   45.7250 C   0  0  0  0  0  0  0  0  0  0  0  0
   38.3800   32.6120   49.2890 C   0  0  0  0  0  0  0  0  0  0  0  0
   39.0260   32.9190   48.0600 C   0  0  0  0  0  0  0  0  0  0  0  0
   39.0020   31.9510   47.0540 C   0  0  0  0  0  0  0  0  0  0  0  0
   38.3570   30.7740   47.3240 N   0  0  0  0  0  0  0  0  0  0  0  0
   37.7560   30.5200   48.5020 C   0  0  0  0  0  0  0  0  0  0  0  0
   37.7640   31.4330   49.4870 N   0  0  0  0  0  0  0  0  0  0  0  0
   40.8380   31.2100   45.6810 C   0  0  0  0  0  0  0  0  0  0  0  0
   40.0380   33.5160   45.4220 C   0  0  0  0  0  0  0  0  0  0  0  0
   38.6200   31.6730   44.6890 C   0  0  0  0  0  0  0  0  0  0  0  0
   39.0740   30.6420   43.8100 N   0  0  0  0  0  0  0  0  0  0  0  0
   38.8470   29.3320   44.1200 C   0  0  0  0  0  0  0  0  0  0  0  0
   39.2820   28.3450   43.2770 C   0  0  0  0  0  0  0  0  0  0  0  0
   39.9610   28.6350   42.0890 C   0  0  0  0  0  0  0  0  0  0  0  0
   40.3690   27.7280   41.3000 O   0  0  0  0  0  0  0  0  0  0  0  0
   40.1780   29.9370   41.7940 N   0  0  0  0  0  0  0  0  0  0  0  0
   39.7310   30.8740   42.6570 C   0  0  0  0  0  0  0  0  0  0  0  0
   39.9730   32.0580   42.3100 O   0  0  0  0  0  0  0  0  0  0  0  0
   38.3842   33.3574   50.0979 H   0  0  0  0  0  0  0  0  0  0  0  0
   39.5275   33.8860   47.9070 H   0  0  0  0  0  0  0  0  0  0  0  0
   37.2531   29.5544   48.6592 H   0  0  0  0  0  0  0  0  0  0  0  0
   41.1559   30.9729   46.7070 H   0  0  0  0  0  0  0  0  0  0  0  0
   40.5829   30.2799   45.1520 H   0  0  0  0  0  0  0  0  0  0  0  0
   41.6567   31.7199   45.1520 H   0  0  0  0  0  0  0  0  0  0  0  0
   40.1999   34.0622   46.3630 H   0  0  0  0  0  0  0  0  0  0  0  0
   40.9712   33.5039   44.8398 H   0  0  0  0  0  0  0  0  0  0  0  0
   39.2490   34.0145   44.8398 H   0  0  0  0  0  0  0  0  0  0  0  0
   37.7269   31.3042   45.2147 H   0  0  0  0  0  0  0  0  0  0  0  0
   38.4235   32.5513   44.0565 H   0  0  0  0  0  0  0  0  0  0  0  0
   38.3150   29.0698   45.0464 H   0  0  0  0  0  0  0  0  0  0  0  0
   39.0922   27.2942   43.5413 H   0  0  0  0  0  0  0  0  0  0  0  0
   40.6724   30.2071   40.9317 H   0  0  0  0  0  0  0  0  0  0  0  0
  1  4  1  0
  2  7  2  0
  3  2  1  0
  4  5  1  0
  4  3  2  0
  5  6  2  0
  6  7  1  0
  8  1  1  0
  9  1  1  0
 10  1  1  0
 11 12  1  0
 11 10  1  0
 13 12  2  0
 14 13  1  0
 15 14  2  0
 16 14  1  0
 16 17  1  0
 17 11  1  0
 18 17  2  0
  2 19  1  0
  3 20  1  0
  6 21  1  0
  8 22  1  0
  8 23  1  0
  8 24  1  0
  9 25  1  0
  9 26  1  0
  9 27  1  0
 10 28  1  0
 10 29  1  0
 12 30  1  0
 13 31  1  0
 16 32  1  0
M  ISO  8  19  14  20  14  21  14  22   8  23   8  24   8  25   8  26   8
M  ISO  6  27   8  28   8  29   8  30  14  31  14  32   9
M  END
>  <minimizedAffinity>  (1) 
-4.91886234

>  <minimizedRMSD>  (1) 
2.58352327

$$$$
