
     RDKit          3D

 46 50  0  0  1  0  0  0  0  0999 V2000
   39.5200   32.2310   45.8020 C   0  0  2  0  0  0  0  0  0  0  0  0
   37.6180   31.7450   48.9030 C   0  0  0  0  0  0  0  0  0  0  0  0
   38.0520   32.9150   49.5760 C   0  0  0  0  0  0  0  0  0  0  0  0
   39.1930   33.7190   48.3980 S   0  0  0  0  0  0  0  0  0  0  0  0
   38.8750   32.2810   47.1550 C   0  0  0  0  0  0  0  0  0  0  0  0
   38.1630   31.6440   47.7150 N   0  0  0  0  0  0  0  0  0  0  0  0
   36.9850   30.2660   50.7700 C   0  0  0  0  0  0  0  0  0  0  0  0
   36.6690   30.8590   49.5560 C   0  0  0  0  0  0  0  0  0  0  0  0
   35.4040   30.5520   49.0310 C   0  0  0  0  0  0  0  0  0  0  0  0
   34.5790   29.7270   49.6970 N   0  0  0  0  0  0  0  0  0  0  0  0
   34.9280   29.1750   50.8720 C   0  0  0  0  0  0  0  0  0  0  0  0
   36.1340   29.4490   51.4030 N   0  0  0  0  0  0  0  0  0  0  0  0
   40.5700   33.2680   45.7520 C   0  0  0  0  0  0  0  0  0  0  0  0
   38.4280   32.4850   44.7500 C   0  0  0  0  0  0  0  0  0  0  0  0
   37.7530   31.2820   44.3430 N   0  0  0  0  0  0  0  0  0  0  0  0
   36.4730   30.8840   44.4670 C   0  0  0  0  0  0  0  0  0  0  0  0
   36.3680   29.6650   43.9110 N   0  0  0  0  0  0  0  0  0  0  0  0
   37.5490   29.2660   43.4290 C   0  0  0  0  0  0  0  0  0  0  0  0
   37.9290   28.1090   42.7830 C   0  0  0  0  0  0  0  0  0  0  0  0
   37.1440   27.1630   42.5240 O   0  0  0  0  0  0  0  0  0  0  0  0
   39.1990   27.9500   42.3960 N   0  0  0  0  0  0  0  0  0  0  0  0
   40.0440   28.9560   42.6680 C   0  0  0  0  0  0  0  0  0  0  0  0
   41.4180   28.8410   42.2790 N   0  0  0  0  0  0  0  0  0  0  0  0
   39.7080   30.1060   43.3000 N   0  0  0  0  0  0  0  0  0  0  0  0
   38.4310   30.2960   43.7050 C   0  0  0  0  0  0  0  0  0  0  0  0
   39.7210   26.7900   41.7130 C   0  0  0  0  0  0  0  0  0  0  0  0
   38.9190   26.4360   40.4330 C   0  0  0  0  0  0  0  0  0  0  0  0
   40.3320   26.8820   40.3750 C   0  0  0  0  0  0  0  0  0  0  0  0
   39.9853   31.2545   45.6025 H   0  0  0  0  0  0  0  0  0  0  0  0
   37.7662   33.2604   50.5805 H   0  0  0  0  0  0  0  0  0  0  0  0
   37.9643   30.4734   51.2261 H   0  0  0  0  0  0  0  0  0  0  0  0
   35.0874   30.9879   48.0720 H   0  0  0  0  0  0  0  0  0  0  0  0
   34.2322   28.5035   51.3963 H   0  0  0  0  0  0  0  0  0  0  0  0
   40.8557   33.5502   46.7761 H   0  0  0  0  0  0  0  0  0  0  0  0
   41.4494   32.8741   45.2213 H   0  0  0  0  0  0  0  0  0  0  0  0
   40.1871   34.1522   45.2213 H   0  0  0  0  0  0  0  0  0  0  0  0
   37.6861   33.1775   45.1743 H   0  0  0  0  0  0  0  0  0  0  0  0
   38.9184   32.9059   43.8599 H   0  0  0  0  0  0  0  0  0  0  0  0
   35.6591   31.4542   44.9387 H   0  0  0  0  0  0  0  0  0  0  0  0
   42.0766   29.6065   42.4822 H   0  0  0  0  0  0  0  0  0  0  0  0
   41.7473   27.9929   41.7962 H   0  0  0  0  0  0  0  0  0  0  0  0
   40.0643   26.3181   42.6454 H   0  0  0  0  0  0  0  0  0  0  0  0
   38.6573   25.3905   40.2131 H   0  0  0  0  0  0  0  0  0  0  0  0
   37.9700   26.7608   39.9815 H   0  0  0  0  0  0  0  0  0  0  0  0
   41.1142   26.1640   40.0873 H   0  0  0  0  0  0  0  0  0  0  0  0
   40.8514   27.6858   39.8326 H   0  0  0  0  0  0  0  0  0  0  0  0
  1  5  1  0
  2  8  1  0
  2  3  2  0
  4  3  1  0
  5  6  2  0
  5  4  1  0
  6  2  1  0
  7 12  2  0
  8  7  1  0
  9  8  2  0
  9 10  1  0
 10 11  2  0
 11 12  1  0
 13  1  1  0
 14  1  1  0
 15 16  1  0
 15 14  1  0
 17 16  2  0
 18 25  2  0
 18 17  1  0
 19 18  1  0
 20 19  2  0
 21 22  1  0
 21 19  1  0
 22 24  2  0
 23 22  1  0
 24 25  1  0
 25 15  1  0
 26 21  1  0
 27 26  1  0
 28 27  1  0
 28 26  1  0
  1 29  1  6
  3 30  1  0
  7 31  1  0
  9 32  1  0
 11 33  1  0
 13 34  1  0
 13 35  1  0
 13 36  1  0
 14 37  1  0
 14 38  1  0
 16 39  1  0
 23 40  1  0
 23 41  1  0
 26 42  1  0
 27 43  1  0
 27 44  1  0
 28 45  1  0
 28 46  1  0
M  ISO  8  29   8  30  14  31  14  32  14  33  14  34   8  35   8  36   8
M  ISO  8  37   8  38   8  39  14  42  13  43  13  44  13  45  13  46  13
M  END
>  <minimizedAffinity>  (1) 
-6.0829668

>  <minimizedRMSD>  (1) 
0.513705671

$$$$
