
     RDKit          3D

 54 58  0  0  1  0  0  0  0  0999 V2000
   38.4750   32.4750   44.5850 C   0  0  0  0  0  0  0  0  0  0  0  0
   37.6140   31.3760   44.2440 N   0  0  0  0  0  0  0  0  0  0  0  0
   36.2830   31.2110   44.3640 C   0  0  0  0  0  0  0  0  0  0  0  0
   35.9810   29.9910   43.8870 N   0  0  0  0  0  0  0  0  0  0  0  0
   37.0900   29.3650   43.4630 C   0  0  0  0  0  0  0  0  0  0  0  0
   37.2750   28.1180   42.9060 C   0  0  0  0  0  0  0  0  0  0  0  0
   36.3410   27.3040   42.6920 O   0  0  0  0  0  0  0  0  0  0  0  0
   38.5020   27.7190   42.5640 N   0  0  0  0  0  0  0  0  0  0  0  0
   39.5010   28.5890   42.7920 C   0  0  0  0  0  0  0  0  0  0  0  0
   40.8450   28.2200   42.4460 N   0  0  0  0  0  0  0  0  0  0  0  0
   39.3590   29.8180   43.3350 N   0  0  0  0  0  0  0  0  0  0  0  0
   38.1360   30.2520   43.6910 C   0  0  0  0  0  0  0  0  0  0  0  0
   39.6860   24.2770   41.0780 N   0  0  0  0  0  0  0  0  0  0  0  0
   39.0990   25.0530   40.0430 C   0  0  0  0  0  0  0  0  0  0  0  0
   38.4220   26.3300   40.5150 C   0  0  0  0  0  0  0  0  0  0  0  0
   38.7330   26.4270   41.9810 C   0  0  0  0  0  0  0  0  0  0  0  0
   38.0770   25.2680   42.6430 C   0  0  0  0  0  0  0  0  0  0  0  0
   38.8950   24.0320   42.2370 C   0  0  0  0  0  0  0  0  0  0  0  0
   39.5470   32.1010   45.6210 C   0  0  2  0  0  0  0  0  0  0  0  0
   37.6870   31.7100   48.7620 C   0  0  0  0  0  0  0  0  0  0  0  0
   38.1380   32.8960   49.3940 C   0  0  0  0  0  0  0  0  0  0  0  0
   39.2680   33.6630   48.1790 S   0  0  0  0  0  0  0  0  0  0  0  0
   38.9230   32.1920   46.9810 C   0  0  0  0  0  0  0  0  0  0  0  0
   38.2150   31.5750   47.5680 N   0  0  0  0  0  0  0  0  0  0  0  0
   37.0780   30.2780   50.6690 C   0  0  0  0  0  0  0  0  0  0  0  0
   36.7430   30.8480   49.4510 C   0  0  0  0  0  0  0  0  0  0  0  0
   35.4650   30.5400   48.9590 C   0  0  0  0  0  0  0  0  0  0  0  0
   34.6480   29.7360   49.6620 N   0  0  0  0  0  0  0  0  0  0  0  0
   35.0240   29.2080   50.8410 C   0  0  0  0  0  0  0  0  0  0  0  0
   36.2390   29.4820   51.3420 N   0  0  0  0  0  0  0  0  0  0  0  0
   40.6930   33.0320   45.5740 C   0  0  0  0  0  0  0  0  0  0  0  0
   37.8589   33.2881   44.9965 H   0  0  0  0  0  0  0  0  0  0  0  0
   38.9981   32.7796   43.6665 H   0  0  0  0  0  0  0  0  0  0  0  0
   35.5721   31.9417   44.7772 H   0  0  0  0  0  0  0  0  0  0  0  0
   41.6195   28.8775   42.6156 H   0  0  0  0  0  0  0  0  0  0  0  0
   41.0345   27.2978   42.0282 H   0  0  0  0  0  0  0  0  0  0  0  0
   40.5407   24.7639   41.3835 H   0  0  0  0  0  0  0  0  0  0  0  0
   38.3457   24.4331   39.5347 H   0  0  0  0  0  0  0  0  0  0  0  0
   39.9213   25.3626   39.3812 H   0  0  0  0  0  0  0  0  0  0  0  0
   38.8253   27.2009   39.9775 H   0  0  0  0  0  0  0  0  0  0  0  0
   37.3384   26.3125   40.3267 H   0  0  0  0  0  0  0  0  0  0  0  0
   39.8176   26.3523   42.1487 H   0  0  0  0  0  0  0  0  0  0  0  0
   38.0905   25.3936   43.7357 H   0  0  0  0  0  0  0  0  0  0  0  0
   37.0240   25.1727   42.3395 H   0  0  0  0  0  0  0  0  0  0  0  0
   38.2047   23.2015   42.0276 H   0  0  0  0  0  0  0  0  0  0  0  0
   39.5731   23.7838   43.0668 H   0  0  0  0  0  0  0  0  0  0  0  0
   39.9137   31.0872   45.4025 H   0  0  0  0  0  0  0  0  0  0  0  0
   37.8683   33.2709   50.3923 H   0  0  0  0  0  0  0  0  0  0  0  0
   38.0691   30.4874   51.0978 H   0  0  0  0  0  0  0  0  0  0  0  0
   35.1314   30.9568   47.9972 H   0  0  0  0  0  0  0  0  0  0  0  0
   34.3360   28.5519   51.3943 H   0  0  0  0  0  0  0  0  0  0  0  0
   41.0031   33.2839   46.5989 H   0  0  0  0  0  0  0  0  0  0  0  0
   41.5310   32.5556   45.0441 H   0  0  0  0  0  0  0  0  0  0  0  0
   40.3983   33.9498   45.0441 H   0  0  0  0  0  0  0  0  0  0  0  0
  1 19  1  0
  2  3  1  0
  2  1  1  0
  4  3  2  0
  5 12  2  0
  5  4  1  0
  6  5  1  0
  7  6  2  0
  8  9  1  0
  8  6  1  0
  9 11  2  0
 10  9  1  0
 11 12  1  0
 12  2  1  0
 13 18  1  0
 14 15  1  0
 14 13  1  0
 15 16  1  0
 16  8  1  0
 16 17  1  0
 18 17  1  0
 19 23  1  0
 20 21  2  0
 20 26  1  0
 22 21  1  0
 23 24  2  0
 23 22  1  0
 24 20  1  0
 25 30  2  0
 26 25  1  0
 27 26  2  0
 27 28  1  0
 28 29  2  0
 29 30  1  0
 31 19  1  0
  1 32  1  0
  1 33  1  0
  3 34  1  0
 10 35  1  0
 10 36  1  0
 13 37  1  0
 14 38  1  0
 14 39  1  0
 15 40  1  0
 15 41  1  0
 16 42  1  0
 17 43  1  0
 17 44  1  0
 18 45  1  0
 18 46  1  0
 19 47  1  6
 21 48  1  0
 25 49  1  0
 27 50  1  0
 29 51  1  0
 31 52  1  0
 31 53  1  0
 31 54  1  0
M  ISO  8  32   8  33   8  34  14  37   5  38  13  39  13  40  13  41  13
M  ISO  8  42  13  43  13  44  13  45  13  46  13  47   8  48  14  49  14
M  ISO  5  50  14  51  14  52   8  53   8  54   8
M  END
>  <minimizedAffinity>  (1) 
-6.08160305

>  <minimizedRMSD>  (1) 
1.07732809

$$$$
