
     RDKit          3D

 35 36  0  0  0  0  0  0  0  0999 V2000
   39.5620   32.1180   45.8760 C   0  0  0  0  0  0  0  0  0  0  0  0
   38.2590   32.5950   49.4200 C   0  0  0  0  0  0  0  0  0  0  0  0
   38.9020   32.8880   48.2030 C   0  0  0  0  0  0  0  0  0  0  0  0
   38.9220   31.9230   47.1840 C   0  0  0  0  0  0  0  0  0  0  0  0
   38.3020   30.7310   47.4450 N   0  0  0  0  0  0  0  0  0  0  0  0
   37.6950   30.4840   48.6250 C   0  0  0  0  0  0  0  0  0  0  0  0
   37.6640   31.3890   49.6060 N   0  0  0  0  0  0  0  0  0  0  0  0
   40.7770   31.1990   45.8460 C   0  0  0  0  0  0  0  0  0  0  0  0
   39.9950   33.5160   45.6100 C   0  0  0  0  0  0  0  0  0  0  0  0
   38.5900   31.6810   44.8200 C   0  0  0  0  0  0  0  0  0  0  0  0
   40.1680   29.1290   41.7970 C   0  0  0  0  0  0  0  0  0  0  0  0
   39.4170   28.6440   42.8590 C   0  0  0  0  0  0  0  0  0  0  0  0
   38.9390   29.5370   43.8010 C   0  0  0  0  0  0  0  0  0  0  0  0
   39.1840   30.9020   43.7220 C   0  0  0  0  0  0  0  0  0  0  0  0
   39.9240   31.3450   42.6700 C   0  0  0  0  0  0  0  0  0  0  0  0
   40.4230   30.4940   41.7040 C   0  0  0  0  0  0  0  0  0  0  0  0
   40.7770   27.9830   40.5950 S   0  0  0  0  0  0  0  0  0  0  0  0
   42.0260   28.5450   40.0070 O   0  0  0  0  0  0  0  0  0  0  0  0
   39.7430   27.8710   39.5250 O   0  0  0  0  0  0  0  0  0  0  0  0
   38.2384   33.3459   50.2235 H   0  0  0  0  0  0  0  0  0  0  0  0
   39.3847   33.8648   48.0517 H   0  0  0  0  0  0  0  0  0  0  0  0
   37.2117   29.5085   48.7830 H   0  0  0  0  0  0  0  0  0  0  0  0
   41.0857   30.9655   46.8757 H   0  0  0  0  0  0  0  0  0  0  0  0
   40.5194   30.2677   45.3203 H   0  0  0  0  0  0  0  0  0  0  0  0
   41.6030   31.7003   45.3203 H   0  0  0  0  0  0  0  0  0  0  0  0
   40.1566   34.0378   46.5648 H   0  0  0  0  0  0  0  0  0  0  0  0
   40.9322   33.5063   45.0342 H   0  0  0  0  0  0  0  0  0  0  0  0
   39.2164   34.0378   45.0342 H   0  0  0  0  0  0  0  0  0  0  0  0
   37.8176   31.0623   45.3002 H   0  0  0  0  0  0  0  0  0  0  0  0
   38.1890   32.5999   44.3675 H   0  0  0  0  0  0  0  0  0  0  0  0
   39.2057   27.5683   42.9498 H   0  0  0  0  0  0  0  0  0  0  0  0
   38.3438   29.1526   44.6424 H   0  0  0  0  0  0  0  0  0  0  0  0
   40.1327   32.4217   42.5858 H   0  0  0  0  0  0  0  0  0  0  0  0
   41.0171   30.8915   40.8679 H   0  0  0  0  0  0  0  0  0  0  0  0
   41.0340   26.7581   41.1522 H   0  0  0  0  0  0  0  0  0  0  0  0
  1  4  1  0
  2  7  2  0
  3  2  1  0
  4  5  1  0
  4  3  2  0
  5  6  2  0
  6  7  1  0
  8  1  1  0
  9  1  1  0
 10  1  1  0
 11 12  2  0
 12 13  1  0
 14 13  2  0
 14 10  1  0
 15 14  1  0
 16 11  1  0
 16 15  2  0
 17 11  1  0
 18 17  2  0
 19 17  2  0
  2 20  1  0
  3 21  1  0
  6 22  1  0
  8 23  1  0
  8 24  1  0
  8 25  1  0
  9 26  1  0
  9 27  1  0
  9 28  1  0
 10 29  1  0
 10 30  1  0
 12 31  1  0
 13 32  1  0
 15 33  1  0
 16 34  1  0
 17 35  1  0
M  ISO  8  20  14  21  14  22  14  23   8  24   8  25   8  26   8  27   8
M  ISO  8  28   8  29   8  30   8  31  14  32  14  33  14  34  14  35  11
M  END
>  <minimizedAffinity>  (1) 
-4.85309649

>  <minimizedRMSD>  (1) 
2.63989568

$$$$
