
     RDKit          3D

 46 50  0  0  1  0  0  0  0  0999 V2000
   38.5800   32.7160   44.5590 C   0  0  0  0  0  0  0  0  0  0  0  0
   37.9110   31.7470   43.7420 N   0  0  0  0  0  0  0  0  0  0  0  0
   36.6030   31.5190   43.5140 C   0  0  0  0  0  0  0  0  0  0  0  0
   36.5170   30.4830   42.6590 N   0  0  0  0  0  0  0  0  0  0  0  0
   37.7390   30.0360   42.3290 C   0  0  0  0  0  0  0  0  0  0  0  0
   38.1530   29.0110   41.5000 C   0  0  0  0  0  0  0  0  0  0  0  0
   37.3700   28.2670   40.8640 O   0  0  0  0  0  0  0  0  0  0  0  0
   39.4540   28.7760   41.3480 N   0  0  0  0  0  0  0  0  0  0  0  0
   40.3100   29.5600   42.0190 C   0  0  0  0  0  0  0  0  0  0  0  0
   41.7190   29.3480   41.8900 N   0  0  0  0  0  0  0  0  0  0  0  0
   39.9420   30.5740   42.8410 N   0  0  0  0  0  0  0  0  0  0  0  0
   38.6320   30.8450   43.0220 C   0  0  0  0  0  0  0  0  0  0  0  0
   39.9790   27.7430   40.5170 C   0  0  0  0  0  0  0  0  0  0  0  0
   39.8970   26.3710   40.6320 C   0  0  0  0  0  0  0  0  0  0  0  0
   40.6040   25.9000   39.5210 C   0  0  0  0  0  0  0  0  0  0  0  0
   41.0690   26.9790   38.7990 C   0  0  0  0  0  0  0  0  0  0  0  0
   40.6580   28.0190   39.4540 O   0  0  0  0  0  0  0  0  0  0  0  0
   39.4380   32.0880   45.6690 C   0  0  2  0  0  0  0  0  0  0  0  0
   36.9550   30.9830   48.1350 C   0  0  0  0  0  0  0  0  0  0  0  0
   37.3100   31.8820   49.1760 C   0  0  0  0  0  0  0  0  0  0  0  0
   38.6950   32.8510   48.4760 S   0  0  0  0  0  0  0  0  0  0  0  0
   38.5490   31.8370   46.8480 C   0  0  0  0  0  0  0  0  0  0  0  0
   37.7110   31.1480   47.0770 N   0  0  0  0  0  0  0  0  0  0  0  0
   35.9080   29.1310   49.3750 C   0  0  0  0  0  0  0  0  0  0  0  0
   35.8550   30.0540   48.3400 C   0  0  0  0  0  0  0  0  0  0  0  0
   34.7000   30.0320   47.5400 C   0  0  0  0  0  0  0  0  0  0  0  0
   33.7240   29.1410   47.8060 N   0  0  0  0  0  0  0  0  0  0  0  0
   33.8170   28.2680   48.8160 C   0  0  0  0  0  0  0  0  0  0  0  0
   34.9130   28.2650   49.6010 N   0  0  0  0  0  0  0  0  0  0  0  0
   40.5290   32.9920   46.0880 C   0  0  0  0  0  0  0  0  0  0  0  0
   37.8218   33.3612   45.0268 H   0  0  0  0  0  0  0  0  0  0  0  0
   39.2587   33.2815   43.9036 H   0  0  0  0  0  0  0  0  0  0  0  0
   35.7599   32.0771   43.9471 H   0  0  0  0  0  0  0  0  0  0  0  0
   42.3793   29.9485   42.4041 H   0  0  0  0  0  0  0  0  0  0  0  0
   42.0730   28.5949   41.2830 H   0  0  0  0  0  0  0  0  0  0  0  0
   39.3934   25.7844   41.4145 H   0  0  0  0  0  0  0  0  0  0  0  0
   40.7631   24.8421   39.2650 H   0  0  0  0  0  0  0  0  0  0  0  0
   41.6592   26.9609   37.8709 H   0  0  0  0  0  0  0  0  0  0  0  0
   39.8883   31.1590   45.2893 H   0  0  0  0  0  0  0  0  0  0  0  0
   36.8563   31.9743   50.1738 H   0  0  0  0  0  0  0  0  0  0  0  0
   36.7929   29.1106   50.0281 H   0  0  0  0  0  0  0  0  0  0  0  0
   34.5930   30.7370   46.7024 H   0  0  0  0  0  0  0  0  0  0  0  0
   33.0013   27.5547   49.0052 H   0  0  0  0  0  0  0  0  0  0  0  0
   40.5733   33.0287   47.1865 H   0  0  0  0  0  0  0  0  0  0  0  0
   41.4860   32.6186   45.6947 H   0  0  0  0  0  0  0  0  0  0  0  0
   40.3399   34.0017   45.6947 H   0  0  0  0  0  0  0  0  0  0  0  0
  1 18  1  0
  2  1  1  0
  3  2  1  0
  4  3  2  0
  5  4  1  0
  5 12  2  0
  6  5  1  0
  7  6  2  0
  8  6  1  0
  8  9  1  0
  9 11  2  0
 10  9  1  0
 11 12  1  0
 12  2  1  0
 13 14  2  0
 13  8  1  0
 15 14  1  0
 16 17  1  0
 16 15  2  0
 17 13  1  0
 18 30  1  0
 18 22  1  0
 19 25  1  0
 19 20  2  0
 21 20  1  0
 22 23  2  0
 22 21  1  0
 23 19  1  0
 24 29  2  0
 25 24  1  0
 26 27  1  0
 26 25  2  0
 27 28  2  0
 28 29  1  0
  1 31  1  0
  1 32  1  0
  3 33  1  0
 10 34  1  0
 10 35  1  0
 14 36  1  0
 15 37  1  0
 16 38  1  0
 18 39  1  6
 20 40  1  0
 24 41  1  0
 26 42  1  0
 28 43  1  0
 30 44  1  0
 30 45  1  0
 30 46  1  0
M  ISO  8  31   8  32   8  33  14  36  14  37  14  38  14  39   8  40  14
M  ISO  6  41  14  42  14  43  14  44   8  45   8  46   8
M  END
>  <minimizedAffinity>  (1) 
-6.04326391

>  <minimizedRMSD>  (1) 
1.62968779

$$$$
