
     RDKit          3D

 49 53  0  0  1  0  0  0  0  0999 V2000
   38.6480   32.5010   44.5410 C   0  0  0  0  0  0  0  0  0  0  0  0
   37.7490   31.4300   44.2180 N   0  0  0  0  0  0  0  0  0  0  0  0
   36.4130   31.3120   44.3500 C   0  0  0  0  0  0  0  0  0  0  0  0
   36.0640   30.0980   43.8920 N   0  0  0  0  0  0  0  0  0  0  0  0
   37.1470   29.4270   43.4670 C   0  0  0  0  0  0  0  0  0  0  0  0
   37.2860   28.1650   42.9260 C   0  0  0  0  0  0  0  0  0  0  0  0
   36.3250   27.3790   42.7290 O   0  0  0  0  0  0  0  0  0  0  0  0
   38.4950   27.7250   42.5800 N   0  0  0  0  0  0  0  0  0  0  0  0
   39.5260   28.5600   42.7870 C   0  0  0  0  0  0  0  0  0  0  0  0
   40.8520   28.1390   42.4320 N   0  0  0  0  0  0  0  0  0  0  0  0
   39.4300   29.8010   43.3150 N   0  0  0  0  0  0  0  0  0  0  0  0
   38.2260   30.2740   43.6740 C   0  0  0  0  0  0  0  0  0  0  0  0
   38.6740   26.4360   42.0210 C   0  0  0  0  0  0  0  0  0  0  0  0
   38.7690   25.3400   42.8540 C   0  0  0  0  0  0  0  0  0  0  0  0
   38.9440   24.1070   42.2490 C   0  0  0  0  0  0  0  0  0  0  0  0
   39.0180   24.0010   40.8600 C   0  0  0  0  0  0  0  0  0  0  0  0
   38.9180   25.1280   40.0650 C   0  0  0  0  0  0  0  0  0  0  0  0
   38.7420   26.3890   40.6320 C   0  0  0  0  0  0  0  0  0  0  0  0
   39.7480   32.0890   45.5290 C   0  0  2  0  0  0  0  0  0  0  0  0
   38.0940   31.8400   48.7950 C   0  0  0  0  0  0  0  0  0  0  0  0
   38.5230   33.0860   49.3220 C   0  0  0  0  0  0  0  0  0  0  0  0
   39.5430   33.8100   47.9860 S   0  0  0  0  0  0  0  0  0  0  0  0
   39.1990   32.2470   46.9140 C   0  0  0  0  0  0  0  0  0  0  0  0
   38.5570   31.6440   47.5840 N   0  0  0  0  0  0  0  0  0  0  0  0
   37.6640   30.5240   50.8330 C   0  0  0  0  0  0  0  0  0  0  0  0
   37.2330   30.9890   49.5990 C   0  0  0  0  0  0  0  0  0  0  0  0
   35.9450   30.5910   49.2060 C   0  0  0  0  0  0  0  0  0  0  0  0
   35.2050   29.8040   50.0080 N   0  0  0  0  0  0  0  0  0  0  0  0
   35.6800   29.3830   51.2010 C   0  0  0  0  0  0  0  0  0  0  0  0
   36.9000   29.7410   51.6040 N   0  0  0  0  0  0  0  0  0  0  0  0
   40.9400   32.9500   45.3970 C   0  0  0  0  0  0  0  0  0  0  0  0
   38.0676   33.3225   44.9864 H   0  0  0  0  0  0  0  0  0  0  0  0
   39.1439   32.8048   43.6073 H   0  0  0  0  0  0  0  0  0  0  0  0
   35.7313   32.0723   44.7589 H   0  0  0  0  0  0  0  0  0  0  0  0
   41.6512   28.7702   42.5858 H   0  0  0  0  0  0  0  0  0  0  0  0
   41.0040   27.2057   42.0235 H   0  0  0  0  0  0  0  0  0  0  0  0
   38.7085   25.4412   43.9477 H   0  0  0  0  0  0  0  0  0  0  0  0
   39.0255   23.2024   42.8695 H   0  0  0  0  0  0  0  0  0  0  0  0
   39.1568   23.0143   40.3940 H   0  0  0  0  0  0  0  0  0  0  0  0
   38.9781   25.0280   38.9712 H   0  0  0  0  0  0  0  0  0  0  0  0
   38.6613   27.2966   40.0157 H   0  0  0  0  0  0  0  0  0  0  0  0
   40.0470   31.0510   45.3215 H   0  0  0  0  0  0  0  0  0  0  0  0
   38.2947   33.5177   50.3077 H   0  0  0  0  0  0  0  0  0  0  0  0
   38.6654   30.8078   51.1890 H   0  0  0  0  0  0  0  0  0  0  0  0
   35.5396   30.9238   48.2391 H   0  0  0  0  0  0  0  0  0  0  0  0
   35.0576   28.7421   51.8427 H   0  0  0  0  0  0  0  0  0  0  0  0
   41.3112   33.2181   46.3972 H   0  0  0  0  0  0  0  0  0  0  0  0
   41.7244   32.4086   44.8477 H   0  0  0  0  0  0  0  0  0  0  0  0
   40.6726   33.8648   44.8477 H   0  0  0  0  0  0  0  0  0  0  0  0
  1 19  1  0
  2  3  1  0
  2  1  1  0
  4  3  2  0
  5 12  2  0
  5  4  1  0
  6  5  1  0
  7  6  2  0
  8  9  1  0
  8  6  1  0
  9 11  2  0
 10  9  1  0
 11 12  1  0
 12  2  1  0
 13  8  1  0
 13 14  2  0
 15 14  1  0
 16 15  2  0
 17 18  2  0
 17 16  1  0
 18 13  1  0
 19 23  1  0
 20 21  2  0
 20 26  1  0
 22 21  1  0
 23 24  2  0
 23 22  1  0
 24 20  1  0
 25 30  2  0
 26 25  1  0
 27 26  2  0
 27 28  1  0
 28 29  2  0
 29 30  1  0
 31 19  1  0
  1 32  1  0
  1 33  1  0
  3 34  1  0
 10 35  1  0
 10 36  1  0
 14 37  1  0
 15 38  1  0
 16 39  1  0
 17 40  1  0
 18 41  1  0
 19 42  1  6
 21 43  1  0
 25 44  1  0
 27 45  1  0
 29 46  1  0
 31 47  1  0
 31 48  1  0
 31 49  1  0
M  ISO  8  32   8  33   8  34  14  37  14  38  14  39  14  40  14  41  14
M  ISO  8  42   8  43  14  44  14  45  14  46  14  47   8  48   8  49   8
M  END
>  <minimizedAffinity>  (1) 
-5.97158003

>  <minimizedRMSD>  (1) 
1.1394974

$$$$
