
     RDKit          3D

 49 53  0  0  1  0  0  0  0  0999 V2000
   38.6620   32.4620   44.5080 C   0  0  0  0  0  0  0  0  0  0  0  0
   37.7190   31.4180   44.2080 N   0  0  0  0  0  0  0  0  0  0  0  0
   36.3810   31.3500   44.3470 C   0  0  0  0  0  0  0  0  0  0  0  0
   35.9900   30.1380   43.9100 N   0  0  0  0  0  0  0  0  0  0  0  0
   37.0370   29.4300   43.4950 C   0  0  0  0  0  0  0  0  0  0  0  0
   37.1380   28.1580   42.9730 C   0  0  0  0  0  0  0  0  0  0  0  0
   36.1550   27.3950   42.7900 O   0  0  0  0  0  0  0  0  0  0  0  0
   38.3390   27.6630   42.6250 N   0  0  0  0  0  0  0  0  0  0  0  0
   39.3940   28.4700   42.8180 C   0  0  0  0  0  0  0  0  0  0  0  0
   40.7010   27.9930   42.4650 N   0  0  0  0  0  0  0  0  0  0  0  0
   39.3440   29.7180   43.3250 N   0  0  0  0  0  0  0  0  0  0  0  0
   38.1540   30.2410   43.6820 C   0  0  0  0  0  0  0  0  0  0  0  0
   38.5440   26.3560   42.0760 C   0  0  0  0  0  0  0  0  0  0  0  0
   38.6670   25.3900   43.0540 C   0  0  0  0  0  0  0  0  0  0  0  0
   38.8720   24.0570   42.6970 C   0  0  0  0  0  0  0  0  0  0  0  0
   38.9410   23.7670   41.3460 C   0  0  0  0  0  0  0  0  0  0  0  0
   38.8210   24.7240   40.3610 C   0  0  0  0  0  0  0  0  0  0  0  0
   38.6180   26.0390   40.7340 C   0  0  0  0  0  0  0  0  0  0  0  0
   39.7570   32.0140   45.4920 C   0  0  2  0  0  0  0  0  0  0  0  0
   38.1270   31.8320   48.7820 C   0  0  0  0  0  0  0  0  0  0  0  0
   38.5510   33.0950   49.2810 C   0  0  0  0  0  0  0  0  0  0  0  0
   39.5630   33.7960   47.9170 S   0  0  0  0  0  0  0  0  0  0  0  0
   39.2190   32.2050   46.8840 C   0  0  0  0  0  0  0  0  0  0  0  0
   38.5850   31.6110   47.5720 N   0  0  0  0  0  0  0  0  0  0  0  0
   37.7330   30.5390   50.8460 C   0  0  0  0  0  0  0  0  0  0  0  0
   37.2840   30.9920   49.6130 C   0  0  0  0  0  0  0  0  0  0  0  0
   35.9920   30.5920   49.2450 C   0  0  0  0  0  0  0  0  0  0  0  0
   35.2760   29.8160   50.0800 N   0  0  0  0  0  0  0  0  0  0  0  0
   35.7580   29.4050   51.2620 C   0  0  0  0  0  0  0  0  0  0  0  0
   36.9840   29.7680   51.6400 N   0  0  0  0  0  0  0  0  0  0  0  0
   40.9700   32.8480   45.3560 C   0  0  0  0  0  0  0  0  0  0  0  0
   38.1183   33.3100   44.9500 H   0  0  0  0  0  0  0  0  0  0  0  0
   39.1577   32.7403   43.5663 H   0  0  0  0  0  0  0  0  0  0  0  0
   35.7273   32.1402   44.7448 H   0  0  0  0  0  0  0  0  0  0  0  0
   41.5244   28.5958   42.6048 H   0  0  0  0  0  0  0  0  0  0  0  0
   40.8155   27.0479   42.0719 H   0  0  0  0  0  0  0  0  0  0  0  0
   38.6034   25.6712   44.1155 H   0  0  0  0  0  0  0  0  0  0  0  0
   38.9745   23.2694   43.4580 H   0  0  0  0  0  0  0  0  0  0  0  0
   39.0994   22.7215   41.0429 H   0  0  0  0  0  0  0  0  0  0  0  0
   38.8856   24.4462   39.2986 H   0  0  0  0  0  0  0  0  0  0  0  0
   38.5165   26.8244   39.9705 H   0  0  0  0  0  0  0  0  0  0  0  0
   40.0221   30.9666   45.2854 H   0  0  0  0  0  0  0  0  0  0  0  0
   38.3251   33.5474   50.2579 H   0  0  0  0  0  0  0  0  0  0  0  0
   38.7409   30.8248   51.1813 H   0  0  0  0  0  0  0  0  0  0  0  0
   35.5666   30.9097   48.2816 H   0  0  0  0  0  0  0  0  0  0  0  0
   35.1438   28.7703   51.9177 H   0  0  0  0  0  0  0  0  0  0  0  0
   41.3495   33.1089   46.3550 H   0  0  0  0  0  0  0  0  0  0  0  0
   41.7404   32.2877   44.8059 H   0  0  0  0  0  0  0  0  0  0  0  0
   40.7227   33.7679   44.8059 H   0  0  0  0  0  0  0  0  0  0  0  0
  1 19  1  0
  2  3  1  0
  2  1  1  0
  4  3  2  0
  5 12  2  0
  5  4  1  0
  6  5  1  0
  7  6  2  0
  8  9  1  0
  8  6  1  0
  9 11  2  0
 10  9  1  0
 11 12  1  0
 12  2  1  0
 13  8  1  0
 13 14  2  0
 15 14  1  0
 16 15  2  0
 17 18  2  0
 17 16  1  0
 18 13  1  0
 19 23  1  0
 20 21  2  0
 20 26  1  0
 22 21  1  0
 23 24  2  0
 23 22  1  0
 24 20  1  0
 25 30  2  0
 26 25  1  0
 27 26  2  0
 27 28  1  0
 28 29  2  0
 29 30  1  0
 31 19  1  0
  1 32  1  0
  1 33  1  0
  3 34  1  0
 10 35  1  0
 10 36  1  0
 14 37  1  0
 15 38  1  0
 16 39  1  0
 17 40  1  0
 18 41  1  0
 19 42  1  6
 21 43  1  0
 25 44  1  0
 27 45  1  0
 29 46  1  0
 31 47  1  0
 31 48  1  0
 31 49  1  0
M  ISO  8  32   8  33   8  34  14  37  14  38  14  39  14  40  14  41  14
M  ISO  8  42   8  43  14  44  14  45  14  46  14  47   8  48   8  49   8
M  END
>  <minimizedAffinity>  (1) 
-5.96846294

>  <minimizedRMSD>  (1) 
1.2654202

$$$$
