
     RDKit          3D

 28 31  0  0  0  0  0  0  0  0999 V2000
   38.0560   31.5440   48.5010 C   0  0  0  0  0  0  0  0  0  0  0  0
   38.8630   32.6240   48.5930 N   0  0  0  0  0  0  0  0  0  0  0  0
   39.3310   32.9530   47.4320 O   0  0  0  0  0  0  0  0  0  0  0  0
   38.8400   32.0990   46.5670 C   0  0  0  0  0  0  0  0  0  0  0  0
   38.0290   31.1880   47.1830 N   0  0  0  0  0  0  0  0  0  0  0  0
   39.1820   32.2110   45.1890 N   0  0  0  0  0  0  0  0  0  0  0  0
   39.4830   33.2690   44.4130 C   0  0  0  0  0  0  0  0  0  0  0  0
   39.7400   32.8580   43.1540 N   0  0  0  0  0  0  0  0  0  0  0  0
   39.6080   31.5340   43.1010 C   0  0  0  0  0  0  0  0  0  0  0  0
   39.7680   30.6680   42.0380 C   0  0  0  0  0  0  0  0  0  0  0  0
   39.5590   29.3600   42.3170 N   0  0  0  0  0  0  0  0  0  0  0  0
   39.2160   28.9520   43.5640 C   0  0  0  0  0  0  0  0  0  0  0  0
   39.0580   29.7950   44.6050 N   0  0  0  0  0  0  0  0  0  0  0  0
   39.2590   31.1230   44.3710 C   0  0  0  0  0  0  0  0  0  0  0  0
   37.0130   29.7990   51.6550 C   0  0  0  0  0  0  0  0  0  0  0  0
   37.8020   30.5320   50.7630 C   0  0  0  0  0  0  0  0  0  0  0  0
   37.2940   30.7880   49.4880 C   0  0  0  0  0  0  0  0  0  0  0  0
   36.0510   30.3180   49.1510 N   0  0  0  0  0  0  0  0  0  0  0  0
   35.3320   29.6090   50.0700 C   0  0  0  0  0  0  0  0  0  0  0  0
   35.8020   29.3540   51.2970 N   0  0  0  0  0  0  0  0  0  0  0  0
   40.1280   31.0800   40.7250 N   0  0  0  0  0  0  0  0  0  0  0  0
   39.5147   34.3140   44.7549 H   0  0  0  0  0  0  0  0  0  0  0  0
   39.0583   27.8770   43.7355 H   0  0  0  0  0  0  0  0  0  0  0  0
   37.3926   29.5850   52.6650 H   0  0  0  0  0  0  0  0  0  0  0  0
   38.7967   30.8973   51.0581 H   0  0  0  0  0  0  0  0  0  0  0  0
   34.3350   29.2356   49.7933 H   0  0  0  0  0  0  0  0  0  0  0  0
   40.2848   32.0778   40.5232 H   0  0  0  0  0  0  0  0  0  0  0  0
   40.2319   30.3805   39.9761 H   0  0  0  0  0  0  0  0  0  0  0  0
  1  2  2  0
  1 17  1  0
  3  2  1  0
  4  5  2  0
  4  3  1  0
  5  1  1  0
  6  4  1  0
  7  6  1  0
  8  7  2  0
  9  8  1  0
  9 14  2  0
 10 11  2  0
 10  9  1  0
 11 12  1  0
 12 13  2  0
 14 13  1  0
 14  6  1  0
 16 15  2  0
 17 16  1  0
 18 17  2  0
 18 19  1  0
 19 20  2  0
 20 15  1  0
 21 10  1  0
  7 22  1  0
 12 23  1  0
 15 24  1  0
 16 25  1  0
 19 26  1  0
 21 27  1  0
 21 28  1  0
M  ISO  5  22  14  23  14  24  14  25  14  26  14
M  END
>  <minimizedAffinity>  (1) 
-6.34488964

>  <minimizedRMSD>  (1) 
1.2044735

$$$$
