
     RDKit          3D

 29 32  0  0  0  0  0  0  0  0999 V2000
   38.3910   31.5870   48.1880 C   0  0  0  0  0  0  0  0  0  0  0  0
   39.0780   32.7480   48.2380 N   0  0  0  0  0  0  0  0  0  0  0  0
   39.4900   33.0900   47.0700 O   0  0  0  0  0  0  0  0  0  0  0  0
   39.0920   32.1800   46.2270 C   0  0  0  0  0  0  0  0  0  0  0  0
   38.3960   31.2140   46.8850 N   0  0  0  0  0  0  0  0  0  0  0  0
   39.3010   32.0980   44.7650 C   0  0  0  0  0  0  0  0  0  0  0  0
   39.5650   33.1000   43.8510 C   0  0  0  0  0  0  0  0  0  0  0  0
   39.6750   32.5480   42.6430 N   0  0  0  0  0  0  0  0  0  0  0  0
   39.5000   31.2230   42.6870 C   0  0  0  0  0  0  0  0  0  0  0  0
   39.5110   30.2200   41.7670 C   0  0  0  0  0  0  0  0  0  0  0  0
   39.2980   28.8960   42.0610 C   0  0  0  0  0  0  0  0  0  0  0  0
   39.0590   28.5810   43.3980 C   0  0  0  0  0  0  0  0  0  0  0  0
   39.0430   29.5910   44.3580 C   0  0  0  0  0  0  0  0  0  0  0  0
   39.2610   30.9200   44.0310 C   0  0  0  0  0  0  0  0  0  0  0  0
   37.3160   30.1230   51.4750 C   0  0  0  0  0  0  0  0  0  0  0  0
   37.9860   30.9300   50.5610 C   0  0  0  0  0  0  0  0  0  0  0  0
   37.7280   30.7790   49.1990 C   0  0  0  0  0  0  0  0  0  0  0  0
   36.8190   29.8390   48.8060 N   0  0  0  0  0  0  0  0  0  0  0  0
   36.1870   29.0730   49.7410 C   0  0  0  0  0  0  0  0  0  0  0  0
   36.4220   29.2020   51.0600 N   0  0  0  0  0  0  0  0  0  0  0  0
   39.6670   34.1708   44.0812 H   0  0  0  0  0  0  0  0  0  0  0  0
   39.8708   33.0770   41.7812 H   0  0  0  0  0  0  0  0  0  0  0  0
   39.7034   30.4882   40.7177 H   0  0  0  0  0  0  0  0  0  0  0  0
   39.3151   28.1216   41.2800 H   0  0  0  0  0  0  0  0  0  0  0  0
   38.8833   27.5365   43.6947 H   0  0  0  0  0  0  0  0  0  0  0  0
   38.8514   29.3251   45.4080 H   0  0  0  0  0  0  0  0  0  0  0  0
   37.5179   30.2375   52.5502 H   0  0  0  0  0  0  0  0  0  0  0  0
   38.7119   31.6796   50.9092 H   0  0  0  0  0  0  0  0  0  0  0  0
   35.4577   28.3214   49.4044 H   0  0  0  0  0  0  0  0  0  0  0  0
  1  2  2  0
  1 17  1  0
  3  2  1  0
  4  5  2  0
  4  3  1  0
  5  1  1  0
  6  4  1  0
  7  6  2  0
  8  9  1  0
  8  7  1  0
  9 14  2  0
 10 11  2  0
 10  9  1  0
 11 12  1  0
 12 13  2  0
 14 13  1  0
 14  6  1  0
 16 15  2  0
 17 16  1  0
 18 17  2  0
 18 19  1  0
 19 20  2  0
 20 15  1  0
  7 21  1  0
  8 22  1  0
 10 23  1  0
 11 24  1  0
 12 25  1  0
 13 26  1  0
 15 27  1  0
 16 28  1  0
 19 29  1  0
M  ISO  8  21  14  22   9  23  14  24  14  25  14  26  14  27  14  28  14
M  ISO  1  29  14
M  END
>  <minimizedAffinity>  (1) 
-5.96476269

>  <minimizedRMSD>  (1) 
0.6723333

$$$$
