
     RDKit          3D

 32 33  0  0  0  0  0  0  0  0999 V2000
   39.2270   32.2850   46.0660 C   0  0  0  0  0  0  0  0  0  0  0  0
   37.7090   32.4310   49.5410 C   0  0  0  0  0  0  0  0  0  0  0  0
   38.5770   32.7380   48.4670 C   0  0  0  0  0  0  0  0  0  0  0  0
   38.3910   32.0510   47.2450 C   0  0  0  0  0  0  0  0  0  0  0  0
   37.3790   31.1350   47.1860 N   0  0  0  0  0  0  0  0  0  0  0  0
   36.5820   30.8820   48.2380 C   0  0  0  0  0  0  0  0  0  0  0  0
   36.7340   31.5150   49.4060 N   0  0  0  0  0  0  0  0  0  0  0  0
   40.0900   31.0290   45.8970 C   0  0  0  0  0  0  0  0  0  0  0  0
   40.1130   33.4730   46.1390 C   0  0  0  0  0  0  0  0  0  0  0  0
   38.3140   32.3910   44.8700 C   0  0  0  0  0  0  0  0  0  0  0  0
   38.7840   31.6250   43.7040 C   0  0  0  0  0  0  0  0  0  0  0  0
   38.1860   30.3780   43.4820 C   0  0  0  0  0  0  0  0  0  0  0  0
   38.5140   29.5420   42.4370 C   0  0  0  0  0  0  0  0  0  0  0  0
   39.5020   29.9880   41.5650 C   0  0  0  0  0  0  0  0  0  0  0  0
   40.1290   31.2110   41.7350 C   0  0  0  0  0  0  0  0  0  0  0  0
   39.7520   31.9950   42.8000 C   0  0  0  0  0  0  0  0  0  0  0  0
   37.8338   32.9503   50.5026 H   0  0  0  0  0  0  0  0  0  0  0  0
   39.3730   33.4888   48.5791 H   0  0  0  0  0  0  0  0  0  0  0  0
   35.7825   30.1335   48.1354 H   0  0  0  0  0  0  0  0  0  0  0  0
   40.3611   30.6344   46.8874 H   0  0  0  0  0  0  0  0  0  0  0  0
   39.5238   30.2671   45.3412 H   0  0  0  0  0  0  0  0  0  0  0  0
   41.0043   31.2844   45.3412 H   0  0  0  0  0  0  0  0  0  0  0  0
   40.3014   33.7257   47.1929 H   0  0  0  0  0  0  0  0  0  0  0  0
   41.0672   33.2501   45.6391 H   0  0  0  0  0  0  0  0  0  0  0  0
   39.6272   34.3240   45.6391 H   0  0  0  0  0  0  0  0  0  0  0  0
   37.3203   32.0156   45.1559 H   0  0  0  0  0  0  0  0  0  0  0  0
   38.2899   33.4500   44.5736 H   0  0  0  0  0  0  0  0  0  0  0  0
   37.4073   30.0460   44.1845 H   0  0  0  0  0  0  0  0  0  0  0  0
   38.0189   28.5695   42.2990 H   0  0  0  0  0  0  0  0  0  0  0  0
   39.7933   29.3513   40.7166 H   0  0  0  0  0  0  0  0  0  0  0  0
   40.9089   31.5468   41.0358 H   0  0  0  0  0  0  0  0  0  0  0  0
   40.2496   32.9666   42.9356 H   0  0  0  0  0  0  0  0  0  0  0  0
  1  9  1  0
  1  4  1  0
  3  2  2  0
  4  3  1  0
  5  4  2  0
  5  6  1  0
  6  7  2  0
  7  2  1  0
  8  1  1  0
 10  1  1  0
 11 10  1  0
 12 11  2  0
 13 12  1  0
 14 15  1  0
 14 13  2  0
 15 16  2  0
 16 11  1  0
  2 17  1  0
  3 18  1  0
  6 19  1  0
  8 20  1  0
  8 21  1  0
  8 22  1  0
  9 23  1  0
  9 24  1  0
  9 25  1  0
 10 26  1  0
 10 27  1  0
 12 28  1  0
 13 29  1  0
 14 30  1  0
 15 31  1  0
 16 32  1  0
M  ISO  8  17  14  18  14  19  14  20   8  21   8  22   8  23   8  24   8
M  ISO  8  25   8  26   8  27   8  28  14  29  14  30  14  31  14  32  14
M  END
>  <minimizedAffinity>  (1) 
-4.67757273

>  <minimizedRMSD>  (1) 
1.32645547

$$$$
