
     RDKit          3D

 27 28  0  0  0  0  0  0  0  0999 V2000
   37.0600   29.7780   51.6480 C   0  0  0  0  0  0  0  0  0  0  0  0
   37.9010   30.5530   50.8290 C   0  0  0  0  0  0  0  0  0  0  0  0
   37.4150   30.9260   49.5860 C   0  0  0  0  0  0  0  0  0  0  0  0
   36.1570   30.5270   49.2220 N   0  0  0  0  0  0  0  0  0  0  0  0
   35.3780   29.7830   50.0340 C   0  0  0  0  0  0  0  0  0  0  0  0
   35.8200   29.4080   51.2400 N   0  0  0  0  0  0  0  0  0  0  0  0
   38.2010   31.7280   48.6560 C   0  0  0  0  0  0  0  0  0  0  0  0
   38.7510   32.9450   48.7350 N   0  0  0  0  0  0  0  0  0  0  0  0
   39.3670   33.2350   47.6320 O   0  0  0  0  0  0  0  0  0  0  0  0
   39.2390   32.2310   46.8090 C   0  0  0  0  0  0  0  0  0  0  0  0
   38.5100   31.2530   47.4110 N   0  0  0  0  0  0  0  0  0  0  0  0
   39.8070   32.1760   45.4320 C   0  0  0  0  0  0  0  0  0  0  0  0
   38.7360   31.5970   44.4990 C   0  0  0  0  0  0  0  0  0  0  0  0
   41.0750   31.3870   45.3760 C   0  0  0  0  0  0  0  0  0  0  0  0
   40.0330   33.5990   44.9290 C   0  0  0  0  0  0  0  0  0  0  0  0
   37.4154   29.4651   52.6409 H   0  0  0  0  0  0  0  0  0  0  0  0
   38.9059   30.8515   51.1624 H   0  0  0  0  0  0  0  0  0  0  0  0
   34.3730   29.4827   49.7026 H   0  0  0  0  0  0  0  0  0  0  0  0
   37.9251   31.1586   45.0991 H   0  0  0  0  0  0  0  0  0  0  0  0
   38.3303   32.3987   43.8644 H   0  0  0  0  0  0  0  0  0  0  0  0
   39.1846   30.8185   43.8644 H   0  0  0  0  0  0  0  0  0  0  0  0
   41.4191   31.1729   46.3986 H   0  0  0  0  0  0  0  0  0  0  0  0
   40.8951   30.4411   44.8441 H   0  0  0  0  0  0  0  0  0  0  0  0
   41.8441   31.9663   44.8441 H   0  0  0  0  0  0  0  0  0  0  0  0
   40.1409   34.2785   45.7873 H   0  0  0  0  0  0  0  0  0  0  0  0
   40.9475   33.6312   44.3186 H   0  0  0  0  0  0  0  0  0  0  0  0
   39.1735   33.9130   44.3186 H   0  0  0  0  0  0  0  0  0  0  0  0
  2  1  2  0
  3  2  1  0
  4  3  2  0
  4  5  1  0
  5  6  2  0
  6  1  1  0
  7  8  2  0
  7  3  1  0
  9  8  1  0
 10 11  2  0
 10  9  1  0
 11  7  1  0
 12 10  1  0
 13 12  1  0
 14 12  1  0
 15 12  1  0
  1 16  1  0
  2 17  1  0
  5 18  1  0
 13 19  1  0
 13 20  1  0
 13 21  1  0
 14 22  1  0
 14 23  1  0
 14 24  1  0
 15 25  1  0
 15 26  1  0
 15 27  1  0
M  ISO  8  16  14  17  14  18  14  19   8  20   8  21   8  22   8  23   8
M  ISO  4  24   8  25   8  26   8  27   8
M  END
>  <minimizedAffinity>  (1) 
-5.40528297

>  <minimizedRMSD>  (1) 
0.923071325

$$$$
