
     RDKit          3D

 18 19  0  0  0  0  0  0  0  0999 V2000
   37.1240   29.8680   51.2550 C   0  0  0  0  0  0  0  0  0  0  0  0
   37.9110   30.8620   50.6310 C   0  0  0  0  0  0  0  0  0  0  0  0
   37.7700   30.9680   49.2390 C   0  0  0  0  0  0  0  0  0  0  0  0
   36.9150   30.1360   48.5910 N   0  0  0  0  0  0  0  0  0  0  0  0
   36.1880   29.2040   49.2410 C   0  0  0  0  0  0  0  0  0  0  0  0
   36.2900   29.0670   50.5750 N   0  0  0  0  0  0  0  0  0  0  0  0
   38.5290   31.9540   48.4750 C   0  0  0  0  0  0  0  0  0  0  0  0
   38.9570   33.1970   48.7560 N   0  0  0  0  0  0  0  0  0  0  0  0
   39.6000   33.7000   47.7670 O   0  0  0  0  0  0  0  0  0  0  0  0
   39.6160   32.8030   46.8090 C   0  0  0  0  0  0  0  0  0  0  0  0
   38.9500   31.6770   47.2050 N   0  0  0  0  0  0  0  0  0  0  0  0
   40.2220   32.8420   45.4310 C   0  0  0  0  0  0  0  0  0  0  0  0
   39.5070   32.0170   44.5670 F   0  0  0  0  0  0  0  0  0  0  0  0
   41.5050   32.3760   45.4480 F   0  0  0  0  0  0  0  0  0  0  0  0
   40.0790   34.1180   44.9750 F   0  0  0  0  0  0  0  0  0  0  0  0
   37.1985   29.7457   52.3456 H   0  0  0  0  0  0  0  0  0  0  0  0
   38.5915   31.5119   51.2008 H   0  0  0  0  0  0  0  0  0  0  0  0
   35.5066   28.5512   48.6757 H   0  0  0  0  0  0  0  0  0  0  0  0
  2  1  2  0
  3  2  1  0
  4  3  2  0
  4  5  1  0
  5  6  2  0
  6  1  1  0
  7  8  2  0
  7  3  1  0
  9  8  1  0
 10 11  2  0
 10  9  1  0
 11  7  1  0
 12 14  1  0
 12 10  1  0
 13 12  1  0
 15 12  1  0
  1 16  1  0
  2 17  1  0
  5 18  1  0
M  ISO  3  16  14  17  14  18  14
M  END
>  <minimizedAffinity>  (1) 
-5.34668827

>  <minimizedRMSD>  (1) 
1.06843078

$$$$
