
     RDKit          3D

 22 24  0  0  0  0  0  0  0  0999 V2000
   38.4040   31.5110   48.1620 C   0  0  0  0  0  0  0  0  0  0  0  0
   39.0280   32.7080   48.1670 N   0  0  0  0  0  0  0  0  0  0  0  0
   39.4740   33.0050   46.9980 O   0  0  0  0  0  0  0  0  0  0  0  0
   39.1550   32.0080   46.1890 C   0  0  0  0  0  0  0  0  0  0  0  0
   38.4900   31.0710   46.8940 N   0  0  0  0  0  0  0  0  0  0  0  0
   37.3310   30.1320   51.4830 C   0  0  0  0  0  0  0  0  0  0  0  0
   38.0180   30.9190   50.5590 C   0  0  0  0  0  0  0  0  0  0  0  0
   37.7430   30.7410   49.2010 C   0  0  0  0  0  0  0  0  0  0  0  0
   36.8200   29.8110   48.8350 N   0  0  0  0  0  0  0  0  0  0  0  0
   36.1740   29.0650   49.7740 C   0  0  0  0  0  0  0  0  0  0  0  0
   36.4230   29.2190   51.0880 N   0  0  0  0  0  0  0  0  0  0  0  0
   39.4720   31.9360   44.7660 C   0  0  0  0  0  0  0  0  0  0  0  0
   40.2710   30.9640   44.1540 C   0  0  0  0  0  0  0  0  0  0  0  0
   40.2860   31.3020   42.8020 C   0  0  0  0  0  0  0  0  0  0  0  0
   39.5140   32.4360   42.6530 C   0  0  0  0  0  0  0  0  0  0  0  0
   39.0600   32.7650   43.8400 O   0  0  0  0  0  0  0  0  0  0  0  0
   37.5349   30.2596   52.5564 H   0  0  0  0  0  0  0  0  0  0  0  0
   38.7582   31.6617   50.8914 H   0  0  0  0  0  0  0  0  0  0  0  0
   35.4320   28.3198   49.4513 H   0  0  0  0  0  0  0  0  0  0  0  0
   40.7783   30.1154   44.6363 H   0  0  0  0  0  0  0  0  0  0  0  0
   40.8154   30.7642   42.0016 H   0  0  0  0  0  0  0  0  0  0  0  0
   39.3151   32.9677   41.7108 H   0  0  0  0  0  0  0  0  0  0  0  0
  1  2  2  0
  1  8  1  0
  3  2  1  0
  4  5  2  0
  4  3  1  0
  5  1  1  0
  7  6  2  0
  8  7  1  0
  9  8  2  0
  9 10  1  0
 10 11  2  0
 11  6  1  0
 12  4  1  0
 13 12  2  0
 14 13  1  0
 15 14  2  0
 15 16  1  0
 16 12  1  0
  6 17  1  0
  7 18  1  0
 10 19  1  0
 13 20  1  0
 14 21  1  0
 15 22  1  0
M  ISO  6  17  14  18  14  19  14  20  14  21  14  22  14
M  END
>  <minimizedAffinity>  (1) 
-5.26061726

>  <minimizedRMSD>  (1) 
0.466853768

$$$$
