
     RDKit          3D

 38 39  0  0  0  0  0  0  0  0999 V2000
   39.0780   32.1580   45.9590 C   0  0  0  0  0  0  0  0  0  0  0  0
   38.2420   33.0340   49.5770 C   0  0  0  0  0  0  0  0  0  0  0  0
   38.8880   33.0800   48.3280 C   0  0  0  0  0  0  0  0  0  0  0  0
   38.4780   32.2090   47.3200 C   0  0  0  0  0  0  0  0  0  0  0  0
   37.4470   31.3460   47.6290 N   0  0  0  0  0  0  0  0  0  0  0  0
   36.8540   31.3240   48.8220 C   0  0  0  0  0  0  0  0  0  0  0  0
   37.2340   32.1510   49.7960 N   0  0  0  0  0  0  0  0  0  0  0  0
   39.6050   30.7190   45.8000 C   0  0  0  0  0  0  0  0  0  0  0  0
   40.2190   33.0750   45.7860 C   0  0  0  0  0  0  0  0  0  0  0  0
   37.9830   32.3650   44.9850 C   0  0  0  0  0  0  0  0  0  0  0  0
   37.7730   31.4110   43.8860 C   0  0  0  0  0  0  0  0  0  0  0  0
   37.5980   32.2630   42.6150 C   0  0  0  0  0  0  0  0  0  0  0  0
   38.8920   32.7960   42.0850 C   0  0  0  0  0  0  0  0  0  0  0  0
   39.9260   31.7260   41.8100 C   0  0  0  0  0  0  0  0  0  0  0  0
   39.2060   30.4020   42.0740 C   0  0  0  0  0  0  0  0  0  0  0  0
   38.8730   30.4520   43.5740 C   0  0  0  0  0  0  0  0  0  0  0  0
   38.5552   33.7170   50.3804 H   0  0  0  0  0  0  0  0  0  0  0  0
   39.7057   33.7938   48.1494 H   0  0  0  0  0  0  0  0  0  0  0  0
   36.0368   30.6111   49.0063 H   0  0  0  0  0  0  0  0  0  0  0  0
   39.7672   30.2760   46.7937 H   0  0  0  0  0  0  0  0  0  0  0  0
   38.8687   30.1179   45.2464 H   0  0  0  0  0  0  0  0  0  0  0  0
   40.5554   30.7356   45.2464 H   0  0  0  0  0  0  0  0  0  0  0  0
   40.5977   33.3794   46.7729 H   0  0  0  0  0  0  0  0  0  0  0  0
   41.0180   32.5649   45.2280 H   0  0  0  0  0  0  0  0  0  0  0  0
   39.8928   33.9651   45.2280 H   0  0  0  0  0  0  0  0  0  0  0  0
   37.0475   32.3911   45.5630 H   0  0  0  0  0  0  0  0  0  0  0  0
   38.2873   33.2833   44.4614 H   0  0  0  0  0  0  0  0  0  0  0  0
   36.9226   30.7902   44.2044 H   0  0  0  0  0  0  0  0  0  0  0  0
   37.1306   31.6407   41.8376 H   0  0  0  0  0  0  0  0  0  0  0  0
   36.9713   33.1267   42.8818 H   0  0  0  0  0  0  0  0  0  0  0  0
   38.6881   33.3309   41.1457 H   0  0  0  0  0  0  0  0  0  0  0  0
   39.3099   33.4535   42.8616 H   0  0  0  0  0  0  0  0  0  0  0  0
   40.7877   31.8386   42.4844 H   0  0  0  0  0  0  0  0  0  0  0  0
   40.3189   31.7852   40.7843 H   0  0  0  0  0  0  0  0  0  0  0  0
   38.2882   30.3293   41.4720 H   0  0  0  0  0  0  0  0  0  0  0  0
   39.8163   29.5273   41.8049 H   0  0  0  0  0  0  0  0  0  0  0  0
   38.5675   29.4471   43.9007 H   0  0  0  0  0  0  0  0  0  0  0  0
   39.7740   30.7945   44.1040 H   0  0  0  0  0  0  0  0  0  0  0  0
  1  4  1  0
  2  7  2  0
  3  2  1  0
  4  5  1  0
  4  3  2  0
  5  6  2  0
  6  7  1  0
  8  1  1  0
  9  1  1  0
 10  1  1  0
 11 10  1  0
 12 11  1  0
 13 12  1  0
 14 15  1  0
 14 13  1  0
 15 16  1  0
 16 11  1  0
  2 17  1  0
  3 18  1  0
  6 19  1  0
  8 20  1  0
  8 21  1  0
  8 22  1  0
  9 23  1  0
  9 24  1  0
  9 25  1  0
 10 26  1  0
 10 27  1  0
 11 28  1  0
 12 29  1  0
 12 30  1  0
 13 31  1  0
 13 32  1  0
 14 33  1  0
 14 34  1  0
 15 35  1  0
 15 36  1  0
 16 37  1  0
 16 38  1  0
M  ISO  8  17  14  18  14  19  14  20   8  21   8  22   8  23   8  24   8
M  ISO  8  25   8  26   8  27   8  28  13  29  13  30  13  31  13  32  13
M  ISO  6  33  13  34  13  35  13  36  13  37  13  38  13
M  END
>  <minimizedAffinity>  (1) 
-4.62550735

>  <minimizedRMSD>  (1) 
1.58881021

$$$$
