
     RDKit          3D

 35 38  0  0  0  0  0  0  0  0999 V2000
   37.8240   32.7170   49.7620 C   0  0  0  0  0  0  0  0  0  0  0  0
   38.6710   32.9790   48.6670 C   0  0  0  0  0  0  0  0  0  0  0  0
   38.4540   32.2340   47.5160 C   0  0  0  0  0  0  0  0  0  0  0  0
   37.4660   31.3110   47.4970 N   0  0  0  0  0  0  0  0  0  0  0  0
   36.6710   31.0830   48.5660 C   0  0  0  0  0  0  0  0  0  0  0  0
   36.8490   31.7870   49.7010 N   0  0  0  0  0  0  0  0  0  0  0  0
   35.6590   30.0910   48.4470 N   0  0  0  0  0  0  0  0  0  0  0  0
   34.7140   30.0910   47.4850 C   0  0  0  0  0  0  0  0  0  0  0  0
   33.7640   29.0910   47.4370 C   0  0  0  0  0  0  0  0  0  0  0  0
   32.7170   29.0920   46.3680 C   0  0  0  0  0  0  0  0  0  0  0  0
   33.7730   28.0850   48.3720 C   0  0  0  0  0  0  0  0  0  0  0  0
   32.9180   27.1610   48.3500 O   0  0  0  0  0  0  0  0  0  0  0  0
   34.7080   28.0680   49.3390 N   0  0  0  0  0  0  0  0  0  0  0  0
   35.5940   29.0760   49.3150 C   0  0  0  0  0  0  0  0  0  0  0  0
   36.4740   29.0560   50.2300 O   0  0  0  0  0  0  0  0  0  0  0  0
   39.2720   32.4150   46.3050 C   0  0  0  0  0  0  0  0  0  0  0  0
   40.1850   33.3330   45.9470 N   0  0  0  0  0  0  0  0  0  0  0  0
   40.6430   33.0640   44.7540 O   0  0  0  0  0  0  0  0  0  0  0  0
   40.0430   31.9860   44.3300 C   0  0  0  0  0  0  0  0  0  0  0  0
   39.1630   31.5260   45.2660 N   0  0  0  0  0  0  0  0  0  0  0  0
   40.2260   31.3200   43.0740 N   0  0  0  0  0  0  0  0  0  0  0  0
   39.8470   31.8640   41.9150 N   0  0  0  0  0  0  0  0  0  0  0  0
   40.1460   31.0130   40.9170 C   0  0  0  0  0  0  0  0  0  0  0  0
   40.7360   29.8990   41.5000 C   0  0  0  0  0  0  0  0  0  0  0  0
   40.7840   30.1010   42.8810 C   0  0  0  0  0  0  0  0  0  0  0  0
   37.9617   33.2869   50.6927 H   0  0  0  0  0  0  0  0  0  0  0  0
   39.4659   33.7374   48.7216 H   0  0  0  0  0  0  0  0  0  0  0  0
   34.7002   30.8938   46.7331 H   0  0  0  0  0  0  0  0  0  0  0  0
   31.7195   29.0930   46.8317 H   0  0  0  0  0  0  0  0  0  0  0  0
   32.8318   29.9900   45.7432 H   0  0  0  0  0  0  0  0  0  0  0  0
   32.8300   28.1937   45.7432 H   0  0  0  0  0  0  0  0  0  0  0  0
   34.7419   27.3271   50.0538 H   0  0  0  0  0  0  0  0  0  0  0  0
   39.9590   31.1695   39.8444 H   0  0  0  0  0  0  0  0  0  0  0  0
   41.1026   29.0101   40.9657 H   0  0  0  0  0  0  0  0  0  0  0  0
   41.1867   29.4194   43.6447 H   0  0  0  0  0  0  0  0  0  0  0  0
  2  1  2  0
  3  2  1  0
  4  3  2  0
  4  5  1  0
  5  6  2  0
  6  1  1  0
  7  5  1  0
  7 14  1  0
  8  7  1  0
  9  8  2  0
  9 11  1  0
 10  9  1  0
 11 13  1  0
 12 11  2  0
 14 13  1  0
 14 15  2  0
 16  3  1  0
 17 16  2  0
 18 17  1  0
 19 18  1  0
 19 20  2  0
 20 16  1  0
 21 19  1  0
 22 21  1  0
 23 24  1  0
 23 22  2  0
 24 25  2  0
 25 21  1  0
  1 26  1  0
  2 27  1  0
  8 28  1  0
 10 29  1  0
 10 30  1  0
 10 31  1  0
 13 32  1  0
 23 33  1  0
 24 34  1  0
 25 35  1  0
M  ISO  8  26  14  27  14  28  14  29   8  30   8  31   8  32   9  33  14
M  ISO  2  34  14  35  14
M  END
>  <minimizedAffinity>  (1) 
-7.64097166

>  <minimizedRMSD>  (1) 
2.27925324

$$$$
