
     RDKit          3D

 32 35  0  0  0  0  0  0  0  0999 V2000
   37.8300   32.8800   49.6640 C   0  0  0  0  0  0  0  0  0  0  0  0
   38.6410   33.1110   48.5470 C   0  0  0  0  0  0  0  0  0  0  0  0
   38.4970   32.2640   47.4430 C   0  0  0  0  0  0  0  0  0  0  0  0
   37.5780   31.2470   47.4910 N   0  0  0  0  0  0  0  0  0  0  0  0
   36.8160   31.0680   48.6010 C   0  0  0  0  0  0  0  0  0  0  0  0
   36.9350   31.8710   49.6810 N   0  0  0  0  0  0  0  0  0  0  0  0
   35.8490   30.0190   48.6870 N   0  0  0  0  0  0  0  0  0  0  0  0
   34.8970   30.1730   47.7290 C   0  0  0  0  0  0  0  0  0  0  0  0
   33.8430   29.2780   47.6060 C   0  0  0  0  0  0  0  0  0  0  0  0
   33.8250   28.2260   48.5180 C   0  0  0  0  0  0  0  0  0  0  0  0
   32.8910   27.3880   48.4480 O   0  0  0  0  0  0  0  0  0  0  0  0
   34.7820   28.1070   49.4500 N   0  0  0  0  0  0  0  0  0  0  0  0
   35.7880   28.9970   49.5350 C   0  0  0  0  0  0  0  0  0  0  0  0
   36.7350   28.9790   50.3710 O   0  0  0  0  0  0  0  0  0  0  0  0
   39.2850   32.4090   46.2270 C   0  0  0  0  0  0  0  0  0  0  0  0
   40.1980   33.3500   45.8600 N   0  0  0  0  0  0  0  0  0  0  0  0
   40.6550   33.0760   44.6690 O   0  0  0  0  0  0  0  0  0  0  0  0
   40.0630   31.9870   44.2600 C   0  0  0  0  0  0  0  0  0  0  0  0
   39.1870   31.5240   45.2090 N   0  0  0  0  0  0  0  0  0  0  0  0
   40.2410   31.2950   43.0090 N   0  0  0  0  0  0  0  0  0  0  0  0
   39.8580   31.8540   41.8480 N   0  0  0  0  0  0  0  0  0  0  0  0
   40.1390   30.9950   40.8420 C   0  0  0  0  0  0  0  0  0  0  0  0
   40.7180   29.8660   41.4540 C   0  0  0  0  0  0  0  0  0  0  0  0
   40.7700   30.0850   42.8180 C   0  0  0  0  0  0  0  0  0  0  0  0
   37.9242   33.5332   50.5441 H   0  0  0  0  0  0  0  0  0  0  0  0
   39.3703   33.9344   48.5375 H   0  0  0  0  0  0  0  0  0  0  0  0
   34.9632   31.0250   47.0364 H   0  0  0  0  0  0  0  0  0  0  0  0
   33.0680   29.3931   46.8339 H   0  0  0  0  0  0  0  0  0  0  0  0
   34.7464   27.3197   50.1132 H   0  0  0  0  0  0  0  0  0  0  0  0
   39.9538   31.1465   39.7683 H   0  0  0  0  0  0  0  0  0  0  0  0
   41.0695   28.9625   40.9342 H   0  0  0  0  0  0  0  0  0  0  0  0
   41.1652   29.4037   43.5859 H   0  0  0  0  0  0  0  0  0  0  0  0
  1  6  2  0
  2  1  1  0
  3  4  1  0
  3  2  2  0
  4  5  2  0
  5  7  1  0
  5  6  1  0
  7 13  1  0
  8  7  1  0
  9  8  2  0
  9 10  1  0
 10 12  1  0
 11 10  2  0
 12 13  1  0
 13 14  2  0
 15  3  1  0
 16 15  2  0
 17 16  1  0
 18 17  1  0
 18 19  2  0
 19 15  1  0
 20 18  1  0
 21 20  1  0
 22 23  1  0
 22 21  2  0
 23 24  2  0
 24 20  1  0
  1 25  1  0
  2 26  1  0
  8 27  1  0
  9 28  1  0
 12 29  1  0
 22 30  1  0
 23 31  1  0
 24 32  1  0
M  ISO  8  25  14  26  14  27  14  28  14  29   9  30  14  31  14  32  14
M  END
>  <minimizedAffinity>  (1) 
-7.51781082

>  <minimizedRMSD>  (1) 
2.34957457

$$$$
