
     RDKit          3D

 38 42  0  0  0  0  0  0  0  0999 V2000
   37.2510   30.2260   51.1770 C   0  0  0  0  0  0  0  0  0  0  0  0
   38.0730   30.9440   50.3070 C   0  0  0  0  0  0  0  0  0  0  0  0
   37.6730   31.0110   48.9840 C   0  0  0  0  0  0  0  0  0  0  0  0
   36.5320   30.3880   48.6220 N   0  0  0  0  0  0  0  0  0  0  0  0
   35.7560   29.7000   49.4820 C   0  0  0  0  0  0  0  0  0  0  0  0
   36.1310   29.6260   50.7710 N   0  0  0  0  0  0  0  0  0  0  0  0
   38.4380   31.7310   47.9570 C   0  0  0  0  0  0  0  0  0  0  0  0
   39.1990   32.8500   48.0120 N   0  0  0  0  0  0  0  0  0  0  0  0
   39.6810   33.1010   46.8250 O   0  0  0  0  0  0  0  0  0  0  0  0
   39.2520   32.1740   46.0030 C   0  0  0  0  0  0  0  0  0  0  0  0
   38.4570   31.2760   46.6610 N   0  0  0  0  0  0  0  0  0  0  0  0
   39.5320   32.0580   44.6080 N   0  0  0  0  0  0  0  0  0  0  0  0
   39.0950   32.9180   43.7000 N   0  0  0  0  0  0  0  0  0  0  0  0
   39.5050   32.5670   42.4770 C   0  0  0  0  0  0  0  0  0  0  0  0
   40.2450   31.4080   42.6620 C   0  0  0  0  0  0  0  0  0  0  0  0
   40.2640   31.0810   44.0180 C   0  0  0  0  0  0  0  0  0  0  0  0
   34.5800   29.1380   48.8050 C   0  0  0  0  0  0  0  0  0  0  0  0
   33.6110   28.4480   49.5000 C   0  0  0  0  0  0  0  0  0  0  0  0
   32.4920   27.9020   48.9270 C   0  0  0  0  0  0  0  0  0  0  0  0
   32.2730   28.0170   47.5870 C   0  0  0  0  0  0  0  0  0  0  0  0
   33.2060   28.6950   46.8460 C   0  0  0  0  0  0  0  0  0  0  0  0
   32.9930   28.8210   45.4900 C   0  0  0  0  0  0  0  0  0  0  0  0
   33.8910   29.4930   44.6850 C   0  0  0  0  0  0  0  0  0  0  0  0
   35.0210   30.0390   45.3040 C   0  0  0  0  0  0  0  0  0  0  0  0
   35.1810   29.8820   46.6620 C   0  0  0  0  0  0  0  0  0  0  0  0
   34.3000   29.2170   47.4760 C   0  0  0  0  0  0  0  0  0  0  0  0
   37.5373   30.1522   52.2365 H   0  0  0  0  0  0  0  0  0  0  0  0
   38.9944   31.4330   50.6562 H   0  0  0  0  0  0  0  0  0  0  0  0
   39.2999   33.0852   41.5286 H   0  0  0  0  0  0  0  0  0  0  0  0
   40.7399   30.8358   41.8634 H   0  0  0  0  0  0  0  0  0  0  0  0
   40.7600   30.2252   44.4992 H   0  0  0  0  0  0  0  0  0  0  0  0
   33.7440   28.3275   50.5853 H   0  0  0  0  0  0  0  0  0  0  0  0
   31.7644   27.3663   49.5543 H   0  0  0  0  0  0  0  0  0  0  0  0
   31.3792   27.5812   47.1165 H   0  0  0  0  0  0  0  0  0  0  0  0
   32.0915   28.3783   45.0413 H   0  0  0  0  0  0  0  0  0  0  0  0
   33.7252   29.5950   43.6024 H   0  0  0  0  0  0  0  0  0  0  0  0
   35.7708   30.5860   44.7136 H   0  0  0  0  0  0  0  0  0  0  0  0
   36.0769   30.3199   47.1263 H   0  0  0  0  0  0  0  0  0  0  0  0
  2  1  2  0
  3  2  1  0
  4  3  2  0
  4  5  1  0
  5  6  2  0
  6  1  1  0
  7  8  2  0
  7  3  1  0
  9  8  1  0
 10 11  2  0
 10  9  1  0
 11  7  1  0
 12 10  1  0
 13 12  1  0
 14 15  1  0
 14 13  2  0
 15 16  2  0
 16 12  1  0
 17  5  1  0
 17 18  2  0
 19 18  1  0
 20 19  2  0
 21 26  2  0
 21 20  1  0
 22 21  1  0
 23 24  1  0
 23 22  2  0
 24 25  2  0
 25 26  1  0
 26 17  1  0
  1 27  1  0
  2 28  1  0
 14 29  1  0
 15 30  1  0
 16 31  1  0
 18 32  1  0
 19 33  1  0
 20 34  1  0
 22 35  1  0
 23 36  1  0
 24 37  1  0
 25 38  1  0
M  ISO  8  27  14  28  14  29  14  30  14  31  14  32  14  33  14  34  14
M  ISO  4  35  14  36  14  37  14  38  14
M  END
>  <minimizedAffinity>  (1) 
-7.38789892

>  <minimizedRMSD>  (1) 
0.917295754

$$$$
