
     RDKit          3D

 36 40  0  0  0  0  0  0  0  0999 V2000
   38.0770   33.0530   49.6550 C   0  0  0  0  0  0  0  0  0  0  0  0
   38.8860   33.2430   48.5370 C   0  0  0  0  0  0  0  0  0  0  0  0
   38.6840   32.3900   47.4640 C   0  0  0  0  0  0  0  0  0  0  0  0
   37.7350   31.4450   47.5630 N   0  0  0  0  0  0  0  0  0  0  0  0
   36.9560   31.2640   48.6410 C   0  0  0  0  0  0  0  0  0  0  0  0
   37.1440   32.0980   49.7060 N   0  0  0  0  0  0  0  0  0  0  0  0
   39.4490   32.4760   46.2190 C   0  0  0  0  0  0  0  0  0  0  0  0
   40.4110   33.3550   45.8060 N   0  0  0  0  0  0  0  0  0  0  0  0
   40.8070   33.0320   44.6100 O   0  0  0  0  0  0  0  0  0  0  0  0
   40.1380   31.9770   44.2330 C   0  0  0  0  0  0  0  0  0  0  0  0
   39.2740   31.5910   45.2100 N   0  0  0  0  0  0  0  0  0  0  0  0
   40.2490   31.2780   42.9870 N   0  0  0  0  0  0  0  0  0  0  0  0
   39.8770   31.8130   41.8240 N   0  0  0  0  0  0  0  0  0  0  0  0
   40.0960   30.9360   40.8400 C   0  0  0  0  0  0  0  0  0  0  0  0
   40.6290   29.8040   41.4390 C   0  0  0  0  0  0  0  0  0  0  0  0
   40.7280   30.0240   42.8150 C   0  0  0  0  0  0  0  0  0  0  0  0
   35.9060   30.2860   48.8550 C   0  0  0  0  0  0  0  0  0  0  0  0
   35.6090   29.8230   50.0800 N   0  0  0  0  0  0  0  0  0  0  0  0
   34.6670   28.9300   50.3710 C   0  0  0  0  0  0  0  0  0  0  0  0
   33.8920   28.3920   49.3850 N   0  0  0  0  0  0  0  0  0  0  0  0
   34.1080   28.7930   48.0990 C   0  0  0  0  0  0  0  0  0  0  0  0
   33.3390   28.2650   47.0870 C   0  0  0  0  0  0  0  0  0  0  0  0
   33.5320   28.6480   45.7800 C   0  0  0  0  0  0  0  0  0  0  0  0
   34.5350   29.5870   45.5430 C   0  0  0  0  0  0  0  0  0  0  0  0
   35.2750   30.0820   46.5930 C   0  0  0  0  0  0  0  0  0  0  0  0
   35.1030   29.7190   47.8950 C   0  0  0  0  0  0  0  0  0  0  0  0
   38.2109   33.7118   50.5257 H   0  0  0  0  0  0  0  0  0  0  0  0
   39.6500   34.0338   48.5074 H   0  0  0  0  0  0  0  0  0  0  0  0
   39.8940   31.0824   39.7687 H   0  0  0  0  0  0  0  0  0  0  0  0
   40.9255   28.8830   40.9157 H   0  0  0  0  0  0  0  0  0  0  0  0
   41.1085   29.3350   43.5835 H   0  0  0  0  0  0  0  0  0  0  0  0
   34.5114   28.6225   51.4156 H   0  0  0  0  0  0  0  0  0  0  0  0
   32.5595   27.5268   47.3266 H   0  0  0  0  0  0  0  0  0  0  0  0
   32.9247   28.2337   44.9618 H   0  0  0  0  0  0  0  0  0  0  0  0
   34.7349   29.9320   44.5178 H   0  0  0  0  0  0  0  0  0  0  0  0
   36.0580   30.8204   46.3655 H   0  0  0  0  0  0  0  0  0  0  0  0
  1  6  2  0
  2  1  1  0
  3  4  1  0
  3  2  2  0
  4  5  2  0
  5 17  1  0
  5  6  1  0
  7  3  1  0
  8  7  2  0
  9  8  1  0
 10  9  1  0
 10 11  2  0
 11  7  1  0
 12 10  1  0
 13 12  1  0
 14 15  1  0
 14 13  2  0
 15 16  2  0
 16 12  1  0
 17 18  2  0
 18 19  1  0
 20 19  2  0
 21 20  1  0
 22 21  2  0
 23 22  1  0
 24 23  2  0
 24 25  1  0
 25 26  2  0
 26 21  1  0
 26 17  1  0
  1 27  1  0
  2 28  1  0
 14 29  1  0
 15 30  1  0
 16 31  1  0
 19 32  1  0
 22 33  1  0
 23 34  1  0
 24 35  1  0
 25 36  1  0
M  ISO  8  27  14  28  14  29  14  30  14  31  14  32  14  33  14  34  14
M  ISO  2  35  14  36  14
M  END
>  <minimizedAffinity>  (1) 
-7.28067064

>  <minimizedRMSD>  (1) 
3.0015254

$$$$
