
     RDKit          3D

 25 26  0  0  0  0  0  0  0  0999 V2000
   37.3370   30.4340   51.0900 C   0  0  0  0  0  0  0  0  0  0  0  0
   38.3170   31.0290   50.2640 C   0  0  0  0  0  0  0  0  0  0  0  0
   38.0780   31.0690   48.8870 C   0  0  0  0  0  0  0  0  0  0  0  0
   36.9190   30.5330   48.4250 N   0  0  0  0  0  0  0  0  0  0  0  0
   35.9980   29.9690   49.2330 C   0  0  0  0  0  0  0  0  0  0  0  0
   36.2040   29.9200   50.5540 N   0  0  0  0  0  0  0  0  0  0  0  0
   34.7870   29.4160   48.6950 N   0  0  0  0  0  0  0  0  0  0  0  0
   34.2910   28.1200   49.1320 C   0  0  0  0  0  0  0  0  0  0  0  0
   33.5690   27.3640   48.0520 C   0  0  0  0  0  0  0  0  0  0  0  0
   33.9710   27.9450   46.7140 C   0  0  0  0  0  0  0  0  0  0  0  0
   33.3900   29.3380   46.6660 C   0  0  0  0  0  0  0  0  0  0  0  0
   34.0600   30.1880   47.6940 C   0  0  0  0  0  0  0  0  0  0  0  0
   37.4955   30.3878   52.1775 H   0  0  0  0  0  0  0  0  0  0  0  0
   39.2399   31.4480   50.6914 H   0  0  0  0  0  0  0  0  0  0  0  0
   38.8070   31.5211   48.1985 H   0  0  0  0  0  0  0  0  0  0  0  0
   35.1454   27.5152   49.4699 H   0  0  0  0  0  0  0  0  0  0  0  0
   33.5675   28.3039   49.9399 H   0  0  0  0  0  0  0  0  0  0  0  0
   33.8462   26.3003   48.0938 H   0  0  0  0  0  0  0  0  0  0  0  0
   32.4813   27.4512   48.1912 H   0  0  0  0  0  0  0  0  0  0  0  0
   35.0670   27.9862   46.6303 H   0  0  0  0  0  0  0  0  0  0  0  0
   33.6004   27.3280   45.8822 H   0  0  0  0  0  0  0  0  0  0  0  0
   33.5542   29.7704   45.6680 H   0  0  0  0  0  0  0  0  0  0  0  0
   32.3102   29.2940   46.8712 H   0  0  0  0  0  0  0  0  0  0  0  0
   34.7699   30.8569   47.1854 H   0  0  0  0  0  0  0  0  0  0  0  0
   33.2713   30.7449   48.2211 H   0  0  0  0  0  0  0  0  0  0  0  0
  2  1  2  0
  3  2  1  0
  4  3  2  0
  4  5  1  0
  5  6  2  0
  6  1  1  0
  7  8  1  0
  7  5  1  0
  9  8  1  0
 10  9  1  0
 11 10  1  0
 11 12  1  0
 12  7  1  0
  1 13  1  0
  2 14  1  0
  3 15  1  0
  8 16  1  0
  8 17  1  0
  9 18  1  0
  9 19  1  0
 10 20  1  0
 10 21  1  0
 11 22  1  0
 11 23  1  0
 12 24  1  0
 12 25  1  0
M  ISO  8  13  14  14  14  15  14  16  13  17  13  18  13  19  13  20  13
M  ISO  5  21  13  22  13  23  13  24  13  25  13
M  END
>  <minimizedAffinity>  (1) 
-4.25638294

>  <minimizedRMSD>  (1) 
1.52031696

$$$$
