
     RDKit          3D

 31 33  0  0  0  0  0  0  0  0999 V2000
   38.4150   31.6110   48.1870 C   0  0  0  0  0  0  0  0  0  0  0  0
   39.0520   32.7950   48.2000 N   0  0  0  0  0  0  0  0  0  0  0  0
   39.5210   33.0520   47.0120 O   0  0  0  0  0  0  0  0  0  0  0  0
   39.2020   32.0530   46.2210 C   0  0  0  0  0  0  0  0  0  0  0  0
   38.5070   31.1260   46.9220 N   0  0  0  0  0  0  0  0  0  0  0  0
   39.5140   31.9130   44.8290 N   0  0  0  0  0  0  0  0  0  0  0  0
   39.0090   32.7240   43.9120 N   0  0  0  0  0  0  0  0  0  0  0  0
   39.4720   32.3610   42.6980 C   0  0  0  0  0  0  0  0  0  0  0  0
   40.3030   31.2680   42.9110 C   0  0  0  0  0  0  0  0  0  0  0  0
   40.3110   31.0080   44.2610 C   0  0  0  0  0  0  0  0  0  0  0  0
   37.3820   30.1240   51.4810 C   0  0  0  0  0  0  0  0  0  0  0  0
   38.0980   30.8820   50.5550 C   0  0  0  0  0  0  0  0  0  0  0  0
   37.7130   30.8420   49.2210 C   0  0  0  0  0  0  0  0  0  0  0  0
   36.6420   30.0620   48.8550 N   0  0  0  0  0  0  0  0  0  0  0  0
   35.9850   29.3510   49.7870 C   0  0  0  0  0  0  0  0  0  0  0  0
   36.3310   29.3650   51.0910 N   0  0  0  0  0  0  0  0  0  0  0  0
   34.8350   28.5220   49.3460 C   0  0  0  0  0  0  0  0  0  0  0  0
   34.6390   28.5880   47.8660 C   0  0  0  0  0  0  0  0  0  0  0  0
   33.6160   29.0050   50.1230 C   0  0  0  0  0  0  0  0  0  0  0  0
   39.2385   32.8351   41.7333 H   0  0  0  0  0  0  0  0  0  0  0  0
   40.8547   30.7114   42.1391 H   0  0  0  0  0  0  0  0  0  0  0  0
   40.8669   30.2087   44.7728 H   0  0  0  0  0  0  0  0  0  0  0  0
   37.6747   30.1430   52.5412 H   0  0  0  0  0  0  0  0  0  0  0  0
   38.9506   31.4992   50.8746 H   0  0  0  0  0  0  0  0  0  0  0  0
   35.0160   27.4580   49.5584 H   0  0  0  0  0  0  0  0  0  0  0  0
   33.6175   28.9320   47.6464 H   0  0  0  0  0  0  0  0  0  0  0  0
   35.3642   29.2915   47.4311 H   0  0  0  0  0  0  0  0  0  0  0  0
   34.7910   27.5891   47.4311 H   0  0  0  0  0  0  0  0  0  0  0  0
   33.8143   28.9264   51.2021 H   0  0  0  0  0  0  0  0  0  0  0  0
   33.4078   30.0536   49.8638 H   0  0  0  0  0  0  0  0  0  0  0  0
   32.7461   28.3836   49.8638 H   0  0  0  0  0  0  0  0  0  0  0  0
  1  2  2  0
  1 13  1  0
  3  2  1  0
  4  5  2  0
  4  3  1  0
  5  1  1  0
  6  4  1  0
  7  6  1  0
  8  9  1  0
  8  7  2  0
  9 10  2  0
 10  6  1  0
 12 11  2  0
 13 12  1  0
 14 13  2  0
 14 15  1  0
 15 16  2  0
 16 11  1  0
 17 15  1  0
 17 19  1  0
 18 17  1  0
  8 20  1  0
  9 21  1  0
 10 22  1  0
 11 23  1  0
 12 24  1  0
 17 25  1  0
 18 26  1  0
 18 27  1  0
 18 28  1  0
 19 29  1  0
 19 30  1  0
 19 31  1  0
M  ISO  8  20  14  21  14  22  14  23  14  24  14  25   8  26   8  27   8
M  ISO  4  28   8  29   8  30   8  31   8
M  END
>  <minimizedAffinity>  (1) 
-6.17824697

>  <minimizedRMSD>  (1) 
0.363930762

$$$$
