
     RDKit          3D

 35 38  0  0  0  0  0  0  0  0999 V2000
   37.6630   32.7380   49.6650 C   0  0  0  0  0  0  0  0  0  0  0  0
   38.5080   33.0130   48.5680 C   0  0  0  0  0  0  0  0  0  0  0  0
   38.4120   32.1550   47.4590 C   0  0  0  0  0  0  0  0  0  0  0  0
   37.5280   31.1030   47.4660 N   0  0  0  0  0  0  0  0  0  0  0  0
   36.7520   30.9050   48.5580 C   0  0  0  0  0  0  0  0  0  0  0  0
   36.8010   31.6940   49.6490 N   0  0  0  0  0  0  0  0  0  0  0  0
   35.8510   29.8030   48.5220 N   0  0  0  0  0  0  0  0  0  0  0  0
   35.0550   29.5680   47.3310 C   0  0  0  0  0  0  0  0  0  0  0  0
   33.6120   29.5100   47.8170 C   0  0  0  0  0  0  0  0  0  0  0  0
   33.4630   28.7550   48.9690 O   0  0  0  0  0  0  0  0  0  0  0  0
   34.5680   27.9550   49.2500 C   0  0  0  0  0  0  0  0  0  0  0  0
   35.7050   28.9010   49.6500 C   0  0  0  0  0  0  0  0  0  0  0  0
   39.2470   32.3620   46.2760 C   0  0  0  0  0  0  0  0  0  0  0  0
   40.1570   33.2920   45.9460 N   0  0  0  0  0  0  0  0  0  0  0  0
   40.6370   33.0420   44.7630 O   0  0  0  0  0  0  0  0  0  0  0  0
   40.0610   31.9670   44.3080 C   0  0  0  0  0  0  0  0  0  0  0  0
   39.1740   31.4990   45.2270 N   0  0  0  0  0  0  0  0  0  0  0  0
   40.2690   31.3090   43.0480 N   0  0  0  0  0  0  0  0  0  0  0  0
   39.9200   31.8890   41.8950 N   0  0  0  0  0  0  0  0  0  0  0  0
   40.2310   31.0500   40.8840 C   0  0  0  0  0  0  0  0  0  0  0  0
   40.7920   29.9150   41.4620 C   0  0  0  0  0  0  0  0  0  0  0  0
   40.8030   30.1070   42.8270 C   0  0  0  0  0  0  0  0  0  0  0  0
   37.7059   33.3864   50.5526 H   0  0  0  0  0  0  0  0  0  0  0  0
   39.2095   33.8602   48.5807 H   0  0  0  0  0  0  0  0  0  0  0  0
   35.3408   28.6169   46.8580 H   0  0  0  0  0  0  0  0  0  0  0  0
   35.2026   30.3553   46.5771 H   0  0  0  0  0  0  0  0  0  0  0  0
   33.2687   30.5348   48.0217 H   0  0  0  0  0  0  0  0  0  0  0  0
   33.0158   29.0298   47.0271 H   0  0  0  0  0  0  0  0  0  0  0  0
   34.3379   27.2675   50.0773 H   0  0  0  0  0  0  0  0  0  0  0  0
   34.8479   27.3458   48.3779 H   0  0  0  0  0  0  0  0  0  0  0  0
   36.6352   28.3389   49.8196 H   0  0  0  0  0  0  0  0  0  0  0  0
   35.4889   29.4377   50.5856 H   0  0  0  0  0  0  0  0  0  0  0  0
   40.0717   31.2290   39.8104 H   0  0  0  0  0  0  0  0  0  0  0  0
   41.1595   29.0268   40.9272 H   0  0  0  0  0  0  0  0  0  0  0  0
   41.1790   29.4054   43.5862 H   0  0  0  0  0  0  0  0  0  0  0  0
  2  1  2  0
  3  4  2  0
  3  2  1  0
  4  5  1  0
  5  6  2  0
  6  1  1  0
  7  5  1  0
  7 12  1  0
  8  9  1  0
  8  7  1  0
  9 10  1  0
 10 11  1  0
 11 12  1  0
 13  3  1  0
 14 13  2  0
 15 14  1  0
 16 15  1  0
 16 17  2  0
 17 13  1  0
 18 16  1  0
 19 18  1  0
 20 21  1  0
 20 19  2  0
 21 22  2  0
 22 18  1  0
  1 23  1  0
  2 24  1  0
  8 25  1  0
  8 26  1  0
  9 27  1  0
  9 28  1  0
 11 29  1  0
 11 30  1  0
 12 31  1  0
 12 32  1  0
 20 33  1  0
 21 34  1  0
 22 35  1  0
M  ISO  8  23  14  24  14  25  13  26  13  27  13  28  13  29  13  30  13
M  ISO  5  31  13  32  13  33  14  34  14  35  14
M  END
>  <minimizedAffinity>  (1) 
-6.54119444

>  <minimizedRMSD>  (1) 
2.27211809

$$$$
