
     RDKit          3D

 48 52  0  0  0  0  0  0  0  0999 V2000
   38.2560   32.8200   49.5360 C   0  0  0  0  0  0  0  0  0  0  0  0
   38.9200   33.1080   48.3280 C   0  0  0  0  0  0  0  0  0  0  0  0
   38.6180   32.3100   47.2260 C   0  0  0  0  0  0  0  0  0  0  0  0
   37.7080   31.2880   47.3280 N   0  0  0  0  0  0  0  0  0  0  0  0
   37.1070   31.0690   48.5210 C   0  0  0  0  0  0  0  0  0  0  0  0
   37.3560   31.8020   49.6190 N   0  0  0  0  0  0  0  0  0  0  0  0
   36.1670   29.9920   48.5830 N   0  0  0  0  0  0  0  0  0  0  0  0
   35.1800   29.8450   47.5440 C   0  0  0  0  0  0  0  0  0  0  0  0
   33.8330   29.8270   48.2670 C   0  0  0  0  0  0  0  0  0  0  0  0
   33.8420   29.0090   49.3780 O   0  0  0  0  0  0  0  0  0  0  0  0
   34.9440   28.1640   49.4440 C   0  0  0  0  0  0  0  0  0  0  0  0
   36.1740   29.0340   49.6700 C   0  0  0  0  0  0  0  0  0  0  0  0
   39.2630   32.5350   45.9290 C   0  0  0  0  0  0  0  0  0  0  0  0
   40.5320   32.7290   45.5540 N   0  0  0  0  0  0  0  0  0  0  0  0
   40.5990   32.8820   44.2660 O   0  0  0  0  0  0  0  0  0  0  0  0
   39.3920   32.7920   43.7720 C   0  0  0  0  0  0  0  0  0  0  0  0
   38.5180   32.5730   44.7880 N   0  0  0  0  0  0  0  0  0  0  0  0
   38.9840   32.8970   42.4070 N   0  0  0  0  0  0  0  0  0  0  0  0
   39.0770   34.0690   41.7550 N   0  0  0  0  0  0  0  0  0  0  0  0
   38.6310   33.8560   40.4880 C   0  0  0  0  0  0  0  0  0  0  0  0
   38.2620   32.5070   40.3950 C   0  0  0  0  0  0  0  0  0  0  0  0
   38.5000   31.9440   41.6230 C   0  0  0  0  0  0  0  0  0  0  0  0
   38.2440   30.5780   41.9430 N   0  0  0  0  0  0  0  0  0  0  0  0
   36.9980   29.9160   42.3250 C   0  0  0  0  0  0  0  0  0  0  0  0
   37.1650   29.6450   43.8270 C   0  0  0  0  0  0  0  0  0  0  0  0
   38.5160   29.5750   44.1520 O   0  0  0  0  0  0  0  0  0  0  0  0
   39.2640   28.8630   43.2110 C   0  0  0  0  0  0  0  0  0  0  0  0
   39.3860   29.6490   41.9160 C   0  0  0  0  0  0  0  0  0  0  0  0
   38.4682   33.4280   50.4278 H   0  0  0  0  0  0  0  0  0  0  0  0
   39.6478   33.9298   48.2570 H   0  0  0  0  0  0  0  0  0  0  0  0
   35.3354   28.9044   46.9952 H   0  0  0  0  0  0  0  0  0  0  0  0
   35.2381   30.6578   46.8051 H   0  0  0  0  0  0  0  0  0  0  0  0
   33.5892   30.8515   48.5849 H   0  0  0  0  0  0  0  0  0  0  0  0
   33.0823   29.4322   47.5666 H   0  0  0  0  0  0  0  0  0  0  0  0
   34.8257   27.4567   50.2781 H   0  0  0  0  0  0  0  0  0  0  0  0
   35.0444   27.5843   48.5146 H   0  0  0  0  0  0  0  0  0  0  0  0
   37.0887   28.4238   49.6404 H   0  0  0  0  0  0  0  0  0  0  0  0
   36.1534   29.5275   50.6529 H   0  0  0  0  0  0  0  0  0  0  0  0
   38.5709   34.6046   39.6842 H   0  0  0  0  0  0  0  0  0  0  0  0
   37.8588   31.9975   39.5074 H   0  0  0  0  0  0  0  0  0  0  0  0
   36.1344   30.5717   42.1399 H   0  0  0  0  0  0  0  0  0  0  0  0
   36.8127   28.9981   41.7478 H   0  0  0  0  0  0  0  0  0  0  0  0
   36.6949   30.4591   44.3982 H   0  0  0  0  0  0  0  0  0  0  0  0
   36.6843   28.6875   44.0761 H   0  0  0  0  0  0  0  0  0  0  0  0
   40.2695   28.6757   43.6158 H   0  0  0  0  0  0  0  0  0  0  0  0
   38.7540   27.9114   43.0005 H   0  0  0  0  0  0  0  0  0  0  0  0
   39.3221   28.9786   41.0462 H   0  0  0  0  0  0  0  0  0  0  0  0
   40.3501   30.1718   41.8319 H   0  0  0  0  0  0  0  0  0  0  0  0
  1  6  2  0
  2  1  1  0
  3  4  1  0
  3  2  2  0
  4  5  2  0
  5  7  1  0
  5  6  1  0
  7 12  1  0
  8  9  1  0
  8  7  1  0
  9 10  1  0
 10 11  1  0
 11 12  1  0
 13  3  1  0
 14 13  2  0
 15 14  1  0
 16 15  1  0
 16 17  2  0
 17 13  1  0
 18 16  1  0
 19 18  1  0
 20 19  2  0
 21 20  1  0
 21 22  2  0
 22 23  1  0
 22 18  1  0
 23 24  1  0
 24 25  1  0
 25 26  1  0
 27 26  1  0
 28 23  1  0
 28 27  1  0
  1 29  1  0
  2 30  1  0
  8 31  1  0
  8 32  1  0
  9 33  1  0
  9 34  1  0
 11 35  1  0
 11 36  1  0
 12 37  1  0
 12 38  1  0
 20 39  1  0
 21 40  1  0
 24 41  1  0
 24 42  1  0
 25 43  1  0
 25 44  1  0
 27 45  1  0
 27 46  1  0
 28 47  1  0
 28 48  1  0
M  ISO  8  29  14  30  14  31  13  32  13  33  13  34  13  35  13  36  13
M  ISO  8  37  13  38  13  39  14  40  14  41  13  42  13  43  13  44  13
M  ISO  4  45  13  46  13  47  13  48  13
M  END
>  <minimizedAffinity>  (1) 
-6.78348017

>  <minimizedRMSD>  (1) 
2.2556684

$$$$
