
     RDKit          3D

 38 41  0  0  0  0  0  0  0  0999 V2000
   38.2150   32.6900   49.7210 C   0  0  0  0  0  0  0  0  0  0  0  0
   38.8740   33.1010   48.5340 C   0  0  0  0  0  0  0  0  0  0  0  0
   38.5590   32.4110   47.3510 C   0  0  0  0  0  0  0  0  0  0  0  0
   37.6420   31.3800   47.3720 N   0  0  0  0  0  0  0  0  0  0  0  0
   37.0520   31.0430   48.5450 C   0  0  0  0  0  0  0  0  0  0  0  0
   37.3200   31.6720   49.7010 N   0  0  0  0  0  0  0  0  0  0  0  0
   36.1200   29.9790   48.5110 N   0  0  0  0  0  0  0  0  0  0  0  0
   35.1260   29.9280   47.4560 C   0  0  0  0  0  0  0  0  0  0  0  0
   33.7800   29.8300   48.1720 C   0  0  0  0  0  0  0  0  0  0  0  0
   33.7950   28.9190   49.2170 O   0  0  0  0  0  0  0  0  0  0  0  0
   34.8940   28.0760   49.2020 C   0  0  0  0  0  0  0  0  0  0  0  0
   36.1310   28.9300   49.5120 C   0  0  0  0  0  0  0  0  0  0  0  0
   39.1930   32.7710   46.0850 C   0  0  0  0  0  0  0  0  0  0  0  0
   40.1810   33.6230   45.7620 N   0  0  0  0  0  0  0  0  0  0  0  0
   40.3820   33.5830   44.4810 O   0  0  0  0  0  0  0  0  0  0  0  0
   39.5580   32.7310   43.9520 C   0  0  0  0  0  0  0  0  0  0  0  0
   38.7720   32.1790   44.9270 N   0  0  0  0  0  0  0  0  0  0  0  0
   39.4160   32.3560   42.5770 N   0  0  0  0  0  0  0  0  0  0  0  0
   38.9900   33.2220   41.6620 N   0  0  0  0  0  0  0  0  0  0  0  0
   38.9510   32.6060   40.4650 C   0  0  0  0  0  0  0  0  0  0  0  0
   39.3790   31.2920   40.6720 C   0  0  0  0  0  0  0  0  0  0  0  0
   39.6600   31.1800   42.0060 C   0  0  0  0  0  0  0  0  0  0  0  0
   40.1480   29.9510   42.6780 C   0  0  0  0  0  0  0  0  0  0  0  0
   39.1960   29.4370   43.5410 F   0  0  0  0  0  0  0  0  0  0  0  0
   41.2680   30.2760   43.4150 F   0  0  0  0  0  0  0  0  0  0  0  0
   40.4260   28.9440   41.7650 F   0  0  0  0  0  0  0  0  0  0  0  0
   38.4328   33.2035   50.6691 H   0  0  0  0  0  0  0  0  0  0  0  0
   39.6017   33.9259   48.5393 H   0  0  0  0  0  0  0  0  0  0  0  0
   35.2873   29.0470   46.8173 H   0  0  0  0  0  0  0  0  0  0  0  0
   35.1782   30.8105   46.8015 H   0  0  0  0  0  0  0  0  0  0  0  0
   33.5217   30.8212   48.5729 H   0  0  0  0  0  0  0  0  0  0  0  0
   33.0379   29.4819   47.4384 H   0  0  0  0  0  0  0  0  0  0  0  0
   34.7773   27.2923   49.9650 H   0  0  0  0  0  0  0  0  0  0  0  0
   34.9952   27.5867   48.2220 H   0  0  0  0  0  0  0  0  0  0  0  0
   37.0476   28.3273   49.4311 H   0  0  0  0  0  0  0  0  0  0  0  0
   36.1101   29.3334   50.5351 H   0  0  0  0  0  0  0  0  0  0  0  0
   38.6416   33.0517   39.5081 H   0  0  0  0  0  0  0  0  0  0  0  0
   39.4717   30.5027   39.9115 H   0  0  0  0  0  0  0  0  0  0  0  0
  2  1  2  0
  3  4  2  0
  3  2  1  0
  4  5  1  0
  5  6  2  0
  6  1  1  0
  7  5  1  0
  7 12  1  0
  8  9  1  0
  8  7  1  0
  9 10  1  0
 11 10  1  0
 11 12  1  0
 13  3  1  0
 14 13  2  0
 15 14  1  0
 16 15  1  0
 16 17  2  0
 17 13  1  0
 18 16  1  0
 19 18  1  0
 20 21  1  0
 20 19  2  0
 21 22  2  0
 22 18  1  0
 22 23  1  0
 23 25  1  0
 23 24  1  0
 26 23  1  0
  1 27  1  0
  2 28  1  0
  8 29  1  0
  8 30  1  0
  9 31  1  0
  9 32  1  0
 11 33  1  0
 11 34  1  0
 12 35  1  0
 12 36  1  0
 20 37  1  0
 21 38  1  0
M  ISO  8  27  14  28  14  29  13  30  13  31  13  32  13  33  13  34  13
M  ISO  4  35  13  36  13  37  14  38  14
M  END
>  <minimizedAffinity>  (1) 
-6.61043692

>  <minimizedRMSD>  (1) 
1.23861217

$$$$
