
     RDKit          3D

 42 46  0  0  0  0  0  0  0  0999 V2000
   38.3850   32.6730   49.5570 C   0  0  0  0  0  0  0  0  0  0  0  0
   39.0080   33.0970   48.3700 C   0  0  0  0  0  0  0  0  0  0  0  0
   38.6310   32.4440   47.1880 C   0  0  0  0  0  0  0  0  0  0  0  0
   37.6890   31.4330   47.2120 N   0  0  0  0  0  0  0  0  0  0  0  0
   37.1390   31.0860   48.4020 C   0  0  0  0  0  0  0  0  0  0  0  0
   37.4640   31.6790   49.5620 N   0  0  0  0  0  0  0  0  0  0  0  0
   36.1720   30.0370   48.3790 N   0  0  0  0  0  0  0  0  0  0  0  0
   35.1410   30.0390   47.3590 C   0  0  0  0  0  0  0  0  0  0  0  0
   33.8340   29.9330   48.1300 C   0  0  0  0  0  0  0  0  0  0  0  0
   33.8660   29.0050   49.1490 O   0  0  0  0  0  0  0  0  0  0  0  0
   34.9510   28.1410   49.0710 C   0  0  0  0  0  0  0  0  0  0  0  0
   36.2100   28.9700   49.3620 C   0  0  0  0  0  0  0  0  0  0  0  0
   39.2190   32.8120   45.8990 C   0  0  0  0  0  0  0  0  0  0  0  0
   40.0860   33.7720   45.5320 N   0  0  0  0  0  0  0  0  0  0  0  0
   40.3090   33.6960   44.2550 O   0  0  0  0  0  0  0  0  0  0  0  0
   39.6140   32.7120   43.7730 C   0  0  0  0  0  0  0  0  0  0  0  0
   38.9030   32.1160   44.7700 N   0  0  0  0  0  0  0  0  0  0  0  0
   39.5390   32.2480   42.4140 N   0  0  0  0  0  0  0  0  0  0  0  0
   38.9980   32.9920   41.4540 N   0  0  0  0  0  0  0  0  0  0  0  0
   39.0670   32.3000   40.2850 C   0  0  0  0  0  0  0  0  0  0  0  0
   39.6780   31.0910   40.5730 C   0  0  0  0  0  0  0  0  0  0  0  0
   39.9590   31.0950   41.9190 C   0  0  0  0  0  0  0  0  0  0  0  0
   40.6180   30.0270   42.7340 C   0  0  0  0  0  0  0  0  0  0  0  0
   41.4370   29.0090   42.0480 C   0  0  0  0  0  0  0  0  0  0  0  0
   40.0880   28.5800   42.4890 C   0  0  0  0  0  0  0  0  0  0  0  0
   38.6521   33.1607   50.5061 H   0  0  0  0  0  0  0  0  0  0  0  0
   39.7562   33.9033   48.3688 H   0  0  0  0  0  0  0  0  0  0  0  0
   35.2630   29.1802   46.6826 H   0  0  0  0  0  0  0  0  0  0  0  0
   35.1806   30.9401   46.7293 H   0  0  0  0  0  0  0  0  0  0  0  0
   33.6058   30.9177   48.5639 H   0  0  0  0  0  0  0  0  0  0  0  0
   33.0656   29.6009   47.4164 H   0  0  0  0  0  0  0  0  0  0  0  0
   34.8479   27.3376   49.8153 H   0  0  0  0  0  0  0  0  0  0  0  0
   35.0101   27.6755   48.0761 H   0  0  0  0  0  0  0  0  0  0  0  0
   37.1162   28.3587   49.2387 H   0  0  0  0  0  0  0  0  0  0  0  0
   36.2337   29.3500   50.3940 H   0  0  0  0  0  0  0  0  0  0  0  0
   38.7071   32.6357   39.3012 H   0  0  0  0  0  0  0  0  0  0  0  0
   39.8968   30.2818   39.8608 H   0  0  0  0  0  0  0  0  0  0  0  0
   40.7839   30.6928   43.5937 H   0  0  0  0  0  0  0  0  0  0  0  0
   42.3249   28.6009   42.5530 H   0  0  0  0  0  0  0  0  0  0  0  0
   41.9584   28.9856   41.0797 H   0  0  0  0  0  0  0  0  0  0  0  0
   39.2940   28.3968   41.7500 H   0  0  0  0  0  0  0  0  0  0  0  0
   39.6817   27.7714   43.1144 H   0  0  0  0  0  0  0  0  0  0  0  0
  1  6  2  0
  2  1  1  0
  3  4  1  0
  3  2  2  0
  4  5  2  0
  5  6  1  0
  7  5  1  0
  7 12  1  0
  8  9  1  0
  8  7  1  0
  9 10  1  0
 11 10  1  0
 11 12  1  0
 13  3  1  0
 14 13  2  0
 15 14  1  0
 16 15  1  0
 16 17  2  0
 17 13  1  0
 18 16  1  0
 19 18  1  0
 20 21  1  0
 20 19  2  0
 21 22  2  0
 22 18  1  0
 22 23  1  0
 24 25  1  0
 24 23  1  0
 25 23  1  0
  1 26  1  0
  2 27  1  0
  8 28  1  0
  8 29  1  0
  9 30  1  0
  9 31  1  0
 11 32  1  0
 11 33  1  0
 12 34  1  0
 12 35  1  0
 20 36  1  0
 21 37  1  0
 23 38  1  0
 24 39  1  0
 24 40  1  0
 25 41  1  0
 25 42  1  0
M  ISO  8  26  14  27  14  28  13  29  13  30  13  31  13  32  13  33  13
M  ISO  8  34  13  35  13  36  14  37  14  38  13  39  13  40  13  41  13
M  ISO  1  42  13
M  END
>  <minimizedAffinity>  (1) 
-6.57021618

>  <minimizedRMSD>  (1) 
1.13452721

$$$$
