
     RDKit          3D

 16 16  0  0  0  0  0  0  0  0999 V2000
   37.3420   30.2440   51.4230 C   0  0  0  0  0  0  0  0  0  0  0  0
   38.0320   30.8090   50.3420 C   0  0  0  0  0  0  0  0  0  0  0  0
   37.6370   30.4750   49.0490 C   0  0  0  0  0  0  0  0  0  0  0  0
   36.5940   29.6110   48.9020 N   0  0  0  0  0  0  0  0  0  0  0  0
   35.9440   29.0780   49.9510 C   0  0  0  0  0  0  0  0  0  0  0  0
   36.3170   29.3940   51.2080 N   0  0  0  0  0  0  0  0  0  0  0  0
   38.2660   30.9900   47.8030 C   0  0  0  0  0  0  0  0  0  0  0  0
   38.7540   32.4160   47.9890 C   0  0  0  0  0  0  0  0  0  0  0  0
   37.6379   30.4950   52.4523 H   0  0  0  0  0  0  0  0  0  0  0  0
   38.8689   31.5025   50.5114 H   0  0  0  0  0  0  0  0  0  0  0  0
   35.1073   28.3837   49.7841 H   0  0  0  0  0  0  0  0  0  0  0  0
   37.5255   30.9664   46.9899 H   0  0  0  0  0  0  0  0  0  0  0  0
   39.1288   30.3536   47.5570 H   0  0  0  0  0  0  0  0  0  0  0  0
   38.8307   32.6401   49.0632 H   0  0  0  0  0  0  0  0  0  0  0  0
   39.7422   32.5296   47.5193 H   0  0  0  0  0  0  0  0  0  0  0  0
   38.0426   33.1112   47.5193 H   0  0  0  0  0  0  0  0  0  0  0  0
  2  1  2  0
  3  2  1  0
  4  3  2  0
  4  5  1  0
  5  6  2  0
  6  1  1  0
  7  8  1  0
  7  3  1  0
  1  9  1  0
  2 10  1  0
  5 11  1  0
  7 12  1  0
  7 13  1  0
  8 14  1  0
  8 15  1  0
  8 16  1  0
M  ISO  8   9  14  10  14  11  14  12   8  13   8  14   8  15   8  16   8
M  END
>  <minimizedAffinity>  (1) 
-3.63106751

>  <minimizedRMSD>  (1) 
0.154959381

$$$$
