
     RDKit          3D

 32 34  0  0  0  0  0  0  0  0999 V2000
   37.9940   30.5750   47.2420 C   0  0  0  0  0  0  0  0  0  0  0  0
   38.8950   31.3090   46.3340 C   0  0  0  0  0  0  0  0  0  0  0  0
   39.4000   32.5540   46.7050 C   0  0  0  0  0  0  0  0  0  0  0  0
   40.2630   33.2860   45.9170 C   0  0  0  0  0  0  0  0  0  0  0  0
   40.6450   32.7610   44.7000 C   0  0  0  0  0  0  0  0  0  0  0  0
   40.1660   31.5190   44.2840 C   0  0  0  0  0  0  0  0  0  0  0  0
   40.5480   30.9990   43.0500 C   0  0  0  0  0  0  0  0  0  0  0  0
   40.0560   29.7690   42.6450 C   0  0  0  0  0  0  0  0  0  0  0  0
   39.1910   29.0750   43.4740 C   0  0  0  0  0  0  0  0  0  0  0  0
   38.8300   29.6030   44.6770 C   0  0  0  0  0  0  0  0  0  0  0  0
   39.2940   30.8130   45.1160 C   0  0  0  0  0  0  0  0  0  0  0  0
   37.5600   31.5180   48.3320 C   0  0  0  0  0  0  0  0  0  0  0  0
   37.0990   29.8400   51.7180 C   0  0  0  0  0  0  0  0  0  0  0  0
   37.7190   30.5730   50.7010 C   0  0  0  0  0  0  0  0  0  0  0  0
   37.0440   30.7570   49.5100 C   0  0  0  0  0  0  0  0  0  0  0  0
   35.8140   30.2150   49.3890 N   0  0  0  0  0  0  0  0  0  0  0  0
   35.2200   29.5150   50.3560 C   0  0  0  0  0  0  0  0  0  0  0  0
   35.8670   29.3300   51.5210 N   0  0  0  0  0  0  0  0  0  0  0  0
   38.5245   29.7169   47.6805 H   0  0  0  0  0  0  0  0  0  0  0  0
   37.1188   30.2008   46.6906 H   0  0  0  0  0  0  0  0  0  0  0  0
   39.0949   32.9737   47.6749 H   0  0  0  0  0  0  0  0  0  0  0  0
   40.6377   34.2649   46.2508 H   0  0  0  0  0  0  0  0  0  0  0  0
   41.3323   33.3259   44.0530 H   0  0  0  0  0  0  0  0  0  0  0  0
   41.2358   31.5611   42.4012 H   0  0  0  0  0  0  0  0  0  0  0  0
   40.3501   29.3471   41.6727 H   0  0  0  0  0  0  0  0  0  0  0  0
   38.7953   28.0974   43.1614 H   0  0  0  0  0  0  0  0  0  0  0  0
   38.1401   29.0356   45.3190 H   0  0  0  0  0  0  0  0  0  0  0  0
   38.4193   32.1295   48.6446 H   0  0  0  0  0  0  0  0  0  0  0  0
   36.7561   32.1617   47.9453 H   0  0  0  0  0  0  0  0  0  0  0  0
   37.6154   29.6801   52.6760 H   0  0  0  0  0  0  0  0  0  0  0  0
   38.7244   30.9947   50.8467 H   0  0  0  0  0  0  0  0  0  0  0  0
   34.2150   29.0947   50.2034 H   0  0  0  0  0  0  0  0  0  0  0  0
  1 12  1  0
  2  3  2  0
  2  1  1  0
  4  3  1  0
  5  4  2  0
  6  5  1  0
  6 11  2  0
  7  6  1  0
  8  7  2  0
  8  9  1  0
  9 10  2  0
 10 11  1  0
 11  2  1  0
 12 15  1  0
 14 13  2  0
 15 14  1  0
 16 15  2  0
 16 17  1  0
 17 18  2  0
 18 13  1  0
  1 19  1  0
  1 20  1  0
  3 21  1  0
  4 22  1  0
  5 23  1  0
  7 24  1  0
  8 25  1  0
  9 26  1  0
 10 27  1  0
 12 28  1  0
 12 29  1  0
 13 30  1  0
 14 31  1  0
 17 32  1  0
M  ISO  8  19   8  20   8  21  14  22  14  23  14  24  14  25  14  26  14
M  ISO  6  27  14  28   8  29   8  30  14  31  14  32  14
M  END
>  <minimizedAffinity>  (1) 
-6.04124308

>  <minimizedRMSD>  (1) 
1.2370255

$$$$
