
     RDKit          3D

 30 32  0  0  0  0  0  0  0  0999 V2000
   38.1500   30.6600   47.2740 C   0  0  0  0  0  0  0  0  0  0  0  0
   38.9970   31.4030   46.3040 C   0  0  0  0  0  0  0  0  0  0  0  0
   39.5210   32.6300   46.5260 N   0  0  0  0  0  0  0  0  0  0  0  0
   40.2870   33.2730   45.6500 C   0  0  0  0  0  0  0  0  0  0  0  0
   40.6020   32.7290   44.4450 N   0  0  0  0  0  0  0  0  0  0  0  0
   40.1150   31.5080   44.1490 C   0  0  0  0  0  0  0  0  0  0  0  0
   40.4170   30.9330   42.9240 C   0  0  0  0  0  0  0  0  0  0  0  0
   39.9430   29.6970   42.5740 C   0  0  0  0  0  0  0  0  0  0  0  0
   39.1570   29.0420   43.4770 C   0  0  0  0  0  0  0  0  0  0  0  0
   38.8630   29.6180   44.6900 C   0  0  0  0  0  0  0  0  0  0  0  0
   39.3210   30.8600   45.0780 C   0  0  0  0  0  0  0  0  0  0  0  0
   37.5860   31.5740   48.3440 C   0  0  0  0  0  0  0  0  0  0  0  0
   37.0930   29.8330   51.6800 C   0  0  0  0  0  0  0  0  0  0  0  0
   37.7290   30.5950   50.6760 C   0  0  0  0  0  0  0  0  0  0  0  0
   37.0510   30.7980   49.4890 C   0  0  0  0  0  0  0  0  0  0  0  0
   35.8130   30.2530   49.3570 N   0  0  0  0  0  0  0  0  0  0  0  0
   35.2150   29.5340   50.3080 C   0  0  0  0  0  0  0  0  0  0  0  0
   35.8640   29.3260   51.4740 N   0  0  0  0  0  0  0  0  0  0  0  0
   38.7597   29.8814   47.7558 H   0  0  0  0  0  0  0  0  0  0  0  0
   37.3070   30.2173   46.7231 H   0  0  0  0  0  0  0  0  0  0  0  0
   40.6753   34.2696   45.9068 H   0  0  0  0  0  0  0  0  0  0  0  0
   41.0534   31.4836   42.2155 H   0  0  0  0  0  0  0  0  0  0  0  0
   40.1870   29.2481   41.5999 H   0  0  0  0  0  0  0  0  0  0  0  0
   38.7563   28.0471   43.2328 H   0  0  0  0  0  0  0  0  0  0  0  0
   38.2269   29.0571   45.3905 H   0  0  0  0  0  0  0  0  0  0  0  0
   38.3845   32.2394   48.7041 H   0  0  0  0  0  0  0  0  0  0  0  0
   36.7627   32.1561   47.9044 H   0  0  0  0  0  0  0  0  0  0  0  0
   37.6054   29.6527   52.6365 H   0  0  0  0  0  0  0  0  0  0  0  0
   38.7336   31.0144   50.8337 H   0  0  0  0  0  0  0  0  0  0  0  0
   34.2100   29.1174   50.1454 H   0  0  0  0  0  0  0  0  0  0  0  0
  1 12  1  0
  2  3  2  0
  2  1  1  0
  4  3  1  0
  5  4  2  0
  6  5  1  0
  6 11  2  0
  7  6  1  0
  8  7  2  0
  8  9  1  0
  9 10  2  0
 10 11  1  0
 11  2  1  0
 12 15  1  0
 14 13  2  0
 15 14  1  0
 16 15  2  0
 16 17  1  0
 17 18  2  0
 18 13  1  0
  1 19  1  0
  1 20  1  0
  4 21  1  0
  7 22  1  0
  8 23  1  0
  9 24  1  0
 10 25  1  0
 12 26  1  0
 12 27  1  0
 13 28  1  0
 14 29  1  0
 17 30  1  0
M  ISO  8  19   8  20   8  21  14  22  14  23  14  24  14  25  14  26   8
M  ISO  4  27   8  28  14  29  14  30  14
M  END
>  <minimizedAffinity>  (1) 
-5.64514399

>  <minimizedRMSD>  (1) 
2.07496524

$$$$
