
     RDKit          3D

 32 33  0  0  0  0  0  0  0  0999 V2000
   37.9280   30.5790   47.5730 C   0  0  0  0  0  0  0  0  0  0  0  0
   37.3730   30.2250   51.3080 C   0  0  0  0  0  0  0  0  0  0  0  0
   37.9880   30.6380   50.1060 C   0  0  0  0  0  0  0  0  0  0  0  0
   37.4130   30.2360   48.9120 C   0  0  0  0  0  0  0  0  0  0  0  0
   36.2870   29.4640   48.9650 N   0  0  0  0  0  0  0  0  0  0  0  0
   35.7250   29.0870   50.1170 C   0  0  0  0  0  0  0  0  0  0  0  0
   36.2650   29.4660   51.2910 N   0  0  0  0  0  0  0  0  0  0  0  0
   38.4460   31.9940   47.5000 C   0  0  0  0  0  0  0  0  0  0  0  0
   39.7430   31.9160   46.6850 C   0  0  0  0  0  0  0  0  0  0  0  0
   40.0270   33.2140   45.9810 C   0  0  0  0  0  0  0  0  0  0  0  0
   39.4820   33.2180   44.5570 C   0  0  0  0  0  0  0  0  0  0  0  0
   40.1240   32.1370   43.7190 C   0  0  0  0  0  0  0  0  0  0  0  0
   40.7010   31.0600   44.6130 C   0  0  0  0  0  0  0  0  0  0  0  0
   39.6320   30.7890   45.6780 C   0  0  0  0  0  0  0  0  0  0  0  0
   38.7478   29.8896   47.3228 H   0  0  0  0  0  0  0  0  0  0  0  0
   37.0944   30.4903   46.8607 H   0  0  0  0  0  0  0  0  0  0  0  0
   37.8073   30.5291   52.2718 H   0  0  0  0  0  0  0  0  0  0  0  0
   38.8955   31.2596   50.1176 H   0  0  0  0  0  0  0  0  0  0  0  0
   34.8179   28.4648   50.1065 H   0  0  0  0  0  0  0  0  0  0  0  0
   37.7153   32.6451   46.9978 H   0  0  0  0  0  0  0  0  0  0  0  0
   38.6185   32.4168   48.5007 H   0  0  0  0  0  0  0  0  0  0  0  0
   40.5786   31.7210   47.3733 H   0  0  0  0  0  0  0  0  0  0  0  0
   39.5577   34.0343   46.5440 H   0  0  0  0  0  0  0  0  0  0  0  0
   41.1182   33.3428   45.9294 H   0  0  0  0  0  0  0  0  0  0  0  0
   38.3956   33.0485   44.5889 H   0  0  0  0  0  0  0  0  0  0  0  0
   39.7114   34.1923   44.1008 H   0  0  0  0  0  0  0  0  0  0  0  0
   39.3670   31.6927   43.0561 H   0  0  0  0  0  0  0  0  0  0  0  0
   40.9333   32.5791   43.1193 H   0  0  0  0  0  0  0  0  0  0  0  0
   40.9043   30.1479   44.0327 H   0  0  0  0  0  0  0  0  0  0  0  0
   41.6537   31.3740   45.0644 H   0  0  0  0  0  0  0  0  0  0  0  0
   38.6314   30.7831   45.2211 H   0  0  0  0  0  0  0  0  0  0  0  0
   39.7809   29.8091   46.1551 H   0  0  0  0  0  0  0  0  0  0  0  0
  1  4  1  0
  3  2  2  0
  4  5  2  0
  4  3  1  0
  5  6  1  0
  6  7  2  0
  7  2  1  0
  8  1  1  0
  9  8  1  0
 10  9  1  0
 11 10  1  0
 12 11  1  0
 12 13  1  0
 13 14  1  0
 14  9  1  0
  1 15  1  0
  1 16  1  0
  2 17  1  0
  3 18  1  0
  6 19  1  0
  8 20  1  0
  8 21  1  0
  9 22  1  0
 10 23  1  0
 10 24  1  0
 11 25  1  0
 11 26  1  0
 12 27  1  0
 12 28  1  0
 13 29  1  0
 13 30  1  0
 14 31  1  0
 14 32  1  0
M  ISO  8  15   8  16   8  17  14  18  14  19  14  20   8  21   8  22  13
M  ISO  8  23  13  24  13  25  13  26  13  27  13  28  13  29  13  30  13
M  ISO  2  31  13  32  13
M  END
>  <minimizedAffinity>  (1) 
-5.3145771

>  <minimizedRMSD>  (1) 
1.02011287

$$$$
