
     RDKit          3D

 29 31  0  0  0  0  0  0  0  0999 V2000
   38.3550   32.3230   47.6670 C   0  0  0  0  0  0  0  0  0  0  0  0
   38.8990   32.6130   46.3350 N   0  0  0  0  0  0  0  0  0  0  0  0
   40.0760   33.1870   46.0300 C   0  0  0  0  0  0  0  0  0  0  0  0
   40.1590   33.2560   44.6760 N   0  0  0  0  0  0  0  0  0  0  0  0
   39.0390   32.7260   44.1900 C   0  0  0  0  0  0  0  0  0  0  0  0
   38.5680   32.5270   42.9020 C   0  0  0  0  0  0  0  0  0  0  0  0
   37.3680   31.9520   42.7140 N   0  0  0  0  0  0  0  0  0  0  0  0
   36.5900   31.5550   43.7350 C   0  0  0  0  0  0  0  0  0  0  0  0
   37.0330   31.7420   44.9880 N   0  0  0  0  0  0  0  0  0  0  0  0
   38.2220   32.3100   45.2030 C   0  0  0  0  0  0  0  0  0  0  0  0
   39.3670   32.9350   41.7940 N   0  0  0  0  0  0  0  0  0  0  0  0
   38.3850   30.7990   47.8020 C   0  0  0  0  0  0  0  0  0  0  0  0
   37.3390   30.2320   51.4090 C   0  0  0  0  0  0  0  0  0  0  0  0
   38.0690   30.7080   50.3210 C   0  0  0  0  0  0  0  0  0  0  0  0
   37.6910   30.3580   49.0270 C   0  0  0  0  0  0  0  0  0  0  0  0
   36.6040   29.5490   48.8980 N   0  0  0  0  0  0  0  0  0  0  0  0
   35.9120   29.1000   49.9480 C   0  0  0  0  0  0  0  0  0  0  0  0
   36.2800   29.4410   51.1990 N   0  0  0  0  0  0  0  0  0  0  0  0
   37.3233   32.6954   47.7496 H   0  0  0  0  0  0  0  0  0  0  0  0
   38.9387   32.8130   48.4602 H   0  0  0  0  0  0  0  0  0  0  0  0
   40.8337   33.5370   46.7465 H   0  0  0  0  0  0  0  0  0  0  0  0
   35.6121   31.0873   43.5481 H   0  0  0  0  0  0  0  0  0  0  0  0
   39.0261   32.7916   40.8327 H   0  0  0  0  0  0  0  0  0  0  0  0
   40.2852   33.3732   41.9548 H   0  0  0  0  0  0  0  0  0  0  0  0
   37.8892   30.3516   46.9279 H   0  0  0  0  0  0  0  0  0  0  0  0
   39.4346   30.4752   47.8606 H   0  0  0  0  0  0  0  0  0  0  0  0
   37.6315   30.5048   52.4337 H   0  0  0  0  0  0  0  0  0  0  0  0
   38.9411   31.3582   50.4840 H   0  0  0  0  0  0  0  0  0  0  0  0
   35.0387   28.4497   49.7915 H   0  0  0  0  0  0  0  0  0  0  0  0
  1 12  1  0
  2  1  1  0
  3  2  1  0
  4  3  2  0
  5  4  1  0
  5 10  2  0
  6  5  1  0
  7  6  2  0
  7  8  1  0
  8  9  2  0
  9 10  1  0
 10  2  1  0
 11  6  1  0
 12 15  1  0
 14 13  2  0
 15 14  1  0
 16 15  2  0
 16 17  1  0
 17 18  2  0
 18 13  1  0
  1 19  1  0
  1 20  1  0
  3 21  1  0
  8 22  1  0
 11 23  1  0
 11 24  1  0
 12 25  1  0
 12 26  1  0
 13 27  1  0
 14 28  1  0
 17 29  1  0
M  ISO  8  19   8  20   8  21  14  22  14  25   8  26   8  27  14  28  14
M  ISO  1  29  14
M  END
>  <minimizedAffinity>  (1) 
-5.30419827

>  <minimizedRMSD>  (1) 
1.39473963

$$$$
