
     RDKit          3D

 29 30  0  0  0  0  0  0  0  0999 V2000
   37.9000   30.5440   47.5220 C   0  0  0  0  0  0  0  0  0  0  0  0
   37.4100   30.2590   51.2770 C   0  0  0  0  0  0  0  0  0  0  0  0
   37.9630   30.6190   50.0450 C   0  0  0  0  0  0  0  0  0  0  0  0
   37.3820   30.2100   48.8600 C   0  0  0  0  0  0  0  0  0  0  0  0
   36.2480   29.4420   48.9710 N   0  0  0  0  0  0  0  0  0  0  0  0
   35.7250   29.1020   50.1510 C   0  0  0  0  0  0  0  0  0  0  0  0
   36.2940   29.5020   51.3010 N   0  0  0  0  0  0  0  0  0  0  0  0
   38.4150   31.9460   47.4490 C   0  0  0  0  0  0  0  0  0  0  0  0
   39.7630   32.0560   46.8000 C   0  0  0  0  0  0  0  0  0  0  0  0
   40.0470   30.9950   45.7910 C   0  0  0  0  0  0  0  0  0  0  0  0
   40.0160   31.7140   44.4540 C   0  0  0  0  0  0  0  0  0  0  0  0
   40.2990   33.1720   44.7260 C   0  0  0  0  0  0  0  0  0  0  0  0
   39.9680   33.4000   46.1810 C   0  0  0  0  0  0  0  0  0  0  0  0
   38.7195   29.8524   47.2767 H   0  0  0  0  0  0  0  0  0  0  0  0
   37.0700   30.4516   46.8060 H   0  0  0  0  0  0  0  0  0  0  0  0
   37.8792   30.5890   52.2156 H   0  0  0  0  0  0  0  0  0  0  0  0
   38.8731   31.2363   50.0184 H   0  0  0  0  0  0  0  0  0  0  0  0
   34.8147   28.4852   50.1827 H   0  0  0  0  0  0  0  0  0  0  0  0
   37.7000   32.5497   46.8708 H   0  0  0  0  0  0  0  0  0  0  0  0
   38.5239   32.3046   48.4832 H   0  0  0  0  0  0  0  0  0  0  0  0
   40.4775   31.9121   47.6238 H   0  0  0  0  0  0  0  0  0  0  0  0
   41.0361   30.5471   45.9674 H   0  0  0  0  0  0  0  0  0  0  0  0
   39.3186   30.1720   45.8372 H   0  0  0  0  0  0  0  0  0  0  0  0
   39.0255   31.6025   43.9887 H   0  0  0  0  0  0  0  0  0  0  0  0
   40.7634   31.2923   43.7658 H   0  0  0  0  0  0  0  0  0  0  0  0
   41.3589   33.3967   44.5361 H   0  0  0  0  0  0  0  0  0  0  0  0
   39.7029   33.8252   44.0718 H   0  0  0  0  0  0  0  0  0  0  0  0
   40.7978   33.9225   46.6795 H   0  0  0  0  0  0  0  0  0  0  0  0
   39.0660   34.0209   46.2850 H   0  0  0  0  0  0  0  0  0  0  0  0
  1  4  1  0
  2  7  2  0
  3  2  1  0
  4  5  1  0
  4  3  2  0
  5  6  2  0
  6  7  1  0
  8  1  1  0
  9  8  1  0
 10  9  1  0
 11 12  1  0
 11 10  1  0
 12 13  1  0
 13  9  1  0
  1 14  1  0
  1 15  1  0
  2 16  1  0
  3 17  1  0
  6 18  1  0
  8 19  1  0
  8 20  1  0
  9 21  1  0
 10 22  1  0
 10 23  1  0
 11 24  1  0
 11 25  1  0
 12 26  1  0
 12 27  1  0
 13 28  1  0
 13 29  1  0
M  ISO  8  14   8  15   8  16  14  17  14  18  14  19   8  20   8  21  13
M  ISO  8  22  13  23  13  24  13  25  13  26  13  27  13  28  13  29  13
M  END
>  <minimizedAffinity>  (1) 
-4.96363688

>  <minimizedRMSD>  (1) 
1.491588

$$$$
