
     RDKit          3D

 21 22  0  0  0  0  0  0  0  0999 V2000
   38.0860   30.6520   47.7210 C   0  0  0  0  0  0  0  0  0  0  0  0
   37.3320   30.2040   51.4220 C   0  0  0  0  0  0  0  0  0  0  0  0
   37.9930   30.6430   50.2590 C   0  0  0  0  0  0  0  0  0  0  0  0
   37.4990   30.2680   49.0220 C   0  0  0  0  0  0  0  0  0  0  0  0
   36.3860   29.4840   48.9960 N   0  0  0  0  0  0  0  0  0  0  0  0
   35.7660   29.0730   50.1150 C   0  0  0  0  0  0  0  0  0  0  0  0
   36.2350   29.4300   51.3230 N   0  0  0  0  0  0  0  0  0  0  0  0
   38.8100   31.9810   47.8130 C   0  0  0  0  0  0  0  0  0  0  0  0
   39.0980   32.5050   46.4520 C   0  0  0  0  0  0  0  0  0  0  0  0
   38.2170   32.3960   45.4220 N   0  0  0  0  0  0  0  0  0  0  0  0
   38.7550   32.9450   44.3710 O   0  0  0  0  0  0  0  0  0  0  0  0
   39.9560   33.4120   44.6640 C   0  0  0  0  0  0  0  0  0  0  0  0
   40.1830   33.1400   45.9710 N   0  0  0  0  0  0  0  0  0  0  0  0
   37.2816   30.7333   46.9751 H   0  0  0  0  0  0  0  0  0  0  0  0
   38.8131   29.8806   47.4274 H   0  0  0  0  0  0  0  0  0  0  0  0
   37.7123   30.4938   52.4126 H   0  0  0  0  0  0  0  0  0  0  0  0
   38.8900   31.2755   50.3327 H   0  0  0  0  0  0  0  0  0  0  0  0
   34.8690   28.4404   50.0420 H   0  0  0  0  0  0  0  0  0  0  0  0
   38.1789   32.7017   48.3536 H   0  0  0  0  0  0  0  0  0  0  0  0
   39.7592   31.8358   48.3496 H   0  0  0  0  0  0  0  0  0  0  0  0
   40.6428   33.9256   43.9751 H   0  0  0  0  0  0  0  0  0  0  0  0
  1  8  1  0
  1  4  1  0
  3  2  2  0
  4  3  1  0
  5  4  2  0
  5  6  1  0
  6  7  2  0
  7  2  1  0
  9  8  1  0
 10  9  2  0
 11 12  1  0
 11 10  1  0
 12 13  2  0
 13  9  1  0
  1 14  1  0
  1 15  1  0
  2 16  1  0
  3 17  1  0
  6 18  1  0
  8 19  1  0
  8 20  1  0
 12 21  1  0
M  ISO  8  14   8  15   8  16  14  17  14  18  14  19   8  20   8  21  14
M  END
>  <minimizedAffinity>  (1) 
-4.87199163

>  <minimizedRMSD>  (1) 
0.538288116

$$$$
