
     RDKit          3D

 23 23  0  0  0  0  0  0  0  0999 V2000
   38.0650   30.7130   47.6620 C   0  0  0  0  0  0  0  0  0  0  0  0
   37.3650   30.2130   51.3740 C   0  0  0  0  0  0  0  0  0  0  0  0
   37.9840   30.6550   50.2090 C   0  0  0  0  0  0  0  0  0  0  0  0
   37.4970   30.3080   48.9630 C   0  0  0  0  0  0  0  0  0  0  0  0
   36.3910   29.5190   48.9340 N   0  0  0  0  0  0  0  0  0  0  0  0
   35.7920   29.0920   50.0710 C   0  0  0  0  0  0  0  0  0  0  0  0
   36.2700   29.4320   51.2730 N   0  0  0  0  0  0  0  0  0  0  0  0
   38.9210   31.9660   47.7950 C   0  0  0  0  0  0  0  0  0  0  0  0
   38.6500   32.7270   46.5850 N   0  0  0  0  0  0  0  0  0  0  0  0
   39.7450   32.8510   45.6990 C   0  0  0  0  0  0  0  0  0  0  0  0
   40.7220   32.0160   45.5780 N   0  0  0  0  0  0  0  0  0  0  0  0
   39.8990   33.9600   44.7990 N   0  0  0  0  0  0  0  0  0  0  0  0
   40.6970   31.1740   46.1950 H   0  0  0  0  0  0  0  0  0  0  0  0
   37.2427   30.9142   46.9596 H   0  0  0  0  0  0  0  0  0  0  0  0
   38.7024   29.8959   47.2931 H   0  0  0  0  0  0  0  0  0  0  0  0
   37.7617   30.4956   52.3603 H   0  0  0  0  0  0  0  0  0  0  0  0
   38.8776   31.2925   50.2810 H   0  0  0  0  0  0  0  0  0  0  0  0
   34.8976   28.4551   50.0049 H   0  0  0  0  0  0  0  0  0  0  0  0
   38.6323   32.5404   48.6876 H   0  0  0  0  0  0  0  0  0  0  0  0
   39.9895   31.7306   47.9087 H   0  0  0  0  0  0  0  0  0  0  0  0
   37.7291   33.1444   46.3884 H   0  0  0  0  0  0  0  0  0  0  0  0
   40.7151   34.0051   44.1722 H   0  0  0  0  0  0  0  0  0  0  0  0
   39.1933   34.7100   44.7804 H   0  0  0  0  0  0  0  0  0  0  0  0
  1  8  1  0
  1  4  1  0
  3  2  2  0
  4  3  1  0
  5  4  2  0
  5  6  1  0
  6  7  2  0
  7  2  1  0
  9  8  1  0
 10  9  1  0
 11 10  2  0
 11 13  1  0
 12 10  1  0
  1 14  1  0
  1 15  1  0
  2 16  1  0
  3 17  1  0
  6 18  1  0
  8 19  1  0
  8 20  1  0
  9 21  1  0
 12 22  1  0
 12 23  1  0
M  ISO  7  14   8  15   8  16  14  17  14  18  14  19   8  20   8
M  END
>  <minimizedAffinity>  (1) 
-4.69620085

>  <minimizedRMSD>  (1) 
0.974428117

$$$$
