
     RDKit          3D

 26 27  0  0  0  0  0  0  0  0999 V2000
   37.8710   30.3320   48.2210 C   0  0  0  0  0  0  0  0  0  0  0  0
   34.6460   29.1110   49.7760 C   0  0  0  0  0  0  0  0  0  0  0  0
   35.5890   29.5040   48.7960 C   0  0  0  0  0  0  0  0  0  0  0  0
   36.8530   29.8990   49.1780 C   0  0  0  0  0  0  0  0  0  0  0  0
   37.1500   29.8940   50.5120 N   0  0  0  0  0  0  0  0  0  0  0  0
   36.2590   29.5230   51.4340 C   0  0  0  0  0  0  0  0  0  0  0  0
   35.0170   29.1330   51.0820 N   0  0  0  0  0  0  0  0  0  0  0  0
   37.3530   31.0440   47.0320 C   0  0  0  0  0  0  0  0  0  0  0  0
   38.2370   31.9060   46.3300 N   0  0  0  0  0  0  0  0  0  0  0  0
   39.3630   32.4970   46.6870 C   0  0  0  0  0  0  0  0  0  0  0  0
   40.1360   33.3020   45.8990 C   0  0  0  0  0  0  0  0  0  0  0  0
   39.7490   33.5520   44.6080 C   0  0  0  0  0  0  0  0  0  0  0  0
   40.3940   34.2770   43.8140 O   0  0  0  0  0  0  0  0  0  0  0  0
   38.6260   32.9800   44.2040 N   0  0  0  0  0  0  0  0  0  0  0  0
   37.9100   32.1970   45.0310 C   0  0  0  0  0  0  0  0  0  0  0  0
   36.8460   31.7010   44.5270 O   0  0  0  0  0  0  0  0  0  0  0  0
   38.5666   31.0044   48.7445 H   0  0  0  0  0  0  0  0  0  0  0  0
   38.3475   29.4146   47.8449 H   0  0  0  0  0  0  0  0  0  0  0  0
   33.6334   28.7943   49.4854 H   0  0  0  0  0  0  0  0  0  0  0  0
   35.3133   29.4941   47.7311 H   0  0  0  0  0  0  0  0  0  0  0  0
   36.5421   29.5356   52.4969 H   0  0  0  0  0  0  0  0  0  0  0  0
   37.0068   30.2808   46.3195 H   0  0  0  0  0  0  0  0  0  0  0  0
   36.5772   31.7141   47.4310 H   0  0  0  0  0  0  0  0  0  0  0  0
   39.7113   32.3248   47.7161 H   0  0  0  0  0  0  0  0  0  0  0  0
   41.0606   33.7455   46.2970 H   0  0  0  0  0  0  0  0  0  0  0  0
   38.2950   33.1368   43.2413 H   0  0  0  0  0  0  0  0  0  0  0  0
  1  4  1  0
  2  7  2  0
  3  4  2  0
  3  2  1  0
  4  5  1  0
  5  6  2  0
  7  6  1  0
  8  1  1  0
  9 10  1  0
  9  8  1  0
 11 10  2  0
 12 11  1  0
 13 12  2  0
 14 12  1  0
 14 15  1  0
 15  9  1  0
 16 15  2  0
  1 17  1  0
  1 18  1  0
  2 19  1  0
  3 20  1  0
  6 21  1  0
  8 22  1  0
  8 23  1  0
 10 24  1  0
 11 25  1  0
 14 26  1  0
M  ISO  8  17   8  18   8  19  14  20  14  21  14  22   8  23   8  24  14
M  ISO  2  25  14  26   9
M  END
>  <minimizedAffinity>  (1) 
-4.65804768

>  <minimizedRMSD>  (1) 
3.83884263

$$$$
