
     RDKit          3D

 33 35  0  0  0  0  0  0  0  0999 V2000
   38.7280   31.2940   47.6270 C   0  0  0  0  0  0  0  0  0  0  0  0
   39.0180   31.9640   46.4250 N   0  0  0  0  0  0  0  0  0  0  0  0
   40.0140   32.7460   46.0900 C   0  0  0  0  0  0  0  0  0  0  0  0
   40.2150   33.3560   44.8880 C   0  0  0  0  0  0  0  0  0  0  0  0
   39.2980   33.1550   43.8900 C   0  0  0  0  0  0  0  0  0  0  0  0
   39.3880   33.6690   42.7480 O   0  0  0  0  0  0  0  0  0  0  0  0
   38.2800   32.3770   44.1780 N   0  0  0  0  0  0  0  0  0  0  0  0
   38.1270   31.7970   45.3840 C   0  0  0  0  0  0  0  0  0  0  0  0
   37.1080   31.0670   45.5510 O   0  0  0  0  0  0  0  0  0  0  0  0
   37.2980   32.1370   43.1680 C   0  0  0  0  0  0  0  0  0  0  0  0
   36.1760   32.7380   42.8120 C   0  0  0  0  0  0  0  0  0  0  0  0
   35.4060   32.2840   41.7790 C   0  0  0  0  0  0  0  0  0  0  0  0
   35.9150   31.1150   41.1260 C   0  0  0  0  0  0  0  0  0  0  0  0
   37.5120   30.7550   42.0840 S   0  0  0  0  0  0  0  0  0  0  0  0
   37.8890   31.9620   48.6380 C   0  0  0  0  0  0  0  0  0  0  0  0
   35.2480   29.7590   50.1900 C   0  0  0  0  0  0  0  0  0  0  0  0
   35.9050   30.6130   49.2710 C   0  0  0  0  0  0  0  0  0  0  0  0
   37.1750   31.0830   49.5500 C   0  0  0  0  0  0  0  0  0  0  0  0
   37.7660   30.6970   50.7300 N   0  0  0  0  0  0  0  0  0  0  0  0
   37.1380   29.8960   51.5800 C   0  0  0  0  0  0  0  0  0  0  0  0
   35.8990   29.4170   51.3440 N   0  0  0  0  0  0  0  0  0  0  0  0
   39.6905   31.0657   48.1080 H   0  0  0  0  0  0  0  0  0  0  0  0
   38.1192   30.4353   47.3076 H   0  0  0  0  0  0  0  0  0  0  0  0
   40.7724   32.9309   46.8650 H   0  0  0  0  0  0  0  0  0  0  0  0
   41.0944   33.9958   44.7226 H   0  0  0  0  0  0  0  0  0  0  0  0
   35.8520   33.6320   43.3650 H   0  0  0  0  0  0  0  0  0  0  0  0
   34.4709   32.7762   41.4734 H   0  0  0  0  0  0  0  0  0  0  0  0
   35.4854   30.5621   40.2776 H   0  0  0  0  0  0  0  0  0  0  0  0
   38.5397   32.6146   49.2386 H   0  0  0  0  0  0  0  0  0  0  0  0
   37.1132   32.5001   48.0736 H   0  0  0  0  0  0  0  0  0  0  0  0
   34.2371   29.3791   49.9809 H   0  0  0  0  0  0  0  0  0  0  0  0
   35.4048   30.9025   48.3350 H   0  0  0  0  0  0  0  0  0  0  0  0
   37.6465   29.6113   52.5129 H   0  0  0  0  0  0  0  0  0  0  0  0
  1 15  1  0
  2  1  1  0
  3  2  1  0
  4  3  2  0
  5  7  1  0
  5  4  1  0
  6  5  2  0
  7  8  1  0
  8  9  2  0
  8  2  1  0
 10  7  1  0
 11 10  2  0
 12 11  1  0
 13 12  2  0
 13 14  1  0
 14 10  1  0
 15 18  1  0
 16 21  2  0
 17 18  2  0
 17 16  1  0
 18 19  1  0
 19 20  2  0
 21 20  1  0
  1 22  1  0
  1 23  1  0
  3 24  1  0
  4 25  1  0
 11 26  1  0
 12 27  1  0
 13 28  1  0
 15 29  1  0
 15 30  1  0
 16 31  1  0
 17 32  1  0
 20 33  1  0
M  ISO  8  22   8  23   8  24  14  25  14  26  14  27  14  28  14  29   8
M  ISO  4  30   8  31  14  32  14  33  14
M  END
>  <minimizedAffinity>  (1) 
-5.35663843

>  <minimizedRMSD>  (1) 
1.64211476

$$$$
