
     RDKit          3D

 33 35  0  0  0  0  0  0  0  0999 V2000
   38.1610   31.8740   45.8920 N   0  0  0  0  0  0  0  0  0  0  0  0
   39.2880   32.5820   45.8520 C   0  0  0  0  0  0  0  0  0  0  0  0
   39.8010   33.1890   44.7320 C   0  0  0  0  0  0  0  0  0  0  0  0
   39.1310   33.0820   43.5410 C   0  0  0  0  0  0  0  0  0  0  0  0
   39.5420   33.6090   42.4900 O   0  0  0  0  0  0  0  0  0  0  0  0
   38.0150   32.3880   43.5590 N   0  0  0  0  0  0  0  0  0  0  0  0
   37.5420   31.8080   44.6690 C   0  0  0  0  0  0  0  0  0  0  0  0
   36.4570   31.1620   44.5710 O   0  0  0  0  0  0  0  0  0  0  0  0
   37.2850   32.2540   42.3290 C   0  0  0  0  0  0  0  0  0  0  0  0
   36.3010   33.1810   41.9720 C   0  0  0  0  0  0  0  0  0  0  0  0
   35.8020   32.7600   40.7410 C   0  0  0  0  0  0  0  0  0  0  0  0
   36.5110   31.6070   40.4250 C   0  0  0  0  0  0  0  0  0  0  0  0
   37.3720   31.3330   41.3710 O   0  0  0  0  0  0  0  0  0  0  0  0
   37.5670   31.2250   46.9840 C   0  0  0  0  0  0  0  0  0  0  0  0
   38.2600   31.2230   48.3030 C   0  0  0  0  0  0  0  0  0  0  0  0
   35.6680   29.1990   50.1940 C   0  0  0  0  0  0  0  0  0  0  0  0
   36.3580   29.8200   49.1240 C   0  0  0  0  0  0  0  0  0  0  0  0
   37.4960   30.5530   49.3660 C   0  0  0  0  0  0  0  0  0  0  0  0
   37.9120   30.6460   50.6670 N   0  0  0  0  0  0  0  0  0  0  0  0
   37.2650   30.0650   51.6660 C   0  0  0  0  0  0  0  0  0  0  0  0
   36.1570   29.3490   51.4420 N   0  0  0  0  0  0  0  0  0  0  0  0
   39.8526   32.6891   46.7899 H   0  0  0  0  0  0  0  0  0  0  0  0
   40.7416   33.7563   44.7902 H   0  0  0  0  0  0  0  0  0  0  0  0
   35.9848   34.0640   42.5467 H   0  0  0  0  0  0  0  0  0  0  0  0
   35.0123   33.2397   40.1442 H   0  0  0  0  0  0  0  0  0  0  0  0
   36.3687   31.0110   39.5115 H   0  0  0  0  0  0  0  0  0  0  0  0
   36.5847   31.6949   47.1396 H   0  0  0  0  0  0  0  0  0  0  0  0
   37.5722   30.1655   46.6883 H   0  0  0  0  0  0  0  0  0  0  0  0
   39.2244   30.7064   48.1888 H   0  0  0  0  0  0  0  0  0  0  0  0
   38.3827   32.2734   48.6056 H   0  0  0  0  0  0  0  0  0  0  0  0
   34.7571   28.6098   50.0118 H   0  0  0  0  0  0  0  0  0  0  0  0
   35.9820   29.7155   48.0956 H   0  0  0  0  0  0  0  0  0  0  0  0
   37.6434   30.1725   52.6932 H   0  0  0  0  0  0  0  0  0  0  0  0
  1 14  1  0
  2  1  1  0
  3  2  2  0
  4  6  1  0
  4  3  1  0
  5  4  2  0
  6  7  1  0
  7  1  1  0
  8  7  2  0
  9  6  1  0
 10  9  2  0
 11 10  1  0
 12 11  2  0
 12 13  1  0
 13  9  1  0
 14 15  1  0
 15 18  1  0
 16 21  2  0
 17 18  2  0
 17 16  1  0
 18 19  1  0
 19 20  2  0
 21 20  1  0
  2 22  1  0
  3 23  1  0
 10 24  1  0
 11 25  1  0
 12 26  1  0
 14 27  1  0
 14 28  1  0
 15 29  1  0
 15 30  1  0
 16 31  1  0
 17 32  1  0
 20 33  1  0
M  ISO  8  22  14  23  14  24  14  25  14  26  14  27   8  28   8  29   8
M  ISO  4  30   8  31  14  32  14  33  14
M  END
>  <minimizedAffinity>  (1) 
-5.12797689

>  <minimizedRMSD>  (1) 
1.29358518

$$$$
