
     RDKit          3D

 35 36  0  0  0  0  0  0  0  0999 V2000
   37.4400   31.1550   46.9580 C   0  0  0  0  0  0  0  0  0  0  0  0
   38.0660   31.7980   45.8740 N   0  0  0  0  0  0  0  0  0  0  0  0
   39.1300   32.5660   45.8280 C   0  0  0  0  0  0  0  0  0  0  0  0
   39.6550   33.1450   44.7060 C   0  0  0  0  0  0  0  0  0  0  0  0
   39.0570   32.9400   43.4950 C   0  0  0  0  0  0  0  0  0  0  0  0
   39.4810   33.4370   42.4310 O   0  0  0  0  0  0  0  0  0  0  0  0
   37.9860   32.1740   43.5000 N   0  0  0  0  0  0  0  0  0  0  0  0
   37.5000   31.6210   44.6260 C   0  0  0  0  0  0  0  0  0  0  0  0
   36.4640   30.9020   44.5060 O   0  0  0  0  0  0  0  0  0  0  0  0
   37.3130   31.9250   42.2260 C   0  0  0  0  0  0  0  0  0  0  0  0
   36.7610   33.2570   41.7400 C   0  0  0  0  0  0  0  0  0  0  0  0
   38.2220   31.3040   41.2010 C   0  0  0  0  0  0  0  0  0  0  0  0
   38.2120   30.9160   48.1870 C   0  0  0  0  0  0  0  0  0  0  0  0
   35.5630   29.1790   50.2560 C   0  0  0  0  0  0  0  0  0  0  0  0
   36.2490   29.6800   49.1340 C   0  0  0  0  0  0  0  0  0  0  0  0
   37.4280   30.3590   49.3020 C   0  0  0  0  0  0  0  0  0  0  0  0
   37.9020   30.5290   50.5820 N   0  0  0  0  0  0  0  0  0  0  0  0
   37.2510   30.0560   51.6340 C   0  0  0  0  0  0  0  0  0  0  0  0
   36.0930   29.3870   51.4860 N   0  0  0  0  0  0  0  0  0  0  0  0
   37.0970   30.1742   46.5968 H   0  0  0  0  0  0  0  0  0  0  0  0
   36.6590   31.8639   47.2703 H   0  0  0  0  0  0  0  0  0  0  0  0
   39.6464   32.7616   46.7793 H   0  0  0  0  0  0  0  0  0  0  0  0
   40.5551   33.7732   44.7782 H   0  0  0  0  0  0  0  0  0  0  0  0
   36.5037   31.1952   42.3754 H   0  0  0  0  0  0  0  0  0  0  0  0
   36.5012   33.8840   42.6056 H   0  0  0  0  0  0  0  0  0  0  0  0
   37.5211   33.7688   41.1315 H   0  0  0  0  0  0  0  0  0  0  0  0
   35.8617   33.0811   41.1315 H   0  0  0  0  0  0  0  0  0  0  0  0
   39.0271   30.7540   41.7102 H   0  0  0  0  0  0  0  0  0  0  0  0
   37.6452   30.6103   40.5716 H   0  0  0  0  0  0  0  0  0  0  0  0
   38.6585   32.0936   40.5716 H   0  0  0  0  0  0  0  0  0  0  0  0
   39.0232   30.2113   47.9516 H   0  0  0  0  0  0  0  0  0  0  0  0
   38.5786   31.8975   48.5220 H   0  0  0  0  0  0  0  0  0  0  0  0
   34.6170   28.6304   50.1373 H   0  0  0  0  0  0  0  0  0  0  0  0
   35.8400   29.5271   48.1244 H   0  0  0  0  0  0  0  0  0  0  0  0
   37.6625   30.2122   52.6421 H   0  0  0  0  0  0  0  0  0  0  0  0
  1 13  1  0
  2  1  1  0
  3  2  1  0
  4  3  2  0
  5  7  1  0
  5  4  1  0
  6  5  2  0
  7  8  1  0
  8  2  1  0
  9  8  2  0
 10  7  1  0
 11 10  1  0
 12 10  1  0
 13 16  1  0
 14 19  2  0
 15 16  2  0
 15 14  1  0
 16 17  1  0
 17 18  2  0
 19 18  1  0
  1 20  1  0
  1 21  1  0
  3 22  1  0
  4 23  1  0
 10 24  1  0
 11 25  1  0
 11 26  1  0
 11 27  1  0
 12 28  1  0
 12 29  1  0
 12 30  1  0
 13 31  1  0
 13 32  1  0
 14 33  1  0
 15 34  1  0
 18 35  1  0
M  ISO  8  20   8  21   8  22  14  23  14  24   8  25   8  26   8  27   8
M  ISO  8  28   8  29   8  30   8  31   8  32   8  33  14  34  14  35  14
M  END
>  <minimizedAffinity>  (1) 
-4.99616909

>  <minimizedRMSD>  (1) 
1.23089612

$$$$
