
     RDKit          3D

 29 30  0  0  0  0  0  0  0  0999 V2000
   37.6800   31.2280   46.8880 C   0  0  0  0  0  0  0  0  0  0  0  0
   38.2570   31.9080   45.8000 N   0  0  0  0  0  0  0  0  0  0  0  0
   39.3860   32.5990   45.7370 C   0  0  0  0  0  0  0  0  0  0  0  0
   39.8710   33.2330   44.6200 C   0  0  0  0  0  0  0  0  0  0  0  0
   39.1580   33.1720   43.4500 C   0  0  0  0  0  0  0  0  0  0  0  0
   39.5310   33.7220   42.3940 O   0  0  0  0  0  0  0  0  0  0  0  0
   38.0320   32.4920   43.4870 N   0  0  0  0  0  0  0  0  0  0  0  0
   37.5900   31.8860   44.5930 C   0  0  0  0  0  0  0  0  0  0  0  0
   36.4930   31.2580   44.5170 O   0  0  0  0  0  0  0  0  0  0  0  0
   37.2440   32.4050   42.2580 C   0  0  0  0  0  0  0  0  0  0  0  0
   36.5400   31.2250   42.2270 F   0  0  0  0  0  0  0  0  0  0  0  0
   38.1510   32.4000   41.2040 F   0  0  0  0  0  0  0  0  0  0  0  0
   36.4290   33.5010   42.1950 F   0  0  0  0  0  0  0  0  0  0  0  0
   38.3480   31.2560   48.2060 C   0  0  0  0  0  0  0  0  0  0  0  0
   35.8510   29.1580   50.1160 C   0  0  0  0  0  0  0  0  0  0  0  0
   36.5230   29.7770   49.0420 C   0  0  0  0  0  0  0  0  0  0  0  0
   37.6130   30.5880   49.2790 C   0  0  0  0  0  0  0  0  0  0  0  0
   38.0030   30.7610   50.5800 N   0  0  0  0  0  0  0  0  0  0  0  0
   37.3620   30.1730   51.5800 C   0  0  0  0  0  0  0  0  0  0  0  0
   36.3020   29.3800   51.3860 N   0  0  0  0  0  0  0  0  0  0  0  0
   37.5959   30.1710   46.5953 H   0  0  0  0  0  0  0  0  0  0  0  0
   36.7423   31.7754   47.0642 H   0  0  0  0  0  0  0  0  0  0  0  0
   39.9849   32.6706   46.6569 H   0  0  0  0  0  0  0  0  0  0  0  0
   40.8219   33.7843   44.6630 H   0  0  0  0  0  0  0  0  0  0  0  0
   39.3270   30.7648   48.1042 H   0  0  0  0  0  0  0  0  0  0  0  0
   38.4223   32.3151   48.4936 H   0  0  0  0  0  0  0  0  0  0  0  0
   34.9812   28.5095   49.9347 H   0  0  0  0  0  0  0  0  0  0  0  0
   36.1765   29.6124   48.0111 H   0  0  0  0  0  0  0  0  0  0  0  0
   37.7147   30.3433   52.6079 H   0  0  0  0  0  0  0  0  0  0  0  0
  1 14  1  0
  2  1  1  0
  3  2  1  0
  4  3  2  0
  5  7  1  0
  5  4  1  0
  6  5  2  0
  7  8  1  0
  8  2  1  0
  9  8  2  0
 10  7  1  0
 11 10  1  0
 12 10  1  0
 13 10  1  0
 14 17  1  0
 15 20  2  0
 16 17  2  0
 16 15  1  0
 17 18  1  0
 18 19  2  0
 20 19  1  0
  1 21  1  0
  1 22  1  0
  3 23  1  0
  4 24  1  0
 14 25  1  0
 14 26  1  0
 15 27  1  0
 16 28  1  0
 19 29  1  0
M  ISO  8  21   8  22   8  23  14  24  14  25   8  26   8  27  14  28  14
M  ISO  1  29  14
M  END
>  <minimizedAffinity>  (1) 
-5.08048677

>  <minimizedRMSD>  (1) 
1.20733106

$$$$
