
     RDKit          3D

 32 33  0  0  0  0  0  0  0  0999 V2000
   37.6050   30.5540   44.8620 C   0  0  0  0  0  0  0  0  0  0  0  0
   38.4790   30.7660   43.7750 N   0  0  0  0  0  0  0  0  0  0  0  0
   38.7350   31.8680   43.0990 C   0  0  0  0  0  0  0  0  0  0  0  0
   39.6110   31.9660   42.0490 C   0  0  0  0  0  0  0  0  0  0  0  0
   40.3000   30.8530   41.6310 C   0  0  0  0  0  0  0  0  0  0  0  0
   41.1050   30.8690   40.6910 O   0  0  0  0  0  0  0  0  0  0  0  0
   40.0530   29.7450   42.2970 N   0  0  0  0  0  0  0  0  0  0  0  0
   39.1910   29.6690   43.3240 C   0  0  0  0  0  0  0  0  0  0  0  0
   39.0390   28.5510   43.8840 O   0  0  0  0  0  0  0  0  0  0  0  0
   40.7670   28.5380   41.8820 C   0  0  0  0  0  0  0  0  0  0  0  0
   40.3290   27.4460   42.5900 F   0  0  0  0  0  0  0  0  0  0  0  0
   42.1060   28.7480   42.1370 F   0  0  0  0  0  0  0  0  0  0  0  0
   40.5600   28.3730   40.5300 F   0  0  0  0  0  0  0  0  0  0  0  0
   38.0450   30.8830   46.2290 C   0  0  0  0  0  0  0  0  0  0  0  0
   34.9060   30.0130   48.1180 C   0  0  0  0  0  0  0  0  0  0  0  0
   35.7540   30.3830   47.0380 C   0  0  0  0  0  0  0  0  0  0  0  0
   37.1130   30.5080   47.2900 C   0  0  0  0  0  0  0  0  0  0  0  0
   37.5740   30.2700   48.5640 N   0  0  0  0  0  0  0  0  0  0  0  0
   36.7480   29.9290   49.5330 C   0  0  0  0  0  0  0  0  0  0  0  0
   35.4380   29.7900   49.3670 N   0  0  0  0  0  0  0  0  0  0  0  0
   37.2790   29.6790   50.8960 C   0  0  0  0  0  0  0  0  0  0  0  0
   37.9180   28.4570   50.9590 F   0  0  0  0  0  0  0  0  0  0  0  0
   36.2740   29.6480   51.8580 F   0  0  0  0  0  0  0  0  0  0  0  0
   38.1310   30.7000   51.3060 F   0  0  0  0  0  0  0  0  0  0  0  0
   37.3463   29.4849   44.8591 H   0  0  0  0  0  0  0  0  0  0  0  0
   36.7894   31.2686   44.6772 H   0  0  0  0  0  0  0  0  0  0  0  0
   38.2033   32.7822   43.4014 H   0  0  0  0  0  0  0  0  0  0  0  0
   39.7616   32.9312   41.5434 H   0  0  0  0  0  0  0  0  0  0  0  0
   38.9974   30.3647   46.4139 H   0  0  0  0  0  0  0  0  0  0  0  0
   38.1264   31.9793   46.2678 H   0  0  0  0  0  0  0  0  0  0  0  0
   33.8236   29.9050   47.9546 H   0  0  0  0  0  0  0  0  0  0  0  0
   35.3451   30.5647   46.0331 H   0  0  0  0  0  0  0  0  0  0  0  0
  1 14  1  0
  2  1  1  0
  3  2  1  0
  4  3  2  0
  5  4  1  0
  5  7  1  0
  6  5  2  0
  7  8  1  0
  8  2  1  0
  8  9  2  0
 10 12  1  0
 10  7  1  0
 10 11  1  0
 13 10  1  0
 14 17  1  0
 15 20  2  0
 16 17  2  0
 16 15  1  0
 17 18  1  0
 18 19  2  0
 19 21  1  0
 20 19  1  0
 21 22  1  0
 21 24  1  0
 21 23  1  0
  1 25  1  0
  1 26  1  0
  3 27  1  0
  4 28  1  0
 14 29  1  0
 14 30  1  0
 15 31  1  0
 16 32  1  0
M  ISO  8  25   8  26   8  27  14  28  14  29   8  30   8  31  14  32  14
M  END
>  <minimizedAffinity>  (1) 
-5.84680939

>  <minimizedRMSD>  (1) 
3.38899708

$$$$
