
     RDKit          3D

 32 33  0  0  0  0  0  0  0  0999 V2000
   37.2230   31.0070   45.2310 C   0  0  0  0  0  0  0  0  0  0  0  0
   37.7510   31.8010   44.1830 N   0  0  0  0  0  0  0  0  0  0  0  0
   38.9940   32.1980   43.9720 C   0  0  0  0  0  0  0  0  0  0  0  0
   39.4060   32.9700   42.9190 C   0  0  0  0  0  0  0  0  0  0  0  0
   38.4900   33.3870   41.9840 C   0  0  0  0  0  0  0  0  0  0  0  0
   38.7960   34.0930   40.9980 O   0  0  0  0  0  0  0  0  0  0  0  0
   37.2520   33.0000   42.1800 N   0  0  0  0  0  0  0  0  0  0  0  0
   36.8680   32.2490   43.2100 C   0  0  0  0  0  0  0  0  0  0  0  0
   35.6480   31.9360   43.2980 O   0  0  0  0  0  0  0  0  0  0  0  0
   36.2500   33.4270   41.2050 C   0  0  0  0  0  0  0  0  0  0  0  0
   35.2120   32.5110   41.1610 F   0  0  0  0  0  0  0  0  0  0  0  0
   36.8820   33.4080   39.9570 F   0  0  0  0  0  0  0  0  0  0  0  0
   35.8300   34.6830   41.5300 F   0  0  0  0  0  0  0  0  0  0  0  0
   37.7800   31.1220   46.5850 C   0  0  0  0  0  0  0  0  0  0  0  0
   34.8490   29.7410   48.5180 C   0  0  0  0  0  0  0  0  0  0  0  0
   35.6120   30.2980   47.4620 C   0  0  0  0  0  0  0  0  0  0  0  0
   36.9530   30.5480   47.6490 C   0  0  0  0  0  0  0  0  0  0  0  0
   37.5040   30.2430   48.8730 N   0  0  0  0  0  0  0  0  0  0  0  0
   36.7670   29.7260   49.8360 C   0  0  0  0  0  0  0  0  0  0  0  0
   35.4670   29.4660   49.7030 N   0  0  0  0  0  0  0  0  0  0  0  0
   37.3920   29.4170   51.1190 C   0  0  0  0  0  0  0  0  0  0  0  0
   37.2350   30.1360   52.1430 O   0  0  0  0  0  0  0  0  0  0  0  0
   38.2090   28.3230   51.3460 O   0  0  0  0  0  0  0  0  0  0  0  0
   37.3416   29.9569   44.9258 H   0  0  0  0  0  0  0  0  0  0  0  0
   36.1960   31.3844   45.3446 H   0  0  0  0  0  0  0  0  0  0  0  0
   39.7570   31.8836   44.6993 H   0  0  0  0  0  0  0  0  0  0  0  0
   40.4641   33.2546   42.8223 H   0  0  0  0  0  0  0  0  0  0  0  0
   38.7538   30.6106   46.5972 H   0  0  0  0  0  0  0  0  0  0  0  0
   37.8475   32.1992   46.7975 H   0  0  0  0  0  0  0  0  0  0  0  0
   33.7769   29.5338   48.3848 H   0  0  0  0  0  0  0  0  0  0  0  0
   35.1356   30.5295   46.4979 H   0  0  0  0  0  0  0  0  0  0  0  0
   38.5999   28.1749   52.2434 H   0  0  0  0  0  0  0  0  0  0  0  0
  1 14  1  0
  2  1  1  0
  3  2  1  0
  4  3  2  0
  5  7  1  0
  5  4  1  0
  6  5  2  0
  7  8  1  0
  8  9  2  0
  8  2  1  0
 10 13  1  0
 10  7  1  0
 11 10  1  0
 12 10  1  0
 14 17  1  0
 15 20  2  0
 16 17  2  0
 16 15  1  0
 17 18  1  0
 18 19  2  0
 19 21  1  0
 20 19  1  0
 21 23  1  0
 21 22  2  0
  1 24  1  0
  1 25  1  0
  3 26  1  0
  4 27  1  0
 14 28  1  0
 14 29  1  0
 15 30  1  0
 16 31  1  0
 23 32  1  0
M  ISO  8  24   8  25   8  26  14  27  14  28   8  29   8  30  14  31  14
M  ISO  1  32   3
M  END
>  <minimizedAffinity>  (1) 
-4.9971118

>  <minimizedRMSD>  (1) 
1.90196896

$$$$
