
     RDKit          3D

 49 52  0  0  0  0  0  0  0  0999 V2000
   33.4780   28.6480   48.0020 C   0  0  0  0  0  0  0  0  0  0  0  0
   33.7020   28.7110   46.5970 C   0  0  0  0  0  0  0  0  0  0  0  0
   34.7160   29.4640   46.0830 C   0  0  0  0  0  0  0  0  0  0  0  0
   35.5120   30.1600   46.9820 N   0  0  0  0  0  0  0  0  0  0  0  0
   35.2820   30.0820   48.2740 C   0  0  0  0  0  0  0  0  0  0  0  0
   34.3100   29.3650   48.8180 N   0  0  0  0  0  0  0  0  0  0  0  0
   34.9570   29.5390   44.6610 C   0  0  0  0  0  0  0  0  0  0  0  0
   33.8700   30.1150   43.8500 C   0  0  0  0  0  0  0  0  0  0  0  0
   33.9410   31.4520   43.4210 N   0  0  0  0  0  0  0  0  0  0  0  0
   34.9640   32.0880   42.8660 C   0  0  0  0  0  0  0  0  0  0  0  0
   34.9730   33.4020   42.4600 C   0  0  0  0  0  0  0  0  0  0  0  0
   33.8380   34.1520   42.6310 C   0  0  0  0  0  0  0  0  0  0  0  0
   33.7540   35.3490   42.2950 O   0  0  0  0  0  0  0  0  0  0  0  0
   32.8090   33.5390   43.1820 N   0  0  0  0  0  0  0  0  0  0  0  0
   32.8370   32.2690   43.5610 C   0  0  0  0  0  0  0  0  0  0  0  0
   31.7940   31.7620   44.0840 O   0  0  0  0  0  0  0  0  0  0  0  0
   31.5800   34.3120   43.3780 C   0  0  0  0  0  0  0  0  0  0  0  0
   30.4760   33.4960   43.2290 F   0  0  0  0  0  0  0  0  0  0  0  0
   31.5380   35.2730   42.3900 F   0  0  0  0  0  0  0  0  0  0  0  0
   31.6400   34.8790   44.6190 F   0  0  0  0  0  0  0  0  0  0  0  0
   36.1540   30.8390   49.2410 C   0  0  0  0  0  0  0  0  0  0  0  0
   37.6160   30.5240   48.9590 C   0  0  0  0  0  0  0  0  0  0  0  0
   38.3840   31.7030   48.5650 C   0  0  0  0  0  0  0  0  0  0  0  0
   38.4910   32.7280   49.4460 N   0  0  0  0  0  0  0  0  0  0  0  0
   39.1790   33.8600   49.1210 C   0  0  0  0  0  0  0  0  0  0  0  0
   39.7630   33.9550   47.8950 N   0  0  0  0  0  0  0  0  0  0  0  0
   39.6830   32.9620   46.9920 C   0  0  0  0  0  0  0  0  0  0  0  0
   40.2720   33.0500   45.7580 C   0  0  0  0  0  0  0  0  0  0  0  0
   40.2100   32.0410   44.8100 C   0  0  0  0  0  0  0  0  0  0  0  0
   39.5110   30.9070   45.1590 C   0  0  0  0  0  0  0  0  0  0  0  0
   38.9060   30.7920   46.3960 C   0  0  0  0  0  0  0  0  0  0  0  0
   38.9750   31.8030   47.3300 C   0  0  0  0  0  0  0  0  0  0  0  0
   32.6606   28.0411   48.4187 H   0  0  0  0  0  0  0  0  0  0  0  0
   33.0483   28.1447   45.9173 H   0  0  0  0  0  0  0  0  0  0  0  0
   35.8556   30.1537   44.5041 H   0  0  0  0  0  0  0  0  0  0  0  0
   35.0587   28.4973   44.3226 H   0  0  0  0  0  0  0  0  0  0  0  0
   33.7880   29.4957   42.9446 H   0  0  0  0  0  0  0  0  0  0  0  0
   33.0151   30.1185   44.5422 H   0  0  0  0  0  0  0  0  0  0  0  0
   35.8893   31.5122   42.7169 H   0  0  0  0  0  0  0  0  0  0  0  0
   35.8733   33.8427   42.0069 H   0  0  0  0  0  0  0  0  0  0  0  0
   35.9820   31.9189   49.1219 H   0  0  0  0  0  0  0  0  0  0  0  0
   35.9062   30.5396   50.2701 H   0  0  0  0  0  0  0  0  0  0  0  0
   38.0658   30.0996   49.8687 H   0  0  0  0  0  0  0  0  0  0  0  0
   37.6456   29.8140   48.1194 H   0  0  0  0  0  0  0  0  0  0  0  0
   39.2610   34.6870   49.8416 H   0  0  0  0  0  0  0  0  0  0  0  0
   40.8223   33.9687   45.5069 H   0  0  0  0  0  0  0  0  0  0  0  0
   40.6950   32.1410   43.8277 H   0  0  0  0  0  0  0  0  0  0  0  0
   39.4329   30.0780   44.4403 H   0  0  0  0  0  0  0  0  0  0  0  0
   38.3561   29.8714   46.6411 H   0  0  0  0  0  0  0  0  0  0  0  0
  1  6  2  0
  2  1  1  0
  3  2  2  0
  3  4  1  0
  4  5  2  0
  5  6  1  0
  5 21  1  0
  7  3  1  0
  8  7  1  0
  9 15  1  0
  9  8  1  0
 10  9  1  0
 11 12  1  0
 11 10  2  0
 12 14  1  0
 13 12  2  0
 14 17  1  0
 14 15  1  0
 15 16  2  0
 17 20  1  0
 18 17  1  0
 19 17  1  0
 22 21  1  0
 23 22  1  0
 23 24  2  0
 25 24  1  0
 26 25  2  0
 27 32  2  0
 27 26  1  0
 28 27  1  0
 29 30  1  0
 29 28  2  0
 30 31  2  0
 31 32  1  0
 32 23  1  0
  1 33  1  0
  2 34  1  0
  7 35  1  0
  7 36  1  0
  8 37  1  0
  8 38  1  0
 10 39  1  0
 11 40  1  0
 21 41  1  0
 21 42  1  0
 22 43  1  0
 22 44  1  0
 25 45  1  0
 28 46  1  0
 29 47  1  0
 30 48  1  0
 31 49  1  0
M  ISO  8  33  14  34  14  35   8  36   8  37   8  38   8  39  14  40  14
M  ISO  8  41   8  42   8  43   8  44   8  45  14  46  14  47  14  48  14
M  ISO  1  49  14
M  END
>  <minimizedAffinity>  (1) 
-6.61726904

>  <minimizedRMSD>  (1) 
4.44688797

$$$$
