
     RDKit          3D

 48 50  0  0  0  0  0  0  0  0999 V2000
   32.9300   28.1040   49.0960 C   0  0  0  0  0  0  0  0  0  0  0  0
   32.5900   28.2770   47.7230 C   0  0  0  0  0  0  0  0  0  0  0  0
   33.4750   28.7960   46.8290 C   0  0  0  0  0  0  0  0  0  0  0  0
   34.7240   29.1530   47.3010 N   0  0  0  0  0  0  0  0  0  0  0  0
   35.0210   28.9840   48.5790 C   0  0  0  0  0  0  0  0  0  0  0  0
   34.1780   28.4770   49.4900 N   0  0  0  0  0  0  0  0  0  0  0  0
   33.1270   28.9670   45.4410 C   0  0  0  0  0  0  0  0  0  0  0  0
   32.2230   30.0910   45.1320 C   0  0  0  0  0  0  0  0  0  0  0  0
   32.4690   30.9070   44.0160 N   0  0  0  0  0  0  0  0  0  0  0  0
   32.8860   30.5560   42.8100 C   0  0  0  0  0  0  0  0  0  0  0  0
   33.1070   31.4100   41.7530 C   0  0  0  0  0  0  0  0  0  0  0  0
   32.8890   32.7480   41.9250 C   0  0  0  0  0  0  0  0  0  0  0  0
   33.0630   33.5880   41.0260 O   0  0  0  0  0  0  0  0  0  0  0  0
   32.4750   33.1180   43.1170 N   0  0  0  0  0  0  0  0  0  0  0  0
   32.2700   32.2720   44.1170 C   0  0  0  0  0  0  0  0  0  0  0  0
   31.8670   32.7270   45.2380 O   0  0  0  0  0  0  0  0  0  0  0  0
   32.2330   34.5430   43.3290 C   0  0  0  0  0  0  0  0  0  0  0  0
   31.6740   34.7560   44.5770 F   0  0  0  0  0  0  0  0  0  0  0  0
   31.3470   34.9640   42.3650 F   0  0  0  0  0  0  0  0  0  0  0  0
   33.4270   35.1980   43.2150 F   0  0  0  0  0  0  0  0  0  0  0  0
   36.3820   29.3860   49.0640 C   0  0  0  0  0  0  0  0  0  0  0  0
   36.4640   30.8850   49.1600 C   0  0  0  0  0  0  0  0  0  0  0  0
   37.4810   31.5020   48.3700 N   0  0  0  0  0  0  0  0  0  0  0  0
   37.9240   30.7760   47.3160 C   0  0  0  0  0  0  0  0  0  0  0  0
   38.9060   31.2520   46.4690 C   0  0  0  0  0  0  0  0  0  0  0  0
   39.4410   30.5150   45.2940 C   0  0  0  0  0  0  0  0  0  0  0  0
   39.4530   32.4950   46.6970 C   0  0  0  0  0  0  0  0  0  0  0  0
   40.3580   33.0010   45.9650 O   0  0  0  0  0  0  0  0  0  0  0  0
   38.9970   33.2020   47.7530 N   0  0  0  0  0  0  0  0  0  0  0  0
   38.0340   32.7180   48.5730 C   0  0  0  0  0  0  0  0  0  0  0  0
   37.6160   33.3680   49.5430 O   0  0  0  0  0  0  0  0  0  0  0  0
   32.2088   27.6836   49.8124 H   0  0  0  0  0  0  0  0  0  0  0  0
   31.5877   27.9839   47.3774 H   0  0  0  0  0  0  0  0  0  0  0  0
   34.0590   29.1207   44.8774 H   0  0  0  0  0  0  0  0  0  0  0  0
   32.5745   28.0580   45.1609 H   0  0  0  0  0  0  0  0  0  0  0  0
   31.2192   29.6622   44.9960 H   0  0  0  0  0  0  0  0  0  0  0  0
   32.3722   30.7744   45.9810 H   0  0  0  0  0  0  0  0  0  0  0  0
   33.0728   29.4859   42.6366 H   0  0  0  0  0  0  0  0  0  0  0  0
   33.4539   31.0210   40.7843 H   0  0  0  0  0  0  0  0  0  0  0  0
   36.5614   28.9458   50.0560 H   0  0  0  0  0  0  0  0  0  0  0  0
   37.1424   29.0243   48.3562 H   0  0  0  0  0  0  0  0  0  0  0  0
   35.4943   31.2973   48.8443 H   0  0  0  0  0  0  0  0  0  0  0  0
   36.7231   31.1044   50.2063 H   0  0  0  0  0  0  0  0  0  0  0  0
   37.4909   29.7822   47.1297 H   0  0  0  0  0  0  0  0  0  0  0  0
   40.0545   29.6699   45.6395 H   0  0  0  0  0  0  0  0  0  0  0  0
   38.6054   30.1373   44.6865 H   0  0  0  0  0  0  0  0  0  0  0  0
   40.0590   31.1925   44.6865 H   0  0  0  0  0  0  0  0  0  0  0  0
   39.3922   34.1346   47.9400 H   0  0  0  0  0  0  0  0  0  0  0  0
  1  6  2  0
  2  1  1  0
  3  4  1  0
  3  2  2  0
  4  5  2  0
  5 21  1  0
  5  6  1  0
  7  3  1  0
  8  7  1  0
  9 15  1  0
  9  8  1  0
 10  9  1  0
 11 12  1  0
 11 10  2  0
 12 14  1  0
 13 12  2  0
 14 17  1  0
 14 15  1  0
 15 16  2  0
 17 18  1  0
 19 17  1  0
 20 17  1  0
 21 22  1  0
 23 30  1  0
 23 22  1  0
 24 23  1  0
 25 27  1  0
 25 24  2  0
 26 25  1  0
 27 29  1  0
 28 27  2  0
 29 30  1  0
 30 31  2  0
  1 32  1  0
  2 33  1  0
  7 34  1  0
  7 35  1  0
  8 36  1  0
  8 37  1  0
 10 38  1  0
 11 39  1  0
 21 40  1  0
 21 41  1  0
 22 42  1  0
 22 43  1  0
 24 44  1  0
 26 45  1  0
 26 46  1  0
 26 47  1  0
 29 48  1  0
M  ISO  8  32  14  33  14  34   8  35   8  36   8  37   8  38  14  39  14
M  ISO  8  40   8  41   8  42   8  43   8  44  14  45   8  46   8  47   8
M  ISO  1  48   9
M  END
>  <minimizedAffinity>  (1) 
-6.12682247

>  <minimizedRMSD>  (1) 
4.40170765

$$$$
