
     RDKit          3D

 44 46  0  0  0  0  0  0  0  0999 V2000
   33.5030   28.7170   47.9570 C   0  0  0  0  0  0  0  0  0  0  0  0
   33.7260   28.7680   46.5510 C   0  0  0  0  0  0  0  0  0  0  0  0
   34.7460   29.4990   46.0250 C   0  0  0  0  0  0  0  0  0  0  0  0
   35.5530   30.1870   46.9100 N   0  0  0  0  0  0  0  0  0  0  0  0
   35.3420   30.1380   48.2130 C   0  0  0  0  0  0  0  0  0  0  0  0
   34.3540   29.4340   48.7640 N   0  0  0  0  0  0  0  0  0  0  0  0
   34.9750   29.5540   44.6020 C   0  0  0  0  0  0  0  0  0  0  0  0
   33.8940   30.1310   43.7890 C   0  0  0  0  0  0  0  0  0  0  0  0
   33.9620   31.4750   43.3770 N   0  0  0  0  0  0  0  0  0  0  0  0
   34.9830   32.1230   42.8460 C   0  0  0  0  0  0  0  0  0  0  0  0
   34.9870   33.4480   42.4600 C   0  0  0  0  0  0  0  0  0  0  0  0
   33.8510   34.1880   42.6260 C   0  0  0  0  0  0  0  0  0  0  0  0
   33.7600   35.3870   42.3090 O   0  0  0  0  0  0  0  0  0  0  0  0
   32.8210   33.5570   43.1550 N   0  0  0  0  0  0  0  0  0  0  0  0
   32.8530   32.2830   43.5140 C   0  0  0  0  0  0  0  0  0  0  0  0
   31.8040   31.7640   44.0170 O   0  0  0  0  0  0  0  0  0  0  0  0
   31.5920   34.3230   43.3460 C   0  0  0  0  0  0  0  0  0  0  0  0
   30.4860   33.5020   43.2040 F   0  0  0  0  0  0  0  0  0  0  0  0
   31.5410   35.2860   42.3730 F   0  0  0  0  0  0  0  0  0  0  0  0
   31.6280   34.8820   44.5960 F   0  0  0  0  0  0  0  0  0  0  0  0
   36.2280   30.8930   49.1450 C   0  0  0  0  0  0  0  0  0  0  0  0
   37.6730   30.4580   48.9350 C   0  0  0  0  0  0  0  0  0  0  0  0
   38.4250   31.6630   48.4960 C   0  0  0  0  0  0  0  0  0  0  0  0
   38.5270   32.6960   49.4300 C   0  0  0  0  0  0  0  0  0  0  0  0
   39.1980   33.8760   49.1600 C   0  0  0  0  0  0  0  0  0  0  0  0
   39.7700   33.9840   47.9050 C   0  0  0  0  0  0  0  0  0  0  0  0
   39.6620   32.9470   46.9820 C   0  0  0  0  0  0  0  0  0  0  0  0
   38.9930   31.7990   47.2860 N   0  0  0  0  0  0  0  0  0  0  0  0
   32.6791   28.1249   48.3819 H   0  0  0  0  0  0  0  0  0  0  0  0
   33.0614   28.2061   45.8782 H   0  0  0  0  0  0  0  0  0  0  0  0
   35.8800   30.1555   44.4314 H   0  0  0  0  0  0  0  0  0  0  0  0
   35.0577   28.5061   44.2780 H   0  0  0  0  0  0  0  0  0  0  0  0
   33.8247   29.5223   42.8754 H   0  0  0  0  0  0  0  0  0  0  0  0
   33.0317   30.1200   44.4718 H   0  0  0  0  0  0  0  0  0  0  0  0
   35.9137   31.5557   42.6981 H   0  0  0  0  0  0  0  0  0  0  0  0
   35.8905   33.9008   42.0257 H   0  0  0  0  0  0  0  0  0  0  0  0
   36.1367   31.9709   48.9455 H   0  0  0  0  0  0  0  0  0  0  0  0
   35.9297   30.6862   50.1834 H   0  0  0  0  0  0  0  0  0  0  0  0
   38.0926   30.0716   49.8755 H   0  0  0  0  0  0  0  0  0  0  0  0
   37.7388   29.6566   48.1844 H   0  0  0  0  0  0  0  0  0  0  0  0
   38.0570   32.5672   50.4162 H   0  0  0  0  0  0  0  0  0  0  0  0
   39.2724   34.6839   49.9028 H   0  0  0  0  0  0  0  0  0  0  0  0
   40.3162   34.8993   47.6332 H   0  0  0  0  0  0  0  0  0  0  0  0
   40.1247   33.0562   45.9901 H   0  0  0  0  0  0  0  0  0  0  0  0
  1  6  2  0
  2  1  1  0
  3  2  2  0
  3  4  1  0
  4  5  2  0
  5  6  1  0
  5 21  1  0
  7  3  1  0
  8  7  1  0
  9 15  1  0
  9  8  1  0
 10  9  1  0
 11 12  1  0
 11 10  2  0
 12 14  1  0
 13 12  2  0
 14 17  1  0
 14 15  1  0
 15 16  2  0
 17 20  1  0
 18 17  1  0
 19 17  1  0
 22 21  1  0
 23 22  1  0
 23 24  2  0
 25 24  1  0
 26 25  2  0
 27 28  2  0
 27 26  1  0
 28 23  1  0
  1 29  1  0
  2 30  1  0
  7 31  1  0
  7 32  1  0
  8 33  1  0
  8 34  1  0
 10 35  1  0
 11 36  1  0
 21 37  1  0
 21 38  1  0
 22 39  1  0
 22 40  1  0
 24 41  1  0
 25 42  1  0
 26 43  1  0
 27 44  1  0
M  ISO  8  29  14  30  14  31   8  32   8  33   8  34   8  35  14  36  14
M  ISO  8  37   8  38   8  39   8  40   8  41  14  42  14  43  14  44  14
M  END
>  <minimizedAffinity>  (1) 
-5.65283632

>  <minimizedRMSD>  (1) 
4.75556517

$$$$
