
     RDKit          3D

 50 52  0  0  0  0  0  0  0  0999 V2000
   36.8530   30.5670   44.8050 C   0  0  0  0  0  0  0  0  0  0  0  0
   37.8210   30.6570   43.7670 C   0  0  0  0  0  0  0  0  0  0  0  0
   39.1030   31.0280   44.0320 C   0  0  0  0  0  0  0  0  0  0  0  0
   39.3900   31.3040   45.3460 N   0  0  0  0  0  0  0  0  0  0  0  0
   38.4940   31.2200   46.3070 C   0  0  0  0  0  0  0  0  0  0  0  0
   37.2370   30.8610   46.0800 N   0  0  0  0  0  0  0  0  0  0  0  0
   40.1060   31.1240   43.0000 C   0  0  0  0  0  0  0  0  0  0  0  0
   40.9960   29.9540   42.8640 C   0  0  0  0  0  0  0  0  0  0  0  0
   41.1350   29.3160   41.6260 N   0  0  0  0  0  0  0  0  0  0  0  0
   41.7970   29.7100   40.5510 C   0  0  0  0  0  0  0  0  0  0  0  0
   41.8930   29.0190   39.3680 C   0  0  0  0  0  0  0  0  0  0  0  0
   41.2610   27.8120   39.2480 C   0  0  0  0  0  0  0  0  0  0  0  0
   41.2960   27.1180   38.2120 O   0  0  0  0  0  0  0  0  0  0  0  0
   40.5910   27.3930   40.3070 N   0  0  0  0  0  0  0  0  0  0  0  0
   40.5200   28.0850   41.4340 C   0  0  0  0  0  0  0  0  0  0  0  0
   39.8520   27.6040   42.4060 O   0  0  0  0  0  0  0  0  0  0  0  0
   39.9100   26.1100   40.2180 C   0  0  0  0  0  0  0  0  0  0  0  0
   39.5230   25.6840   41.4690 F   0  0  0  0  0  0  0  0  0  0  0  0
   40.8210   25.2050   39.7000 F   0  0  0  0  0  0  0  0  0  0  0  0
   38.8410   26.2630   39.3770 F   0  0  0  0  0  0  0  0  0  0  0  0
   38.8850   31.5470   47.7180 C   0  0  0  0  0  0  0  0  0  0  0  0
   37.7080   32.2280   48.4090 C   0  0  0  0  0  0  0  0  0  0  0  0
   37.5030   31.7360   49.7300 N   0  0  0  0  0  0  0  0  0  0  0  0
   36.1010   31.5310   50.0390 C   0  0  0  0  0  0  0  0  0  0  0  0
   35.5820   30.3490   49.2240 C   0  0  0  0  0  0  0  0  0  0  0  0
   36.1400   29.1060   49.8810 C   0  0  0  0  0  0  0  0  0  0  0  0
   37.4120   29.4310   50.5910 C   0  0  0  0  0  0  0  0  0  0  0  0
   38.2150   30.5070   49.9220 C   0  0  0  0  0  0  0  0  0  0  0  0
   35.8180   30.2670   44.5844 H   0  0  0  0  0  0  0  0  0  0  0  0
   37.5285   30.4228   42.7328 H   0  0  0  0  0  0  0  0  0  0  0  0
   39.5902   31.2702   42.0395 H   0  0  0  0  0  0  0  0  0  0  0  0
   40.7552   31.9637   43.2889 H   0  0  0  0  0  0  0  0  0  0  0  0
   42.0013   30.2841   43.1648 H   0  0  0  0  0  0  0  0  0  0  0  0
   40.5044   29.1912   43.4856 H   0  0  0  0  0  0  0  0  0  0  0  0
   42.3171   30.6775   40.6096 H   0  0  0  0  0  0  0  0  0  0  0  0
   42.4709   29.4311   38.5276 H   0  0  0  0  0  0  0  0  0  0  0  0
   39.1434   30.6218   48.2539 H   0  0  0  0  0  0  0  0  0  0  0  0
   39.7573   32.2172   47.7183 H   0  0  0  0  0  0  0  0  0  0  0  0
   37.9041   33.3092   48.4599 H   0  0  0  0  0  0  0  0  0  0  0  0
   36.8018   32.0132   47.8237 H   0  0  0  0  0  0  0  0  0  0  0  0
   35.9868   31.3180   51.1121 H   0  0  0  0  0  0  0  0  0  0  0  0
   35.5283   32.4361   49.7886 H   0  0  0  0  0  0  0  0  0  0  0  0
   35.9319   30.4202   48.1836 H   0  0  0  0  0  0  0  0  0  0  0  0
   34.4824   30.3306   49.2001 H   0  0  0  0  0  0  0  0  0  0  0  0
   35.4084   28.7166   50.6042 H   0  0  0  0  0  0  0  0  0  0  0  0
   36.3408   28.3487   49.1089 H   0  0  0  0  0  0  0  0  0  0  0  0
   37.1662   29.7634   51.6104 H   0  0  0  0  0  0  0  0  0  0  0  0
   38.0268   28.5189   50.5853 H   0  0  0  0  0  0  0  0  0  0  0  0
   38.5360   30.1365   48.9373 H   0  0  0  0  0  0  0  0  0  0  0  0
   39.0608   30.7317   50.5884 H   0  0  0  0  0  0  0  0  0  0  0  0
  1  6  2  0
  2  3  2  0
  2  1  1  0
  3  4  1  0
  4  5  2  0
  5 21  1  0
  6  5  1  0
  7  3  1  0
  8  7  1  0
  9  8  1  0
 10  9  1  0
 11 10  2  0
 12 11  1  0
 12 14  1  0
 13 12  2  0
 14 15  1  0
 15  9  1  0
 15 16  2  0
 17 14  1  0
 17 18  1  0
 19 17  1  0
 20 17  1  0
 21 22  1  0
 22 23  1  0
 23 28  1  0
 23 24  1  0
 25 26  1  0
 25 24  1  0
 26 27  1  0
 28 27  1  0
  1 29  1  0
  2 30  1  0
  7 31  1  0
  7 32  1  0
  8 33  1  0
  8 34  1  0
 10 35  1  0
 11 36  1  0
 21 37  1  0
 21 38  1  0
 22 39  1  0
 22 40  1  0
 24 41  1  0
 24 42  1  0
 25 43  1  0
 25 44  1  0
 26 45  1  0
 26 46  1  0
 27 47  1  0
 27 48  1  0
 28 49  1  0
 28 50  1  0
M  ISO  8  29  14  30  14  31   8  32   8  33   8  34   8  35  14  36  14
M  ISO  8  37   8  38   8  39   8  40   8  41  13  42  13  43  13  44  13
M  ISO  6  45  13  46  13  47  13  48  13  49  13  50  13
M  END
>  <minimizedAffinity>  (1) 
-5.25888157

>  <minimizedRMSD>  (1) 
5.74850655

$$$$
