
     RDKit          3D

 37 38  0  0  0  0  0  0  0  0999 V2000
   37.4490   31.2410   46.3270 C   0  0  0  0  0  0  0  0  0  0  0  0
   34.5980   29.6140   48.1500 C   0  0  0  0  0  0  0  0  0  0  0  0
   35.3470   30.3100   47.1600 C   0  0  0  0  0  0  0  0  0  0  0  0
   36.6800   30.5340   47.3200 C   0  0  0  0  0  0  0  0  0  0  0  0
   37.2570   30.0570   48.4720 N   0  0  0  0  0  0  0  0  0  0  0  0
   36.5680   29.4150   49.3860 C   0  0  0  0  0  0  0  0  0  0  0  0
   35.2680   29.1750   49.2730 N   0  0  0  0  0  0  0  0  0  0  0  0
   37.2200   28.9070   50.6370 C   0  0  0  0  0  0  0  0  0  0  0  0
   37.3040   30.0320   51.6600 C   0  0  0  0  0  0  0  0  0  0  0  0
   38.1450   29.5160   52.7370 N   0  0  0  0  0  0  0  0  0  0  0  0
   37.1370   30.9440   44.9240 C   0  0  0  0  0  0  0  0  0  0  0  0
   37.6690   31.7520   43.8990 N   0  0  0  0  0  0  0  0  0  0  0  0
   38.9340   32.0300   43.6460 C   0  0  0  0  0  0  0  0  0  0  0  0
   39.3960   32.8320   42.6180 C   0  0  0  0  0  0  0  0  0  0  0  0
   38.4900   33.4020   41.7700 C   0  0  0  0  0  0  0  0  0  0  0  0
   38.8160   34.1370   40.8200 O   0  0  0  0  0  0  0  0  0  0  0  0
   37.2200   33.1350   42.0080 N   0  0  0  0  0  0  0  0  0  0  0  0
   36.8110   32.3640   43.0010 C   0  0  0  0  0  0  0  0  0  0  0  0
   35.5640   32.1610   43.1540 O   0  0  0  0  0  0  0  0  0  0  0  0
   36.2290   33.7320   41.1170 C   0  0  0  0  0  0  0  0  0  0  0  0
   35.4390   32.7580   40.5540 F   0  0  0  0  0  0  0  0  0  0  0  0
   36.9170   34.3640   40.0990 F   0  0  0  0  0  0  0  0  0  0  0  0
   35.4820   34.6130   41.8450 F   0  0  0  0  0  0  0  0  0  0  0  0
   37.2887   32.3178   46.4844 H   0  0  0  0  0  0  0  0  0  0  0  0
   38.4874   30.9080   46.4713 H   0  0  0  0  0  0  0  0  0  0  0  0
   33.5205   29.4322   48.0238 H   0  0  0  0  0  0  0  0  0  0  0  0
   34.8414   30.6721   46.2526 H   0  0  0  0  0  0  0  0  0  0  0  0
   36.6247   28.0795   51.0504 H   0  0  0  0  0  0  0  0  0  0  0  0
   38.2333   28.5491   50.4024 H   0  0  0  0  0  0  0  0  0  0  0  0
   37.7597   30.9269   51.2112 H   0  0  0  0  0  0  0  0  0  0  0  0
   36.3093   30.3283   52.0244 H   0  0  0  0  0  0  0  0  0  0  0  0
   37.7324   29.7692   53.6461 H   0  0  0  0  0  0  0  0  0  0  0  0
   38.2080   28.4907   52.6622 H   0  0  0  0  0  0  0  0  0  0  0  0
   37.4831   29.9177   44.7318 H   0  0  0  0  0  0  0  0  0  0  0  0
   36.0551   31.1321   44.8595 H   0  0  0  0  0  0  0  0  0  0  0  0
   39.6879   31.5844   44.3116 H   0  0  0  0  0  0  0  0  0  0  0  0
   40.4739   33.0075   42.4860 H   0  0  0  0  0  0  0  0  0  0  0  0
  1  4  1  0
  2  7  2  0
  3  4  2  0
  3  2  1  0
  4  5  1  0
  5  6  2  0
  6  8  1  0
  7  6  1  0
  8  9  1  0
  9 10  1  0
 11  1  1  0
 12 11  1  0
 13 12  1  0
 14 13  2  0
 15 17  1  0
 15 14  1  0
 16 15  2  0
 17 18  1  0
 18 19  2  0
 18 12  1  0
 20 23  1  0
 20 17  1  0
 21 20  1  0
 22 20  1  0
  1 24  1  0
  1 25  1  0
  2 26  1  0
  3 27  1  0
  8 28  1  0
  8 29  1  0
  9 30  1  0
  9 31  1  0
 10 32  1  0
 10 33  1  0
 11 34  1  0
 11 35  1  0
 13 36  1  0
 14 37  1  0
M  ISO  8  24   8  25   8  26  14  27  14  28   8  29   8  30   8  31   8
M  ISO  6  32   5  33   5  34   8  35   8  36  14  37  14
M  END
>  <minimizedAffinity>  (1) 
-4.62400436

>  <minimizedRMSD>  (1) 
0.150942013

$$$$
