
     RDKit          3D

 29 31  0  0  0  0  0  0  0  0999 V2000
   34.9080   29.6260   48.4780 C   0  0  0  0  0  0  0  0  0  0  0  0
   34.5800   29.1090   49.7260 C   0  0  0  0  0  0  0  0  0  0  0  0
   35.3650   29.2060   50.8410 C   0  0  0  0  0  0  0  0  0  0  0  0
   36.5700   29.8540   50.7610 C   0  0  0  0  0  0  0  0  0  0  0  0
   36.9600   30.3870   49.5750 C   0  0  0  0  0  0  0  0  0  0  0  0
   38.1790   31.0320   49.5350 C   0  0  0  0  0  0  0  0  0  0  0  0
   38.6360   31.5910   48.3780 C   0  0  0  0  0  0  0  0  0  0  0  0
   37.8320   31.4870   47.2520 C   0  0  0  0  0  0  0  0  0  0  0  0
   36.6250   30.8330   47.3480 C   0  0  0  0  0  0  0  0  0  0  0  0
   36.1360   30.2650   48.4770 C   0  0  0  0  0  0  0  0  0  0  0  0
   33.3830   27.8950   45.7220 C   0  0  0  0  0  0  0  0  0  0  0  0
   32.5750   28.8130   45.0470 C   0  0  0  0  0  0  0  0  0  0  0  0
   32.5520   30.0900   45.5650 C   0  0  0  0  0  0  0  0  0  0  0  0
   33.2890   30.3560   46.6530 N   0  0  0  0  0  0  0  0  0  0  0  0
   34.0600   29.5110   47.3100 C   0  0  0  0  0  0  0  0  0  0  0  0
   34.0600   28.2910   46.7860 N   0  0  0  0  0  0  0  0  0  0  0  0
   37.4110   29.9500   51.9900 C   0  0  0  0  0  0  0  0  0  0  0  0
   33.6186   28.5835   49.8235 H   0  0  0  0  0  0  0  0  0  0  0  0
   35.0325   28.7680   51.7937 H   0  0  0  0  0  0  0  0  0  0  0  0
   38.7898   31.0962   50.4476 H   0  0  0  0  0  0  0  0  0  0  0  0
   39.6073   32.1059   48.3389 H   0  0  0  0  0  0  0  0  0  0  0  0
   38.1553   31.9218   46.2947 H   0  0  0  0  0  0  0  0  0  0  0  0
   36.0099   30.7662   46.4385 H   0  0  0  0  0  0  0  0  0  0  0  0
   33.4551   26.8546   45.3722 H   0  0  0  0  0  0  0  0  0  0  0  0
   31.9927   28.5338   44.1565 H   0  0  0  0  0  0  0  0  0  0  0  0
   31.9413   30.8751   45.0953 H   0  0  0  0  0  0  0  0  0  0  0  0
   36.7690   29.8767   52.8802 H   0  0  0  0  0  0  0  0  0  0  0  0
   38.1438   29.1297   51.9978 H   0  0  0  0  0  0  0  0  0  0  0  0
   37.9401   30.9144   51.9978 H   0  0  0  0  0  0  0  0  0  0  0  0
  1  2  2  0
  2  3  1  0
  4  3  2  0
  4 17  1  0
  5  4  1  0
  6  5  2  0
  7  6  1  0
  8  9  1  0
  8  7  2  0
  9 10  2  0
 10  1  1  0
 10  5  1  0
 11 16  2  0
 12 13  2  0
 12 11  1  0
 13 14  1  0
 14 15  2  0
 15  1  1  0
 16 15  1  0
  2 18  1  0
  3 19  1  0
  6 20  1  0
  7 21  1  0
  8 22  1  0
  9 23  1  0
 11 24  1  0
 12 25  1  0
 13 26  1  0
 17 27  1  0
 17 28  1  0
 17 29  1  0
M  ISO  8  18  14  19  14  20  14  21  14  22  14  23  14  24  14  25  14
M  ISO  4  26  14  27   8  28   8  29   8
M  END
>  <minimizedAffinity>  (1) 
-6.30847025

>  <minimizedRMSD>  (1) 
1.12631059

$$$$
