
     RDKit          3D

 28 30  0  0  0  0  0  0  0  0999 V2000
   35.0430   29.6190   48.6990 C   0  0  0  0  0  0  0  0  0  0  0  0
   34.7760   29.0720   49.9490 C   0  0  0  0  0  0  0  0  0  0  0  0
   35.6120   29.1840   51.0300 C   0  0  0  0  0  0  0  0  0  0  0  0
   36.7850   29.8640   50.9150 C   0  0  0  0  0  0  0  0  0  0  0  0
   37.1100   30.4240   49.7200 C   0  0  0  0  0  0  0  0  0  0  0  0
   38.3090   31.1080   49.6360 C   0  0  0  0  0  0  0  0  0  0  0  0
   38.7010   31.6960   48.4720 C   0  0  0  0  0  0  0  0  0  0  0  0
   37.8520   31.5810   47.3810 C   0  0  0  0  0  0  0  0  0  0  0  0
   36.6750   30.8950   47.5080 C   0  0  0  0  0  0  0  0  0  0  0  0
   36.2460   30.2960   48.6440 C   0  0  0  0  0  0  0  0  0  0  0  0
   33.3190   27.8560   46.0760 C   0  0  0  0  0  0  0  0  0  0  0  0
   32.5420   28.7690   45.3870 C   0  0  0  0  0  0  0  0  0  0  0  0
   32.6120   30.0660   45.8450 C   0  0  0  0  0  0  0  0  0  0  0  0
   33.3970   30.3480   46.8900 N   0  0  0  0  0  0  0  0  0  0  0  0
   34.1490   29.4920   47.5660 C   0  0  0  0  0  0  0  0  0  0  0  0
   34.0610   28.2480   47.1010 N   0  0  0  0  0  0  0  0  0  0  0  0
   37.6130   29.9460   52.0710 N   0  0  0  0  0  0  0  0  0  0  0  0
   33.8363   28.5151   50.0787 H   0  0  0  0  0  0  0  0  0  0  0  0
   35.3345   28.7242   51.9900 H   0  0  0  0  0  0  0  0  0  0  0  0
   38.9559   31.1781   50.5229 H   0  0  0  0  0  0  0  0  0  0  0  0
   39.6538   32.2410   48.3997 H   0  0  0  0  0  0  0  0  0  0  0  0
   38.1237   32.0391   46.4185 H   0  0  0  0  0  0  0  0  0  0  0  0
   36.0288   30.8248   46.6206 H   0  0  0  0  0  0  0  0  0  0  0  0
   33.3210   26.7990   45.7715 H   0  0  0  0  0  0  0  0  0  0  0  0
   31.9121   28.4797   44.5329 H   0  0  0  0  0  0  0  0  0  0  0  0
   32.0288   30.8607   45.3567 H   0  0  0  0  0  0  0  0  0  0  0  0
   38.5094   30.4514   52.0276 H   0  0  0  0  0  0  0  0  0  0  0  0
   37.3153   29.4999   52.9504 H   0  0  0  0  0  0  0  0  0  0  0  0
  1  2  2  0
  2  3  1  0
  4  3  2  0
  4 17  1  0
  5  4  1  0
  6  5  2  0
  7  6  1  0
  8  9  1  0
  8  7  2  0
  9 10  2  0
 10  1  1  0
 10  5  1  0
 11 16  2  0
 12 13  2  0
 12 11  1  0
 13 14  1  0
 14 15  2  0
 15  1  1  0
 16 15  1  0
  2 18  1  0
  3 19  1  0
  6 20  1  0
  7 21  1  0
  8 22  1  0
  9 23  1  0
 11 24  1  0
 12 25  1  0
 13 26  1  0
 17 27  1  0
 17 28  1  0
M  ISO  8  18  14  19  14  20  14  21  14  22  14  23  14  24  14  25  14
M  ISO  1  26  14
M  END
>  <minimizedAffinity>  (1) 
-6.24636841

>  <minimizedRMSD>  (1) 
0.905449569

$$$$
