
     RDKit          3D

 40 42  0  0  0  0  0  0  0  0999 V2000
   36.8440   30.7870   46.1020 C   0  0  0  0  0  0  0  0  0  0  0  0
   35.8260   30.0260   46.6550 C   0  0  0  0  0  0  0  0  0  0  0  0
   35.5200   29.9840   47.9790 C   0  0  0  0  0  0  0  0  0  0  0  0
   36.2390   30.7310   48.8750 C   0  0  0  0  0  0  0  0  0  0  0  0
   37.2460   31.4950   48.4000 C   0  0  0  0  0  0  0  0  0  0  0  0
   37.9710   32.2470   49.3000 C   0  0  0  0  0  0  0  0  0  0  0  0
   39.0000   33.0410   48.8980 C   0  0  0  0  0  0  0  0  0  0  0  0
   39.3080   33.0800   47.5460 C   0  0  0  0  0  0  0  0  0  0  0  0
   38.5700   32.3240   46.6830 C   0  0  0  0  0  0  0  0  0  0  0  0
   37.5450   31.5270   47.0530 C   0  0  0  0  0  0  0  0  0  0  0  0
   36.1270   31.3220   42.6150 C   0  0  0  0  0  0  0  0  0  0  0  0
   37.2920   30.9970   41.9130 C   0  0  0  0  0  0  0  0  0  0  0  0
   38.3570   30.5810   42.6590 C   0  0  0  0  0  0  0  0  0  0  0  0
   38.1860   30.5260   43.9710 N   0  0  0  0  0  0  0  0  0  0  0  0
   37.1430   30.8090   44.6840 C   0  0  0  0  0  0  0  0  0  0  0  0
   36.1130   31.2130   43.9390 N   0  0  0  0  0  0  0  0  0  0  0  0
   39.6160   30.2090   42.1070 N   0  0  0  0  0  0  0  0  0  0  0  0
   40.7440   29.9190   42.9030 C   0  0  0  0  0  0  0  0  0  0  0  0
   40.9570   30.6560   43.9460 N   0  0  0  0  0  0  0  0  0  0  0  0
   41.6040   28.8560   42.5640 N   0  0  0  0  0  0  0  0  0  0  0  0
   41.7060   30.5620   44.6230 H   0  0  0  0  0  0  0  0  0  0  0  0
   37.4180   31.0820   40.4370 C   0  0  0  0  0  0  0  0  0  0  0  0
   35.9150   30.6750   50.2110 O   0  0  0  0  0  0  0  0  0  0  0  0
   36.4190   29.6370   51.0320 C   0  0  0  0  0  0  0  0  0  0  0  0
   37.2350   28.7360   50.4090 F   0  0  0  0  0  0  0  0  0  0  0  0
   37.1980   30.2320   52.0190 F   0  0  0  0  0  0  0  0  0  0  0  0
   35.3160   28.9970   51.5850 F   0  0  0  0  0  0  0  0  0  0  0  0
   35.2213   29.4108   45.9725 H   0  0  0  0  0  0  0  0  0  0  0  0
   34.6937   29.3492   48.3316 H   0  0  0  0  0  0  0  0  0  0  0  0
   37.7113   32.2039   50.3680 H   0  0  0  0  0  0  0  0  0  0  0  0
   39.5721   33.6358   49.6252 H   0  0  0  0  0  0  0  0  0  0  0  0
   40.1317   33.7086   47.1768 H   0  0  0  0  0  0  0  0  0  0  0  0
   38.8272   32.3666   45.6143 H   0  0  0  0  0  0  0  0  0  0  0  0
   35.2312   31.6645   42.0763 H   0  0  0  0  0  0  0  0  0  0  0  0
   39.7069   30.1491   41.0828 H   0  0  0  0  0  0  0  0  0  0  0  0
   42.4254   28.6510   43.1506 H   0  0  0  0  0  0  0  0  0  0  0  0
   41.4114   28.2838   41.7295 H   0  0  0  0  0  0  0  0  0  0  0  0
   38.3044   31.6799   40.1785 H   0  0  0  0  0  0  0  0  0  0  0  0
   37.5238   30.0700   40.0191 H   0  0  0  0  0  0  0  0  0  0  0  0
   36.5192   31.5591   40.0191 H   0  0  0  0  0  0  0  0  0  0  0  0
  1  2  2  0
  1 10  1  0
  2  3  1  0
  3  4  2  0
  4 23  1  0
  5  4  1  0
  5  6  2  0
  7  6  1  0
  8  7  2  0
  9 10  2  0
  9  8  1  0
 10  5  1  0
 11 16  2  0
 12 11  1  0
 12 13  2  0
 13 14  1  0
 14 15  2  0
 15  1  1  0
 16 15  1  0
 17 13  1  0
 17 18  1  0
 18 19  2  0
 19 21  1  0
 20 18  1  0
 22 12  1  0
 23 24  1  0
 24 27  1  0
 24 26  1  0
 25 24  1  0
  2 28  1  0
  3 29  1  0
  6 30  1  0
  7 31  1  0
  8 32  1  0
  9 33  1  0
 11 34  1  0
 17 35  1  0
 20 36  1  0
 20 37  1  0
 22 38  1  0
 22 39  1  0
 22 40  1  0
M  ISO  8  28  14  29  14  30  14  31  14  32  14  33  14  34  14  38   8
M  ISO  2  39   8  40   8
M  END
>  <minimizedAffinity>  (1) 
-7.54383039

>  <minimizedRMSD>  (1) 
0.0141659873

$$$$
