
     RDKit          3D

 39 41  0  0  0  0  0  0  0  0999 V2000
   38.2750   32.4450   44.9490 C   0  0  0  0  0  0  0  0  0  0  0  0
   38.7780   31.8660   43.6610 C   0  0  0  0  0  0  0  0  0  0  0  0
   39.2360   32.7600   42.6280 C   0  0  0  0  0  0  0  0  0  0  0  0
   39.7220   31.5830   41.3220 S   0  0  0  0  0  0  0  0  0  0  0  0
   39.2240   30.0980   42.3930 C   0  0  0  0  0  0  0  0  0  0  0  0
   38.8570   30.5940   43.3390 N   0  0  0  0  0  0  0  0  0  0  0  0
   39.2600   28.5990   42.1530 N   0  0  0  0  0  0  0  0  0  0  0  0
   39.1040   27.7450   43.1520 C   0  0  0  0  0  0  0  0  0  0  0  0
   39.1560   26.3980   42.8100 C   0  0  0  0  0  0  0  0  0  0  0  0
   39.3650   26.0820   41.4670 C   0  0  0  0  0  0  0  0  0  0  0  0
   39.4020   24.6770   41.2250 N   0  0  0  0  0  0  0  0  0  0  0  0
   39.5120   27.0310   40.5250 N   0  0  0  0  0  0  0  0  0  0  0  0
   39.4610   28.3120   40.8590 C   0  0  0  0  0  0  0  0  0  0  0  0
   39.6020   29.1810   39.9580 O   0  0  0  0  0  0  0  0  0  0  0  0
   39.2690   32.3450   46.0580 C   0  0  0  0  0  0  0  0  0  0  0  0
   38.0410   32.7510   49.6290 C   0  0  0  0  0  0  0  0  0  0  0  0
   38.8030   32.9600   48.4790 C   0  0  0  0  0  0  0  0  0  0  0  0
   38.5340   32.2150   47.3350 C   0  0  0  0  0  0  0  0  0  0  0  0
   37.5190   31.3000   47.3970 N   0  0  0  0  0  0  0  0  0  0  0  0
   36.7970   31.1160   48.5210 C   0  0  0  0  0  0  0  0  0  0  0  0
   37.0370   31.8190   49.6290 N   0  0  0  0  0  0  0  0  0  0  0  0
   40.0780   31.0590   45.8940 C   0  0  0  0  0  0  0  0  0  0  0  0
   40.2020   33.4990   46.0040 C   0  0  0  0  0  0  0  0  0  0  0  0
   37.3637   31.9045   45.2446 H   0  0  0  0  0  0  0  0  0  0  0  0
   38.0793   33.5136   44.7764 H   0  0  0  0  0  0  0  0  0  0  0  0
   39.2807   33.8591   42.6272 H   0  0  0  0  0  0  0  0  0  0  0  0
   38.9433   28.0795   44.1875 H   0  0  0  0  0  0  0  0  0  0  0  0
   39.0369   25.6113   43.5696 H   0  0  0  0  0  0  0  0  0  0  0  0
   39.5507   24.3228   40.2693 H   0  0  0  0  0  0  0  0  0  0  0  0
   39.2801   24.0165   42.0059 H   0  0  0  0  0  0  0  0  0  0  0  0
   38.2469   33.3359   50.5376 H   0  0  0  0  0  0  0  0  0  0  0  0
   39.6098   33.7077   48.4768 H   0  0  0  0  0  0  0  0  0  0  0  0
   35.9905   30.3680   48.5243 H   0  0  0  0  0  0  0  0  0  0  0  0
   40.3314   30.6562   46.8858 H   0  0  0  0  0  0  0  0  0  0  0  0
   39.4823   30.3193   45.3391 H   0  0  0  0  0  0  0  0  0  0  0  0
   41.0027   31.2758   45.3391 H   0  0  0  0  0  0  0  0  0  0  0  0
   40.4561   33.8133   47.0271 H   0  0  0  0  0  0  0  0  0  0  0  0
   41.1190   33.2046   45.4725 H   0  0  0  0  0  0  0  0  0  0  0  0
   39.7221   34.3340   45.4725 H   0  0  0  0  0  0  0  0  0  0  0  0
  1 15  1  0
  2  1  1  0
  3  2  2  0
  4  5  1  0
  4  3  1  0
  5  6  2  0
  6  2  1  0
  7  5  1  0
  7  8  1  0
  9  8  2  0
 10  9  1  0
 11 10  1  0
 12 13  1  0
 12 10  2  0
 13  7  1  0
 14 13  2  0
 15 18  1  0
 17 16  2  0
 18 19  2  0
 18 17  1  0
 19 20  1  0
 20 21  2  0
 21 16  1  0
 22 15  1  0
 23 15  1  0
  1 24  1  0
  1 25  1  0
  3 26  1  0
  8 27  1  0
  9 28  1  0
 11 29  1  0
 11 30  1  0
 16 31  1  0
 17 32  1  0
 20 33  1  0
 22 34  1  0
 22 35  1  0
 22 36  1  0
 23 37  1  0
 23 38  1  0
 23 39  1  0
M  ISO  8  24   8  25   8  26  14  27  14  28  14  31  14  32  14  33  14
M  ISO  6  34   8  35   8  36   8  37   8  38   8  39   8
M  END
>  <minimizedAffinity>  (1) 
-5.80666971

>  <minimizedRMSD>  (1) 
0.887503982

$$$$
