
     RDKit          3D

 26 27  0  0  1  0  0  0  0  0999 V2000
   38.7510   32.3760   47.8690 N   0  0  0  0  0  0  0  0  0  0  0  0
   38.9390   33.4210   48.8780 C   0  0  0  0  0  0  0  0  0  0  0  0
   37.6670   33.3260   49.6490 C   0  0  0  0  0  0  0  0  0  0  0  0
   37.4670   31.8600   49.7830 C   0  0  0  0  0  0  0  0  0  0  0  0
   38.2770   31.2680   48.6620 C   0  0  1  0  0  0  0  0  0  0  0  0
   38.9980   32.4950   46.4840 C   0  0  0  0  0  0  0  0  0  0  0  0
   40.2730   32.7430   45.9540 C   0  0  0  0  0  0  0  0  0  0  0  0
   40.4400   32.8490   44.5690 C   0  0  0  0  0  0  0  0  0  0  0  0
   39.3370   32.7040   43.7850 N   0  0  0  0  0  0  0  0  0  0  0  0
   38.1160   32.4660   44.3130 C   0  0  0  0  0  0  0  0  0  0  0  0
   37.9730   32.3670   45.6520 N   0  0  0  0  0  0  0  0  0  0  0  0
   37.5210   30.2160   47.9040 C   0  0  0  0  0  0  0  0  0  0  0  0
   36.0380   30.2750   48.0330 C   0  0  0  0  0  0  0  0  0  0  0  0
   35.6360   31.2130   48.4540 H   0  0  0  0  0  0  0  0  0  0  0  0
   39.8110   33.2116   49.5150 H   0  0  0  0  0  0  0  0  0  0  0  0
   39.1339   34.4187   48.4578 H   0  0  0  0  0  0  0  0  0  0  0  0
   37.7656   33.8035   50.6351 H   0  0  0  0  0  0  0  0  0  0  0  0
   36.8240   33.8359   49.1597 H   0  0  0  0  0  0  0  0  0  0  0  0
   37.8330   31.5047   50.7575 H   0  0  0  0  0  0  0  0  0  0  0  0
   36.4059   31.5749   49.7296 H   0  0  0  0  0  0  0  0  0  0  0  0
   39.1453   30.7075   49.0387 H   0  0  0  0  0  0  0  0  0  0  0  0
   41.1379   32.8537   46.6246 H   0  0  0  0  0  0  0  0  0  0  0  0
   41.4292   33.0429   44.1287 H   0  0  0  0  0  0  0  0  0  0  0  0
   37.2421   32.3534   43.6545 H   0  0  0  0  0  0  0  0  0  0  0  0
   38.0276   29.4532   47.2945 H   0  0  0  0  0  0  0  0  0  0  0  0
   35.3881   29.4410   47.7295 H   0  0  0  0  0  0  0  0  0  0  0  0
  1  5  1  0
  1  2  1  0
  2  3  1  0
  3  4  1  0
  5  4  1  0
  6  1  1  0
  7  6  2  0
  8  7  1  0
  9 10  1  0
  9  8  2  0
 10 11  2  0
 11  6  1  0
 12 13  2  0
 12  5  1  0
 13 14  1  0
  2 15  1  0
  2 16  1  0
  3 17  1  0
  3 18  1  0
  4 19  1  0
  4 20  1  0
  5 21  1  1
  7 22  1  0
  8 23  1  0
 10 24  1  0
 12 25  1  0
 13 26  1  0
M  ISO  8  15  13  16  13  17  13  18  13  19  13  20  13  21  13  22  14
M  ISO  2  23  14  24  14
M  END
>  <minimizedAffinity>  (1) 
-4.7227664

>  <minimizedRMSD>  (1) 
5.57286596

$$$$
