
     RDKit          3D

 31 32  0  0  1  0  0  0  0  0999 V2000
   37.4020   31.0800   48.1110 N   0  0  0  0  0  0  0  0  0  0  0  0
   38.3870   32.0880   47.7750 C   0  0  0  0  0  0  0  0  0  0  0  0
   38.4900   32.8630   49.0490 C   0  0  0  0  0  0  0  0  0  0  0  0
   38.5890   31.7650   50.0610 C   0  0  0  0  0  0  0  0  0  0  0  0
   37.8940   30.6180   49.3940 C   0  0  1  0  0  0  0  0  0  0  0  0
   36.2720   30.6800   47.3540 C   0  0  0  0  0  0  0  0  0  0  0  0
   36.3960   30.3490   45.9980 C   0  0  0  0  0  0  0  0  0  0  0  0
   35.2150   29.9490   45.3180 C   0  0  0  0  0  0  0  0  0  0  0  0
   34.0350   29.9140   46.0250 N   0  0  0  0  0  0  0  0  0  0  0  0
   33.9740   30.2450   47.3330 C   0  0  0  0  0  0  0  0  0  0  0  0
   35.0980   30.6210   47.9660 N   0  0  0  0  0  0  0  0  0  0  0  0
   36.8440   30.1220   50.3290 C   0  0  0  0  0  0  0  0  0  0  0  0
   36.6160   28.6490   49.9560 C   0  0  0  0  0  0  0  0  0  0  0  0
   37.3040   30.1480   51.7710 C   0  0  0  0  0  0  0  0  0  0  0  0
   39.3508   31.6306   47.5070 H   0  0  0  0  0  0  0  0  0  0  0  0
   38.1123   32.7021   46.9047 H   0  0  0  0  0  0  0  0  0  0  0  0
   39.3861   33.5009   49.0596 H   0  0  0  0  0  0  0  0  0  0  0  0
   37.6531   33.5560   49.2205 H   0  0  0  0  0  0  0  0  0  0  0  0
   39.6398   31.5190   50.2740 H   0  0  0  0  0  0  0  0  0  0  0  0
   38.1446   32.0323   51.0311 H   0  0  0  0  0  0  0  0  0  0  0  0
   38.5530   29.7634   49.1809 H   0  0  0  0  0  0  0  0  0  0  0  0
   37.3665   30.3969   45.4823 H   0  0  0  0  0  0  0  0  0  0  0  0
   35.2429   29.6742   44.2533 H   0  0  0  0  0  0  0  0  0  0  0  0
   33.0165   30.2073   47.8731 H   0  0  0  0  0  0  0  0  0  0  0  0
   35.9490   30.7557   50.2430 H   0  0  0  0  0  0  0  0  0  0  0  0
   36.5231   28.0487   50.8731 H   0  0  0  0  0  0  0  0  0  0  0  0
   35.6933   28.5593   49.3640 H   0  0  0  0  0  0  0  0  0  0  0  0
   37.4684   28.2845   49.3640 H   0  0  0  0  0  0  0  0  0  0  0  0
   36.4291   30.0985   52.4359 H   0  0  0  0  0  0  0  0  0  0  0  0
   37.9593   29.2855   51.9625 H   0  0  0  0  0  0  0  0  0  0  0  0
   37.8579   31.0789   51.9625 H   0  0  0  0  0  0  0  0  0  0  0  0
  1  5  1  0
  2  1  1  0
  2  3  1  0
  3  4  1  0
  5  4  1  0
  5 12  1  0
  6 11  1  0
  6  1  1  0
  7  6  2  0
  8  7  1  0
  8  9  2  0
  9 10  1  0
 10 11  2  0
 12 14  1  0
 13 12  1  0
  2 15  1  0
  2 16  1  0
  3 17  1  0
  3 18  1  0
  4 19  1  0
  4 20  1  0
  5 21  1  6
  7 22  1  0
  8 23  1  0
 10 24  1  0
 12 25  1  0
 13 26  1  0
 13 27  1  0
 13 28  1  0
 14 29  1  0
 14 30  1  0
 14 31  1  0
M  ISO  8  15  13  16  13  17  13  18  13  19  13  20  13  21  13  22  14
M  ISO  8  23  14  24  14  25   8  26   8  27   8  28   8  29   8  30   8
M  ISO  1  31   8
M  END
>  <minimizedAffinity>  (1) 
-4.64352751

>  <minimizedRMSD>  (1) 
2.24803066

$$$$
