
     RDKit          3D

 29 31  0  0  1  0  0  0  0  0999 V2000
   37.4290   30.7990   46.0570 N   0  0  0  0  0  0  0  0  0  0  0  0
   38.1530   31.2260   44.8610 C   0  0  0  0  0  0  0  0  0  0  0  0
   38.8120   32.4790   45.3200 C   0  0  0  0  0  0  0  0  0  0  0  0
   39.2820   32.1300   46.6860 C   0  0  0  0  0  0  0  0  0  0  0  0
   38.4420   30.9200   47.0660 C   0  0  1  0  0  0  0  0  0  0  0  0
   36.0810   30.3830   46.1240 C   0  0  0  0  0  0  0  0  0  0  0  0
   35.3630   29.9780   44.9680 C   0  0  0  0  0  0  0  0  0  0  0  0
   34.0180   29.5760   45.1260 C   0  0  0  0  0  0  0  0  0  0  0  0
   33.4780   29.5990   46.3790 N   0  0  0  0  0  0  0  0  0  0  0  0
   34.2010   29.9930   47.4530 C   0  0  0  0  0  0  0  0  0  0  0  0
   35.4740   30.3720   47.3040 N   0  0  0  0  0  0  0  0  0  0  0  0
   37.9300   31.0540   48.4540 C   0  0  0  0  0  0  0  0  0  0  0  0
   37.8840   30.1650   49.5040 C   0  0  0  0  0  0  0  0  0  0  0  0
   37.3150   30.7290   50.6240 C   0  0  0  0  0  0  0  0  0  0  0  0
   37.0270   32.0000   50.1790 C   0  0  0  0  0  0  0  0  0  0  0  0
   37.3860   32.1640   48.9400 O   0  0  0  0  0  0  0  0  0  0  0  0
   37.4636   31.4211   44.0264 H   0  0  0  0  0  0  0  0  0  0  0  0
   38.8573   30.4720   44.4796 H   0  0  0  0  0  0  0  0  0  0  0  0
   39.6568   32.7432   44.6669 H   0  0  0  0  0  0  0  0  0  0  0  0
   38.1427   33.3518   45.3022 H   0  0  0  0  0  0  0  0  0  0  0  0
   40.3523   31.8762   46.6783 H   0  0  0  0  0  0  0  0  0  0  0  0
   39.1721   32.9620   47.3971 H   0  0  0  0  0  0  0  0  0  0  0  0
   39.0229   29.9862   47.0877 H   0  0  0  0  0  0  0  0  0  0  0  0
   35.8407   29.9773   43.9771 H   0  0  0  0  0  0  0  0  0  0  0  0
   33.4209   29.2525   44.2606 H   0  0  0  0  0  0  0  0  0  0  0  0
   33.7396   30.0014   48.4515 H   0  0  0  0  0  0  0  0  0  0  0  0
   38.2561   29.1310   49.4545 H   0  0  0  0  0  0  0  0  0  0  0  0
   37.1374   30.2821   51.6133 H   0  0  0  0  0  0  0  0  0  0  0  0
   36.5528   32.7787   50.7944 H   0  0  0  0  0  0  0  0  0  0  0  0
  1  6  1  0
  1  5  1  0
  2  3  1  0
  2  1  1  0
  3  4  1  0
  4  5  1  0
  5 12  1  0
  6 11  2  0
  7  8  2  0
  7  6  1  0
  8  9  1  0
  9 10  2  0
 11 10  1  0
 12 16  1  0
 12 13  2  0
 13 14  1  0
 15 14  2  0
 16 15  1  0
  2 17  1  0
  2 18  1  0
  3 19  1  0
  3 20  1  0
  4 21  1  0
  4 22  1  0
  5 23  1  1
  7 24  1  0
  8 25  1  0
 10 26  1  0
 13 27  1  0
 14 28  1  0
 15 29  1  0
M  ISO  8  17  13  18  13  19  13  20  13  21  13  22  13  23  13  24  14
M  ISO  5  25  14  26  14  27  14  28  14  29  14
M  END
>  <minimizedAffinity>  (1) 
-4.61511421

>  <minimizedRMSD>  (1) 
3.91133928

$$$$
