
     RDKit          3D

 23 24  0  0  1  0  0  0  0  0999 V2000
   37.0300   30.4190   48.7680 N   0  0  0  0  0  0  0  0  0  0  0  0
   37.6770   31.4290   47.9410 C   0  0  0  0  0  0  0  0  0  0  0  0
   38.0240   32.4640   48.9620 C   0  0  0  0  0  0  0  0  0  0  0  0
   38.6100   31.6390   50.0750 C   0  0  0  0  0  0  0  0  0  0  0  0
   37.9570   30.3050   49.8820 C   0  0  1  0  0  0  0  0  0  0  0  0
   35.8130   29.7300   48.5380 C   0  0  0  0  0  0  0  0  0  0  0  0
   34.8800   30.2530   47.5990 C   0  0  0  0  0  0  0  0  0  0  0  0
   33.6760   29.5260   47.4030 C   0  0  0  0  0  0  0  0  0  0  0  0
   33.4920   28.3740   48.1270 N   0  0  0  0  0  0  0  0  0  0  0  0
   34.4160   27.9280   49.0050 C   0  0  0  0  0  0  0  0  0  0  0  0
   35.5680   28.6000   49.2100 N   0  0  0  0  0  0  0  0  0  0  0  0
   37.0040   29.9100   51.3730 S   0  0  0  0  0  0  0  0  0  0  0  0
   38.5767   31.0309   47.4491 H   0  0  0  0  0  0  0  0  0  0  0  0
   37.0539   31.8019   47.1148 H   0  0  0  0  0  0  0  0  0  0  0  0
   38.7601   33.1802   48.5679 H   0  0  0  0  0  0  0  0  0  0  0  0
   37.1656   33.0765   49.2750 H   0  0  0  0  0  0  0  0  0  0  0  0
   39.7030   31.5624   49.9777 H   0  0  0  0  0  0  0  0  0  0  0  0
   38.4348   32.0682   51.0725 H   0  0  0  0  0  0  0  0  0  0  0  0
   38.7104   29.5268   49.6905 H   0  0  0  0  0  0  0  0  0  0  0  0
   35.0833   31.1827   47.0474 H   0  0  0  0  0  0  0  0  0  0  0  0
   32.9130   29.8756   46.6919 H   0  0  0  0  0  0  0  0  0  0  0  0
   34.2260   26.9996   49.5635 H   0  0  0  0  0  0  0  0  0  0  0  0
   37.7452   30.2172   52.4835 H   0  0  0  0  0  0  0  0  0  0  0  0
  1  5  1  0
  2  1  1  0
  2  3  1  0
  3  4  1  0
  5  4  1  0
  5 12  1  0
  6  1  1  0
  6 11  1  0
  7  6  2  0
  8  7  1  0
  8  9  2  0
  9 10  1  0
 10 11  2  0
  2 13  1  0
  2 14  1  0
  3 15  1  0
  3 16  1  0
  4 17  1  0
  4 18  1  0
  5 19  1  6
  7 20  1  0
  8 21  1  0
 10 22  1  0
 12 23  1  0
M  ISO  8  13  13  14  13  15  13  16  13  17  13  18  13  19  13  20  14
M  ISO  3  21  14  22  14  23  11
M  END
>  <minimizedAffinity>  (1) 
-4.30868959

>  <minimizedRMSD>  (1) 
1.3105911

$$$$
