
     RDKit          3D

 29 31  0  0  1  0  0  0  0  0999 V2000
   37.1260   30.6680   46.5410 N   0  0  0  0  0  0  0  0  0  0  0  0
   37.8540   31.2370   45.4310 C   0  0  0  0  0  0  0  0  0  0  0  0
   38.4950   32.4510   46.0380 C   0  0  0  0  0  0  0  0  0  0  0  0
   39.0010   31.8990   47.3510 C   0  0  0  0  0  0  0  0  0  0  0  0
   38.1620   30.6450   47.5300 C   0  0  1  0  0  0  0  0  0  0  0  0
   35.7710   30.2580   46.6030 C   0  0  0  0  0  0  0  0  0  0  0  0
   35.1570   29.6080   45.4980 C   0  0  0  0  0  0  0  0  0  0  0  0
   33.8050   29.2190   45.6060 C   0  0  0  0  0  0  0  0  0  0  0  0
   33.1640   29.4940   46.7770 N   0  0  0  0  0  0  0  0  0  0  0  0
   33.7880   30.1160   47.8030 C   0  0  0  0  0  0  0  0  0  0  0  0
   35.0750   30.4980   47.7300 N   0  0  0  0  0  0  0  0  0  0  0  0
   37.6940   30.4780   48.8820 N   0  0  0  0  0  0  0  0  0  0  0  0
   37.4680   29.3240   49.5610 C   0  0  0  0  0  0  0  0  0  0  0  0
   37.0300   29.6210   50.8130 C   0  0  0  0  0  0  0  0  0  0  0  0
   36.9840   30.9810   50.9070 N   0  0  0  0  0  0  0  0  0  0  0  0
   37.3860   31.4610   49.7380 C   0  0  0  0  0  0  0  0  0  0  0  0
   37.1737   31.5159   44.6128 H   0  0  0  0  0  0  0  0  0  0  0  0
   38.5787   30.5406   44.9839 H   0  0  0  0  0  0  0  0  0  0  0  0
   39.3205   32.8241   45.4140 H   0  0  0  0  0  0  0  0  0  0  0  0
   37.8171   33.3108   46.1441 H   0  0  0  0  0  0  0  0  0  0  0  0
   40.0720   31.6550   47.2926 H   0  0  0  0  0  0  0  0  0  0  0  0
   38.9109   32.6082   48.1870 H   0  0  0  0  0  0  0  0  0  0  0  0
   38.7761   29.7467   47.3686 H   0  0  0  0  0  0  0  0  0  0  0  0
   35.7249   29.4120   44.5765 H   0  0  0  0  0  0  0  0  0  0  0  0
   33.2882   28.7133   44.7771 H   0  0  0  0  0  0  0  0  0  0  0  0
   33.2247   30.3157   48.7265 H   0  0  0  0  0  0  0  0  0  0  0  0
   37.6159   28.3099   49.1613 H   0  0  0  0  0  0  0  0  0  0  0  0
   36.7633   28.9012   51.6009 H   0  0  0  0  0  0  0  0  0  0  0  0
   37.4576   32.5328   49.5009 H   0  0  0  0  0  0  0  0  0  0  0  0
  1  6  1  0
  1  5  1  0
  2  3  1  0
  2  1  1  0
  3  4  1  0
  4  5  1  0
  5 12  1  0
  6 11  2  0
  7  8  2  0
  7  6  1  0
  8  9  1  0
  9 10  2  0
 11 10  1  0
 12 13  1  0
 12 16  1  0
 13 14  2  0
 14 15  1  0
 16 15  2  0
  2 17  1  0
  2 18  1  0
  3 19  1  0
  3 20  1  0
  4 21  1  0
  4 22  1  0
  5 23  1  6
  7 24  1  0
  8 25  1  0
 10 26  1  0
 13 27  1  0
 14 28  1  0
 16 29  1  0
M  ISO  8  17  13  18  13  19  13  20  13  21  13  22  13  23  13  24  14
M  ISO  5  25  14  26  14  27  14  28  14  29  14
M  END
>  <minimizedAffinity>  (1) 
-3.95159054

>  <minimizedRMSD>  (1) 
3.18232465

$$$$
