
     RDKit          3D

 23 24  0  0  1  0  0  0  0  0999 V2000
   36.3860   30.0190   49.1010 N   0  0  0  0  0  0  0  0  0  0  0  0
   37.0740   31.2240   48.7000 C   0  0  0  0  0  0  0  0  0  0  0  0
   36.9890   32.0520   49.9530 C   0  0  0  0  0  0  0  0  0  0  0  0
   37.3370   31.0620   51.0190 C   0  0  0  0  0  0  0  0  0  0  0  0
   37.0110   29.7370   50.3640 C   0  0  2  0  0  0  0  0  0  0  0  0
   35.3600   29.3140   48.4100 C   0  0  0  0  0  0  0  0  0  0  0  0
   34.8960   29.7390   47.1570 C   0  0  0  0  0  0  0  0  0  0  0  0
   33.8860   29.0210   46.5070 C   0  0  0  0  0  0  0  0  0  0  0  0
   33.4020   27.9250   47.1400 N   0  0  0  0  0  0  0  0  0  0  0  0
   33.8580   27.5240   48.3490 C   0  0  0  0  0  0  0  0  0  0  0  0
   34.8310   28.2290   48.9600 N   0  0  0  0  0  0  0  0  0  0  0  0
   38.2270   29.0940   50.0670 O   0  0  0  0  0  0  0  0  0  0  0  0
   38.1190   31.0172   48.4256 H   0  0  0  0  0  0  0  0  0  0  0  0
   36.6439   31.7105   47.8121 H   0  0  0  0  0  0  0  0  0  0  0  0
   37.7103   32.8822   49.9306 H   0  0  0  0  0  0  0  0  0  0  0  0
   36.0077   32.5272   50.0991 H   0  0  0  0  0  0  0  0  0  0  0  0
   38.4032   31.1220   51.2829 H   0  0  0  0  0  0  0  0  0  0  0  0
   36.7945   31.2275   51.9615 H   0  0  0  0  0  0  0  0  0  0  0  0
   36.3704   29.1261   51.0171 H   0  0  0  0  0  0  0  0  0  0  0  0
   35.3253   30.6354   46.6857 H   0  0  0  0  0  0  0  0  0  0  0  0
   33.5016   29.3328   45.5247 H   0  0  0  0  0  0  0  0  0  0  0  0
   33.4376   26.6286   48.8302 H   0  0  0  0  0  0  0  0  0  0  0  0
   38.6863   28.8511   50.9097 H   0  0  0  0  0  0  0  0  0  0  0  0
  1  5  1  0
  2  1  1  0
  2  3  1  0
  3  4  1  0
  5  4  1  0
  6 11  1  0
  6  1  1  0
  7  6  2  0
  8  9  2  0
  8  7  1  0
  9 10  1  0
 10 11  2  0
 12  5  1  0
  2 13  1  0
  2 14  1  0
  3 15  1  0
  3 16  1  0
  4 17  1  0
  4 18  1  0
  5 19  1  1
  7 20  1  0
  8 21  1  0
 10 22  1  0
 12 23  1  0
M  ISO  8  13  13  14  13  15  13  16  13  17  13  18  13  19  13  20  14
M  ISO  3  21  14  22  14  23   3
M  END
>  <minimizedAffinity>  (1) 
-3.85042691

>  <minimizedRMSD>  (1) 
0.660545111

$$$$
