
     RDKit          3D

 17 18  0  0  0  0  0  0  0  0999 V2000
   38.6980   32.7540   48.7990 C   0  0  0  0  0  0  0  0  0  0  0  0
   38.5800   32.4590   47.4250 C   0  0  0  0  0  0  0  0  0  0  0  0
   38.1220   31.1780   47.0630 C   0  0  0  0  0  0  0  0  0  0  0  0
   37.8200   30.3020   48.0540 N   0  0  0  0  0  0  0  0  0  0  0  0
   37.9470   30.6250   49.3670 C   0  0  0  0  0  0  0  0  0  0  0  0
   38.3830   31.8420   49.7410 N   0  0  0  0  0  0  0  0  0  0  0  0
   37.5990   29.6200   50.4060 C   0  0  0  0  0  0  0  0  0  0  0  0
   37.3270   29.9880   51.7970 C   0  0  0  0  0  0  0  0  0  0  0  0
   36.1890   29.5420   50.9090 C   0  0  0  0  0  0  0  0  0  0  0  0
   39.0540   33.7477   49.1084 H   0  0  0  0  0  0  0  0  0  0  0  0
   38.8377   33.2064   46.6602 H   0  0  0  0  0  0  0  0  0  0  0  0
   38.0120   30.8951   46.0057 H   0  0  0  0  0  0  0  0  0  0  0  0
   38.3099   28.9227   49.9386 H   0  0  0  0  0  0  0  0  0  0  0  0
   37.6726   29.3378   52.6142 H   0  0  0  0  0  0  0  0  0  0  0  0
   37.5245   30.8751   52.4167 H   0  0  0  0  0  0  0  0  0  0  0  0
   35.4364   30.2669   50.5654 H   0  0  0  0  0  0  0  0  0  0  0  0
   35.4106   28.7662   50.9554 H   0  0  0  0  0  0  0  0  0  0  0  0
  1  6  2  0
  2  1  1  0
  3  2  2  0
  3  4  1  0
  4  5  2  0
  5  6  1  0
  5  7  1  0
  7  9  1  0
  7  8  1  0
  9  8  1  0
  1 10  1  0
  2 11  1  0
  3 12  1  0
  7 13  1  0
  8 14  1  0
  8 15  1  0
  9 16  1  0
  9 17  1  0
M  ISO  8  10  14  11  14  12  14  13  13  14  13  15  13  16  13  17  13
M  END
>  <minimizedAffinity>  (1) 
-4.1515789

>  <minimizedRMSD>  (1) 
3.17042184

$$$$
