
     RDKit          3D

 35 36  0  0  0  0  0  0  0  0999 V2000
   39.1570   32.3410   46.1580 C   0  0  0  0  0  0  0  0  0  0  0  0
   37.7810   32.6760   49.6750 C   0  0  0  0  0  0  0  0  0  0  0  0
   38.5840   32.9330   48.5530 C   0  0  0  0  0  0  0  0  0  0  0  0
   38.3940   32.1820   47.3980 C   0  0  0  0  0  0  0  0  0  0  0  0
   37.4180   31.2200   47.4340 N   0  0  0  0  0  0  0  0  0  0  0  0
   36.6520   30.9830   48.5200 C   0  0  0  0  0  0  0  0  0  0  0  0
   36.8330   31.7100   49.6410 N   0  0  0  0  0  0  0  0  0  0  0  0
   39.9550   31.0500   45.9650 C   0  0  0  0  0  0  0  0  0  0  0  0
   40.1070   33.4930   46.1740 C   0  0  0  0  0  0  0  0  0  0  0  0
   38.1980   32.4840   45.0110 C   0  0  0  0  0  0  0  0  0  0  0  0
   38.7140   31.9120   43.7320 C   0  0  0  0  0  0  0  0  0  0  0  0
   39.3300   32.7770   42.7710 C   0  0  0  0  0  0  0  0  0  0  0  0
   39.7460   31.5590   41.4570 S   0  0  0  0  0  0  0  0  0  0  0  0
   39.0130   30.1230   42.4500 C   0  0  0  0  0  0  0  0  0  0  0  0
   38.6570   30.6460   43.3830 N   0  0  0  0  0  0  0  0  0  0  0  0
   39.0940   28.8360   41.8090 N   0  0  0  0  0  0  0  0  0  0  0  0
   40.1810   27.9350   41.9550 C   0  0  0  0  0  0  0  0  0  0  0  0
   41.3010   28.4330   42.3260 N   0  0  0  0  0  0  0  0  0  0  0  0
   39.8910   26.5540   41.6650 N   0  0  0  0  0  0  0  0  0  0  0  0
   42.1110   27.7840   42.4370 H   0  0  0  0  0  0  0  0  0  0  0  0
   37.9235   33.2661   50.5923 H   0  0  0  0  0  0  0  0  0  0  0  0
   39.3536   33.7182   48.5867 H   0  0  0  0  0  0  0  0  0  0  0  0
   35.8817   30.1983   48.4904 H   0  0  0  0  0  0  0  0  0  0  0  0
   40.2150   30.6293   46.9476 H   0  0  0  0  0  0  0  0  0  0  0  0
   39.3479   30.3240   45.4043 H   0  0  0  0  0  0  0  0  0  0  0  0
   40.8758   31.2685   45.4043 H   0  0  0  0  0  0  0  0  0  0  0  0
   40.3332   33.7673   47.2150 H   0  0  0  0  0  0  0  0  0  0  0  0
   41.0367   33.2087   45.6594 H   0  0  0  0  0  0  0  0  0  0  0  0
   39.6509   34.3516   45.6594 H   0  0  0  0  0  0  0  0  0  0  0  0
   37.2627   31.9671   45.2719 H   0  0  0  0  0  0  0  0  0  0  0  0
   38.0459   33.5610   44.8471 H   0  0  0  0  0  0  0  0  0  0  0  0
   39.5048   33.8624   42.8082 H   0  0  0  0  0  0  0  0  0  0  0  0
   38.3108   28.5502   41.2042 H   0  0  0  0  0  0  0  0  0  0  0  0
   40.6318   25.8434   41.7496 H   0  0  0  0  0  0  0  0  0  0  0  0
   38.9428   26.2772   41.3731 H   0  0  0  0  0  0  0  0  0  0  0  0
  1  9  1  0
  1  4  1  0
  3  2  2  0
  4  5  2  0
  4  3  1  0
  5  6  1  0
  6  7  2  0
  7  2  1  0
  8  1  1  0
 10  1  1  0
 11 10  1  0
 12 11  2  0
 13 14  1  0
 13 12  1  0
 14 15  2  0
 15 11  1  0
 16 17  1  0
 16 14  1  0
 17 18  2  0
 18 20  1  0
 19 17  1  0
  2 21  1  0
  3 22  1  0
  6 23  1  0
  8 24  1  0
  8 25  1  0
  8 26  1  0
  9 27  1  0
  9 28  1  0
  9 29  1  0
 10 30  1  0
 10 31  1  0
 12 32  1  0
 16 33  1  0
 19 34  1  0
 19 35  1  0
M  ISO  8  21  14  22  14  23  14  24   8  25   8  26   8  27   8  28   8
M  ISO  4  29   8  30   8  31   8  32  14
M  END
>  <minimizedAffinity>  (1) 
-5.68998098

>  <minimizedRMSD>  (1) 
0.428204328

$$$$
