
     RDKit          3D

 42 45  0  0  0  0  0  0  0  0999 V2000
   38.4610   32.1910   45.0080 C   0  0  0  0  0  0  0  0  0  0  0  0
   39.0180   31.5310   43.7880 C   0  0  0  0  0  0  0  0  0  0  0  0
   39.6130   32.3250   42.7480 C   0  0  0  0  0  0  0  0  0  0  0  0
   40.1030   31.0310   41.5530 S   0  0  0  0  0  0  0  0  0  0  0  0
   39.4220   29.6670   42.6630 C   0  0  0  0  0  0  0  0  0  0  0  0
   39.0240   30.2360   43.5500 N   0  0  0  0  0  0  0  0  0  0  0  0
   39.5600   28.2010   42.1360 C   0  0  0  0  0  0  0  0  0  0  0  0
   39.2230   27.0680   42.8190 C   0  0  0  0  0  0  0  0  0  0  0  0
   39.5370   26.0940   41.9180 N   0  0  0  0  0  0  0  0  0  0  0  0
   40.0300   26.6380   40.7760 C   0  0  0  0  0  0  0  0  0  0  0  0
   40.4750   26.0340   39.6030 C   0  0  0  0  0  0  0  0  0  0  0  0
   40.9330   26.8640   38.5800 C   0  0  0  0  0  0  0  0  0  0  0  0
   40.9480   28.2440   38.7230 C   0  0  0  0  0  0  0  0  0  0  0  0
   40.5070   28.8560   39.8870 C   0  0  0  0  0  0  0  0  0  0  0  0
   40.0540   28.0330   40.8950 C   0  0  0  0  0  0  0  0  0  0  0  0
   39.4290   32.2460   46.1460 C   0  0  0  0  0  0  0  0  0  0  0  0
   37.8030   32.3870   49.5770 C   0  0  0  0  0  0  0  0  0  0  0  0
   38.5130   32.8090   48.4480 C   0  0  0  0  0  0  0  0  0  0  0  0
   38.7030   31.9340   47.3900 C   0  0  0  0  0  0  0  0  0  0  0  0
   38.1630   30.6670   47.5230 N   0  0  0  0  0  0  0  0  0  0  0  0
   37.4840   30.2760   48.6130 C   0  0  0  0  0  0  0  0  0  0  0  0
   37.2960   31.1210   49.6440 N   0  0  0  0  0  0  0  0  0  0  0  0
   40.4550   31.1250   45.9630 C   0  0  0  0  0  0  0  0  0  0  0  0
   40.1270   33.5580   46.1670 C   0  0  0  0  0  0  0  0  0  0  0  0
   37.5720   31.6305   45.3329 H   0  0  0  0  0  0  0  0  0  0  0  0
   38.2204   33.2291   44.7351 H   0  0  0  0  0  0  0  0  0  0  0  0
   39.7393   33.4160   42.6875 H   0  0  0  0  0  0  0  0  0  0  0  0
   38.8067   26.9672   43.8322 H   0  0  0  0  0  0  0  0  0  0  0  0
   39.4167   25.0842   42.0813 H   0  0  0  0  0  0  0  0  0  0  0  0
   40.4657   24.9402   39.4872 H   0  0  0  0  0  0  0  0  0  0  0  0
   41.2895   26.4155   37.6410 H   0  0  0  0  0  0  0  0  0  0  0  0
   41.3178   28.8665   37.8949 H   0  0  0  0  0  0  0  0  0  0  0  0
   40.5184   29.9501   40.0004 H   0  0  0  0  0  0  0  0  0  0  0  0
   37.6520   33.0805   50.4174 H   0  0  0  0  0  0  0  0  0  0  0  0
   38.9186   33.8304   48.4001 H   0  0  0  0  0  0  0  0  0  0  0  0
   37.0773   29.2552   48.6643 H   0  0  0  0  0  0  0  0  0  0  0  0
   40.7845   30.7650   46.9488 H   0  0  0  0  0  0  0  0  0  0  0  0
   39.9964   30.2958   45.4043 H   0  0  0  0  0  0  0  0  0  0  0  0
   41.3215   31.5086   45.4043 H   0  0  0  0  0  0  0  0  0  0  0  0
   40.2923   33.8687   47.2092 H   0  0  0  0  0  0  0  0  0  0  0  0
   41.0956   33.4663   45.6537 H   0  0  0  0  0  0  0  0  0  0  0  0
   39.5097   34.3100   45.6537 H   0  0  0  0  0  0  0  0  0  0  0  0
  1 16  1  0
  2  1  1  0
  3  2  2  0
  4  5  1  0
  4  3  1  0
  5  6  2  0
  6  2  1  0
  7  5  1  0
  7  8  2  0
  9  8  1  0
 10 15  2  0
 10  9  1  0
 11 10  1  0
 12 13  1  0
 12 11  2  0
 13 14  2  0
 14 15  1  0
 15  7  1  0
 16 24  1  0
 16 19  1  0
 17 22  2  0
 18 17  1  0
 19 20  1  0
 19 18  2  0
 20 21  2  0
 21 22  1  0
 23 16  1  0
  1 25  1  0
  1 26  1  0
  3 27  1  0
  8 28  1  0
  9 29  1  0
 11 30  1  0
 12 31  1  0
 13 32  1  0
 14 33  1  0
 17 34  1  0
 18 35  1  0
 21 36  1  0
 23 37  1  0
 23 38  1  0
 23 39  1  0
 24 40  1  0
 24 41  1  0
 24 42  1  0
M  ISO  8  25   8  26   8  27  14  28  14  29   9  30  14  31  14  32  14
M  ISO  8  33  14  34  14  35  14  36  14  37   8  38   8  39   8  40   8
M  ISO  2  41   8  42   8
M  END
>  <minimizedAffinity>  (1) 
-5.56672764

>  <minimizedRMSD>  (1) 
0.988889515

$$$$
