
     RDKit          3D

 40 42  0  0  1  0  0  0  0  0999 V2000
   37.8910   30.7200   45.6300 N   0  0  0  0  0  0  0  0  0  0  0  0
   39.3190   30.5080   45.7640 C   0  0  0  0  0  0  0  0  0  0  0  0
   39.8040   31.9080   46.0400 C   0  0  0  0  0  0  0  0  0  0  0  0
   38.7690   32.3730   47.0690 C   0  0  0  0  0  0  0  0  0  0  0  0
   37.6370   31.4830   46.8200 C   0  0  2  0  0  0  0  0  0  0  0  0
   37.2360   30.7590   47.9600 N   0  0  0  0  0  0  0  0  0  0  0  0
   38.3100   30.6110   48.8620 C   0  0  0  0  0  0  0  0  0  0  0  0
   37.8280   29.8440   50.0850 C   0  0  0  0  0  0  0  0  0  0  0  0
   36.8470   30.7700   50.7710 C   0  0  0  0  0  0  0  0  0  0  0  0
   35.6960   31.0560   49.8690 C   0  0  0  0  0  0  0  0  0  0  0  0
   35.9180   30.7930   48.4230 C   0  0  2  0  0  0  0  0  0  0  0  0
   35.3030   29.4570   48.0910 C   0  0  0  0  0  0  0  0  0  0  0  0
   35.2160   28.4750   48.9050 O   0  0  0  0  0  0  0  0  0  0  0  0
   34.7140   28.9320   46.9570 O   0  0  0  0  0  0  0  0  0  0  0  0
   37.0500   30.2700   44.5890 C   0  0  0  0  0  0  0  0  0  0  0  0
   37.5060   29.4940   43.5190 C   0  0  0  0  0  0  0  0  0  0  0  0
   36.5790   29.0960   42.5270 C   0  0  0  0  0  0  0  0  0  0  0  0
   35.2810   29.4910   42.6660 N   0  0  0  0  0  0  0  0  0  0  0  0
   34.8650   30.2420   43.7120 C   0  0  0  0  0  0  0  0  0  0  0  0
   35.7660   30.6150   44.6540 N   0  0  0  0  0  0  0  0  0  0  0  0
   39.5483   29.8308   46.6000 H   0  0  0  0  0  0  0  0  0  0  0  0
   39.7871   30.0349   44.8882 H   0  0  0  0  0  0  0  0  0  0  0  0
   40.8207   31.9088   46.4598 H   0  0  0  0  0  0  0  0  0  0  0  0
   39.8790   32.5479   45.1485 H   0  0  0  0  0  0  0  0  0  0  0  0
   39.1488   32.2526   48.0943 H   0  0  0  0  0  0  0  0  0  0  0  0
   38.5122   33.4385   46.9753 H   0  0  0  0  0  0  0  0  0  0  0  0
   36.7325   32.0746   46.6151 H   0  0  0  0  0  0  0  0  0  0  0  0
   39.1257   30.0555   48.3762 H   0  0  0  0  0  0  0  0  0  0  0  0
   38.6789   31.6016   49.1663 H   0  0  0  0  0  0  0  0  0  0  0  0
   37.3312   28.9100   49.7838 H   0  0  0  0  0  0  0  0  0  0  0  0
   38.6593   29.5609   50.7475 H   0  0  0  0  0  0  0  0  0  0  0  0
   36.4784   30.2926   51.6909 H   0  0  0  0  0  0  0  0  0  0  0  0
   37.3549   31.7142   51.0169 H   0  0  0  0  0  0  0  0  0  0  0  0
   34.8492   30.4355   50.1974 H   0  0  0  0  0  0  0  0  0  0  0  0
   35.5196   32.1388   49.9489 H   0  0  0  0  0  0  0  0  0  0  0  0
   35.4614   31.6608   47.9246 H   0  0  0  0  0  0  0  0  0  0  0  0
   34.3687   28.0042   46.9629 H   0  0  0  0  0  0  0  0  0  0  0  0
   38.5635   29.1991   43.4499 H   0  0  0  0  0  0  0  0  0  0  0  0
   36.8960   28.4857   41.6685 H   0  0  0  0  0  0  0  0  0  0  0  0
   33.8111   30.5455   43.7968 H   0  0  0  0  0  0  0  0  0  0  0  0
  1  2  1  0
  1  5  1  0
  2  3  1  0
  3  4  1  0
  5  4  1  0
  5  6  1  0
  6 11  1  0
  6  7  1  0
  7  8  1  0
  8  9  1  0
 10  9  1  0
 11 10  1  0
 12 11  1  0
 12 13  2  0
 14 12  1  0
 15 20  1  0
 15  1  1  0
 16 15  2  0
 17 18  2  0
 17 16  1  0
 18 19  1  0
 19 20  2  0
  2 21  1  0
  2 22  1  0
  3 23  1  0
  3 24  1  0
  4 25  1  0
  4 26  1  0
  5 27  1  6
  7 28  1  0
  7 29  1  0
  8 30  1  0
  8 31  1  0
  9 32  1  0
  9 33  1  0
 10 34  1  0
 10 35  1  0
 11 36  1  6
 14 37  1  0
 16 38  1  0
 17 39  1  0
 19 40  1  0
M  ISO  8  21  13  22  13  23  13  24  13  25  13  26  13  27  13  28  13
M  ISO  8  29  13  30  13  31  13  32  13  33  13  34  13  35  13  36  13
M  ISO  4  37   3  38  14  39  14  40  14
M  END
>  <minimizedAffinity>  (1) 
-4.81827641

>  <minimizedRMSD>  (1) 
1.87149179

$$$$
