
     RDKit          3D

 13 13  0  0  0  0  0  0  0  0999 V2000
   35.5150   29.0030   50.1670 C   0  0  0  0  0  0  0  0  0  0  0  0
   36.2370   30.1110   49.6930 C   0  0  0  0  0  0  0  0  0  0  0  0
   36.0280   30.4920   48.3610 C   0  0  0  0  0  0  0  0  0  0  0  0
   35.1410   29.7730   47.5940 N   0  0  0  0  0  0  0  0  0  0  0  0
   34.4680   28.7090   48.1070 C   0  0  0  0  0  0  0  0  0  0  0  0
   34.6640   28.3400   49.3790 N   0  0  0  0  0  0  0  0  0  0  0  0
   37.1970   30.8870   50.5180 C   0  0  0  0  0  0  0  0  0  0  0  0
   38.4900   30.7970   50.1110 F   0  0  0  0  0  0  0  0  0  0  0  0
   37.1520   30.4840   51.8320 F   0  0  0  0  0  0  0  0  0  0  0  0
   36.8520   32.2380   50.4780 F   0  0  0  0  0  0  0  0  0  0  0  0
   35.6531   28.6748   51.2078 H   0  0  0  0  0  0  0  0  0  0  0  0
   36.5648   31.3526   47.9353 H   0  0  0  0  0  0  0  0  0  0  0  0
   33.7612   28.1503   47.4759 H   0  0  0  0  0  0  0  0  0  0  0  0
  2  1  2  0
  2  7  1  0
  3  2  1  0
  4  5  1  0
  4  3  2  0
  5  6  2  0
  6  1  1  0
  7  9  1  0
  8  7  1  0
 10  7  1  0
  1 11  1  0
  3 12  1  0
  5 13  1  0
M  ISO  3  11  14  12  14  13  14
M  END
>  <minimizedAffinity>  (1) 
-4.19049692

>  <minimizedRMSD>  (1) 
2.2926929

$$$$
