
     RDKit          3D

 42 44  0  0  0  0  0  0  0  0999 V2000
   39.2390   32.3520   46.1170 C   0  0  0  0  0  0  0  0  0  0  0  0
   37.6840   32.5550   49.5780 C   0  0  0  0  0  0  0  0  0  0  0  0
   38.5540   32.8610   48.5070 C   0  0  0  0  0  0  0  0  0  0  0  0
   38.4040   32.1420   47.3190 C   0  0  0  0  0  0  0  0  0  0  0  0
   37.4300   31.1890   47.2610 N   0  0  0  0  0  0  0  0  0  0  0  0
   36.6140   30.9190   48.3040 C   0  0  0  0  0  0  0  0  0  0  0  0
   36.7380   31.5960   49.4570 N   0  0  0  0  0  0  0  0  0  0  0  0
   40.1090   31.1070   45.9640 C   0  0  0  0  0  0  0  0  0  0  0  0
   40.1120   33.5570   46.1820 C   0  0  0  0  0  0  0  0  0  0  0  0
   38.3400   32.4460   44.9270 C   0  0  0  0  0  0  0  0  0  0  0  0
   38.8700   31.7560   43.7230 C   0  0  0  0  0  0  0  0  0  0  0  0
   39.4890   32.5290   42.6820 C   0  0  0  0  0  0  0  0  0  0  0  0
   39.9410   31.2300   41.4820 S   0  0  0  0  0  0  0  0  0  0  0  0
   39.2170   29.8750   42.5920 C   0  0  0  0  0  0  0  0  0  0  0  0
   38.8400   30.4640   43.4760 N   0  0  0  0  0  0  0  0  0  0  0  0
   39.3310   28.5090   42.0440 N   0  0  0  0  0  0  0  0  0  0  0  0
   39.6500   28.2840   40.6480 C   0  0  0  0  0  0  0  0  0  0  0  0
   39.1030   26.8840   40.3410 C   0  0  0  0  0  0  0  0  0  0  0  0
   39.6520   25.9710   41.2840 N   0  0  0  0  0  0  0  0  0  0  0  0
   39.1850   26.1360   42.6350 C   0  0  0  0  0  0  0  0  0  0  0  0
   39.0850   27.5520   43.0800 C   0  0  0  0  0  0  0  0  0  0  0  0
   37.7778   33.1058   50.5255 H   0  0  0  0  0  0  0  0  0  0  0  0
   39.3242   33.6401   48.6059 H   0  0  0  0  0  0  0  0  0  0  0  0
   35.8435   30.1398   48.2078 H   0  0  0  0  0  0  0  0  0  0  0  0
   40.3775   30.7228   46.9591 H   0  0  0  0  0  0  0  0  0  0  0  0
   39.5520   30.3361   45.4113 H   0  0  0  0  0  0  0  0  0  0  0  0
   41.0244   31.3650   45.4113 H   0  0  0  0  0  0  0  0  0  0  0  0
   40.3004   33.8170   47.2341 H   0  0  0  0  0  0  0  0  0  0  0  0
   41.0675   33.3450   45.6800 H   0  0  0  0  0  0  0  0  0  0  0  0
   39.6129   34.3989   45.6800 H   0  0  0  0  0  0  0  0  0  0  0  0
   37.3709   31.9953   45.1873 H   0  0  0  0  0  0  0  0  0  0  0  0
   38.2519   33.5128   44.6738 H   0  0  0  0  0  0  0  0  0  0  0  0
   39.6483   33.6158   42.6236 H   0  0  0  0  0  0  0  0  0  0  0  0
   39.1625   29.0382   40.0128 H   0  0  0  0  0  0  0  0  0  0  0  0
   40.7297   28.3599   40.4516 H   0  0  0  0  0  0  0  0  0  0  0  0
   38.0060   26.8876   40.4225 H   0  0  0  0  0  0  0  0  0  0  0  0
   39.3808   26.5852   39.3195 H   0  0  0  0  0  0  0  0  0  0  0  0
   39.4155   25.0161   40.9788 H   0  0  0  0  0  0  0  0  0  0  0  0
   38.1873   25.6793   42.7127 H   0  0  0  0  0  0  0  0  0  0  0  0
   39.9284   25.6531   43.2862 H   0  0  0  0  0  0  0  0  0  0  0  0
   39.8199   27.7147   43.8822 H   0  0  0  0  0  0  0  0  0  0  0  0
   38.0488   27.7067   43.4153 H   0  0  0  0  0  0  0  0  0  0  0  0
  1  9  1  0
  1  4  1  0
  3  2  2  0
  4  3  1  0
  5  4  2  0
  5  6  1  0
  6  7  2  0
  7  2  1  0
  8  1  1  0
 10  1  1  0
 11 10  1  0
 12 11  2  0
 13 14  1  0
 13 12  1  0
 14 15  2  0
 15 11  1  0
 16 14  1  0
 16 21  1  0
 17 16  1  0
 18 17  1  0
 18 19  1  0
 19 20  1  0
 20 21  1  0
  2 22  1  0
  3 23  1  0
  6 24  1  0
  8 25  1  0
  8 26  1  0
  8 27  1  0
  9 28  1  0
  9 29  1  0
  9 30  1  0
 10 31  1  0
 10 32  1  0
 12 33  1  0
 17 34  1  0
 17 35  1  0
 18 36  1  0
 18 37  1  0
 19 38  1  0
 20 39  1  0
 20 40  1  0
 21 41  1  0
 21 42  1  0
M  ISO  8  22  14  23  14  24  14  25   8  26   8  27   8  28   8  29   8
M  ISO  8  30   8  31   8  32   8  33  14  34  13  35  13  36  13  37  13
M  ISO  5  38   5  39  13  40  13  41  13  42  13
M  END
>  <minimizedAffinity>  (1) 
-5.51319122

>  <minimizedRMSD>  (1) 
0.727706254

$$$$
