
     RDKit          3D

 26 27  0  0  0  0  0  0  0  0999 V2000
   35.3980   29.1070   50.4620 C   0  0  0  0  0  0  0  0  0  0  0  0
   36.1930   30.0720   49.8330 C   0  0  0  0  0  0  0  0  0  0  0  0
   35.9970   30.2730   48.4590 C   0  0  0  0  0  0  0  0  0  0  0  0
   35.0460   29.5220   47.8090 N   0  0  0  0  0  0  0  0  0  0  0  0
   34.3020   28.6000   48.4590 C   0  0  0  0  0  0  0  0  0  0  0  0
   34.4870   28.4060   49.7770 N   0  0  0  0  0  0  0  0  0  0  0  0
   33.2870   27.8130   47.7180 C   0  0  0  0  0  0  0  0  0  0  0  0
   31.9990   27.6590   48.4880 C   0  0  0  0  0  0  0  0  0  0  0  0
   31.4510   26.2940   48.1190 C   0  0  0  0  0  0  0  0  0  0  0  0
   32.5620   25.5060   47.5050 C   0  0  0  0  0  0  0  0  0  0  0  0
   33.7670   26.4230   47.4380 C   0  0  0  0  0  0  0  0  0  0  0  0
   37.2190   30.8800   50.5440 C   0  0  0  0  0  0  0  0  0  0  0  0
   38.4760   30.7710   50.0190 F   0  0  0  0  0  0  0  0  0  0  0  0
   37.2870   30.5380   51.8670 F   0  0  0  0  0  0  0  0  0  0  0  0
   36.8740   32.2340   50.4560 F   0  0  0  0  0  0  0  0  0  0  0  0
   35.5243   28.9215   51.5389 H   0  0  0  0  0  0  0  0  0  0  0  0
   36.5931   31.0178   47.9113 H   0  0  0  0  0  0  0  0  0  0  0  0
   33.1162   28.3771   46.7892 H   0  0  0  0  0  0  0  0  0  0  0  0
   32.1916   27.7137   49.5696 H   0  0  0  0  0  0  0  0  0  0  0  0
   31.2852   28.4591   48.2426 H   0  0  0  0  0  0  0  0  0  0  0  0
   31.0832   25.7823   49.0206 H   0  0  0  0  0  0  0  0  0  0  0  0
   30.6147   26.3944   47.4115 H   0  0  0  0  0  0  0  0  0  0  0  0
   32.7898   24.6266   48.1253 H   0  0  0  0  0  0  0  0  0  0  0  0
   32.2837   25.1475   46.5030 H   0  0  0  0  0  0  0  0  0  0  0  0
   34.5103   26.1229   48.1913 H   0  0  0  0  0  0  0  0  0  0  0  0
   34.2426   26.3681   46.4476 H   0  0  0  0  0  0  0  0  0  0  0  0
  2  1  2  0
  2 12  1  0
  3  2  1  0
  4  3  2  0
  4  5  1  0
  5  6  2  0
  6  1  1  0
  7  5  1  0
  7  8  1  0
  9  8  1  0
 10  9  1  0
 11 10  1  0
 11  7  1  0
 12 14  1  0
 13 12  1  0
 15 12  1  0
  1 16  1  0
  3 17  1  0
  7 18  1  0
  8 19  1  0
  8 20  1  0
  9 21  1  0
  9 22  1  0
 10 23  1  0
 10 24  1  0
 11 25  1  0
 11 26  1  0
M  ISO  8  16  14  17  14  18  13  19  13  20  13  21  13  22  13  23  13
M  ISO  3  24  13  25  13  26  13
M  END
>  <minimizedAffinity>  (1) 
-5.27910233

>  <minimizedRMSD>  (1) 
0.802691698

$$$$
