
     RDKit          3D

 22 23  0  0  0  0  0  0  0  0999 V2000
   36.6340   29.5340   50.1050 C   0  0  0  0  0  0  0  0  0  0  0  0
   36.9470   30.5820   49.2320 C   0  0  0  0  0  0  0  0  0  0  0  0
   36.1690   30.7400   48.0760 C   0  0  0  0  0  0  0  0  0  0  0  0
   35.1420   29.8570   47.8650 N   0  0  0  0  0  0  0  0  0  0  0  0
   34.8650   28.8480   48.7350 C   0  0  0  0  0  0  0  0  0  0  0  0
   35.6130   28.7110   49.8290 N   0  0  0  0  0  0  0  0  0  0  0  0
   33.7550   27.9290   48.4640 C   0  0  0  0  0  0  0  0  0  0  0  0
   33.9870   26.8030   47.6910 C   0  0  0  0  0  0  0  0  0  0  0  0
   32.8810   25.9910   47.4860 C   0  0  0  0  0  0  0  0  0  0  0  0
   31.6270   26.2760   48.0120 C   0  0  0  0  0  0  0  0  0  0  0  0
   31.4490   27.4190   48.7800 C   0  0  0  0  0  0  0  0  0  0  0  0
   32.5400   28.1980   48.9680 N   0  0  0  0  0  0  0  0  0  0  0  0
   38.0650   31.5380   49.4690 C   0  0  0  0  0  0  0  0  0  0  0  0
   38.9470   31.6390   48.4380 F   0  0  0  0  0  0  0  0  0  0  0  0
   38.7880   31.1840   50.5890 F   0  0  0  0  0  0  0  0  0  0  0  0
   37.5420   32.8120   49.6850 F   0  0  0  0  0  0  0  0  0  0  0  0
   37.2271   29.3855   51.0194 H   0  0  0  0  0  0  0  0  0  0  0  0
   36.3767   31.5486   47.3598 H   0  0  0  0  0  0  0  0  0  0  0  0
   34.9763   26.5697   47.2703 H   0  0  0  0  0  0  0  0  0  0  0  0
   33.0023   25.0810   46.8800 H   0  0  0  0  0  0  0  0  0  0  0  0
   30.7803   25.6002   47.8212 H   0  0  0  0  0  0  0  0  0  0  0  0
   30.4717   27.6782   49.2134 H   0  0  0  0  0  0  0  0  0  0  0  0
  2 13  1  0
  2  1  2  0
  3  2  1  0
  4  3  2  0
  4  5  1  0
  5  6  2  0
  6  1  1  0
  7  5  1  0
  7 12  1  0
  8  7  2  0
  9  8  1  0
  9 10  2  0
 10 11  1  0
 11 12  2  0
 13 16  1  0
 13 15  1  0
 14 13  1  0
  1 17  1  0
  3 18  1  0
  8 19  1  0
  9 20  1  0
 10 21  1  0
 11 22  1  0
M  ISO  6  17  14  18  14  19  14  20  14  21  14  22  14
M  END
>  <minimizedAffinity>  (1) 
-5.24033833

>  <minimizedRMSD>  (1) 
1.51856637

$$$$
