
     RDKit          3D

 16 16  0  0  0  0  0  0  0  0999 V2000
   35.6650   28.9530   50.1360 C   0  0  0  0  0  0  0  0  0  0  0  0
   36.3140   30.1130   49.6910 C   0  0  0  0  0  0  0  0  0  0  0  0
   36.0670   30.5310   48.3700 C   0  0  0  0  0  0  0  0  0  0  0  0
   35.2130   29.7910   47.5890 N   0  0  0  0  0  0  0  0  0  0  0  0
   34.6120   28.6670   48.0860 C   0  0  0  0  0  0  0  0  0  0  0  0
   34.8470   28.2730   49.3360 N   0  0  0  0  0  0  0  0  0  0  0  0
   37.2410   30.9290   50.5190 C   0  0  0  0  0  0  0  0  0  0  0  0
   38.5460   30.8720   50.1170 F   0  0  0  0  0  0  0  0  0  0  0  0
   37.2030   30.5230   51.8380 F   0  0  0  0  0  0  0  0  0  0  0  0
   36.8630   32.2600   50.4760 F   0  0  0  0  0  0  0  0  0  0  0  0
   33.6950   27.8960   47.2050 C   0  0  0  0  0  0  0  0  0  0  0  0
   35.8346   28.5988   51.1635 H   0  0  0  0  0  0  0  0  0  0  0  0
   36.5496   31.4348   47.9698 H   0  0  0  0  0  0  0  0  0  0  0  0
   32.9986   27.3105   47.8233 H   0  0  0  0  0  0  0  0  0  0  0  0
   33.1260   28.5910   46.5700 H   0  0  0  0  0  0  0  0  0  0  0  0
   34.2820   27.2161   46.5700 H   0  0  0  0  0  0  0  0  0  0  0  0
  2  1  2  0
  2  7  1  0
  3  2  1  0
  4  5  1  0
  4  3  2  0
  5  6  2  0
  6  1  1  0
  7  9  1  0
  8  7  1  0
 10  7  1  0
 11  5  1  0
  1 12  1  0
  3 13  1  0
 11 14  1  0
 11 15  1  0
 11 16  1  0
M  ISO  5  12  14  13  14  14   8  15   8  16   8
M  END
>  <minimizedAffinity>  (1) 
-4.44808102

>  <minimizedRMSD>  (1) 
0.118266642

$$$$
