
     RDKit          3D

 15 15  0  0  0  0  0  0  0  0999 V2000
   35.6160   28.9710   50.1440 C   0  0  0  0  0  0  0  0  0  0  0  0
   36.2900   30.1100   49.6790 C   0  0  0  0  0  0  0  0  0  0  0  0
   36.0470   30.5140   48.3700 C   0  0  0  0  0  0  0  0  0  0  0  0
   35.1680   29.7860   47.6030 N   0  0  0  0  0  0  0  0  0  0  0  0
   34.5410   28.6960   48.0920 C   0  0  0  0  0  0  0  0  0  0  0  0
   34.7710   28.2970   49.3600 N   0  0  0  0  0  0  0  0  0  0  0  0
   33.6590   28.0500   47.1700 N   0  0  0  0  0  0  0  0  0  0  0  0
   37.2440   30.9010   50.5100 C   0  0  0  0  0  0  0  0  0  0  0  0
   38.5310   30.8330   50.1170 F   0  0  0  0  0  0  0  0  0  0  0  0
   37.1810   30.5010   51.8340 F   0  0  0  0  0  0  0  0  0  0  0  0
   36.8540   32.2470   50.4790 F   0  0  0  0  0  0  0  0  0  0  0  0
   35.7869   28.6264   51.1745 H   0  0  0  0  0  0  0  0  0  0  0  0
   36.5494   31.4006   47.9557 H   0  0  0  0  0  0  0  0  0  0  0  0
   33.1381   27.2095   47.4583 H   0  0  0  0  0  0  0  0  0  0  0  0
   33.5446   28.4253   46.2176 H   0  0  0  0  0  0  0  0  0  0  0  0
  2  1  2  0
  2  8  1  0
  3  2  1  0
  4  5  1  0
  4  3  2  0
  5  6  2  0
  6  1  1  0
  7  5  1  0
  8 10  1  0
  9  8  1  0
 11  8  1  0
  1 12  1  0
  3 13  1  0
  7 14  1  0
  7 15  1  0
M  ISO  2  12  14  13  14
M  END
>  <minimizedAffinity>  (1) 
-4.37907887

>  <minimizedRMSD>  (1) 
0.0665088147

$$$$
