
     RDKit          3D

 23 24  0  0  0  0  0  0  0  0999 V2000
   36.6760   29.5350   50.1030 C   0  0  0  0  0  0  0  0  0  0  0  0
   36.9670   30.5940   49.2260 C   0  0  0  0  0  0  0  0  0  0  0  0
   36.1700   30.7130   48.0910 C   0  0  0  0  0  0  0  0  0  0  0  0
   35.1520   29.8090   47.8770 N   0  0  0  0  0  0  0  0  0  0  0  0
   34.9200   28.8000   48.7690 C   0  0  0  0  0  0  0  0  0  0  0  0
   35.6760   28.6800   49.8550 N   0  0  0  0  0  0  0  0  0  0  0  0
   33.8230   27.8930   48.4600 C   0  0  0  0  0  0  0  0  0  0  0  0
   32.5460   28.1390   48.9000 C   0  0  0  0  0  0  0  0  0  0  0  0
   31.4880   27.2800   48.6110 C   0  0  0  0  0  0  0  0  0  0  0  0
   31.7940   26.1530   47.8510 C   0  0  0  0  0  0  0  0  0  0  0  0
   33.0720   25.8760   47.3910 C   0  0  0  0  0  0  0  0  0  0  0  0
   34.0770   26.7640   47.7100 C   0  0  0  0  0  0  0  0  0  0  0  0
   38.0610   31.5710   49.4500 C   0  0  0  0  0  0  0  0  0  0  0  0
   38.9240   31.6870   48.4050 F   0  0  0  0  0  0  0  0  0  0  0  0
   38.8040   31.2400   50.5670 F   0  0  0  0  0  0  0  0  0  0  0  0
   37.5140   32.8400   49.6770 F   0  0  0  0  0  0  0  0  0  0  0  0
   37.2822   29.4060   51.0117 H   0  0  0  0  0  0  0  0  0  0  0  0
   36.3515   31.5233   47.3696 H   0  0  0  0  0  0  0  0  0  0  0  0
   32.3524   29.0413   49.4986 H   0  0  0  0  0  0  0  0  0  0  0  0
   30.4657   27.4807   48.9639 H   0  0  0  0  0  0  0  0  0  0  0  0
   30.9841   25.4506   47.6046 H   0  0  0  0  0  0  0  0  0  0  0  0
   33.2774   24.9771   46.7911 H   0  0  0  0  0  0  0  0  0  0  0  0
   35.1012   26.5683   47.3596 H   0  0  0  0  0  0  0  0  0  0  0  0
  2 13  1  0
  2  1  2  0
  3  2  1  0
  4  3  2  0
  4  5  1  0
  5  6  2  0
  6  1  1  0
  7  5  1  0
  7  8  2  0
  9  8  1  0
 10  9  2  0
 11 12  2  0
 11 10  1  0
 12  7  1  0
 13 16  1  0
 13 15  1  0
 14 13  1  0
  1 17  1  0
  3 18  1  0
  8 19  1  0
  9 20  1  0
 10 21  1  0
 11 22  1  0
 12 23  1  0
M  ISO  7  17  14  18  14  19  14  20  14  21  14  22  14  23  14
M  END
>  <minimizedAffinity>  (1) 
-5.42451859

>  <minimizedRMSD>  (1) 
1.55709124

$$$$
