
     RDKit          3D

 39 41  0  0  0  0  0  0  0  0999 V2000
   32.7510   27.9410   48.7370 C   0  0  0  0  0  0  0  0  0  0  0  0
   31.6630   28.3820   49.4440 C   0  0  0  0  0  0  0  0  0  0  0  0
   30.4410   27.7070   49.3560 C   0  0  0  0  0  0  0  0  0  0  0  0
   30.3860   26.5940   48.5360 C   0  0  0  0  0  0  0  0  0  0  0  0
   31.4740   26.1380   47.8170 C   0  0  0  0  0  0  0  0  0  0  0  0
   32.6680   26.8190   47.9190 C   0  0  0  0  0  0  0  0  0  0  0  0
   36.1550   28.9360   49.7480 C   0  0  0  0  0  0  0  0  0  0  0  0
   36.4240   30.0150   48.8980 C   0  0  0  0  0  0  0  0  0  0  0  0
   35.4250   30.3790   47.9900 C   0  0  0  0  0  0  0  0  0  0  0  0
   34.2370   29.6760   47.9670 N   0  0  0  0  0  0  0  0  0  0  0  0
   34.0360   28.6370   48.8200 C   0  0  0  0  0  0  0  0  0  0  0  0
   34.9900   28.2870   49.6890 N   0  0  0  0  0  0  0  0  0  0  0  0
   37.6960   30.7820   48.9090 C   0  0  0  0  0  0  0  0  0  0  0  0
   38.4870   30.5680   47.8210 F   0  0  0  0  0  0  0  0  0  0  0  0
   38.4360   30.5020   50.0300 F   0  0  0  0  0  0  0  0  0  0  0  0
   37.4030   32.1600   48.9460 F   0  0  0  0  0  0  0  0  0  0  0  0
   33.8690   26.3630   47.1620 C   0  0  0  0  0  0  0  0  0  0  0  0
   33.7330   26.8990   45.7700 C   0  0  0  0  0  0  0  0  0  0  0  0
   33.1550   25.9020   44.8010 C   0  0  0  0  0  0  0  0  0  0  0  0
   34.1310   24.7430   44.7870 C   0  0  0  0  0  0  0  0  0  0  0  0
   33.9950   24.0680   46.1100 C   0  0  0  0  0  0  0  0  0  0  0  0
   34.1330   24.9250   47.3050 C   0  0  0  0  0  0  0  0  0  0  0  0
   31.7512   29.2720   50.0844 H   0  0  0  0  0  0  0  0  0  0  0  0
   29.5582   28.0478   49.9169 H   0  0  0  0  0  0  0  0  0  0  0  0
   29.4345   26.0484   48.4529 H   0  0  0  0  0  0  0  0  0  0  0  0
   31.3890   25.2485   47.1754 H   0  0  0  0  0  0  0  0  0  0  0  0
   36.9156   28.6178   50.4761 H   0  0  0  0  0  0  0  0  0  0  0  0
   35.5845   31.2197   47.2988 H   0  0  0  0  0  0  0  0  0  0  0  0
   34.7992   26.7722   47.5830 H   0  0  0  0  0  0  0  0  0  0  0  0
   33.0752   27.7802   45.7980 H   0  0  0  0  0  0  0  0  0  0  0  0
   34.7446   27.1475   45.4166 H   0  0  0  0  0  0  0  0  0  0  0  0
   32.1636   25.5664   45.1395 H   0  0  0  0  0  0  0  0  0  0  0  0
   33.0202   26.3357   43.7991 H   0  0  0  0  0  0  0  0  0  0  0  0
   33.8814   24.0442   43.9750 H   0  0  0  0  0  0  0  0  0  0  0  0
   35.1614   25.0889   44.6177 H   0  0  0  0  0  0  0  0  0  0  0  0
   32.9993   23.6018   46.1464 H   0  0  0  0  0  0  0  0  0  0  0  0
   34.8342   23.3587   46.1623 H   0  0  0  0  0  0  0  0  0  0  0  0
   35.1665   24.8174   47.6660 H   0  0  0  0  0  0  0  0  0  0  0  0
   33.3466   24.5700   47.9874 H   0  0  0  0  0  0  0  0  0  0  0  0
  1 11  1  0
  1  2  2  0
  3  2  1  0
  4  3  2  0
  5  6  2  0
  5  4  1  0
  6  1  1  0
  8 13  1  0
  8  7  2  0
  9  8  1  0
 10  9  2  0
 10 11  1  0
 11 12  2  0
 12  7  1  0
 13 16  1  0
 13 15  1  0
 14 13  1  0
 17 22  1  0
 17  6  1  0
 18 17  1  0
 19 18  1  0
 20 19  1  0
 20 21  1  0
 21 22  1  0
  2 23  1  0
  3 24  1  0
  4 25  1  0
  5 26  1  0
  7 27  1  0
  9 28  1  0
 17 29  1  0
 18 30  1  0
 18 31  1  0
 19 32  1  0
 19 33  1  0
 20 34  1  0
 20 35  1  0
 21 36  1  0
 21 37  1  0
 22 38  1  0
 22 39  1  0
M  ISO  8  23  14  24  14  25  14  26  14  27  14  28  14  29  13  30  13
M  ISO  8  31  13  32  13  33  13  34  13  35  13  36  13  37  13  38  13
M  ISO  1  39  13
M  END
>  <minimizedAffinity>  (1) 
-5.35675573

>  <minimizedRMSD>  (1) 
1.48507011

$$$$
