
     RDKit          3D

 30 32  0  0  0  0  0  0  0  0999 V2000
   32.8360   27.8260   48.5960 C   0  0  0  0  0  0  0  0  0  0  0  0
   31.7120   28.2520   49.2710 C   0  0  0  0  0  0  0  0  0  0  0  0
   30.4970   27.5840   49.1650 C   0  0  0  0  0  0  0  0  0  0  0  0
   30.4690   26.4680   48.3470 C   0  0  0  0  0  0  0  0  0  0  0  0
   31.5780   26.0180   47.6570 C   0  0  0  0  0  0  0  0  0  0  0  0
   32.7580   26.7100   47.7930 C   0  0  0  0  0  0  0  0  0  0  0  0
   36.1460   28.9620   49.7140 C   0  0  0  0  0  0  0  0  0  0  0  0
   36.4500   29.9770   48.8020 C   0  0  0  0  0  0  0  0  0  0  0  0
   35.5100   30.2500   47.8240 C   0  0  0  0  0  0  0  0  0  0  0  0
   34.3400   29.5210   47.7930 N   0  0  0  0  0  0  0  0  0  0  0  0
   34.1000   28.5350   48.7160 C   0  0  0  0  0  0  0  0  0  0  0  0
   34.9950   28.2760   49.6490 N   0  0  0  0  0  0  0  0  0  0  0  0
   37.7090   30.7620   48.8350 C   0  0  0  0  0  0  0  0  0  0  0  0
   38.5220   30.5480   47.7620 F   0  0  0  0  0  0  0  0  0  0  0  0
   38.4450   30.4860   49.9720 F   0  0  0  0  0  0  0  0  0  0  0  0
   37.4060   32.1370   48.8580 F   0  0  0  0  0  0  0  0  0  0  0  0
   33.9620   26.2480   47.0650 C   0  0  0  0  0  0  0  0  0  0  0  0
   34.0650   24.7800   46.7700 C   0  0  0  0  0  0  0  0  0  0  0  0
   33.9450   25.8360   45.6590 C   0  0  0  0  0  0  0  0  0  0  0  0
   31.7780   29.1444   49.9107 H   0  0  0  0  0  0  0  0  0  0  0  0
   29.6018   27.9259   49.7050 H   0  0  0  0  0  0  0  0  0  0  0  0
   29.5235   25.9158   48.2418 H   0  0  0  0  0  0  0  0  0  0  0  0
   31.5183   25.1274   47.0142 H   0  0  0  0  0  0  0  0  0  0  0  0
   36.8698   28.7194   50.5060 H   0  0  0  0  0  0  0  0  0  0  0  0
   35.6939   31.0392   47.0801 H   0  0  0  0  0  0  0  0  0  0  0  0
   34.5636   27.0019   47.5939 H   0  0  0  0  0  0  0  0  0  0  0  0
   35.0131   24.2456   46.9296 H   0  0  0  0  0  0  0  0  0  0  0  0
   33.5151   23.8735   47.0629 H   0  0  0  0  0  0  0  0  0  0  0  0
   34.8071   26.0537   45.0114 H   0  0  0  0  0  0  0  0  0  0  0  0
   33.2659   25.9975   44.8088 H   0  0  0  0  0  0  0  0  0  0  0  0
  1 11  1  0
  1  2  2  0
  3  2  1  0
  4  3  2  0
  5  6  2  0
  5  4  1  0
  6  1  1  0
  8 13  1  0
  8  7  2  0
  9  8  1  0
 10  9  2  0
 10 11  1  0
 11 12  2  0
 12  7  1  0
 13 16  1  0
 13 15  1  0
 14 13  1  0
 17  6  1  0
 18 17  1  0
 19 18  1  0
 19 17  1  0
  2 20  1  0
  3 21  1  0
  4 22  1  0
  5 23  1  0
  7 24  1  0
  9 25  1  0
 17 26  1  0
 18 27  1  0
 18 28  1  0
 19 29  1  0
 19 30  1  0
M  ISO  8  20  14  21  14  22  14  23  14  24  14  25  14  26  13  27  13
M  ISO  3  28  13  29  13  30  13
M  END
>  <minimizedAffinity>  (1) 
-5.15487576

>  <minimizedRMSD>  (1) 
1.21479964

$$$$
