
     RDKit          3D

 32 33  0  0  0  0  0  0  0  0999 V2000
   32.7810   27.9340   48.7180 C   0  0  0  0  0  0  0  0  0  0  0  0
   31.6970   28.3510   49.4330 C   0  0  0  0  0  0  0  0  0  0  0  0
   30.4680   27.6800   49.3470 C   0  0  0  0  0  0  0  0  0  0  0  0
   30.4090   26.5810   48.5050 C   0  0  0  0  0  0  0  0  0  0  0  0
   31.4890   26.1420   47.7750 C   0  0  0  0  0  0  0  0  0  0  0  0
   32.6590   26.8410   47.9040 C   0  0  0  0  0  0  0  0  0  0  0  0
   36.1690   28.9560   49.7250 C   0  0  0  0  0  0  0  0  0  0  0  0
   36.4420   30.0200   48.8530 C   0  0  0  0  0  0  0  0  0  0  0  0
   35.4480   30.3590   47.9380 C   0  0  0  0  0  0  0  0  0  0  0  0
   34.2660   29.6550   47.9230 N   0  0  0  0  0  0  0  0  0  0  0  0
   34.0670   28.6290   48.8030 C   0  0  0  0  0  0  0  0  0  0  0  0
   35.0030   28.2960   49.6780 N   0  0  0  0  0  0  0  0  0  0  0  0
   37.7150   30.7750   48.8710 C   0  0  0  0  0  0  0  0  0  0  0  0
   38.5090   30.5450   47.7780 F   0  0  0  0  0  0  0  0  0  0  0  0
   38.4600   30.5140   49.9930 F   0  0  0  0  0  0  0  0  0  0  0  0
   37.4320   32.1550   48.8760 F   0  0  0  0  0  0  0  0  0  0  0  0
   33.8420   26.3940   47.1300 C   0  0  0  0  0  0  0  0  0  0  0  0
   33.7790   26.7680   45.6680 C   0  0  0  0  0  0  0  0  0  0  0  0
   33.9720   24.8740   47.1950 C   0  0  0  0  0  0  0  0  0  0  0  0
   31.7880   29.2293   50.0889 H   0  0  0  0  0  0  0  0  0  0  0  0
   29.5907   28.0113   49.9220 H   0  0  0  0  0  0  0  0  0  0  0  0
   29.4575   26.0362   48.4166 H   0  0  0  0  0  0  0  0  0  0  0  0
   31.4156   25.2653   47.1147 H   0  0  0  0  0  0  0  0  0  0  0  0
   36.9277   28.6567   50.4631 H   0  0  0  0  0  0  0  0  0  0  0  0
   35.6074   31.1860   47.2304 H   0  0  0  0  0  0  0  0  0  0  0  0
   34.7020   26.9028   47.5898 H   0  0  0  0  0  0  0  0  0  0  0  0
   33.5970   27.8487   45.5735 H   0  0  0  0  0  0  0  0  0  0  0  0
   34.7327   26.5130   45.1829 H   0  0  0  0  0  0  0  0  0  0  0  0
   32.9614   26.2146   45.1829 H   0  0  0  0  0  0  0  0  0  0  0  0
   33.9995   24.5530   48.2468 H   0  0  0  0  0  0  0  0  0  0  0  0
   33.1102   24.4105   46.6925 H   0  0  0  0  0  0  0  0  0  0  0  0
   34.9000   24.5635   46.6925 H   0  0  0  0  0  0  0  0  0  0  0  0
  1 11  1  0
  1  2  2  0
  3  2  1  0
  4  3  2  0
  5  6  2  0
  5  4  1  0
  6  1  1  0
  8 13  1  0
  8  7  2  0
  9  8  1  0
 10  9  2  0
 10 11  1  0
 11 12  2  0
 12  7  1  0
 13 16  1  0
 13 15  1  0
 14 13  1  0
 17 19  1  0
 17  6  1  0
 18 17  1  0
  2 20  1  0
  3 21  1  0
  4 22  1  0
  5 23  1  0
  7 24  1  0
  9 25  1  0
 17 26  1  0
 18 27  1  0
 18 28  1  0
 18 29  1  0
 19 30  1  0
 19 31  1  0
 19 32  1  0
M  ISO  8  20  14  21  14  22  14  23  14  24  14  25  14  26   8  27   8
M  ISO  5  28   8  29   8  30   8  31   8  32   8
M  END
>  <minimizedAffinity>  (1) 
-5.15003538

>  <minimizedRMSD>  (1) 
1.30334342

$$$$
