
     RDKit          3D

 44 46  0  0  0  0  0  0  0  0999 V2000
   32.8810   27.8360   48.5490 C   0  0  0  0  0  0  0  0  0  0  0  0
   31.7630   28.2070   49.2320 C   0  0  0  0  0  0  0  0  0  0  0  0
   30.5480   27.5590   49.1610 C   0  0  0  0  0  0  0  0  0  0  0  0
   30.5130   26.4520   48.3190 C   0  0  0  0  0  0  0  0  0  0  0  0
   31.6140   26.0480   47.6150 C   0  0  0  0  0  0  0  0  0  0  0  0
   32.8130   26.7340   47.7220 C   0  0  0  0  0  0  0  0  0  0  0  0
   36.1830   28.9750   49.6590 C   0  0  0  0  0  0  0  0  0  0  0  0
   36.4690   30.0140   48.7640 C   0  0  0  0  0  0  0  0  0  0  0  0
   35.5170   30.2950   47.8010 C   0  0  0  0  0  0  0  0  0  0  0  0
   34.3640   29.5520   47.7780 N   0  0  0  0  0  0  0  0  0  0  0  0
   34.1360   28.5590   48.6660 C   0  0  0  0  0  0  0  0  0  0  0  0
   35.0460   28.2940   49.5840 N   0  0  0  0  0  0  0  0  0  0  0  0
   37.7310   30.8030   48.8120 C   0  0  0  0  0  0  0  0  0  0  0  0
   38.5580   30.5810   47.7500 F   0  0  0  0  0  0  0  0  0  0  0  0
   38.4560   30.5370   49.9550 F   0  0  0  0  0  0  0  0  0  0  0  0
   37.4160   32.1730   48.8130 F   0  0  0  0  0  0  0  0  0  0  0  0
   34.0150   26.3310   46.9790 C   0  0  0  0  0  0  0  0  0  0  0  0
   33.8400   25.1210   46.1170 C   0  0  0  0  0  0  0  0  0  0  0  0
   34.9820   24.2880   46.0340 N   0  0  0  0  0  0  0  0  0  0  0  0
   35.0360   23.1380   46.8450 C   0  0  0  0  0  0  0  0  0  0  0  0
   36.0400   22.1590   46.2970 C   0  0  0  0  0  0  0  0  0  0  0  0
   37.3010   22.9580   45.9450 C   0  0  0  0  0  0  0  0  0  0  0  0
   36.9890   23.8040   44.7170 C   0  0  0  0  0  0  0  0  0  0  0  0
   35.5170   24.1670   44.6980 C   0  0  0  0  0  0  0  0  0  0  0  0
   31.8343   29.0873   49.8878 H   0  0  0  0  0  0  0  0  0  0  0  0
   29.6682   27.8938   49.7301 H   0  0  0  0  0  0  0  0  0  0  0  0
   29.5750   25.8866   48.2167 H   0  0  0  0  0  0  0  0  0  0  0  0
   31.5468   25.1691   46.9569 H   0  0  0  0  0  0  0  0  0  0  0  0
   36.9148   28.7184   50.4391 H   0  0  0  0  0  0  0  0  0  0  0  0
   35.6811   31.0985   47.0679 H   0  0  0  0  0  0  0  0  0  0  0  0
   34.3171   27.1699   46.3348 H   0  0  0  0  0  0  0  0  0  0  0  0
   34.7729   26.0693   47.7321 H   0  0  0  0  0  0  0  0  0  0  0  0
   33.0098   24.5258   46.5250 H   0  0  0  0  0  0  0  0  0  0  0  0
   33.6466   25.4884   45.0984 H   0  0  0  0  0  0  0  0  0  0  0  0
   35.3300   23.4267   47.8649 H   0  0  0  0  0  0  0  0  0  0  0  0
   34.0439   22.6631   46.8590 H   0  0  0  0  0  0  0  0  0  0  0  0
   36.2754   21.3961   47.0537 H   0  0  0  0  0  0  0  0  0  0  0  0
   35.6419   21.6440   45.4103 H   0  0  0  0  0  0  0  0  0  0  0  0
   37.5787   23.6090   46.7871 H   0  0  0  0  0  0  0  0  0  0  0  0
   38.1414   22.2786   45.7399 H   0  0  0  0  0  0  0  0  0  0  0  0
   37.5908   24.7243   44.7461 H   0  0  0  0  0  0  0  0  0  0  0  0
   37.2309   23.2287   43.8111 H   0  0  0  0  0  0  0  0  0  0  0  0
   35.3928   25.1269   44.1754 H   0  0  0  0  0  0  0  0  0  0  0  0
   34.9714   23.3644   44.1803 H   0  0  0  0  0  0  0  0  0  0  0  0
  1 11  1  0
  1  2  2  0
  3  2  1  0
  4  3  2  0
  5  6  2  0
  5  4  1  0
  6  1  1  0
  8 13  1  0
  8  7  2  0
  9  8  1  0
 10  9  2  0
 10 11  1  0
 11 12  2  0
 12  7  1  0
 13 16  1  0
 13 15  1  0
 14 13  1  0
 17  6  1  0
 18 17  1  0
 19 18  1  0
 19 20  1  0
 21 20  1  0
 22 21  1  0
 23 22  1  0
 24 23  1  0
 24 19  1  0
  2 25  1  0
  3 26  1  0
  4 27  1  0
  5 28  1  0
  7 29  1  0
  9 30  1  0
 17 31  1  0
 17 32  1  0
 18 33  1  0
 18 34  1  0
 20 35  1  0
 20 36  1  0
 21 37  1  0
 21 38  1  0
 22 39  1  0
 22 40  1  0
 23 41  1  0
 23 42  1  0
 24 43  1  0
 24 44  1  0
M  ISO  8  25  14  26  14  27  14  28  14  29  14  30  14  31   8  32   8
M  ISO  8  33   8  34   8  35  13  36  13  37  13  38  13  39  13  40  13
M  ISO  4  41  13  42  13  43  13  44  13
M  END
>  <minimizedAffinity>  (1) 
-5.27698135

>  <minimizedRMSD>  (1) 
0.891250789

$$$$
