
     RDKit          3D

 36 38  0  0  0  0  0  0  0  0999 V2000
   32.7930   27.8560   48.6450 C   0  0  0  0  0  0  0  0  0  0  0  0
   31.6960   28.2890   49.3050 C   0  0  0  0  0  0  0  0  0  0  0  0
   30.4630   27.6680   49.2720 C   0  0  0  0  0  0  0  0  0  0  0  0
   30.3880   26.5230   48.4920 C   0  0  0  0  0  0  0  0  0  0  0  0
   31.4860   26.0410   47.7980 C   0  0  0  0  0  0  0  0  0  0  0  0
   32.6940   26.7080   47.8740 C   0  0  0  0  0  0  0  0  0  0  0  0
   36.1500   28.9400   49.6800 C   0  0  0  0  0  0  0  0  0  0  0  0
   36.4460   29.9410   48.7170 C   0  0  0  0  0  0  0  0  0  0  0  0
   35.4830   30.2080   47.7490 C   0  0  0  0  0  0  0  0  0  0  0  0
   34.3110   29.4950   47.7760 N   0  0  0  0  0  0  0  0  0  0  0  0
   34.0700   28.5470   48.7140 C   0  0  0  0  0  0  0  0  0  0  0  0
   34.9840   28.2910   49.6380 N   0  0  0  0  0  0  0  0  0  0  0  0
   37.7240   30.6910   48.7190 C   0  0  0  0  0  0  0  0  0  0  0  0
   38.4920   30.4560   47.6110 F   0  0  0  0  0  0  0  0  0  0  0  0
   38.4990   30.3850   49.8200 F   0  0  0  0  0  0  0  0  0  0  0  0
   37.4630   32.0620   48.7680 F   0  0  0  0  0  0  0  0  0  0  0  0
   33.8690   26.2390   47.1620 C   0  0  0  0  0  0  0  0  0  0  0  0
   33.9830   24.7500   46.9680 C   0  0  0  0  0  0  0  0  0  0  0  0
   34.9030   24.5670   45.7900 C   0  0  0  0  0  0  0  0  0  0  0  0
   35.9150   23.6010   45.7850 C   0  0  0  0  0  0  0  0  0  0  0  0
   36.5500   23.7210   44.5580 C   0  0  0  0  0  0  0  0  0  0  0  0
   35.9020   24.7360   43.8910 C   0  0  0  0  0  0  0  0  0  0  0  0
   34.9560   25.1990   44.6410 O   0  0  0  0  0  0  0  0  0  0  0  0
   31.7922   29.2014   49.9119 H   0  0  0  0  0  0  0  0  0  0  0  0
   29.5967   28.0559   49.8279 H   0  0  0  0  0  0  0  0  0  0  0  0
   29.4317   25.9838   48.4228 H   0  0  0  0  0  0  0  0  0  0  0  0
   31.3965   25.1299   47.1882 H   0  0  0  0  0  0  0  0  0  0  0  0
   36.8838   28.6986   50.4631 H   0  0  0  0  0  0  0  0  0  0  0  0
   35.6574   30.9739   46.9789 H   0  0  0  0  0  0  0  0  0  0  0  0
   33.8665   26.7072   46.1666 H   0  0  0  0  0  0  0  0  0  0  0  0
   34.7250   26.5182   47.7939 H   0  0  0  0  0  0  0  0  0  0  0  0
   34.4085   24.2769   47.8653 H   0  0  0  0  0  0  0  0  0  0  0  0
   33.0014   24.2846   46.7953 H   0  0  0  0  0  0  0  0  0  0  0  0
   36.1574   22.8914   46.5898 H   0  0  0  0  0  0  0  0  0  0  0  0
   37.3994   23.1257   44.1919 H   0  0  0  0  0  0  0  0  0  0  0  0
   36.1495   25.0957   42.8813 H   0  0  0  0  0  0  0  0  0  0  0  0
  1 11  1  0
  1  2  2  0
  3  2  1  0
  4  3  2  0
  5  6  2  0
  5  4  1  0
  6  1  1  0
  8 13  1  0
  8  7  2  0
  9 10  2  0
  9  8  1  0
 10 11  1  0
 11 12  2  0
 12  7  1  0
 13 16  1  0
 13 15  1  0
 14 13  1  0
 17  6  1  0
 18 17  1  0
 19 18  1  0
 20 19  2  0
 21 20  1  0
 22 21  2  0
 22 23  1  0
 23 19  1  0
  2 24  1  0
  3 25  1  0
  4 26  1  0
  5 27  1  0
  7 28  1  0
  9 29  1  0
 17 30  1  0
 17 31  1  0
 18 32  1  0
 18 33  1  0
 20 34  1  0
 21 35  1  0
 22 36  1  0
M  ISO  8  24  14  25  14  26  14  27  14  28  14  29  14  30   8  31   8
M  ISO  5  32   8  33   8  34  14  35  14  36  14
M  END
>  <minimizedAffinity>  (1) 
-5.21090651

>  <minimizedRMSD>  (1) 
0.551407337

$$$$
