
     RDKit          3D

 43 45  0  0  0  0  0  0  0  0999 V2000
   32.8230   27.7980   48.5480 C   0  0  0  0  0  0  0  0  0  0  0  0
   31.7170   28.2090   49.2280 C   0  0  0  0  0  0  0  0  0  0  0  0
   30.4910   27.5660   49.1640 C   0  0  0  0  0  0  0  0  0  0  0  0
   30.4380   26.4550   48.3540 C   0  0  0  0  0  0  0  0  0  0  0  0
   31.5340   26.0190   47.6600 C   0  0  0  0  0  0  0  0  0  0  0  0
   32.7440   26.6780   47.7420 C   0  0  0  0  0  0  0  0  0  0  0  0
   36.1310   28.9340   49.6570 C   0  0  0  0  0  0  0  0  0  0  0  0
   36.4390   29.9390   48.7100 C   0  0  0  0  0  0  0  0  0  0  0  0
   35.5010   30.1890   47.7290 C   0  0  0  0  0  0  0  0  0  0  0  0
   34.3360   29.4650   47.7180 N   0  0  0  0  0  0  0  0  0  0  0  0
   34.0900   28.5100   48.6510 C   0  0  0  0  0  0  0  0  0  0  0  0
   34.9880   28.2690   49.5910 N   0  0  0  0  0  0  0  0  0  0  0  0
   37.7050   30.7110   48.7400 C   0  0  0  0  0  0  0  0  0  0  0  0
   38.5000   30.5070   47.6560 F   0  0  0  0  0  0  0  0  0  0  0  0
   38.4630   30.4190   49.8540 F   0  0  0  0  0  0  0  0  0  0  0  0
   37.4150   32.0850   48.7830 F   0  0  0  0  0  0  0  0  0  0  0  0
   33.9420   26.2570   47.0220 C   0  0  0  0  0  0  0  0  0  0  0  0
   33.9710   24.8140   46.6490 C   0  0  0  0  0  0  0  0  0  0  0  0
   35.1540   24.4190   45.9270 N   0  0  0  0  0  0  0  0  0  0  0  0
   35.0130   24.5990   44.5010 C   0  0  0  0  0  0  0  0  0  0  0  0
   36.1390   23.8370   43.7930 C   0  0  0  0  0  0  0  0  0  0  0  0
   35.8190   22.4450   43.9160 N   0  0  0  0  0  0  0  0  0  0  0  0
   35.2660   22.0770   45.1890 C   0  0  0  0  0  0  0  0  0  0  0  0
   35.5300   23.0750   46.2860 C   0  0  0  0  0  0  0  0  0  0  0  0
   31.8016   29.1023   49.8643 H   0  0  0  0  0  0  0  0  0  0  0  0
   29.6147   27.9217   49.7258 H   0  0  0  0  0  0  0  0  0  0  0  0
   29.4908   25.9033   48.2619 H   0  0  0  0  0  0  0  0  0  0  0  0
   31.4489   25.1255   47.0241 H   0  0  0  0  0  0  0  0  0  0  0  0
   36.8493   28.7025   50.4572 H   0  0  0  0  0  0  0  0  0  0  0  0
   35.6853   30.9592   46.9655 H   0  0  0  0  0  0  0  0  0  0  0  0
   34.0131   26.8508   46.0988 H   0  0  0  0  0  0  0  0  0  0  0  0
   34.7879   26.4175   47.7067 H   0  0  0  0  0  0  0  0  0  0  0  0
   33.9131   24.2171   47.5712 H   0  0  0  0  0  0  0  0  0  0  0  0
   33.1163   24.6413   45.9784 H   0  0  0  0  0  0  0  0  0  0  0  0
   34.0387   24.2072   44.1735 H   0  0  0  0  0  0  0  0  0  0  0  0
   35.0716   25.6688   44.2518 H   0  0  0  0  0  0  0  0  0  0  0  0
   37.1049   24.0502   44.2742 H   0  0  0  0  0  0  0  0  0  0  0  0
   36.2243   24.1369   42.7381 H   0  0  0  0  0  0  0  0  0  0  0  0
   35.1339   22.2055   43.1851 H   0  0  0  0  0  0  0  0  0  0  0  0
   34.1773   21.9694   45.0746 H   0  0  0  0  0  0  0  0  0  0  0  0
   35.7565   21.1391   45.4887 H   0  0  0  0  0  0  0  0  0  0  0  0
   36.6047   23.0624   46.5202 H   0  0  0  0  0  0  0  0  0  0  0  0
   34.9176   22.7821   47.1516 H   0  0  0  0  0  0  0  0  0  0  0  0
  1 11  1  0
  1  2  2  0
  3  2  1  0
  4  3  2  0
  5  6  2  0
  5  4  1  0
  6  1  1  0
  8 13  1  0
  8  7  2  0
  9  8  1  0
 10  9  2  0
 10 11  1  0
 11 12  2  0
 12  7  1  0
 13 16  1  0
 13 15  1  0
 14 13  1  0
 17  6  1  0
 18 17  1  0
 19 24  1  0
 19 18  1  0
 20 19  1  0
 21 22  1  0
 21 20  1  0
 22 23  1  0
 23 24  1  0
  2 25  1  0
  3 26  1  0
  4 27  1  0
  5 28  1  0
  7 29  1  0
  9 30  1  0
 17 31  1  0
 17 32  1  0
 18 33  1  0
 18 34  1  0
 20 35  1  0
 20 36  1  0
 21 37  1  0
 21 38  1  0
 22 39  1  0
 23 40  1  0
 23 41  1  0
 24 42  1  0
 24 43  1  0
M  ISO  8  25  14  26  14  27  14  28  14  29  14  30  14  31   8  32   8
M  ISO  8  33   8  34   8  35  13  36  13  37  13  38  13  39   5  40  13
M  ISO  3  41  13  42  13  43  13
M  END
>  <minimizedAffinity>  (1) 
-4.87931299

>  <minimizedRMSD>  (1) 
0.426084548

$$$$
