
     RDKit          3D

 44 46  0  0  0  0  0  0  0  0999 V2000
   39.3690   32.1720   45.8080 C   0  0  0  0  0  0  0  0  0  0  0  0
   38.0910   32.7130   49.3350 C   0  0  0  0  0  0  0  0  0  0  0  0
   38.8940   32.8880   48.1940 C   0  0  0  0  0  0  0  0  0  0  0  0
   38.6180   32.1040   47.0720 C   0  0  0  0  0  0  0  0  0  0  0  0
   37.5710   31.2030   47.1520 N   0  0  0  0  0  0  0  0  0  0  0  0
   36.8300   31.0680   48.2600 C   0  0  0  0  0  0  0  0  0  0  0  0
   37.0790   31.8130   49.3520 N   0  0  0  0  0  0  0  0  0  0  0  0
   40.4600   31.1020   45.8940 C   0  0  0  0  0  0  0  0  0  0  0  0
   40.0110   33.4880   45.5550 C   0  0  0  0  0  0  0  0  0  0  0  0
   38.4500   31.8250   44.6820 C   0  0  0  0  0  0  0  0  0  0  0  0
   39.1290   31.1300   43.5520 C   0  0  0  0  0  0  0  0  0  0  0  0
   39.6480   31.8920   42.4590 C   0  0  0  0  0  0  0  0  0  0  0  0
   40.3500   30.5840   41.3960 S   0  0  0  0  0  0  0  0  0  0  0  0
   39.8130   29.2290   42.6280 C   0  0  0  0  0  0  0  0  0  0  0  0
   39.3150   29.8340   43.4380 N   0  0  0  0  0  0  0  0  0  0  0  0
   40.1080   27.7870   42.3390 C   0  0  0  0  0  0  0  0  0  0  0  0
   39.1790   26.8640   43.0730 C   0  0  0  0  0  0  0  0  0  0  0  0
   37.8780   26.6240   42.3610 C   0  0  0  0  0  0  0  0  0  0  0  0
   38.0050   26.4220   40.8780 C   0  0  0  0  0  0  0  0  0  0  0  0
   39.4920   26.1940   40.5950 C   0  0  0  0  0  0  0  0  0  0  0  0
   40.1530   27.5270   40.8570 C   0  0  0  0  0  0  0  0  0  0  0  0
   38.2887   33.3190   50.2315 H   0  0  0  0  0  0  0  0  0  0  0  0
   39.7147   33.6203   48.1856 H   0  0  0  0  0  0  0  0  0  0  0  0
   36.0071   30.3383   48.2770 H   0  0  0  0  0  0  0  0  0  0  0  0
   40.6798   30.8865   46.9501 H   0  0  0  0  0  0  0  0  0  0  0  0
   40.1133   30.1840   45.3969 H   0  0  0  0  0  0  0  0  0  0  0  0
   41.3711   31.4665   45.3969 H   0  0  0  0  0  0  0  0  0  0  0  0
   40.2468   33.9714   46.5145 H   0  0  0  0  0  0  0  0  0  0  0  0
   40.9379   33.3396   44.9816 H   0  0  0  0  0  0  0  0  0  0  0  0
   39.3235   34.1272   44.9816 H   0  0  0  0  0  0  0  0  0  0  0  0
   37.6578   31.1675   45.0694 H   0  0  0  0  0  0  0  0  0  0  0  0
   38.0515   32.7711   44.2869 H   0  0  0  0  0  0  0  0  0  0  0  0
   39.6292   32.9803   42.3003 H   0  0  0  0  0  0  0  0  0  0  0  0
   41.1132   27.5646   42.7266 H   0  0  0  0  0  0  0  0  0  0  0  0
   39.6850   25.8965   43.2070 H   0  0  0  0  0  0  0  0  0  0  0  0
   38.9365   27.3474   44.0309 H   0  0  0  0  0  0  0  0  0  0  0  0
   37.4122   25.7251   42.7911 H   0  0  0  0  0  0  0  0  0  0  0  0
   37.2735   27.5322   42.5014 H   0  0  0  0  0  0  0  0  0  0  0  0
   37.4196   25.5458   40.5625 H   0  0  0  0  0  0  0  0  0  0  0  0
   37.6241   27.2929   40.3243 H   0  0  0  0  0  0  0  0  0  0  0  0
   39.6432   25.8871   39.5496 H   0  0  0  0  0  0  0  0  0  0  0  0
   39.9128   25.3954   41.2236 H   0  0  0  0  0  0  0  0  0  0  0  0
   41.1980   27.4988   40.5148 H   0  0  0  0  0  0  0  0  0  0  0  0
   39.6282   28.3264   40.3133 H   0  0  0  0  0  0  0  0  0  0  0  0
  1  8  1  0
  1  4  1  0
  2  7  2  0
  3  2  1  0
  4  5  1  0
  4  3  2  0
  5  6  2  0
  6  7  1  0
  9  1  1  0
 10  1  1  0
 11 10  1  0
 12 11  2  0
 13 12  1  0
 13 14  1  0
 14 15  2  0
 15 11  1  0
 16 14  1  0
 16 17  1  0
 18 17  1  0
 19 18  1  0
 20 21  1  0
 20 19  1  0
 21 16  1  0
  2 22  1  0
  3 23  1  0
  6 24  1  0
  8 25  1  0
  8 26  1  0
  8 27  1  0
  9 28  1  0
  9 29  1  0
  9 30  1  0
 10 31  1  0
 10 32  1  0
 12 33  1  0
 16 34  1  0
 17 35  1  0
 17 36  1  0
 18 37  1  0
 18 38  1  0
 19 39  1  0
 19 40  1  0
 20 41  1  0
 20 42  1  0
 21 43  1  0
 21 44  1  0
M  ISO  8  22  14  23  14  24  14  25   8  26   8  27   8  28   8  29   8
M  ISO  8  30   8  31   8  32   8  33  14  34  13  35  13  36  13  37  13
M  ISO  7  38  13  39  13  40  13  41  13  42  13  43  13  44  13
M  END
>  <minimizedAffinity>  (1) 
-5.18530798

>  <minimizedRMSD>  (1) 
1.46265757

$$$$
