
     RDKit          3D

 49 52  0  0  0  0  0  0  0  0999 V2000
   31.6960   26.3700   47.7410 C   0  0  0  0  0  0  0  0  0  0  0  0
   31.4790   25.2050   47.0910 C   0  0  0  0  0  0  0  0  0  0  0  0
   32.4970   24.4180   46.5750 C   0  0  0  0  0  0  0  0  0  0  0  0
   33.7840   24.8900   46.7590 C   0  0  0  0  0  0  0  0  0  0  0  0
   34.0290   26.0760   47.4190 C   0  0  0  0  0  0  0  0  0  0  0  0
   32.9870   26.8270   47.9160 C   0  0  0  0  0  0  0  0  0  0  0  0
   29.1470   27.8160   49.9780 C   0  0  0  0  0  0  0  0  0  0  0  0
   28.4950   28.7440   49.1310 C   0  0  0  0  0  0  0  0  0  0  0  0
   28.9560   28.8450   47.8120 C   0  0  0  0  0  0  0  0  0  0  0  0
   30.0000   28.0480   47.4160 N   0  0  0  0  0  0  0  0  0  0  0  0
   30.5930   27.1710   48.2710 C   0  0  0  0  0  0  0  0  0  0  0  0
   30.1550   27.0810   49.5080 N   0  0  0  0  0  0  0  0  0  0  0  0
   27.3670   29.5910   49.5830 C   0  0  0  0  0  0  0  0  0  0  0  0
   27.7650   30.7340   50.2200 F   0  0  0  0  0  0  0  0  0  0  0  0
   26.5340   28.9070   50.4470 F   0  0  0  0  0  0  0  0  0  0  0  0
   26.5980   29.9760   48.4650 F   0  0  0  0  0  0  0  0  0  0  0  0
   33.1970   28.1030   48.6310 C   0  0  0  0  0  0  0  0  0  0  0  0
   33.9140   29.1420   47.8470 C   0  0  0  0  0  0  0  0  0  0  0  0
   35.1740   29.5030   48.4950 C   0  0  0  0  0  0  0  0  0  0  0  0
   35.6850   28.8360   49.5920 C   0  0  0  0  0  0  0  0  0  0  0  0
   36.8750   29.4210   49.9620 C   0  0  0  0  0  0  0  0  0  0  0  0
   37.0480   30.4440   49.0590 N   0  0  0  0  0  0  0  0  0  0  0  0
   36.0490   30.4930   48.1960 N   0  0  0  0  0  0  0  0  0  0  0  0
   38.1800   31.3700   49.0350 C   0  0  0  0  0  0  0  0  0  0  0  0
   38.6790   31.6320   47.6450 C   0  0  0  0  0  0  0  0  0  0  0  0
   39.2560   33.0110   47.7090 C   0  0  0  0  0  0  0  0  0  0  0  0
   38.9010   33.5860   49.0460 C   0  0  0  0  0  0  0  0  0  0  0  0
   37.8470   32.6860   49.6540 C   0  0  0  0  0  0  0  0  0  0  0  0
   30.4409   24.8636   46.9649 H   0  0  0  0  0  0  0  0  0  0  0  0
   32.2931   23.4732   46.0498 H   0  0  0  0  0  0  0  0  0  0  0  0
   34.6314   24.3063   46.3701 H   0  0  0  0  0  0  0  0  0  0  0  0
   35.0641   26.4246   47.5494 H   0  0  0  0  0  0  0  0  0  0  0  0
   28.8223   27.7015   51.0227 H   0  0  0  0  0  0  0  0  0  0  0  0
   28.4899   29.5497   47.1075 H   0  0  0  0  0  0  0  0  0  0  0  0
   32.2123   28.5045   48.9124 H   0  0  0  0  0  0  0  0  0  0  0  0
   33.8336   27.8728   49.4980 H   0  0  0  0  0  0  0  0  0  0  0  0
   33.2792   30.0369   47.7687 H   0  0  0  0  0  0  0  0  0  0  0  0
   34.1339   28.7403   46.8469 H   0  0  0  0  0  0  0  0  0  0  0  0
   35.2157   27.9749   50.0902 H   0  0  0  0  0  0  0  0  0  0  0  0
   37.5377   29.1350   50.7921 H   0  0  0  0  0  0  0  0  0  0  0  0
   38.9652   30.8693   49.6205 H   0  0  0  0  0  0  0  0  0  0  0  0
   37.8524   31.5894   46.9205 H   0  0  0  0  0  0  0  0  0  0  0  0
   39.4162   30.8844   47.3169 H   0  0  0  0  0  0  0  0  0  0  0  0
   40.3494   32.9661   47.5978 H   0  0  0  0  0  0  0  0  0  0  0  0
   38.8540   33.6372   46.8989 H   0  0  0  0  0  0  0  0  0  0  0  0
   39.7907   33.6147   49.6923 H   0  0  0  0  0  0  0  0  0  0  0  0
   38.5239   34.6141   48.9415 H   0  0  0  0  0  0  0  0  0  0  0  0
   36.8333   33.0133   49.3795 H   0  0  0  0  0  0  0  0  0  0  0  0
   37.8490   32.6756   50.7539 H   0  0  0  0  0  0  0  0  0  0  0  0
  1  6  1  0
  1 11  1  0
  2  1  2  0
  3  4  2  0
  3  2  1  0
  4  5  1  0
  5  6  2  0
  6 17  1  0
  8 13  1  0
  8  7  2  0
  9  8  1  0
 10  9  2  0
 10 11  1  0
 11 12  2  0
 12  7  1  0
 13 14  1  0
 13 15  1  0
 16 13  1  0
 18 19  1  0
 18 17  1  0
 19 20  1  0
 20 21  2  0
 22 21  1  0
 23 19  2  0
 23 22  1  0
 24 22  1  0
 24 28  1  0
 25 26  1  0
 25 24  1  0
 26 27  1  0
 27 28  1  0
  2 29  1  0
  3 30  1  0
  4 31  1  0
  5 32  1  0
  7 33  1  0
  9 34  1  0
 17 35  1  0
 17 36  1  0
 18 37  1  0
 18 38  1  0
 20 39  1  0
 21 40  1  0
 24 41  1  0
 25 42  1  0
 25 43  1  0
 26 44  1  0
 26 45  1  0
 27 46  1  0
 27 47  1  0
 28 48  1  0
 28 49  1  0
M  ISO  8  29  14  30  14  31  14  32  14  33  14  34  14  35   8  36   8
M  ISO  8  37   8  38   8  39  14  40  14  41  13  42  13  43  13  44  13
M  ISO  5  45  13  46  13  47  13  48  13  49  13
M  END
>  <minimizedAffinity>  (1) 
-7.16030836

>  <minimizedRMSD>  (1) 
0.825009227

$$$$
