
     RDKit          3D

 44 47  0  0  0  0  0  0  0  0999 V2000
   31.7030   26.1670   47.5720 C   0  0  0  0  0  0  0  0  0  0  0  0
   31.4070   25.0850   46.8200 C   0  0  0  0  0  0  0  0  0  0  0  0
   32.3540   24.3190   46.1710 C   0  0  0  0  0  0  0  0  0  0  0  0
   33.6670   24.7190   46.3290 C   0  0  0  0  0  0  0  0  0  0  0  0
   33.9860   25.8130   47.0870 C   0  0  0  0  0  0  0  0  0  0  0  0
   33.0150   26.5550   47.7220 C   0  0  0  0  0  0  0  0  0  0  0  0
   29.3570   27.4570   50.1070 C   0  0  0  0  0  0  0  0  0  0  0  0
   28.6880   28.4900   49.3970 C   0  0  0  0  0  0  0  0  0  0  0  0
   29.0670   28.7070   48.0670 C   0  0  0  0  0  0  0  0  0  0  0  0
   30.0560   27.9220   47.5210 N   0  0  0  0  0  0  0  0  0  0  0  0
   30.6610   26.9510   48.2430 C   0  0  0  0  0  0  0  0  0  0  0  0
   30.3050   26.7380   49.5100 N   0  0  0  0  0  0  0  0  0  0  0  0
   27.6260   29.3190   50.0110 C   0  0  0  0  0  0  0  0  0  0  0  0
   28.0480   30.5710   50.3630 F   0  0  0  0  0  0  0  0  0  0  0  0
   27.0990   28.7230   51.1410 F   0  0  0  0  0  0  0  0  0  0  0  0
   26.5740   29.4810   49.0840 F   0  0  0  0  0  0  0  0  0  0  0  0
   33.3230   27.7390   48.5450 C   0  0  0  0  0  0  0  0  0  0  0  0
   33.6720   28.9640   47.7760 C   0  0  0  0  0  0  0  0  0  0  0  0
   34.9500   29.5120   48.2330 C   0  0  0  0  0  0  0  0  0  0  0  0
   35.6970   28.9480   49.2550 C   0  0  0  0  0  0  0  0  0  0  0  0
   36.8410   29.6940   49.4510 C   0  0  0  0  0  0  0  0  0  0  0  0
   36.7510   30.7040   48.5220 N   0  0  0  0  0  0  0  0  0  0  0  0
   35.6410   30.5920   47.8140 N   0  0  0  0  0  0  0  0  0  0  0  0
   37.7420   31.7320   48.3650 C   0  0  0  0  0  0  0  0  0  0  0  0
   37.9190   32.6140   49.4150 C   0  0  0  0  0  0  0  0  0  0  0  0
   38.8780   33.6120   49.2670 C   0  0  0  0  0  0  0  0  0  0  0  0
   39.6030   33.6930   48.1200 N   0  0  0  0  0  0  0  0  0  0  0  0
   39.4160   32.8150   47.0950 C   0  0  0  0  0  0  0  0  0  0  0  0
   38.4810   31.8400   47.2350 N   0  0  0  0  0  0  0  0  0  0  0  0
   30.3500   24.7976   46.7189 H   0  0  0  0  0  0  0  0  0  0  0  0
   32.0800   23.4431   45.5647 H   0  0  0  0  0  0  0  0  0  0  0  0
   34.4691   24.1488   45.8375 H   0  0  0  0  0  0  0  0  0  0  0  0
   35.0411   26.1060   47.1913 H   0  0  0  0  0  0  0  0  0  0  0  0
   29.0905   27.2506   51.1541 H   0  0  0  0  0  0  0  0  0  0  0  0
   28.5820   29.4922   47.4684 H   0  0  0  0  0  0  0  0  0  0  0  0
   32.4416   27.9636   49.1636 H   0  0  0  0  0  0  0  0  0  0  0  0
   34.2150   27.4808   49.1346 H   0  0  0  0  0  0  0  0  0  0  0  0
   32.8836   29.7176   47.9191 H   0  0  0  0  0  0  0  0  0  0  0  0
   33.7588   28.7018   46.7112 H   0  0  0  0  0  0  0  0  0  0  0  0
   35.4210   28.0464   49.8215 H   0  0  0  0  0  0  0  0  0  0  0  0
   37.6428   29.5204   50.1838 H   0  0  0  0  0  0  0  0  0  0  0  0
   37.3226   32.5299   50.3355 H   0  0  0  0  0  0  0  0  0  0  0  0
   39.0491   34.3350   50.0781 H   0  0  0  0  0  0  0  0  0  0  0  0
   40.0103   32.8943   46.1728 H   0  0  0  0  0  0  0  0  0  0  0  0
  1  6  1  0
  1 11  1  0
  2  1  2  0
  3  4  2  0
  3  2  1  0
  4  5  1  0
  5  6  2  0
  6 17  1  0
  8 13  1  0
  8  7  2  0
  9  8  1  0
 10  9  2  0
 10 11  1  0
 11 12  2  0
 12  7  1  0
 13 14  1  0
 13 15  1  0
 16 13  1  0
 18 19  1  0
 18 17  1  0
 19 20  1  0
 20 21  2  0
 22 21  1  0
 23 19  2  0
 23 22  1  0
 24 22  1  0
 24 25  2  0
 26 25  1  0
 27 26  2  0
 28 29  2  0
 28 27  1  0
 29 24  1  0
  2 30  1  0
  3 31  1  0
  4 32  1  0
  5 33  1  0
  7 34  1  0
  9 35  1  0
 17 36  1  0
 17 37  1  0
 18 38  1  0
 18 39  1  0
 20 40  1  0
 21 41  1  0
 25 42  1  0
 26 43  1  0
 28 44  1  0
M  ISO  8  30  14  31  14  32  14  33  14  34  14  35  14  36   8  37   8
M  ISO  7  38   8  39   8  40  14  41  14  42  14  43  14  44  14
M  END
>  <minimizedAffinity>  (1) 
-6.94168949

>  <minimizedRMSD>  (1) 
1.36847544

$$$$
