
     RDKit          3D

 36 38  0  0  0  0  0  0  0  0999 V2000
   39.2250   32.3230   46.0960 C   0  0  0  0  0  0  0  0  0  0  0  0
   37.7130   32.5290   49.5710 C   0  0  0  0  0  0  0  0  0  0  0  0
   38.5600   32.8170   48.4920 C   0  0  0  0  0  0  0  0  0  0  0  0
   38.4130   32.1250   47.2980 C   0  0  0  0  0  0  0  0  0  0  0  0
   37.4140   31.1710   47.2460 N   0  0  0  0  0  0  0  0  0  0  0  0
   36.6100   30.9090   48.2940 C   0  0  0  0  0  0  0  0  0  0  0  0
   36.7480   31.5750   49.4490 N   0  0  0  0  0  0  0  0  0  0  0  0
   40.0970   31.0770   45.9470 C   0  0  0  0  0  0  0  0  0  0  0  0
   40.1150   33.5200   46.1590 C   0  0  0  0  0  0  0  0  0  0  0  0
   38.3270   32.4220   44.9150 C   0  0  0  0  0  0  0  0  0  0  0  0
   38.8660   31.7510   43.6950 C   0  0  0  0  0  0  0  0  0  0  0  0
   39.4790   32.5430   42.6740 C   0  0  0  0  0  0  0  0  0  0  0  0
   39.9390   31.2490   41.4550 S   0  0  0  0  0  0  0  0  0  0  0  0
   39.2240   29.8900   42.5370 C   0  0  0  0  0  0  0  0  0  0  0  0
   38.8430   30.4630   43.4290 N   0  0  0  0  0  0  0  0  0  0  0  0
   39.2540   28.4440   42.1270 C   0  0  0  0  0  0  0  0  0  0  0  0
   39.0950   27.5330   43.1150 C   0  0  0  0  0  0  0  0  0  0  0  0
   39.1240   26.2050   42.7360 C   0  0  0  0  0  0  0  0  0  0  0  0
   39.3040   25.8710   41.4350 N   0  0  0  0  0  0  0  0  0  0  0  0
   39.4590   26.8200   40.4780 C   0  0  0  0  0  0  0  0  0  0  0  0
   39.4330   28.1200   40.8380 N   0  0  0  0  0  0  0  0  0  0  0  0
   37.8277   33.0748   50.5191 H   0  0  0  0  0  0  0  0  0  0  0  0
   39.3380   33.5883   48.5912 H   0  0  0  0  0  0  0  0  0  0  0  0
   35.8302   30.1388   48.2010 H   0  0  0  0  0  0  0  0  0  0  0  0
   40.3642   30.6952   46.9434 H   0  0  0  0  0  0  0  0  0  0  0  0
   39.5414   30.3045   45.3952 H   0  0  0  0  0  0  0  0  0  0  0  0
   41.0131   31.3344   45.3952 H   0  0  0  0  0  0  0  0  0  0  0  0
   40.3075   33.7789   47.2106 H   0  0  0  0  0  0  0  0  0  0  0  0
   41.0674   33.2956   45.6564 H   0  0  0  0  0  0  0  0  0  0  0  0
   39.6259   34.3674   45.6564 H   0  0  0  0  0  0  0  0  0  0  0  0
   37.3638   31.9565   45.1708 H   0  0  0  0  0  0  0  0  0  0  0  0
   38.2254   33.4910   44.6763 H   0  0  0  0  0  0  0  0  0  0  0  0
   39.6330   33.6313   42.6307 H   0  0  0  0  0  0  0  0  0  0  0  0
   38.9505   27.8338   44.1632 H   0  0  0  0  0  0  0  0  0  0  0  0
   39.0006   25.4161   43.4926 H   0  0  0  0  0  0  0  0  0  0  0  0
   39.6035   26.5342   39.4256 H   0  0  0  0  0  0  0  0  0  0  0  0
  1  9  1  0
  1  4  1  0
  3  2  2  0
  4  3  1  0
  5  4  2  0
  5  6  1  0
  6  7  2  0
  7  2  1  0
  8  1  1  0
 10  1  1  0
 11 10  1  0
 12 11  2  0
 13 14  1  0
 13 12  1  0
 14 15  2  0
 15 11  1  0
 16 14  1  0
 16 17  2  0
 18 17  1  0
 19 18  2  0
 20 21  2  0
 20 19  1  0
 21 16  1  0
  2 22  1  0
  3 23  1  0
  6 24  1  0
  8 25  1  0
  8 26  1  0
  8 27  1  0
  9 28  1  0
  9 29  1  0
  9 30  1  0
 10 31  1  0
 10 32  1  0
 12 33  1  0
 17 34  1  0
 18 35  1  0
 20 36  1  0
M  ISO  8  22  14  23  14  24  14  25   8  26   8  27   8  28   8  29   8
M  ISO  7  30   8  31   8  32   8  33  14  34  14  35  14  36  14
M  END
>  <minimizedAffinity>  (1) 
-5.18346214

>  <minimizedRMSD>  (1) 
0.722424209

$$$$
