
     RDKit          3D

 42 45  0  0  0  0  0  0  0  0999 V2000
   31.7160   26.1930   47.5530 C   0  0  0  0  0  0  0  0  0  0  0  0
   31.4220   25.1030   46.8060 C   0  0  0  0  0  0  0  0  0  0  0  0
   32.3720   24.3430   46.1580 C   0  0  0  0  0  0  0  0  0  0  0  0
   33.6820   24.7610   46.3110 C   0  0  0  0  0  0  0  0  0  0  0  0
   34.0100   25.8520   47.0570 C   0  0  0  0  0  0  0  0  0  0  0  0
   33.0330   26.5880   47.6910 C   0  0  0  0  0  0  0  0  0  0  0  0
   29.3840   27.4890   50.0990 C   0  0  0  0  0  0  0  0  0  0  0  0
   28.6970   28.4950   49.4010 C   0  0  0  0  0  0  0  0  0  0  0  0
   29.0570   28.7010   48.0650 C   0  0  0  0  0  0  0  0  0  0  0  0
   30.0480   27.9230   47.5130 N   0  0  0  0  0  0  0  0  0  0  0  0
   30.6730   26.9740   48.2270 C   0  0  0  0  0  0  0  0  0  0  0  0
   30.3320   26.7760   49.4990 N   0  0  0  0  0  0  0  0  0  0  0  0
   27.6330   29.3160   50.0210 C   0  0  0  0  0  0  0  0  0  0  0  0
   28.0500   30.5720   50.3710 F   0  0  0  0  0  0  0  0  0  0  0  0
   27.1220   28.7200   51.1560 F   0  0  0  0  0  0  0  0  0  0  0  0
   26.5720   29.4650   49.1020 F   0  0  0  0  0  0  0  0  0  0  0  0
   33.3320   27.7800   48.5080 C   0  0  0  0  0  0  0  0  0  0  0  0
   33.7720   28.9720   47.7370 C   0  0  0  0  0  0  0  0  0  0  0  0
   35.0180   29.5100   48.2850 C   0  0  0  0  0  0  0  0  0  0  0  0
   35.7440   28.8920   49.2880 C   0  0  0  0  0  0  0  0  0  0  0  0
   36.8550   29.6470   49.5860 C   0  0  0  0  0  0  0  0  0  0  0  0
   36.7630   30.7250   48.7330 N   0  0  0  0  0  0  0  0  0  0  0  0
   35.6860   30.6420   47.9720 N   0  0  0  0  0  0  0  0  0  0  0  0
   37.6810   31.8110   48.6430 C   0  0  0  0  0  0  0  0  0  0  0  0
   37.8260   32.9170   49.6290 C   0  0  0  0  0  0  0  0  0  0  0  0
   39.2130   33.9140   48.8060 S   0  0  0  0  0  0  0  0  0  0  0  0
   39.2780   32.6640   47.3790 C   0  0  0  0  0  0  0  0  0  0  0  0
   38.4990   31.8930   47.6170 N   0  0  0  0  0  0  0  0  0  0  0  0
   30.3667   24.8075   46.7109 H   0  0  0  0  0  0  0  0  0  0  0  0
   32.1056   23.4606   45.5576 H   0  0  0  0  0  0  0  0  0  0  0  0
   34.4836   24.1944   45.8146 H   0  0  0  0  0  0  0  0  0  0  0  0
   35.0648   26.1484   47.1543 H   0  0  0  0  0  0  0  0  0  0  0  0
   29.1356   27.2890   51.1518 H   0  0  0  0  0  0  0  0  0  0  0  0
   28.5549   29.4739   47.4646 H   0  0  0  0  0  0  0  0  0  0  0  0
   32.4225   28.0497   49.0648 H   0  0  0  0  0  0  0  0  0  0  0  0
   34.1750   27.5048   49.1588 H   0  0  0  0  0  0  0  0  0  0  0  0
   32.9909   29.7447   47.7894 H   0  0  0  0  0  0  0  0  0  0  0  0
   33.9440   28.6743   46.6921 H   0  0  0  0  0  0  0  0  0  0  0  0
   35.4741   27.9423   49.7729 H   0  0  0  0  0  0  0  0  0  0  0  0
   37.6357   29.4383   50.3323 H   0  0  0  0  0  0  0  0  0  0  0  0
   37.2832   33.1028   50.5675 H   0  0  0  0  0  0  0  0  0  0  0  0
   39.9412   32.6903   46.5018 H   0  0  0  0  0  0  0  0  0  0  0  0
  1  6  1  0
  1 11  1  0
  2  1  2  0
  3  4  2  0
  3  2  1  0
  4  5  1  0
  5  6  2  0
  6 17  1  0
  8 13  1  0
  8  7  2  0
  9  8  1  0
 10  9  2  0
 10 11  1  0
 11 12  2  0
 12  7  1  0
 13 14  1  0
 13 15  1  0
 16 13  1  0
 18 19  1  0
 18 17  1  0
 19 20  1  0
 20 21  2  0
 22 21  1  0
 23 19  2  0
 23 22  1  0
 24 22  1  0
 24 25  2  0
 26 25  1  0
 27 28  2  0
 27 26  1  0
 28 24  1  0
  2 29  1  0
  3 30  1  0
  4 31  1  0
  5 32  1  0
  7 33  1  0
  9 34  1  0
 17 35  1  0
 17 36  1  0
 18 37  1  0
 18 38  1  0
 20 39  1  0
 21 40  1  0
 25 41  1  0
 27 42  1  0
M  ISO  8  29  14  30  14  31  14  32  14  33  14  34  14  35   8  36   8
M  ISO  6  37   8  38   8  39  14  40  14  41  14  42  14
M  END
>  <minimizedAffinity>  (1) 
-6.55532265

>  <minimizedRMSD>  (1) 
0.983634353

$$$$
