
     RDKit          3D

 39 41  0  0  0  0  0  0  0  0999 V2000
   31.7540   26.2110   47.5640 C   0  0  0  0  0  0  0  0  0  0  0  0
   31.4670   25.1120   46.8390 C   0  0  0  0  0  0  0  0  0  0  0  0
   32.4270   24.3540   46.1830 C   0  0  0  0  0  0  0  0  0  0  0  0
   33.7280   24.7860   46.3100 C   0  0  0  0  0  0  0  0  0  0  0  0
   34.0400   25.9040   47.0440 C   0  0  0  0  0  0  0  0  0  0  0  0
   33.0610   26.6320   47.6810 C   0  0  0  0  0  0  0  0  0  0  0  0
   29.4120   27.5030   50.1010 C   0  0  0  0  0  0  0  0  0  0  0  0
   28.7190   28.5020   49.3940 C   0  0  0  0  0  0  0  0  0  0  0  0
   29.0770   28.7070   48.0550 C   0  0  0  0  0  0  0  0  0  0  0  0
   30.0750   27.9310   47.5080 N   0  0  0  0  0  0  0  0  0  0  0  0
   30.7070   26.9840   48.2410 C   0  0  0  0  0  0  0  0  0  0  0  0
   30.3690   26.7880   49.5080 N   0  0  0  0  0  0  0  0  0  0  0  0
   27.6460   29.3280   49.9960 C   0  0  0  0  0  0  0  0  0  0  0  0
   28.0610   30.5790   50.3610 F   0  0  0  0  0  0  0  0  0  0  0  0
   27.1250   28.7220   51.1310 F   0  0  0  0  0  0  0  0  0  0  0  0
   26.5980   29.4820   49.0760 F   0  0  0  0  0  0  0  0  0  0  0  0
   33.3560   27.8370   48.4800 C   0  0  0  0  0  0  0  0  0  0  0  0
   34.0370   28.9300   47.7370 C   0  0  0  0  0  0  0  0  0  0  0  0
   35.0990   29.5230   48.5500 C   0  0  0  0  0  0  0  0  0  0  0  0
   35.6640   28.8850   49.6400 C   0  0  0  0  0  0  0  0  0  0  0  0
   36.6320   29.6990   50.1950 C   0  0  0  0  0  0  0  0  0  0  0  0
   36.6230   30.8260   49.4060 N   0  0  0  0  0  0  0  0  0  0  0  0
   35.7220   30.7170   48.4440 N   0  0  0  0  0  0  0  0  0  0  0  0
   37.4980   31.9800   49.6170 C   0  0  0  0  0  0  0  0  0  0  0  0
   30.4153   24.7987   46.7630 H   0  0  0  0  0  0  0  0  0  0  0  0
   32.1640   23.4613   45.5966 H   0  0  0  0  0  0  0  0  0  0  0  0
   34.5334   24.2247   45.8138 H   0  0  0  0  0  0  0  0  0  0  0  0
   35.0897   26.2229   47.1241 H   0  0  0  0  0  0  0  0  0  0  0  0
   29.1620   27.3093   51.1545 H   0  0  0  0  0  0  0  0  0  0  0  0
   28.5700   29.4741   47.4512 H   0  0  0  0  0  0  0  0  0  0  0  0
   32.4053   28.2296   48.8698 H   0  0  0  0  0  0  0  0  0  0  0  0
   34.0530   27.5202   49.2698 H   0  0  0  0  0  0  0  0  0  0  0  0
   34.4740   28.5216   46.8138 H   0  0  0  0  0  0  0  0  0  0  0  0
   33.2982   29.7088   47.4968 H   0  0  0  0  0  0  0  0  0  0  0  0
   35.3858   27.8860   50.0070 H   0  0  0  0  0  0  0  0  0  0  0  0
   37.2664   29.4929   51.0697 H   0  0  0  0  0  0  0  0  0  0  0  0
   37.6269   32.1500   50.6961 H   0  0  0  0  0  0  0  0  0  0  0  0
   38.4781   31.7860   49.1567 H   0  0  0  0  0  0  0  0  0  0  0  0
   37.0467   32.8713   49.1567 H   0  0  0  0  0  0  0  0  0  0  0  0
  1  6  1  0
  1 11  1  0
  2  1  2  0
  3  4  2  0
  3  2  1  0
  4  5  1  0
  5  6  2  0
  6 17  1  0
  8 13  1  0
  8  7  2  0
  9  8  1  0
 10  9  2  0
 10 11  1  0
 11 12  2  0
 12  7  1  0
 13 14  1  0
 13 15  1  0
 16 13  1  0
 18 17  1  0
 18 19  1  0
 19 20  1  0
 20 21  2  0
 22 24  1  0
 22 21  1  0
 23 19  2  0
 23 22  1  0
  2 25  1  0
  3 26  1  0
  4 27  1  0
  5 28  1  0
  7 29  1  0
  9 30  1  0
 17 31  1  0
 17 32  1  0
 18 33  1  0
 18 34  1  0
 20 35  1  0
 21 36  1  0
 24 37  1  0
 24 38  1  0
 24 39  1  0
M  ISO  8  25  14  26  14  27  14  28  14  29  14  30  14  31   8  32   8
M  ISO  7  33   8  34   8  35  14  36  14  37   8  38   8  39   8
M  END
>  <minimizedAffinity>  (1) 
-5.866992

>  <minimizedRMSD>  (1) 
0.313680142

$$$$
