
     RDKit          3D

 23 24  0  0  0  0  0  0  0  0999 V2000
   36.7110   29.8820   49.5740 C   0  0  0  0  0  0  0  0  0  0  0  0
   37.8210   30.3850   48.8820 C   0  0  0  0  0  0  0  0  0  0  0  0
   37.6730   30.7350   47.5440 C   0  0  0  0  0  0  0  0  0  0  0  0
   36.4570   30.5710   46.9810 N   0  0  0  0  0  0  0  0  0  0  0  0
   35.3850   30.0780   47.6760 C   0  0  0  0  0  0  0  0  0  0  0  0
   35.5360   29.7430   48.9630 N   0  0  0  0  0  0  0  0  0  0  0  0
   38.7450   31.2600   46.7430 C   0  0  0  0  0  0  0  0  0  0  0  0
   39.1210   32.5690   46.9410 C   0  0  0  0  0  0  0  0  0  0  0  0
   40.1350   33.1980   46.2390 C   0  0  0  0  0  0  0  0  0  0  0  0
   40.8280   32.4850   45.2750 C   0  0  0  0  0  0  0  0  0  0  0  0
   40.4620   31.1730   45.0660 C   0  0  0  0  0  0  0  0  0  0  0  0
   39.4310   30.5730   45.7950 C   0  0  0  0  0  0  0  0  0  0  0  0
   36.8710   29.5040   51.0160 C   0  0  0  0  0  0  0  0  0  0  0  0
   35.6360   29.1460   51.5460 F   0  0  0  0  0  0  0  0  0  0  0  0
   37.8130   28.5210   51.0940 F   0  0  0  0  0  0  0  0  0  0  0  0
   37.3030   30.6390   51.6970 F   0  0  0  0  0  0  0  0  0  0  0  0
   38.7911   30.5008   49.3875 H   0  0  0  0  0  0  0  0  0  0  0  0
   34.4097   29.9585   47.1816 H   0  0  0  0  0  0  0  0  0  0  0  0
   38.5829   33.1511   47.7037 H   0  0  0  0  0  0  0  0  0  0  0  0
   40.3866   34.2490   46.4440 H   0  0  0  0  0  0  0  0  0  0  0  0
   41.6409   32.9490   44.6972 H   0  0  0  0  0  0  0  0  0  0  0  0
   40.9948   30.5826   44.3060 H   0  0  0  0  0  0  0  0  0  0  0  0
   39.1707   29.5229   45.5961 H   0  0  0  0  0  0  0  0  0  0  0  0
  1 13  1  0
  2  1  2  0
  3  2  1  0
  4  3  2  0
  4  5  1  0
  5  6  2  0
  6  1  1  0
  7  8  2  0
  7  3  1  0
  9  8  1  0
 10  9  2  0
 11 10  1  0
 11 12  2  0
 12  7  1  0
 13 15  1  0
 13 14  1  0
 13 16  1  0
  2 17  1  0
  5 18  1  0
  8 19  1  0
  9 20  1  0
 10 21  1  0
 11 22  1  0
 12 23  1  0
M  ISO  7  17  14  18  14  19  14  20  14  21  14  22  14  23  14
M  END
>  <minimizedAffinity>  (1) 
-6.3633399

>  <minimizedRMSD>  (1) 
2.56719804

$$$$
