
     RDKit          3D

 23 24  0  0  0  0  0  0  0  0999 V2000
   36.7190   29.8870   49.5610 C   0  0  0  0  0  0  0  0  0  0  0  0
   37.8350   30.4010   48.8800 C   0  0  0  0  0  0  0  0  0  0  0  0
   37.6860   30.7470   47.5420 C   0  0  0  0  0  0  0  0  0  0  0  0
   36.4760   30.5720   46.9670 N   0  0  0  0  0  0  0  0  0  0  0  0
   35.4050   30.0710   47.6460 C   0  0  0  0  0  0  0  0  0  0  0  0
   35.5390   29.7340   48.9360 N   0  0  0  0  0  0  0  0  0  0  0  0
   38.7590   31.2840   46.7430 C   0  0  0  0  0  0  0  0  0  0  0  0
   39.1210   32.5970   46.9640 C   0  0  0  0  0  0  0  0  0  0  0  0
   40.1470   33.2280   46.2510 C   0  0  0  0  0  0  0  0  0  0  0  0
   40.7920   32.4650   45.3000 C   0  0  0  0  0  0  0  0  0  0  0  0
   40.4840   31.1490   45.0270 C   0  0  0  0  0  0  0  0  0  0  0  0
   39.4460   30.6050   45.7890 C   0  0  0  0  0  0  0  0  0  0  0  0
   36.8710   29.5080   51.0050 C   0  0  0  0  0  0  0  0  0  0  0  0
   35.6560   29.1410   51.5220 F   0  0  0  0  0  0  0  0  0  0  0  0
   37.8190   28.5220   51.0780 F   0  0  0  0  0  0  0  0  0  0  0  0
   37.3120   30.6310   51.6830 F   0  0  0  0  0  0  0  0  0  0  0  0
   38.8006   30.5263   49.3917 H   0  0  0  0  0  0  0  0  0  0  0  0
   34.4375   29.9443   47.1382 H   0  0  0  0  0  0  0  0  0  0  0  0
   38.5814   33.1711   47.7316 H   0  0  0  0  0  0  0  0  0  0  0  0
   40.4240   34.2758   46.4389 H   0  0  0  0  0  0  0  0  0  0  0  0
   41.6023   32.9355   44.7237 H   0  0  0  0  0  0  0  0  0  0  0  0
   41.0186   30.5670   44.2618 H   0  0  0  0  0  0  0  0  0  0  0  0
   39.1673   29.5572   45.6033 H   0  0  0  0  0  0  0  0  0  0  0  0
  1 13  1  0
  2  1  2  0
  3  2  1  0
  4  3  2  0
  4  5  1  0
  5  6  2  0
  6  1  1  0
  7  8  2  0
  7  3  1  0
  9  8  1  0
 10  9  2  0
 11 10  1  0
 11 12  2  0
 12  7  1  0
 13 15  1  0
 13 14  1  0
 13 16  1  0
  2 17  1  0
  5 18  1  0
  8 19  1  0
  9 20  1  0
 10 21  1  0
 11 22  1  0
 12 23  1  0
M  ISO  7  17  14  18  14  19  14  20  14  21  14  22  14  23  14
M  END
>  <minimizedAffinity>  (1) 
-6.35104942

>  <minimizedRMSD>  (1) 
2.54448009

$$$$
