
     RDKit          3D

 22 23  0  0  0  0  0  0  0  0999 V2000
   36.6880   29.8590   49.5510 C   0  0  0  0  0  0  0  0  0  0  0  0
   37.7820   30.4270   48.8680 C   0  0  0  0  0  0  0  0  0  0  0  0
   37.6020   30.7680   47.5350 C   0  0  0  0  0  0  0  0  0  0  0  0
   36.4060   30.5450   46.9540 N   0  0  0  0  0  0  0  0  0  0  0  0
   35.3660   29.9910   47.6530 C   0  0  0  0  0  0  0  0  0  0  0  0
   35.5280   29.6610   48.9330 N   0  0  0  0  0  0  0  0  0  0  0  0
   38.6890   31.3550   46.7720 C   0  0  0  0  0  0  0  0  0  0  0  0
   39.0840   32.6440   47.0180 C   0  0  0  0  0  0  0  0  0  0  0  0
   40.1320   33.1540   46.2540 C   0  0  0  0  0  0  0  0  0  0  0  0
   40.7800   32.4250   45.2720 C   0  0  0  0  0  0  0  0  0  0  0  0
   40.3280   31.1250   45.0750 C   0  0  0  0  0  0  0  0  0  0  0  0
   39.3160   30.6530   45.8230 N   0  0  0  0  0  0  0  0  0  0  0  0
   36.8680   29.4860   50.9940 C   0  0  0  0  0  0  0  0  0  0  0  0
   35.6490   29.1360   51.5360 F   0  0  0  0  0  0  0  0  0  0  0  0
   37.8200   28.5170   51.0770 F   0  0  0  0  0  0  0  0  0  0  0  0
   37.3010   30.6380   51.6670 F   0  0  0  0  0  0  0  0  0  0  0  0
   38.7445   30.5941   49.3736 H   0  0  0  0  0  0  0  0  0  0  0  0
   34.3989   29.8191   47.1578 H   0  0  0  0  0  0  0  0  0  0  0  0
   38.5919   33.2537   47.7901 H   0  0  0  0  0  0  0  0  0  0  0  0
   40.4605   34.1871   46.4406 H   0  0  0  0  0  0  0  0  0  0  0  0
   41.6051   32.8497   44.6814 H   0  0  0  0  0  0  0  0  0  0  0  0
   40.7960   30.4864   44.3113 H   0  0  0  0  0  0  0  0  0  0  0  0
  1 13  1  0
  2  1  2  0
  3  2  1  0
  4  3  2  0
  4  5  1  0
  5  6  2  0
  6  1  1  0
  7  8  2  0
  7  3  1  0
  9  8  1  0
 10  9  2  0
 11 10  1  0
 11 12  2  0
 12  7  1  0
 13 15  1  0
 13 14  1  0
 13 16  1  0
  2 17  1  0
  5 18  1  0
  8 19  1  0
  9 20  1  0
 10 21  1  0
 11 22  1  0
M  ISO  6  17  14  18  14  19  14  20  14  21  14  22  14
M  END
>  <minimizedAffinity>  (1) 
-6.04201603

>  <minimizedRMSD>  (1) 
2.55124688

$$$$
