
     RDKit          3D

 26 27  0  0  0  0  0  0  0  0999 V2000
   37.1350   30.3200   48.9450 C   0  0  0  0  0  0  0  0  0  0  0  0
   38.0380   30.7700   47.9710 C   0  0  0  0  0  0  0  0  0  0  0  0
   37.5940   30.8560   46.6620 C   0  0  0  0  0  0  0  0  0  0  0  0
   36.3220   30.5060   46.3870 N   0  0  0  0  0  0  0  0  0  0  0  0
   35.4700   30.0730   47.3490 C   0  0  0  0  0  0  0  0  0  0  0  0
   35.8830   29.9840   48.6180 N   0  0  0  0  0  0  0  0  0  0  0  0
   38.4280   31.2950   45.6330 N   0  0  0  0  0  0  0  0  0  0  0  0
   38.3980   32.5700   44.9840 C   0  0  0  0  0  0  0  0  0  0  0  0
   39.8010   33.1820   44.9160 C   0  0  0  0  0  0  0  0  0  0  0  0
   40.7620   32.2810   44.5310 O   0  0  0  0  0  0  0  0  0  0  0  0
   40.7670   31.1890   45.3860 C   0  0  0  0  0  0  0  0  0  0  0  0
   39.4700   30.4420   45.0930 C   0  0  0  0  0  0  0  0  0  0  0  0
   37.5960   30.2190   50.3750 C   0  0  0  0  0  0  0  0  0  0  0  0
   36.6610   30.7990   51.2120 F   0  0  0  0  0  0  0  0  0  0  0  0
   37.8750   28.9240   50.6500 F   0  0  0  0  0  0  0  0  0  0  0  0
   38.7620   30.9930   50.4770 F   0  0  0  0  0  0  0  0  0  0  0  0
   39.0685   31.0465   48.2388 H   0  0  0  0  0  0  0  0  0  0  0  0
   34.4389   29.7949   47.0856 H   0  0  0  0  0  0  0  0  0  0  0  0
   38.0097   32.4451   43.9624 H   0  0  0  0  0  0  0  0  0  0  0  0
   37.7484   33.2435   45.5623 H   0  0  0  0  0  0  0  0  0  0  0  0
   39.7872   34.0102   44.1922 H   0  0  0  0  0  0  0  0  0  0  0  0
   40.0592   33.5252   45.9287 H   0  0  0  0  0  0  0  0  0  0  0  0
   41.6361   30.5457   45.1841 H   0  0  0  0  0  0  0  0  0  0  0  0
   40.8349   31.4944   46.4406 H   0  0  0  0  0  0  0  0  0  0  0  0
   39.3370   30.3044   44.0098 H   0  0  0  0  0  0  0  0  0  0  0  0
   39.4580   29.4357   45.5371 H   0  0  0  0  0  0  0  0  0  0  0  0
  1 13  1  0
  2  1  2  0
  3  2  1  0
  4  3  2  0
  4  5  1  0
  5  6  2  0
  6  1  1  0
  7  3  1  0
  8  7  1  0
  9  8  1  0
 10  9  1  0
 10 11  1  0
 12 11  1  0
 12  7  1  0
 13 16  1  0
 13 15  1  0
 13 14  1  0
  2 17  1  0
  5 18  1  0
  8 19  1  0
  8 20  1  0
  9 21  1  0
  9 22  1  0
 11 23  1  0
 11 24  1  0
 12 25  1  0
 12 26  1  0
M  ISO  8  17  14  18  14  19  13  20  13  21  13  22  13  23  13  24  13
M  ISO  2  25  13  26  13
M  END
>  <minimizedAffinity>  (1) 
-5.85656452

>  <minimizedRMSD>  (1) 
3.38770795

$$$$
