
     RDKit          3D

 21 22  0  0  0  0  0  0  0  0999 V2000
   36.7370   29.8890   49.4930 C   0  0  0  0  0  0  0  0  0  0  0  0
   37.8240   30.4490   48.8180 C   0  0  0  0  0  0  0  0  0  0  0  0
   37.6510   30.8010   47.4800 C   0  0  0  0  0  0  0  0  0  0  0  0
   36.4500   30.5850   46.9100 N   0  0  0  0  0  0  0  0  0  0  0  0
   35.4090   30.0390   47.5920 C   0  0  0  0  0  0  0  0  0  0  0  0
   35.5570   29.6970   48.8720 N   0  0  0  0  0  0  0  0  0  0  0  0
   38.7360   31.3790   46.7380 C   0  0  0  0  0  0  0  0  0  0  0  0
   39.4160   30.6130   45.8100 C   0  0  0  0  0  0  0  0  0  0  0  0
   40.4530   31.1790   45.1040 C   0  0  0  0  0  0  0  0  0  0  0  0
   40.7950   32.4610   45.3230 N   0  0  0  0  0  0  0  0  0  0  0  0
   40.1340   33.2210   46.2310 C   0  0  0  0  0  0  0  0  0  0  0  0
   39.1220   32.6410   46.9070 N   0  0  0  0  0  0  0  0  0  0  0  0
   36.9010   29.5030   50.9350 C   0  0  0  0  0  0  0  0  0  0  0  0
   35.6760   29.1550   51.4770 F   0  0  0  0  0  0  0  0  0  0  0  0
   37.8360   28.5130   51.0030 F   0  0  0  0  0  0  0  0  0  0  0  0
   37.3420   30.6230   51.6160 F   0  0  0  0  0  0  0  0  0  0  0  0
   38.7866   30.6074   49.3262 H   0  0  0  0  0  0  0  0  0  0  0  0
   34.4444   29.8793   47.0879 H   0  0  0  0  0  0  0  0  0  0  0  0
   39.1320   29.5643   45.6379 H   0  0  0  0  0  0  0  0  0  0  0  0
   41.0022   30.5827   44.3605 H   0  0  0  0  0  0  0  0  0  0  0  0
   40.4128   34.2701   46.4091 H   0  0  0  0  0  0  0  0  0  0  0  0
  1 13  1  0
  2  1  2  0
  3  2  1  0
  4  3  2  0
  4  5  1  0
  5  6  2  0
  6  1  1  0
  7 12  1  0
  7  3  1  0
  8  7  2  0
  9 10  2  0
  9  8  1  0
 10 11  1  0
 11 12  2  0
 13 15  1  0
 13 14  1  0
 13 16  1  0
  2 17  1  0
  5 18  1  0
  8 19  1  0
  9 20  1  0
 11 21  1  0
M  ISO  5  17  14  18  14  19  14  20  14  21  14
M  END
>  <minimizedAffinity>  (1) 
-5.80584908

>  <minimizedRMSD>  (1) 
2.53496027

$$$$
