
     RDKit          3D

 20 21  0  0  0  0  0  0  0  0999 V2000
   36.9270   30.0310   49.9890 C   0  0  0  0  0  0  0  0  0  0  0  0
   37.8110   31.0910   49.7570 C   0  0  0  0  0  0  0  0  0  0  0  0
   37.8400   31.6600   48.4910 C   0  0  0  0  0  0  0  0  0  0  0  0
   37.0140   31.1600   47.5480 N   0  0  0  0  0  0  0  0  0  0  0  0
   36.1650   30.1280   47.8050 C   0  0  0  0  0  0  0  0  0  0  0  0
   36.1320   29.5770   49.0230 N   0  0  0  0  0  0  0  0  0  0  0  0
   38.7420   32.7650   48.1980 C   0  0  0  0  0  0  0  0  0  0  0  0
   39.1160   33.7610   49.0400 C   0  0  0  0  0  0  0  0  0  0  0  0
   39.9800   34.6170   48.3980 C   0  0  0  0  0  0  0  0  0  0  0  0
   40.1120   34.1060   47.1490 N   0  0  0  0  0  0  0  0  0  0  0  0
   39.3780   33.0120   47.0390 N   0  0  0  0  0  0  0  0  0  0  0  0
   36.8960   29.4160   51.3560 C   0  0  0  0  0  0  0  0  0  0  0  0
   35.6020   29.0920   51.7000 F   0  0  0  0  0  0  0  0  0  0  0  0
   37.7490   28.3520   51.3730 F   0  0  0  0  0  0  0  0  0  0  0  0
   37.3270   30.3780   52.2570 F   0  0  0  0  0  0  0  0  0  0  0  0
   38.4665   31.4640   50.5578 H   0  0  0  0  0  0  0  0  0  0  0  0
   35.5060   29.7471   47.0109 H   0  0  0  0  0  0  0  0  0  0  0  0
   38.7783   33.8679   50.0814 H   0  0  0  0  0  0  0  0  0  0  0  0
   40.4589   35.5185   48.8079 H   0  0  0  0  0  0  0  0  0  0  0  0
   40.6946   34.5083   46.4009 H   0  0  0  0  0  0  0  0  0  0  0  0
  1 12  1  0
  2  1  2  0
  3  2  1  0
  4  5  1  0
  4  3  2  0
  5  6  2  0
  6  1  1  0
  7  3  1  0
  7  8  1  0
  9  8  2  0
 10  9  1  0
 11 10  1  0
 11  7  2  0
 12 14  1  0
 12 13  1  0
 12 15  1  0
  2 16  1  0
  5 17  1  0
  8 18  1  0
  9 19  1  0
 10 20  1  0
M  ISO  5  16  14  17  14  18  14  19  14  20   9
M  END
>  <minimizedAffinity>  (1) 
-5.59676218

>  <minimizedRMSD>  (1) 
1.07144356

$$$$
