
     RDKit          3D

 16 16  0  0  0  0  0  0  0  0999 V2000
   37.6210   30.3410   49.8830 C   0  0  0  0  0  0  0  0  0  0  0  0
   38.1590   31.6250   50.0950 C   0  0  0  0  0  0  0  0  0  0  0  0
   38.5310   32.3640   48.9740 C   0  0  0  0  0  0  0  0  0  0  0  0
   38.3550   31.8070   47.7440 N   0  0  0  0  0  0  0  0  0  0  0  0
   37.8330   30.5650   47.5820 C   0  0  0  0  0  0  0  0  0  0  0  0
   37.4760   29.8550   48.6560 N   0  0  0  0  0  0  0  0  0  0  0  0
   37.2140   29.5300   51.0750 C   0  0  0  0  0  0  0  0  0  0  0  0
   35.8420   29.3860   51.1010 F   0  0  0  0  0  0  0  0  0  0  0  0
   37.8970   28.3510   51.0550 F   0  0  0  0  0  0  0  0  0  0  0  0
   37.5660   30.2690   52.2130 F   0  0  0  0  0  0  0  0  0  0  0  0
   39.1030   33.7240   49.1580 C   0  0  0  0  0  0  0  0  0  0  0  0
   39.8130   33.8510   50.3410 F   0  0  0  0  0  0  0  0  0  0  0  0
   38.0580   34.6430   49.0900 F   0  0  0  0  0  0  0  0  0  0  0  0
   39.9320   34.0610   48.0800 F   0  0  0  0  0  0  0  0  0  0  0  0
   38.2813   32.0304   51.1102 H   0  0  0  0  0  0  0  0  0  0  0  0
   37.7046   30.1456   46.5732 H   0  0  0  0  0  0  0  0  0  0  0  0
  1  2  2  0
  1  7  1  0
  3 11  1  0
  3  2  1  0
  4  3  2  0
  5  4  1  0
  5  6  2  0
  6  1  1  0
  7  8  1  0
  7 10  1  0
  9  7  1  0
 11 12  1  0
 13 11  1  0
 14 11  1  0
  2 15  1  0
  5 16  1  0
M  ISO  2  15  14  16  14
M  END
>  <minimizedAffinity>  (1) 
-5.5335536

>  <minimizedRMSD>  (1) 
0.863222897

$$$$
