
     RDKit          3D

 16 16  0  0  0  0  0  0  0  0999 V2000
   37.3700   30.3090   49.9860 C   0  0  0  0  0  0  0  0  0  0  0  0
   38.0680   31.5000   50.1560 C   0  0  0  0  0  0  0  0  0  0  0  0
   38.2800   32.3060   49.0290 C   0  0  0  0  0  0  0  0  0  0  0  0
   37.7960   31.8860   47.8400 N   0  0  0  0  0  0  0  0  0  0  0  0
   37.1160   30.7090   47.7140 C   0  0  0  0  0  0  0  0  0  0  0  0
   36.9080   29.9330   48.7860 N   0  0  0  0  0  0  0  0  0  0  0  0
   37.1380   29.4400   51.1860 C   0  0  0  0  0  0  0  0  0  0  0  0
   35.7770   29.1890   51.3240 F   0  0  0  0  0  0  0  0  0  0  0  0
   37.8930   28.3260   51.0770 F   0  0  0  0  0  0  0  0  0  0  0  0
   37.5190   30.1870   52.3100 F   0  0  0  0  0  0  0  0  0  0  0  0
   39.0110   33.5980   49.0900 C   0  0  0  0  0  0  0  0  0  0  0  0
   38.4426   31.8005   51.1456 H   0  0  0  0  0  0  0  0  0  0  0  0
   36.7378   30.3969   46.7294 H   0  0  0  0  0  0  0  0  0  0  0  0
   39.1704   33.8798   50.1413 H   0  0  0  0  0  0  0  0  0  0  0  0
   39.9836   33.4931   48.5869 H   0  0  0  0  0  0  0  0  0  0  0  0
   38.4202   34.3777   48.5869 H   0  0  0  0  0  0  0  0  0  0  0  0
  1  2  2  0
  1  7  1  0
  3 11  1  0
  3  2  1  0
  4  3  2  0
  5  4  1  0
  5  6  2  0
  6  1  1  0
  7  8  1  0
  7 10  1  0
  9  7  1  0
  2 12  1  0
  5 13  1  0
 11 14  1  0
 11 15  1  0
 11 16  1  0
M  ISO  5  12  14  13  14  14   8  15   8  16   8
M  END
>  <minimizedAffinity>  (1) 
-4.9417572

>  <minimizedRMSD>  (1) 
0.281410307

$$$$
