
     RDKit          3D

 35 37  0  0  0  0  0  0  0  0999 V2000
   39.2300   32.3650   46.1410 C   0  0  0  0  0  0  0  0  0  0  0  0
   37.6830   32.5900   49.6040 C   0  0  0  0  0  0  0  0  0  0  0  0
   38.5370   32.8810   48.5300 C   0  0  0  0  0  0  0  0  0  0  0  0
   38.3990   32.1600   47.3440 C   0  0  0  0  0  0  0  0  0  0  0  0
   37.4210   31.1910   47.2970 N   0  0  0  0  0  0  0  0  0  0  0  0
   36.6190   30.9350   48.3430 C   0  0  0  0  0  0  0  0  0  0  0  0
   36.7310   31.6120   49.4880 N   0  0  0  0  0  0  0  0  0  0  0  0
   40.1090   31.1250   46.0060 C   0  0  0  0  0  0  0  0  0  0  0  0
   40.1020   33.5740   46.2050 C   0  0  0  0  0  0  0  0  0  0  0  0
   38.3260   32.4390   44.9550 C   0  0  0  0  0  0  0  0  0  0  0  0
   38.8820   31.7540   43.7440 C   0  0  0  0  0  0  0  0  0  0  0  0
   39.4720   32.5310   42.7080 C   0  0  0  0  0  0  0  0  0  0  0  0
   39.9590   31.2170   41.5200 S   0  0  0  0  0  0  0  0  0  0  0  0
   39.2780   29.8640   42.6400 C   0  0  0  0  0  0  0  0  0  0  0  0
   38.8790   30.4570   43.5290 N   0  0  0  0  0  0  0  0  0  0  0  0
   39.3150   28.4060   42.3200 C   0  0  0  0  0  0  0  0  0  0  0  0
   39.4810   27.7600   41.1350 C   0  0  0  0  0  0  0  0  0  0  0  0
   39.4310   26.4120   41.4280 C   0  0  0  0  0  0  0  0  0  0  0  0
   39.2370   26.2990   42.7890 C   0  0  0  0  0  0  0  0  0  0  0  0
   39.1750   27.5190   43.2700 O   0  0  0  0  0  0  0  0  0  0  0  0
   37.7784   33.1508   50.5455 H   0  0  0  0  0  0  0  0  0  0  0  0
   39.3031   33.6650   48.6216 H   0  0  0  0  0  0  0  0  0  0  0  0
   35.8531   30.1504   48.2545 H   0  0  0  0  0  0  0  0  0  0  0  0
   40.3733   30.7522   47.0066 H   0  0  0  0  0  0  0  0  0  0  0  0
   39.5610   30.3451   45.4570 H   0  0  0  0  0  0  0  0  0  0  0  0
   41.0264   31.3839   45.4570 H   0  0  0  0  0  0  0  0  0  0  0  0
   40.2903   33.8350   47.2569 H   0  0  0  0  0  0  0  0  0  0  0  0
   41.0577   33.3638   45.7027 H   0  0  0  0  0  0  0  0  0  0  0  0
   39.6009   34.4145   45.7027 H   0  0  0  0  0  0  0  0  0  0  0  0
   37.3682   31.9650   45.2156 H   0  0  0  0  0  0  0  0  0  0  0  0
   38.2060   33.5028   44.7020 H   0  0  0  0  0  0  0  0  0  0  0  0
   39.6012   33.6211   42.6377 H   0  0  0  0  0  0  0  0  0  0  0  0
   39.6256   28.2179   40.1454 H   0  0  0  0  0  0  0  0  0  0  0  0
   39.5277   25.5835   40.7109 H   0  0  0  0  0  0  0  0  0  0  0  0
   39.1506   25.3643   43.3624 H   0  0  0  0  0  0  0  0  0  0  0  0
  1  9  1  0
  1  4  1  0
  3  2  2  0
  4  3  1  0
  5  4  2  0
  5  6  1  0
  6  7  2  0
  7  2  1  0
  8  1  1  0
 10  1  1  0
 11 10  1  0
 12 11  2  0
 13 14  1  0
 13 12  1  0
 14 15  2  0
 15 11  1  0
 16 14  1  0
 16 20  1  0
 17 18  1  0
 17 16  2  0
 18 19  2  0
 19 20  1  0
  2 21  1  0
  3 22  1  0
  6 23  1  0
  8 24  1  0
  8 25  1  0
  8 26  1  0
  9 27  1  0
  9 28  1  0
  9 29  1  0
 10 30  1  0
 10 31  1  0
 12 32  1  0
 17 33  1  0
 18 34  1  0
 19 35  1  0
M  ISO  8  21  14  22  14  23  14  24   8  25   8  26   8  27   8  28   8
M  ISO  7  29   8  30   8  31   8  32  14  33  14  34  14  35  14
M  END
>  <minimizedAffinity>  (1) 
-5.07672882

>  <minimizedRMSD>  (1) 
0.75887239

$$$$
