
     RDKit          3D

 23 23  0  0  0  0  0  0  0  0999 V2000
   36.9060   29.9520   49.8940 C   0  0  0  0  0  0  0  0  0  0  0  0
   37.9970   30.6890   49.4540 C   0  0  0  0  0  0  0  0  0  0  0  0
   37.9960   31.1550   48.1370 C   0  0  0  0  0  0  0  0  0  0  0  0
   36.9310   30.8650   47.3590 N   0  0  0  0  0  0  0  0  0  0  0  0
   35.8870   30.1430   47.8260 C   0  0  0  0  0  0  0  0  0  0  0  0
   35.8900   29.6990   49.0850 N   0  0  0  0  0  0  0  0  0  0  0  0
   39.0780   31.9040   47.6480 N   0  0  0  0  0  0  0  0  0  0  0  0
   39.0080   32.5870   46.4180 C   0  0  0  0  0  0  0  0  0  0  0  0
   37.9220   32.5310   45.7450 N   0  0  0  0  0  0  0  0  0  0  0  0
   40.1270   33.3170   45.9500 N   0  0  0  0  0  0  0  0  0  0  0  0
   37.8490   33.0650   44.8390 H   0  0  0  0  0  0  0  0  0  0  0  0
   36.9080   29.4480   51.3180 C   0  0  0  0  0  0  0  0  0  0  0  0
   35.6090   29.1430   51.6870 F   0  0  0  0  0  0  0  0  0  0  0  0
   37.7710   28.4000   51.4020 F   0  0  0  0  0  0  0  0  0  0  0  0
   37.3480   30.4970   52.1160 F   0  0  0  0  0  0  0  0  0  0  0  0
   34.7280   29.8440   46.9330 C   0  0  0  0  0  0  0  0  0  0  0  0
   34.3970   28.5060   47.0620 F   0  0  0  0  0  0  0  0  0  0  0  0
   33.6470   30.6480   47.2250 F   0  0  0  0  0  0  0  0  0  0  0  0
   35.0870   30.1070   45.6140 F   0  0  0  0  0  0  0  0  0  0  0  0
   38.8417   30.9009   50.1260 H   0  0  0  0  0  0  0  0  0  0  0  0
   39.9446   31.9554   48.2024 H   0  0  0  0  0  0  0  0  0  0  0  0
   40.0765   33.8166   45.0507 H   0  0  0  0  0  0  0  0  0  0  0  0
   40.9917   33.3485   46.5088 H   0  0  0  0  0  0  0  0  0  0  0  0
  1 12  1  0
  2  1  2  0
  3  2  1  0
  4  5  1  0
  4  3  2  0
  5  6  2  0
  6  1  1  0
  7  3  1  0
  8  7  1  0
  9  8  2  0
 10  8  1  0
 11  9  1  0
 12 14  1  0
 12 13  1  0
 12 15  1  0
 16 17  1  0
 16 18  1  0
 16  5  1  0
 19 16  1  0
  2 20  1  0
  7 21  1  0
 10 22  1  0
 10 23  1  0
M  ISO  1  20  14
M  END
>  <minimizedAffinity>  (1) 
-6.49577808

>  <minimizedRMSD>  (1) 
0.363873243

$$$$
