
     RDKit          3D

 26 27  0  0  0  0  0  0  0  0999 V2000
   36.9120   29.9330   49.8650 C   0  0  0  0  0  0  0  0  0  0  0  0
   37.9860   30.6820   49.4340 C   0  0  0  0  0  0  0  0  0  0  0  0
   38.0020   31.1530   48.1220 C   0  0  0  0  0  0  0  0  0  0  0  0
   36.9560   30.8490   47.3400 N   0  0  0  0  0  0  0  0  0  0  0  0
   35.9120   30.1090   47.7910 C   0  0  0  0  0  0  0  0  0  0  0  0
   35.9140   29.6690   49.0430 N   0  0  0  0  0  0  0  0  0  0  0  0
   39.0840   31.9260   47.6500 N   0  0  0  0  0  0  0  0  0  0  0  0
   38.9990   32.6250   46.4160 C   0  0  0  0  0  0  0  0  0  0  0  0
   37.9560   32.4490   45.6840 N   0  0  0  0  0  0  0  0  0  0  0  0
   40.0550   33.4910   46.0310 N   0  0  0  0  0  0  0  0  0  0  0  0
   37.8660   33.0270   44.8080 H   0  0  0  0  0  0  0  0  0  0  0  0
   34.8400   29.8530   46.8350 C   0  0  0  0  0  0  0  0  0  0  0  0
   34.9000   29.9720   45.3500 C   0  0  0  0  0  0  0  0  0  0  0  0
   33.2230   29.5030   44.8340 S   0  0  0  0  0  0  0  0  0  0  0  0
   32.7070   29.2240   46.6340 C   0  0  0  0  0  0  0  0  0  0  0  0
   33.6460   29.4620   47.2860 N   0  0  0  0  0  0  0  0  0  0  0  0
   36.9020   29.4310   51.2830 C   0  0  0  0  0  0  0  0  0  0  0  0
   35.5850   29.1480   51.6590 F   0  0  0  0  0  0  0  0  0  0  0  0
   37.7610   28.4050   51.4030 F   0  0  0  0  0  0  0  0  0  0  0  0
   37.3230   30.5070   52.0920 F   0  0  0  0  0  0  0  0  0  0  0  0
   38.8194   30.9051   50.1163 H   0  0  0  0  0  0  0  0  0  0  0  0
   39.9478   31.9843   48.2080 H   0  0  0  0  0  0  0  0  0  0  0  0
   40.0024   34.0020   45.1383 H   0  0  0  0  0  0  0  0  0  0  0  0
   40.8741   33.6086   46.6443 H   0  0  0  0  0  0  0  0  0  0  0  0
   35.7515   30.2707   44.7209 H   0  0  0  0  0  0  0  0  0  0  0  0
   31.7189   28.9017   46.9941 H   0  0  0  0  0  0  0  0  0  0  0  0
  1 17  1  0
  2  1  2  0
  3  2  1  0
  4  5  1  0
  4  3  2  0
  5  6  2  0
  6  1  1  0
  7  3  1  0
  8  7  1  0
  9  8  2  0
 10  8  1  0
 11  9  1  0
 12 16  1  0
 12  5  1  0
 13 12  2  0
 14 13  1  0
 14 15  1  0
 15 16  2  0
 17 19  1  0
 17 18  1  0
 17 20  1  0
  2 21  1  0
  7 22  1  0
 10 23  1  0
 10 24  1  0
 13 25  1  0
 15 26  1  0
M  ISO  3  21  14  25  14  26  14
M  END
>  <minimizedAffinity>  (1) 
-6.43364048

>  <minimizedRMSD>  (1) 
0.142358884

$$$$
