
     RDKit          3D

 29 29  0  0  0  0  0  0  0  0999 V2000
   36.8900   29.9490   49.8730 C   0  0  0  0  0  0  0  0  0  0  0  0
   37.9880   30.6360   49.3920 C   0  0  0  0  0  0  0  0  0  0  0  0
   37.9700   31.1150   48.0830 C   0  0  0  0  0  0  0  0  0  0  0  0
   36.8550   30.8730   47.3490 N   0  0  0  0  0  0  0  0  0  0  0  0
   35.7990   30.2000   47.8460 C   0  0  0  0  0  0  0  0  0  0  0  0
   35.8200   29.7450   49.0960 N   0  0  0  0  0  0  0  0  0  0  0  0
   39.0740   31.8230   47.5600 N   0  0  0  0  0  0  0  0  0  0  0  0
   38.9530   32.5660   46.3550 C   0  0  0  0  0  0  0  0  0  0  0  0
   37.8630   32.4430   45.6630 N   0  0  0  0  0  0  0  0  0  0  0  0
   40.0070   33.4100   45.9380 N   0  0  0  0  0  0  0  0  0  0  0  0
   37.8240   32.9100   44.7270 H   0  0  0  0  0  0  0  0  0  0  0  0
   36.9130   29.4350   51.2860 C   0  0  0  0  0  0  0  0  0  0  0  0
   35.6090   29.1490   51.6900 F   0  0  0  0  0  0  0  0  0  0  0  0
   37.7820   28.4170   51.3720 F   0  0  0  0  0  0  0  0  0  0  0  0
   37.3500   30.5060   52.0880 F   0  0  0  0  0  0  0  0  0  0  0  0
   34.6310   29.9980   46.9430 C   0  0  0  0  0  0  0  0  0  0  0  0
   35.0620   29.8530   45.5170 C   0  0  0  0  0  0  0  0  0  0  0  0
   33.8210   28.8040   47.4290 C   0  0  0  0  0  0  0  0  0  0  0  0
   38.8655   30.8029   50.0340 H   0  0  0  0  0  0  0  0  0  0  0  0
   39.9759   31.8006   48.0569 H   0  0  0  0  0  0  0  0  0  0  0  0
   39.9203   33.9491   45.0646 H   0  0  0  0  0  0  0  0  0  0  0  0
   40.8619   33.4861   46.5075 H   0  0  0  0  0  0  0  0  0  0  0  0
   33.9862   30.8886   46.9759 H   0  0  0  0  0  0  0  0  0  0  0  0
   36.1041   29.5024   45.4828 H   0  0  0  0  0  0  0  0  0  0  0  0
   34.4130   29.1237   45.0101 H   0  0  0  0  0  0  0  0  0  0  0  0
   34.9857   30.8263   45.0101 H   0  0  0  0  0  0  0  0  0  0  0  0
   33.8118   28.7904   48.5289 H   0  0  0  0  0  0  0  0  0  0  0  0
   32.7897   28.8837   47.0546 H   0  0  0  0  0  0  0  0  0  0  0  0
   34.2762   27.8752   47.0546 H   0  0  0  0  0  0  0  0  0  0  0  0
  1 12  1  0
  2  1  2  0
  3  2  1  0
  4  5  1  0
  4  3  2  0
  5  6  2  0
  6  1  1  0
  7  3  1  0
  8  7  1  0
  9  8  2  0
 10  8  1  0
 11  9  1  0
 12 14  1  0
 12 13  1  0
 12 15  1  0
 16 18  1  0
 16  5  1  0
 17 16  1  0
  2 19  1  0
  7 20  1  0
 10 21  1  0
 10 22  1  0
 16 23  1  0
 17 24  1  0
 17 25  1  0
 17 26  1  0
 18 27  1  0
 18 28  1  0
 18 29  1  0
M  ISO  8  19  14  23   8  24   8  25   8  26   8  27   8  28   8  29   8
M  END
>  <minimizedAffinity>  (1) 
-6.39199924

>  <minimizedRMSD>  (1) 
0.295049518

$$$$
