
     RDKit          3D

 21 21  0  0  0  0  0  0  0  0999 V2000
   36.8940   29.9790   49.8720 C   0  0  0  0  0  0  0  0  0  0  0  0
   38.0010   30.6800   49.4320 C   0  0  0  0  0  0  0  0  0  0  0  0
   37.9920   31.1680   48.1210 C   0  0  0  0  0  0  0  0  0  0  0  0
   36.9030   30.9240   47.3630 N   0  0  0  0  0  0  0  0  0  0  0  0
   35.8310   30.2300   47.8310 C   0  0  0  0  0  0  0  0  0  0  0  0
   35.8360   29.7630   49.0800 N   0  0  0  0  0  0  0  0  0  0  0  0
   39.0920   31.8890   47.6200 N   0  0  0  0  0  0  0  0  0  0  0  0
   39.0080   32.5920   46.3910 C   0  0  0  0  0  0  0  0  0  0  0  0
   37.9140   32.5180   45.7120 N   0  0  0  0  0  0  0  0  0  0  0  0
   40.1270   33.3500   45.9530 N   0  0  0  0  0  0  0  0  0  0  0  0
   37.8070   33.1690   44.8870 H   0  0  0  0  0  0  0  0  0  0  0  0
   36.8910   29.4470   51.2840 C   0  0  0  0  0  0  0  0  0  0  0  0
   35.6010   29.1300   51.6580 F   0  0  0  0  0  0  0  0  0  0  0  0
   37.7550   28.3950   51.3570 F   0  0  0  0  0  0  0  0  0  0  0  0
   37.3210   30.4940   52.0980 F   0  0  0  0  0  0  0  0  0  0  0  0
   34.7280   29.9960   47.0270 O   0  0  0  0  0  0  0  0  0  0  0  0
   38.8637   30.8492   50.0932 H   0  0  0  0  0  0  0  0  0  0  0  0
   39.9723   31.9064   48.1545 H   0  0  0  0  0  0  0  0  0  0  0  0
   40.0827   33.8664   45.0629 H   0  0  0  0  0  0  0  0  0  0  0  0
   40.9826   33.3831   46.5255 H   0  0  0  0  0  0  0  0  0  0  0  0
   33.9553   29.4891   47.3820 H   0  0  0  0  0  0  0  0  0  0  0  0
  1 12  1  0
  2  1  2  0
  3  2  1  0
  4  5  1  0
  4  3  2  0
  5  6  2  0
  6  1  1  0
  7  3  1  0
  8  7  1  0
  9  8  2  0
 10  8  1  0
 11  9  1  0
 12 14  1  0
 12 13  1  0
 12 15  1  0
 16  5  1  0
  2 17  1  0
  7 18  1  0
 10 19  1  0
 10 20  1  0
 16 21  1  0
M  ISO  2  17  14  21   3
M  END
>  <minimizedAffinity>  (1) 
-6.06589842

>  <minimizedRMSD>  (1) 
0.0628942028

$$$$
