
     RDKit          3D

 11 11  0  0  0  0  0  0  0  0999 V2000
   37.4760   29.9800   50.8840 C   0  0  0  0  0  0  0  0  0  0  0  0
   38.2100   30.9370   50.1370 C   0  0  0  0  0  0  0  0  0  0  0  0
   37.9110   31.0490   48.7660 C   0  0  0  0  0  0  0  0  0  0  0  0
   36.9490   30.2470   48.2390 N   0  0  0  0  0  0  0  0  0  0  0  0
   36.2770   29.3500   48.9940 C   0  0  0  0  0  0  0  0  0  0  0  0
   36.5350   29.2160   50.3030 N   0  0  0  0  0  0  0  0  0  0  0  0
   37.7650   29.8660   52.2300 O   0  0  0  0  0  0  0  0  0  0  0  0
   38.9800   31.5648   50.6091 H   0  0  0  0  0  0  0  0  0  0  0  0
   38.4461   31.7723   48.1331 H   0  0  0  0  0  0  0  0  0  0  0  0
   35.5059   28.7196   48.5272 H   0  0  0  0  0  0  0  0  0  0  0  0
   37.2758   29.2103   52.7875 H   0  0  0  0  0  0  0  0  0  0  0  0
  1  7  1  0
  2  1  2  0
  3  2  1  0
  4  3  2  0
  4  5  1  0
  5  6  2  0
  6  1  1  0
  2  8  1  0
  3  9  1  0
  5 10  1  0
  7 11  1  0
M  ISO  4   8  14   9  14  10  14  11   3
M  END
>  <minimizedAffinity>  (1) 
-3.20777845

>  <minimizedRMSD>  (1) 
0.780845642

$$$$
