
     RDKit          3D

 15 15  0  0  0  0  0  0  0  0999 V2000
   37.9790   30.6240   49.0730 C   0  0  0  0  0  0  0  0  0  0  0  0
   38.5890   31.9060   49.2040 C   0  0  0  0  0  0  0  0  0  0  0  0
   38.5840   32.7300   48.0640 C   0  0  0  0  0  0  0  0  0  0  0  0
   38.0060   32.2570   46.9320 N   0  0  0  0  0  0  0  0  0  0  0  0
   37.4410   31.0400   46.8530 C   0  0  0  0  0  0  0  0  0  0  0  0
   37.4280   30.2230   47.9220 N   0  0  0  0  0  0  0  0  0  0  0  0
   37.9820   29.8130   50.1850 O   0  0  0  0  0  0  0  0  0  0  0  0
   36.9900   29.7270   51.1360 C   0  0  0  0  0  0  0  0  0  0  0  0
   35.6410   29.3780   50.7670 N   0  0  0  0  0  0  0  0  0  0  0  0
   37.2820   29.9610   52.3440 O   0  0  0  0  0  0  0  0  0  0  0  0
   39.0418   32.2349   50.1510 H   0  0  0  0  0  0  0  0  0  0  0  0
   39.0371   33.7320   48.0900 H   0  0  0  0  0  0  0  0  0  0  0  0
   36.9860   30.7096   45.9076 H   0  0  0  0  0  0  0  0  0  0  0  0
   34.9089   29.3173   51.4890 H   0  0  0  0  0  0  0  0  0  0  0  0
   35.4091   29.1893   49.7813 H   0  0  0  0  0  0  0  0  0  0  0  0
  1  2  2  0
  1  7  1  0
  3  2  1  0
  4  3  2  0
  5  4  1  0
  5  6  2  0
  6  1  1  0
  7  8  1  0
  8 10  2  0
  9  8  1  0
  2 11  1  0
  3 12  1  0
  5 13  1  0
  9 14  1  0
  9 15  1  0
M  ISO  3  11  14  12  14  13  14
M  END
>  <minimizedAffinity>  (1) 
-3.58453965

>  <minimizedRMSD>  (1) 
2.37358499

$$$$
