
     RDKit          3D

 30 31  0  0  0  0  0  0  0  0999 V2000
   36.8470   30.7270   49.1080 C   0  0  0  0  0  0  0  0  0  0  0  0
   37.9540   31.0780   48.2690 C   0  0  0  0  0  0  0  0  0  0  0  0
   37.7790   30.9870   46.8910 C   0  0  0  0  0  0  0  0  0  0  0  0
   36.5800   30.5730   46.4330 N   0  0  0  0  0  0  0  0  0  0  0  0
   35.5570   30.2480   47.2510 C   0  0  0  0  0  0  0  0  0  0  0  0
   35.7060   30.3290   48.5570 N   0  0  0  0  0  0  0  0  0  0  0  0
   38.8580   31.3300   46.0280 N   0  0  0  0  0  0  0  0  0  0  0  0
   39.5860   32.5470   46.3380 C   0  0  0  0  0  0  0  0  0  0  0  0
   40.7540   32.7550   45.4040 C   0  0  0  0  0  0  0  0  0  0  0  0
   40.3370   32.3040   44.1410 O   0  0  0  0  0  0  0  0  0  0  0  0
   40.3340   30.9170   44.1650 C   0  0  0  0  0  0  0  0  0  0  0  0
   39.1380   30.4540   44.9340 C   0  0  0  0  0  0  0  0  0  0  0  0
   34.3020   29.8120   46.5690 C   0  0  0  0  0  0  0  0  0  0  0  0
   34.5360   29.6750   45.1920 F   0  0  0  0  0  0  0  0  0  0  0  0
   33.9300   28.5760   47.0260 F   0  0  0  0  0  0  0  0  0  0  0  0
   33.2550   30.6970   46.7950 F   0  0  0  0  0  0  0  0  0  0  0  0
   37.0400   30.8220   50.4630 O   0  0  0  0  0  0  0  0  0  0  0  0
   36.9710   29.7640   51.3680 C   0  0  0  0  0  0  0  0  0  0  0  0
   37.6280   30.0320   52.5630 F   0  0  0  0  0  0  0  0  0  0  0  0
   35.7040   29.3180   51.6120 F   0  0  0  0  0  0  0  0  0  0  0  0
   37.6590   28.7100   50.7740 F   0  0  0  0  0  0  0  0  0  0  0  0
   38.9108   31.4085   48.6996 H   0  0  0  0  0  0  0  0  0  0  0  0
   38.9018   33.4037   46.2488 H   0  0  0  0  0  0  0  0  0  0  0  0
   39.9784   32.4593   47.3619 H   0  0  0  0  0  0  0  0  0  0  0  0
   41.0195   33.8215   45.3585 H   0  0  0  0  0  0  0  0  0  0  0  0
   41.6432   32.2073   45.7494 H   0  0  0  0  0  0  0  0  0  0  0  0
   40.2861   30.5290   43.1368 H   0  0  0  0  0  0  0  0  0  0  0  0
   41.2533   30.5482   44.6434 H   0  0  0  0  0  0  0  0  0  0  0  0
   38.2671   30.4284   44.2625 H   0  0  0  0  0  0  0  0  0  0  0  0
   39.3474   29.4512   45.3346 H   0  0  0  0  0  0  0  0  0  0  0  0
  1 17  1  0
  2  1  2  0
  3  2  1  0
  4  3  2  0
  4  5  1  0
  5  6  2  0
  6  1  1  0
  7  8  1  0
  7  3  1  0
  9  8  1  0
 10 11  1  0
 10  9  1  0
 11 12  1  0
 12  7  1  0
 13 16  1  0
 13 15  1  0
 13  5  1  0
 14 13  1  0
 17 18  1  0
 18 20  1  0
 18 19  1  0
 21 18  1  0
  2 22  1  0
  8 23  1  0
  8 24  1  0
  9 25  1  0
  9 26  1  0
 11 27  1  0
 11 28  1  0
 12 29  1  0
 12 30  1  0
M  ISO  8  22  14  23  13  24  13  25  13  26  13  27  13  28  13  29  13
M  ISO  1  30  13
M  END
>  <minimizedAffinity>  (1) 
-6.46851063

>  <minimizedRMSD>  (1) 
4.89522171

$$$$
