
     RDKit          3D

 25 26  0  0  0  0  0  0  0  0999 V2000
   37.7080   30.5390   47.6720 C   0  0  0  0  0  0  0  0  0  0  0  0
   36.4480   30.3510   47.0460 C   0  0  0  0  0  0  0  0  0  0  0  0
   35.3880   29.8990   47.8150 C   0  0  0  0  0  0  0  0  0  0  0  0
   35.6260   29.6610   49.1310 N   0  0  0  0  0  0  0  0  0  0  0  0
   36.8290   29.8460   49.7010 C   0  0  0  0  0  0  0  0  0  0  0  0
   37.8530   30.2800   48.9760 N   0  0  0  0  0  0  0  0  0  0  0  0
   34.0470   29.6630   47.3010 C   0  0  0  0  0  0  0  0  0  0  0  0
   33.4260   30.5010   46.4310 C   0  0  0  0  0  0  0  0  0  0  0  0
   32.1510   30.2920   45.9330 C   0  0  0  0  0  0  0  0  0  0  0  0
   31.4770   29.1860   46.3330 N   0  0  0  0  0  0  0  0  0  0  0  0
   32.0890   28.3570   47.1930 C   0  0  0  0  0  0  0  0  0  0  0  0
   33.3350   28.5840   47.6660 N   0  0  0  0  0  0  0  0  0  0  0  0
   36.9060   29.5350   51.1560 C   0  0  0  0  0  0  0  0  0  0  0  0
   37.2870   30.6680   51.8680 F   0  0  0  0  0  0  0  0  0  0  0  0
   35.6580   29.1900   51.6220 F   0  0  0  0  0  0  0  0  0  0  0  0
   37.7610   28.4710   51.4180 F   0  0  0  0  0  0  0  0  0  0  0  0
   38.7440   30.9910   46.8840 O   0  0  0  0  0  0  0  0  0  0  0  0
   39.0200   32.3170   46.5950 C   0  0  0  0  0  0  0  0  0  0  0  0
   38.2270   32.8240   45.5740 F   0  0  0  0  0  0  0  0  0  0  0  0
   38.9810   33.1570   47.6870 F   0  0  0  0  0  0  0  0  0  0  0  0
   40.3370   32.3460   46.1310 F   0  0  0  0  0  0  0  0  0  0  0  0
   36.3161   30.5596   45.9740 H   0  0  0  0  0  0  0  0  0  0  0  0
   33.9685   31.3997   46.1023 H   0  0  0  0  0  0  0  0  0  0  0  0
   31.6964   31.0057   45.2302 H   0  0  0  0  0  0  0  0  0  0  0  0
   31.5546   27.4554   47.5269 H   0  0  0  0  0  0  0  0  0  0  0  0
  1  6  2  0
  2  1  1  0
  2  3  2  0
  3  4  1  0
  4  5  2  0
  5 13  1  0
  6  5  1  0
  7 12  1  0
  7  3  1  0
  8  7  2  0
  9 10  2  0
  9  8  1  0
 10 11  1  0
 11 12  2  0
 13 16  1  0
 13 15  1  0
 13 14  1  0
 17  1  1  0
 18 17  1  0
 18 20  1  0
 19 18  1  0
 21 18  1  0
  2 22  1  0
  8 23  1  0
  9 24  1  0
 11 25  1  0
M  ISO  4  22  14  23  14  24  14  25  14
M  END
>  <minimizedAffinity>  (1) 
-5.86564112

>  <minimizedRMSD>  (1) 
6.90681458

$$$$
