
     RDKit          3D

 20 20  0  0  0  0  0  0  0  0999 V2000
   37.4140   30.6450   49.2750 C   0  0  0  0  0  0  0  0  0  0  0  0
   38.1320   31.7900   49.7210 C   0  0  0  0  0  0  0  0  0  0  0  0
   38.6110   32.6540   48.7360 C   0  0  0  0  0  0  0  0  0  0  0  0
   38.3740   32.3650   47.4430 N   0  0  0  0  0  0  0  0  0  0  0  0
   37.6860   31.2650   47.0650 C   0  0  0  0  0  0  0  0  0  0  0  0
   37.2170   30.4240   47.9670 N   0  0  0  0  0  0  0  0  0  0  0  0
   37.5110   31.0940   45.5930 C   0  0  0  0  0  0  0  0  0  0  0  0
   36.2460   30.5900   45.3150 F   0  0  0  0  0  0  0  0  0  0  0  0
   37.5770   32.3290   44.9730 F   0  0  0  0  0  0  0  0  0  0  0  0
   38.5050   30.3060   45.0300 F   0  0  0  0  0  0  0  0  0  0  0  0
   39.3660   33.8670   49.0620 C   0  0  0  0  0  0  0  0  0  0  0  0
   39.6400   34.1520   50.2540 O   0  0  0  0  0  0  0  0  0  0  0  0
   39.7910   34.7210   48.0530 O   0  0  0  0  0  0  0  0  0  0  0  0
   36.9350   29.7830   50.2420 O   0  0  0  0  0  0  0  0  0  0  0  0
   35.5990   29.4610   50.4410 C   0  0  0  0  0  0  0  0  0  0  0  0
   35.3140   29.1440   51.7660 F   0  0  0  0  0  0  0  0  0  0  0  0
   34.7110   30.4180   49.9870 F   0  0  0  0  0  0  0  0  0  0  0  0
   35.3720   28.3040   49.6970 F   0  0  0  0  0  0  0  0  0  0  0  0
   38.3010   31.9843   50.7904 H   0  0  0  0  0  0  0  0  0  0  0  0
   40.3007   35.5391   48.2789 H   0  0  0  0  0  0  0  0  0  0  0  0
  1  2  2  0
  1 14  1  0
  3 11  1  0
  3  2  1  0
  4  3  2  0
  5  4  1  0
  5  6  2  0
  6  1  1  0
  7  5  1  0
  8  7  1  0
  9  7  1  0
 10  7  1  0
 11 12  2  0
 13 11  1  0
 14 15  1  0
 15 16  1  0
 17 15  1  0
 18 15  1  0
  2 19  1  0
 13 20  1  0
M  ISO  2  19  14  20   3
M  END
>  <minimizedAffinity>  (1) 
-5.85778189

>  <minimizedRMSD>  (1) 
1.41517162

$$$$
