
     RDKit          3D

 20 20  0  0  0  0  0  0  0  0999 V2000
   37.8800   30.6070   49.0450 C   0  0  0  0  0  0  0  0  0  0  0  0
   38.3230   31.8130   49.6810 C   0  0  0  0  0  0  0  0  0  0  0  0
   38.8350   32.8090   48.8630 C   0  0  0  0  0  0  0  0  0  0  0  0
   38.8850   32.5840   47.5310 N   0  0  0  0  0  0  0  0  0  0  0  0
   38.4600   31.4390   46.9630 C   0  0  0  0  0  0  0  0  0  0  0  0
   37.9650   30.4670   47.7150 N   0  0  0  0  0  0  0  0  0  0  0  0
   38.5930   31.3680   45.4850 C   0  0  0  0  0  0  0  0  0  0  0  0
   37.7550   32.3030   44.8870 F   0  0  0  0  0  0  0  0  0  0  0  0
   39.8650   31.7140   45.1080 F   0  0  0  0  0  0  0  0  0  0  0  0
   38.3380   30.0900   45.0040 F   0  0  0  0  0  0  0  0  0  0  0  0
   39.2990   34.0650   49.5080 C   0  0  0  0  0  0  0  0  0  0  0  0
   37.3670   29.6110   49.8520 O   0  0  0  0  0  0  0  0  0  0  0  0
   36.0420   29.5620   50.2970 C   0  0  0  0  0  0  0  0  0  0  0  0
   35.9240   29.4010   51.6690 F   0  0  0  0  0  0  0  0  0  0  0  0
   35.2490   30.5870   49.8560 F   0  0  0  0  0  0  0  0  0  0  0  0
   35.5190   28.3890   49.7420 F   0  0  0  0  0  0  0  0  0  0  0  0
   38.2595   31.9428   50.7715 H   0  0  0  0  0  0  0  0  0  0  0  0
   39.2575   33.9527   50.6015 H   0  0  0  0  0  0  0  0  0  0  0  0
   40.3340   34.2747   49.2000 H   0  0  0  0  0  0  0  0  0  0  0  0
   38.6490   34.8972   49.2000 H   0  0  0  0  0  0  0  0  0  0  0  0
  1  2  2  0
  1 12  1  0
  3 11  1  0
  3  2  1  0
  4  3  2  0
  5  4  1  0
  5  6  2  0
  6  1  1  0
  7  5  1  0
  8  7  1  0
  9  7  1  0
 10  7  1  0
 12 13  1  0
 13 14  1  0
 15 13  1  0
 16 13  1  0
  2 17  1  0
 11 18  1  0
 11 19  1  0
 11 20  1  0
M  ISO  4  17  14  18   8  19   8  20   8
M  END
>  <minimizedAffinity>  (1) 
-5.53669548

>  <minimizedRMSD>  (1) 
0.733150244

$$$$
