
     RDKit          3D

 27 28  0  0  0  0  0  0  0  0999 V2000
   35.0380   30.1560   45.4590 C   0  0  0  0  0  0  0  0  0  0  0  0
   35.2860   30.0620   46.8540 C   0  0  0  0  0  0  0  0  0  0  0  0
   36.5780   30.3260   47.3070 C   0  0  0  0  0  0  0  0  0  0  0  0
   37.5210   30.6560   46.3910 N   0  0  0  0  0  0  0  0  0  0  0  0
   37.2560   30.7380   45.0730 C   0  0  0  0  0  0  0  0  0  0  0  0
   36.0370   30.4900   44.6330 N   0  0  0  0  0  0  0  0  0  0  0  0
   36.9480   30.2650   48.6790 N   0  0  0  0  0  0  0  0  0  0  0  0
   36.2480   29.3280   49.3730 C   0  0  0  0  0  0  0  0  0  0  0  0
   36.4820   29.1320   50.7340 C   0  0  0  0  0  0  0  0  0  0  0  0
   37.4530   29.9370   51.3090 C   0  0  0  0  0  0  0  0  0  0  0  0
   37.7240   29.8190   52.5410 O   0  0  0  0  0  0  0  0  0  0  0  0
   38.1320   30.8590   50.5950 N   0  0  0  0  0  0  0  0  0  0  0  0
   37.8730   31.0190   49.2700 C   0  0  0  0  0  0  0  0  0  0  0  0
   38.4460   31.8400   48.5300 O   0  0  0  0  0  0  0  0  0  0  0  0
   38.4000   31.1120   44.1970 C   0  0  0  0  0  0  0  0  0  0  0  0
   38.6000   32.5010   44.2380 F   0  0  0  0  0  0  0  0  0  0  0  0
   39.5550   30.5530   44.6970 F   0  0  0  0  0  0  0  0  0  0  0  0
   38.2370   30.6800   42.8900 F   0  0  0  0  0  0  0  0  0  0  0  0
   33.7650   29.8960   45.0170 O   0  0  0  0  0  0  0  0  0  0  0  0
   32.7370   30.8330   44.9220 C   0  0  0  0  0  0  0  0  0  0  0  0
   32.3680   31.3340   46.1700 F   0  0  0  0  0  0  0  0  0  0  0  0
   32.9810   31.8550   44.0490 F   0  0  0  0  0  0  0  0  0  0  0  0
   31.6250   30.1380   44.4470 F   0  0  0  0  0  0  0  0  0  0  0  0
   34.4838   29.7894   47.5555 H   0  0  0  0  0  0  0  0  0  0  0  0
   35.4909   28.7196   48.8566 H   0  0  0  0  0  0  0  0  0  0  0  0
   35.9280   28.3819   51.3174 H   0  0  0  0  0  0  0  0  0  0  0  0
   38.8467   31.4417   51.0540 H   0  0  0  0  0  0  0  0  0  0  0  0
  1  2  2  0
  2  3  1  0
  3  7  1  0
  4  3  2  0
  5  4  1  0
  6  5  2  0
  6  1  1  0
  7 13  1  0
  7  8  1  0
  8  9  2  0
  9 10  1  0
 10 11  2  0
 12 10  1  0
 13 12  1  0
 14 13  2  0
 15 16  1  0
 15 17  1  0
 15  5  1  0
 18 15  1  0
 19  1  1  0
 20 19  1  0
 20 21  1  0
 22 20  1  0
 23 20  1  0
  2 24  1  0
  8 25  1  0
  9 26  1  0
 12 27  1  0
M  ISO  4  24  14  25  14  26  14  27   9
M  END
>  <minimizedAffinity>  (1) 
-5.44431829

>  <minimizedRMSD>  (1) 
4.74799871

$$$$
