
     RDKit          3D

 46 49  0  0  1  0  0  0  0  0999 V2000
   35.5590   30.3330   44.4710 C   0  0  0  0  0  0  0  0  0  0  0  0
   36.6470   29.7520   44.3380 O   0  0  0  0  0  0  0  0  0  0  0  0
   35.3270   31.4090   43.5620 N   0  0  0  0  0  0  0  0  0  0  0  0
   34.0270   31.4540   42.9380 C   0  0  0  0  0  0  0  0  0  0  0  0
   34.0220   32.3380   41.7110 C   0  0  0  0  0  0  0  0  0  0  0  0
   35.2770   32.1920   41.1020 O   0  0  0  0  0  0  0  0  0  0  0  0
   36.1540   32.9770   41.8700 C   0  0  0  0  0  0  0  0  0  0  0  0
   36.3370   32.4220   43.2620 C   0  0  2  0  0  0  0  0  0  0  0  0
   37.6640   31.9850   43.5550 N   0  0  0  0  0  0  0  0  0  0  0  0
   38.5790   31.4960   42.6670 C   0  0  0  0  0  0  0  0  0  0  0  0
   39.7320   31.1810   43.3010 N   0  0  0  0  0  0  0  0  0  0  0  0
   39.5470   31.4740   44.6090 C   0  0  0  0  0  0  0  0  0  0  0  0
   40.4220   31.3350   45.6640 C   0  0  0  0  0  0  0  0  0  0  0  0
   41.5930   30.8800   45.5210 O   0  0  0  0  0  0  0  0  0  0  0  0
   40.0420   31.6880   46.9050 N   0  0  0  0  0  0  0  0  0  0  0  0
   38.7910   32.1680   47.0220 C   0  0  0  0  0  0  0  0  0  0  0  0
   38.3290   32.5600   48.3160 N   0  0  0  0  0  0  0  0  0  0  0  0
   37.9020   32.3200   46.0080 N   0  0  0  0  0  0  0  0  0  0  0  0
   38.2600   31.9730   44.7580 C   0  0  0  0  0  0  0  0  0  0  0  0
   34.1630   29.1010   47.7510 C   0  0  0  0  0  0  0  0  0  0  0  0
   35.0950   29.5190   46.7540 C   0  0  0  0  0  0  0  0  0  0  0  0
   34.6250   29.9060   45.4980 C   0  0  0  0  0  0  0  0  0  0  0  0
   33.2910   29.8530   45.3160 N   0  0  0  0  0  0  0  0  0  0  0  0
   32.4250   29.4580   46.2670 C   0  0  0  0  0  0  0  0  0  0  0  0
   32.8620   29.0940   47.4470 N   0  0  0  0  0  0  0  0  0  0  0  0
   30.9950   29.4720   45.8630 C   0  0  0  0  0  0  0  0  0  0  0  0
   30.6670   30.7040   45.2740 F   0  0  0  0  0  0  0  0  0  0  0  0
   30.7770   28.5340   44.8830 F   0  0  0  0  0  0  0  0  0  0  0  0
   30.1410   29.1850   46.9160 F   0  0  0  0  0  0  0  0  0  0  0  0
   34.6530   28.7250   48.9860 O   0  0  0  0  0  0  0  0  0  0  0  0
   35.4740   29.5180   49.7820 C   0  0  0  0  0  0  0  0  0  0  0  0
   36.8170   29.2980   49.5630 F   0  0  0  0  0  0  0  0  0  0  0  0
   35.1810   30.8460   49.7500 F   0  0  0  0  0  0  0  0  0  0  0  0
   35.2060   29.0750   51.0980 F   0  0  0  0  0  0  0  0  0  0  0  0
   33.7383   30.4343   42.6431 H   0  0  0  0  0  0  0  0  0  0  0  0
   33.3143   31.8731   43.6636 H   0  0  0  0  0  0  0  0  0  0  0  0
   33.2266   32.0223   41.0199 H   0  0  0  0  0  0  0  0  0  0  0  0
   33.8338   33.3876   41.9811 H   0  0  0  0  0  0  0  0  0  0  0  0
   37.1328   33.0097   41.3690 H   0  0  0  0  0  0  0  0  0  0  0  0
   35.7195   33.9836   41.9596 H   0  0  0  0  0  0  0  0  0  0  0  0
   36.1798   33.2680   43.9472 H   0  0  0  0  0  0  0  0  0  0  0  0
   38.4033   31.3752   41.5879 H   0  0  0  0  0  0  0  0  0  0  0  0
   40.6704   31.5964   47.7159 H   0  0  0  0  0  0  0  0  0  0  0  0
   37.3750   32.9306   48.4318 H   0  0  0  0  0  0  0  0  0  0  0  0
   38.9500   32.4720   49.1330 H   0  0  0  0  0  0  0  0  0  0  0  0
   36.1728   29.5360   46.9733 H   0  0  0  0  0  0  0  0  0  0  0  0
  1 22  1  0
  2  1  2  0
  3  1  1  0
  4  3  1  0
  5  4  1  0
  6  5  1  0
  6  7  1  0
  7  8  1  0
  8  9  1  0
  8  3  1  0
  9 19  1  0
 10 11  2  0
 10  9  1  0
 11 12  1  0
 12 19  2  0
 12 13  1  0
 13 15  1  0
 14 13  2  0
 15 16  1  0
 16 17  1  0
 18 16  2  0
 19 18  1  0
 20 30  1  0
 21 20  2  0
 22 21  1  0
 23 22  2  0
 23 24  1  0
 24 25  2  0
 25 20  1  0
 26 24  1  0
 26 29  1  0
 27 26  1  0
 28 26  1  0
 30 31  1  0
 31 34  1  0
 32 31  1  0
 33 31  1  0
  4 35  1  0
  4 36  1  0
  5 37  1  0
  5 38  1  0
  7 39  1  0
  7 40  1  0
  8 41  1  1
 10 42  1  0
 15 43  1  0
 17 44  1  0
 17 45  1  0
 21 46  1  0
M  ISO  8  35  13  36  13  37  13  38  13  39  13  40  13  41  13  42  14
M  ISO  2  43   9  46  14
M  END
>  <minimizedAffinity>  (1) 
-6.15762615

>  <minimizedRMSD>  (1) 
4.33940601

$$$$
