
     RDKit          3D

 37 38  0  0  1  0  0  0  0  0999 V2000
   37.7920   30.9930   46.7620 C   0  0  0  0  0  0  0  0  0  0  0  0
   38.4180   31.0220   47.8520 O   0  0  0  0  0  0  0  0  0  0  0  0
   38.4870   31.5840   45.6600 N   0  0  0  0  0  0  0  0  0  0  0  0
   38.4520   30.8300   44.4150 C   0  0  0  0  0  0  0  0  0  0  0  0
   39.5340   31.2820   43.4660 C   0  0  0  0  0  0  0  0  0  0  0  0
   40.6220   31.6670   44.2270 O   0  0  0  0  0  0  0  0  0  0  0  0
   40.3180   32.9270   44.7580 C   0  0  0  0  0  0  0  0  0  0  0  0
   39.1890   32.8480   45.7390 C   0  0  2  0  0  0  0  0  0  0  0  0
   34.5470   29.3820   47.7710 C   0  0  0  0  0  0  0  0  0  0  0  0
   35.8420   29.9710   47.8660 C   0  0  0  0  0  0  0  0  0  0  0  0
   36.4710   30.3880   46.7110 C   0  0  0  0  0  0  0  0  0  0  0  0
   35.8010   30.2040   45.5430 N   0  0  0  0  0  0  0  0  0  0  0  0
   34.5910   29.6510   45.4880 C   0  0  0  0  0  0  0  0  0  0  0  0
   33.9790   29.2490   46.5790 N   0  0  0  0  0  0  0  0  0  0  0  0
   34.0100   29.5320   44.1120 C   0  0  0  0  0  0  0  0  0  0  0  0
   33.7360   30.8010   43.5900 F   0  0  0  0  0  0  0  0  0  0  0  0
   34.9480   28.9730   43.2570 F   0  0  0  0  0  0  0  0  0  0  0  0
   32.8900   28.7120   44.0710 F   0  0  0  0  0  0  0  0  0  0  0  0
   33.9340   28.9710   48.9480 O   0  0  0  0  0  0  0  0  0  0  0  0
   34.0840   29.5990   50.1790 C   0  0  0  0  0  0  0  0  0  0  0  0
   35.0320   29.0210   50.9870 F   0  0  0  0  0  0  0  0  0  0  0  0
   34.2530   30.9590   50.1100 F   0  0  0  0  0  0  0  0  0  0  0  0
   32.8360   29.3890   50.8180 F   0  0  0  0  0  0  0  0  0  0  0  0
   39.8180   32.8150   47.0190 O   0  0  0  0  0  0  0  0  0  0  0  0
   39.6500   33.8380   47.9430 C   0  0  0  0  0  0  0  0  0  0  0  0
   38.5200   33.8540   48.8180 N   0  0  0  0  0  0  0  0  0  0  0  0
   40.5190   34.7420   47.9810 O   0  0  0  0  0  0  0  0  0  0  0  0
   38.5957   29.7627   44.6390 H   0  0  0  0  0  0  0  0  0  0  0  0
   37.4773   31.0008   43.9346 H   0  0  0  0  0  0  0  0  0  0  0  0
   39.1761   32.1317   42.8661 H   0  0  0  0  0  0  0  0  0  0  0  0
   39.8108   30.4685   42.7793 H   0  0  0  0  0  0  0  0  0  0  0  0
   41.2079   33.3249   45.2676 H   0  0  0  0  0  0  0  0  0  0  0  0
   40.0138   33.5868   43.9321 H   0  0  0  0  0  0  0  0  0  0  0  0
   38.4906   33.6776   45.5543 H   0  0  0  0  0  0  0  0  0  0  0  0
   36.3314   30.0909   48.8438 H   0  0  0  0  0  0  0  0  0  0  0  0
   38.4068   34.6184   49.4990 H   0  0  0  0  0  0  0  0  0  0  0  0
   37.8189   33.1011   48.7675 H   0  0  0  0  0  0  0  0  0  0  0  0
  1  2  2  0
  3  8  1  0
  3  1  1  0
  4  3  1  0
  5  6  1  0
  5  4  1  0
  6  7  1  0
  7  8  1  0
  8 24  1  0
  9 10  2  0
  9 19  1  0
 11  1  1  0
 11 10  1  0
 12 11  2  0
 13 12  1  0
 13 14  2  0
 14  9  1  0
 15 13  1  0
 16 15  1  0
 17 15  1  0
 18 15  1  0
 19 20  1  0
 20 23  1  0
 20 21  1  0
 22 20  1  0
 24 25  1  0
 25 27  2  0
 25 26  1  0
  4 28  1  0
  4 29  1  0
  5 30  1  0
  5 31  1  0
  7 32  1  0
  7 33  1  0
  8 34  1  1
 10 35  1  0
 26 36  1  0
 26 37  1  0
M  ISO  8  28  13  29  13  30  13  31  13  32  13  33  13  34  13  35  14
M  END
>  <minimizedAffinity>  (1) 
-5.26273966

>  <minimizedRMSD>  (1) 
0.768175721

$$$$
