
     RDKit          3D

 20 21  0  0  0  0  0  0  0  0999 V2000
   37.3060   30.2900   51.4250 C   0  0  0  0  0  0  0  0  0  0  0  0
   38.1570   30.7990   50.4080 C   0  0  0  0  0  0  0  0  0  0  0  0
   37.8800   30.4480   49.0690 C   0  0  0  0  0  0  0  0  0  0  0  0
   36.8050   29.6390   48.8490 N   0  0  0  0  0  0  0  0  0  0  0  0
   36.0210   29.1740   49.8300 C   0  0  0  0  0  0  0  0  0  0  0  0
   36.2780   29.5020   51.1020 N   0  0  0  0  0  0  0  0  0  0  0  0
   34.8700   28.2950   49.5000 C   0  0  0  0  0  0  0  0  0  0  0  0
   34.2860   28.8070   48.2520 C   0  0  0  0  0  0  0  0  0  0  0  0
   34.0410   30.0610   47.7820 C   0  0  0  0  0  0  0  0  0  0  0  0
   33.4830   30.2860   46.5750 C   0  0  0  0  0  0  0  0  0  0  0  0
   33.1790   29.0300   45.8490 C   0  0  0  0  0  0  0  0  0  0  0  0
   33.7310   27.7330   46.9880 S   0  0  0  0  0  0  0  0  0  0  0  0
   37.4940   30.5451   52.4784 H   0  0  0  0  0  0  0  0  0  0  0  0
   39.0087   31.4490   50.6570 H   0  0  0  0  0  0  0  0  0  0  0  0
   38.5043   30.8114   48.2394 H   0  0  0  0  0  0  0  0  0  0  0  0
   35.2129   27.2592   49.3602 H   0  0  0  0  0  0  0  0  0  0  0  0
   34.1278   28.2967   50.3118 H   0  0  0  0  0  0  0  0  0  0  0  0
   34.3083   30.9233   48.4105 H   0  0  0  0  0  0  0  0  0  0  0  0
   33.2766   31.2894   46.1742 H   0  0  0  0  0  0  0  0  0  0  0  0
   32.7254   28.9128   44.8538 H   0  0  0  0  0  0  0  0  0  0  0  0
  2  1  2  0
  3  2  1  0
  4  3  2  0
  4  5  1  0
  5  6  2  0
  6  1  1  0
  7  5  1  0
  8  7  1  0
  9  8  2  0
 10  9  1  0
 11 10  2  0
 11 12  1  0
 12  8  1  0
  1 13  1  0
  2 14  1  0
  3 15  1  0
  7 16  1  0
  7 17  1  0
  9 18  1  0
 10 19  1  0
 11 20  1  0
M  ISO  8  13  14  14  14  15  14  16   8  17   8  18  14  19  14  20  14
M  END
>  <minimizedAffinity>  (1) 
-4.04448748

>  <minimizedRMSD>  (1) 
3.19485736

$$$$
