
     RDKit          3D

 15 15  0  0  0  0  0  0  0  0999 V2000
   37.2770   30.1770   51.4120 C   0  0  0  0  0  0  0  0  0  0  0  0
   38.0920   30.7120   50.4040 C   0  0  0  0  0  0  0  0  0  0  0  0
   37.7490   30.4250   49.0810 C   0  0  0  0  0  0  0  0  0  0  0  0
   36.6410   29.6410   48.8250 N   0  0  0  0  0  0  0  0  0  0  0  0
   35.8890   29.1510   49.8440 C   0  0  0  0  0  0  0  0  0  0  0  0
   36.2150   29.4240   51.1150 N   0  0  0  0  0  0  0  0  0  0  0  0
   34.7150   28.3180   49.5100 C   0  0  0  0  0  0  0  0  0  0  0  0
   33.5310   29.1560   49.7240 N   0  0  0  0  0  0  0  0  0  0  0  0
   37.5168   30.3812   52.4659 H   0  0  0  0  0  0  0  0  0  0  0  0
   38.9670   31.3332   50.6458 H   0  0  0  0  0  0  0  0  0  0  0  0
   38.3547   30.8191   48.2517 H   0  0  0  0  0  0  0  0  0  0  0  0
   34.6780   27.4347   50.1646 H   0  0  0  0  0  0  0  0  0  0  0  0
   34.7652   27.9609   48.4708 H   0  0  0  0  0  0  0  0  0  0  0  0
   33.3694   29.2703   50.7348 H   0  0  0  0  0  0  0  0  0  0  0  0
   33.6818   30.0796   49.2938 H   0  0  0  0  0  0  0  0  0  0  0  0
  2  1  2  0
  3  2  1  0
  4  3  2  0
  4  5  1  0
  5  6  2  0
  6  1  1  0
  7  8  1  0
  7  5  1  0
  1  9  1  0
  2 10  1  0
  3 11  1  0
  7 12  1  0
  7 13  1  0
  8 14  1  0
  8 15  1  0
M  ISO  7   9  14  10  14  11  14  12   8  13   8  14   5  15   5
M  END
>  <minimizedAffinity>  (1) 
-3.50683117

>  <minimizedRMSD>  (1) 
0.138523191

$$$$
