
     RDKit          3D

 36 38  0  0  1  0  0  0  0  0999 V2000
   36.4610   30.3020   50.5090 C   0  0  2  0  0  0  0  0  0  0  0  0
   35.7220   29.2820   51.3170 C   0  0  0  0  0  0  0  0  0  0  0  0
   35.6320   29.2260   49.8440 C   0  0  1  0  0  0  0  0  0  0  0  0
   34.3050   29.5630   49.2500 C   0  0  0  0  0  0  0  0  0  0  0  0
   33.5040   28.2870   49.1360 C   0  0  0  0  0  0  0  0  0  0  0  0
   33.9660   27.4100   48.0020 C   0  0  0  0  0  0  0  0  0  0  0  0
   33.8480   28.1490   46.6920 C   0  0  0  0  0  0  0  0  0  0  0  0
   34.7180   29.3650   46.7700 C   0  0  0  0  0  0  0  0  0  0  0  0
   34.4090   30.2750   47.9220 C   0  0  0  0  0  0  0  0  0  0  0  0
   37.9410   30.1750   50.2940 C   0  0  0  0  0  0  0  0  0  0  0  0
   38.9720   33.3170   48.6770 C   0  0  0  0  0  0  0  0  0  0  0  0
   39.0190   32.9730   47.3260 C   0  0  0  0  0  0  0  0  0  0  0  0
   38.6970   31.6520   46.9530 C   0  0  0  0  0  0  0  0  0  0  0  0
   38.3540   30.7850   47.9610 N   0  0  0  0  0  0  0  0  0  0  0  0
   38.3210   31.1660   49.2600 C   0  0  0  0  0  0  0  0  0  0  0  0
   38.6340   32.4410   49.6090 N   0  0  0  0  0  0  0  0  0  0  0  0
   36.5026   31.4007   50.5410 H   0  0  0  0  0  0  0  0  0  0  0  0
   36.2805   28.5058   51.8606 H   0  0  0  0  0  0  0  0  0  0  0  0
   34.9861   29.3305   52.1331 H   0  0  0  0  0  0  0  0  0  0  0  0
   35.8441   28.4874   49.0570 H   0  0  0  0  0  0  0  0  0  0  0  0
   33.7950   30.2769   49.9135 H   0  0  0  0  0  0  0  0  0  0  0  0
   33.6007   27.7256   50.0770 H   0  0  0  0  0  0  0  0  0  0  0  0
   32.4595   28.5673   48.9350 H   0  0  0  0  0  0  0  0  0  0  0  0
   35.0161   27.1265   48.1662 H   0  0  0  0  0  0  0  0  0  0  0  0
   33.3358   26.5092   47.9645 H   0  0  0  0  0  0  0  0  0  0  0  0
   32.8027   28.4474   46.5240 H   0  0  0  0  0  0  0  0  0  0  0  0
   34.1640   27.5045   45.8585 H   0  0  0  0  0  0  0  0  0  0  0  0
   35.7632   29.0349   46.8630 H   0  0  0  0  0  0  0  0  0  0  0  0
   34.5312   29.9440   45.8536 H   0  0  0  0  0  0  0  0  0  0  0  0
   35.2081   31.0276   47.9936 H   0  0  0  0  0  0  0  0  0  0  0  0
   33.4250   30.7237   47.7210 H   0  0  0  0  0  0  0  0  0  0  0  0
   38.4772   30.3842   51.2314 H   0  0  0  0  0  0  0  0  0  0  0  0
   38.2025   29.1560   49.9726 H   0  0  0  0  0  0  0  0  0  0  0  0
   39.2230   34.3454   48.9758 H   0  0  0  0  0  0  0  0  0  0  0  0
   39.3016   33.7173   46.5670 H   0  0  0  0  0  0  0  0  0  0  0  0
   38.7196   31.3303   45.9013 H   0  0  0  0  0  0  0  0  0  0  0  0
  1  2  1  0
  3  1  1  0
  3  2  1  0
  4  3  1  0
  5  4  1  0
  6  5  1  0
  7  8  1  0
  7  6  1  0
  8  9  1  0
  9  4  1  0
 10  1  1  0
 11 16  2  0
 12 11  1  0
 13 12  2  0
 13 14  1  0
 14 15  2  0
 15 16  1  0
 15 10  1  0
  1 17  1  1
  2 18  1  0
  2 19  1  0
  3 20  1  6
  4 21  1  0
  5 22  1  0
  5 23  1  0
  6 24  1  0
  6 25  1  0
  7 26  1  0
  7 27  1  0
  8 28  1  0
  8 29  1  0
  9 30  1  0
  9 31  1  0
 10 32  1  0
 10 33  1  0
 11 34  1  0
 12 35  1  0
 13 36  1  0
M  ISO  8  17  13  18  13  19  13  20  13  21  13  22  13  23  13  24  13
M  ISO  8  25  13  26  13  27  13  28  13  29  13  30  13  31  13  32   8
M  ISO  4  33   8  34  14  35  14  36  14
M  END
>  <minimizedAffinity>  (1) 
-5.52976513

>  <minimizedRMSD>  (1) 
1.52741551

$$$$
