
     RDKit          3D

 33 35  0  0  1  0  0  0  0  0999 V2000
   36.4730   30.2480   50.1710 C   0  0  2  0  0  0  0  0  0  0  0  0
   35.7300   29.3430   51.0770 C   0  0  0  0  0  0  0  0  0  0  0  0
   35.9840   28.9150   49.6740 C   0  0  1  0  0  0  0  0  0  0  0  0
   34.7860   28.8240   48.8820 N   0  0  0  0  0  0  0  0  0  0  0  0
   33.6150   28.2520   49.1670 C   0  0  0  0  0  0  0  0  0  0  0  0
   32.5620   28.2530   48.2900 C   0  0  0  0  0  0  0  0  0  0  0  0
   31.2890   27.6060   48.6560 C   0  0  0  0  0  0  0  0  0  0  0  0
   32.8020   28.8880   47.0950 C   0  0  0  0  0  0  0  0  0  0  0  0
   31.8540   28.9180   46.2420 O   0  0  0  0  0  0  0  0  0  0  0  0
   33.9520   29.4750   46.7570 N   0  0  0  0  0  0  0  0  0  0  0  0
   34.9600   29.4370   47.6770 C   0  0  0  0  0  0  0  0  0  0  0  0
   36.0190   30.0220   47.2710 O   0  0  0  0  0  0  0  0  0  0  0  0
   37.9750   30.3630   50.2770 C   0  0  0  0  0  0  0  0  0  0  0  0
   38.9640   33.7080   49.0870 C   0  0  0  0  0  0  0  0  0  0  0  0
   39.2160   33.4920   47.7320 C   0  0  0  0  0  0  0  0  0  0  0  0
   39.0480   32.2000   47.2240 C   0  0  0  0  0  0  0  0  0  0  0  0
   38.6420   31.2110   48.0890 N   0  0  0  0  0  0  0  0  0  0  0  0
   38.4080   31.4580   49.3900 C   0  0  0  0  0  0  0  0  0  0  0  0
   38.5740   32.7030   49.8610 N   0  0  0  0  0  0  0  0  0  0  0  0
   36.3478   31.3088   49.9084 H   0  0  0  0  0  0  0  0  0  0  0  0
   36.2555   28.8448   51.9051 H   0  0  0  0  0  0  0  0  0  0  0  0
   34.8314   29.4439   51.7033 H   0  0  0  0  0  0  0  0  0  0  0  0
   36.4852   28.0943   49.1400 H   0  0  0  0  0  0  0  0  0  0  0  0
   33.4899   27.7608   50.1432 H   0  0  0  0  0  0  0  0  0  0  0  0
   31.2019   27.5617   49.7517 H   0  0  0  0  0  0  0  0  0  0  0  0
   30.4507   28.1874   48.2447 H   0  0  0  0  0  0  0  0  0  0  0  0
   31.2645   26.5861   48.2447 H   0  0  0  0  0  0  0  0  0  0  0  0
   34.0735   29.9356   45.8438 H   0  0  0  0  0  0  0  0  0  0  0  0
   38.2605   30.5876   51.3153 H   0  0  0  0  0  0  0  0  0  0  0  0
   38.4540   29.4178   49.9818 H   0  0  0  0  0  0  0  0  0  0  0  0
   39.0888   34.7137   49.5149 H   0  0  0  0  0  0  0  0  0  0  0  0
   39.5386   34.3170   47.0798 H   0  0  0  0  0  0  0  0  0  0  0  0
   39.2353   31.9810   46.1624 H   0  0  0  0  0  0  0  0  0  0  0  0
  1 13  1  0
  1  2  1  0
  3  1  1  0
  3  2  1  0
  4  5  1  0
  4  3  1  0
  6  7  1  0
  6  5  2  0
  8  6  1  0
  9  8  2  0
 10  8  1  0
 10 11  1  0
 11  4  1  0
 12 11  2  0
 14 19  2  0
 15 14  1  0
 16 15  2  0
 16 17  1  0
 17 18  2  0
 18 19  1  0
 18 13  1  0
  1 20  1  6
  2 21  1  0
  2 22  1  0
  3 23  1  1
  5 24  1  0
  7 25  1  0
  7 26  1  0
  7 27  1  0
 10 28  1  0
 13 29  1  0
 13 30  1  0
 14 31  1  0
 15 32  1  0
 16 33  1  0
M  ISO  8  20  13  21  13  22  13  23  13  24  14  25   8  26   8  27   8
M  ISO  6  28   9  29   8  30   8  31  14  32  14  33  14
M  END
>  <minimizedAffinity>  (1) 
-5.37064552

>  <minimizedRMSD>  (1) 
1.85704684

$$$$
