
     RDKit          3D

 33 35  0  0  1  0  0  0  0  0999 V2000
   36.1400   30.2070   50.1700 C   0  0  2  0  0  0  0  0  0  0  0  0
   35.3220   29.2010   50.8950 C   0  0  0  0  0  0  0  0  0  0  0  0
   35.5510   29.0260   49.4520 C   0  0  1  0  0  0  0  0  0  0  0  0
   34.4560   29.1800   48.5530 N   0  0  0  0  0  0  0  0  0  0  0  0
   33.7870   27.9020   48.3410 C   0  0  0  0  0  0  0  0  0  0  0  0
   32.6320   28.0580   47.3700 C   0  0  0  0  0  0  0  0  0  0  0  0
   32.5970   29.3320   46.8190 O   0  0  0  0  0  0  0  0  0  0  0  0
   33.7810   29.7890   46.3130 C   0  0  0  0  0  0  0  0  0  0  0  0
   34.9200   29.5950   47.2470 C   0  0  0  0  0  0  0  0  0  0  0  0
   37.6350   30.2180   50.3130 C   0  0  0  0  0  0  0  0  0  0  0  0
   38.9420   33.3070   48.8100 C   0  0  0  0  0  0  0  0  0  0  0  0
   39.1640   32.9620   47.4780 C   0  0  0  0  0  0  0  0  0  0  0  0
   38.8570   31.6530   47.1150 C   0  0  0  0  0  0  0  0  0  0  0  0
   38.3650   30.7960   48.0550 N   0  0  0  0  0  0  0  0  0  0  0  0
   38.1680   31.1890   49.3430 C   0  0  0  0  0  0  0  0  0  0  0  0
   38.4600   32.4590   49.7220 N   0  0  0  0  0  0  0  0  0  0  0  0
   36.1003   31.3034   50.0907 H   0  0  0  0  0  0  0  0  0  0  0  0
   35.8027   28.5190   51.6118 H   0  0  0  0  0  0  0  0  0  0  0  0
   34.4279   29.2493   51.5340 H   0  0  0  0  0  0  0  0  0  0  0  0
   35.9653   28.2369   48.8073 H   0  0  0  0  0  0  0  0  0  0  0  0
   34.5086   27.1799   47.9313 H   0  0  0  0  0  0  0  0  0  0  0  0
   33.3945   27.5434   49.3040 H   0  0  0  0  0  0  0  0  0  0  0  0
   32.7441   27.3217   46.5605 H   0  0  0  0  0  0  0  0  0  0  0  0
   31.6942   27.8953   47.9213 H   0  0  0  0  0  0  0  0  0  0  0  0
   33.9961   29.2484   45.3795 H   0  0  0  0  0  0  0  0  0  0  0  0
   33.6729   30.8704   46.1430 H   0  0  0  0  0  0  0  0  0  0  0  0
   35.5900   28.8227   46.8414 H   0  0  0  0  0  0  0  0  0  0  0  0
   35.4529   30.5515   47.3526 H   0  0  0  0  0  0  0  0  0  0  0  0
   37.9119   30.5178   51.3345 H   0  0  0  0  0  0  0  0  0  0  0  0
   38.0485   29.2164   50.1238 H   0  0  0  0  0  0  0  0  0  0  0  0
   39.1766   34.3338   49.1273 H   0  0  0  0  0  0  0  0  0  0  0  0
   39.5611   33.6860   46.7512 H   0  0  0  0  0  0  0  0  0  0  0  0
   39.0099   31.3135   46.0799 H   0  0  0  0  0  0  0  0  0  0  0  0
  1 10  1  0
  1  2  1  0
  3  1  1  0
  3  2  1  0
  4  3  1  0
  5  4  1  0
  6  5  1  0
  7  6  1  0
  8  7  1  0
  8  9  1  0
  9  4  1  0
 11 16  2  0
 12 11  1  0
 13 12  2  0
 13 14  1  0
 14 15  2  0
 15 16  1  0
 15 10  1  0
  1 17  1  6
  2 18  1  0
  2 19  1  0
  3 20  1  1
  5 21  1  0
  5 22  1  0
  6 23  1  0
  6 24  1  0
  8 25  1  0
  8 26  1  0
  9 27  1  0
  9 28  1  0
 10 29  1  0
 10 30  1  0
 11 31  1  0
 12 32  1  0
 13 33  1  0
M  ISO  8  17  13  18  13  19  13  20  13  21  13  22  13  23  13  24  13
M  ISO  8  25  13  26  13  27  13  28  13  29   8  30   8  31  14  32  14
M  ISO  1  33  14
M  END
>  <minimizedAffinity>  (1) 
-4.82569933

>  <minimizedRMSD>  (1) 
1.44669855

$$$$
