
     RDKit          3D

 21 22  0  0  1  0  0  0  0  0999 V2000
   36.4330   29.9410   48.7340 C   0  0  0  0  0  0  0  0  0  0  0  0
   38.0640   33.1940   49.3850 C   0  0  0  0  0  0  0  0  0  0  0  0
   39.0100   33.2590   48.3650 C   0  0  0  0  0  0  0  0  0  0  0  0
   39.0920   32.1990   47.4590 C   0  0  0  0  0  0  0  0  0  0  0  0
   38.2250   31.1610   47.6440 N   0  0  0  0  0  0  0  0  0  0  0  0
   37.3190   31.1230   48.6380 C   0  0  0  0  0  0  0  0  0  0  0  0
   37.2580   32.1540   49.4990 N   0  0  0  0  0  0  0  0  0  0  0  0
   35.4670   30.2010   49.8760 C   0  0  2  0  0  0  0  0  0  0  0  0
   35.3770   29.2120   50.9860 C   0  0  0  0  0  0  0  0  0  0  0  0
   34.3050   29.2500   49.9690 C   0  0  2  0  0  0  0  0  0  0  0  0
   34.1550   27.9910   48.6960 S   0  0  0  0  0  0  0  0  0  0  0  0
   37.0278   29.0390   48.9404 H   0  0  0  0  0  0  0  0  0  0  0  0
   35.8908   29.7796   47.7906 H   0  0  0  0  0  0  0  0  0  0  0  0
   37.9870   34.0210   50.1062 H   0  0  0  0  0  0  0  0  0  0  0  0
   39.6790   34.1275   48.2747 H   0  0  0  0  0  0  0  0  0  0  0  0
   39.8209   32.2006   46.6352 H   0  0  0  0  0  0  0  0  0  0  0  0
   35.6129   31.2905   49.8353 H   0  0  0  0  0  0  0  0  0  0  0  0
   36.0717   28.3597   51.0175 H   0  0  0  0  0  0  0  0  0  0  0  0
   35.4030   29.2785   52.0837 H   0  0  0  0  0  0  0  0  0  0  0  0
   33.2093   29.3231   50.0328 H   0  0  0  0  0  0  0  0  0  0  0  0
   34.0086   26.7623   49.2839 H   0  0  0  0  0  0  0  0  0  0  0  0
  1  8  1  0
  2  7  2  0
  3  2  1  0
  4  5  1  0
  4  3  2  0
  5  6  2  0
  6  1  1  0
  6  7  1  0
  8 10  1  0
  8  9  1  0
 10  9  1  0
 11 10  1  0
  1 12  1  0
  1 13  1  0
  2 14  1  0
  3 15  1  0
  4 16  1  0
  8 17  1  1
  9 18  1  0
  9 19  1  0
 10 20  1  1
 11 21  1  0
M  ISO  8  12   8  13   8  14  14  15  14  16  14  17  13  18  13  19  13
M  ISO  2  20  13  21  11
M  END
>  <minimizedAffinity>  (1) 
-4.21754694

>  <minimizedRMSD>  (1) 
1.11516941

$$$$
