
     RDKit          3D

 23 24  0  0  1  0  0  0  0  0999 V2000
   36.8960   29.4210   49.6800 C   0  0  0  0  0  0  0  0  0  0  0  0
   38.4360   32.7480   49.3610 C   0  0  0  0  0  0  0  0  0  0  0  0
   38.9350   32.7520   48.0610 C   0  0  0  0  0  0  0  0  0  0  0  0
   38.7380   31.6030   47.2960 C   0  0  0  0  0  0  0  0  0  0  0  0
   38.0690   30.5420   47.8620 N   0  0  0  0  0  0  0  0  0  0  0  0
   37.6070   30.5880   49.1240 C   0  0  0  0  0  0  0  0  0  0  0  0
   37.7970   31.6950   49.8610 N   0  0  0  0  0  0  0  0  0  0  0  0
   35.4630   29.4940   49.2320 C   0  0  2  0  0  0  0  0  0  0  0  0
   34.3660   29.5360   50.2330 C   0  0  0  0  0  0  0  0  0  0  0  0
   34.6470   28.2610   49.5210 C   0  0  1  0  0  0  0  0  0  0  0  0
   33.5950   27.8450   48.5520 C   0  0  0  0  0  0  0  0  0  0  0  0
   33.8480   26.9030   47.7250 O   0  0  0  0  0  0  0  0  0  0  0  0
   32.3460   28.3900   48.4590 O   0  0  0  0  0  0  0  0  0  0  0  0
   37.3559   28.4927   49.3104 H   0  0  0  0  0  0  0  0  0  0  0  0
   36.9539   29.4257   50.7785 H   0  0  0  0  0  0  0  0  0  0  0  0
   38.5742   33.6394   49.9906 H   0  0  0  0  0  0  0  0  0  0  0  0
   39.4635   33.6266   47.6538 H   0  0  0  0  0  0  0  0  0  0  0  0
   39.1094   31.5459   46.2622 H   0  0  0  0  0  0  0  0  0  0  0  0
   35.7073   30.1211   48.3619 H   0  0  0  0  0  0  0  0  0  0  0  0
   34.6043   29.6297   51.3028 H   0  0  0  0  0  0  0  0  0  0  0  0
   33.4721   30.1615   50.3737 H   0  0  0  0  0  0  0  0  0  0  0  0
   34.9088   27.2271   49.7902 H   0  0  0  0  0  0  0  0  0  0  0  0
   31.7072   28.0512   47.7828 H   0  0  0  0  0  0  0  0  0  0  0  0
  2  7  2  0
  3  2  1  0
  4  5  1  0
  4  3  2  0
  5  6  2  0
  6  1  1  0
  6  7  1  0
  8 10  1  0
  8  1  1  0
  8  9  1  0
 10  9  1  0
 11 10  1  0
 12 11  2  0
 13 11  1  0
  1 14  1  0
  1 15  1  0
  2 16  1  0
  3 17  1  0
  4 18  1  0
  8 19  1  6
  9 20  1  0
  9 21  1  0
 10 22  1  1
 13 23  1  0
M  ISO  8  14   8  15   8  16  14  17  14  18  14  19  13  20  13  21  13
M  ISO  2  22  13  23   3
M  END
>  <minimizedAffinity>  (1) 
-4.72408438

>  <minimizedRMSD>  (1) 
0.520186126

$$$$
