
     RDKit          3D

 23 24  0  0  0  0  0  0  0  0999 V2000
   37.1740   30.4390   51.0500 C   0  0  0  0  0  0  0  0  0  0  0  0
   38.2390   30.9420   50.2770 C   0  0  0  0  0  0  0  0  0  0  0  0
   38.1560   30.8280   48.8770 C   0  0  0  0  0  0  0  0  0  0  0  0
   37.0350   30.2280   48.3490 N   0  0  0  0  0  0  0  0  0  0  0  0
   36.0430   29.7630   49.1290 C   0  0  0  0  0  0  0  0  0  0  0  0
   36.1030   29.8620   50.4630 N   0  0  0  0  0  0  0  0  0  0  0  0
   34.9280   29.1610   48.4890 N   0  0  0  0  0  0  0  0  0  0  0  0
   34.3790   27.9190   48.9810 C   0  0  0  0  0  0  0  0  0  0  0  0
   33.8900   27.1870   47.7560 C   0  0  0  0  0  0  0  0  0  0  0  0
   32.9720   27.8390   46.9980 O   0  0  0  0  0  0  0  0  0  0  0  0
   33.0540   29.2030   46.9080 C   0  0  0  0  0  0  0  0  0  0  0  0
   34.3400   29.8110   47.3270 C   0  0  0  0  0  0  0  0  0  0  0  0
   37.2152   30.5172   52.1464 H   0  0  0  0  0  0  0  0  0  0  0  0
   39.1117   31.4111   50.7549 H   0  0  0  0  0  0  0  0  0  0  0  0
   38.9591   31.2053   48.2268 H   0  0  0  0  0  0  0  0  0  0  0  0
   35.1539   27.3326   49.4965 H   0  0  0  0  0  0  0  0  0  0  0  0
   33.5709   28.0873   49.7080 H   0  0  0  0  0  0  0  0  0  0  0  0
   34.7623   26.9759   47.1200 H   0  0  0  0  0  0  0  0  0  0  0  0
   33.3784   26.2891   48.1327 H   0  0  0  0  0  0  0  0  0  0  0  0
   32.8775   29.4812   45.8585 H   0  0  0  0  0  0  0  0  0  0  0  0
   32.3024   29.5900   47.6118 H   0  0  0  0  0  0  0  0  0  0  0  0
   35.0499   29.7400   46.4897 H   0  0  0  0  0  0  0  0  0  0  0  0
   34.1336   30.8551   47.6051 H   0  0  0  0  0  0  0  0  0  0  0  0
  2  1  2  0
  3  2  1  0
  4  3  2  0
  4  5  1  0
  5  6  2  0
  6  1  1  0
  7  8  1  0
  7  5  1  0
  9  8  1  0
 10  9  1  0
 11 10  1  0
 11 12  1  0
 12  7  1  0
  1 13  1  0
  2 14  1  0
  3 15  1  0
  8 16  1  0
  8 17  1  0
  9 18  1  0
  9 19  1  0
 11 20  1  0
 11 21  1  0
 12 22  1  0
 12 23  1  0
M  ISO  8  13  14  14  14  15  14  16  13  17  13  18  13  19  13  20  13
M  ISO  3  21  13  22  13  23  13
M  END
>  <minimizedAffinity>  (1) 
-4.02602339

>  <minimizedRMSD>  (1) 
1.43205929

$$$$
