
     RDKit          3D

 41 44  0  0  0  0  0  0  0  0999 V2000
   38.2670   32.3730   44.9620 C   0  0  0  0  0  0  0  0  0  0  0  0
   38.8000   31.8430   43.6670 C   0  0  0  0  0  0  0  0  0  0  0  0
   39.2150   32.7670   42.6580 C   0  0  0  0  0  0  0  0  0  0  0  0
   39.7640   31.6270   41.3310 S   0  0  0  0  0  0  0  0  0  0  0  0
   39.3290   30.0930   42.3870 C   0  0  0  0  0  0  0  0  0  0  0  0
   38.9410   30.5780   43.3300 N   0  0  0  0  0  0  0  0  0  0  0  0
   39.4780   28.6900   42.0290 N   0  0  0  0  0  0  0  0  0  0  0  0
   39.1500   27.6660   42.8060 C   0  0  0  0  0  0  0  0  0  0  0  0
   39.4340   26.5270   42.1280 N   0  0  0  0  0  0  0  0  0  0  0  0
   39.9310   26.9150   40.9460 C   0  0  0  0  0  0  0  0  0  0  0  0
   40.3740   26.1140   39.8900 C   0  0  0  0  0  0  0  0  0  0  0  0
   40.8400   26.7570   38.7800 N   0  0  0  0  0  0  0  0  0  0  0  0
   40.8660   28.1050   38.7230 C   0  0  0  0  0  0  0  0  0  0  0  0
   40.4420   28.9050   39.7340 N   0  0  0  0  0  0  0  0  0  0  0  0
   39.9750   28.3110   40.8460 C   0  0  0  0  0  0  0  0  0  0  0  0
   40.3380   24.6840   39.9700 N   0  0  0  0  0  0  0  0  0  0  0  0
   39.2580   32.3260   46.0720 C   0  0  0  0  0  0  0  0  0  0  0  0
   38.0250   32.7630   49.6400 C   0  0  0  0  0  0  0  0  0  0  0  0
   38.7910   32.9660   48.4870 C   0  0  0  0  0  0  0  0  0  0  0  0
   38.5310   32.2150   47.3480 C   0  0  0  0  0  0  0  0  0  0  0  0
   37.5060   31.2910   47.4290 N   0  0  0  0  0  0  0  0  0  0  0  0
   36.7800   31.1090   48.5470 C   0  0  0  0  0  0  0  0  0  0  0  0
   37.0240   31.8290   49.6460 N   0  0  0  0  0  0  0  0  0  0  0  0
   40.0950   31.0530   45.9350 C   0  0  0  0  0  0  0  0  0  0  0  0
   40.1670   33.4960   45.9970 C   0  0  0  0  0  0  0  0  0  0  0  0
   37.3914   31.7729   45.2505 H   0  0  0  0  0  0  0  0  0  0  0  0
   38.0108   33.4303   44.7996 H   0  0  0  0  0  0  0  0  0  0  0  0
   39.2071   33.8669   42.6736 H   0  0  0  0  0  0  0  0  0  0  0  0
   38.7242   27.7297   43.8182 H   0  0  0  0  0  0  0  0  0  0  0  0
   41.2512   28.5805   37.8089 H   0  0  0  0  0  0  0  0  0  0  0  0
   40.6703   24.1154   39.1781 H   0  0  0  0  0  0  0  0  0  0  0  0
   39.9798   24.2246   40.8194 H   0  0  0  0  0  0  0  0  0  0  0  0
   38.2276   33.3555   50.5443 H   0  0  0  0  0  0  0  0  0  0  0  0
   39.5951   33.7166   48.4826 H   0  0  0  0  0  0  0  0  0  0  0  0
   35.9759   30.3585   48.5565 H   0  0  0  0  0  0  0  0  0  0  0  0
   40.3467   30.6702   46.9351 H   0  0  0  0  0  0  0  0  0  0  0  0
   39.5197   30.2932   45.3857 H   0  0  0  0  0  0  0  0  0  0  0  0
   41.0206   31.2801   45.3857 H   0  0  0  0  0  0  0  0  0  0  0  0
   40.4238   33.8266   47.0142 H   0  0  0  0  0  0  0  0  0  0  0  0
   41.0848   33.2134   45.4606 H   0  0  0  0  0  0  0  0  0  0  0  0
   39.6663   34.3155   45.4606 H   0  0  0  0  0  0  0  0  0  0  0  0
  1 17  1  0
  2  1  1  0
  3  2  2  0
  4  5  1  0
  4  3  1  0
  5  6  2  0
  6  2  1  0
  7  5  1  0
  7  8  1  0
  9  8  2  0
 10  9  1  0
 11 16  1  0
 11 10  2  0
 12 11  1  0
 13 12  2  0
 13 14  1  0
 14 15  2  0
 15 10  1  0
 15  7  1  0
 17 20  1  0
 18 23  2  0
 19 18  1  0
 20 21  1  0
 20 19  2  0
 21 22  2  0
 22 23  1  0
 24 17  1  0
 25 17  1  0
  1 26  1  0
  1 27  1  0
  3 28  1  0
  8 29  1  0
 13 30  1  0
 16 31  1  0
 16 32  1  0
 18 33  1  0
 19 34  1  0
 22 35  1  0
 24 36  1  0
 24 37  1  0
 24 38  1  0
 25 39  1  0
 25 40  1  0
 25 41  1  0
M  ISO  8  26   8  27   8  28  14  29  14  30  14  33  14  34  14  35  14
M  ISO  6  36   8  37   8  38   8  39   8  40   8  41   8
M  END
>  <minimizedAffinity>  (1) 
-5.9938798

>  <minimizedRMSD>  (1) 
1.0291748

$$$$
