
     RDKit          3D

 37 40  0  0  1  0  0  0  0  0999 V2000
   35.2150   29.6630   49.2830 C   0  0  2  0  0  0  0  0  0  0  0  0
   34.6210   29.0720   50.4890 C   0  0  0  0  0  0  0  0  0  0  0  0
   34.4640   28.3170   49.2540 C   0  0  1  0  0  0  0  0  0  0  0  0
   36.7140   29.4680   49.0580 C   0  0  0  0  0  0  0  0  0  0  0  0
   37.5200   32.9730   49.7630 C   0  0  0  0  0  0  0  0  0  0  0  0
   38.4750   33.2820   48.7810 C   0  0  0  0  0  0  0  0  0  0  0  0
   38.8320   32.2620   47.8810 C   0  0  0  0  0  0  0  0  0  0  0  0
   38.2370   31.0400   48.0080 N   0  0  0  0  0  0  0  0  0  0  0  0
   37.3250   30.7970   48.9690 C   0  0  0  0  0  0  0  0  0  0  0  0
   36.9790   31.7700   49.8350 N   0  0  0  0  0  0  0  0  0  0  0  0
   33.0770   28.3300   48.6760 C   0  0  0  0  0  0  0  0  0  0  0  0
   32.9830   28.7940   47.4700 O   0  0  0  0  0  0  0  0  0  0  0  0
   31.9160   27.8910   49.2970 O   0  0  0  0  0  0  0  0  0  0  0  0
   30.9010   27.3330   48.5420 C   0  0  0  0  0  0  0  0  0  0  0  0
   31.2030   26.5630   47.4570 N   0  0  0  0  0  0  0  0  0  0  0  0
   30.2360   26.0190   46.7190 C   0  0  0  0  0  0  0  0  0  0  0  0
   28.9250   26.2200   47.0350 N   0  0  0  0  0  0  0  0  0  0  0  0
   28.6300   26.9760   48.1010 C   0  0  0  0  0  0  0  0  0  0  0  0
   27.3010   27.1820   48.4250 C   0  0  0  0  0  0  0  0  0  0  0  0
   26.8930   27.9510   49.5120 C   0  0  0  0  0  0  0  0  0  0  0  0
   27.8780   28.5230   50.2870 C   0  0  0  0  0  0  0  0  0  0  0  0
   29.2090   28.3140   49.9590 C   0  0  0  0  0  0  0  0  0  0  0  0
   29.5920   27.5540   48.8850 C   0  0  0  0  0  0  0  0  0  0  0  0
   35.1517   30.6580   48.8184 H   0  0  0  0  0  0  0  0  0  0  0  0
   35.2793   28.6826   51.2796 H   0  0  0  0  0  0  0  0  0  0  0  0
   33.9115   29.4446   51.2426 H   0  0  0  0  0  0  0  0  0  0  0  0
   34.7019   27.3016   48.9042 H   0  0  0  0  0  0  0  0  0  0  0  0
   37.1502   28.9102   49.8997 H   0  0  0  0  0  0  0  0  0  0  0  0
   36.8952   28.8968   48.1355 H   0  0  0  0  0  0  0  0  0  0  0  0
   37.2172   33.7460   50.4847 H   0  0  0  0  0  0  0  0  0  0  0  0
   38.9264   34.2831   48.7181 H   0  0  0  0  0  0  0  0  0  0  0  0
   39.5753   32.4451   47.0911 H   0  0  0  0  0  0  0  0  0  0  0  0
   30.4979   25.4021   45.8468 H   0  0  0  0  0  0  0  0  0  0  0  0
   26.5297   26.7162   47.7940 H   0  0  0  0  0  0  0  0  0  0  0  0
   25.8272   28.0959   49.7425 H   0  0  0  0  0  0  0  0  0  0  0  0
   27.6111   29.1397   51.1579 H   0  0  0  0  0  0  0  0  0  0  0  0
   29.9869   28.7758   50.5847 H   0  0  0  0  0  0  0  0  0  0  0  0
  1  2  1  0
  3  1  1  0
  3  2  1  0
  4  1  1  0
  5 10  2  0
  6  5  1  0
  7  8  1  0
  7  6  2  0
  8  9  2  0
  9  4  1  0
  9 10  1  0
 11  3  1  0
 11 13  1  0
 12 11  2  0
 14 23  1  0
 14 13  1  0
 15 14  2  0
 16 17  2  0
 16 15  1  0
 17 18  1  0
 18 19  1  0
 18 23  2  0
 19 20  2  0
 20 21  1  0
 22 21  2  0
 23 22  1  0
  1 24  1  6
  2 25  1  0
  2 26  1  0
  3 27  1  1
  4 28  1  0
  4 29  1  0
  5 30  1  0
  6 31  1  0
  7 32  1  0
 16 33  1  0
 19 34  1  0
 20 35  1  0
 21 36  1  0
 22 37  1  0
M  ISO  8  24  13  25  13  26  13  27  13  28   8  29   8  30  14  31  14
M  ISO  6  32  14  33  14  34  14  35  14  36  14  37  14
M  END
>  <minimizedAffinity>  (1) 
-6.23949051

>  <minimizedRMSD>  (1) 
1.86973095

$$$$
