
     RDKit          3D

 26 27  0  0  1  0  0  0  0  0999 V2000
   35.4660   29.4900   49.1570 C   0  0  2  0  0  0  0  0  0  0  0  0
   34.3910   29.4800   50.1590 C   0  0  0  0  0  0  0  0  0  0  0  0
   34.6880   28.2080   49.5130 C   0  0  1  0  0  0  0  0  0  0  0  0
   36.9070   29.4400   49.6610 C   0  0  0  0  0  0  0  0  0  0  0  0
   38.4300   32.7610   49.3610 C   0  0  0  0  0  0  0  0  0  0  0  0
   38.9350   32.7580   48.0510 C   0  0  0  0  0  0  0  0  0  0  0  0
   38.7420   31.5990   47.2800 C   0  0  0  0  0  0  0  0  0  0  0  0
   38.0750   30.5410   47.8480 N   0  0  0  0  0  0  0  0  0  0  0  0
   37.6140   30.5970   49.1050 C   0  0  0  0  0  0  0  0  0  0  0  0
   37.7980   31.7120   49.8510 N   0  0  0  0  0  0  0  0  0  0  0  0
   33.6590   27.7400   48.5210 C   0  0  0  0  0  0  0  0  0  0  0  0
   34.0760   26.8200   47.7080 O   0  0  0  0  0  0  0  0  0  0  0  0
   32.3500   28.1890   48.4180 O   0  0  0  0  0  0  0  0  0  0  0  0
   31.2680   27.4140   48.7700 C   0  0  0  0  0  0  0  0  0  0  0  0
   30.4130   27.8560   49.5760 O   0  0  0  0  0  0  0  0  0  0  0  0
   31.0970   26.1580   48.2590 O   0  0  0  0  0  0  0  0  0  0  0  0
   35.6744   30.1100   48.2726 H   0  0  0  0  0  0  0  0  0  0  0  0
   34.6417   29.6176   51.2212 H   0  0  0  0  0  0  0  0  0  0  0  0
   33.4694   30.0671   50.2854 H   0  0  0  0  0  0  0  0  0  0  0  0
   34.9666   27.1948   49.8382 H   0  0  0  0  0  0  0  0  0  0  0  0
   36.9213   29.4849   50.7600 H   0  0  0  0  0  0  0  0  0  0  0  0
   37.3927   28.5043   49.3469 H   0  0  0  0  0  0  0  0  0  0  0  0
   38.5637   33.6537   49.9897 H   0  0  0  0  0  0  0  0  0  0  0  0
   39.4632   33.6321   47.6425 H   0  0  0  0  0  0  0  0  0  0  0  0
   39.1158   31.5405   46.2471 H   0  0  0  0  0  0  0  0  0  0  0  0
   30.3114   25.6178   48.5258 H   0  0  0  0  0  0  0  0  0  0  0  0
  1  3  1  0
  1  4  1  0
  1  2  1  0
  3  2  1  0
  5 10  2  0
  6  5  1  0
  7  8  1  0
  7  6  2  0
  8  9  2  0
  9  4  1  0
  9 10  1  0
 11  3  1  0
 12 11  2  0
 13 11  1  0
 13 14  1  0
 14 15  2  0
 16 14  1  0
  1 17  1  6
  2 18  1  0
  2 19  1  0
  3 20  1  1
  4 21  1  0
  4 22  1  0
  5 23  1  0
  6 24  1  0
  7 25  1  0
 16 26  1  0
M  ISO  8  17  13  18  13  19  13  20  13  21   8  22   8  23  14  24  14
M  ISO  2  25  14  26   3
M  END
>  <minimizedAffinity>  (1) 
-4.79117584

>  <minimizedRMSD>  (1) 
1.06074059

$$$$
