
     RDKit          3D

 29 30  0  0  1  0  0  0  0  0999 V2000
   35.3690   29.4380   49.0870 C   0  0  2  0  0  0  0  0  0  0  0  0
   34.2680   29.4550   50.0630 C   0  0  0  0  0  0  0  0  0  0  0  0
   34.5740   28.1690   49.4550 C   0  0  1  0  0  0  0  0  0  0  0  0
   36.7930   29.3840   49.6420 C   0  0  0  0  0  0  0  0  0  0  0  0
   38.3600   32.6890   49.4010 C   0  0  0  0  0  0  0  0  0  0  0  0
   38.8810   32.6920   48.0990 C   0  0  0  0  0  0  0  0  0  0  0  0
   38.6850   31.5440   47.3130 C   0  0  0  0  0  0  0  0  0  0  0  0
   37.9970   30.4870   47.8610 N   0  0  0  0  0  0  0  0  0  0  0  0
   37.5210   30.5360   49.1080 C   0  0  0  0  0  0  0  0  0  0  0  0
   37.7080   31.6410   49.8680 N   0  0  0  0  0  0  0  0  0  0  0  0
   33.5660   27.6770   48.4540 C   0  0  0  0  0  0  0  0  0  0  0  0
   34.0120   26.7580   47.6560 O   0  0  0  0  0  0  0  0  0  0  0  0
   32.2560   28.1060   48.3370 O   0  0  0  0  0  0  0  0  0  0  0  0
   31.1720   27.2400   48.6000 C   0  0  0  0  0  0  0  0  0  0  0  0
   30.2680   27.8330   49.6770 C   0  0  0  0  0  0  0  0  0  0  0  0
   35.6039   30.0358   48.1940 H   0  0  0  0  0  0  0  0  0  0  0  0
   34.4929   29.6159   51.1277 H   0  0  0  0  0  0  0  0  0  0  0  0
   33.3463   30.0487   50.1528 H   0  0  0  0  0  0  0  0  0  0  0  0
   34.8405   27.1625   49.8100 H   0  0  0  0  0  0  0  0  0  0  0  0
   36.7693   29.4319   50.7407 H   0  0  0  0  0  0  0  0  0  0  0  0
   37.2864   28.4457   49.3483 H   0  0  0  0  0  0  0  0  0  0  0  0
   38.4967   33.5725   50.0419 H   0  0  0  0  0  0  0  0  0  0  0  0
   39.4248   33.5638   47.7063 H   0  0  0  0  0  0  0  0  0  0  0  0
   39.0723   31.4921   46.2848 H   0  0  0  0  0  0  0  0  0  0  0  0
   30.5906   27.0962   47.6773 H   0  0  0  0  0  0  0  0  0  0  0  0
   31.5635   26.2748   48.9538 H   0  0  0  0  0  0  0  0  0  0  0  0
   30.6628   27.5740   50.6705 H   0  0  0  0  0  0  0  0  0  0  0  0
   30.2374   28.9272   49.5684 H   0  0  0  0  0  0  0  0  0  0  0  0
   29.2522   27.4252   49.5684 H   0  0  0  0  0  0  0  0  0  0  0  0
  1  3  1  0
  1  4  1  0
  1  2  1  0
  3  2  1  0
  5 10  2  0
  6  5  1  0
  7  8  1  0
  7  6  2  0
  8  9  2  0
  9  4  1  0
  9 10  1  0
 11  3  1  0
 12 11  2  0
 13 11  1  0
 13 14  1  0
 14 15  1  0
  1 16  1  6
  2 17  1  0
  2 18  1  0
  3 19  1  1
  4 20  1  0
  4 21  1  0
  5 22  1  0
  6 23  1  0
  7 24  1  0
 14 25  1  0
 14 26  1  0
 15 27  1  0
 15 28  1  0
 15 29  1  0
M  ISO  8  16  13  17  13  18  13  19  13  20   8  21   8  22  14  23  14
M  ISO  6  24  14  25   8  26   8  27   8  28   8  29   8
M  END
>  <minimizedAffinity>  (1) 
-4.69055033

>  <minimizedRMSD>  (1) 
0.558454216

$$$$
