
     RDKit          3D

 37 40  0  0  1  0  0  0  0  0999 V2000
   35.1730   29.2730   48.7420 C   0  0  2  0  0  0  0  0  0  0  0  0
   34.0350   29.3100   49.6550 C   0  0  0  0  0  0  0  0  0  0  0  0
   34.3540   28.0050   49.1540 C   0  0  1  0  0  0  0  0  0  0  0  0
   36.5630   29.2460   49.4010 C   0  0  0  0  0  0  0  0  0  0  0  0
   37.6320   32.7370   49.5600 C   0  0  0  0  0  0  0  0  0  0  0  0
   38.5000   32.8450   48.4540 C   0  0  0  0  0  0  0  0  0  0  0  0
   38.7010   31.6880   47.6660 C   0  0  0  0  0  0  0  0  0  0  0  0
   38.0460   30.5390   48.0180 N   0  0  0  0  0  0  0  0  0  0  0  0
   37.2340   30.4940   49.0760 C   0  0  0  0  0  0  0  0  0  0  0  0
   37.0330   31.6020   49.8430 N   0  0  0  0  0  0  0  0  0  0  0  0
   33.4060   27.4650   48.0990 C   0  0  0  0  0  0  0  0  0  0  0  0
   33.6570   26.2360   47.7790 O   0  0  0  0  0  0  0  0  0  0  0  0
   32.3520   28.1520   47.4990 O   0  0  0  0  0  0  0  0  0  0  0  0
   31.0800   28.1650   48.0030 C   0  0  0  0  0  0  0  0  0  0  0  0
   30.6780   27.6160   49.3240 C   0  0  0  0  0  0  0  0  0  0  0  0
   29.3760   27.7120   49.6680 C   0  0  0  0  0  0  0  0  0  0  0  0
   28.4210   28.3060   48.8200 C   0  0  0  0  0  0  0  0  0  0  0  0
   29.4230   28.8080   47.3430 S   0  0  0  0  0  0  0  0  0  0  0  0
   27.0950   28.5480   48.8690 C   0  0  0  0  0  0  0  0  0  0  0  0
   26.4820   29.7620   49.1050 C   0  0  0  0  0  0  0  0  0  0  0  0
   25.0930   29.5890   49.0740 C   0  0  0  0  0  0  0  0  0  0  0  0
   24.9130   28.2600   48.8160 N   0  0  0  0  0  0  0  0  0  0  0  0
   26.1020   27.6580   48.6980 N   0  0  0  0  0  0  0  0  0  0  0  0
   35.4489   29.8270   47.8327 H   0  0  0  0  0  0  0  0  0  0  0  0
   34.2100   29.5316   50.7181 H   0  0  0  0  0  0  0  0  0  0  0  0
   33.1052   29.8977   49.6618 H   0  0  0  0  0  0  0  0  0  0  0  0
   34.5869   27.0233   49.5921 H   0  0  0  0  0  0  0  0  0  0  0  0
   36.4580   29.1508   50.4918 H   0  0  0  0  0  0  0  0  0  0  0  0
   37.1461   28.3893   49.0323 H   0  0  0  0  0  0  0  0  0  0  0  0
   37.4534   33.6166   50.1959 H   0  0  0  0  0  0  0  0  0  0  0  0
   39.0020   33.7937   48.2131 H   0  0  0  0  0  0  0  0  0  0  0  0
   39.3677   31.7110   46.7913 H   0  0  0  0  0  0  0  0  0  0  0  0
   31.4132   27.1492   49.9960 H   0  0  0  0  0  0  0  0  0  0  0  0
   29.0509   27.3140   50.6406 H   0  0  0  0  0  0  0  0  0  0  0  0
   27.0020   30.7138   49.2883 H   0  0  0  0  0  0  0  0  0  0  0  0
   24.3177   30.3547   49.2243 H   0  0  0  0  0  0  0  0  0  0  0  0
   23.9999   27.7919   48.7259 H   0  0  0  0  0  0  0  0  0  0  0  0
  1  3  1  0
  1  4  1  0
  1  2  1  0
  3  2  1  0
  5 10  2  0
  6  5  1  0
  7  8  1  0
  7  6  2  0
  8  9  2  0
  9  4  1  0
  9 10  1  0
 11  3  1  0
 12 11  2  0
 13 14  1  0
 13 11  1  0
 14 15  2  0
 15 16  1  0
 17 19  1  0
 17 16  2  0
 18 14  1  0
 18 17  1  0
 19 20  1  0
 21 20  2  0
 22 21  1  0
 23 22  1  0
 23 19  2  0
  1 24  1  6
  2 25  1  0
  2 26  1  0
  3 27  1  1
  4 28  1  0
  4 29  1  0
  5 30  1  0
  6 31  1  0
  7 32  1  0
 15 33  1  0
 16 34  1  0
 20 35  1  0
 21 36  1  0
 22 37  1  0
M  ISO  8  24  13  25  13  26  13  27  13  28   8  29   8  30  14  31  14
M  ISO  6  32  14  33  14  34  14  35  14  36  14  37   9
M  END
>  <minimizedAffinity>  (1) 
-6.56735325

>  <minimizedRMSD>  (1) 
1.38088155

$$$$
