
     RDKit          3D

 38 41  0  0  1  0  0  0  0  0999 V2000
   35.2290   29.1320   48.4990 C   0  0  2  0  0  0  0  0  0  0  0  0
   33.9740   29.4380   49.1800 C   0  0  0  0  0  0  0  0  0  0  0  0
   34.2570   28.0380   49.0550 C   0  0  1  0  0  0  0  0  0  0  0  0
   36.5000   29.1960   49.3640 C   0  0  0  0  0  0  0  0  0  0  0  0
   37.5460   32.6870   49.6110 C   0  0  0  0  0  0  0  0  0  0  0  0
   38.4430   32.8180   48.5280 C   0  0  0  0  0  0  0  0  0  0  0  0
   38.6700   31.6760   47.7230 C   0  0  0  0  0  0  0  0  0  0  0  0
   38.0130   30.5190   48.0380 N   0  0  0  0  0  0  0  0  0  0  0  0
   37.1690   30.4570   49.0840 C   0  0  0  0  0  0  0  0  0  0  0  0
   36.9450   31.5430   49.8590 N   0  0  0  0  0  0  0  0  0  0  0  0
   33.4400   27.2970   48.0170 C   0  0  0  0  0  0  0  0  0  0  0  0
   33.8260   26.0720   47.8530 O   0  0  0  0  0  0  0  0  0  0  0  0
   32.3670   27.8130   47.2850 O   0  0  0  0  0  0  0  0  0  0  0  0
   31.1400   28.0620   47.8250 C   0  0  0  0  0  0  0  0  0  0  0  0
   30.7260   27.6300   49.1740 C   0  0  0  0  0  0  0  0  0  0  0  0
   29.4780   27.9320   49.6170 C   0  0  0  0  0  0  0  0  0  0  0  0
   28.5850   28.6560   48.7820 C   0  0  0  0  0  0  0  0  0  0  0  0
   29.5780   28.9430   47.2350 S   0  0  0  0  0  0  0  0  0  0  0  0
   27.3000   29.1160   48.8950 C   0  0  0  0  0  0  0  0  0  0  0  0
   26.2850   28.2620   49.2670 C   0  0  0  0  0  0  0  0  0  0  0  0
   24.9820   28.7670   49.3730 C   0  0  0  0  0  0  0  0  0  0  0  0
   24.7900   30.0890   49.0990 N   0  0  0  0  0  0  0  0  0  0  0  0
   25.7920   30.9140   48.7350 C   0  0  0  0  0  0  0  0  0  0  0  0
   27.0570   30.4110   48.6350 N   0  0  0  0  0  0  0  0  0  0  0  0
   35.6803   29.4408   47.5446 H   0  0  0  0  0  0  0  0  0  0  0  0
   34.0065   29.9027   50.1765 H   0  0  0  0  0  0  0  0  0  0  0  0
   33.1042   30.0494   48.8978 H   0  0  0  0  0  0  0  0  0  0  0  0
   34.3405   27.1831   49.7421 H   0  0  0  0  0  0  0  0  0  0  0  0
   36.2301   29.1447   50.4291 H   0  0  0  0  0  0  0  0  0  0  0  0
   37.1641   28.3504   49.1319 H   0  0  0  0  0  0  0  0  0  0  0  0
   37.3467   33.5547   50.2571 H   0  0  0  0  0  0  0  0  0  0  0  0
   38.9470   33.7729   48.3177 H   0  0  0  0  0  0  0  0  0  0  0  0
   39.3577   31.7183   46.8655 H   0  0  0  0  0  0  0  0  0  0  0  0
   31.4217   27.0686   49.8149 H   0  0  0  0  0  0  0  0  0  0  0  0
   29.1590   27.6164   50.6213 H   0  0  0  0  0  0  0  0  0  0  0  0
   26.4936   27.2026   49.4771 H   0  0  0  0  0  0  0  0  0  0  0  0
   24.1430   28.1193   49.6671 H   0  0  0  0  0  0  0  0  0  0  0  0
   25.5936   31.9748   48.5221 H   0  0  0  0  0  0  0  0  0  0  0  0
  1  3  1  0
  1  2  1  0
  1  4  1  0
  3  2  1  0
  5 10  2  0
  6  5  1  0
  7  8  1  0
  7  6  2  0
  8  9  2  0
  9  4  1  0
  9 10  1  0
 11  3  1  0
 12 11  2  0
 13 14  1  0
 13 11  1  0
 14 15  2  0
 15 16  1  0
 17 19  1  0
 17 16  2  0
 18 14  1  0
 18 17  1  0
 19 20  2  0
 20 21  1  0
 22 21  2  0
 23 22  1  0
 24 23  2  0
 24 19  1  0
  1 25  1  6
  2 26  1  0
  2 27  1  0
  3 28  1  1
  4 29  1  0
  4 30  1  0
  5 31  1  0
  6 32  1  0
  7 33  1  0
 15 34  1  0
 16 35  1  0
 20 36  1  0
 21 37  1  0
 23 38  1  0
M  ISO  8  25  13  26  13  27  13  28  13  29   8  30   8  31  14  32  14
M  ISO  6  33  14  34  14  35  14  36  14  37  14  38  14
M  END
>  <minimizedAffinity>  (1) 
-6.49894094

>  <minimizedRMSD>  (1) 
1.97929358

$$$$
