
     RDKit          3D

 42 44  0  0  1  0  0  0  0  0999 V2000
   35.2710   29.2630   48.6670 C   0  0  2  0  0  0  0  0  0  0  0  0
   34.0870   29.3890   49.5090 C   0  0  0  0  0  0  0  0  0  0  0  0
   34.4180   28.0430   49.1420 C   0  0  1  0  0  0  0  0  0  0  0  0
   36.6280   29.2780   49.3890 C   0  0  0  0  0  0  0  0  0  0  0  0
   37.7170   32.7600   49.5450 C   0  0  0  0  0  0  0  0  0  0  0  0
   38.5600   32.8710   48.4220 C   0  0  0  0  0  0  0  0  0  0  0  0
   38.7390   31.7220   47.6180 C   0  0  0  0  0  0  0  0  0  0  0  0
   38.0870   30.5720   47.9760 N   0  0  0  0  0  0  0  0  0  0  0  0
   37.2940   30.5270   49.0630 C   0  0  0  0  0  0  0  0  0  0  0  0
   37.1200   31.6260   49.8340 N   0  0  0  0  0  0  0  0  0  0  0  0
   33.5220   27.4170   48.0910 C   0  0  0  0  0  0  0  0  0  0  0  0
   33.8640   26.2180   47.7670 O   0  0  0  0  0  0  0  0  0  0  0  0
   32.4150   28.0040   47.4900 O   0  0  0  0  0  0  0  0  0  0  0  0
   31.1780   28.0770   48.0690 C   0  0  0  0  0  0  0  0  0  0  0  0
   30.8500   27.6210   49.4420 C   0  0  0  0  0  0  0  0  0  0  0  0
   29.5770   27.7650   49.8700 C   0  0  0  0  0  0  0  0  0  0  0  0
   28.5820   28.3290   49.0510 C   0  0  0  0  0  0  0  0  0  0  0  0
   29.4920   28.7170   47.4820 S   0  0  0  0  0  0  0  0  0  0  0  0
   27.2470   28.6350   49.1050 C   0  0  0  0  0  0  0  0  0  0  0  0
   26.6300   28.1810   50.4080 C   0  0  0  0  0  0  0  0  0  0  0  0
   26.9950   30.1430   49.0270 C   0  0  0  0  0  0  0  0  0  0  0  0
   26.4490   28.0020   47.9830 C   0  0  0  0  0  0  0  0  0  0  0  0
   35.6002   29.7374   47.7307 H   0  0  0  0  0  0  0  0  0  0  0  0
   34.2071   29.7022   50.5566 H   0  0  0  0  0  0  0  0  0  0  0  0
   33.1651   29.9815   49.4137 H   0  0  0  0  0  0  0  0  0  0  0  0
   34.6167   27.1019   49.6758 H   0  0  0  0  0  0  0  0  0  0  0  0
   36.4737   29.2095   50.4760 H   0  0  0  0  0  0  0  0  0  0  0  0
   37.2411   28.4224   49.0697 H   0  0  0  0  0  0  0  0  0  0  0  0
   37.5561   33.6364   50.1900 H   0  0  0  0  0  0  0  0  0  0  0  0
   39.0618   33.8192   48.1789 H   0  0  0  0  0  0  0  0  0  0  0  0
   39.3850   31.7509   46.7282 H   0  0  0  0  0  0  0  0  0  0  0  0
   31.6199   27.1791   50.0916 H   0  0  0  0  0  0  0  0  0  0  0  0
   29.3117   27.4329   50.8845 H   0  0  0  0  0  0  0  0  0  0  0  0
   27.2004   28.6007   51.2497 H   0  0  0  0  0  0  0  0  0  0  0  0
   25.5880   28.5293   50.4613 H   0  0  0  0  0  0  0  0  0  0  0  0
   26.6526   27.0825   50.4613 H   0  0  0  0  0  0  0  0  0  0  0  0
   26.9259   30.5563   50.0441 H   0  0  0  0  0  0  0  0  0  0  0  0
   27.8249   30.6262   48.4904 H   0  0  0  0  0  0  0  0  0  0  0  0
   26.0531   30.3301   48.4904 H   0  0  0  0  0  0  0  0  0  0  0  0
   25.6543   27.3716   48.4086 H   0  0  0  0  0  0  0  0  0  0  0  0
   25.9985   28.7911   47.3630 H   0  0  0  0  0  0  0  0  0  0  0  0
   27.1149   27.3838   47.3630 H   0  0  0  0  0  0  0  0  0  0  0  0
  1  3  1  0
  1  4  1  0
  1  2  1  0
  3  2  1  0
  5 10  2  0
  6  5  1  0
  7  8  1  0
  7  6  2  0
  8  9  2  0
  9  4  1  0
  9 10  1  0
 11  3  1  0
 12 11  2  0
 13 14  1  0
 13 11  1  0
 14 15  2  0
 15 16  1  0
 17 19  1  0
 17 16  2  0
 18 14  1  0
 18 17  1  0
 19 20  1  0
 21 19  1  0
 22 19  1  0
  1 23  1  6
  2 24  1  0
  2 25  1  0
  3 26  1  1
  4 27  1  0
  4 28  1  0
  5 29  1  0
  6 30  1  0
  7 31  1  0
 15 32  1  0
 16 33  1  0
 20 34  1  0
 20 35  1  0
 20 36  1  0
 21 37  1  0
 21 38  1  0
 21 39  1  0
 22 40  1  0
 22 41  1  0
 22 42  1  0
M  ISO  8  23  13  24  13  25  13  26  13  27   8  28   8  29  14  30  14
M  ISO  8  31  14  32  14  33  14  34   8  35   8  36   8  37   8  38   8
M  ISO  4  39   8  40   8  41   8  42   8
M  END
>  <minimizedAffinity>  (1) 
-6.04543161

>  <minimizedRMSD>  (1) 
1.19477487

$$$$
