
     RDKit          3D

 25 27  0  0  0  0  0  0  0  0999 V2000
   38.8890   32.3900   46.2250 N   0  0  0  0  0  0  0  0  0  0  0  0
   40.0130   33.0920   45.9400 C   0  0  0  0  0  0  0  0  0  0  0  0
   40.0200   33.3630   44.6030 N   0  0  0  0  0  0  0  0  0  0  0  0
   38.9030   32.8240   44.0890 C   0  0  0  0  0  0  0  0  0  0  0  0
   38.3790   32.7770   42.8180 C   0  0  0  0  0  0  0  0  0  0  0  0
   37.2040   32.1510   42.5680 N   0  0  0  0  0  0  0  0  0  0  0  0
   36.5090   31.5550   43.5570 C   0  0  0  0  0  0  0  0  0  0  0  0
   37.0220   31.6020   44.7980 N   0  0  0  0  0  0  0  0  0  0  0  0
   38.1840   32.2130   45.0870 C   0  0  0  0  0  0  0  0  0  0  0  0
   39.0610   33.3820   41.7460 N   0  0  0  0  0  0  0  0  0  0  0  0
   38.0710   30.6150   47.6610 C   0  0  0  0  0  0  0  0  0  0  0  0
   38.5470   31.9360   47.5190 C   0  0  0  0  0  0  0  0  0  0  0  0
   38.6420   32.6970   48.6860 C   0  0  0  0  0  0  0  0  0  0  0  0
   38.2760   32.1340   49.8800 N   0  0  0  0  0  0  0  0  0  0  0  0
   37.8310   30.8770   49.9650 C   0  0  0  0  0  0  0  0  0  0  0  0
   37.7280   30.1220   48.8670 N   0  0  0  0  0  0  0  0  0  0  0  0
   37.4550   30.3270   51.2580 C   0  0  0  0  0  0  0  0  0  0  0  0
   36.4570   29.5790   51.3940 O   0  0  0  0  0  0  0  0  0  0  0  0
   40.7864   33.3916   46.6625 H   0  0  0  0  0  0  0  0  0  0  0  0
   35.5543   31.0473   43.3551 H   0  0  0  0  0  0  0  0  0  0  0  0
   38.6644   33.3440   40.7962 H   0  0  0  0  0  0  0  0  0  0  0  0
   39.9568   33.8628   41.9112 H   0  0  0  0  0  0  0  0  0  0  0  0
   37.9783   29.9760   46.7704 H   0  0  0  0  0  0  0  0  0  0  0  0
   39.0058   33.7344   48.6470 H   0  0  0  0  0  0  0  0  0  0  0  0
   38.0626   30.5738   52.1412 H   0  0  0  0  0  0  0  0  0  0  0  0
  1 12  1  0
  2  1  1  0
  3  2  2  0
  4  3  1  0
  4  9  2  0
  5  4  1  0
  6  5  2  0
  6  7  1  0
  7  8  2  0
  8  9  1  0
  9  1  1  0
 10  5  1  0
 11 16  2  0
 12 11  1  0
 12 13  2  0
 13 14  1  0
 14 15  2  0
 15 17  1  0
 16 15  1  0
 17 18  2  0
  2 19  1  0
  7 20  1  0
 10 21  1  0
 10 22  1  0
 11 23  1  0
 13 24  1  0
 17 25  1  0
M  ISO  5  19  14  20  14  23  14  24  14  25   6
M  END
>  <minimizedAffinity>  (1) 
-5.41596222

>  <minimizedRMSD>  (1) 
3.42308927

$$$$
