
     RDKit          3D

 35 37  0  0  0  0  0  0  0  0999 V2000
   36.4160   30.9660   48.7490 N   0  0  0  0  0  0  0  0  0  0  0  0
   36.3900   31.7330   49.8670 C   0  0  0  0  0  0  0  0  0  0  0  0
   37.3690   32.6630   49.7780 N   0  0  0  0  0  0  0  0  0  0  0  0
   37.9880   32.4590   48.6070 C   0  0  0  0  0  0  0  0  0  0  0  0
   39.0470   33.0790   47.9670 C   0  0  0  0  0  0  0  0  0  0  0  0
   39.4800   32.6670   46.7690 N   0  0  0  0  0  0  0  0  0  0  0  0
   38.8980   31.6200   46.1220 C   0  0  0  0  0  0  0  0  0  0  0  0
   37.8700   31.0240   46.7510 N   0  0  0  0  0  0  0  0  0  0  0  0
   37.4020   31.3990   47.9480 C   0  0  0  0  0  0  0  0  0  0  0  0
   39.6890   34.1740   48.5940 N   0  0  0  0  0  0  0  0  0  0  0  0
   34.6560   29.9840   47.3980 C   0  0  0  0  0  0  0  0  0  0  0  0
   35.5230   29.8870   48.5030 C   0  0  0  0  0  0  0  0  0  0  0  0
   35.4300   28.7300   49.2700 C   0  0  0  0  0  0  0  0  0  0  0  0
   34.5340   27.7750   48.9290 N   0  0  0  0  0  0  0  0  0  0  0  0
   33.7200   27.8930   47.8700 C   0  0  0  0  0  0  0  0  0  0  0  0
   33.7870   28.9970   47.1130 N   0  0  0  0  0  0  0  0  0  0  0  0
   32.7350   26.8440   47.4930 C   0  0  0  0  0  0  0  0  0  0  0  0
   31.5370   26.9070   48.4440 C   0  0  0  0  0  0  0  0  0  0  0  0
   32.1620   27.1120   46.1060 C   0  0  0  0  0  0  0  0  0  0  0  0
   33.3280   25.4670   47.4520 C   0  0  0  0  0  0  0  0  0  0  0  0
   35.6892   31.6182   50.7071 H   0  0  0  0  0  0  0  0  0  0  0  0
   39.2501   31.2798   45.1370 H   0  0  0  0  0  0  0  0  0  0  0  0
   40.4783   34.6439   48.1280 H   0  0  0  0  0  0  0  0  0  0  0  0
   39.3668   34.5007   49.5161 H   0  0  0  0  0  0  0  0  0  0  0  0
   34.6895   30.8787   46.7590 H   0  0  0  0  0  0  0  0  0  0  0  0
   36.0798   28.5926   50.1469 H   0  0  0  0  0  0  0  0  0  0  0  0
   31.8934   26.8883   49.4845 H   0  0  0  0  0  0  0  0  0  0  0  0
   30.9755   27.8359   48.2654 H   0  0  0  0  0  0  0  0  0  0  0  0
   30.8812   26.0421   48.2654 H   0  0  0  0  0  0  0  0  0  0  0  0
   31.1695   27.5762   46.2027 H   0  0  0  0  0  0  0  0  0  0  0  0
   32.8321   27.7901   45.5572 H   0  0  0  0  0  0  0  0  0  0  0  0
   32.0710   26.1630   45.5572 H   0  0  0  0  0  0  0  0  0  0  0  0
   33.4842   25.1043   48.4787 H   0  0  0  0  0  0  0  0  0  0  0  0
   32.6425   24.7881   46.9236 H   0  0  0  0  0  0  0  0  0  0  0  0
   34.2923   25.4986   46.9236 H   0  0  0  0  0  0  0  0  0  0  0  0
  1  2  1  0
  3  2  2  0
  4  3  1  0
  5 10  1  0
  5  4  2  0
  6  5  1  0
  7  8  1  0
  7  6  2  0
  8  9  2  0
  9  4  1  0
  9  1  1  0
 11 12  2  0
 12  1  1  0
 12 13  1  0
 14 13  2  0
 15 14  1  0
 16 11  1  0
 16 15  2  0
 17 15  1  0
 17 18  1  0
 19 17  1  0
 20 17  1  0
  2 21  1  0
  7 22  1  0
 10 23  1  0
 10 24  1  0
 11 25  1  0
 13 26  1  0
 18 27  1  0
 18 28  1  0
 18 29  1  0
 19 30  1  0
 19 31  1  0
 19 32  1  0
 20 33  1  0
 20 34  1  0
 20 35  1  0
M  ISO  8  21  14  22  14  25  14  26  14  27   8  28   8  29   8  30   8
M  ISO  5  31   8  32   8  33   8  34   8  35   8
M  END
>  <minimizedAffinity>  (1) 
-5.54006243

>  <minimizedRMSD>  (1) 
3.22162914

$$$$
