
     RDKit          3D

 20 21  0  0  0  0  0  0  0  0999 V2000
   37.3580   30.1480   51.3680 C   0  0  0  0  0  0  0  0  0  0  0  0
   38.0430   30.9520   50.4310 C   0  0  0  0  0  0  0  0  0  0  0  0
   37.7190   30.7740   49.0850 C   0  0  0  0  0  0  0  0  0  0  0  0
   36.7760   29.8520   48.7350 N   0  0  0  0  0  0  0  0  0  0  0  0
   36.1430   29.1010   49.6720 C   0  0  0  0  0  0  0  0  0  0  0  0
   36.4300   29.2460   50.9770 N   0  0  0  0  0  0  0  0  0  0  0  0
   38.4060   31.5820   48.1380 N   0  0  0  0  0  0  0  0  0  0  0  0
   38.6460   30.8900   46.9940 C   0  0  0  0  0  0  0  0  0  0  0  0
   39.3030   31.4610   45.9210 C   0  0  0  0  0  0  0  0  0  0  0  0
   39.7150   32.7850   46.0550 C   0  0  0  0  0  0  0  0  0  0  0  0
   40.3160   33.3430   45.1020 O   0  0  0  0  0  0  0  0  0  0  0  0
   39.4530   33.4220   47.2060 N   0  0  0  0  0  0  0  0  0  0  0  0
   38.8120   32.8480   48.2400 C   0  0  0  0  0  0  0  0  0  0  0  0
   38.5410   33.3860   49.3300 O   0  0  0  0  0  0  0  0  0  0  0  0
   37.5842   30.2579   52.4389 H   0  0  0  0  0  0  0  0  0  0  0  0
   38.7985   31.6861   50.7477 H   0  0  0  0  0  0  0  0  0  0  0  0
   35.3868   28.3657   49.3598 H   0  0  0  0  0  0  0  0  0  0  0  0
   38.3079   29.8459   46.9198 H   0  0  0  0  0  0  0  0  0  0  0  0
   39.4930   30.8931   44.9983 H   0  0  0  0  0  0  0  0  0  0  0  0
   39.7583   34.4009   47.3031 H   0  0  0  0  0  0  0  0  0  0  0  0
  2  1  2  0
  3  2  1  0
  4  3  2  0
  4  5  1  0
  5  6  2  0
  6  1  1  0
  7 13  1  0
  7  3  1  0
  8  7  1  0
  9 10  1  0
  9  8  2  0
 10 12  1  0
 11 10  2  0
 12 13  1  0
 13 14  2  0
  1 15  1  0
  2 16  1  0
  5 17  1  0
  8 18  1  0
  9 19  1  0
 12 20  1  0
M  ISO  6  15  14  16  14  17  14  18  14  19  14  20   9
M  END
>  <minimizedAffinity>  (1) 
-6.00147009

>  <minimizedRMSD>  (1) 
0.813789725

$$$$
