
     RDKit          3D

 27 29  0  0  0  0  0  0  0  0999 V2000
   36.5300   29.3050   50.8850 C   0  0  0  0  0  0  0  0  0  0  0  0
   36.9320   29.6580   49.5740 C   0  0  0  0  0  0  0  0  0  0  0  0
   35.9230   30.0130   48.6970 C   0  0  0  0  0  0  0  0  0  0  0  0
   34.6150   30.0120   49.1020 N   0  0  0  0  0  0  0  0  0  0  0  0
   34.2750   29.6690   50.3600 C   0  0  0  0  0  0  0  0  0  0  0  0
   35.2220   29.3160   51.2520 N   0  0  0  0  0  0  0  0  0  0  0  0
   36.3210   30.3680   47.3710 N   0  0  0  0  0  0  0  0  0  0  0  0
   35.4050   29.9310   46.4540 C   0  0  0  0  0  0  0  0  0  0  0  0
   35.5710   30.1530   45.1050 C   0  0  0  0  0  0  0  0  0  0  0  0
   36.7090   30.8430   44.7000 C   0  0  0  0  0  0  0  0  0  0  0  0
   36.9040   31.0690   43.4820 O   0  0  0  0  0  0  0  0  0  0  0  0
   37.5710   31.2480   45.6370 N   0  0  0  0  0  0  0  0  0  0  0  0
   37.3920   31.0220   46.9520 C   0  0  0  0  0  0  0  0  0  0  0  0
   38.1570   31.3730   47.8690 O   0  0  0  0  0  0  0  0  0  0  0  0
   40.3260   33.3140   44.6010 N   0  0  0  0  0  0  0  0  0  0  0  0
   39.0030   33.1260   44.6350 N   0  0  0  0  0  0  0  0  0  0  0  0
   38.7580   31.9600   45.2940 C   0  0  0  0  0  0  0  0  0  0  0  0
   39.9650   31.4100   45.6780 C   0  0  0  0  0  0  0  0  0  0  0  0
   40.9590   32.2840   45.2310 C   0  0  0  0  0  0  0  0  0  0  0  0
   37.2933   29.0156   51.6223 H   0  0  0  0  0  0  0  0  0  0  0  0
   37.9890   29.6503   49.2696 H   0  0  0  0  0  0  0  0  0  0  0  0
   33.2171   29.6771   50.6612 H   0  0  0  0  0  0  0  0  0  0  0  0
   34.5137   29.3888   46.8027 H   0  0  0  0  0  0  0  0  0  0  0  0
   34.8301   29.7974   44.3738 H   0  0  0  0  0  0  0  0  0  0  0  0
   40.7976   34.1184   44.1634 H   0  0  0  0  0  0  0  0  0  0  0  0
   40.1144   30.4690   46.2276 H   0  0  0  0  0  0  0  0  0  0  0  0
   42.0445   32.1640   45.3622 H   0  0  0  0  0  0  0  0  0  0  0  0
  1  6  2  0
  2  1  1  0
  3  4  1  0
  3  2  2  0
  4  5  2  0
  5  6  1  0
  7  3  1  0
  8  7  1  0
  9  8  2  0
 10  9  1  0
 10 12  1  0
 11 10  2  0
 12 13  1  0
 13  7  1  0
 13 14  2  0
 15 16  1  0
 15 19  1  0
 16 17  2  0
 17 12  1  0
 17 18  1  0
 19 18  2  0
  1 20  1  0
  2 21  1  0
  5 22  1  0
  8 23  1  0
  9 24  1  0
 15 25  1  0
 18 26  1  0
 19 27  1  0
M  ISO  8  20  14  21  14  22  14  23  14  24  14  25   9  26  14  27  14
M  END
>  <minimizedAffinity>  (1) 
-5.94578791

>  <minimizedRMSD>  (1) 
3.31311655

$$$$
