
     RDKit          3D

 17 18  0  0  0  0  0  0  0  0999 V2000
   37.4670   30.3430   51.0840 C   0  0  0  0  0  0  0  0  0  0  0  0
   38.3380   31.1300   50.3170 C   0  0  0  0  0  0  0  0  0  0  0  0
   38.0970   31.2200   48.9360 C   0  0  0  0  0  0  0  0  0  0  0  0
   37.0330   30.5350   48.4440 N   0  0  0  0  0  0  0  0  0  0  0  0
   36.2120   29.7850   49.2090 C   0  0  0  0  0  0  0  0  0  0  0  0
   36.4340   29.6920   50.5410 N   0  0  0  0  0  0  0  0  0  0  0  0
   35.1100   29.1090   48.5300 C   0  0  0  0  0  0  0  0  0  0  0  0
   34.4740   28.0560   49.1890 C   0  0  0  0  0  0  0  0  0  0  0  0
   33.4750   27.5800   48.3550 C   0  0  0  0  0  0  0  0  0  0  0  0
   33.5620   28.3840   47.2180 C   0  0  0  0  0  0  0  0  0  0  0  0
   34.5200   29.2520   47.3640 O   0  0  0  0  0  0  0  0  0  0  0  0
   37.6396   30.2588   52.1671 H   0  0  0  0  0  0  0  0  0  0  0  0
   39.1826   31.6598   50.7817 H   0  0  0  0  0  0  0  0  0  0  0  0
   38.7439   31.8209   48.2800 H   0  0  0  0  0  0  0  0  0  0  0  0
   34.7212   27.6729   50.1901 H   0  0  0  0  0  0  0  0  0  0  0  0
   32.7726   26.7553   48.5460 H   0  0  0  0  0  0  0  0  0  0  0  0
   32.9172   28.2970   46.3311 H   0  0  0  0  0  0  0  0  0  0  0  0
  2  1  2  0
  3  2  1  0
  4  3  2  0
  4  5  1  0
  5  6  2  0
  6  1  1  0
  7  8  2  0
  7  5  1  0
  9  8  1  0
 10 11  1  0
 10  9  2  0
 11  7  1  0
  1 12  1  0
  2 13  1  0
  3 14  1  0
  8 15  1  0
  9 16  1  0
 10 17  1  0
M  ISO  6  12  14  13  14  14  14  15  14  16  14  17  14
M  END
>  <minimizedAffinity>  (1) 
-3.98942351

>  <minimizedRMSD>  (1) 
1.34048438

$$$$
