
     RDKit          3D

 27 29  0  0  0  0  0  0  0  0999 V2000
   36.4920   29.3210   50.9330 C   0  0  0  0  0  0  0  0  0  0  0  0
   36.8990   29.6670   49.6230 C   0  0  0  0  0  0  0  0  0  0  0  0
   35.8930   30.0000   48.7300 C   0  0  0  0  0  0  0  0  0  0  0  0
   34.5930   29.9870   49.1240 N   0  0  0  0  0  0  0  0  0  0  0  0
   34.2410   29.6520   50.3800 C   0  0  0  0  0  0  0  0  0  0  0  0
   35.1820   29.3180   51.2930 N   0  0  0  0  0  0  0  0  0  0  0  0
   36.2970   30.3480   47.4090 N   0  0  0  0  0  0  0  0  0  0  0  0
   35.3850   29.9070   46.4860 C   0  0  0  0  0  0  0  0  0  0  0  0
   35.5650   30.1240   45.1330 C   0  0  0  0  0  0  0  0  0  0  0  0
   36.7080   30.8080   44.7360 C   0  0  0  0  0  0  0  0  0  0  0  0
   36.9020   31.0220   43.5120 O   0  0  0  0  0  0  0  0  0  0  0  0
   37.5770   31.2220   45.6860 N   0  0  0  0  0  0  0  0  0  0  0  0
   37.3760   30.9980   46.9880 C   0  0  0  0  0  0  0  0  0  0  0  0
   38.1370   31.3540   47.9020 O   0  0  0  0  0  0  0  0  0  0  0  0
   38.7590   31.9260   45.3240 C   0  0  0  0  0  0  0  0  0  0  0  0
   39.9820   31.2900   45.3330 C   0  0  0  0  0  0  0  0  0  0  0  0
   40.9320   32.2300   44.9370 C   0  0  0  0  0  0  0  0  0  0  0  0
   40.1940   33.3960   44.7120 C   0  0  0  0  0  0  0  0  0  0  0  0
   38.9170   33.1720   44.9530 O   0  0  0  0  0  0  0  0  0  0  0  0
   37.2542   29.0480   51.6777 H   0  0  0  0  0  0  0  0  0  0  0  0
   37.9589   29.6715   49.3286 H   0  0  0  0  0  0  0  0  0  0  0  0
   33.1789   29.6499   50.6662 H   0  0  0  0  0  0  0  0  0  0  0  0
   34.4897   29.3683   46.8297 H   0  0  0  0  0  0  0  0  0  0  0  0
   34.8297   29.7680   44.3964 H   0  0  0  0  0  0  0  0  0  0  0  0
   40.1720   30.2404   45.6016 H   0  0  0  0  0  0  0  0  0  0  0  0
   42.0170   32.0868   44.8265 H   0  0  0  0  0  0  0  0  0  0  0  0
   40.6158   34.3571   44.3829 H   0  0  0  0  0  0  0  0  0  0  0  0
  1  6  2  0
  2  1  1  0
  3  4  1  0
  3  2  2  0
  4  5  2  0
  5  6  1  0
  7  3  1  0
  8  7  1  0
  9  8  2  0
 10  9  1  0
 10 12  1  0
 11 10  2  0
 12 13  1  0
 13  7  1  0
 13 14  2  0
 15 16  2  0
 15 12  1  0
 17 16  1  0
 18 17  2  0
 18 19  1  0
 19 15  1  0
  1 20  1  0
  2 21  1  0
  5 22  1  0
  8 23  1  0
  9 24  1  0
 16 25  1  0
 17 26  1  0
 18 27  1  0
M  ISO  8  20  14  21  14  22  14  23  14  24  14  25  14  26  14  27  14
M  END
>  <minimizedAffinity>  (1) 
-5.63880253

>  <minimizedRMSD>  (1) 
3.35284162

$$$$
