
     RDKit          3D

 15 16  0  0  0  0  0  0  0  0999 V2000
   38.0340   33.1740   49.4310 C   0  0  0  0  0  0  0  0  0  0  0  0
   38.9870   33.1540   48.3970 C   0  0  0  0  0  0  0  0  0  0  0  0
   38.9540   32.0520   47.5210 C   0  0  0  0  0  0  0  0  0  0  0  0
   38.0250   31.0790   47.7100 N   0  0  0  0  0  0  0  0  0  0  0  0
   37.1280   31.1480   48.7240 C   0  0  0  0  0  0  0  0  0  0  0  0
   37.1370   32.1850   49.5730 N   0  0  0  0  0  0  0  0  0  0  0  0
   36.1100   30.1360   48.9770 C   0  0  0  0  0  0  0  0  0  0  0  0
   36.2850   28.9400   49.5700 N   0  0  0  0  0  0  0  0  0  0  0  0
   35.1230   28.3400   49.6030 O   0  0  0  0  0  0  0  0  0  0  0  0
   34.1910   29.0640   49.0670 C   0  0  0  0  0  0  0  0  0  0  0  0
   34.7910   30.2120   48.6610 N   0  0  0  0  0  0  0  0  0  0  0  0
   38.0232   34.0169   50.1377 H   0  0  0  0  0  0  0  0  0  0  0  0
   39.7241   33.9618   48.2780 H   0  0  0  0  0  0  0  0  0  0  0  0
   39.6733   31.9797   46.6919 H   0  0  0  0  0  0  0  0  0  0  0  0
   33.1280   28.8011   48.9622 H   0  0  0  0  0  0  0  0  0  0  0  0
  1  6  2  0
  2  1  1  0
  3  4  1  0
  3  2  2  0
  4  5  2  0
  5  7  1  0
  5  6  1  0
  7  8  2  0
  8  9  1  0
 10  9  1  0
 11  7  1  0
 11 10  2  0
  1 12  1  0
  2 13  1  0
  3 14  1  0
 10 15  1  0
M  ISO  4  12  14  13  14  14  14  15  14
M  END
>  <minimizedAffinity>  (1) 
-3.94842386

>  <minimizedRMSD>  (1) 
2.72293115

$$$$
