
     RDKit          3D

 20 21  0  0  0  0  0  0  0  0999 V2000
   37.5330   30.4840   50.8560 C   0  0  0  0  0  0  0  0  0  0  0  0
   37.1490   31.0690   49.6190 C   0  0  0  0  0  0  0  0  0  0  0  0
   35.8780   30.7220   49.1040 C   0  0  0  0  0  0  0  0  0  0  0  0
   35.1060   29.8550   49.8210 N   0  0  0  0  0  0  0  0  0  0  0  0
   35.5160   29.3280   50.9870 C   0  0  0  0  0  0  0  0  0  0  0  0
   36.7170   29.6350   51.5070 N   0  0  0  0  0  0  0  0  0  0  0  0
   38.0590   31.9910   48.9340 C   0  0  0  0  0  0  0  0  0  0  0  0
   38.4670   33.1270   49.6010 C   0  0  0  0  0  0  0  0  0  0  0  0
   39.3240   33.9990   48.9620 C   0  0  0  0  0  0  0  0  0  0  0  0
   39.7590   33.7290   47.6840 C   0  0  0  0  0  0  0  0  0  0  0  0
   39.3190   32.5790   47.0670 C   0  0  0  0  0  0  0  0  0  0  0  0
   38.4530   31.6510   47.6480 C   0  0  0  0  0  0  0  0  0  0  0  0
   38.5141   30.7295   51.2886 H   0  0  0  0  0  0  0  0  0  0  0  0
   35.5216   31.1400   48.1510 H   0  0  0  0  0  0  0  0  0  0  0  0
   34.8564   28.6322   51.5263 H   0  0  0  0  0  0  0  0  0  0  0  0
   38.1159   33.3338   50.6227 H   0  0  0  0  0  0  0  0  0  0  0  0
   39.6606   34.9121   49.4748 H   0  0  0  0  0  0  0  0  0  0  0  0
   40.4435   34.4173   47.1666 H   0  0  0  0  0  0  0  0  0  0  0  0
   39.6746   32.3778   46.0457 H   0  0  0  0  0  0  0  0  0  0  0  0
   38.1155   30.7381   47.1355 H   0  0  0  0  0  0  0  0  0  0  0  0
  1  6  2  0
  2  1  1  0
  3  2  2  0
  3  4  1  0
  4  5  2  0
  5  6  1  0
  7  8  2  0
  7  2  1  0
  9  8  1  0
 10  9  2  0
 11 12  2  0
 11 10  1  0
 12  7  1  0
  1 13  1  0
  3 14  1  0
  5 15  1  0
  8 16  1  0
  9 17  1  0
 10 18  1  0
 11 19  1  0
 12 20  1  0
M  ISO  8  13  14  14  14  15  14  16  14  17  14  18  14  19  14  20  14
M  END
>  <minimizedAffinity>  (1) 
-5.00844431

>  <minimizedRMSD>  (1) 
2.53224683

$$$$
