
     RDKit          3D

 19 20  0  0  0  0  0  0  0  0999 V2000
   37.7330   30.5550   50.9250 C   0  0  0  0  0  0  0  0  0  0  0  0
   37.3890   31.1790   49.7190 C   0  0  0  0  0  0  0  0  0  0  0  0
   36.1430   30.8790   49.1710 C   0  0  0  0  0  0  0  0  0  0  0  0
   35.3220   30.0100   49.8160 N   0  0  0  0  0  0  0  0  0  0  0  0
   35.7000   29.4270   50.9880 C   0  0  0  0  0  0  0  0  0  0  0  0
   36.9060   29.6990   51.5430 N   0  0  0  0  0  0  0  0  0  0  0  0
   38.2370   32.1010   49.0140 C   0  0  0  0  0  0  0  0  0  0  0  0
   38.6930   33.2780   49.5600 C   0  0  0  0  0  0  0  0  0  0  0  0
   39.5060   34.1850   48.9140 C   0  0  0  0  0  0  0  0  0  0  0  0
   39.9090   33.9130   47.6180 C   0  0  0  0  0  0  0  0  0  0  0  0
   39.4450   32.7300   47.0820 C   0  0  0  0  0  0  0  0  0  0  0  0
   38.6530   31.8780   47.7530 N   0  0  0  0  0  0  0  0  0  0  0  0
   38.7109   30.7737   51.3788 H   0  0  0  0  0  0  0  0  0  0  0  0
   35.8272   31.3419   48.2244 H   0  0  0  0  0  0  0  0  0  0  0  0
   35.0171   28.7261   51.4904 H   0  0  0  0  0  0  0  0  0  0  0  0
   38.3860   33.5135   50.5897 H   0  0  0  0  0  0  0  0  0  0  0  0
   39.8283   35.1075   49.4191 H   0  0  0  0  0  0  0  0  0  0  0  0
   40.5581   34.5970   47.0516 H   0  0  0  0  0  0  0  0  0  0  0  0
   39.7382   32.4715   46.0538 H   0  0  0  0  0  0  0  0  0  0  0  0
  1  6  2  0
  2  1  1  0
  3  2  2  0
  3  4  1  0
  4  5  2  0
  5  6  1  0
  7  8  2  0
  7  2  1  0
  9  8  1  0
 10  9  2  0
 11 10  1  0
 11 12  2  0
 12  7  1  0
  1 13  1  0
  3 14  1  0
  5 15  1  0
  8 16  1  0
  9 17  1  0
 10 18  1  0
 11 19  1  0
M  ISO  7  13  14  14  14  15  14  16  14  17  14  18  14  19  14
M  END
>  <minimizedAffinity>  (1) 
-4.65314198

>  <minimizedRMSD>  (1) 
2.50533962

$$$$
