
     RDKit          3D

 25 26  0  0  0  0  0  0  0  0999 V2000
   35.8990   28.9530   49.7050 C   0  0  0  0  0  0  0  0  0  0  0  0
   36.1810   29.8290   48.6480 C   0  0  0  0  0  0  0  0  0  0  0  0
   35.2310   29.9520   47.6360 C   0  0  0  0  0  0  0  0  0  0  0  0
   34.0880   29.2240   47.7220 N   0  0  0  0  0  0  0  0  0  0  0  0
   33.8390   28.3860   48.7510 C   0  0  0  0  0  0  0  0  0  0  0  0
   34.7530   28.2600   49.7370 N   0  0  0  0  0  0  0  0  0  0  0  0
   37.3750   30.5910   48.5540 N   0  0  0  0  0  0  0  0  0  0  0  0
   37.9620   30.8980   47.2730 C   0  0  0  0  0  0  0  0  0  0  0  0
   39.0240   31.9120   47.2900 C   0  0  0  0  0  0  0  0  0  0  0  0
   38.9350   32.9760   48.3190 C   0  0  0  0  0  0  0  0  0  0  0  0
   38.0300   32.6480   49.4750 C   0  0  0  0  0  0  0  0  0  0  0  0
   38.1160   31.1270   49.6550 C   0  0  0  0  0  0  0  0  0  0  0  0
   36.6286   28.8328   50.5194 H   0  0  0  0  0  0  0  0  0  0  0  0
   35.4037   30.6259   46.7839 H   0  0  0  0  0  0  0  0  0  0  0  0
   32.9013   27.8119   48.7858 H   0  0  0  0  0  0  0  0  0  0  0  0
   37.1608   31.2577   46.6107 H   0  0  0  0  0  0  0  0  0  0  0  0
   38.4383   29.9681   46.9289 H   0  0  0  0  0  0  0  0  0  0  0  0
   39.9790   31.3871   47.4398 H   0  0  0  0  0  0  0  0  0  0  0  0
   38.9244   32.4399   46.3301 H   0  0  0  0  0  0  0  0  0  0  0  0
   39.9454   33.1581   48.7139 H   0  0  0  0  0  0  0  0  0  0  0  0
   38.5034   33.8576   47.8226 H   0  0  0  0  0  0  0  0  0  0  0  0
   38.3711   33.1614   50.3861 H   0  0  0  0  0  0  0  0  0  0  0  0
   36.9970   32.9754   49.2859 H   0  0  0  0  0  0  0  0  0  0  0  0
   37.6653   30.8230   50.6113 H   0  0  0  0  0  0  0  0  0  0  0  0
   39.1553   30.7671   49.6732 H   0  0  0  0  0  0  0  0  0  0  0  0
  1  6  2  0
  2  1  1  0
  3  4  1  0
  3  2  2  0
  4  5  2  0
  5  6  1  0
  7  2  1  0
  7 12  1  0
  8  9  1  0
  8  7  1  0
  9 10  1  0
 10 11  1  0
 11 12  1  0
  1 13  1  0
  3 14  1  0
  5 15  1  0
  8 16  1  0
  8 17  1  0
  9 18  1  0
  9 19  1  0
 10 20  1  0
 10 21  1  0
 11 22  1  0
 11 23  1  0
 12 24  1  0
 12 25  1  0
M  ISO  8  13  14  14  14  15  14  16  13  17  13  18  13  19  13  20  13
M  ISO  5  21  13  22  13  23  13  24  13  25  13
M  END
>  <minimizedAffinity>  (1) 
-4.45126295

>  <minimizedRMSD>  (1) 
2.90954256

$$$$
