
     RDKit          3D

 23 24  0  0  0  0  0  0  0  0999 V2000
   37.3530   30.3800   50.9660 C   0  0  0  0  0  0  0  0  0  0  0  0
   36.9430   31.0190   49.7740 C   0  0  0  0  0  0  0  0  0  0  0  0
   35.6860   30.7230   49.2580 C   0  0  0  0  0  0  0  0  0  0  0  0
   34.9120   29.8240   49.9380 N   0  0  0  0  0  0  0  0  0  0  0  0
   35.3240   29.2230   51.0790 C   0  0  0  0  0  0  0  0  0  0  0  0
   36.5420   29.5020   51.5880 N   0  0  0  0  0  0  0  0  0  0  0  0
   37.7690   31.9320   49.1120 N   0  0  0  0  0  0  0  0  0  0  0  0
   37.7890   33.3460   49.3760 C   0  0  0  0  0  0  0  0  0  0  0  0
   39.2100   33.8220   49.1510 C   0  0  0  0  0  0  0  0  0  0  0  0
   39.6800   33.5940   47.8730 O   0  0  0  0  0  0  0  0  0  0  0  0
   38.9540   32.6620   47.1790 C   0  0  0  0  0  0  0  0  0  0  0  0
   38.6770   31.4550   48.0870 C   0  0  0  0  0  0  0  0  0  0  0  0
   38.3435   30.6015   51.3900 H   0  0  0  0  0  0  0  0  0  0  0  0
   35.3260   31.1967   48.3328 H   0  0  0  0  0  0  0  0  0  0  0  0
   34.6652   28.5066   51.5916 H   0  0  0  0  0  0  0  0  0  0  0  0
   37.1037   33.8673   48.6914 H   0  0  0  0  0  0  0  0  0  0  0  0
   37.4644   33.5563   50.4058 H   0  0  0  0  0  0  0  0  0  0  0  0
   39.2480   34.9039   49.3463 H   0  0  0  0  0  0  0  0  0  0  0  0
   39.8517   33.2470   49.8348 H   0  0  0  0  0  0  0  0  0  0  0  0
   38.0005   33.1052   46.8560 H   0  0  0  0  0  0  0  0  0  0  0  0
   39.5224   32.3356   46.2956 H   0  0  0  0  0  0  0  0  0  0  0  0
   38.2115   30.6414   47.5113 H   0  0  0  0  0  0  0  0  0  0  0  0
   39.6044   31.0544   48.5222 H   0  0  0  0  0  0  0  0  0  0  0  0
  1  6  2  0
  2  1  1  0
  3  2  2  0
  3  4  1  0
  4  5  2  0
  5  6  1  0
  7  8  1  0
  7  2  1  0
  9  8  1  0
 10  9  1  0
 11 10  1  0
 11 12  1  0
 12  7  1  0
  1 13  1  0
  3 14  1  0
  5 15  1  0
  8 16  1  0
  8 17  1  0
  9 18  1  0
  9 19  1  0
 11 20  1  0
 11 21  1  0
 12 22  1  0
 12 23  1  0
M  ISO  8  13  14  14  14  15  14  16  13  17  13  18  13  19  13  20  13
M  ISO  3  21  13  22  13  23  13
M  END
>  <minimizedAffinity>  (1) 
-4.10731268

>  <minimizedRMSD>  (1) 
2.59690499

$$$$
