
     RDKit          3D

 22 22  0  0  0  0  0  0  0  0999 V2000
   37.1250   32.0630   49.6560 C   0  0  0  0  0  0  0  0  0  0  0  0
   36.8880   31.1140   48.6540 C   0  0  0  0  0  0  0  0  0  0  0  0
   37.6940   31.1480   47.5040 C   0  0  0  0  0  0  0  0  0  0  0  0
   38.6580   32.1010   47.4320 N   0  0  0  0  0  0  0  0  0  0  0  0
   38.8680   33.0060   48.4110 C   0  0  0  0  0  0  0  0  0  0  0  0
   38.1010   32.9900   49.5270 N   0  0  0  0  0  0  0  0  0  0  0  0
   35.8100   30.1300   48.8510 C   0  0  0  0  0  0  0  0  0  0  0  0
   36.3060   28.9270   49.6550 C   0  0  0  0  0  0  0  0  0  0  0  0
   34.6980   30.7130   49.7200 C   0  0  0  0  0  0  0  0  0  0  0  0
   35.1650   29.6840   47.5590 C   0  0  0  0  0  0  0  0  0  0  0  0
   36.5057   32.0542   50.5650 H   0  0  0  0  0  0  0  0  0  0  0  0
   37.5486   30.4252   46.6876 H   0  0  0  0  0  0  0  0  0  0  0  0
   39.6635   33.7579   48.3022 H   0  0  0  0  0  0  0  0  0  0  0  0
   36.2171   29.1426   50.7300 H   0  0  0  0  0  0  0  0  0  0  0  0
   35.6985   28.0443   49.4066 H   0  0  0  0  0  0  0  0  0  0  0  0
   37.3591   28.7290   49.4066 H   0  0  0  0  0  0  0  0  0  0  0  0
   34.9537   30.5789   50.7814 H   0  0  0  0  0  0  0  0  0  0  0  0
   34.5866   31.7855   49.5023 H   0  0  0  0  0  0  0  0  0  0  0  0
   33.7526   30.1946   49.5023 H   0  0  0  0  0  0  0  0  0  0  0  0
   34.2793   29.0716   47.7837 H   0  0  0  0  0  0  0  0  0  0  0  0
   34.8623   30.5666   46.9765 H   0  0  0  0  0  0  0  0  0  0  0  0
   35.8839   29.0892   46.9765 H   0  0  0  0  0  0  0  0  0  0  0  0
  2  7  1  0
  2  1  2  0
  3  2  1  0
  4  3  2  0
  4  5  1  0
  5  6  2  0
  6  1  1  0
  7  8  1  0
  7  9  1  0
 10  7  1  0
  1 11  1  0
  3 12  1  0
  5 13  1  0
  8 14  1  0
  8 15  1  0
  8 16  1  0
  9 17  1  0
  9 18  1  0
  9 19  1  0
 10 20  1  0
 10 21  1  0
 10 22  1  0
M  ISO  8  11  14  12  14  13  14  14   8  15   8  16   8  17   8  18   8
M  ISO  4  19   8  20   8  21   8  22   8
M  END
>  <minimizedAffinity>  (1) 
-4.04274654

>  <minimizedRMSD>  (1) 
4.23070526

$$$$
