
     RDKit          3D

 29 30  0  0  0  0  0  0  0  0999 V2000
   37.0260   30.9610   47.4410 N   0  0  0  0  0  0  0  0  0  0  0  0
   37.2350   30.9120   46.1370 N   0  0  0  0  0  0  0  0  0  0  0  0
   38.1770   31.7500   45.7430 C   0  0  0  0  0  0  0  0  0  0  0  0
   38.5880   32.3710   46.9170 C   0  0  0  0  0  0  0  0  0  0  0  0
   37.8510   31.8640   47.9950 C   0  0  0  0  0  0  0  0  0  0  0  0
   36.4670   29.2710   49.0850 C   0  0  0  0  0  0  0  0  0  0  0  0
   36.0880   30.1970   48.1230 C   0  0  0  0  0  0  0  0  0  0  0  0
   34.7100   30.3420   47.8700 C   0  0  0  0  0  0  0  0  0  0  0  0
   33.8560   29.5540   48.5980 N   0  0  0  0  0  0  0  0  0  0  0  0
   34.2660   28.6740   49.5160 C   0  0  0  0  0  0  0  0  0  0  0  0
   35.5630   28.5250   49.7660 N   0  0  0  0  0  0  0  0  0  0  0  0
   38.0620   32.3350   49.3820 C   0  0  0  0  0  0  0  0  0  0  0  0
   38.9340   33.5680   49.4380 C   0  0  0  0  0  0  0  0  0  0  0  0
   36.7130   32.7830   49.9700 C   0  0  0  0  0  0  0  0  0  0  0  0
   38.5620   31.2450   50.2980 C   0  0  0  0  0  0  0  0  0  0  0  0
   38.5501   31.9177   44.7219 H   0  0  0  0  0  0  0  0  0  0  0  0
   39.3704   33.1409   46.9883 H   0  0  0  0  0  0  0  0  0  0  0  0
   37.5371   29.1380   49.3021 H   0  0  0  0  0  0  0  0  0  0  0  0
   34.3355   31.0558   47.1215 H   0  0  0  0  0  0  0  0  0  0  0  0
   33.5284   28.0713   50.0662 H   0  0  0  0  0  0  0  0  0  0  0  0
   39.1234   33.8358   50.4880 H   0  0  0  0  0  0  0  0  0  0  0  0
   39.8900   33.3643   48.9334 H   0  0  0  0  0  0  0  0  0  0  0  0
   38.4234   34.4014   48.9334 H   0  0  0  0  0  0  0  0  0  0  0  0
   36.7677   32.7648   51.0685 H   0  0  0  0  0  0  0  0  0  0  0  0
   36.4864   33.8046   49.6310 H   0  0  0  0  0  0  0  0  0  0  0  0
   35.9203   32.0999   49.6310 H   0  0  0  0  0  0  0  0  0  0  0  0
   38.4210   31.5524   51.3447 H   0  0  0  0  0  0  0  0  0  0  0  0
   37.9984   30.3196   50.1085 H   0  0  0  0  0  0  0  0  0  0  0  0
   39.6311   31.0685   50.1085 H   0  0  0  0  0  0  0  0  0  0  0  0
  1  5  1  0
  1  7  1  0
  2  1  1  0
  3  2  2  0
  3  4  1  0
  4  5  2  0
  5 12  1  0
  6 11  2  0
  7  6  1  0
  8  7  2  0
  8  9  1  0
  9 10  2  0
 10 11  1  0
 12 13  1  0
 12 14  1  0
 12 15  1  0
  3 16  1  0
  4 17  1  0
  6 18  1  0
  8 19  1  0
 10 20  1  0
 13 21  1  0
 13 22  1  0
 13 23  1  0
 14 24  1  0
 14 25  1  0
 14 26  1  0
 15 27  1  0
 15 28  1  0
 15 29  1  0
M  ISO  8  16  14  17  14  18  14  19  14  20  14  21   8  22   8  23   8
M  ISO  6  24   8  25   8  26   8  27   8  28   8  29   8
M  END
>  <minimizedAffinity>  (1) 
-4.95574713

>  <minimizedRMSD>  (1) 
1.72404718

$$$$
