
     RDKit          3D

 27 29  0  0  0  0  0  0  0  0999 V2000
   37.2420   30.2570   45.2830 N   0  0  0  0  0  0  0  0  0  0  0  0
   37.7730   29.8310   44.1470 N   0  0  0  0  0  0  0  0  0  0  0  0
   39.0940   29.9210   44.1570 C   0  0  0  0  0  0  0  0  0  0  0  0
   39.3910   30.4470   45.4070 C   0  0  0  0  0  0  0  0  0  0  0  0
   38.2090   30.6520   46.1010 C   0  0  0  0  0  0  0  0  0  0  0  0
   35.3970   30.1060   46.8730 C   0  0  0  0  0  0  0  0  0  0  0  0
   35.8690   30.2790   45.5550 C   0  0  0  0  0  0  0  0  0  0  0  0
   34.9210   30.4680   44.5630 C   0  0  0  0  0  0  0  0  0  0  0  0
   33.5970   30.4780   44.9080 N   0  0  0  0  0  0  0  0  0  0  0  0
   33.1870   30.3080   46.1780 C   0  0  0  0  0  0  0  0  0  0  0  0
   34.0810   30.1230   47.1630 N   0  0  0  0  0  0  0  0  0  0  0  0
   38.1200   31.1950   47.4560 C   0  0  0  0  0  0  0  0  0  0  0  0
   38.2080   32.5140   47.8080 C   0  0  0  0  0  0  0  0  0  0  0  0
   38.1130   32.9400   49.1130 C   0  0  0  0  0  0  0  0  0  0  0  0
   37.9190   31.9440   50.0670 C   0  0  0  0  0  0  0  0  0  0  0  0
   37.8220   30.6130   49.7790 C   0  0  0  0  0  0  0  0  0  0  0  0
   37.9270   30.2560   48.4520 C   0  0  0  0  0  0  0  0  0  0  0  0
   39.7960   29.6425   43.3572 H   0  0  0  0  0  0  0  0  0  0  0  0
   40.4006   30.6656   45.7852 H   0  0  0  0  0  0  0  0  0  0  0  0
   36.1224   29.9532   47.6857 H   0  0  0  0  0  0  0  0  0  0  0  0
   35.2273   30.6077   43.5158 H   0  0  0  0  0  0  0  0  0  0  0  0
   32.1121   30.3206   46.4113 H   0  0  0  0  0  0  0  0  0  0  0  0
   38.3606   33.2632   47.0171 H   0  0  0  0  0  0  0  0  0  0  0  0
   38.1859   34.0030   49.3862 H   0  0  0  0  0  0  0  0  0  0  0  0
   37.8387   32.2495   51.1207 H   0  0  0  0  0  0  0  0  0  0  0  0
   37.6675   29.8620   50.5678 H   0  0  0  0  0  0  0  0  0  0  0  0
   37.8552   29.1932   48.1775 H   0  0  0  0  0  0  0  0  0  0  0  0
  1  7  1  0
  1  5  1  0
  2  3  2  0
  2  1  1  0
  3  4  1  0
  4  5  2  0
  5 12  1  0
  6 11  2  0
  7  6  1  0
  8  9  1  0
  8  7  2  0
  9 10  2  0
 10 11  1  0
 12 13  2  0
 12 17  1  0
 13 14  1  0
 14 15  2  0
 16 15  1  0
 17 16  2  0
  3 18  1  0
  4 19  1  0
  6 20  1  0
  8 21  1  0
 10 22  1  0
 13 23  1  0
 14 24  1  0
 15 25  1  0
 16 26  1  0
 17 27  1  0
M  ISO  8  18  14  19  14  20  14  21  14  22  14  23  14  24  14  25  14
M  ISO  2  26  14  27  14
M  END
>  <minimizedAffinity>  (1) 
-4.89153624

>  <minimizedRMSD>  (1) 
4.06884146

$$$$
