
     RDKit          3D

 24 26  0  0  0  0  0  0  0  0999 V2000
   37.6390   30.7210   47.4160 N   0  0  0  0  0  0  0  0  0  0  0  0
   37.9250   30.4470   46.1610 N   0  0  0  0  0  0  0  0  0  0  0  0
   39.0000   31.1200   45.7370 C   0  0  0  0  0  0  0  0  0  0  0  0
   39.3980   31.8670   46.8370 C   0  0  0  0  0  0  0  0  0  0  0  0
   38.5340   31.6040   47.8760 C   0  0  0  0  0  0  0  0  0  0  0  0
   36.7870   29.4420   49.2980 C   0  0  0  0  0  0  0  0  0  0  0  0
   36.5790   30.1780   48.1370 C   0  0  0  0  0  0  0  0  0  0  0  0
   35.2490   30.3460   47.7240 C   0  0  0  0  0  0  0  0  0  0  0  0
   34.2470   29.7980   48.4570 N   0  0  0  0  0  0  0  0  0  0  0  0
   34.4900   29.0920   49.5780 C   0  0  0  0  0  0  0  0  0  0  0  0
   35.7530   28.9150   49.9960 N   0  0  0  0  0  0  0  0  0  0  0  0
   38.6460   32.2320   49.2360 C   0  0  0  0  0  0  0  0  0  0  0  0
   38.9760   33.7030   49.2720 C   0  0  0  0  0  0  0  0  0  0  0  0
   37.6000   33.2160   49.6170 C   0  0  0  0  0  0  0  0  0  0  0  0
   39.4645   31.0886   44.7404 H   0  0  0  0  0  0  0  0  0  0  0  0
   40.2575   32.5525   46.8725 H   0  0  0  0  0  0  0  0  0  0  0  0
   37.8145   29.2842   49.6577 H   0  0  0  0  0  0  0  0  0  0  0  0
   35.0199   30.9178   46.8126 H   0  0  0  0  0  0  0  0  0  0  0  0
   33.6548   28.6613   50.1498 H   0  0  0  0  0  0  0  0  0  0  0  0
   39.0619   31.3257   49.7004 H   0  0  0  0  0  0  0  0  0  0  0  0
   39.6337   34.1023   50.0581 H   0  0  0  0  0  0  0  0  0  0  0  0
   39.3931   34.4290   48.5586 H   0  0  0  0  0  0  0  0  0  0  0  0
   36.7607   33.4157   48.9346 H   0  0  0  0  0  0  0  0  0  0  0  0
   36.9300   33.3378   50.4809 H   0  0  0  0  0  0  0  0  0  0  0  0
  1  5  1  0
  1  7  1  0
  2  1  1  0
  3  2  2  0
  3  4  1  0
  4  5  2  0
  5 12  1  0
  6 11  2  0
  7  6  1  0
  8  7  2  0
  8  9  1  0
  9 10  2  0
 10 11  1  0
 12 13  1  0
 12 14  1  0
 13 14  1  0
  3 15  1  0
  4 16  1  0
  6 17  1  0
  8 18  1  0
 10 19  1  0
 12 20  1  0
 13 21  1  0
 13 22  1  0
 14 23  1  0
 14 24  1  0
M  ISO  8  15  14  16  14  17  14  18  14  19  14  20  13  21  13  22  13
M  ISO  2  23  13  24  13
M  END
>  <minimizedAffinity>  (1) 
-4.73326111

>  <minimizedRMSD>  (1) 
1.96663201

$$$$
