
     RDKit          3D

 26 27  0  0  0  0  0  0  0  0999 V2000
   37.8740   30.9800   48.0380 N   0  0  0  0  0  0  0  0  0  0  0  0
   38.0600   30.4760   46.8240 N   0  0  0  0  0  0  0  0  0  0  0  0
   38.9010   31.2510   46.1160 C   0  0  0  0  0  0  0  0  0  0  0  0
   39.2470   32.2960   46.9640 C   0  0  0  0  0  0  0  0  0  0  0  0
   38.5920   32.1070   48.1610 C   0  0  0  0  0  0  0  0  0  0  0  0
   37.6310   29.8020   50.1460 C   0  0  0  0  0  0  0  0  0  0  0  0
   37.0570   30.4100   49.0120 C   0  0  0  0  0  0  0  0  0  0  0  0
   35.6780   30.4140   48.9080 C   0  0  0  0  0  0  0  0  0  0  0  0
   34.9560   29.8330   49.9060 N   0  0  0  0  0  0  0  0  0  0  0  0
   35.5340   29.2570   50.9870 C   0  0  0  0  0  0  0  0  0  0  0  0
   36.8620   29.2420   51.1050 N   0  0  0  0  0  0  0  0  0  0  0  0
   38.7170   33.0280   49.3200 C   0  0  0  0  0  0  0  0  0  0  0  0
   37.3620   33.5140   49.7920 C   0  0  0  0  0  0  0  0  0  0  0  0
   39.5790   34.2360   49.0030 C   0  0  0  0  0  0  0  0  0  0  0  0
   39.2430   31.0911   45.0828 H   0  0  0  0  0  0  0  0  0  0  0  0
   39.9248   33.1279   46.7220 H   0  0  0  0  0  0  0  0  0  0  0  0
   38.7257   29.7830   50.2524 H   0  0  0  0  0  0  0  0  0  0  0  0
   35.1779   30.8739   48.0429 H   0  0  0  0  0  0  0  0  0  0  0  0
   34.9075   28.8014   51.7680 H   0  0  0  0  0  0  0  0  0  0  0  0
   39.1999   32.4435   50.1169 H   0  0  0  0  0  0  0  0  0  0  0  0
   37.3382   33.5225   50.8917 H   0  0  0  0  0  0  0  0  0  0  0  0
   37.1852   34.5316   49.4135 H   0  0  0  0  0  0  0  0  0  0  0  0
   36.5787   32.8408   49.4135 H   0  0  0  0  0  0  0  0  0  0  0  0
   39.9131   34.7042   49.9406 H   0  0  0  0  0  0  0  0  0  0  0  0
   40.4555   33.9180   48.4193 H   0  0  0  0  0  0  0  0  0  0  0  0
   38.9933   34.9614   48.4193 H   0  0  0  0  0  0  0  0  0  0  0  0
  1  5  1  0
  1  7  1  0
  2  1  1  0
  3  2  2  0
  3  4  1  0
  4  5  2  0
  5 12  1  0
  6 11  2  0
  7  6  1  0
  8  7  2  0
  8  9  1  0
  9 10  2  0
 10 11  1  0
 12 13  1  0
 14 12  1  0
  3 15  1  0
  4 16  1  0
  6 17  1  0
  8 18  1  0
 10 19  1  0
 12 20  1  0
 13 21  1  0
 13 22  1  0
 13 23  1  0
 14 24  1  0
 14 25  1  0
 14 26  1  0
M  ISO  8  15  14  16  14  17  14  18  14  19  14  20   8  21   8  22   8
M  ISO  4  23   8  24   8  25   8  26   8
M  END
>  <minimizedAffinity>  (1) 
-4.70655489

>  <minimizedRMSD>  (1) 
1.64887357

$$$$
