
     RDKit          3D

 11 11  0  0  0  0  0  0  0  0999 V2000
   37.3110   30.2130   51.4230 C   0  0  0  0  0  0  0  0  0  0  0  0
   38.1000   30.7380   50.3850 C   0  0  0  0  0  0  0  0  0  0  0  0
   37.7320   30.4040   49.0760 C   0  0  0  0  0  0  0  0  0  0  0  0
   36.6550   29.6040   48.8860 N   0  0  0  0  0  0  0  0  0  0  0  0
   35.9270   29.1220   49.9070 C   0  0  0  0  0  0  0  0  0  0  0  0
   36.2500   29.4220   51.1710 N   0  0  0  0  0  0  0  0  0  0  0  0
   34.8160   28.2990   49.7480 O   0  0  0  0  0  0  0  0  0  0  0  0
   37.5658   30.4537   52.4657 H   0  0  0  0  0  0  0  0  0  0  0  0
   38.9674   31.3822   50.5917 H   0  0  0  0  0  0  0  0  0  0  0  0
   38.3063   30.7838   48.2182 H   0  0  0  0  0  0  0  0  0  0  0  0
   34.3211   27.9765   50.5425 H   0  0  0  0  0  0  0  0  0  0  0  0
  2  1  2  0
  3  2  1  0
  4  3  2  0
  4  5  1  0
  5  6  2  0
  6  1  1  0
  7  5  1  0
  1  8  1  0
  2  9  1  0
  3 10  1  0
  7 11  1  0
M  ISO  4   8  14   9  14  10  14  11   3
M  END
>  <minimizedAffinity>  (1) 
-3.19106197

>  <minimizedRMSD>  (1) 
0.0497235358

$$$$
