
     RDKit          3D

 30 33  0  0  0  0  0  0  0  0999 V2000
   33.6920   28.9580   45.2930 N   0  0  0  0  0  0  0  0  0  0  0  0
   33.4020   28.9560   43.9970 N   0  0  0  0  0  0  0  0  0  0  0  0
   34.1420   29.8240   43.3250 C   0  0  0  0  0  0  0  0  0  0  0  0
   34.9470   30.4030   44.2890 C   0  0  0  0  0  0  0  0  0  0  0  0
   34.6520   29.8470   45.5280 C   0  0  0  0  0  0  0  0  0  0  0  0
   33.6760   26.9590   46.6910 C   0  0  0  0  0  0  0  0  0  0  0  0
   33.0740   28.1470   46.2530 C   0  0  0  0  0  0  0  0  0  0  0  0
   31.8340   28.5020   46.8060 C   0  0  0  0  0  0  0  0  0  0  0  0
   31.2990   27.6530   47.7390 N   0  0  0  0  0  0  0  0  0  0  0  0
   31.8960   26.5250   48.1370 C   0  0  0  0  0  0  0  0  0  0  0  0
   33.0830   26.1760   47.6150 N   0  0  0  0  0  0  0  0  0  0  0  0
   35.2980   30.2160   46.7400 N   0  0  0  0  0  0  0  0  0  0  0  0
   34.8600   30.2380   48.0040 C   0  0  0  0  0  0  0  0  0  0  0  0
   35.7950   30.6560   48.8590 N   0  0  0  0  0  0  0  0  0  0  0  0
   36.9020   30.9240   48.1470 C   0  0  0  0  0  0  0  0  0  0  0  0
   38.1290   31.3800   48.5690 C   0  0  0  0  0  0  0  0  0  0  0  0
   39.0630   31.5620   47.6230 N   0  0  0  0  0  0  0  0  0  0  0  0
   38.7770   31.2980   46.3200 C   0  0  0  0  0  0  0  0  0  0  0  0
   37.5650   30.8490   45.9200 N   0  0  0  0  0  0  0  0  0  0  0  0
   36.5730   30.6430   46.8230 C   0  0  0  0  0  0  0  0  0  0  0  0
   38.3490   31.6320   49.9470 N   0  0  0  0  0  0  0  0  0  0  0  0
   34.1213   30.0363   42.2459 H   0  0  0  0  0  0  0  0  0  0  0  0
   35.7021   31.1813   44.1041 H   0  0  0  0  0  0  0  0  0  0  0  0
   34.6490   26.6604   46.2737 H   0  0  0  0  0  0  0  0  0  0  0  0
   31.3137   29.4227   46.5033 H   0  0  0  0  0  0  0  0  0  0  0  0
   31.4157   25.8838   48.8908 H   0  0  0  0  0  0  0  0  0  0  0  0
   33.8434   29.9445   48.3045 H   0  0  0  0  0  0  0  0  0  0  0  0
   39.5598   31.4553   45.5634 H   0  0  0  0  0  0  0  0  0  0  0  0
   39.2661   31.9736   50.2681 H   0  0  0  0  0  0  0  0  0  0  0  0
   37.5917   31.4735   50.6269 H   0  0  0  0  0  0  0  0  0  0  0  0
  1  5  1  0
  1  7  1  0
  2  1  1  0
  3  2  2  0
  3  4  1  0
  4  5  2  0
  5 12  1  0
  6 11  2  0
  7  6  1  0
  7  8  2  0
  8  9  1  0
  9 10  2  0
 11 10  1  0
 12 20  1  0
 12 13  1  0
 13 14  2  0
 15 16  2  0
 15 14  1  0
 16 21  1  0
 17 16  1  0
 18 17  2  0
 19 18  1  0
 19 20  2  0
 20 15  1  0
  3 22  1  0
  4 23  1  0
  6 24  1  0
  8 25  1  0
 10 26  1  0
 13 27  1  0
 18 28  1  0
 21 29  1  0
 21 30  1  0
M  ISO  7  22  14  23  14  24  14  25  14  26  14  27  14  28  14
M  END
>  <minimizedAffinity>  (1) 
-4.39265823

>  <minimizedRMSD>  (1) 
5.90916395

$$$$
