
     RDKit          3D

 18 19  0  0  0  0  0  0  0  0999 V2000
   37.0120   30.0860   50.1620 C   0  0  0  0  0  0  0  0  0  0  0  0
   36.7710   30.5820   48.8880 C   0  0  0  0  0  0  0  0  0  0  0  0
   35.4770   30.4390   48.3820 C   0  0  0  0  0  0  0  0  0  0  0  0
   34.5330   29.8280   49.1550 N   0  0  0  0  0  0  0  0  0  0  0  0
   34.8160   29.3600   50.3940 C   0  0  0  0  0  0  0  0  0  0  0  0
   36.0530   29.4890   50.8970 N   0  0  0  0  0  0  0  0  0  0  0  0
   37.7640   31.1970   48.1330 N   0  0  0  0  0  0  0  0  0  0  0  0
   38.3950   30.6790   47.1090 N   0  0  0  0  0  0  0  0  0  0  0  0
   39.2930   31.4990   46.5860 C   0  0  0  0  0  0  0  0  0  0  0  0
   39.2070   32.6430   47.3680 C   0  0  0  0  0  0  0  0  0  0  0  0
   38.2370   32.4360   48.3420 C   0  0  0  0  0  0  0  0  0  0  0  0
   37.9080   33.3910   49.2870 O   0  0  0  0  0  0  0  0  0  0  0  0
   38.0219   30.1838   50.5868 H   0  0  0  0  0  0  0  0  0  0  0  0
   35.2235   30.8121   47.3787 H   0  0  0  0  0  0  0  0  0  0  0  0
   34.0297   28.8729   50.9894 H   0  0  0  0  0  0  0  0  0  0  0  0
   39.9561   31.3158   45.7276 H   0  0  0  0  0  0  0  0  0  0  0  0
   39.8046   33.5574   47.2388 H   0  0  0  0  0  0  0  0  0  0  0  0
   38.3712   34.2660   49.2886 H   0  0  0  0  0  0  0  0  0  0  0  0
  1  6  2  0
  2  1  1  0
  3  2  2  0
  3  4  1  0
  4  5  2  0
  5  6  1  0
  7 11  1  0
  7  2  1  0
  8  7  1  0
  9  8  2  0
  9 10  1  0
 10 11  2  0
 11 12  1  0
  1 13  1  0
  3 14  1  0
  5 15  1  0
  9 16  1  0
 10 17  1  0
 12 18  1  0
M  ISO  6  13  14  14  14  15  14  16  14  17  14  18   3
M  END
>  <minimizedAffinity>  (1) 
-4.17428684

>  <minimizedRMSD>  (1) 
1.03763056

$$$$
