
     RDKit          3D

 23 24  0  0  0  0  0  0  0  0999 V2000
   35.6360   30.4630   47.9120 C   0  0  0  0  0  0  0  0  0  0  0  0
   36.4010   30.4230   46.7240 C   0  0  0  0  0  0  0  0  0  0  0  0
   35.7100   30.1720   45.5300 C   0  0  0  0  0  0  0  0  0  0  0  0
   34.3490   29.9820   45.5850 N   0  0  0  0  0  0  0  0  0  0  0  0
   33.6720   30.0310   46.7440 C   0  0  0  0  0  0  0  0  0  0  0  0
   34.3140   30.2710   47.9090 N   0  0  0  0  0  0  0  0  0  0  0  0
   36.3090   30.7220   49.1870 C   0  0  0  0  0  0  0  0  0  0  0  0
   37.7890   30.9590   49.0440 C   0  0  0  0  0  0  0  0  0  0  0  0
   38.2570   30.8860   50.4810 C   0  0  0  0  0  0  0  0  0  0  0  0
   37.2060   30.0810   51.2340 C   0  0  0  0  0  0  0  0  0  0  0  0
   36.3090   29.5100   50.1280 C   0  0  0  0  0  0  0  0  0  0  0  0
   37.4894   30.5816   46.7357 H   0  0  0  0  0  0  0  0  0  0  0  0
   36.2450   30.1280   44.5699 H   0  0  0  0  0  0  0  0  0  0  0  0
   32.5832   29.8741   46.7451 H   0  0  0  0  0  0  0  0  0  0  0  0
   35.7478   31.5895   49.5645 H   0  0  0  0  0  0  0  0  0  0  0  0
   38.2616   30.1788   48.4292 H   0  0  0  0  0  0  0  0  0  0  0  0
   38.0412   31.9047   48.5419 H   0  0  0  0  0  0  0  0  0  0  0  0
   39.2340   30.3839   50.5381 H   0  0  0  0  0  0  0  0  0  0  0  0
   38.3762   31.8903   50.9136 H   0  0  0  0  0  0  0  0  0  0  0  0
   37.6748   29.2719   51.8132 H   0  0  0  0  0  0  0  0  0  0  0  0
   36.6465   30.6906   51.9588 H   0  0  0  0  0  0  0  0  0  0  0  0
   35.3001   29.2702   50.4950 H   0  0  0  0  0  0  0  0  0  0  0  0
   36.6434   28.5606   49.6842 H   0  0  0  0  0  0  0  0  0  0  0  0
  1  7  1  0
  2  1  2  0
  3  4  2  0
  3  2  1  0
  4  5  1  0
  5  6  2  0
  6  1  1  0
  7 11  1  0
  8  7  1  0
  8  9  1  0
  9 10  1  0
 11 10  1  0
  2 12  1  0
  3 13  1  0
  5 14  1  0
  7 15  1  0
  8 16  1  0
  8 17  1  0
  9 18  1  0
  9 19  1  0
 10 20  1  0
 10 21  1  0
 11 22  1  0
 11 23  1  0
M  ISO  8  12  14  13  14  14  14  15  13  16  13  17  13  18  13  19  13
M  ISO  4  20  13  21  13  22  13  23  13
M  END
>  <minimizedAffinity>  (1) 
-4.30124807

>  <minimizedRMSD>  (1) 
4.06487322

$$$$
