
     RDKit          3D

 22 22  0  0  0  0  0  0  0  0999 V2000
   37.2260   31.0310   49.0270 C   0  0  0  0  0  0  0  0  0  0  0  0
   38.0980   32.0810   49.4230 C   0  0  0  0  0  0  0  0  0  0  0  0
   38.7740   32.7710   48.4150 C   0  0  0  0  0  0  0  0  0  0  0  0
   38.5700   32.4090   47.1140 N   0  0  0  0  0  0  0  0  0  0  0  0
   37.7320   31.4040   46.7700 C   0  0  0  0  0  0  0  0  0  0  0  0
   37.0680   30.7230   47.7300 N   0  0  0  0  0  0  0  0  0  0  0  0
   36.4430   30.2150   49.9960 C   0  0  0  0  0  0  0  0  0  0  0  0
   36.2520   28.8050   49.5010 C   0  0  0  0  0  0  0  0  0  0  0  0
   35.0470   30.8470   49.9700 C   0  0  0  0  0  0  0  0  0  0  0  0
   37.0390   30.1840   51.3580 C   0  0  0  0  0  0  0  0  0  0  0  0
   38.2351   32.3402   50.4832 H   0  0  0  0  0  0  0  0  0  0  0  0
   39.4603   33.5935   48.6648 H   0  0  0  0  0  0  0  0  0  0  0  0
   37.5915   31.1418   45.7110 H   0  0  0  0  0  0  0  0  0  0  0  0
   36.1598   28.1242   50.3600 H   0  0  0  0  0  0  0  0  0  0  0  0
   35.3384   28.7512   48.8908 H   0  0  0  0  0  0  0  0  0  0  0  0
   37.1184   28.5101   48.8908 H   0  0  0  0  0  0  0  0  0  0  0  0
   34.6970   31.0055   51.0007 H   0  0  0  0  0  0  0  0  0  0  0  0
   35.0914   31.8128   49.4453 H   0  0  0  0  0  0  0  0  0  0  0  0
   34.3506   30.1764   49.4453 H   0  0  0  0  0  0  0  0  0  0  0  0
   36.2373   30.2257   52.1101 H   0  0  0  0  0  0  0  0  0  0  0  0
   37.6136   29.2548   51.4857 H   0  0  0  0  0  0  0  0  0  0  0  0
   37.7069   31.0486   51.4857 H   0  0  0  0  0  0  0  0  0  0  0  0
  1  2  2  0
  1  7  1  0
  3  2  1  0
  4  3  2  0
  5  4  1  0
  5  6  2  0
  6  1  1  0
  7 10  1  0
  8  7  1  0
  9  7  1  0
  2 11  1  0
  3 12  1  0
  5 13  1  0
  8 14  1  0
  8 15  1  0
  8 16  1  0
  9 17  1  0
  9 18  1  0
  9 19  1  0
 10 20  1  0
 10 21  1  0
 10 22  1  0
M  ISO  8  11  14  12  14  13  14  14   8  15   8  16   8  17   8  18   8
M  ISO  4  19   8  20   8  21   8  22   8
M  END
>  <minimizedAffinity>  (1) 
-4.08302259

>  <minimizedRMSD>  (1) 
3.35252428

$$$$
