
     RDKit          3D

 17 17  0  0  0  0  0  0  0  0999 V2000
   38.2930   31.1260   48.5010 C   0  0  0  0  0  0  0  0  0  0  0  0
   38.9540   32.1790   47.8450 C   0  0  0  0  0  0  0  0  0  0  0  0
   38.6230   32.4360   46.5050 C   0  0  0  0  0  0  0  0  0  0  0  0
   37.6750   31.6490   45.9090 N   0  0  0  0  0  0  0  0  0  0  0  0
   37.0590   30.6440   46.5750 C   0  0  0  0  0  0  0  0  0  0  0  0
   37.3770   30.4010   47.8520 N   0  0  0  0  0  0  0  0  0  0  0  0
   38.5990   30.8340   49.8580 N   0  0  0  0  0  0  0  0  0  0  0  0
   37.5400   30.4800   50.7720 C   0  0  0  0  0  0  0  0  0  0  0  0
   36.3480   30.9080   50.5460 N   0  0  0  0  0  0  0  0  0  0  0  0
   37.7740   29.6650   51.9270 N   0  0  0  0  0  0  0  0  0  0  0  0
   35.5090   30.7280   51.1180 H   0  0  0  0  0  0  0  0  0  0  0  0
   39.7095   32.7847   48.3669 H   0  0  0  0  0  0  0  0  0  0  0  0
   39.1128   33.2487   45.9486 H   0  0  0  0  0  0  0  0  0  0  0  0
   36.3001   30.0296   46.0684 H   0  0  0  0  0  0  0  0  0  0  0  0
   39.5739   30.8750   50.1880 H   0  0  0  0  0  0  0  0  0  0  0  0
   36.9948   29.4313   52.5588 H   0  0  0  0  0  0  0  0  0  0  0  0
   38.7214   29.3128   52.1255 H   0  0  0  0  0  0  0  0  0  0  0  0
  1  7  1  0
  2  1  2  0
  3  2  1  0
  4  3  2  0
  4  5  1  0
  5  6  2  0
  6  1  1  0
  7  8  1  0
  8 10  1  0
  9  8  2  0
  9 11  1  0
  2 12  1  0
  3 13  1  0
  5 14  1  0
  7 15  1  0
 10 16  1  0
 10 17  1  0
M  ISO  3  12  14  13  14  14  14
M  END
>  <minimizedAffinity>  (1) 
-3.94533491

>  <minimizedRMSD>  (1) 
3.35798073

$$$$
