
     RDKit          3D

 12 12  0  0  0  0  0  0  0  0999 V2000
   37.5830   30.2160   50.6400 C   0  0  0  0  0  0  0  0  0  0  0  0
   38.3080   31.2680   50.0640 C   0  0  0  0  0  0  0  0  0  0  0  0
   38.0430   31.5620   48.7090 C   0  0  0  0  0  0  0  0  0  0  0  0
   37.1160   30.8210   48.0530 N   0  0  0  0  0  0  0  0  0  0  0  0
   36.4400   29.8130   48.6540 C   0  0  0  0  0  0  0  0  0  0  0  0
   36.6690   29.5030   49.9520 N   0  0  0  0  0  0  0  0  0  0  0  0
   37.7540   29.8100   52.0120 N   0  0  0  0  0  0  0  0  0  0  0  0
   39.0500   31.8388   50.6416 H   0  0  0  0  0  0  0  0  0  0  0  0
   38.5773   32.3752   48.1960 H   0  0  0  0  0  0  0  0  0  0  0  0
   35.6964   29.2396   48.0811 H   0  0  0  0  0  0  0  0  0  0  0  0
   37.1981   29.0303   52.3915 H   0  0  0  0  0  0  0  0  0  0  0  0
   38.4321   30.2995   52.6132 H   0  0  0  0  0  0  0  0  0  0  0  0
  1  7  1  0
  2  1  2  0
  3  2  1  0
  4  5  1  0
  4  3  2  0
  5  6  2  0
  6  1  1  0
  2  8  1  0
  3  9  1  0
  5 10  1  0
  7 11  1  0
  7 12  1  0
M  ISO  3   8  14   9  14  10  14
M  END
>  <minimizedAffinity>  (1) 
-3.2249558

>  <minimizedRMSD>  (1) 
1.18275523

$$$$
