
     RDKit          3D

 27 29  0  0  0  0  0  0  0  0999 V2000
   37.8060   32.0270   48.7600 C   0  0  0  0  0  0  0  0  0  0  0  0
   38.1950   33.2170   49.3620 C   0  0  0  0  0  0  0  0  0  0  0  0
   39.1960   33.9710   48.6850 C   0  0  0  0  0  0  0  0  0  0  0  0
   39.6970   33.4870   47.5150 N   0  0  0  0  0  0  0  0  0  0  0  0
   39.2790   32.3280   46.9830 C   0  0  0  0  0  0  0  0  0  0  0  0
   38.3330   31.5920   47.6010 N   0  0  0  0  0  0  0  0  0  0  0  0
   39.7820   31.7960   45.7620 N   0  0  0  0  0  0  0  0  0  0  0  0
   40.8770   31.0700   45.4390 C   0  0  0  0  0  0  0  0  0  0  0  0
   40.8570   30.8350   44.1040 N   0  0  0  0  0  0  0  0  0  0  0  0
   39.7690   31.4020   43.5860 C   0  0  0  0  0  0  0  0  0  0  0  0
   39.3040   31.4460   42.2950 C   0  0  0  0  0  0  0  0  0  0  0  0
   38.1470   32.1050   42.0500 N   0  0  0  0  0  0  0  0  0  0  0  0
   37.4640   32.7030   43.0350 C   0  0  0  0  0  0  0  0  0  0  0  0
   37.9500   32.6370   44.2790 N   0  0  0  0  0  0  0  0  0  0  0  0
   39.0860   32.0090   44.6220 C   0  0  0  0  0  0  0  0  0  0  0  0
   36.7830   31.2360   49.4320 C   0  0  0  0  0  0  0  0  0  0  0  0
   35.8690   30.6660   48.7710 O   0  0  0  0  0  0  0  0  0  0  0  0
   36.8090   31.1020   50.8090 O   0  0  0  0  0  0  0  0  0  0  0  0
   36.9920   29.7710   51.3070 C   0  0  0  0  0  0  0  0  0  0  0  0
   35.7910   29.1260   51.4930 F   0  0  0  0  0  0  0  0  0  0  0  0
   37.7130   29.8600   52.5020 F   0  0  0  0  0  0  0  0  0  0  0  0
   37.7580   29.0180   50.4360 F   0  0  0  0  0  0  0  0  0  0  0  0
   37.7539   33.5585   50.3101 H   0  0  0  0  0  0  0  0  0  0  0  0
   39.5568   34.9243   49.0987 H   0  0  0  0  0  0  0  0  0  0  0  0
   41.6522   30.7283   46.1407 H   0  0  0  0  0  0  0  0  0  0  0  0
   39.8579   30.9578   41.4796 H   0  0  0  0  0  0  0  0  0  0  0  0
   36.5249   33.2361   42.8254 H   0  0  0  0  0  0  0  0  0  0  0  0
  1  2  2  0
  1 16  1  0
  3  2  1  0
  4  3  2  0
  5  4  1  0
  5  6  2  0
  6  1  1  0
  7  5  1  0
  8  7  1  0
  9  8  2  0
 10  9  1  0
 10 15  2  0
 11 10  1  0
 12 11  2  0
 12 13  1  0
 13 14  2  0
 14 15  1  0
 15  7  1  0
 16 18  1  0
 17 16  2  0
 18 19  1  0
 19 20  1  0
 19 21  1  0
 22 19  1  0
  2 23  1  0
  3 24  1  0
  8 25  1  0
 11 26  1  0
 13 27  1  0
M  ISO  5  23  14  24  14  25  14  26  14  27  14
M  END
>  <minimizedAffinity>  (1) 
-6.60474062

>  <minimizedRMSD>  (1) 
1.78217959

$$$$
