
     RDKit          3D

 23 24  0  0  0  0  0  0  0  0999 V2000
   37.8480   32.1520   48.7760 C   0  0  0  0  0  0  0  0  0  0  0  0
   38.3090   33.2280   49.5120 C   0  0  0  0  0  0  0  0  0  0  0  0
   39.3290   34.0180   48.9520 C   0  0  0  0  0  0  0  0  0  0  0  0
   39.8090   33.6970   47.7310 N   0  0  0  0  0  0  0  0  0  0  0  0
   39.3340   32.6400   47.0420 C   0  0  0  0  0  0  0  0  0  0  0  0
   38.3570   31.8720   47.5630 N   0  0  0  0  0  0  0  0  0  0  0  0
   39.7790   32.2280   45.7540 N   0  0  0  0  0  0  0  0  0  0  0  0
   39.2140   32.9280   44.7430 C   0  0  0  0  0  0  0  0  0  0  0  0
   39.7140   32.4480   43.5390 C   0  0  0  0  0  0  0  0  0  0  0  0
   40.5860   31.4500   43.8680 N   0  0  0  0  0  0  0  0  0  0  0  0
   40.6150   31.3270   45.2040 C   0  0  0  0  0  0  0  0  0  0  0  0
   36.7950   31.3310   49.3450 C   0  0  0  0  0  0  0  0  0  0  0  0
   35.9500   30.7680   48.6010 O   0  0  0  0  0  0  0  0  0  0  0  0
   36.7170   31.1630   50.7130 O   0  0  0  0  0  0  0  0  0  0  0  0
   36.9690   29.8430   51.2020 C   0  0  0  0  0  0  0  0  0  0  0  0
   35.8170   29.0990   51.3110 F   0  0  0  0  0  0  0  0  0  0  0  0
   37.6100   29.9830   52.4420 F   0  0  0  0  0  0  0  0  0  0  0  0
   37.8240   29.1580   50.3670 F   0  0  0  0  0  0  0  0  0  0  0  0
   37.8916   33.4586   50.5032 H   0  0  0  0  0  0  0  0  0  0  0  0
   39.7295   34.8837   49.4998 H   0  0  0  0  0  0  0  0  0  0  0  0
   38.4815   33.7409   44.8557 H   0  0  0  0  0  0  0  0  0  0  0  0
   39.4597   32.7997   42.5282 H   0  0  0  0  0  0  0  0  0  0  0  0
   41.2264   30.6030   45.7627 H   0  0  0  0  0  0  0  0  0  0  0  0
  1 12  1  0
  1  2  2  0
  3  2  1  0
  4  3  2  0
  5  6  2  0
  5  4  1  0
  6  1  1  0
  7  5  1  0
  8  7  1  0
  9 10  1  0
  9  8  2  0
 10 11  2  0
 11  7  1  0
 12 14  1  0
 13 12  2  0
 14 15  1  0
 15 16  1  0
 15 17  1  0
 18 15  1  0
  2 19  1  0
  3 20  1  0
  8 21  1  0
  9 22  1  0
 11 23  1  0
M  ISO  5  19  14  20  14  21  14  22  14  23  14
M  END
>  <minimizedAffinity>  (1) 
-6.13926506

>  <minimizedRMSD>  (1) 
1.86125815

$$$$
