
     RDKit          3D

 23 24  0  0  0  0  0  0  0  0999 V2000
   37.5950   31.7360   48.6800 C   0  0  0  0  0  0  0  0  0  0  0  0
   38.1200   32.9300   49.1450 C   0  0  0  0  0  0  0  0  0  0  0  0
   39.1610   33.5350   48.4150 C   0  0  0  0  0  0  0  0  0  0  0  0
   39.6000   32.9190   47.2900 N   0  0  0  0  0  0  0  0  0  0  0  0
   39.0670   31.7590   46.8680 C   0  0  0  0  0  0  0  0  0  0  0  0
   38.0730   31.1670   47.5510 N   0  0  0  0  0  0  0  0  0  0  0  0
   39.6260   31.1940   45.6440 C   0  0  0  0  0  0  0  0  0  0  0  0
   38.8820   30.3200   44.8830 C   0  0  0  0  0  0  0  0  0  0  0  0
   39.6280   29.9230   43.7730 C   0  0  0  0  0  0  0  0  0  0  0  0
   40.8000   30.5730   43.9040 N   0  0  0  0  0  0  0  0  0  0  0  0
   40.8200   31.3240   44.9930 N   0  0  0  0  0  0  0  0  0  0  0  0
   36.5300   31.1140   49.4220 C   0  0  0  0  0  0  0  0  0  0  0  0
   35.5270   30.6360   48.8340 O   0  0  0  0  0  0  0  0  0  0  0  0
   36.5990   31.0330   50.8070 O   0  0  0  0  0  0  0  0  0  0  0  0
   36.7910   29.7290   51.3490 C   0  0  0  0  0  0  0  0  0  0  0  0
   35.5910   29.1060   51.6240 F   0  0  0  0  0  0  0  0  0  0  0  0
   37.5680   29.8660   52.4980 F   0  0  0  0  0  0  0  0  0  0  0  0
   37.4940   28.9220   50.4690 F   0  0  0  0  0  0  0  0  0  0  0  0
   37.7327   33.3951   50.0635 H   0  0  0  0  0  0  0  0  0  0  0  0
   39.6068   34.4835   48.7491 H   0  0  0  0  0  0  0  0  0  0  0  0
   37.8594   29.9870   45.1142 H   0  0  0  0  0  0  0  0  0  0  0  0
   39.3264   29.2336   42.9707 H   0  0  0  0  0  0  0  0  0  0  0  0
   41.5831   30.4952   43.2394 H   0  0  0  0  0  0  0  0  0  0  0  0
  1  2  2  0
  1 12  1  0
  3  2  1  0
  4  3  2  0
  5  4  1  0
  5  6  2  0
  6  1  1  0
  7  5  1  0
  8  7  1  0
  9 10  1  0
  9  8  2  0
 10 11  1  0
 11  7  2  0
 12 14  1  0
 13 12  2  0
 14 15  1  0
 15 16  1  0
 15 17  1  0
 18 15  1  0
  2 19  1  0
  3 20  1  0
  8 21  1  0
  9 22  1  0
 10 23  1  0
M  ISO  5  19  14  20  14  21  14  22  14  23   9
M  END
>  <minimizedAffinity>  (1) 
-5.90254402

>  <minimizedRMSD>  (1) 
0.981298029

$$$$
