
     RDKit          3D

 25 25  0  0  0  0  0  0  0  0999 V2000
   37.1510   31.3450   48.3000 C   0  0  0  0  0  0  0  0  0  0  0  0
   37.7930   32.3840   48.9730 C   0  0  0  0  0  0  0  0  0  0  0  0
   38.8510   33.0090   48.2850 C   0  0  0  0  0  0  0  0  0  0  0  0
   39.1700   32.5630   47.0260 N   0  0  0  0  0  0  0  0  0  0  0  0
   38.5170   31.5640   46.4350 C   0  0  0  0  0  0  0  0  0  0  0  0
   37.5040   30.9480   47.0670 N   0  0  0  0  0  0  0  0  0  0  0  0
   38.9050   31.1580   45.1320 N   0  0  0  0  0  0  0  0  0  0  0  0
   40.2790   30.9810   44.8210 C   0  0  0  0  0  0  0  0  0  0  0  0
   41.1420   30.7600   45.7700 N   0  0  0  0  0  0  0  0  0  0  0  0
   40.6610   31.0550   43.4460 N   0  0  0  0  0  0  0  0  0  0  0  0
   42.1620   30.6590   45.5430 H   0  0  0  0  0  0  0  0  0  0  0  0
   39.5740   34.1030   48.9200 C   0  0  0  0  0  0  0  0  0  0  0  0
   39.6950   34.1280   50.1690 O   0  0  0  0  0  0  0  0  0  0  0  0
   36.0480   30.6740   48.9840 C   0  0  0  0  0  0  0  0  0  0  0  0
   35.1990   30.0060   48.3330 O   0  0  0  0  0  0  0  0  0  0  0  0
   35.9240   30.7660   50.3590 O   0  0  0  0  0  0  0  0  0  0  0  0
   36.3880   29.6450   51.1160 C   0  0  0  0  0  0  0  0  0  0  0  0
   35.3300   28.9280   51.6350 F   0  0  0  0  0  0  0  0  0  0  0  0
   37.2350   30.1130   52.1140 F   0  0  0  0  0  0  0  0  0  0  0  0
   37.1190   28.7880   50.3350 F   0  0  0  0  0  0  0  0  0  0  0  0
   37.4905   32.6974   49.9831 H   0  0  0  0  0  0  0  0  0  0  0  0
   38.1889   30.9914   44.4107 H   0  0  0  0  0  0  0  0  0  0  0  0
   41.6480   30.9321   43.1784 H   0  0  0  0  0  0  0  0  0  0  0  0
   39.9493   31.2313   42.7226 H   0  0  0  0  0  0  0  0  0  0  0  0
   40.0123   34.9043   48.3069 H   0  0  0  0  0  0  0  0  0  0  0  0
  1  2  2  0
  1 14  1  0
  3 12  1  0
  3  2  1  0
  4  3  2  0
  5  4  1  0
  5  6  2  0
  6  1  1  0
  7  5  1  0
  8  7  1  0
  8  9  2  0
 10  8  1  0
 11  9  1  0
 12 13  2  0
 14 16  1  0
 15 14  2  0
 16 17  1  0
 17 18  1  0
 17 19  1  0
 20 17  1  0
  2 21  1  0
  7 22  1  0
 10 23  1  0
 10 24  1  0
 12 25  1  0
M  ISO  2  21  14  25   6
M  END
>  <minimizedAffinity>  (1) 
-6.23540688

>  <minimizedRMSD>  (1) 
0.685201228

$$$$
