
     RDKit          3D

 29 30  0  0  0  0  0  0  0  0999 V2000
   36.1250   30.3740   47.8920 C   0  0  0  0  0  0  0  0  0  0  0  0
   37.3790   30.8410   47.5330 C   0  0  0  0  0  0  0  0  0  0  0  0
   37.6280   30.9880   46.1510 C   0  0  0  0  0  0  0  0  0  0  0  0
   36.6360   30.6670   45.2600 N   0  0  0  0  0  0  0  0  0  0  0  0
   35.4450   30.2200   45.6700 C   0  0  0  0  0  0  0  0  0  0  0  0
   35.1970   30.0760   46.9800 N   0  0  0  0  0  0  0  0  0  0  0  0
   34.4510   29.9010   44.7000 N   0  0  0  0  0  0  0  0  0  0  0  0
   34.8040   29.1400   43.5610 C   0  0  0  0  0  0  0  0  0  0  0  0
   35.8570   28.3780   43.5810 N   0  0  0  0  0  0  0  0  0  0  0  0
   33.9460   29.2630   42.4140 N   0  0  0  0  0  0  0  0  0  0  0  0
   36.1200   27.8370   42.7180 H   0  0  0  0  0  0  0  0  0  0  0  0
   38.9000   31.4650   45.7270 N   0  0  0  0  0  0  0  0  0  0  0  0
   39.6400   30.6670   44.9130 C   0  0  0  0  0  0  0  0  0  0  0  0
   40.8180   31.2860   44.6150 N   0  0  0  0  0  0  0  0  0  0  0  0
   40.7800   32.4840   45.2650 C   0  0  0  0  0  0  0  0  0  0  0  0
   39.6020   32.5700   45.9370 N   0  0  0  0  0  0  0  0  0  0  0  0
   35.8290   30.2080   49.3040 C   0  0  0  0  0  0  0  0  0  0  0  0
   34.9730   29.3740   49.6960 O   0  0  0  0  0  0  0  0  0  0  0  0
   36.5020   30.9860   50.2460 O   0  0  0  0  0  0  0  0  0  0  0  0
   37.5900   30.3810   50.9180 C   0  0  0  0  0  0  0  0  0  0  0  0
   37.3230   30.2560   52.2710 F   0  0  0  0  0  0  0  0  0  0  0  0
   38.7250   31.1360   50.6840 F   0  0  0  0  0  0  0  0  0  0  0  0
   37.8290   29.1190   50.4180 F   0  0  0  0  0  0  0  0  0  0  0  0
   38.1422   31.0850   48.2867 H   0  0  0  0  0  0  0  0  0  0  0  0
   33.4809   30.2228   44.8275 H   0  0  0  0  0  0  0  0  0  0  0  0
   33.1231   29.8814   42.4504 H   0  0  0  0  0  0  0  0  0  0  0  0
   34.1542   28.7327   41.5559 H   0  0  0  0  0  0  0  0  0  0  0  0
   39.3355   29.6742   44.5502 H   0  0  0  0  0  0  0  0  0  0  0  0
   41.5688   33.2505   45.2483 H   0  0  0  0  0  0  0  0  0  0  0  0
  1 17  1  0
  2  1  2  0
  3  2  1  0
  4  5  1  0
  4  3  2  0
  5  6  2  0
  6  1  1  0
  7  5  1  0
  8  9  2  0
  8  7  1  0
 10  8  1  0
 11  9  1  0
 12 16  1  0
 12  3  1  0
 13 12  1  0
 14 13  2  0
 14 15  1  0
 15 16  2  0
 17 18  2  0
 17 19  1  0
 19 20  1  0
 20 21  1  0
 22 20  1  0
 23 20  1  0
  2 24  1  0
  7 25  1  0
 10 26  1  0
 10 27  1  0
 13 28  1  0
 15 29  1  0
M  ISO  3  24  14  28  14  29  14
M  END
>  <minimizedAffinity>  (1) 
-6.04967213

>  <minimizedRMSD>  (1) 
4.07477999

$$$$
