
     RDKit          3D

 30 31  0  0  0  0  0  0  0  0999 V2000
   36.8500   30.8560   48.1330 C   0  0  0  0  0  0  0  0  0  0  0  0
   37.2690   32.0050   48.7860 C   0  0  0  0  0  0  0  0  0  0  0  0
   38.2570   32.7850   48.1380 C   0  0  0  0  0  0  0  0  0  0  0  0
   38.7330   32.3700   46.9290 N   0  0  0  0  0  0  0  0  0  0  0  0
   38.2970   31.2560   46.3400 C   0  0  0  0  0  0  0  0  0  0  0  0
   37.3610   30.5070   46.9440 N   0  0  0  0  0  0  0  0  0  0  0  0
   38.8240   30.8650   45.0780 N   0  0  0  0  0  0  0  0  0  0  0  0
   40.2350   30.9110   44.8780 C   0  0  0  0  0  0  0  0  0  0  0  0
   41.0510   30.8640   45.8900 N   0  0  0  0  0  0  0  0  0  0  0  0
   40.6730   31.0120   43.5150 N   0  0  0  0  0  0  0  0  0  0  0  0
   42.0820   30.9140   45.7150 H   0  0  0  0  0  0  0  0  0  0  0  0
   38.7270   34.0230   48.8160 C   0  0  0  0  0  0  0  0  0  0  0  0
   39.6890   33.9090   49.9620 C   0  0  0  0  0  0  0  0  0  0  0  0
   40.1360   34.4720   48.6200 C   0  0  0  0  0  0  0  0  0  0  0  0
   35.8400   30.0480   48.7820 C   0  0  0  0  0  0  0  0  0  0  0  0
   35.2650   29.1160   48.1350 O   0  0  0  0  0  0  0  0  0  0  0  0
   35.4940   30.2780   50.0980 O   0  0  0  0  0  0  0  0  0  0  0  0
   36.2520   29.5810   51.0800 C   0  0  0  0  0  0  0  0  0  0  0  0
   35.4420   28.9220   51.9820 F   0  0  0  0  0  0  0  0  0  0  0  0
   37.0860   30.4970   51.7160 F   0  0  0  0  0  0  0  0  0  0  0  0
   37.0720   28.6470   50.4990 F   0  0  0  0  0  0  0  0  0  0  0  0
   36.8533   32.2969   49.7617 H   0  0  0  0  0  0  0  0  0  0  0  0
   38.1974   30.5541   44.3220 H   0  0  0  0  0  0  0  0  0  0  0  0
   41.6794   31.0497   43.2989 H   0  0  0  0  0  0  0  0  0  0  0  0
   39.9810   31.0468   42.7529 H   0  0  0  0  0  0  0  0  0  0  0  0
   37.7423   34.4938   48.6791 H   0  0  0  0  0  0  0  0  0  0  0  0
   39.5904   34.5722   50.8340 H   0  0  0  0  0  0  0  0  0  0  0  0
   40.0275   33.0968   50.6222 H   0  0  0  0  0  0  0  0  0  0  0  0
   40.8148   33.8917   47.9777 H   0  0  0  0  0  0  0  0  0  0  0  0
   40.6184   35.4027   48.2868 H   0  0  0  0  0  0  0  0  0  0  0  0
  1 15  1  0
  1  2  2  0
  3  2  1  0
  3 12  1  0
  4  3  2  0
  5  4  1  0
  5  6  2  0
  6  1  1  0
  7  5  1  0
  8  7  1  0
  8  9  2  0
 10  8  1  0
 11  9  1  0
 12 13  1  0
 14 12  1  0
 14 13  1  0
 15 17  1  0
 16 15  2  0
 17 18  1  0
 18 20  1  0
 18 19  1  0
 21 18  1  0
  2 22  1  0
  7 23  1  0
 10 24  1  0
 10 25  1  0
 12 26  1  0
 13 27  1  0
 13 28  1  0
 14 29  1  0
 14 30  1  0
M  ISO  6  22  14  26  13  27  13  28  13  29  13  30  13
M  END
>  <minimizedAffinity>  (1) 
-5.76773119

>  <minimizedRMSD>  (1) 
1.1288439

$$$$
